data_PCOD9518473
_publ_section_title
;
Structure prediction by ZEFSAII (Michael W. Deem and Ramdas Pophale) SiO2 
 PCOD9518473
Probable space group: I M M M
;
_chemical_formula_sum "Si O2"
_cell_formula_units_Z 112
_cell_length_a 17.354662
_cell_length_b 14.373502
_cell_length_c 22.224281
_cell_angle_alpha 90.000000
_cell_angle_beta 90.000000
_cell_angle_gamma 90.000000
_cell_volume 5543.786200
_symmetry_space_group_name_H-M "I M M M"
_symmetry_group_IT_number 71
_symmetry_cell_setting 'orthorhombic'
loop_
_space_group_symop_operation_xyz
x,y,z
-x,-y,z
x,-y,-z
-x,y,-z
-x,-y,-z
x,y,-z
-x,y,z
x,-y,z
1/2+x,1/2+y,1/2+z
1/2-x,1/2-y,1/2+z
1/2+x,1/2-y,1/2-z
1/2-x,1/2+y,1/2-z
1/2-x,1/2-y,1/2-z
1/2+x,1/2+y,1/2-z
1/2-x,1/2+y,1/2+z
1/2+x,1/2-y,1/2+z
loop_
_atom_site_type_symbol
_atom_site_label
_atom_site_fract_x
_atom_site_fract_y
_atom_site_fract_z
Si Si1 0.681344 0.604337 0.301342
Si Si2 0.137959 0.350347 0.305367
Si Si3 0.410787 0.634268 0.185074
Si Si4 0.411276 0.794042 0.319917
Si Si5 0.341527 0.889107 0.431612
Si Si6 0.836225 0.148987 0.567026
Si Si7 0.090499 0.648850 0.566669
O O1 0.670998 0.500000 0.328927
O O2 0.770843 0.632191 0.304196
O O3 0.648404 0.596141 0.233794
O O4 0.635704 0.696449 0.323228
O O5 0.107013 0.244727 0.312893
O O6 0.112076 0.362712 0.235757
O O7 0.108235 0.396313 0.367941
O O8 0.500000 0.615754 0.199126
O O9 0.389239 0.605311 0.117978
O O10 0.500000 0.770069 0.310968
O O11 0.396175 0.845364 0.382216
O O12 0.356651 0.856917 0.500000
O O13 0.253068 0.862971 0.416502
O O14 0.347538 0.000000 0.430629
O O15 0.847370 0.111213 0.500000
O O16 0.858051 0.258064 0.565028
O O17 0.102362 0.603796 0.500000
O O18 0.000000 0.674149 0.568536
#
# Coordination Sequence:
#
# PCOD9518473 Si02
#       7
#    16  16  16  16  16  16  16
#     4  11  23  38  57  81 112 152 196 243 294 347
#     4  10  18  33  55  81 112 147 193 242 282 334
#     4  10  19  32  53  80 114 154 193 239 296 351
#     4  11  22  37  61  88 115 150 194 246 297 349
#     4  10  22  40  61  87 120 154 188 232 291 358
#     4   9  16  28  49  78 112 149 188 225 268 334
#     4   9  16  28  52  84 116 151 187 229 287 346
#
# _framework density 20.2028
#
# number of rings (size 3 to 8) (size 9 to 14) (size 15 to 20)
#    0.000    2.000    0.000    8.143    0.000    4.857 
#    0.000    0.714    0.000    6.429    0.000   12.000 
#    0.000    0.000    0.000    0.000    0.000    0.000 
#
# Total GULP energy -311829.528132 kJ/mol
# GULP energy per Si atom -5568.384431 kJ/mol
# Density = 2.015682 g / cm^3
# Si number density = 20.202800 Si / 1000 Ang^3
#
#
#
# Elastic Constant Matrix: (Units=GPa)
#
#
# Indices 1 2 3 4 5 6 
#
# 1 78.4625 5.7009 33.8518 0.0000 0.0000 0.0000
# 2 5.7009 75.0921 9.8935 0.0000 0.0000 0.0000
# 3 33.8518 9.8935 93.6855 0.0000 0.0000 0.0000
# 4 0.0000 0.0000 0.0000 47.8705 0.0000 0.0000
# 5 0.0000 0.0000 0.0000 0.0000 33.0694 0.0000
# 6 0.0000 0.0000 0.0000 0.0000 0.0000 -67.9692
#
#
#
# Elastic Compliance Matrix: (Units=1/GPa)
#
#
# Indices 1 2 3 4 5 6 
#
# 1 0.015113 -0.000434 -0.005415 0.000000 0.000000 0.000000
# 2 -0.000434 0.013517 -0.001271 0.000000 0.000000 0.000000
# 3 -0.005415 -0.001271 0.012765 0.000000 0.000000 0.000000
# 4 0.000000 0.000000 0.000000 0.020890 0.000000 0.000000
# 5 0.000000 0.000000 0.000000 0.000000 0.030239 0.000000
# 6 0.000000 0.000000 0.000000 0.000000 0.000000 -0.014713
#
#
# Mechanical properties :
#
#
# Convention : Reuss Voigt Hill
#
# Bulk Modulus (GPa) = 36.82457 38.45917 37.64187
# Shear Modulus (GPa) = 49.45483 15.78039 32.61761
#
# Velocity S-wave (km/s) = 4.95301 2.79785 4.02246
# Velocity P-wave (km/s) = 7.13980 5.43278 6.34397
#
# Compressibility (1/GPa) = 0.02715578
#
# Stress axis : x y z
#
# Youngs Moduli (GPa) = 66.16957 73.97902 78.34049
#
# Poissons Ratio (x) = 0.03210 0.42421
# Poissons Ratio (y) = 0.02871 0.09955
# Poissons Ratio (z) = 0.35830 0.09400
#
# Static dielectric constant tensor:
#      x y z
#    x 1.665400 0.000000 0.000000 
#    y 0.000000 1.763000 0.000000 
#    z 0.000000 0.000000 1.800410 
# 
# From -- ./inp_files/59946.got.cif
#   From: 2010.05.17/outbox.cif.g08.bks.cpg/sg71_30_cif.got.tgz:59946.got - 2010.06.03 16:22:01.
