data_PCOD9518603
_publ_section_title
;
Structure prediction by ZEFSAII (Michael W. Deem and Ramdas Pophale) SiO2 
 PCOD9518603
Probable space group: I M M M
;
_chemical_formula_sum "Si O2"
_cell_formula_units_Z 80
_cell_length_a 7.997064
_cell_length_b 34.005249
_cell_length_c 20.049915
_cell_angle_alpha 90.000000
_cell_angle_beta 90.000000
_cell_angle_gamma 90.000000
_cell_volume 5452.417044
_symmetry_space_group_name_H-M "I M M M"
_symmetry_group_IT_number 71
_symmetry_cell_setting 'orthorhombic'
loop_
_space_group_symop_operation_xyz
x,y,z
-x,-y,z
x,-y,-z
-x,y,-z
-x,-y,-z
x,y,-z
-x,y,z
x,-y,z
1/2+x,1/2+y,1/2+z
1/2-x,1/2-y,1/2+z
1/2+x,1/2-y,1/2-z
1/2-x,1/2+y,1/2-z
1/2-x,1/2-y,1/2-z
1/2+x,1/2+y,1/2-z
1/2-x,1/2+y,1/2+z
1/2+x,1/2-y,1/2+z
loop_
_atom_site_type_symbol
_atom_site_label
_atom_site_fract_x
_atom_site_fract_y
_atom_site_fract_z
Si Si1 0.294814 0.742276 0.000000
Si Si2 0.301405 0.123947 0.865416
Si Si3 0.698007 0.269821 0.145020
Si Si4 0.703859 0.833741 0.000000
Si Si5 0.698088 0.306780 0.280315
Si Si6 0.298330 0.544608 0.423714
O O1 0.234915 0.724601 0.929699
O O2 0.247904 0.788266 0.000000
O O3 0.500000 0.740997 0.000000
O O4 0.500000 0.128639 0.863340
O O5 0.230161 0.149163 0.804544
O O6 0.260441 0.078187 0.873633
O O7 0.236716 0.144467 0.933492
O O8 0.500000 0.277271 0.141320
O O9 0.764449 0.295814 0.206562
O O10 0.722576 0.224564 0.168255
O O11 0.500000 0.835281 0.000000
O O12 0.500000 0.299155 0.281040
O O13 0.240816 0.553443 0.500000
O O14 0.500000 0.544961 0.424714
O O15 0.244644 0.500000 0.407852
#
# Coordination Sequence:
#
# PCOD9518603 Si02
#       6
#     8  16  16   8  16  16
#     4   9  14  26  44  57  73 100 136 173 205 237
#     4  11  19  29  43  58  78 107 141 172 201 238
#     4   9  17  29  43  57  76 103 135 170 207 247
#     4   9  16  24  37  57  76  99 135 173 201 226
#     4  10  19  28  39  58  81 104 132 168 210 247
#     4   9  18  31  44  60  83 106 129 165 211 247
#
# _framework density 14.672390999999999
#
# number of rings (size 3 to 8) (size 9 to 14) (size 15 to 20)
#    0.000    2.400    3.000    1.800    0.000    1.200 
#    0.000    2.500    0.000    0.000    0.000    0.000 
#    0.000    0.000    0.000    0.900    0.000   20.600 
#
# Total GULP energy -222913.574121 kJ/mol
# GULP energy per Si atom -5572.839353 kJ/mol
# Density = 1.463900 g / cm^3
# Si number density = 14.672391 Si / 1000 Ang^3
#
#
#
# Elastic Constant Matrix: (Units=GPa)
#
#
# Indices 1 2 3 4 5 6 
#
# 1 7.8504 -5.1354 2.2293 0.0000 0.0000 0.0000
# 2 -5.1354 75.2146 40.4701 0.0000 0.0000 0.0000
# 3 2.2293 40.4701 105.7799 0.0000 0.0000 0.0000
# 4 0.0000 0.0000 0.0000 23.0318 0.0000 0.0000
# 5 0.0000 0.0000 0.0000 0.0000 9.6736 0.0000
# 6 0.0000 0.0000 0.0000 0.0000 0.0000 16.5797
#
#
#
# Elastic Compliance Matrix: (Units=1/GPa)
#
#
# Indices 1 2 3 4 5 6 
#
# 1 0.138830 0.013918 -0.008251 0.000000 0.000000 0.000000
# 2 0.013918 0.018137 -0.007232 0.000000 0.000000 0.000000
# 3 -0.008251 -0.007232 0.012394 0.000000 0.000000 0.000000
# 4 0.000000 0.000000 0.000000 0.043418 0.000000 0.000000
# 5 0.000000 0.000000 0.000000 0.000000 0.103374 0.000000
# 6 0.000000 0.000000 0.000000 0.000000 0.000000 0.060315
#
#
# Mechanical properties :
#
#
# Convention : Reuss Voigt Hill
#
# Bulk Modulus (GPa) = 6.01571 29.33033 17.67302
# Shear Modulus (GPa) = 11.49405 19.94244 15.71824
#
# Velocity S-wave (km/s) = 2.80193 3.69071 3.27659
# Velocity P-wave (km/s) = 3.81794 6.18023 5.13673
#
# Compressibility (1/GPa) = 0.16623128
#
# Stress axis : x y z
#
# Youngs Moduli (GPa) = 7.20308 55.13586 80.68114
#
# Poissons Ratio (x) = -0.76739 0.66569
# Poissons Ratio (y) = -0.10025 0.58351
# Poissons Ratio (z) = 0.05943 0.39876
#
# Static dielectric constant tensor:
#      x y z
#    x 1.525100 0.000000 0.000000 
#    y 0.000000 1.478900 0.000000 
#    z 0.000000 0.000000 1.513870 
# 
# From -- ./inp_files/16799.got.cif
#   From: 2010.05.17/outbox.cif.g08.bks.cpg/sg71_9_cif.got.tgz:16799.got - 2010.06.03 16:22:01.
