data_PCOD9518027
_publ_section_title
;
Structure prediction by ZEFSAII (Michael W. Deem and Ramdas Pophale) SiO2 
 PCOD9518027
Probable space group: I M M M
;
_chemical_formula_sum "Si O2"
_cell_formula_units_Z 92
_cell_length_a 7.480819
_cell_length_b 23.746555
_cell_length_c 29.800166
_cell_angle_alpha 90.000000
_cell_angle_beta 90.000000
_cell_angle_gamma 90.000000
_cell_volume 5293.811148
_symmetry_space_group_name_H-M "I M M M"
_symmetry_group_IT_number 71
_symmetry_cell_setting 'orthorhombic'
loop_
_space_group_symop_operation_xyz
x,y,z
-x,-y,z
x,-y,-z
-x,y,-z
-x,-y,-z
x,y,-z
-x,y,z
x,-y,z
1/2+x,1/2+y,1/2+z
1/2-x,1/2-y,1/2+z
1/2+x,1/2-y,1/2-z
1/2-x,1/2+y,1/2-z
1/2-x,1/2-y,1/2-z
1/2+x,1/2+y,1/2-z
1/2-x,1/2+y,1/2+z
1/2+x,1/2-y,1/2+z
loop_
_atom_site_type_symbol
_atom_site_label
_atom_site_fract_x
_atom_site_fract_y
_atom_site_fract_z
Si Si1 0.217803 0.564140 0.500000
Si Si2 0.786673 0.436131 0.676214
Si Si3 0.708492 0.768628 0.677085
Si Si4 0.287652 0.334462 0.736252
Si Si5 0.000000 0.781169 0.500000
Si Si6 0.217825 0.368405 0.411410
Si Si7 0.792479 0.262503 0.921258
O O1 0.279274 0.500000 0.500000
O O2 0.271334 0.596812 0.544636
O O3 0.000000 0.563290 0.500000
O O4 0.717363 0.500000 0.678973
O O5 0.753336 0.396583 0.718937
O O6 0.720496 0.401486 0.632869
O O7 0.000000 0.440150 0.670638
O O8 0.500000 0.756637 0.669378
O O9 0.785806 0.712122 0.700661
O O10 0.723081 0.816728 0.714626
O O11 0.775669 0.783376 0.627736
O O12 0.500000 0.327600 0.737242
O O13 0.157560 0.778367 0.460656
O O14 0.287498 0.305364 0.415544
O O15 0.000000 0.365065 0.410652
O O16 0.000000 0.279642 0.929466
#
# Coordination Sequence:
#
# PCOD9518027 Si02
#       7
#     8  16  16  16   4  16  16
#     4   9  17  28  43  62  82 114 168 223 267 310
#     4  10  20  32  47  70 103 141 177 217 268 321
#     4   9  19  34  52  75  99 128 169 218 266 320
#     4  10  19  31  51  75  99 130 169 217 269 319
#     4  12  24  36  52  76 107 142 173 224 276 320
#     4  10  18  30  49  67  92 128 175 224 273 312
#     4  11  22  36  54  76 103 135 176 220 271 325
#
# _framework density 17.378784
#
# number of rings (size 3 to 8) (size 9 to 14) (size 15 to 20)
#    0.000    2.000    2.609    1.826    2.435    3.130 
#    0.000    0.000    0.000    2.087    0.000    0.000 
#    0.000    0.000    0.000    1.565    0.000   13.130 
#
# Total GULP energy -256162.574243 kJ/mol
# GULP energy per Si atom -5568.751614 kJ/mol
# Density = 1.733923 g / cm^3
# Si number density = 17.378784 Si / 1000 Ang^3
#
#
#
# Elastic Constant Matrix: (Units=GPa)
#
#
# Indices 1 2 3 4 5 6 
#
# 1 82.0176 -6.3660 27.9774 0.0000 0.0000 0.0000
# 2 -6.3660 25.9789 21.7305 0.0000 0.0000 0.0000
# 3 27.9774 21.7305 150.0188 0.0000 0.0000 0.0000
# 4 0.0000 0.0000 0.0000 -44.2118 0.0000 0.0000
# 5 0.0000 0.0000 0.0000 0.0000 11.4231 0.0000
# 6 0.0000 0.0000 0.0000 0.0000 0.0000 12.3776
#
#
#
# Elastic Compliance Matrix: (Units=1/GPa)
#
#
# Indices 1 2 3 4 5 6 
#
# 1 0.013880 0.006334 -0.003506 0.000000 0.000000 0.000000
# 2 0.006334 0.046690 -0.007944 0.000000 0.000000 0.000000
# 3 -0.003506 -0.007944 0.008470 0.000000 0.000000 0.000000
# 4 0.000000 0.000000 0.000000 -0.022618 0.000000 0.000000
# 5 0.000000 0.000000 0.000000 0.000000 0.087542 0.000000
# 6 0.000000 0.000000 0.000000 0.000000 0.000000 0.080791
#
#
# Mechanical properties :
#
#
# Convention : Reuss Voigt Hill
#
# Bulk Modulus (GPa) = 17.00461 38.29992 27.65226
# Shear Modulus (GPa) = 20.44232 10.22934 15.33583
#
# Velocity S-wave (km/s) = 3.43341 2.42876 2.97382
# Velocity P-wave (km/s) = 5.05210 5.47278 5.26664
#
# Compressibility (1/GPa) = 0.05880759
#
# Stress axis : x y z
#
# Youngs Moduli (GPa) = 72.04569 21.41785 118.05768
#
# Poissons Ratio (x) = -0.13566 0.41391
# Poissons Ratio (y) = -0.45633 0.93789
# Poissons Ratio (z) = 0.25259 0.17015
#
# Static dielectric constant tensor:
#      x y z
#    x 1.660760 0.000000 0.000000 
#    y 0.000000 1.577900 0.000000 
#    z 0.000000 0.000000 1.619820 
# 
# From -- ./inp_files/15207.got.cif
#   From: 2010.05.17/outbox.cif.g08.bks.cpg/sg71_8_cif.got.tgz:15207.got - 2010.06.03 16:22:01.
