data_PCOD9518462
_publ_section_title
;
Structure prediction by ZEFSAII (Michael W. Deem and Ramdas Pophale) SiO2 
 PCOD9518462
Probable space group: I M M M
;
_chemical_formula_sum "Si O2"
_cell_formula_units_Z 88
_cell_length_a 18.090097
_cell_length_b 13.586328
_cell_length_c 20.870891
_cell_angle_alpha 90.000000
_cell_angle_beta 90.000000
_cell_angle_gamma 90.000000
_cell_volume 5129.605669
_symmetry_space_group_name_H-M "I M M M"
_symmetry_group_IT_number 71
_symmetry_cell_setting 'orthorhombic'
loop_
_space_group_symop_operation_xyz
x,y,z
-x,-y,z
x,-y,-z
-x,y,-z
-x,-y,-z
x,y,-z
-x,y,z
x,-y,z
1/2+x,1/2+y,1/2+z
1/2-x,1/2-y,1/2+z
1/2+x,1/2-y,1/2-z
1/2-x,1/2+y,1/2-z
1/2-x,1/2-y,1/2-z
1/2+x,1/2+y,1/2-z
1/2-x,1/2+y,1/2+z
1/2+x,1/2-y,1/2+z
loop_
_atom_site_type_symbol
_atom_site_label
_atom_site_fract_x
_atom_site_fract_y
_atom_site_fract_z
Si Si1 0.315555 0.110954 0.350559
Si Si2 0.088623 0.500000 0.573866
Si Si3 0.584486 0.257793 0.715525
Si Si4 0.137418 0.305285 0.350209
Si Si5 0.725179 0.612293 0.283060
Si Si6 0.328814 0.612870 0.075596
O O1 0.380950 0.187172 0.338760
O O2 0.263657 0.116281 0.286712
O O3 0.258339 0.125700 0.408392
O O4 0.345073 0.000000 0.353828
O O5 0.114270 0.500000 0.500000
O O6 0.114602 0.599368 0.609327
O O7 0.000000 0.500000 0.574274
O O8 0.500000 0.284793 0.704193
O O9 0.592210 0.202043 0.783925
O O10 0.642769 0.346813 0.720473
O O11 0.222461 0.323005 0.328561
O O12 0.131103 0.202239 0.387872
O O13 0.726864 0.500000 0.304901
O O14 0.347694 0.500000 0.096564
O O15 0.342206 0.619807 0.000000
#
# Coordination Sequence:
#
# PCOD9518462 Si02
#       6
#    16   8  16  16  16  16
#     4   9  17  32  51  73 103 133 169 219 271 320
#     4  11  24  38  54  82 117 147 178 224 276 323
#     4  11  21  31  50  80 109 139 175 222 277 322
#     4  11  19  37  55  79 109 145 184 219 266 325
#     4  10  18  33  54  74 104 141 182 224 265 320
#     4  10  19  32  56  83 104 135 183 228 261 308
#
# _framework density 17.155314000000001
#
# number of rings (size 3 to 8) (size 9 to 14) (size 15 to 20)
#    0.000    1.727    4.545    2.182    1.273    0.727 
#    0.000    0.000    0.000    2.182    0.000    8.909 
#    0.000    2.182    0.000    0.000    0.000    0.000 
#
# Total GULP energy -245327.028502 kJ/mol
# GULP energy per Si atom -5575.614284 kJ/mol
# Density = 1.711627 g / cm^3
# Si number density = 17.155314 Si / 1000 Ang^3
#
#
#
# Elastic Constant Matrix: (Units=GPa)
#
#
# Indices 1 2 3 4 5 6 
#
# 1 71.6472 2.5746 -18.2305 0.0000 0.0000 0.0000
# 2 2.5746 93.7612 8.1747 0.0000 0.0000 0.0000
# 3 -18.2305 8.1747 16.3399 0.0000 0.0000 0.0000
# 4 0.0000 0.0000 0.0000 25.5575 0.0000 0.0000
# 5 0.0000 0.0000 0.0000 0.0000 8.7015 0.0000
# 6 0.0000 0.0000 0.0000 0.0000 0.0000 18.8685
#
#
#
# Elastic Compliance Matrix: (Units=1/GPa)
#
#
# Indices 1 2 3 4 5 6 
#
# 1 0.020088 -0.002620 0.023723 0.000000 0.000000 0.000000
# 2 -0.002620 0.011494 -0.008673 0.000000 0.000000 0.000000
# 3 0.023723 -0.008673 0.092007 0.000000 0.000000 0.000000
# 4 0.000000 0.000000 0.000000 0.039128 0.000000 0.000000
# 5 0.000000 0.000000 0.000000 0.000000 0.114923 0.000000
# 6 0.000000 0.000000 0.000000 0.000000 0.000000 0.052998
#
#
# Mechanical properties :
#
#
# Convention : Reuss Voigt Hill
#
# Bulk Modulus (GPa) = 6.73641 18.53175 12.63408
# Shear Modulus (GPa) = 14.07420 23.24079 18.65750
#
# Velocity S-wave (km/s) = 2.86737 3.68466 3.30140
# Velocity P-wave (km/s) = 3.85975 5.37848 4.68112
#
# Compressibility (1/GPa) = 0.14844705
#
# Stress axis : x y z
#
# Youngs Moduli (GPa) = 49.78188 87.00566 10.86878
#
# Poissons Ratio (x) = 0.22794 -0.25784
# Poissons Ratio (y) = 0.13042 0.09427
# Poissons Ratio (z) = -1.18096 0.75461
#
# Static dielectric constant tensor:
#      x y z
#    x 1.571430 0.000000 0.000000 
#    y 0.000000 1.619030 0.000000 
#    z 0.000000 0.000000 1.583190 
# 
# From -- ./inp_files/54067.got.cif
#   From: 2010.05.17/outbox.cif.g08.bks.cpg/sg71_28_cif.got.tgz:54067.got - 2010.06.03 16:22:01.
