data_PCOD9518231
_publ_section_title
;
Structure prediction by ZEFSAII (Michael W. Deem and Ramdas Pophale) SiO2 
 PCOD9518231
Probable space group: I M M M
;
_chemical_formula_sum "Si O2"
_cell_formula_units_Z 88
_cell_length_a 17.031289
_cell_length_b 29.983227
_cell_length_c 7.350230
_cell_angle_alpha 90.000000
_cell_angle_beta 90.000000
_cell_angle_gamma 90.000000
_cell_volume 3753.417031
_symmetry_space_group_name_H-M "I M M M"
_symmetry_group_IT_number 71
_symmetry_cell_setting 'orthorhombic'
loop_
_space_group_symop_operation_xyz
x,y,z
-x,-y,z
x,-y,-z
-x,y,-z
-x,-y,-z
x,y,-z
-x,y,z
x,-y,z
1/2+x,1/2+y,1/2+z
1/2-x,1/2-y,1/2+z
1/2+x,1/2-y,1/2-z
1/2-x,1/2+y,1/2-z
1/2-x,1/2-y,1/2-z
1/2+x,1/2+y,1/2-z
1/2-x,1/2+y,1/2+z
1/2+x,1/2-y,1/2+z
loop_
_atom_site_type_symbol
_atom_site_label
_atom_site_fract_x
_atom_site_fract_y
_atom_site_fract_z
Si Si1 0.909437 0.638514 0.222202
Si Si2 0.500000 0.551215 0.721310
Si Si3 0.587706 0.682727 0.721726
Si Si4 0.836953 0.904552 0.219773
Si Si5 0.327367 0.050099 0.711096
Si Si6 0.835244 0.270871 0.216784
O O1 0.879075 0.590530 0.288795
O O2 0.855508 0.679841 0.285591
O O3 0.000000 0.646404 0.270679
O O4 0.905398 0.637430 0.000000
O O5 0.500000 0.500000 0.774212
O O6 0.500000 0.554023 0.500000
O O7 0.581304 0.573297 0.779071
O O8 0.588512 0.682541 0.500000
O O9 0.500000 0.668724 0.775719
O O10 0.653539 0.646989 0.778323
O O11 0.605726 0.732533 0.783691
O O12 0.761644 0.931499 0.283511
O O13 0.833672 0.905549 0.000000
O O14 0.350313 0.046368 0.500000
O O15 0.332568 0.000000 0.788930
O O16 0.750000 0.250000 0.250000
O O17 0.845203 0.273443 0.000000
#
# Coordination Sequence:
#
# PCOD9518231 Si02
#       6
#    16   8  16  16  16  16
#     4   9  18  34  55  77 100 132 176 217 251 296
#     4   9  16  26  43  67  93 125 167 207 236 276
#     4   9  16  28  48  74  99 125 162 204 240 280
#     4  10  18  31  51  74 100 131 169 209 249 300
#     4  10  21  35  51  73 101 131 166 214 266 308
#     4  10  19  31  51  77 104 132 162 200 248 300
#
# _framework density 23.445302999999999
#
# number of rings (size 3 to 8) (size 9 to 14) (size 15 to 20)
#    0.000    2.455    0.909    2.182    0.000    3.636 
#    0.000    2.273    0.000    6.545    0.000    1.273 
#    0.000    0.000    0.000    0.000    0.000    0.000 
#
# Total GULP energy -245801.149528 kJ/mol
# GULP energy per Si atom -5586.389762 kJ/mol
# Density = 2.339194 g / cm^3
# Si number density = 23.445303 Si / 1000 Ang^3
#
#
#
# Elastic Constant Matrix: (Units=GPa)
#
#
# Indices 1 2 3 4 5 6 
#
# 1 106.2507 73.4375 -9.9012 -0.0007 0.0010 -0.0004
# 2 73.4375 227.6939 10.6320 0.0035 0.0017 -0.0004
# 3 -9.9012 10.6320 88.3826 0.0289 -0.0064 -0.0007
# 4 -0.0007 0.0035 0.0289 -1.5614 -0.0004 -0.0007
# 5 0.0010 0.0017 -0.0064 -0.0004 22.9635 -0.0004
# 6 -0.0004 -0.0004 -0.0007 -0.0007 -0.0004 35.1229
#
#
#
# Elastic Compliance Matrix: (Units=1/GPa)
#
#
# Indices 1 2 3 4 5 6 
#
# 1 0.012416 -0.004092 0.001883 0.000020 0.000000 0.000000
# 2 -0.004092 0.005766 -0.001152 -0.000007 -0.000001 0.000000
# 3 0.001883 -0.001152 0.011664 0.000212 0.000003 0.000000
# 4 0.000020 -0.000007 0.000212 -0.640436 -0.000012 -0.000013
# 5 0.000000 -0.000001 0.000003 -0.000012 0.043547 0.000000
# 6 0.000000 0.000000 0.000000 -0.000013 0.000000 0.028471
#
#
# Mechanical properties :
#
#
# Convention : Reuss Voigt Hill
#
# Bulk Modulus (GPa) = 43.24736 63.40707 53.32721
# Shear Modulus (GPa) = -9.53940 34.51558 12.48809
#
# Velocity S-wave (km/s) = -2.01931 3.84106 2.31042
# Velocity P-wave (km/s) = 3.61238 6.83923 5.46920
#
# Compressibility (1/GPa) = 0.02312280
#
# Stress axis : x y z
#
# Youngs Moduli (GPa) = 80.54325 173.44422 85.73448
#
# Poissons Ratio (x) = 0.70979 -0.16145
# Poissons Ratio (y) = 0.32961 0.09877
# Poissons Ratio (z) = -0.15168 0.19981
#
# Static dielectric constant tensor:
#      x y z
#    x 1.849640 0.000670 -0.000440 
#    y 0.000670 0.328370 -0.013260 
#    z -0.000440 -0.013260 -0.917350 
# 
# From -- ./inp_files/8730.got.cif
#   From: 2010.05.17/outbox.cif.g08.bks.cpg/sg71_5_cif.got.tgz:8730.got - 2010.06.03 16:22:01.
