data_PCOD9518774
_publ_section_title
;
Structure prediction by ZEFSAII (Michael W. Deem and Ramdas Pophale) SiO2 
 PCOD9518774
Probable space group: I M M M
;
_chemical_formula_sum "Si O2"
_cell_formula_units_Z 80
_cell_length_a 19.542481
_cell_length_b 20.783803
_cell_length_c 14.091296
_cell_angle_alpha 90.000000
_cell_angle_beta 90.000000
_cell_angle_gamma 90.000000
_cell_volume 5723.420483
_symmetry_space_group_name_H-M "I M M M"
_symmetry_group_IT_number 71
_symmetry_cell_setting 'orthorhombic'
loop_
_space_group_symop_operation_xyz
x,y,z
-x,-y,z
x,-y,-z
-x,y,-z
-x,-y,-z
x,y,-z
-x,y,z
x,-y,z
1/2+x,1/2+y,1/2+z
1/2-x,1/2-y,1/2+z
1/2+x,1/2-y,1/2-z
1/2-x,1/2+y,1/2-z
1/2-x,1/2-y,1/2-z
1/2+x,1/2+y,1/2-z
1/2-x,1/2+y,1/2+z
1/2+x,1/2-y,1/2+z
loop_
_atom_site_type_symbol
_atom_site_label
_atom_site_fract_x
_atom_site_fract_y
_atom_site_fract_z
Si Si1 0.418606 0.622125 0.266605
Si Si2 0.419442 0.249147 0.387323
Si Si3 0.815150 0.077273 0.386556
Si Si4 0.335253 0.876717 0.615026
Si Si5 0.078406 0.500000 0.884183
Si Si6 0.417078 0.500000 0.393014
O O1 0.500000 0.616819 0.247667
O O2 0.407255 0.688656 0.322401
O O3 0.375172 0.611130 0.172007
O O4 0.397945 0.563781 0.336235
O O5 0.409033 0.263585 0.500000
O O6 0.500000 0.230649 0.378125
O O7 0.370141 0.190573 0.358470
O O8 0.823291 0.085172 0.500000
O O9 0.742677 0.108785 0.357131
O O10 0.813742 0.000000 0.368538
O O11 0.335949 0.877900 0.500000
O O12 0.381998 0.936258 0.647142
O O13 0.000000 0.500000 0.853795
O O14 0.078981 0.500000 0.000000
O O15 0.500000 0.500000 0.397678
O O16 0.390675 0.500000 0.500000
#
# Coordination Sequence:
#
# PCOD9518774 Si02
#       6
#    16  16  16  16   8   8
#     4  10  19  30  44  63  84 113 151 184 216 255
#     4   9  17  29  45  66  92 115 137 173 219 266
#     4  10  19  31  45  61  86 117 149 186 217 245
#     4   9  16  27  42  62  87 115 143 171 211 260
#     4   9  14  21  38  62  85 110 140 170 203 252
#     4   9  16  27  43  61  81 106 139 177 214 253
#
# _framework density 13.977655
#
# number of rings (size 3 to 8) (size 9 to 14) (size 15 to 20)
#    0.000    2.600    2.000    1.200    0.000    6.000 
#    0.000    1.000    0.000    0.000    0.000    0.000 
#    0.000    0.000    0.000    0.000    0.000   21.000 
#
# Total GULP energy -222718.842163 kJ/mol
# GULP energy per Si atom -5567.971054 kJ/mol
# Density = 1.394584 g / cm^3
# Si number density = 13.977655 Si / 1000 Ang^3
#
#
#
# Elastic Constant Matrix: (Units=GPa)
#
#
# Indices 1 2 3 4 5 6 
#
# 1 94.0556 68.7266 45.6836 0.0000 0.0000 0.0000
# 2 68.7266 113.4037 40.7176 0.0000 0.0000 0.0000
# 3 45.6836 40.7176 48.6741 0.0000 0.0000 0.0000
# 4 0.0000 0.0000 0.0000 9.2092 0.0000 0.0000
# 5 0.0000 0.0000 0.0000 0.0000 15.3139 0.0000
# 6 0.0000 0.0000 0.0000 0.0000 0.0000 21.2070
#
#
#
# Elastic Compliance Matrix: (Units=1/GPa)
#
#
# Indices 1 2 3 4 5 6 
#
# 1 0.025351 -0.009749 -0.015638 0.000000 0.000000 0.000000
# 2 -0.009749 0.016352 -0.004530 0.000000 0.000000 0.000000
# 3 -0.015638 -0.004530 0.039012 0.000000 0.000000 0.000000
# 4 0.000000 0.000000 0.000000 0.108587 0.000000 0.000000
# 5 0.000000 0.000000 0.000000 0.000000 0.065300 0.000000
# 6 0.000000 0.000000 0.000000 0.000000 0.000000 0.047154
#
#
# Mechanical properties :
#
#
# Convention : Reuss Voigt Hill
#
# Bulk Modulus (GPa) = 47.88899 62.93213 55.41056
# Shear Modulus (GPa) = 13.56665 15.87973 14.72319
#
# Velocity S-wave (km/s) = 3.11882 3.37423 3.24904
# Velocity P-wave (km/s) = 6.87785 7.76542 7.33507
#
# Compressibility (1/GPa) = 0.02088163
#
# Stress axis : x y z
#
# Youngs Moduli (GPa) = 39.44596 61.15282 25.63334
#
# Poissons Ratio (x) = 0.59616 0.40087
# Poissons Ratio (y) = 0.38455 0.11611
# Poissons Ratio (z) = 0.61687 0.27700
#
# Static dielectric constant tensor:
#      x y z
#    x 1.458610 0.000000 0.000000 
#    y 0.000000 1.458050 0.000000 
#    z 0.000000 0.000000 1.440790 
# 
# From -- ./inp_files/36266.got.cif
#   From: 2010.05.17/outbox.cif.g08.bks.cpg/sg71_19_cif.got.tgz:36266.got - 2010.06.03 16:22:01.
