data_PCOD9518538
_publ_section_title
;
Structure prediction by ZEFSAII (Michael W. Deem and Ramdas Pophale) SiO2 
 PCOD9518538
Probable space group: I M M M
;
_chemical_formula_sum "Si O2"
_cell_formula_units_Z 100
_cell_length_a 19.769550
_cell_length_b 31.448952
_cell_length_c 7.868331
_cell_angle_alpha 90.000000
_cell_angle_beta 90.000000
_cell_angle_gamma 90.000000
_cell_volume 4891.990250
_symmetry_space_group_name_H-M "I M M M"
_symmetry_group_IT_number 71
_symmetry_cell_setting 'orthorhombic'
loop_
_space_group_symop_operation_xyz
x,y,z
-x,-y,z
x,-y,-z
-x,y,-z
-x,-y,-z
x,y,-z
-x,y,z
x,-y,z
1/2+x,1/2+y,1/2+z
1/2-x,1/2-y,1/2+z
1/2+x,1/2-y,1/2-z
1/2-x,1/2+y,1/2-z
1/2-x,1/2-y,1/2-z
1/2+x,1/2+y,1/2-z
1/2-x,1/2+y,1/2+z
1/2+x,1/2-y,1/2+z
loop_
_atom_site_type_symbol
_atom_site_label
_atom_site_fract_x
_atom_site_fract_y
_atom_site_fract_z
Si Si1 0.425245 0.817520 0.706118
Si Si2 0.327115 0.743429 0.196678
Si Si3 0.381367 0.000000 0.201172
Si Si4 0.721070 0.592412 0.201235
Si Si5 0.622970 0.908720 0.703606
Si Si6 0.725750 0.500000 0.295608
Si Si7 0.000000 0.149428 0.500000
Si Si8 0.891245 0.157689 0.189800
O O1 0.421546 0.816497 0.500000
O O2 0.500000 0.802604 0.757101
O O3 0.368182 0.786791 0.776381
O O4 0.414350 0.866229 0.761591
O O5 0.250000 0.750000 0.250000
O O6 0.363570 0.705794 0.297458
O O7 0.328878 0.731034 0.000000
O O8 0.409687 0.045790 0.252901
O O9 0.303803 0.000000 0.269452
O O10 0.378424 0.000000 0.000000
O O11 0.798903 0.593356 0.266137
O O12 0.695394 0.544256 0.232090
O O13 0.672707 0.626289 0.287719
O O14 0.722422 0.601052 0.000000
O O15 0.625651 0.907172 0.500000
O O16 0.725785 0.500000 0.500000
O O17 0.058574 0.150219 0.652433
O O18 0.919784 0.151098 0.000000
#
# Coordination Sequence:
#
# PCOD9518538 Si02
#       8
#    16  16   8  16  16   8   4  16
#     4  10  22  39  60  87 121 163 209 255 313 377
#     4  12  25  43  65  95 127 162 209 262 318 379
#     4   9  17  29  50  80 115 151 201 254 306 373
#     4  10  18  34  58  90 124 159 206 263 319 378
#     4   9  18  33  56  83 119 159 202 257 314 371
#     4   9  17  29  51  86 121 156 200 255 323 383
#     4  12  26  48  64  95 130 168 222 253 314 382
#     4  12  25  43  68  94 127 169 213 265 316 376
#
# _framework density 20.441578
#
# number of rings (size 3 to 8) (size 9 to 14) (size 15 to 20)
#    0.000    1.600    1.600    3.600    1.120    4.800 
#    0.000    0.400    0.000    3.360    0.000    1.680 
#    0.000    0.000    0.000    0.000    0.000    0.000 
#
# Total GULP energy -278737.638526 kJ/mol
# GULP energy per Si atom -5574.752771 kJ/mol
# Density = 2.039505 g / cm^3
# Si number density = 20.441578 Si / 1000 Ang^3
#
#
#
# Elastic Constant Matrix: (Units=GPa)
#
#
# Indices 1 2 3 4 5 6 
#
# 1 88.1506 23.5481 21.4213 -0.0001 -0.0001 0.0000
# 2 23.5481 101.4731 4.1400 -0.0001 0.0000 -0.0003
# 3 21.4213 4.1400 104.9685 -0.0001 -0.0002 0.0032
# 4 -0.0001 -0.0001 -0.0001 27.6135 -0.0002 0.0003
# 5 -0.0001 0.0000 -0.0002 -0.0002 18.1548 0.0009
# 6 0.0000 -0.0003 0.0032 0.0003 0.0009 -219.6519
#
#
#
# Elastic Compliance Matrix: (Units=1/GPa)
#
#
# Indices 1 2 3 4 5 6 
#
# 1 0.012708 -0.002848 -0.002481 0.000000 0.000000 0.000000
# 2 -0.002848 0.010509 0.000167 0.000000 0.000000 0.000000
# 3 -0.002481 0.000167 0.010026 0.000000 0.000000 0.000000
# 4 0.000000 0.000000 0.000000 0.036214 0.000000 0.000000
# 5 0.000000 0.000000 0.000000 0.000000 0.055082 0.000000
# 6 0.000000 0.000000 0.000000 0.000000 0.000000 -0.004553
#
#
# Mechanical properties :
#
#
# Convention : Reuss Voigt Hill
#
# Bulk Modulus (GPa) = 43.63210 43.64567 43.63888
# Shear Modulus (GPa) = 36.24493 -18.41118 8.91687
#
# Velocity S-wave (km/s) = 4.21539 -3.00438 2.09084
# Velocity P-wave (km/s) = 6.71444 3.05986 5.21759
#
# Compressibility (1/GPa) = 0.02291890
#
# Stress axis : x y z
#
# Youngs Moduli (GPa) = 78.69135 95.15745 99.73662
#
# Poissons Ratio (x) = 0.27099 0.24745
# Poissons Ratio (y) = 0.22410 -0.01662
# Poissons Ratio (z) = 0.19524 -0.01586
#
# Static dielectric constant tensor:
#      x y z
#    x 1.710160 0.000000 0.000000 
#    y 0.000000 1.736610 0.000000 
#    z 0.000000 0.000000 1.736600 
# 
# From -- ./inp_files/11183.got.cif
#   From: 2010.05.17/outbox.cif.g08.bks.cpg/sg71_6_cif.got.tgz:11183.got - 2010.06.03 16:22:01.
