data_PCOD9518223
_publ_section_title
;
Structure prediction by ZEFSAII (Michael W. Deem and Ramdas Pophale) SiO2 
 PCOD9518223
Probable space group: I M M M
;
_chemical_formula_sum "Si O2"
_cell_formula_units_Z 128
_cell_length_a 22.396868
_cell_length_b 17.882612
_cell_length_c 18.367257
_cell_angle_alpha 90.000000
_cell_angle_beta 90.000000
_cell_angle_gamma 90.000000
_cell_volume 7356.352762
_symmetry_space_group_name_H-M "I M M M"
_symmetry_group_IT_number 71
_symmetry_cell_setting 'orthorhombic'
loop_
_space_group_symop_operation_xyz
x,y,z
-x,-y,z
x,-y,-z
-x,y,-z
-x,-y,-z
x,y,-z
-x,y,z
x,-y,z
1/2+x,1/2+y,1/2+z
1/2-x,1/2-y,1/2+z
1/2+x,1/2-y,1/2-z
1/2-x,1/2+y,1/2-z
1/2-x,1/2-y,1/2-z
1/2+x,1/2+y,1/2-z
1/2-x,1/2+y,1/2+z
1/2+x,1/2-y,1/2+z
loop_
_atom_site_type_symbol
_atom_site_label
_atom_site_fract_x
_atom_site_fract_y
_atom_site_fract_z
Si Si1 0.428059 0.757998 0.920056
Si Si2 0.774305 0.086647 0.763747
Si Si3 0.856094 0.371155 0.222533
Si Si4 0.313383 0.589532 0.420661
Si Si5 0.566598 0.327355 0.376628
Si Si6 0.930896 0.652533 0.083343
Si Si7 0.571655 0.081710 0.862769
Si Si8 0.125125 0.202241 0.271623
O O1 0.500000 0.752971 0.916575
O O2 0.412265 0.845833 0.909940
O O3 0.401433 0.715001 0.851291
O O4 0.408544 0.732185 0.000000
O O5 0.709673 0.096113 0.729071
O O6 0.773564 0.107880 0.850054
O O7 0.822256 0.142058 0.728846
O O8 0.793164 0.000000 0.758720
O O9 0.887216 0.379647 0.144429
O O10 0.897546 0.407203 0.284725
O O11 0.852597 0.282858 0.242302
O O12 0.290595 0.614295 0.500000
O O13 0.318793 0.500000 0.421855
O O14 0.378652 0.624925 0.407540
O O15 0.500000 0.355557 0.393157
O O16 0.571076 0.242841 0.407144
O O17 0.577059 0.322475 0.289439
O O18 0.000000 0.630657 0.097356
O O19 0.915933 0.633572 0.000000
O O20 0.500000 0.083480 0.853967
O O21 0.588206 0.000000 0.892841
#
# Coordination Sequence:
#
# PCOD9518223 Si02
#       8
#    16  16  16  16  16  16  16  16
#     4   9  17  30  50  74  98 126 159 196 242 292
#     4  10  20  34  51  69  92 128 169 205 242 284
#     4  10  18  31  51  72  94 127 168 200 230 283
#     4   9  18  31  45  65  97 131 159 192 234 278
#     4   9  16  27  46  71  97 126 159 191 230 285
#     4   9  17  29  47  72  99 123 151 196 248 288
#     4   9  17  29  47  73 103 130 154 185 230 286
#     4   9  18  32  49  70  97 127 162 204 244 283
#
# _framework density 17.399927000000002
#
# number of rings (size 3 to 8) (size 9 to 14) (size 15 to 20)
#    0.000    2.750    0.000    1.875    0.000    4.250 
#    0.000    5.000    0.000    6.750    0.000    5.250 
#    0.000    0.000    0.000    0.000    0.000    0.000 
#
# Total GULP energy -356692.062388 kJ/mol
# GULP energy per Si atom -5573.313475 kJ/mol
# Density = 1.736032 g / cm^3
# Si number density = 17.399927 Si / 1000 Ang^3
#
#
#
# Elastic Constant Matrix: (Units=GPa)
#
#
# Indices 1 2 3 4 5 6 
#
# 1 45.1472 12.6672 43.8536 0.0000 0.0000 0.0000
# 2 12.6672 32.7707 28.8345 0.0000 0.0000 0.0000
# 3 43.8536 28.8345 136.6642 0.0000 0.0000 0.0000
# 4 0.0000 0.0000 0.0000 10.9433 0.0000 0.0000
# 5 0.0000 0.0000 0.0000 0.0000 14.3936 0.0000
# 6 0.0000 0.0000 0.0000 0.0000 0.0000 8.0547
#
#
#
# Elastic Compliance Matrix: (Units=1/GPa)
#
#
# Indices 1 2 3 4 5 6 
#
# 1 0.032639 -0.004176 -0.009592 0.000000 0.000000 0.000000
# 2 -0.004176 0.038006 -0.006679 0.000000 0.000000 0.000000
# 3 -0.009592 -0.006679 0.011804 0.000000 0.000000 0.000000
# 4 0.000000 0.000000 0.000000 0.091380 0.000000 0.000000
# 5 0.000000 0.000000 0.000000 0.000000 0.069475 0.000000
# 6 0.000000 0.000000 0.000000 0.000000 0.000000 0.124151
#
#
# Mechanical properties :
#
#
# Convention : Reuss Voigt Hill
#
# Bulk Modulus (GPa) = 24.06459 42.81031 33.43745
# Shear Modulus (GPa) = 11.84269 15.29345 13.56807
#
# Velocity S-wave (km/s) = 2.61169 2.96790 2.79548
# Velocity P-wave (km/s) = 4.79113 6.03339 5.44778
#
# Compressibility (1/GPa) = 0.04155484
#
# Stress axis : x y z
#
# Youngs Moduli (GPa) = 30.63826 26.31173 84.71458
#
# Poissons Ratio (x) = 0.10988 0.81260
# Poissons Ratio (y) = 0.12795 0.56578
# Poissons Ratio (z) = 0.29389 0.17573
#
# Static dielectric constant tensor:
#      x y z
#    x 1.572040 0.000000 0.000000 
#    y 0.000000 1.593970 0.000000 
#    z 0.000000 0.000000 1.605440 
# 
# From -- ./inp_files/46675.got.cif
#   From: 2010.05.17/outbox.cif.g08.bks.cpg/sg71_24_cif.got.tgz:46675.got - 2010.06.03 16:22:01.
