data_PCOD9518576
_publ_section_title
;
Structure prediction by ZEFSAII (Michael W. Deem and Ramdas Pophale) SiO2 
 PCOD9518576
Probable space group: I M M M
;
_chemical_formula_sum "Si O2"
_cell_formula_units_Z 100
_cell_length_a 21.049321
_cell_length_b 27.863019
_cell_length_c 7.756764
_cell_angle_alpha 90.000000
_cell_angle_beta 90.000000
_cell_angle_gamma 90.000000
_cell_volume 4549.323710
_symmetry_space_group_name_H-M "I M M M"
_symmetry_group_IT_number 71
_symmetry_cell_setting 'orthorhombic'
loop_
_space_group_symop_operation_xyz
x,y,z
-x,-y,z
x,-y,-z
-x,y,-z
-x,-y,-z
x,y,-z
-x,y,z
x,-y,z
1/2+x,1/2+y,1/2+z
1/2-x,1/2-y,1/2+z
1/2+x,1/2-y,1/2-z
1/2-x,1/2+y,1/2-z
1/2-x,1/2-y,1/2-z
1/2+x,1/2+y,1/2-z
1/2-x,1/2+y,1/2+z
1/2+x,1/2-y,1/2+z
loop_
_atom_site_type_symbol
_atom_site_label
_atom_site_fract_x
_atom_site_fract_y
_atom_site_fract_z
Si Si1 0.000000 0.578870 0.300905
Si Si2 0.500000 0.189241 0.708951
Si Si3 0.648414 0.354144 0.697381
Si Si4 0.928143 0.053119 0.294430
Si Si5 0.180024 0.500000 0.500000
Si Si6 0.624265 0.750538 0.711251
Si Si7 0.641189 0.929843 0.696309
Si Si8 0.288587 0.832868 0.296050
O O1 0.000000 0.636641 0.289311
O O2 0.934317 0.562029 0.216768
O O3 0.000000 0.563230 0.500000
O O4 0.500000 0.182494 0.500000
O O5 0.438544 0.220174 0.756495
O O6 0.628251 0.352860 0.500000
O O7 0.619779 0.403598 0.763632
O O8 0.624492 0.303857 0.776947
O O9 0.724255 0.350974 0.710952
O O10 0.932710 0.049410 0.500000
O O11 0.000000 0.063325 0.229262
O O12 0.908625 0.000000 0.228749
O O13 0.175405 0.458826 0.346637
O O14 0.627318 0.749476 0.500000
O O15 0.684000 0.782523 0.769986
O O16 0.660562 0.941988 0.500000
O O17 0.657556 0.873652 0.720897
O O18 0.275258 0.828192 0.500000
#
# Coordination Sequence:
#
# PCOD9518576 Si02
#       8
#     8   8  16  16   4  16  16  16
#     4  12  22  38  63  94 125 164 215 276 330 384
#     4  10  18  36  62  87 124 166 215 260 316 393
#     4  11  23  36  60  96 130 162 201 257 318 377
#     4   9  20  42  67  88 118 162 207 253 309 375
#     4  12  26  45  66  98 130 160 223 296 316 390
#     4   9  19  35  60  92 123 165 205 254 316 380
#     4  11  24  43  67  91 125 174 218 270 339 389
#     4  10  21  41  64  86 120 170 218 252 310 390
#
# _framework density 21.981289
#
# number of rings (size 3 to 8) (size 9 to 14) (size 15 to 20)
#    0.000    1.760    2.400    2.400    2.240    1.280 
#    1.440    4.000    0.000    0.000    0.000    0.000 
#    0.000    0.000    0.000    0.000    0.000    0.000 
#
# Total GULP energy -278796.217271 kJ/mol
# GULP energy per Si atom -5575.924345 kJ/mol
# Density = 2.193126 g / cm^3
# Si number density = 21.981289 Si / 1000 Ang^3
#
#
#
# Elastic Constant Matrix: (Units=GPa)
#
#
# Indices 1 2 3 4 5 6 
#
# 1 72.3368 53.2016 -3.6392 0.0000 0.0000 0.0000
# 2 53.2016 158.4320 27.4280 0.0000 0.0000 0.0000
# 3 -3.6392 27.4280 83.3552 0.0000 0.0000 0.0000
# 4 0.0000 0.0000 0.0000 36.6235 0.0000 0.0000
# 5 0.0000 0.0000 0.0000 0.0000 3.0915 0.0000
# 6 0.0000 0.0000 0.0000 0.0000 0.0000 36.7248
#
#
#
# Elastic Compliance Matrix: (Units=1/GPa)
#
#
# Indices 1 2 3 4 5 6 
#
# 1 0.019094 -0.006952 0.003121 0.000000 0.000000 0.000000
# 2 -0.006952 0.009224 -0.003339 0.000000 0.000000 0.000000
# 3 0.003121 -0.003339 0.013232 0.000000 0.000000 0.000000
# 4 0.000000 0.000000 0.000000 0.027305 0.000000 0.000000
# 5 0.000000 0.000000 0.000000 0.000000 0.323469 0.000000
# 6 0.000000 0.000000 0.000000 0.000000 0.000000 0.027230
#
#
# Mechanical properties :
#
#
# Convention : Reuss Voigt Hill
#
# Bulk Modulus (GPa) = 36.74981 52.01165 44.38073
# Shear Modulus (GPa) = 11.28761 31.09688 21.19224
#
# Velocity S-wave (km/s) = 2.26853 3.76533 3.10837
# Velocity P-wave (km/s) = 4.85970 6.52815 5.75471
#
# Compressibility (1/GPa) = 0.02721102
#
# Stress axis : x y z
#
# Youngs Moduli (GPa) = 52.37121 108.40731 75.57565
#
# Poissons Ratio (x) = 0.75368 -0.23589
# Poissons Ratio (y) = 0.36410 0.25234
# Poissons Ratio (z) = -0.16347 0.36195
#
# Static dielectric constant tensor:
#      x y z
#    x 1.799580 0.000000 0.000000 
#    y 0.000000 1.837580 0.000000 
#    z 0.000000 0.000000 1.795850 
# 
# From -- ./inp_files/11197.got.cif
#   From: 2010.05.17/outbox.cif.g08.bks.cpg/sg71_6_cif.got.tgz:11197.got - 2010.06.03 16:22:01.
