data_PCOD9518365
_publ_section_title
;
Structure prediction by ZEFSAII (Michael W. Deem and Ramdas Pophale) SiO2 
 PCOD9518365
Probable space group: I M M M
;
_chemical_formula_sum "Si O2"
_cell_formula_units_Z 120
_cell_length_a 13.781788
_cell_length_b 25.689769
_cell_length_c 21.588790
_cell_angle_alpha 90.000000
_cell_angle_beta 90.000000
_cell_angle_gamma 90.000000
_cell_volume 7643.531612
_symmetry_space_group_name_H-M "I M M M"
_symmetry_group_IT_number 71
_symmetry_cell_setting 'orthorhombic'
loop_
_space_group_symop_operation_xyz
x,y,z
-x,-y,z
x,-y,-z
-x,y,-z
-x,-y,-z
x,y,-z
-x,y,z
x,-y,z
1/2+x,1/2+y,1/2+z
1/2-x,1/2-y,1/2+z
1/2+x,1/2-y,1/2-z
1/2-x,1/2+y,1/2-z
1/2-x,1/2-y,1/2-z
1/2+x,1/2+y,1/2-z
1/2-x,1/2+y,1/2+z
1/2+x,1/2-y,1/2+z
loop_
_atom_site_type_symbol
_atom_site_label
_atom_site_fract_x
_atom_site_fract_y
_atom_site_fract_z
Si Si1 0.260299 0.061967 0.617299
Si Si2 0.800774 0.242322 0.649958
Si Si3 0.114849 0.664741 0.572751
Si Si4 0.386825 0.098226 0.267594
Si Si5 0.616930 0.942481 0.869904
Si Si6 0.388593 0.777307 0.722827
Si Si7 0.384333 0.645292 0.926042
Si Si8 0.390701 0.063032 0.500000
O O1 0.314336 0.077602 0.680326
O O2 0.163024 0.094027 0.604090
O O3 0.332570 0.077695 0.561359
O O4 0.244941 0.000000 0.615149
O O5 0.824744 0.294317 0.612159
O O6 0.689041 0.236418 0.670042
O O7 0.859247 0.246664 0.714803
O O8 0.836489 0.194174 0.608789
O O9 0.122172 0.675391 0.500000
O O10 0.147144 0.605962 0.587960
O O11 0.000000 0.669717 0.590266
O O12 0.500000 0.085672 0.282801
O O13 0.363956 0.072788 0.201345
O O14 0.379385 0.160813 0.263304
O O15 0.500000 0.944889 0.876001
O O16 0.655444 0.000000 0.884659
O O17 0.500000 0.766933 0.706198
O O18 0.500000 0.646937 0.917964
O O19 0.364680 0.646550 0.000000
O O20 0.500000 0.083431 0.500000
O O21 0.395306 0.000000 0.500000
#
# Coordination Sequence:
#
# PCOD9518365 Si02
#       8
#    16  16  16  16  16  16  16   8
#     4  11  21  34  50  72  99 130 174 215 258 309
#     4  11  20  35  55  75 103 131 169 211 252 300
#     4  10  19  31  50  74 101 136 172 206 248 299
#     4  10  18  32  51  74 104 133 166 206 252 310
#     4   9  17  29  46  72 105 135 163 196 239 296
#     4  10  20  33  54  79 103 133 166 204 254 304
#     4  11  23  37  53  72  96 132 177 219 258 300
#     4   9  18  32  49  69  95 127 164 208 254 305
#
# _framework density 15.69955
#
# number of rings (size 3 to 8) (size 9 to 14) (size 15 to 20)
#    0.000    1.800    3.333    2.400    0.000    2.933 
#    0.000    2.000    0.000    1.200    0.000    0.000 
#    0.000    0.533    0.000    1.200    0.000    0.133 
#
# Total GULP energy -334702.206021 kJ/mol
# GULP energy per Si atom -5578.370100 kJ/mol
# Density = 1.566382 g / cm^3
# Si number density = 15.699550 Si / 1000 Ang^3
#
#
#
# Elastic Constant Matrix: (Units=GPa)
#
#
# Indices 1 2 3 4 5 6 
#
# 1 88.5895 40.5341 35.4566 0.0000 0.0000 0.0000
# 2 40.5341 81.8485 26.1344 0.0000 0.0000 0.0000
# 3 35.4566 26.1344 48.2433 0.0000 0.0000 0.0000
# 4 0.0000 0.0000 0.0000 20.6650 0.0000 0.0000
# 5 0.0000 0.0000 0.0000 0.0000 20.3259 0.0000
# 6 0.0000 0.0000 0.0000 0.0000 0.0000 20.1024
#
#
#
# Elastic Compliance Matrix: (Units=1/GPa)
#
#
# Indices 1 2 3 4 5 6 
#
# 1 0.017917 -0.005645 -0.010110 0.000000 0.000000 0.000000
# 2 -0.005645 0.016552 -0.004817 0.000000 0.000000 0.000000
# 3 -0.010110 -0.004817 0.030769 0.000000 0.000000 0.000000
# 4 0.000000 0.000000 0.000000 0.048391 0.000000 0.000000
# 5 0.000000 0.000000 0.000000 0.000000 0.049198 0.000000
# 6 0.000000 0.000000 0.000000 0.000000 0.000000 0.049745
#
#
# Mechanical properties :
#
#
# Convention : Reuss Voigt Hill
#
# Bulk Modulus (GPa) = 41.50793 46.99236 44.25015
# Shear Modulus (GPa) = 19.10229 19.98908 19.54569
#
# Velocity S-wave (km/s) = 3.49197 3.57210 3.53226
# Velocity P-wave (km/s) = 6.53871 6.85642 6.69945
#
# Compressibility (1/GPa) = 0.02409178
#
# Stress axis : x y z
#
# Youngs Moduli (GPa) = 55.81147 60.41737 32.50053
#
# Poissons Ratio (x) = 0.34106 0.32860
# Poissons Ratio (y) = 0.31506 0.15657
# Poissons Ratio (z) = 0.56428 0.29106
#
# Static dielectric constant tensor:
#      x y z
#    x 1.506710 0.000000 0.000000 
#    y 0.000000 1.533810 0.000000 
#    z 0.000000 0.000000 1.515890 
# 
# From -- ./inp_files/53526.got.cif
#   From: 2010.05.17/outbox.cif.g08.bks.cpg/sg71_27_cif.got.tgz:53526.got - 2010.06.03 16:22:01.
