data_PCOD9518227
_publ_section_title
;
Structure prediction by ZEFSAII (Michael W. Deem and Ramdas Pophale) SiO2 
 PCOD9518227
Probable space group: I M M M
;
_chemical_formula_sum "Si O2"
_cell_formula_units_Z 80
_cell_length_a 21.246277
_cell_length_b 8.634535
_cell_length_c 25.571994
_cell_angle_alpha 90.000000
_cell_angle_beta 90.000000
_cell_angle_gamma 90.000000
_cell_volume 4691.226344
_symmetry_space_group_name_H-M "I M M M"
_symmetry_group_IT_number 71
_symmetry_cell_setting 'orthorhombic'
loop_
_space_group_symop_operation_xyz
x,y,z
-x,-y,z
x,-y,-z
-x,y,-z
-x,-y,-z
x,y,-z
-x,y,z
x,-y,z
1/2+x,1/2+y,1/2+z
1/2-x,1/2-y,1/2+z
1/2+x,1/2-y,1/2-z
1/2-x,1/2+y,1/2-z
1/2-x,1/2-y,1/2-z
1/2+x,1/2+y,1/2-z
1/2-x,1/2+y,1/2+z
1/2+x,1/2-y,1/2+z
loop_
_atom_site_type_symbol
_atom_site_label
_atom_site_fract_x
_atom_site_fract_y
_atom_site_fract_z
Si Si1 0.255754 0.820647 0.500000
Si Si2 0.807341 0.313681 0.215103
Si Si3 0.254824 0.315620 0.389332
Si Si4 0.102320 0.821042 0.500000
Si Si5 0.569167 0.186380 0.221747
Si Si6 0.887103 0.813174 0.386908
O O1 0.276144 0.738041 0.553195
O O2 0.178953 0.818472 0.500000
O O3 0.274567 0.000000 0.500000
O O4 0.804447 0.500000 0.214534
O O5 0.750000 0.250000 0.250000
O O6 0.797634 0.250100 0.156933
O O7 0.872825 0.264421 0.241873
O O8 0.251350 0.500000 0.386247
O O9 0.184473 0.247236 0.381778
O O10 0.085531 0.755452 0.557056
O O11 0.081185 0.000000 0.500000
O O12 0.500000 0.226731 0.242634
O O13 0.577116 0.256905 0.164144
O O14 0.572955 0.000000 0.216936
O O15 0.885708 0.000000 0.388845
#
# Coordination Sequence:
#
# PCOD9518227 Si02
#       6
#     8  16  16   8  16  16
#     4   9  17  31  49  74 107 138 171 212 260 311
#     4  11  21  34  54  78 105 137 176 221 267 317
#     4  11  20  31  50  78 109 139 172 214 263 314
#     4   7  14  27  44  68  95 127 166 211 254 295
#     4  10  22  38  53  72 102 138 176 220 270 320
#     4  10  18  31  51  72  99 135 177 220 263 308
#
# _framework density 17.053111000000001
#
# number of rings (size 3 to 8) (size 9 to 14) (size 15 to 20)
#    0.000    2.000    2.000    4.500    0.000    1.200 
#    0.000    2.000    0.000    3.000    0.000    0.700 
#    0.000    5.600    0.000    0.000    0.000    0.000 
#
# Total GULP energy -223171.276698 kJ/mol
# GULP energy per Si atom -5579.281917 kJ/mol
# Density = 1.701430 g / cm^3
# Si number density = 17.053111 Si / 1000 Ang^3
#
#
#
# Elastic Constant Matrix: (Units=GPa)
#
#
# Indices 1 2 3 4 5 6 
#
# 1 96.7010 28.8520 61.6244 0.0000 0.0000 0.0000
# 2 28.8520 43.3958 28.7671 0.0000 0.0000 0.0000
# 3 61.6244 28.7671 133.3781 0.0000 0.0000 0.0000
# 4 0.0000 0.0000 0.0000 30.7040 0.0000 0.0000
# 5 0.0000 0.0000 0.0000 0.0000 12.1296 0.0000
# 6 0.0000 0.0000 0.0000 0.0000 0.0000 13.2255
#
#
#
# Elastic Compliance Matrix: (Units=1/GPa)
#
#
# Indices 1 2 3 4 5 6 
#
# 1 0.016203 -0.006779 -0.006024 0.000000 0.000000 0.000000
# 2 -0.006779 0.029724 -0.003279 0.000000 0.000000 0.000000
# 3 -0.006024 -0.003279 0.010988 0.000000 0.000000 0.000000
# 4 0.000000 0.000000 0.000000 0.032569 0.000000 0.000000
# 5 0.000000 0.000000 0.000000 0.000000 0.082443 0.000000
# 6 0.000000 0.000000 0.000000 0.000000 0.000000 0.075612
#
#
# Mechanical properties :
#
#
# Convention : Reuss Voigt Hill
#
# Bulk Modulus (GPa) = 40.40225 56.88465 48.64345
# Shear Modulus (GPa) = 17.36396 21.49390 19.42893
#
# Velocity S-wave (km/s) = 3.19443 3.55408 3.37904
# Velocity P-wave (km/s) = 6.11141 7.09025 6.61895
#
# Compressibility (1/GPa) = 0.02475110
#
# Stress axis : x y z
#
# Youngs Moduli (GPa) = 61.71814 33.64237 91.00921
#
# Poissons Ratio (x) = 0.22807 0.54824
# Poissons Ratio (y) = 0.41840 0.29840
# Poissons Ratio (z) = 0.37179 0.11031
#
# Static dielectric constant tensor:
#      x y z
#    x 1.576250 0.000000 0.000000 
#    y 0.000000 1.575300 0.000000 
#    z 0.000000 0.000000 1.598550 
# 
# From -- ./inp_files/10236.got.cif
#   From: 2010.05.17/outbox.cif.g08.bks.cpg/sg71_6_cif.got.tgz:10236.got - 2010.06.03 16:22:01.
