data_PCOD9518104
_publ_section_title
;
Structure prediction by ZEFSAII (Michael W. Deem and Ramdas Pophale) SiO2 
 PCOD9518104
Probable space group: I M M M
;
_chemical_formula_sum "Si O2"
_cell_formula_units_Z 72
_cell_length_a 22.867113
_cell_length_b 9.238135
_cell_length_c 16.531646
_cell_angle_alpha 90.000000
_cell_angle_beta 90.000000
_cell_angle_gamma 90.000000
_cell_volume 3492.301571
_symmetry_space_group_name_H-M "I M M M"
_symmetry_group_IT_number 71
_symmetry_cell_setting 'orthorhombic'
loop_
_space_group_symop_operation_xyz
x,y,z
-x,-y,z
x,-y,-z
-x,y,-z
-x,-y,-z
x,y,-z
-x,y,z
x,-y,z
1/2+x,1/2+y,1/2+z
1/2-x,1/2-y,1/2+z
1/2+x,1/2-y,1/2-z
1/2-x,1/2+y,1/2-z
1/2-x,1/2-y,1/2-z
1/2+x,1/2+y,1/2-z
1/2-x,1/2+y,1/2+z
1/2+x,1/2-y,1/2+z
loop_
_atom_site_type_symbol
_atom_site_label
_atom_site_fract_x
_atom_site_fract_y
_atom_site_fract_z
Si Si1 0.403321 0.835011 0.339149
Si Si2 0.431831 0.676595 0.000000
Si Si3 0.570273 0.664983 0.175938
Si Si4 0.728103 0.178011 0.500000
Si Si5 0.899042 0.173564 0.000000
Si Si6 0.262628 0.161456 0.329165
O O1 0.417354 0.762006 0.253627
O O2 0.423710 0.742170 0.416830
O O3 0.332637 0.841489 0.341330
O O4 0.424940 0.000000 0.344309
O O5 0.407277 0.719098 0.911899
O O6 0.430813 0.500000 0.000000
O O7 0.500000 0.722571 0.000000
O O8 0.500000 0.657445 0.168256
O O9 0.591438 0.500000 0.189657
O O10 0.668489 0.270943 0.500000
O O11 0.760455 0.212046 0.583638
O O12 0.716924 0.000000 0.500000
O O13 0.903186 0.000000 0.000000
O O14 0.250000 0.250000 0.250000
O O15 0.240745 0.000000 0.315602
#
# Coordination Sequence:
#
# PCOD9518104 Si02
#       6
#    16   8  16   8   8  16
#     4  10  20  34  50  71 101 132 160 197 247 295
#     4   7  12  26  48  71  96 126 159 197 238 277
#     4   9  17  31  52  76  99 126 164 205 241 284
#     4   8  16  32  49  68  97 129 158 193 242 294
#     4  10  18  30  51  74  93 122 165 204 238 287
#     4   9  18  32  50  70  94 125 160 197 236 282
#
# _framework density 20.616776000000002
#
# number of rings (size 3 to 8) (size 9 to 14) (size 15 to 20)
#    0.000    3.000    0.000    4.333    0.000    4.889 
#    0.000    2.222    0.000   12.000    0.000    0.000 
#    0.000    0.000    0.000    0.000    0.000    0.000 
#
# Total GULP energy -200531.612314 kJ/mol
# GULP energy per Si atom -5570.322564 kJ/mol
# Density = 2.056985 g / cm^3
# Si number density = 20.616776 Si / 1000 Ang^3
#
#
#
# Elastic Constant Matrix: (Units=GPa)
#
#
# Indices 1 2 3 4 5 6 
#
# 1 37.1507 4.8053 8.2923 0.0000 0.0000 0.0000
# 2 4.8053 113.2564 112.1820 0.0000 0.0000 0.0000
# 3 8.2923 112.1820 275.3854 0.0000 0.0000 0.0000
# 4 0.0000 0.0000 0.0000 32.9773 0.0000 0.0000
# 5 0.0000 0.0000 0.0000 0.0000 26.7404 0.0000
# 6 0.0000 0.0000 0.0000 0.0000 0.0000 13.7108
#
#
#
# Elastic Compliance Matrix: (Units=1/GPa)
#
#
# Indices 1 2 3 4 5 6 
#
# 1 0.027122 -0.000573 -0.000583 0.000000 0.000000 0.000000
# 2 -0.000573 0.014814 -0.006018 0.000000 0.000000 0.000000
# 3 -0.000583 -0.006018 0.006100 0.000000 0.000000 0.000000
# 4 0.000000 0.000000 0.000000 0.030324 0.000000 0.000000
# 5 0.000000 0.000000 0.000000 0.000000 0.037397 0.000000
# 6 0.000000 0.000000 0.000000 0.000000 0.000000 0.072935
#
#
# Mechanical properties :
#
#
# Convention : Reuss Voigt Hill
#
# Bulk Modulus (GPa) = 29.68369 75.15020 52.41695
# Shear Modulus (GPa) = 23.33516 34.71989 29.02752
#
# Velocity S-wave (km/s) = 3.36795 4.10818 3.75635
# Velocity P-wave (km/s) = 5.43629 7.68329 6.65531
#
# Compressibility (1/GPa) = 0.03368853
#
# Stress axis : x y z
#
# Youngs Moduli (GPa) = 36.87087 67.50237 163.92989
#
# Poissons Ratio (x) = 0.03868 0.09561
# Poissons Ratio (y) = 0.02113 0.98646
# Poissons Ratio (z) = 0.02151 0.40620
#
# Static dielectric constant tensor:
#      x y z
#    x 1.801170 0.000000 0.000000 
#    y 0.000000 1.705440 0.000000 
#    z 0.000000 0.000000 1.809920 
# 
# From -- ./inp_files/40698.got.cif
#   From: 2010.05.17/outbox.cif.g08.bks.cpg/sg71_21_cif.got.tgz:40698.got - 2010.06.03 16:22:01.
