data_PCOD9518098
_publ_section_title
;
Structure prediction by ZEFSAII (Michael W. Deem and Ramdas Pophale) SiO2 
 PCOD9518098
Probable space group: I M M M
;
_chemical_formula_sum "Si O2"
_cell_formula_units_Z 68
_cell_length_a 7.341086
_cell_length_b 17.118057
_cell_length_c 26.753452
_cell_angle_alpha 90.000000
_cell_angle_beta 90.000000
_cell_angle_gamma 90.000000
_cell_volume 3361.975986
_symmetry_space_group_name_H-M "I M M M"
_symmetry_group_IT_number 71
_symmetry_cell_setting 'orthorhombic'
loop_
_space_group_symop_operation_xyz
x,y,z
-x,-y,z
x,-y,-z
-x,y,-z
-x,-y,-z
x,y,-z
-x,y,z
x,-y,z
1/2+x,1/2+y,1/2+z
1/2-x,1/2-y,1/2+z
1/2+x,1/2-y,1/2-z
1/2-x,1/2+y,1/2-z
1/2-x,1/2-y,1/2-z
1/2+x,1/2+y,1/2-z
1/2-x,1/2+y,1/2+z
1/2+x,1/2-y,1/2+z
loop_
_atom_site_type_symbol
_atom_site_label
_atom_site_fract_x
_atom_site_fract_y
_atom_site_fract_z
Si Si1 0.278288 0.411135 0.556893
Si Si2 0.000000 0.500000 0.113196
Si Si3 0.278951 0.587364 0.733027
Si Si4 0.279327 0.700954 0.354229
Si Si5 0.210108 0.117409 0.652546
O O1 0.221947 0.393820 0.500000
O O2 0.500000 0.410974 0.557323
O O3 0.222877 0.500000 0.569239
O O4 0.219095 0.349062 0.597867
O O5 0.840949 0.568216 0.117345
O O6 0.500000 0.588511 0.732215
O O7 0.222557 0.500000 0.717318
O O8 0.217785 0.654587 0.695373
O O9 0.225351 0.600927 0.790361
O O10 0.500000 0.701303 0.353704
O O11 0.219104 0.790019 0.355651
O O12 0.000000 0.092712 0.648759
#
# Coordination Sequence:
#
# PCOD9518098 Si02
#       5
#    16   4  16  16  16
#     4   8  14  26  48  80 115 150 187 224 266 320
#     4  12  22  40  60  74 103 148 187 220 280 332
#     4   9  17  30  48  72 107 148 185 223 266 314
#     4  10  18  30  50  78 111 146 185 228 272 318
#     4  11  22  37  54  78 109 143 186 228 270 323
#
# _framework density 20.226199999999999
#
# number of rings (size 3 to 8) (size 9 to 14) (size 15 to 20)
#    0.000    2.353    2.353    2.471    0.000    2.824 
#    2.118    0.000    0.000    2.824    0.000    3.294 
#    0.000    1.882    0.000    0.000    0.000    0.000 
#
# Total GULP energy -189423.177843 kJ/mol
# GULP energy per Si atom -5571.269937 kJ/mol
# Density = 2.018016 g / cm^3
# Si number density = 20.226200 Si / 1000 Ang^3
#
#
#
# Elastic Constant Matrix: (Units=GPa)
#
#
# Indices 1 2 3 4 5 6 
#
# 1 103.0908 8.8339 1.6208 0.0000 0.0000 0.0000
# 2 8.8339 138.4256 18.4045 0.0000 0.0000 0.0000
# 3 1.6208 18.4045 23.8874 0.0000 0.0000 0.0000
# 4 0.0000 0.0000 0.0000 27.0896 0.0000 0.0000
# 5 0.0000 0.0000 0.0000 0.0000 -9.8033 0.0000
# 6 0.0000 0.0000 0.0000 0.0000 0.0000 -185.4994
#
#
#
# Elastic Compliance Matrix: (Units=1/GPa)
#
#
# Indices 1 2 3 4 5 6 
#
# 1 0.009754 -0.000596 -0.000203 0.000000 0.000000 0.000000
# 2 -0.000596 0.008085 -0.006189 0.000000 0.000000 0.000000
# 3 -0.000203 -0.006189 0.046645 0.000000 0.000000 0.000000
# 4 0.000000 0.000000 0.000000 0.036914 0.000000 0.000000
# 5 0.000000 0.000000 0.000000 0.000000 -0.102007 0.000000
# 6 0.000000 0.000000 0.000000 0.000000 0.000000 -0.005391
#
#
# Mechanical properties :
#
#
# Convention : Reuss Voigt Hill
#
# Bulk Modulus (GPa) = 19.79814 35.90247 27.85030
# Shear Modulus (GPa) = 201.51107 -17.87297 91.81905
#
# Velocity S-wave (km/s) = 9.99225 -2.97586 6.74497
# Velocity P-wave (km/s) = 11.95560 2.44568 8.62895
#
# Compressibility (1/GPa) = 0.05050981
#
# Stress axis : x y z
#
# Youngs Moduli (GPa) = 102.51775 123.68675 21.43848
#
# Poissons Ratio (x) = 0.07366 0.00435
# Poissons Ratio (y) = 0.06105 0.13268
# Poissons Ratio (z) = 0.02081 0.76547
#
# Static dielectric constant tensor:
#      x y z
#    x 1.762400 0.000000 0.000000 
#    y 0.000000 1.686010 0.000000 
#    z 0.000000 0.000000 1.696070 
# 
# From -- ./inp_files/62989.got.cif
#   From: 2010.05.17/outbox.cif.g08.bks.cpg/sg71_32_cif.got.tgz:62989.got - 2010.06.03 16:22:01.
