data_PCOD9518116
_publ_section_title
;
Structure prediction by ZEFSAII (Michael W. Deem and Ramdas Pophale) SiO2 
 PCOD9518116
Probable space group: I M M M
;
_chemical_formula_sum "Si O2"
_cell_formula_units_Z 64
_cell_length_a 11.207239
_cell_length_b 36.634858
_cell_length_c 7.473577
_cell_angle_alpha 90.000000
_cell_angle_beta 90.000000
_cell_angle_gamma 90.000000
_cell_volume 3068.468431
_symmetry_space_group_name_H-M "I M M M"
_symmetry_group_IT_number 71
_symmetry_cell_setting 'orthorhombic'
loop_
_space_group_symop_operation_xyz
x,y,z
-x,-y,z
x,-y,-z
-x,y,-z
-x,-y,-z
x,y,-z
-x,y,z
x,-y,z
1/2+x,1/2+y,1/2+z
1/2-x,1/2-y,1/2+z
1/2+x,1/2-y,1/2-z
1/2-x,1/2+y,1/2-z
1/2-x,1/2-y,1/2-z
1/2+x,1/2+y,1/2-z
1/2-x,1/2+y,1/2+z
1/2+x,1/2-y,1/2+z
loop_
_atom_site_type_symbol
_atom_site_label
_atom_site_fract_x
_atom_site_fract_y
_atom_site_fract_z
Si Si1 0.238065 0.405319 0.794115
Si Si2 0.358721 0.041104 0.000000
Si Si3 0.000000 0.725492 0.217442
Si Si4 0.264007 0.179329 0.282689
Si Si5 0.500000 0.693624 0.749496
Si Si6 0.500000 0.611602 0.715493
O O1 0.179455 0.435213 0.670209
O O2 0.212133 0.363213 0.739616
O O3 0.380472 0.408498 0.770569
O O4 0.203321 0.409349 0.000000
O O5 0.500000 0.038425 0.000000
O O6 0.308093 0.000000 0.000000
O O7 0.119840 0.703082 0.260142
O O8 0.000000 0.764607 0.310744
O O9 0.000000 0.732053 0.000000
O O10 0.244026 0.181675 0.500000
O O11 0.141024 0.192240 0.191026
O O12 0.500000 0.651176 0.810441
O O13 0.500000 0.618217 0.500000
#
# Coordination Sequence:
#
# PCOD9518116 Si02
#       6
#    16   8   8  16   8   8
#     4  10  21  40  67  94 125 166 212 255 311 385
#     4  11  26  45  67  97 133 164 201 261 317 373
#     4  10  19  31  47  76 113 154 207 263 316 362
#     4   9  19  33  54  78 110 157 208 258 306 366
#     4  10  18  30  51  77 118 159 204 259 319 370
#     4  10  18  35  62  95 127 165 211 263 316 373
#
# _framework density 20.857310999999999
#
# number of rings (size 3 to 8) (size 9 to 14) (size 15 to 20)
#    0.000    2.125    1.250    1.875    1.750    4.000 
#    0.000    2.500    5.500    1.500    0.000    0.000 
#    0.000    0.000    0.000    0.000    0.000    0.000 
#
# Total GULP energy -178213.841119 kJ/mol
# GULP energy per Si atom -5569.182535 kJ/mol
# Density = 2.080984 g / cm^3
# Si number density = 20.857311 Si / 1000 Ang^3
#
#
#
# Elastic Constant Matrix: (Units=GPa)
#
#
# Indices 1 2 3 4 5 6 
#
# 1 140.1385 74.7765 31.2013 0.0016 0.0115 -0.0010
# 2 74.7765 168.1549 65.7187 0.0002 0.0097 -0.0002
# 3 31.2013 65.7187 111.4055 0.0032 0.0007 0.0003
# 4 0.0016 0.0002 0.0032 11.7136 0.0078 -0.0026
# 5 0.0115 0.0097 0.0007 0.0078 41.8408 0.0011
# 6 -0.0010 -0.0002 0.0003 -0.0026 0.0011 42.3341
#
#
#
# Elastic Compliance Matrix: (Units=1/GPa)
#
#
# Indices 1 2 3 4 5 6 
#
# 1 0.009360 -0.004078 -0.000216 -0.000001 -0.000002 0.000000
# 2 -0.004078 0.009505 -0.004465 0.000002 -0.000001 0.000000
# 3 -0.000216 -0.004465 0.011671 -0.000003 0.000001 0.000000
# 4 -0.000001 0.000002 -0.000003 0.085371 -0.000016 0.000005
# 5 -0.000002 -0.000001 0.000001 -0.000016 0.023900 -0.000001
# 6 0.000000 0.000000 0.000000 0.000005 -0.000001 0.023622
#
#
# Mechanical properties :
#
#
# Convention : Reuss Voigt Hill
#
# Bulk Modulus (GPa) = 76.81618 84.78800 80.80209
# Shear Modulus (GPa) = 26.98541 35.71122 31.34831
#
# Velocity S-wave (km/s) = 3.60086 4.14232 3.88105
# Velocity P-wave (km/s) = 7.36190 7.97610 7.67515
#
# Compressibility (1/GPa) = 0.01301809
#
# Stress axis : x y z
#
# Youngs Moduli (GPa) = 106.84074 105.20409 85.68462
#
# Poissons Ratio (x) = 0.42900 0.01850
# Poissons Ratio (y) = 0.43567 0.38260
# Poissons Ratio (z) = 0.02306 0.46976
#
# Static dielectric constant tensor:
#      x y z
#    x 1.733630 0.000000 0.000000 
#    y 0.000000 1.687350 0.000000 
#    z 0.000000 0.000000 1.882540 
# 
# From -- ./inp_files/3825.got.cif
#   From: 2010.05.17/outbox.cif.g08.bks.cpg/sg71_2_cif.got.tgz:3825.got - 2010.06.03 16:22:01.
