data_PCOD9518673
_publ_section_title
;
Structure prediction by ZEFSAII (Michael W. Deem and Ramdas Pophale) SiO2 
 PCOD9518673
Probable space group: I M M M
;
_chemical_formula_sum "Si O2"
_cell_formula_units_Z 88
_cell_length_a 9.185006
_cell_length_b 20.355857
_cell_length_c 32.729263
_cell_angle_alpha 90.000000
_cell_angle_beta 90.000000
_cell_angle_gamma 90.000000
_cell_volume 6119.346730
_symmetry_space_group_name_H-M "I M M M"
_symmetry_group_IT_number 71
_symmetry_cell_setting 'orthorhombic'
loop_
_space_group_symop_operation_xyz
x,y,z
-x,-y,z
x,-y,-z
-x,y,-z
-x,-y,-z
x,y,-z
-x,y,z
x,-y,z
1/2+x,1/2+y,1/2+z
1/2-x,1/2-y,1/2+z
1/2+x,1/2-y,1/2-z
1/2-x,1/2+y,1/2-z
1/2-x,1/2-y,1/2-z
1/2+x,1/2+y,1/2-z
1/2-x,1/2+y,1/2+z
1/2+x,1/2-y,1/2+z
loop_
_atom_site_type_symbol
_atom_site_label
_atom_site_fract_x
_atom_site_fract_y
_atom_site_fract_z
Si Si1 0.326254 0.699147 0.619584
Si Si2 0.167684 0.353029 0.745502
Si Si3 0.331819 0.722912 0.187561
Si Si4 0.826690 0.926482 0.823608
Si Si5 0.334861 0.500000 0.549395
Si Si6 0.172302 0.364525 0.548587
O O1 0.500000 0.706153 0.616138
O O2 0.257121 0.755916 0.647512
O O3 0.295176 0.630808 0.643916
O O4 0.249580 0.690214 0.576084
O O5 0.255317 0.333832 0.786111
O O6 0.169781 0.287430 0.716984
O O7 0.243602 0.408126 0.717936
O O8 0.000000 0.368416 0.754334
O O9 0.500000 0.708129 0.178482
O O10 0.000000 0.923895 0.816089
O O11 0.789111 0.000000 0.837767
O O12 0.500000 0.500000 0.566439
O O13 0.346186 0.500000 0.500000
O O14 0.248115 0.434007 0.559453
O O15 0.192187 0.354186 0.500000
O O16 0.000000 0.367524 0.556893
#
# Coordination Sequence:
#
# PCOD9518673 Si02
#       6
#    16  16  16  16   8  16
#     4  10  19  29  43  60  78 100 131 169 204 239
#     4   9  16  26  41  59  77  98 126 158 192 232
#     4   9  16  27  42  58  77  99 125 157 196 236
#     4   9  18  30  41  56  79 105 131 161 199 240
#     4   9  17  29  43  55  67  89 123 159 195 237
#     4  10  20  32  43  56  75  99 128 163 204 247
#
# _framework density 14.38062
#
# number of rings (size 3 to 8) (size 9 to 14) (size 15 to 20)
#    0.000    2.636    0.000    2.455    1.273    7.636 
#    0.000    0.000    0.000    0.000    0.000    0.000 
#    0.000    0.000    0.000    0.000    0.000    0.909 
#
# Total GULP energy -245255.079404 kJ/mol
# GULP energy per Si atom -5573.979077 kJ/mol
# Density = 1.434789 g / cm^3
# Si number density = 14.380620 Si / 1000 Ang^3
#
#
#
# Elastic Constant Matrix: (Units=GPa)
#
#
# Indices 1 2 3 4 5 6 
#
# 1 83.4728 11.8983 50.2950 0.0000 0.0000 0.0000
# 2 11.8983 9.9931 10.9895 0.0000 0.0000 0.0000
# 3 50.2950 10.9895 66.1570 0.0000 0.0000 0.0000
# 4 0.0000 0.0000 0.0000 22.4847 0.0000 0.0000
# 5 0.0000 0.0000 0.0000 0.0000 23.6616 0.0000
# 6 0.0000 0.0000 0.0000 0.0000 0.0000 16.3698
#
#
#
# Elastic Compliance Matrix: (Units=1/GPa)
#
#
# Indices 1 2 3 4 5 6 
#
# 1 0.022884 -0.009929 -0.015748 0.000000 0.000000 0.000000
# 2 -0.009929 0.126743 -0.013506 0.000000 0.000000 0.000000
# 3 -0.015748 -0.013506 0.029331 0.000000 0.000000 0.000000
# 4 0.000000 0.000000 0.000000 0.044475 0.000000 0.000000
# 5 0.000000 0.000000 0.000000 0.000000 0.042263 0.000000
# 6 0.000000 0.000000 0.000000 0.000000 0.000000 0.061088
#
#
# Mechanical properties :
#
#
# Convention : Reuss Voigt Hill
#
# Bulk Modulus (GPa) = 9.94096 33.99871 21.96983
# Shear Modulus (GPa) = 11.39788 18.26589 14.83189
#
# Velocity S-wave (km/s) = 2.81835 3.56782 3.21499
# Velocity P-wave (km/s) = 4.18551 6.37697 5.39371
#
# Compressibility (1/GPa) = 0.10059393
#
# Stress axis : x y z
#
# Youngs Moduli (GPa) = 43.69929 7.88999 34.09363
#
# Poissons Ratio (x) = 0.07834 0.53690
# Poissons Ratio (y) = 0.43387 0.46045
# Poissons Ratio (z) = 0.68817 0.10656
#
# Static dielectric constant tensor:
#      x y z
#    x 1.479080 0.000000 0.000000 
#    y 0.000000 1.454030 0.000000 
#    z 0.000000 0.000000 1.486380 
# 
# From -- ./inp_files/11372.got.cif
#   From: 2010.05.17/outbox.cif.g08.bks.cpg/sg71_6_cif.got.tgz:11372.got - 2010.06.03 16:22:01.
