data_PCOD9518905
_publ_section_title
;
Structure prediction by ZEFSAII (Michael W. Deem and Ramdas Pophale) SiO2 
 PCOD9518905
Probable space group: I M M M
;
_chemical_formula_sum "Si O2"
_cell_formula_units_Z 128
_cell_length_a 19.139588
_cell_length_b 17.375748
_cell_length_c 23.871499
_cell_angle_alpha 90.000000
_cell_angle_beta 90.000000
_cell_angle_gamma 90.000000
_cell_volume 7938.816899
_symmetry_space_group_name_H-M "I M M M"
_symmetry_group_IT_number 71
_symmetry_cell_setting 'orthorhombic'
loop_
_space_group_symop_operation_xyz
x,y,z
-x,-y,z
x,-y,-z
-x,y,-z
-x,-y,-z
x,y,-z
-x,y,z
x,-y,z
1/2+x,1/2+y,1/2+z
1/2-x,1/2-y,1/2+z
1/2+x,1/2-y,1/2-z
1/2-x,1/2+y,1/2-z
1/2-x,1/2-y,1/2-z
1/2+x,1/2+y,1/2-z
1/2-x,1/2+y,1/2+z
1/2+x,1/2-y,1/2+z
loop_
_atom_site_type_symbol
_atom_site_label
_atom_site_fract_x
_atom_site_fract_y
_atom_site_fract_z
Si Si1 0.705330 0.591258 0.161154
Si Si2 0.147914 0.831650 0.166421
Si Si3 0.688767 0.092615 0.435931
Si Si4 0.922673 0.638464 0.268542
Si Si5 0.919886 0.176524 0.716480
Si Si6 0.080275 0.092283 0.937937
Si Si7 0.772616 0.412418 0.282000
Si Si8 0.419257 0.830409 0.358891
O O1 0.688553 0.500000 0.157053
O O2 0.748311 0.615171 0.106134
O O3 0.636178 0.640237 0.174289
O O4 0.754725 0.599966 0.216156
O O5 0.101836 0.852420 0.221345
O O6 0.127179 0.879609 0.112348
O O7 0.226521 0.850649 0.184631
O O8 0.127848 0.744780 0.151596
O O9 0.696954 0.119315 0.500000
O O10 0.617552 0.122221 0.407671
O O11 0.687614 0.000000 0.436050
O O12 0.915609 0.730415 0.279876
O O13 0.854506 0.597890 0.292298
O O14 0.920402 0.627185 0.201192
O O15 0.000000 0.614446 0.288113
O O16 0.000000 0.156023 0.704165
O O17 0.000000 0.117676 0.928723
O O18 0.080032 0.000000 0.938761
O O19 0.101991 0.119369 0.000000
O O20 0.750499 0.500000 0.295619
O O21 0.500000 0.809545 0.371139
#
# Coordination Sequence:
#
# PCOD9518905 Si02
#       8
#    16  16  16  16  16  16  16  16
#     4   9  18  31  48  70  97 128 166 204 248 300
#     4  10  19  30  48  70 102 127 157 203 242 285
#     4  10  21  36  51  68  95 132 174 217 253 287
#     4   9  18  31  47  70  99 129 159 196 243 295
#     4   9  18  30  48  73  99 127 159 196 249 306
#     4   9  17  29  44  61  88 130 167 191 227 279
#     4  10  19  30  48  74  99 130 167 198 239 295
#     4  10  20  32  49  72  95 127 167 201 242 295
#
# _framework density 16.123308999999999
#
# number of rings (size 3 to 8) (size 9 to 14) (size 15 to 20)
#    0.000    2.500    1.250    2.625    1.750    3.500 
#    0.000    1.875    0.000    0.375    0.000    1.750 
#    0.000    0.500    0.000    2.625    0.000    0.000 
#
# Total GULP energy -356624.898112 kJ/mol
# GULP energy per Si atom -5572.264033 kJ/mol
# Density = 1.608661 g / cm^3
# Si number density = 16.123309 Si / 1000 Ang^3
#
#
#
# Elastic Constant Matrix: (Units=GPa)
#
#
# Indices 1 2 3 4 5 6 
#
# 1 102.7242 23.5396 33.0486 0.0000 0.0000 0.0000
# 2 23.5396 12.8275 18.5969 0.0000 0.0000 0.0000
# 3 33.0486 18.5969 76.5976 0.0000 0.0000 0.0000
# 4 0.0000 0.0000 0.0000 18.4317 0.0000 0.0000
# 5 0.0000 0.0000 0.0000 0.0000 19.2909 0.0000
# 6 0.0000 0.0000 0.0000 0.0000 0.0000 22.9690
#
#
#
# Elastic Compliance Matrix: (Units=1/GPa)
#
#
# Indices 1 2 3 4 5 6 
#
# 1 0.016806 -0.031369 0.000365 0.000000 0.000000 0.000000
# 2 -0.031369 0.178854 -0.029889 0.000000 0.000000 0.000000
# 3 0.000365 -0.029889 0.020154 0.000000 0.000000 0.000000
# 4 0.000000 0.000000 0.000000 0.054254 0.000000 0.000000
# 5 0.000000 0.000000 0.000000 0.000000 0.051838 0.000000
# 6 0.000000 0.000000 0.000000 0.000000 0.000000 0.043537
#
#
# Mechanical properties :
#
#
# Convention : Reuss Voigt Hill
#
# Bulk Modulus (GPa) = 10.63511 38.05772 24.34642
# Shear Modulus (GPa) = 9.64186 19.93594 14.78890
#
# Velocity S-wave (km/s) = 2.44807 3.52016 3.03188
# Velocity P-wave (km/s) = 3.82115 6.33857 5.23348
#
# Compressibility (1/GPa) = 0.09402817
#
# Stress axis : x y z
#
# Youngs Moduli (GPa) = 59.50381 5.59115 49.61691
#
# Poissons Ratio (x) = 0.17539 -0.01811
# Poissons Ratio (y) = 1.86657 1.48300
# Poissons Ratio (z) = -0.02172 0.16711
#
# Static dielectric constant tensor:
#      x y z
#    x 1.548870 0.000000 0.000000 
#    y 0.000000 1.568900 0.000000 
#    z 0.000000 0.000000 1.526890 
# 
# From -- ./inp_files/46654.got.cif
#   From: 2010.05.17/outbox.cif.g08.bks.cpg/sg71_24_cif.got.tgz:46654.got - 2010.06.03 16:22:01.
