data_PCOD9518233
_publ_section_title
;
Structure prediction by ZEFSAII (Michael W. Deem and Ramdas Pophale) SiO2 
 PCOD9518233
Probable space group: I M M M
;
_chemical_formula_sum "Si O2"
_cell_formula_units_Z 64
_cell_length_a 23.064660
_cell_length_b 7.725045
_cell_length_c 23.518446
_cell_angle_alpha 90.000000
_cell_angle_beta 90.000000
_cell_angle_gamma 90.000000
_cell_volume 4190.411732
_symmetry_space_group_name_H-M "I M M M"
_symmetry_group_IT_number 71
_symmetry_cell_setting 'orthorhombic'
loop_
_space_group_symop_operation_xyz
x,y,z
-x,-y,z
x,-y,-z
-x,y,-z
-x,-y,-z
x,y,-z
-x,y,z
x,-y,z
1/2+x,1/2+y,1/2+z
1/2-x,1/2-y,1/2+z
1/2+x,1/2-y,1/2-z
1/2-x,1/2+y,1/2-z
1/2-x,1/2-y,1/2-z
1/2+x,1/2+y,1/2-z
1/2-x,1/2+y,1/2+z
1/2+x,1/2-y,1/2+z
loop_
_atom_site_type_symbol
_atom_site_label
_atom_site_fract_x
_atom_site_fract_y
_atom_site_fract_z
Si Si1 0.345117 0.300108 0.725238
Si Si2 0.432334 0.000000 0.252140
Si Si3 0.771135 0.291738 0.664573
Si Si4 0.067540 0.500000 0.614906
Si Si5 0.647665 0.699428 0.933435
O O1 0.361602 0.500000 0.716387
O O2 0.294954 0.248398 0.680331
O O3 0.312315 0.284492 0.786118
O O4 0.398178 0.168496 0.725962
O O5 0.500000 0.000000 0.267074
O O6 0.427825 0.000000 0.183293
O O7 0.776377 0.500000 0.667837
O O8 0.795160 0.229385 0.604500
O O9 0.100213 0.667546 0.590427
O O10 0.000000 0.500000 0.599316
O O11 0.629080 0.500000 0.926750
O O12 0.657681 0.732998 0.000000
#
# Coordination Sequence:
#
# PCOD9518233 Si02
#       5
#    16   8  16   8  16
#     4  10  19  31  51  74  96 128 161 203 250 300
#     4  11  22  35  50  75 103 132 175 205 239 296
#     4  10  18  31  51  74  98 124 164 201 254 306
#     4  11  23  38  51  66  98 139 180 212 240 285
#     4  11  22  34  50  72  97 129 170 212 252 289
#
# _framework density 15.272962
#
# number of rings (size 3 to 8) (size 9 to 14) (size 15 to 20)
#    0.000    1.500    5.000    1.125    3.500    2.000 
#    0.000    3.750    0.000    0.000    0.000    0.000 
#    0.000    2.000    0.000    5.500    0.000    0.000 
#
# Total GULP energy -178611.247139 kJ/mol
# GULP energy per Si atom -5581.601473 kJ/mol
# Density = 1.523820 g / cm^3
# Si number density = 15.272962 Si / 1000 Ang^3
#
#
#
# Elastic Constant Matrix: (Units=GPa)
#
#
# Indices 1 2 3 4 5 6 
#
# 1 137.9426 75.8119 54.9615 0.0000 0.0000 0.0000
# 2 75.8119 104.9727 34.9450 0.0000 0.0000 0.0000
# 3 54.9615 34.9450 62.9079 0.0000 0.0000 0.0000
# 4 0.0000 0.0000 0.0000 19.0338 0.0000 0.0000
# 5 0.0000 0.0000 0.0000 0.0000 19.3856 0.0000
# 6 0.0000 0.0000 0.0000 0.0000 0.0000 15.0606
#
#
#
# Elastic Compliance Matrix: (Units=1/GPa)
#
#
# Indices 1 2 3 4 5 6 
#
# 1 0.015161 -0.008023 -0.008789 0.000000 0.000000 0.000000
# 2 -0.008023 0.015934 -0.001841 0.000000 0.000000 0.000000
# 3 -0.008789 -0.001841 0.024598 0.000000 0.000000 0.000000
# 4 0.000000 0.000000 0.000000 0.052538 0.000000 0.000000
# 5 0.000000 0.000000 0.000000 0.000000 0.051585 0.000000
# 6 0.000000 0.000000 0.000000 0.000000 0.000000 0.066399
#
#
# Mechanical properties :
#
#
# Convention : Reuss Voigt Hill
#
# Bulk Modulus (GPa) = 54.39093 70.80667 62.59880
# Shear Modulus (GPa) = 18.54267 20.03633 19.28950
#
# Velocity S-wave (km/s) = 3.48815 3.62592 3.55770
# Velocity P-wave (km/s) = 7.20505 7.99945 7.61262
#
# Compressibility (1/GPa) = 0.01838542
#
# Stress axis : x y z
#
# Youngs Moduli (GPa) = 65.95985 62.75973 40.65450
#
# Poissons Ratio (x) = 0.50355 0.35730
# Poissons Ratio (y) = 0.52923 0.07485
# Poissons Ratio (z) = 0.57970 0.11555
#
# Static dielectric constant tensor:
#      x y z
#    x 1.497830 0.000000 0.000000 
#    y 0.000000 1.529870 0.000000 
#    z 0.000000 0.000000 1.496710 
# 
# From -- ./inp_files/54635.got.cif
#   From: 2010.05.17/outbox.cif.g08.bks.cpg/sg71_28_cif.got.tgz:54635.got - 2010.06.03 16:22:01.
