data_PCOD9518347
_publ_section_title
;
Structure prediction by ZEFSAII (Michael W. Deem and Ramdas Pophale) SiO2 
 PCOD9518347
Probable space group: I M M M
;
_chemical_formula_sum "Si O2"
_cell_formula_units_Z 58
_cell_length_a 7.313539
_cell_length_b 10.756258
_cell_length_c 34.676712
_cell_angle_alpha 90.000000
_cell_angle_beta 90.000000
_cell_angle_gamma 90.000000
_cell_volume 2727.889058
_symmetry_space_group_name_H-M "I M M M"
_symmetry_group_IT_number 71
_symmetry_cell_setting 'orthorhombic'
loop_
_space_group_symop_operation_xyz
x,y,z
-x,-y,z
x,-y,-z
-x,y,-z
-x,-y,-z
x,y,-z
-x,y,z
x,-y,z
1/2+x,1/2+y,1/2+z
1/2-x,1/2-y,1/2+z
1/2+x,1/2-y,1/2-z
1/2-x,1/2+y,1/2-z
1/2-x,1/2-y,1/2-z
1/2+x,1/2+y,1/2-z
1/2-x,1/2+y,1/2+z
1/2+x,1/2-y,1/2+z
loop_
_atom_site_type_symbol
_atom_site_label
_atom_site_fract_x
_atom_site_fract_y
_atom_site_fract_z
Si Si1 0.000000 0.500000 0.500000
Si Si2 0.280711 0.500000 0.789582
Si Si3 0.784330 0.500000 0.301397
Si Si4 0.702979 0.257553 0.000000
Si Si5 0.722750 0.644480 0.919006
Si Si6 0.723787 0.258241 0.163142
O O1 0.843715 0.388456 0.500000
O O2 0.500000 0.500000 0.793065
O O3 0.237004 0.500000 0.744551
O O4 0.216541 0.375211 0.810923
O O5 0.712308 0.627596 0.319601
O O6 0.000000 0.500000 0.309849
O O7 0.787190 0.299844 0.040356
O O8 0.500000 0.321021 0.000000
O O9 0.500000 0.651084 0.918719
O O10 0.772941 0.500000 0.915536
O O11 0.780794 0.718118 0.880876
O O12 0.500000 0.258200 0.163919
#
# Coordination Sequence:
#
# PCOD9518347 Si02
#       6
#     2   8   8   8  16  16
#     4   8  16  24  22  48  76 108 144 174 230 244
#     4  10  18  32  49  62  85 117 150 183 223 269
#     4  10  20  31  44  67  88 114 147 184 229 272
#     4   8  15  22  32  49  76 108 144 174 210 256
#     4   9  14  23  37  53  74 106 147 180 207 253
#     4   9  17  28  42  61  84 112 146 183 219 264
#
# _framework density 21.261862000000001
#
# number of rings (size 3 to 8) (size 9 to 14) (size 15 to 20)
#    0.414    2.483    1.379    1.241    0.000    2.759 
#    2.483    0.000    0.000    0.000    0.000    0.000 
#    0.000    0.000    0.000    7.448    0.000    8.276 
#
# Total GULP energy -161537.100184 kJ/mol
# GULP energy per Si atom -5570.244834 kJ/mol
# Density = 2.121347 g / cm^3
# Si number density = 21.261862 Si / 1000 Ang^3
#
#
#
# Elastic Constant Matrix: (Units=GPa)
#
#
# Indices 1 2 3 4 5 6 
#
# 1 80.3141 12.4514 -1.1358 0.0000 0.0000 0.0000
# 2 12.4514 205.4574 140.3414 0.0000 0.0000 0.0000
# 3 -1.1358 140.3414 236.9918 0.0000 0.0000 0.0000
# 4 0.0000 0.0000 0.0000 -14.4679 0.0000 0.0000
# 5 0.0000 0.0000 0.0000 0.0000 4.4533 0.0000
# 6 0.0000 0.0000 0.0000 0.0000 0.0000 -15.2472
#
#
#
# Elastic Compliance Matrix: (Units=1/GPa)
#
#
# Indices 1 2 3 4 5 6 
#
# 1 0.012674 -0.001359 0.000866 0.000000 0.000000 0.000000
# 2 -0.001359 0.008319 -0.004933 0.000000 0.000000 0.000000
# 3 0.000866 -0.004933 0.007145 0.000000 0.000000 0.000000
# 4 0.000000 0.000000 0.000000 -0.069119 0.000000 0.000000
# 5 0.000000 0.000000 0.000000 0.000000 0.224551 0.000000
# 6 0.000000 0.000000 0.000000 0.000000 0.000000 -0.065586
#
#
# Mechanical properties :
#
#
# Convention : Reuss Voigt Hill
#
# Bulk Modulus (GPa) = 57.85400 91.78637 74.82019
# Shear Modulus (GPa) = 37.14733 19.68807 28.41770
#
# Velocity S-wave (km/s) = 4.18441 3.04629 3.65986
# Velocity P-wave (km/s) = 7.11442 7.45898 7.28874
#
# Compressibility (1/GPa) = 0.01728489
#
# Stress axis : x y z
#
# Youngs Moduli (GPa) = 78.90091 120.20550 139.96072
#
# Poissons Ratio (x) = 0.16342 -0.12118
# Poissons Ratio (y) = 0.10727 0.69041
# Poissons Ratio (z) = -0.06831 0.59296
#
# Static dielectric constant tensor:
#      x y z
#    x 1.974420 0.000000 0.000000 
#    y 0.000000 1.714080 0.000000 
#    z 0.000000 0.000000 1.745920 
# 
# From -- ./inp_files/29568.got.cif
#   From: 2010.05.17/outbox.cif.g08.bks.cpg/sg71_15_cif.got.tgz:29568.got - 2010.06.03 16:22:01.
