data_PCOD9518665
_publ_section_title
;
Structure prediction by ZEFSAII (Michael W. Deem and Ramdas Pophale) SiO2 
 PCOD9518665
Probable space group: I M M M
;
_chemical_formula_sum "Si O2"
_cell_formula_units_Z 120
_cell_length_a 25.519703
_cell_length_b 7.391225
_cell_length_c 31.039885
_cell_angle_alpha 90.000000
_cell_angle_beta 90.000000
_cell_angle_gamma 90.000000
_cell_volume 5854.801054
_symmetry_space_group_name_H-M "I M M M"
_symmetry_group_IT_number 71
_symmetry_cell_setting 'orthorhombic'
loop_
_space_group_symop_operation_xyz
x,y,z
-x,-y,z
x,-y,-z
-x,y,-z
-x,-y,-z
x,y,-z
-x,y,z
x,-y,z
1/2+x,1/2+y,1/2+z
1/2-x,1/2-y,1/2+z
1/2+x,1/2-y,1/2-z
1/2-x,1/2+y,1/2-z
1/2-x,1/2-y,1/2-z
1/2+x,1/2+y,1/2-z
1/2-x,1/2+y,1/2+z
1/2+x,1/2-y,1/2+z
loop_
_atom_site_type_symbol
_atom_site_label
_atom_site_fract_x
_atom_site_fract_y
_atom_site_fract_z
Si Si1 0.558163 0.783285 0.753965
Si Si2 0.559844 0.721266 0.000000
Si Si3 0.748054 0.783627 0.300834
Si Si4 0.365081 0.720713 0.076242
Si Si5 0.752717 0.720501 0.950615
Si Si6 0.360199 0.285243 0.170854
Si Si7 0.559111 0.779372 0.655265
Si Si8 0.830093 0.278946 0.874200
O O1 0.500000 0.718636 0.766593
O O2 0.601336 0.740485 0.789247
O O3 0.568578 0.722493 0.705038
O O4 0.556368 0.000000 0.751631
O O5 0.592670 0.780173 0.958488
O O6 0.559345 0.500000 0.000000
O O7 0.500000 0.781019 0.000000
O O8 0.750000 0.750000 0.250000
O O9 0.802551 0.711411 0.319570
O O10 0.699731 0.720443 0.330233
O O11 0.747448 0.000000 0.305635
O O12 0.365068 0.500000 0.074892
O O13 0.305885 0.775329 0.063753
O O14 0.378867 0.781055 0.124451
O O15 0.752931 0.500000 0.950271
O O16 0.795674 0.778395 0.915355
O O17 0.762625 0.776851 0.000000
O O18 0.353938 0.500000 0.166150
O O19 0.500000 0.722015 0.643006
O O20 0.609306 0.721119 0.627703
O O21 0.558628 0.000000 0.654749
O O22 0.830307 0.500000 0.874630
#
# Coordination Sequence:
#
# PCOD9518665 Si02
#       8
#    16   8  16  16  16  16  16  16
#     4   9  18  32  47  62  83 117 158 187 211 256
#     4   9  16  24  36  54  77 109 142 170 210 262
#     4  10  19  29  42  63  91 121 150 183 224 269
#     4   9  15  25  38  54  82 111 135 172 217 262
#     4   9  14  22  38  57  79 111 143 172 215 268
#     4  10  19  29  43  65  91 115 143 184 232 268
#     4   8  14  25  41  58  76 104 144 184 212 243
#     4   9  15  24  39  59  82 108 141 177 217 265
#
# _framework density 20.495999999999999
#
# number of rings (size 3 to 8) (size 9 to 14) (size 15 to 20)
#    0.000    2.867    2.000    1.600    0.000    2.400 
#    0.000    1.333    0.000    0.400    0.000    3.267 
#    0.000    3.200    0.000    0.000    0.000    0.000 
#
# Total GULP energy -334765.333417 kJ/mol
# GULP energy per Si atom -5579.422224 kJ/mol
# Density = 2.044935 g / cm^3
# Si number density = 20.496000 Si / 1000 Ang^3
#
#
#
# Elastic Constant Matrix: (Units=GPa)
#
#
# Indices 1 2 3 4 5 6 
#
# 1 184.7349 3.6379 77.8735 0.0000 0.0000 0.0000
# 2 3.6379 67.6490 1.3526 0.0000 0.0000 0.0000
# 3 77.8735 1.3526 103.8996 0.0000 0.0000 0.0000
# 4 0.0000 0.0000 0.0000 2.3190 0.0000 0.0000
# 5 0.0000 0.0000 0.0000 0.0000 31.2385 0.0000
# 6 0.0000 0.0000 0.0000 0.0000 0.0000 -3.8375
#
#
#
# Elastic Compliance Matrix: (Units=1/GPa)
#
#
# Indices 1 2 3 4 5 6 
#
# 1 0.007920 -0.000307 -0.005932 0.000000 0.000000 0.000000
# 2 -0.000307 0.014798 0.000038 0.000000 0.000000 0.000000
# 3 -0.005932 0.000038 0.014070 0.000000 0.000000 0.000000
# 4 0.000000 0.000000 0.000000 0.431225 0.000000 0.000000
# 5 0.000000 0.000000 0.000000 0.000000 0.032012 0.000000
# 6 0.000000 0.000000 0.000000 0.000000 0.000000 -0.260586
#
#
# Mechanical properties :
#
#
# Convention : Reuss Voigt Hill
#
# Bulk Modulus (GPa) = 41.00907 58.00127 49.50517
# Shear Modulus (GPa) = 19.23300 24.17195 21.70248
#
# Velocity S-wave (km/s) = 3.06662 3.43789 3.25755
# Velocity P-wave (km/s) = 5.70882 6.64222 6.19313
#
# Compressibility (1/GPa) = 0.02438485
#
# Stress axis : x y z
#
# Youngs Moduli (GPa) = 126.26630 67.57687 71.07217
#
# Poissons Ratio (x) = 0.02077 0.42159
# Poissons Ratio (y) = 0.03880 -0.00268
# Poissons Ratio (z) = 0.74900 -0.00255
#
# Static dielectric constant tensor:
#      x y z
#    x 1.725000 0.000000 0.000000 
#    y 0.000000 1.814460 0.000000 
#    z 0.000000 0.000000 1.715510 
# 
# From -- ./inp_files/67205.got.cif
#   From: 2010.05.17/outbox.cif.g08.bks.cpg/sg71_34_cif.got.tgz:67205.got - 2010.06.03 16:22:01.
