data_PCOD9518122
_publ_section_title
;
Structure prediction by ZEFSAII (Michael W. Deem and Ramdas Pophale) SiO2 
 PCOD9518122
Probable space group: I M M M
;
_chemical_formula_sum "Si O2"
_cell_formula_units_Z 104
_cell_length_a 22.171253
_cell_length_b 27.440097
_cell_length_c 9.200946
_cell_angle_alpha 90.000000
_cell_angle_beta 90.000000
_cell_angle_gamma 90.000000
_cell_volume 5597.683792
_symmetry_space_group_name_H-M "I M M M"
_symmetry_group_IT_number 71
_symmetry_cell_setting 'orthorhombic'
loop_
_space_group_symop_operation_xyz
x,y,z
-x,-y,z
x,-y,-z
-x,y,-z
-x,-y,-z
x,y,-z
-x,y,z
x,-y,z
1/2+x,1/2+y,1/2+z
1/2-x,1/2-y,1/2+z
1/2+x,1/2-y,1/2-z
1/2-x,1/2+y,1/2-z
1/2-x,1/2-y,1/2-z
1/2+x,1/2+y,1/2-z
1/2-x,1/2+y,1/2+z
1/2+x,1/2-y,1/2+z
loop_
_atom_site_type_symbol
_atom_site_label
_atom_site_fract_x
_atom_site_fract_y
_atom_site_fract_z
Si Si1 0.598525 0.293523 0.164955
Si Si2 0.500000 0.557580 0.165202
Si Si3 0.070918 0.681048 0.326107
Si Si4 0.219198 0.057378 0.325790
Si Si5 0.106719 0.890587 0.825974
Si Si6 0.328904 0.881851 0.325732
Si Si7 0.240606 0.202863 0.659694
O O1 0.587626 0.237522 0.214239
O O2 0.582692 0.337156 0.273518
O O3 0.669720 0.303471 0.151849
O O4 0.572986 0.298148 0.000000
O O5 0.500000 0.500000 0.153156
O O6 0.441715 0.573792 0.253947
O O7 0.500000 0.578154 0.000000
O O8 0.080787 0.678258 0.500000
O O9 0.111452 0.639402 0.250500
O O10 0.000000 0.674265 0.296160
O O11 0.211972 0.067930 0.500000
O O12 0.170925 0.090521 0.239326
O O13 0.289634 0.069859 0.290093
O O14 0.207388 0.000000 0.302266
O O15 0.108968 0.892182 0.000000
O O16 0.339137 0.882430 0.500000
O O17 0.278523 0.841798 0.283473
O O18 0.265283 0.212060 0.500000
O O19 0.250000 0.250000 0.750000
#
# Coordination Sequence:
#
# PCOD9518122 Si02
#       7
#    16   8  16  16  16  16  16
#     4  10  20  36  55  78 112 154 195 229 273 339
#     4  11  25  45  65  79 103 155 209 245 286 341
#     4  10  22  38  57  83 114 155 200 239 284 347
#     4  10  21  40  64  87 114 150 193 239 293 358
#     4  12  25  38  57  88 122 152 191 244 296 340
#     4  10  20  35  56  85 115 146 188 239 294 350
#     4  10  18  30  51  78 109 142 181 225 272 329
#
# _framework density 18.579113
#
# number of rings (size 3 to 8) (size 9 to 14) (size 15 to 20)
#    0.000    1.615    3.077    2.077    1.077    4.923 
#    0.000    0.000    0.000    0.462    0.000    3.231 
#    0.000    0.000    0.000    0.000    0.000    0.000 
#
# Total GULP energy -289597.990672 kJ/mol
# GULP energy per Si atom -5569.192128 kJ/mol
# Density = 1.853683 g / cm^3
# Si number density = 18.579113 Si / 1000 Ang^3
#
#
#
# Elastic Constant Matrix: (Units=GPa)
#
#
# Indices 1 2 3 4 5 6 
#
# 1 106.8220 29.3885 39.2305 0.0000 0.0000 0.0000
# 2 29.3885 64.3019 42.9467 0.0000 0.0000 0.0000
# 3 39.2305 42.9467 73.9903 0.0000 0.0000 0.0000
# 4 0.0000 0.0000 0.0000 13.7899 0.0000 0.0000
# 5 0.0000 0.0000 0.0000 0.0000 46.4569 0.0000
# 6 0.0000 0.0000 0.0000 0.0000 0.0000 29.3844
#
#
#
# Elastic Compliance Matrix: (Units=1/GPa)
#
#
# Indices 1 2 3 4 5 6 
#
# 1 0.011777 -0.001979 -0.005096 0.000000 0.000000 0.000000
# 2 -0.001979 0.025730 -0.013885 0.000000 0.000000 0.000000
# 3 -0.005096 -0.013885 0.024276 0.000000 0.000000 0.000000
# 4 0.000000 0.000000 0.000000 0.072517 0.000000 0.000000
# 5 0.000000 0.000000 0.000000 0.000000 0.021525 0.000000
# 6 0.000000 0.000000 0.000000 0.000000 0.000000 0.034032
#
#
# Mechanical properties :
#
#
# Convention : Reuss Voigt Hill
#
# Bulk Modulus (GPa) = 50.34337 52.02729 51.18533
# Shear Modulus (GPa) = 20.97325 26.82948 23.90136
#
# Velocity S-wave (km/s) = 3.36350 3.80421 3.59062
# Velocity P-wave (km/s) = 6.49921 6.88185 6.69327
#
# Compressibility (1/GPa) = 0.01986359
#
# Stress axis : x y z
#
# Youngs Moduli (GPa) = 84.90928 38.86493 41.19219
#
# Poissons Ratio (x) = 0.07693 0.20989
# Poissons Ratio (y) = 0.16807 0.57196
# Poissons Ratio (z) = 0.43266 0.53965
#
# Static dielectric constant tensor:
#      x y z
#    x 1.710400 0.000000 0.000000 
#    y 0.000000 1.674620 0.000000 
#    z 0.000000 0.000000 1.653230 
# 
# From -- ./inp_files/13304.got.cif
#   From: 2010.05.17/outbox.cif.g08.bks.cpg/sg71_7_cif.got.tgz:13304.got - 2010.06.03 16:22:01.
