data_PCOD9518288
_publ_section_title
;
Structure prediction by ZEFSAII (Michael W. Deem and Ramdas Pophale) SiO2 
 PCOD9518288
Probable space group: I M M M
;
_chemical_formula_sum "Si O2"
_cell_formula_units_Z 104
_cell_length_a 28.010660
_cell_length_b 11.492920
_cell_length_c 17.861042
_cell_angle_alpha 90.000000
_cell_angle_beta 90.000000
_cell_angle_gamma 90.000000
_cell_volume 5749.902988
_symmetry_space_group_name_H-M "I M M M"
_symmetry_group_IT_number 71
_symmetry_cell_setting 'orthorhombic'
loop_
_space_group_symop_operation_xyz
x,y,z
-x,-y,z
x,-y,-z
-x,y,-z
-x,-y,-z
x,y,-z
-x,y,z
x,-y,z
1/2+x,1/2+y,1/2+z
1/2-x,1/2-y,1/2+z
1/2+x,1/2-y,1/2-z
1/2-x,1/2+y,1/2-z
1/2-x,1/2-y,1/2-z
1/2+x,1/2+y,1/2-z
1/2-x,1/2+y,1/2+z
1/2+x,1/2-y,1/2+z
loop_
_atom_site_type_symbol
_atom_site_label
_atom_site_fract_x
_atom_site_fract_y
_atom_site_fract_z
Si Si1 0.392607 0.870378 0.588415
Si Si2 0.056845 0.866920 0.855332
Si Si3 0.123759 0.868417 0.279343
Si Si4 0.306125 0.201464 0.687798
Si Si5 0.272000 0.127067 0.845279
Si Si6 0.054218 0.500000 0.409249
Si Si7 0.627000 0.201561 0.088736
O O1 0.383546 0.867787 0.500000
O O2 0.421445 0.750721 0.607451
O O3 0.343509 0.862960 0.635118
O O4 0.414529 0.000000 0.605344
O O5 0.075709 0.861700 0.769905
O O6 0.000000 0.861654 0.861056
O O7 0.071370 0.000000 0.882193
O O8 0.162644 0.797080 0.232376
O O9 0.119452 0.814269 0.360924
O O10 0.139594 0.000000 0.284053
O O11 0.283074 0.129979 0.755983
O O12 0.265320 0.269310 0.642506
O O13 0.321605 0.149252 0.888124
O O14 0.252957 0.000000 0.865923
O O15 0.052235 0.500000 0.500000
O O16 0.085569 0.388625 0.388060
O O17 0.000000 0.500000 0.380908
O O18 0.625084 0.219876 0.000000
#
# Coordination Sequence:
#
# PCOD9518288 Si02
#       7
#    16  16  16  16  16   8  16
#     4  10  21  37  56  80 113 148 182 225 277 334
#     4   9  19  37  59  82 109 143 185 232 279 330
#     4   9  18  34  54  75 105 141 178 221 269 326
#     4   9  19  33  52  76 104 141 183 223 274 334
#     4  10  18  31  53  76 102 139 185 234 274 320
#     4   9  18  34  52  70 102 142 173 211 268 328
#     4  10  20  33  51  78 109 140 179 226 273 323
#
# _framework density 18.087261000000002
#
# number of rings (size 3 to 8) (size 9 to 14) (size 15 to 20)
#    0.000    2.538    0.769    0.923    0.000    3.077 
#    1.385    2.308    0.000    0.000    0.000    4.308 
#    0.000    0.000    0.000    0.000    0.000    0.000 
#
# Total GULP energy -289527.645692 kJ/mol
# GULP energy per Si atom -5567.839340 kJ/mol
# Density = 1.804609 g / cm^3
# Si number density = 18.087261 Si / 1000 Ang^3
#
#
#
# Elastic Constant Matrix: (Units=GPa)
#
#
# Indices 1 2 3 4 5 6 
#
# 1 75.0313 29.0225 11.6839 0.0000 0.0000 0.0000
# 2 29.0225 131.1552 37.6330 0.0000 0.0000 0.0000
# 3 11.6839 37.6330 60.0653 0.0000 0.0000 0.0000
# 4 0.0000 0.0000 0.0000 19.2566 0.0000 0.0000
# 5 0.0000 0.0000 0.0000 0.0000 15.1355 0.0000
# 6 0.0000 0.0000 0.0000 0.0000 0.0000 -6.9707
#
#
#
# Elastic Compliance Matrix: (Units=1/GPa)
#
#
# Indices 1 2 3 4 5 6 
#
# 1 0.014624 -0.002950 -0.000996 0.000000 0.000000 0.000000
# 2 -0.002950 0.009891 -0.005623 0.000000 0.000000 0.000000
# 3 -0.000996 -0.005623 0.020365 0.000000 0.000000 0.000000
# 4 0.000000 0.000000 0.000000 0.051930 0.000000 0.000000
# 5 0.000000 0.000000 0.000000 0.000000 0.066070 0.000000
# 6 0.000000 0.000000 0.000000 0.000000 0.000000 -0.143458
#
#
# Mechanical properties :
#
#
# Convention : Reuss Voigt Hill
#
# Bulk Modulus (GPa) = 38.84819 46.99226 42.92023
# Shear Modulus (GPa) = 106.06305 18.01177 62.03741
#
# Velocity S-wave (km/s) = 7.66596 3.15910 5.86288
# Velocity P-wave (km/s) = 9.99404 6.27246 8.34340
#
# Compressibility (1/GPa) = 0.02574122
#
# Stress axis : x y z
#
# Youngs Moduli (GPa) = 68.38041 101.10360 49.10287
#
# Poissons Ratio (x) = 0.29828 0.04892
# Poissons Ratio (y) = 0.20174 0.27611
# Poissons Ratio (z) = 0.06812 0.56851
#
# Static dielectric constant tensor:
#      x y z
#    x 1.621400 0.000000 0.000000 
#    y 0.000000 1.673530 0.000000 
#    z 0.000000 0.000000 1.598950 
# 
# From -- ./inp_files/48849.got.cif
#   From: 2010.05.17/outbox.cif.g08.bks.cpg/sg71_25_cif.got.tgz:48849.got - 2010.06.03 16:22:01.
