data_PCOD9518911
_publ_section_title
;
Structure prediction by ZEFSAII (Michael W. Deem and Ramdas Pophale) SiO2 
 PCOD9518911
Probable space group: I M M M
;
_chemical_formula_sum "Si O2"
_cell_formula_units_Z 120
_cell_length_a 29.424140
_cell_length_b 8.765127
_cell_length_c 28.123784
_cell_angle_alpha 90.000000
_cell_angle_beta 90.000000
_cell_angle_gamma 90.000000
_cell_volume 7253.301747
_symmetry_space_group_name_H-M "I M M M"
_symmetry_group_IT_number 71
_symmetry_cell_setting 'orthorhombic'
loop_
_space_group_symop_operation_xyz
x,y,z
-x,-y,z
x,-y,-z
-x,y,-z
-x,-y,-z
x,y,-z
-x,y,z
x,-y,z
1/2+x,1/2+y,1/2+z
1/2-x,1/2-y,1/2+z
1/2+x,1/2-y,1/2-z
1/2-x,1/2+y,1/2-z
1/2-x,1/2-y,1/2-z
1/2+x,1/2+y,1/2-z
1/2-x,1/2+y,1/2+z
1/2+x,1/2-y,1/2+z
loop_
_atom_site_type_symbol
_atom_site_label
_atom_site_fract_x
_atom_site_fract_y
_atom_site_fract_z
Si Si1 0.086157 0.181173 0.387542
Si Si2 0.053560 0.682805 0.711331
Si Si3 0.000000 0.185808 0.447063
Si Si4 0.274029 0.315670 0.446927
Si Si5 0.175990 0.322055 0.412547
Si Si6 0.133789 0.181431 0.769351
Si Si7 0.305618 0.819474 0.347071
Si Si8 0.795158 0.818798 0.684734
O O1 0.078518 0.258192 0.336453
O O2 0.130635 0.225696 0.417010
O O3 0.043872 0.232723 0.418554
O O4 0.085565 0.000000 0.379828
O O5 0.053669 0.500000 0.711630
O O6 0.086374 0.744002 0.753020
O O7 0.000000 0.732661 0.712616
O O8 0.000000 0.244466 0.500000
O O9 0.000000 0.000000 0.448387
O O10 0.290044 0.270861 0.500000
O O11 0.277120 0.500000 0.443265
O O12 0.220428 0.276008 0.441990
O O13 0.297396 0.244605 0.400273
O O14 0.167156 0.500000 0.420775
O O15 0.188681 0.289377 0.357717
O O16 0.153389 0.241401 0.819055
O O17 0.173744 0.214073 0.730324
O O18 0.128108 0.000000 0.770438
O O19 0.259227 0.795247 0.315904
O O20 0.312664 0.000000 0.349940
O O21 0.802246 0.000000 0.672995
#
# Coordination Sequence:
#
# PCOD9518911 Si02
#       8
#    16  16   8  16  16  16  16  16
#     4  11  20  33  52  70  93 125 165 212 263 319
#     4  11  23  37  54  76 102 132 170 214 263 315
#     4   9  20  36  51  67  87 117 161 215 270 317
#     4   9  19  36  54  72 100 138 176 213 255 303
#     4  10  19  30  48  72  97 128 166 210 256 300
#     4  11  21  33  52  76 104 137 172 206 252 311
#     4  10  20  33  50  75 107 137 171 212 255 302
#     4   9  18  31  47  71 101 134 168 203 245 300
#
# _framework density 16.544188999999999
#
# number of rings (size 3 to 8) (size 9 to 14) (size 15 to 20)
#    0.000    1.933    2.000    2.400    0.000    3.200 
#    0.000    0.000    0.000    2.800    0.000    0.000 
#    0.000    0.533    0.000    5.600    0.000    2.400 
#
# Total GULP energy -334504.788419 kJ/mol
# GULP energy per Si atom -5575.079807 kJ/mol
# Density = 1.650653 g / cm^3
# Si number density = 16.544189 Si / 1000 Ang^3
#
#
#
# Elastic Constant Matrix: (Units=GPa)
#
#
# Indices 1 2 3 4 5 6 
#
# 1 49.4547 16.1136 33.8687 0.0000 0.0000 0.0000
# 2 16.1136 29.5081 20.6556 0.0000 0.0000 0.0000
# 3 33.8687 20.6556 82.6072 0.0000 0.0000 0.0000
# 4 0.0000 0.0000 0.0000 15.6380 0.0000 0.0000
# 5 0.0000 0.0000 0.0000 0.0000 13.9039 0.0000
# 6 0.0000 0.0000 0.0000 0.0000 0.0000 25.6074
#
#
#
# Elastic Compliance Matrix: (Units=1/GPa)
#
#
# Indices 1 2 3 4 5 6 
#
# 1 0.030150 -0.009468 -0.009994 0.000000 0.000000 0.000000
# 2 -0.009468 0.044053 -0.007133 0.000000 0.000000 0.000000
# 3 -0.009994 -0.007133 0.017987 0.000000 0.000000 0.000000
# 4 0.000000 0.000000 0.000000 0.063947 0.000000 0.000000
# 5 0.000000 0.000000 0.000000 0.000000 0.071922 0.000000
# 6 0.000000 0.000000 0.000000 0.000000 0.000000 0.039051
#
#
# Mechanical properties :
#
#
# Convention : Reuss Voigt Hill
#
# Bulk Modulus (GPa) = 25.64217 33.64953 29.64585
# Shear Modulus (GPa) = 15.00153 17.09199 16.04676
#
# Velocity S-wave (km/s) = 3.01450 3.21769 3.11775
# Velocity P-wave (km/s) = 5.25825 5.84706 5.56045
#
# Compressibility (1/GPa) = 0.03899825
#
# Stress axis : x y z
#
# Youngs Moduli (GPa) = 33.16779 22.70016 55.59719
#
# Poissons Ratio (x) = 0.21493 0.55563
# Poissons Ratio (y) = 0.31404 0.39658
# Poissons Ratio (z) = 0.33147 0.16192
#
# Static dielectric constant tensor:
#      x y z
#    x 1.576870 0.000000 0.000000 
#    y 0.000000 1.554910 0.000000 
#    z 0.000000 0.000000 1.554830 
# 
# From -- ./inp_files/67186.got.cif
#   From: 2010.05.17/outbox.cif.g08.bks.cpg/sg71_34_cif.got.tgz:67186.got - 2010.06.03 16:22:01.
