data_PCOD9518711
_publ_section_title
;
Structure prediction by ZEFSAII (Michael W. Deem and Ramdas Pophale) SiO2 
 PCOD9518711
Probable space group: I M M M
;
_chemical_formula_sum "Si O2"
_cell_formula_units_Z 96
_cell_length_a 20.059364
_cell_length_b 12.426330
_cell_length_c 24.363964
_cell_angle_alpha 90.000000
_cell_angle_beta 90.000000
_cell_angle_gamma 90.000000
_cell_volume 6073.065863
_symmetry_space_group_name_H-M "I M M M"
_symmetry_group_IT_number 71
_symmetry_cell_setting 'orthorhombic'
loop_
_space_group_symop_operation_xyz
x,y,z
-x,-y,z
x,-y,-z
-x,y,-z
-x,-y,-z
x,y,-z
-x,y,z
x,-y,z
1/2+x,1/2+y,1/2+z
1/2-x,1/2-y,1/2+z
1/2+x,1/2-y,1/2-z
1/2-x,1/2+y,1/2-z
1/2-x,1/2-y,1/2-z
1/2+x,1/2+y,1/2-z
1/2-x,1/2+y,1/2+z
1/2+x,1/2-y,1/2+z
loop_
_atom_site_type_symbol
_atom_site_label
_atom_site_fract_x
_atom_site_fract_y
_atom_site_fract_z
Si Si1 0.220482 0.370450 0.561772
Si Si2 0.189705 0.125223 0.275036
Si Si3 0.572900 0.125424 0.085660
Si Si4 0.574831 0.205635 0.793081
Si Si5 0.796595 0.758692 0.161407
Si Si6 0.922204 0.623481 0.827756
O O1 0.246190 0.352965 0.500000
O O2 0.221020 0.500000 0.572239
O O3 0.143010 0.332632 0.563392
O O4 0.261408 0.309605 0.608651
O O5 0.128705 0.200370 0.293660
O O6 0.200445 0.154205 0.210824
O O7 0.252578 0.164013 0.310902
O O8 0.177187 0.000000 0.281942
O O9 0.500000 0.172193 0.069973
O O10 0.578706 0.137420 0.151466
O O11 0.570783 0.000000 0.070532
O O12 0.500000 0.250852 0.789709
O O13 0.585103 0.135735 0.738379
O O14 0.869072 0.708390 0.149115
O O15 0.908143 0.500000 0.843384
O O16 0.000000 0.646589 0.840627
#
# Coordination Sequence:
#
# PCOD9518711 Si02
#       6
#    16  16  16  16  16  16
#     4  10  20  33  50  71  96 127 162 199 238 280
#     4  10  19  29  45  69  96 127 160 194 233 281
#     4   9  16  27  45  69  97 127 160 196 231 268
#     4   9  16  27  43  68 100 131 158 187 229 276
#     4  10  19  32  47  70  96 126 155 196 242 292
#     4   9  17  29  48  73  98 123 153 192 241 295
#
# _framework density 15.807501999999999
#
# number of rings (size 3 to 8) (size 9 to 14) (size 15 to 20)
#    0.000    2.500    1.667    1.500    0.000    2.667 
#    0.000    1.667    0.000    4.000    0.000    2.333 
#    0.000    2.667    0.000    0.000    0.000    0.000 
#
# Total GULP energy -267308.680303 kJ/mol
# GULP energy per Si atom -5568.930840 kJ/mol
# Density = 1.577152 g / cm^3
# Si number density = 15.807502 Si / 1000 Ang^3
#
#
#
# Elastic Constant Matrix: (Units=GPa)
#
#
# Indices 1 2 3 4 5 6 
#
# 1 93.4896 34.1600 39.2949 0.0000 0.0000 0.0000
# 2 34.1600 56.6871 17.6743 0.0000 0.0000 0.0000
# 3 39.2949 17.6743 73.3833 0.0000 0.0000 0.0000
# 4 0.0000 0.0000 0.0000 10.7603 0.0000 0.0000
# 5 0.0000 0.0000 0.0000 0.0000 12.2127 0.0000
# 6 0.0000 0.0000 0.0000 0.0000 0.0000 20.2777
#
#
#
# Elastic Compliance Matrix: (Units=1/GPa)
#
#
# Indices 1 2 3 4 5 6 
#
# 1 0.016443 -0.007745 -0.006939 0.000000 0.000000 0.000000
# 2 -0.007745 0.022721 -0.001325 0.000000 0.000000 0.000000
# 3 -0.006939 -0.001325 0.017662 0.000000 0.000000 0.000000
# 4 0.000000 0.000000 0.000000 0.092934 0.000000 0.000000
# 5 0.000000 0.000000 0.000000 0.000000 0.081882 0.000000
# 6 0.000000 0.000000 0.000000 0.000000 0.000000 0.049315
#
#
# Mechanical properties :
#
#
# Convention : Reuss Voigt Hill
#
# Bulk Modulus (GPa) = 40.31107 45.09095 42.70101
# Shear Modulus (GPa) = 15.56442 17.47887 16.52165
#
# Velocity S-wave (km/s) = 3.14127 3.32886 3.23643
# Velocity P-wave (km/s) = 6.22201 6.58499 6.40607
#
# Compressibility (1/GPa) = 0.02480708
#
# Stress axis : x y z
#
# Youngs Moduli (GPa) = 60.81587 44.01199 56.61832
#
# Poissons Ratio (x) = 0.34088 0.39290
# Poissons Ratio (y) = 0.47102 0.07502
# Poissons Ratio (z) = 0.42203 0.05832
#
# Static dielectric constant tensor:
#      x y z
#    x 1.570120 0.000000 0.000000 
#    y 0.000000 1.496520 0.000000 
#    z 0.000000 0.000000 1.525360 
# 
# From -- ./inp_files/24241.got.cif
#   From: 2010.05.17/outbox.cif.g08.bks.cpg/sg71_13_cif.got.tgz:24241.got - 2010.06.03 16:22:01.
