data_PCOD9518212
_publ_section_title
;
Structure prediction by ZEFSAII (Michael W. Deem and Ramdas Pophale) SiO2 
 PCOD9518212
Probable space group: I M M M
;
_chemical_formula_sum "Si O2"
_cell_formula_units_Z 104
_cell_length_a 26.760740
_cell_length_b 19.121571
_cell_length_c 12.894452
_cell_angle_alpha 90.000000
_cell_angle_beta 90.000000
_cell_angle_gamma 90.000000
_cell_volume 6598.186377
_symmetry_space_group_name_H-M "I M M M"
_symmetry_group_IT_number 71
_symmetry_cell_setting 'orthorhombic'
loop_
_space_group_symop_operation_xyz
x,y,z
-x,-y,z
x,-y,-z
-x,y,-z
-x,-y,-z
x,y,-z
-x,y,z
x,-y,z
1/2+x,1/2+y,1/2+z
1/2-x,1/2-y,1/2+z
1/2+x,1/2-y,1/2-z
1/2-x,1/2+y,1/2-z
1/2-x,1/2-y,1/2-z
1/2+x,1/2+y,1/2-z
1/2-x,1/2+y,1/2+z
1/2+x,1/2-y,1/2+z
loop_
_atom_site_type_symbol
_atom_site_label
_atom_site_fract_x
_atom_site_fract_y
_atom_site_fract_z
Si Si1 0.194339 0.324329 0.729025
Si Si2 0.852218 0.083482 0.741343
Si Si3 0.558854 0.341478 0.123688
Si Si4 0.798111 0.808149 0.878753
Si Si5 0.752334 0.083161 0.615538
Si Si6 0.089018 0.319613 0.623956
Si Si7 0.000000 0.419925 0.373600
O O1 0.189926 0.254973 0.799818
O O2 0.239187 0.319658 0.645307
O O3 0.212662 0.384034 0.807037
O O4 0.141850 0.334652 0.675102
O O5 0.903538 0.112946 0.693367
O O6 0.831862 0.126421 0.840671
O O7 0.808002 0.097824 0.657636
O O8 0.854857 0.000000 0.758809
O O9 0.500000 0.354801 0.143155
O O10 0.570661 0.259649 0.144623
O O11 0.567812 0.353904 0.000000
O O12 0.805777 0.793409 0.000000
O O13 0.746684 0.112084 0.500000
O O14 0.746821 0.000000 0.613282
O O15 0.093624 0.325012 0.500000
O O16 0.048194 0.375829 0.659252
O O17 0.000000 0.500000 0.338627
O O18 0.000000 0.420319 0.500000
#
# Coordination Sequence:
#
# PCOD9518212 Si02
#       7
#    16  16  16  16  16  16   8
#     4  10  19  31  50  76 101 132 168 210 246 295
#     4  10  20  34  51  73 101 136 169 203 253 309
#     4  10  19  32  52  77 104 131 163 210 261 306
#     4  10  20  33  49  74 103 134 171 208 250 299
#     4   9  18  32  49  72 104 135 163 200 247 299
#     4  10  18  31  50  74 104 134 164 200 248 300
#     4   9  18  32  50  74 104 136 165 194 238 298
#
# _framework density 15.761908
#
# number of rings (size 3 to 8) (size 9 to 14) (size 15 to 20)
#    0.000    2.231    2.308    1.385    0.000    2.154 
#    0.000    0.769    0.000    3.231    0.000    2.692 
#    0.000    3.692    0.000    0.000    0.000    0.000 
#
# Total GULP energy -289823.675170 kJ/mol
# GULP energy per Si atom -5573.532215 kJ/mol
# Density = 1.572603 g / cm^3
# Si number density = 15.761908 Si / 1000 Ang^3
#
#
#
# Elastic Constant Matrix: (Units=GPa)
#
#
# Indices 1 2 3 4 5 6 
#
# 1 134.7319 52.4765 34.7129 0.0000 0.0000 0.0000
# 2 52.4765 72.0211 30.3974 0.0000 0.0000 0.0000
# 3 34.7129 30.3974 45.1166 0.0000 0.0000 0.0000
# 4 0.0000 0.0000 0.0000 17.3163 0.0000 0.0000
# 5 0.0000 0.0000 0.0000 0.0000 21.4398 0.0000
# 6 0.0000 0.0000 0.0000 0.0000 0.0000 24.2950
#
#
#
# Elastic Compliance Matrix: (Units=1/GPa)
#
#
# Indices 1 2 3 4 5 6 
#
# 1 0.010916 -0.006161 -0.004248 0.000000 0.000000 0.000000
# 2 -0.006161 0.022879 -0.010675 0.000000 0.000000 0.000000
# 3 -0.004248 -0.010675 0.032625 0.000000 0.000000 0.000000
# 4 0.000000 0.000000 0.000000 0.057749 0.000000 0.000000
# 5 0.000000 0.000000 0.000000 0.000000 0.046642 0.000000
# 6 0.000000 0.000000 0.000000 0.000000 0.000000 0.041161
#
#
# Mechanical properties :
#
#
# Convention : Reuss Voigt Hill
#
# Bulk Modulus (GPa) = 41.23118 54.11591 47.67355
# Shear Modulus (GPa) = 19.06763 21.56242 20.31503
#
# Velocity S-wave (km/s) = 3.48189 3.70267 3.59398
# Velocity P-wave (km/s) = 6.51001 7.25862 6.89449
#
# Compressibility (1/GPa) = 0.02425349
#
# Stress axis : x y z
#
# Youngs Moduli (GPa) = 91.60663 43.70782 30.65101
#
# Poissons Ratio (x) = 0.26928 0.13021
# Poissons Ratio (y) = 0.56438 0.32719
# Poissons Ratio (z) = 0.38915 0.46657
#
# Static dielectric constant tensor:
#      x y z
#    x 1.506010 0.000000 0.000000 
#    y 0.000000 1.545080 0.000000 
#    z 0.000000 0.000000 1.507230 
# 
# From -- ./inp_files/39468.got.cif
#   From: 2010.05.17/outbox.cif.g08.bks.cpg/sg71_20_cif.got.tgz:39468.got - 2010.06.03 16:22:01.
