data_PCOD9518823
_publ_section_title
;
Structure prediction by ZEFSAII (Michael W. Deem and Ramdas Pophale) SiO2 
 PCOD9518823
Probable space group: I M M M
;
_chemical_formula_sum "Si O2"
_cell_formula_units_Z 88
_cell_length_a 18.343097
_cell_length_b 31.902965
_cell_length_c 7.441220
_cell_angle_alpha 90.000000
_cell_angle_beta 90.000000
_cell_angle_gamma 90.000000
_cell_volume 4354.595854
_symmetry_space_group_name_H-M "I M M M"
_symmetry_group_IT_number 71
_symmetry_cell_setting 'orthorhombic'
loop_
_space_group_symop_operation_xyz
x,y,z
-x,-y,z
x,-y,-z
-x,y,-z
-x,-y,-z
x,y,-z
-x,y,z
x,-y,z
1/2+x,1/2+y,1/2+z
1/2-x,1/2-y,1/2+z
1/2+x,1/2-y,1/2-z
1/2-x,1/2+y,1/2-z
1/2-x,1/2-y,1/2-z
1/2+x,1/2+y,1/2-z
1/2-x,1/2+y,1/2+z
1/2+x,1/2-y,1/2+z
loop_
_atom_site_type_symbol
_atom_site_label
_atom_site_fract_x
_atom_site_fract_y
_atom_site_fract_z
Si Si1 0.310303 0.620713 0.205329
Si Si2 0.652835 0.913719 0.784694
Si Si3 0.266047 0.201770 0.284398
Si Si4 0.585215 0.547237 0.219042
Si Si5 0.420856 0.829112 0.287293
Si Si6 0.916274 0.500000 0.719638
O O1 0.230536 0.599410 0.206100
O O2 0.292085 0.666960 0.284167
O O3 0.365777 0.586228 0.284163
O O4 0.335274 0.627483 0.000000
O O5 0.593872 0.878411 0.736962
O O6 0.625364 0.958512 0.722409
O O7 0.661022 0.914186 0.000000
O O8 0.267784 0.195326 0.500000
O O9 0.250000 0.250000 0.250000
O O10 0.347185 0.191653 0.213520
O O11 0.500000 0.552447 0.266564
O O12 0.608321 0.500000 0.276574
O O13 0.589390 0.547055 0.000000
O O14 0.422547 0.820037 0.500000
O O15 0.500000 0.817367 0.212651
O O16 0.916859 0.500000 0.500000
O O17 0.000000 0.500000 0.777601
#
# Coordination Sequence:
#
# PCOD9518823 Si02
#       6
#    16  16  16  16  16   8
#     4   9  18  32  49  71  97 125 159 202 245 285
#     4  10  19  30  46  68  94 127 163 195 229 279
#     4   9  18  32  49  70  96 124 155 194 242 289
#     4   8  14  26  47  74  99 125 159 199 244 292
#     4   9  18  34  53  71  93 121 156 200 246 286
#     4   9  18  30  41  59  92 127 154 186 229 271
#
# _framework density 20.208532999999999
#
# number of rings (size 3 to 8) (size 9 to 14) (size 15 to 20)
#    0.000    3.000    0.000    2.727    1.273    4.000 
#    0.000    2.273    0.000    4.909    0.000    1.273 
#    0.000    0.000    0.000    0.000    0.000    0.000 
#
# Total GULP energy -245230.249770 kJ/mol
# GULP energy per Si atom -5573.414768 kJ/mol
# Density = 2.016254 g / cm^3
# Si number density = 20.208533 Si / 1000 Ang^3
#
#
#
# Elastic Constant Matrix: (Units=GPa)
#
#
# Indices 1 2 3 4 5 6 
#
# 1 90.9494 83.5650 2.1476 -0.0018 0.0064 0.0055
# 2 83.5650 189.1293 -5.1858 0.0036 -0.0026 -0.0008
# 3 2.1476 -5.1858 64.7118 0.0221 -0.0166 0.0050
# 4 -0.0018 0.0036 0.0221 10.9969 -0.0057 -0.0018
# 5 0.0064 -0.0026 -0.0166 -0.0057 -6.5619 -0.0026
# 6 0.0055 -0.0008 0.0050 -0.0018 -0.0026 28.6983
#
#
#
# Elastic Compliance Matrix: (Units=1/GPa)
#
#
# Indices 1 2 3 4 5 6 
#
# 1 0.018614 -0.008260 -0.001280 0.000008 0.000024 -0.000004
# 2 -0.008260 0.008964 0.000992 -0.000006 -0.000014 0.000002
# 3 -0.001280 0.000992 0.015575 -0.000032 -0.000041 -0.000002
# 4 0.000008 -0.000006 -0.000032 0.090935 -0.000079 0.000006
# 5 0.000024 -0.000014 -0.000041 -0.000079 -0.152394 -0.000014
# 6 -0.000004 0.000002 -0.000002 0.000006 -0.000014 0.034845
#
#
# Mechanical properties :
#
#
# Convention : Reuss Voigt Hill
#
# Bulk Modulus (GPa) = 38.37322 56.20491 47.28906
# Shear Modulus (GPa) = 118.14805 24.24422 71.19613
#
# Velocity S-wave (km/s) = 7.65450 3.46743 5.94199
# Velocity P-wave (km/s) = 9.85655 6.62598 8.39807
#
# Compressibility (1/GPa) = 0.02605984
#
# Stress axis : x y z
#
# Youngs Moduli (GPa) = 53.72175 111.55638 64.20489
#
# Poissons Ratio (x) = 0.92142 0.08216
# Poissons Ratio (y) = 0.44373 -0.06372
# Poissons Ratio (z) = 0.06875 -0.11072
#
# Static dielectric constant tensor:
#      x y z
#    x 1.695320 0.000000 0.000000 
#    y 0.000000 1.715250 0.000000 
#    z 0.000000 0.000000 1.762370 
# 
# From -- ./inp_files/8857.got.cif
#   From: 2010.05.17/outbox.cif.g08.bks.cpg/sg71_5_cif.got.tgz:8857.got - 2010.06.03 16:22:01.
