data_PCOD9518016
_publ_section_title
;
Structure prediction by ZEFSAII (Michael W. Deem and Ramdas Pophale) SiO2 
 PCOD9518016
Probable space group: I M M M
;
_chemical_formula_sum "Si O2"
_cell_formula_units_Z 104
_cell_length_a 22.641238
_cell_length_b 14.733936
_cell_length_c 15.998041
_cell_angle_alpha 90.000000
_cell_angle_beta 90.000000
_cell_angle_gamma 90.000000
_cell_volume 5336.859315
_symmetry_space_group_name_H-M "I M M M"
_symmetry_group_IT_number 71
_symmetry_cell_setting 'orthorhombic'
loop_
_space_group_symop_operation_xyz
x,y,z
-x,-y,z
x,-y,-z
-x,y,-z
-x,-y,-z
x,y,-z
-x,y,z
x,-y,z
1/2+x,1/2+y,1/2+z
1/2-x,1/2-y,1/2+z
1/2+x,1/2-y,1/2-z
1/2-x,1/2+y,1/2-z
1/2-x,1/2-y,1/2-z
1/2+x,1/2+y,1/2-z
1/2-x,1/2+y,1/2+z
1/2+x,1/2-y,1/2+z
loop_
_atom_site_type_symbol
_atom_site_label
_atom_site_fract_x
_atom_site_fract_y
_atom_site_fract_z
Si Si1 0.618745 0.199447 0.403343
Si Si2 0.568489 0.399811 0.807490
Si Si3 0.500000 0.106544 0.602305
Si Si4 0.854105 0.101204 0.859102
Si Si5 0.737091 0.104206 0.602195
Si Si6 0.719927 0.103005 0.100421
Si Si7 0.150408 0.223203 0.399898
O O1 0.619109 0.170303 0.500000
O O2 0.558947 0.157448 0.366820
O O3 0.621391 0.308182 0.401964
O O4 0.679110 0.157590 0.367169
O O5 0.500000 0.390630 0.783126
O O6 0.574949 0.500000 0.848875
O O7 0.611367 0.400258 0.727931
O O8 0.590746 0.317486 0.863621
O O9 0.500000 0.111790 0.500000
O O10 0.500000 0.000000 0.623608
O O11 0.783322 0.114009 0.855378
O O12 0.862768 0.000000 0.897461
O O13 0.736823 0.105017 0.500000
O O14 0.796672 0.155419 0.626539
O O15 0.736365 0.000000 0.629743
O O16 0.672387 0.177481 0.126745
O O17 0.699709 0.000000 0.112548
O O18 0.731567 0.116035 0.000000
O O19 0.147015 0.223026 0.500000
#
# Coordination Sequence:
#
# PCOD9518016 Si02
#       7
#    16  16   8  16  16  16  16
#     4  10  18  30  48  73 103 140 184 225 265 313
#     4  10  23  40  55  75 106 146 186 225 275 327
#     4   9  18  30  45  67  99 141 185 224 264 314
#     4  10  20  34  53  75 106 146 182 216 261 319
#     4   9  16  27  46  74 106 134 165 215 271 317
#     4   9  17  32  56  86 117 143 171 214 268 324
#     4  10  19  34  58  85 107 133 174 223 279 334
#
# _framework density 19.487117000000001
#
# number of rings (size 3 to 8) (size 9 to 14) (size 15 to 20)
#    0.000    2.385    1.538    1.385    1.077    4.615 
#    0.000    0.769    0.000    2.769    0.000    2.154 
#    0.000    0.000    0.000    0.000    0.000    0.000 
#
# Total GULP energy -289903.786004 kJ/mol
# GULP energy per Si atom -5575.072808 kJ/mol
# Density = 1.944276 g / cm^3
# Si number density = 19.487117 Si / 1000 Ang^3
#
#
#
# Elastic Constant Matrix: (Units=GPa)
#
#
# Indices 1 2 3 4 5 6 
#
# 1 62.4501 37.0332 19.7872 0.0000 0.0000 0.0000
# 2 37.0332 114.9341 16.9943 0.0000 0.0000 0.0000
# 3 19.7872 16.9943 18.6694 0.0000 0.0000 0.0000
# 4 0.0000 0.0000 0.0000 4.7213 0.0000 0.0000
# 5 0.0000 0.0000 0.0000 0.0000 13.3211 0.0000
# 6 0.0000 0.0000 0.0000 0.0000 0.0000 34.4512
#
#
#
# Elastic Compliance Matrix: (Units=1/GPa)
#
#
# Indices 1 2 3 4 5 6 
#
# 1 0.026427 -0.005054 -0.023409 0.000000 0.000000 0.000000
# 2 -0.005054 0.011020 -0.004675 0.000000 0.000000 0.000000
# 3 -0.023409 -0.004675 0.082630 0.000000 0.000000 0.000000
# 4 0.000000 0.000000 0.000000 0.211807 0.000000 0.000000
# 5 0.000000 0.000000 0.000000 0.000000 0.075069 0.000000
# 6 0.000000 0.000000 0.000000 0.000000 0.000000 0.029027
#
#
# Mechanical properties :
#
#
# Convention : Reuss Voigt Hill
#
# Bulk Modulus (GPa) = 18.58688 38.18701 28.38695
# Shear Modulus (GPa) = 9.61192 18.64798 14.12995
#
# Velocity S-wave (km/s) = 2.22332 3.09680 2.69567
# Velocity P-wave (km/s) = 4.01866 5.69434 4.92824
#
# Compressibility (1/GPa) = 0.05380139
#
# Stress axis : x y z
#
# Youngs Moduli (GPa) = 37.84049 90.74158 12.10220
#
# Poissons Ratio (x) = 0.45859 0.28330
# Poissons Ratio (y) = 0.19124 0.05658
# Poissons Ratio (z) = 0.88580 0.42423
#
# Static dielectric constant tensor:
#      x y z
#    x 1.671510 0.000000 0.000000 
#    y 0.000000 1.698450 0.000000 
#    z 0.000000 0.000000 1.710330 
# 
# From -- ./inp_files/47312.got.cif
#   From: 2010.05.17/outbox.cif.g08.bks.cpg/sg71_24_cif.got.tgz:47312.got - 2010.06.03 16:22:01.
