data_PCOD9518401
_publ_section_title
;
Structure prediction by ZEFSAII (Michael W. Deem and Ramdas Pophale) SiO2 
 PCOD9518401
Probable space group: I M M M
;
_chemical_formula_sum "Si O2"
_cell_formula_units_Z 80
_cell_length_a 22.572531
_cell_length_b 22.504788
_cell_length_c 7.501499
_cell_angle_alpha 90.000000
_cell_angle_beta 90.000000
_cell_angle_gamma 90.000000
_cell_volume 3810.686663
_symmetry_space_group_name_H-M "I M M M"
_symmetry_group_IT_number 71
_symmetry_cell_setting 'orthorhombic'
loop_
_space_group_symop_operation_xyz
x,y,z
-x,-y,z
x,-y,-z
-x,y,-z
-x,-y,-z
x,y,-z
-x,y,z
x,-y,z
1/2+x,1/2+y,1/2+z
1/2-x,1/2-y,1/2+z
1/2+x,1/2-y,1/2-z
1/2-x,1/2+y,1/2-z
1/2-x,1/2-y,1/2-z
1/2+x,1/2+y,1/2-z
1/2-x,1/2+y,1/2+z
1/2+x,1/2-y,1/2+z
loop_
_atom_site_type_symbol
_atom_site_label
_atom_site_fract_x
_atom_site_fract_y
_atom_site_fract_z
Si Si1 0.180025 0.735565 0.211179
Si Si2 0.932745 0.500000 0.718622
Si Si3 0.842729 0.598773 0.288345
Si Si4 0.714656 0.564105 0.282864
Si Si5 0.500000 0.429479 0.717934
Si Si6 0.887288 0.150857 0.217525
O O1 0.250000 0.750000 0.250000
O O2 0.160971 0.669241 0.262940
O O3 0.130785 0.782924 0.279213
O O4 0.177102 0.739296 0.000000
O O5 0.934206 0.500000 0.500000
O O6 0.897051 0.441043 0.777527
O O7 0.000000 0.500000 0.780084
O O8 0.841868 0.588540 0.500000
O O9 0.780836 0.573410 0.216953
O O10 0.716107 0.565927 0.500000
O O11 0.691231 0.500000 0.230559
O O12 0.670884 0.614896 0.227067
O O13 0.500000 0.500000 0.773489
O O14 0.500000 0.431740 0.500000
O O15 0.556659 0.389222 0.773684
O O16 0.891457 0.152392 0.000000
#
# Coordination Sequence:
#
# PCOD9518401 Si02
#       6
#    16   8  16  16   8  16
#     4  11  21  34  52  77 109 143 177 219 269 323
#     4   9  18  34  57  83 107 138 186 235 274 323
#     4  10  18  32  54  77 104 138 175 222 273 317
#     4   9  14  23  44  72  95 124 168 213 259 305
#     4   9  16  28  46  72 103 134 167 210 256 303
#     4   9  17  28  44  68 102 137 168 206 256 312
#
# _framework density 20.993593000000001
#
# number of rings (size 3 to 8) (size 9 to 14) (size 15 to 20)
#    0.000    2.400    3.000    1.200    0.000    2.400 
#    1.800    0.500    0.000    0.600    0.000    0.000 
#    0.000    3.200    0.000    0.000    0.000    0.000 
#
# Total GULP energy -222897.310436 kJ/mol
# GULP energy per Si atom -5572.432761 kJ/mol
# Density = 2.094581 g / cm^3
# Si number density = 20.993593 Si / 1000 Ang^3
#
#
#
# Elastic Constant Matrix: (Units=GPa)
#
#
# Indices 1 2 3 4 5 6 
#
# 1 149.9758 72.6637 2.8423 0.0000 0.0000 0.0000
# 2 72.6637 156.9124 -12.9344 0.0000 0.0000 0.0000
# 3 2.8423 -12.9344 52.3658 0.0000 0.0000 0.0000
# 4 0.0000 0.0000 0.0000 19.6927 0.0000 0.0000
# 5 0.0000 0.0000 0.0000 0.0000 -0.0166 0.0000
# 6 0.0000 0.0000 0.0000 0.0000 0.0000 32.0698
#
#
#
# Elastic Compliance Matrix: (Units=1/GPa)
#
#
# Indices 1 2 3 4 5 6 
#
# 1 0.008710 -0.004157 -0.001500 0.000000 0.000000 0.000000
# 2 -0.004157 0.008490 0.002323 0.000000 0.000000 0.000000
# 3 -0.001500 0.002323 0.019752 0.000000 0.000000 0.000000
# 4 0.000000 0.000000 0.000000 0.050780 0.000000 0.000000
# 5 0.000000 0.000000 0.000000 0.000000-60.168796 0.000000
# 6 0.000000 0.000000 0.000000 0.000000 0.000000 0.031182
#
#
# Mechanical properties :
#
#
# Convention : Reuss Voigt Hill
#
# Bulk Modulus (GPa) = 33.02193 53.82191 43.42192
# Shear Modulus (GPa) = -0.08329 30.12801 15.02236
#
# Velocity S-wave (km/s) = -0.19940 3.79239 2.67791
# Velocity P-wave (km/s) = 3.96367 6.69845 5.50363
#
# Compressibility (1/GPa) = 0.03028290
#
# Stress axis : x y z
#
# Youngs Moduli (GPa) = 114.80579 117.79129 50.62902
#
# Poissons Ratio (x) = 0.48969 0.07592
# Poissons Ratio (y) = 0.47728 -0.11759
# Poissons Ratio (z) = 0.17217 -0.27358
#
# Static dielectric constant tensor:
#      x y z
#    x 1.731320 0.000000 0.000000 
#    y 0.000000 1.772960 0.000000 
#    z 0.000000 0.000000 1.811710 
# 
# From -- ./inp_files/10278.got.cif
#   From: 2010.05.17/outbox.cif.g08.bks.cpg/sg71_6_cif.got.tgz:10278.got - 2010.06.03 16:22:01.
