data_PCOD9518451
_publ_section_title
;
Structure prediction by ZEFSAII (Michael W. Deem and Ramdas Pophale) SiO2 
 PCOD9518451
Probable space group: I M M M
;
_chemical_formula_sum "Si O2"
_cell_formula_units_Z 112
_cell_length_a 20.491181
_cell_length_b 14.013331
_cell_length_c 25.725922
_cell_angle_alpha 90.000000
_cell_angle_beta 90.000000
_cell_angle_gamma 90.000000
_cell_volume 7387.190834
_symmetry_space_group_name_H-M "I M M M"
_symmetry_group_IT_number 71
_symmetry_cell_setting 'orthorhombic'
loop_
_space_group_symop_operation_xyz
x,y,z
-x,-y,z
x,-y,-z
-x,y,-z
-x,-y,-z
x,y,-z
-x,y,z
x,-y,z
1/2+x,1/2+y,1/2+z
1/2-x,1/2-y,1/2+z
1/2+x,1/2-y,1/2-z
1/2-x,1/2+y,1/2-z
1/2-x,1/2-y,1/2-z
1/2+x,1/2+y,1/2-z
1/2-x,1/2+y,1/2+z
1/2+x,1/2-y,1/2+z
loop_
_atom_site_type_symbol
_atom_site_label
_atom_site_fract_x
_atom_site_fract_y
_atom_site_fract_z
Si Si1 0.923634 0.744197 0.560423
Si Si2 0.351315 0.801354 0.745077
Si Si3 0.184605 0.111706 0.599970
Si Si4 0.290462 0.389579 0.776448
Si Si5 0.422960 0.888027 0.156978
Si Si6 0.674225 0.115923 0.441677
Si Si7 0.923876 0.613875 0.149446
O O1 0.911930 0.720564 0.500000
O O2 0.875281 0.827239 0.578884
O O3 0.912929 0.656895 0.600088
O O4 0.000000 0.772410 0.565375
O O5 0.333609 0.689535 0.747205
O O6 0.284498 0.858746 0.732973
O O7 0.380224 0.833819 0.800287
O O8 0.401819 0.830114 0.700484
O O9 0.193585 0.118963 0.662152
O O10 0.252831 0.144864 0.574614
O O11 0.175521 0.000000 0.587195
O O12 0.300208 0.500000 0.761367
O O13 0.500000 0.876827 0.169745
O O14 0.407723 0.000000 0.157976
O O15 0.658774 0.148130 0.500000
O O16 0.621735 0.144272 0.398504
O O17 0.674117 0.000000 0.441723
O O18 0.913257 0.500000 0.158604
O O19 0.000000 0.627234 0.138046
#
# Coordination Sequence:
#
# PCOD9518451 Si02
#       7
#    16  16  16  16  16  16  16
#     4  10  21  35  49  69  96 125 165 210 249 293
#     4  11  19  32  52  72  99 127 162 201 240 286
#     4  10  18  33  51  69  97 128 163 202 241 292
#     4  10  20  32  50  74  99 129 162 197 242 290
#     4  10  20  33  50  71  94 125 163 201 247 296
#     4   9  17  29  46  69  97 129 161 190 229 284
#     4  10  19  30  47  72 101 131 162 199 241 286
#
# _framework density 15.161379999999999
#
# number of rings (size 3 to 8) (size 9 to 14) (size 15 to 20)
#    0.000    2.000    2.857    2.143    0.000    2.857 
#    0.000    3.571    0.000    1.714    0.000    0.000 
#    0.000    0.571    0.000    1.286    0.000    0.143 
#
# Total GULP energy -312258.169645 kJ/mol
# GULP energy per Si atom -5576.038744 kJ/mol
# Density = 1.512687 g / cm^3
# Si number density = 15.161380 Si / 1000 Ang^3
#
#
#
# Elastic Constant Matrix: (Units=GPa)
#
#
# Indices 1 2 3 4 5 6 
#
# 1 67.3634 39.6726 39.7527 0.0000 0.0000 0.0000
# 2 39.6726 81.0320 32.9795 0.0000 0.0000 0.0000
# 3 39.7527 32.9795 84.7035 0.0000 0.0000 0.0000
# 4 0.0000 0.0000 0.0000 16.5526 0.0000 0.0000
# 5 0.0000 0.0000 0.0000 0.0000 23.2691 0.0000
# 6 0.0000 0.0000 0.0000 0.0000 0.0000 20.5880
#
#
#
# Elastic Compliance Matrix: (Units=1/GPa)
#
#
# Indices 1 2 3 4 5 6 
#
# 1 0.024924 -0.008843 -0.008254 0.000000 0.000000 0.000000
# 2 -0.008843 0.017802 -0.002781 0.000000 0.000000 0.000000
# 3 -0.008254 -0.002781 0.016762 0.000000 0.000000 0.000000
# 4 0.000000 0.000000 0.000000 0.060414 0.000000 0.000000
# 5 0.000000 0.000000 0.000000 0.000000 0.042975 0.000000
# 6 0.000000 0.000000 0.000000 0.000000 0.000000 0.048572
#
#
# Mechanical properties :
#
#
# Convention : Reuss Voigt Hill
#
# Bulk Modulus (GPa) = 50.67935 50.87874 50.77904
# Shear Modulus (GPa) = 19.39613 20.12821 19.76217
#
# Velocity S-wave (km/s) = 3.58063 3.64757 3.61426
# Velocity P-wave (km/s) = 7.11292 7.16734 7.14018
#
# Compressibility (1/GPa) = 0.01973190
#
# Stress axis : x y z
#
# Youngs Moduli (GPa) = 40.12225 56.17274 59.65707
#
# Poissons Ratio (x) = 0.49674 0.49241
# Poissons Ratio (y) = 0.35481 0.16591
# Poissons Ratio (z) = 0.33117 0.15622
#
# Static dielectric constant tensor:
#      x y z
#    x 1.497340 0.000000 0.000000 
#    y 0.000000 1.483250 0.000000 
#    z 0.000000 0.000000 1.505070 
# 
# From -- ./inp_files/26261.got.cif
#   From: 2010.05.17/outbox.cif.g08.bks.cpg/sg71_14_cif.got.tgz:26261.got - 2010.06.03 16:22:01.
