data_PCOD9518485
_publ_section_title
;
Structure prediction by ZEFSAII (Michael W. Deem and Ramdas Pophale) SiO2 
 PCOD9518485
Probable space group: I M M M
;
_chemical_formula_sum "Si O2"
_cell_formula_units_Z 96
_cell_length_a 27.402829
_cell_length_b 16.437382
_cell_length_c 12.497348
_cell_angle_alpha 90.000000
_cell_angle_beta 90.000000
_cell_angle_gamma 90.000000
_cell_volume 5629.190060
_symmetry_space_group_name_H-M "I M M M"
_symmetry_group_IT_number 71
_symmetry_cell_setting 'orthorhombic'
loop_
_space_group_symop_operation_xyz
x,y,z
-x,-y,z
x,-y,-z
-x,y,-z
-x,-y,-z
x,y,-z
-x,y,z
x,-y,z
1/2+x,1/2+y,1/2+z
1/2-x,1/2-y,1/2+z
1/2+x,1/2-y,1/2-z
1/2-x,1/2+y,1/2-z
1/2-x,1/2-y,1/2-z
1/2+x,1/2+y,1/2-z
1/2-x,1/2+y,1/2+z
1/2+x,1/2-y,1/2+z
loop_
_atom_site_type_symbol
_atom_site_label
_atom_site_fract_x
_atom_site_fract_y
_atom_site_fract_z
Si Si1 0.847280 0.905270 0.500000
Si Si2 0.445257 0.323281 0.000000
Si Si3 0.637993 0.724658 0.625013
Si Si4 0.786467 0.673404 0.236797
Si Si5 0.057237 0.285699 0.285602
Si Si6 0.632449 0.094745 0.127140
Si Si7 0.310660 0.405927 0.225809
O O1 0.904776 0.892111 0.500000
O O2 0.827338 0.870337 0.610880
O O3 0.833606 0.000000 0.500000
O O4 0.438897 0.268683 0.893623
O O5 0.500000 0.355830 0.000000
O O6 0.629702 0.711828 0.500000
O O7 0.675986 0.799438 0.644504
O O8 0.588930 0.744808 0.691206
O O9 0.664311 0.647732 0.681950
O O10 0.750000 0.750000 0.250000
O O11 0.822086 0.649708 0.334030
O O12 0.747841 0.601320 0.224201
O O13 0.084606 0.369425 0.315281
O O14 0.000000 0.294716 0.260490
O O15 0.640597 0.000000 0.154068
O O16 0.626635 0.101473 0.000000
O O17 0.325581 0.500000 0.235369
#
# Coordination Sequence:
#
# PCOD9518485 Si02
#       7
#     8   8  16  16  16  16  16
#     4  10  20  33  54  81 109 142 177 223 277 325
#     4  10  18  33  57  80 106 139 179 229 277 320
#     4  10  21  36  54  78 105 140 183 223 261 310
#     4   9  20  34  50  76 106 143 181 216 257 314
#     4  10  20  35  56  80 106 140 178 222 273 323
#     4  10  20  34  54  82 114 141 172 223 280 327
#     4  10  20  35  54  78 108 142 177 217 268 320
#
# _framework density 17.053963
#
# number of rings (size 3 to 8) (size 9 to 14) (size 15 to 20)
#    0.000    2.167    2.500    0.500    1.167    3.833 
#    0.000    0.833    0.000    5.000    0.000    5.833 
#    0.000    0.000    0.000    0.000    0.000    0.000 
#
# Total GULP energy -267306.249048 kJ/mol
# GULP energy per Si atom -5568.880189 kJ/mol
# Density = 1.701515 g / cm^3
# Si number density = 17.053963 Si / 1000 Ang^3
#
#
#
# Elastic Constant Matrix: (Units=GPa)
#
#
# Indices 1 2 3 4 5 6 
#
# 1 129.3975 25.7436 53.8299 0.0000 0.0000 0.0000
# 2 25.7436 58.2402 35.0582 0.0000 0.0000 0.0000
# 3 53.8299 35.0582 131.0936 0.0000 0.0000 0.0000
# 4 0.0000 0.0000 0.0000 21.2202 0.0000 0.0000
# 5 0.0000 0.0000 0.0000 0.0000 17.5099 0.0000
# 6 0.0000 0.0000 0.0000 0.0000 0.0000 17.1342
#
#
#
# Elastic Compliance Matrix: (Units=1/GPa)
#
#
# Indices 1 2 3 4 5 6 
#
# 1 0.009555 -0.002219 -0.003330 0.000000 0.000000 0.000000
# 2 -0.002219 0.020980 -0.004700 0.000000 0.000000 0.000000
# 3 -0.003330 -0.004700 0.010252 0.000000 0.000000 0.000000
# 4 0.000000 0.000000 0.000000 0.047125 0.000000 0.000000
# 5 0.000000 0.000000 0.000000 0.000000 0.057111 0.000000
# 6 0.000000 0.000000 0.000000 0.000000 0.000000 0.058363
#
#
# Mechanical properties :
#
#
# Convention : Reuss Voigt Hill
#
# Bulk Modulus (GPa) = 49.28482 60.88830 55.08656
# Shear Modulus (GPa) = 21.67825 24.77950 23.22887
#
# Velocity S-wave (km/s) = 3.56920 3.81597 3.69464
# Velocity P-wave (km/s) = 6.77847 7.42942 7.11140
#
# Compressibility (1/GPa) = 0.02029022
#
# Stress axis : x y z
#
# Youngs Moduli (GPa) = 104.65840 47.66438 97.53896
#
# Poissons Ratio (x) = 0.10576 0.32481
# Poissons Ratio (y) = 0.23223 0.45839
# Poissons Ratio (z) = 0.34852 0.22400
#
# Static dielectric constant tensor:
#      x y z
#    x 1.581620 0.000000 0.000000 
#    y 0.000000 1.611350 0.000000 
#    z 0.000000 0.000000 1.569690 
# 
# From -- ./inp_files/24262.got.cif
#   From: 2010.05.17/outbox.cif.g08.bks.cpg/sg71_13_cif.got.tgz:24262.got - 2010.06.03 16:22:01.
