data_PCOD9518320
_publ_section_title
;
Structure prediction by ZEFSAII (Michael W. Deem and Ramdas Pophale) SiO2 
 PCOD9518320
Probable space group: I M M M
;
_chemical_formula_sum "Si O2"
_cell_formula_units_Z 64
_cell_length_a 7.382038
_cell_length_b 13.884284
_cell_length_c 26.015867
_cell_angle_alpha 90.000000
_cell_angle_beta 90.000000
_cell_angle_gamma 90.000000
_cell_volume 2666.478392
_symmetry_space_group_name_H-M "I M M M"
_symmetry_group_IT_number 71
_symmetry_cell_setting 'orthorhombic'
loop_
_space_group_symop_operation_xyz
x,y,z
-x,-y,z
x,-y,-z
-x,y,-z
-x,-y,-z
x,y,-z
-x,y,z
x,-y,z
1/2+x,1/2+y,1/2+z
1/2-x,1/2-y,1/2+z
1/2+x,1/2-y,1/2-z
1/2-x,1/2+y,1/2-z
1/2-x,1/2-y,1/2-z
1/2+x,1/2+y,1/2-z
1/2-x,1/2+y,1/2+z
1/2+x,1/2-y,1/2+z
loop_
_atom_site_type_symbol
_atom_site_label
_atom_site_fract_x
_atom_site_fract_y
_atom_site_fract_z
Si Si1 0.801730 0.500000 0.692703
Si Si2 0.203765 0.870205 0.500000
Si Si3 0.715953 0.215182 0.192540
Si Si4 0.282308 0.500000 0.418787
Si Si5 0.216397 0.156389 0.000000
Si Si6 0.720785 0.607924 0.117194
O O1 0.710309 0.394895 0.697211
O O2 0.822952 0.500000 0.632255
O O3 0.000000 0.500000 0.719602
O O4 0.193437 0.756654 0.500000
O O5 0.282899 0.891600 0.443022
O O6 0.000000 0.907564 0.500000
O O7 0.500000 0.205092 0.182878
O O8 0.750000 0.250000 0.250000
O O9 0.779398 0.298018 0.151221
O O10 0.500000 0.500000 0.411251
O O11 0.236449 0.406491 0.451154
O O12 0.000000 0.169681 0.000000
O O13 0.500000 0.612506 0.116338
O O14 0.767953 0.500000 0.138131
#
# Coordination Sequence:
#
# PCOD9518320 Si02
#       6
#     8   8  16   8   8  16
#     4  10  21  37  55  80 112 135 171 236 292 324
#     4  10  18  31  55  83 108 141 184 228 282 336
#     4  10  22  38  57  81 111 147 185 231 285 336
#     4   9  18  32  50  74 104 146 187 219 263 328
#     4   9  18  31  47  72 112 148 180 221 264 319
#     4   9  18  33  55  83 112 143 185 234 277 328
#
# _framework density 24.001695999999999
#
# number of rings (size 3 to 8) (size 9 to 14) (size 15 to 20)
#    0.000    2.500    0.000    2.625    1.750    5.500 
#    0.000    2.500    0.000    3.000    0.000    0.000 
#    0.000    0.000    0.000    0.000    0.000    0.000 
#
# Total GULP energy -178196.249860 kJ/mol
# GULP energy per Si atom -5568.632808 kJ/mol
# Density = 2.394707 g / cm^3
# Si number density = 24.001696 Si / 1000 Ang^3
#
#
#
# Elastic Constant Matrix: (Units=GPa)
#
#
# Indices 1 2 3 4 5 6 
#
# 1 60.1640 23.6510 5.4854 0.0000 0.0000 0.0000
# 2 23.6510 275.2547 81.8483 0.0000 0.0000 0.0000
# 3 5.4854 81.8483 124.6259 0.0000 0.0000 0.0000
# 4 0.0000 0.0000 0.0000 85.9176 0.0000 0.0000
# 5 0.0000 0.0000 0.0000 0.0000 13.2787 0.0000
# 6 0.0000 0.0000 0.0000 0.0000 0.0000 -5.8311
#
#
#
# Elastic Compliance Matrix: (Units=1/GPa)
#
#
# Indices 1 2 3 4 5 6 
#
# 1 0.017209 -0.001558 0.000266 0.000000 0.000000 0.000000
# 2 -0.001558 0.004656 -0.002989 0.000000 0.000000 0.000000
# 3 0.000266 -0.002989 0.009975 0.000000 0.000000 0.000000
# 4 0.000000 0.000000 0.000000 0.011639 0.000000 0.000000
# 5 0.000000 0.000000 0.000000 0.000000 0.075308 0.000000
# 6 0.000000 0.000000 0.000000 0.000000 0.000000 -0.171493
#
#
# Mechanical properties :
#
#
# Convention : Reuss Voigt Hill
#
# Bulk Modulus (GPa) = 42.95894 75.77933 59.36913
# Shear Modulus (GPa) = -137.42324 41.94370 -47.73977
#
# Velocity S-wave (km/s) = -7.57495 4.18488 -4.46468
# Velocity P-wave (km/s) = 7.65307 7.41566 1.33742
#
# Compressibility (1/GPa) = 0.02327804
#
# Stress axis : x y z
#
# Youngs Moduli (GPa) = 58.10794 214.79296 100.24675
#
# Poissons Ratio (x) = 0.33457 -0.02662
# Poissons Ratio (y) = 0.09051 0.29964
# Poissons Ratio (z) = -0.01543 0.64203
#
# Static dielectric constant tensor:
#      x y z
#    x 1.951210 0.000000 0.000000 
#    y 0.000000 2.454540 0.000000 
#    z 0.000000 0.000000 1.880540 
# 
# From -- ./inp_files/14254.got.cif
#   From: 2010.05.17/outbox.cif.g08.bks.cpg/sg71_8_cif.got.tgz:14254.got - 2010.06.03 16:22:01.
