data_PCOD9518409
_publ_section_title
;
Structure prediction by ZEFSAII (Michael W. Deem and Ramdas Pophale) SiO2 
 PCOD9518409
Probable space group: I M M M
;
_chemical_formula_sum "Si O2"
_cell_formula_units_Z 88
_cell_length_a 22.286822
_cell_length_b 13.859523
_cell_length_c 16.826519
_cell_angle_alpha 90.000000
_cell_angle_beta 90.000000
_cell_angle_gamma 90.000000
_cell_volume 5197.454645
_symmetry_space_group_name_H-M "I M M M"
_symmetry_group_IT_number 71
_symmetry_cell_setting 'orthorhombic'
loop_
_space_group_symop_operation_xyz
x,y,z
-x,-y,z
x,-y,-z
-x,y,-z
-x,-y,-z
x,y,-z
-x,y,z
x,-y,z
1/2+x,1/2+y,1/2+z
1/2-x,1/2-y,1/2+z
1/2+x,1/2-y,1/2-z
1/2-x,1/2+y,1/2-z
1/2-x,1/2-y,1/2-z
1/2+x,1/2+y,1/2-z
1/2-x,1/2+y,1/2+z
1/2+x,1/2-y,1/2+z
loop_
_atom_site_type_symbol
_atom_site_label
_atom_site_fract_x
_atom_site_fract_y
_atom_site_fract_z
Si Si1 0.568671 0.701773 0.841612
Si Si2 0.657905 0.218859 0.288061
Si Si3 0.926755 0.000000 0.408594
Si Si4 0.250546 0.883251 0.828450
Si Si5 0.434562 0.169745 0.000000
Si Si6 0.698725 0.890708 0.000000
Si Si7 0.568374 0.884888 0.594563
O O1 0.500000 0.693147 0.813511
O O2 0.609499 0.751842 0.777653
O O3 0.592338 0.596133 0.864110
O O4 0.567546 0.762792 0.922627
O O5 0.704414 0.147877 0.242751
O O6 0.692651 0.315436 0.315715
O O7 0.620679 0.168554 0.358169
O O8 0.906663 0.000000 0.500000
O O9 0.000000 0.000000 0.410676
O O10 0.278291 0.852335 0.914772
O O11 0.241323 0.000000 0.827043
O O12 0.500000 0.119777 0.000000
O O13 0.373433 0.110722 0.000000
O O14 0.720640 0.000000 0.000000
O O15 0.573585 0.868660 0.500000
O O16 0.500000 0.855891 0.618404
O O17 0.572922 0.000000 0.608335
#
# Coordination Sequence:
#
# PCOD9518409 Si02
#       7
#    16  16   8  16   8   8  16
#     4  10  19  31  51  79 108 138 174 216 267 320
#     4  11  21  35  58  80 108 142 177 236 268 319
#     4   9  16  28  46  72 107 145 173 203 256 321
#     4  10  23  38  54  78 105 145 188 222 265 315
#     4  10  18  32  54  80 107 134 174 214 259 327
#     4  10  20  39  55  69 105 143 178 216 258 319
#     4   9  19  37  61  86 110 138 174 222 284 342
#
# _framework density 16.931363999999999
#
# number of rings (size 3 to 8) (size 9 to 14) (size 15 to 20)
#    0.000    2.091    2.727    1.636    2.545    0.182 
#    0.000    0.000    0.000    0.000    0.000    1.273 
#    0.000    0.000    0.000    0.000    0.000    0.000 
#
# Total GULP energy -245127.607449 kJ/mol
# GULP energy per Si atom -5571.081987 kJ/mol
# Density = 1.689283 g / cm^3
# Si number density = 16.931364 Si / 1000 Ang^3
#
#
#
# Elastic Constant Matrix: (Units=GPa)
#
#
# Indices 1 2 3 4 5 6 
#
# 1 101.0238 43.5226 55.8874 0.0000 0.0000 0.0000
# 2 43.5226 82.8219 39.5222 0.0000 0.0000 0.0000
# 3 55.8874 39.5222 78.2506 0.0000 0.0000 0.0000
# 4 0.0000 0.0000 0.0000 36.3549 0.0000 0.0000
# 5 0.0000 0.0000 0.0000 0.0000 37.0916 0.0000
# 6 0.0000 0.0000 0.0000 0.0000 0.0000 36.2997
#
#
#
# Elastic Compliance Matrix: (Units=1/GPa)
#
#
# Indices 1 2 3 4 5 6 
#
# 1 0.017426 -0.004240 -0.010304 0.000000 0.000000 0.000000
# 2 -0.004240 0.016940 -0.005528 0.000000 0.000000 0.000000
# 3 -0.010304 -0.005528 0.022931 0.000000 0.000000 0.000000
# 4 0.000000 0.000000 0.000000 0.027507 0.000000 0.000000
# 5 0.000000 0.000000 0.000000 0.000000 0.026960 0.000000
# 6 0.000000 0.000000 0.000000 0.000000 0.000000 0.027548
#
#
# Mechanical properties :
#
#
# Convention : Reuss Voigt Hill
#
# Bulk Modulus (GPa) = 58.29974 59.99566 59.14770
# Shear Modulus (GPa) = 27.00185 30.16018 28.58101
#
# Velocity S-wave (km/s) = 3.99781 4.22515 4.11305
# Velocity P-wave (km/s) = 7.47112 7.70156 7.58722
#
# Compressibility (1/GPa) = 0.01715273
#
# Stress axis : x y z
#
# Youngs Moduli (GPa) = 57.38671 59.03185 43.60997
#
# Poissons Ratio (x) = 0.25030 0.44936
# Poissons Ratio (y) = 0.24332 0.24106
# Poissons Ratio (z) = 0.59131 0.32631
#
# Static dielectric constant tensor:
#      x y z
#    x 1.572660 0.000000 0.000000 
#    y 0.000000 1.575380 0.000000 
#    z 0.000000 0.000000 1.567230 
# 
# From -- ./inp_files/25704.got.cif
#   From: 2010.05.17/outbox.cif.g08.bks.cpg/sg71_13_cif.got.tgz:25704.got - 2010.06.03 16:22:01.
