data_PCOD9518061
_publ_section_title
;
Structure prediction by ZEFSAII (Michael W. Deem and Ramdas Pophale) SiO2 
 PCOD9518061
Probable space group: I M M M
;
_chemical_formula_sum "Si O2"
_cell_formula_units_Z 112
_cell_length_a 26.405956
_cell_length_b 14.388971
_cell_length_c 17.462007
_cell_angle_alpha 90.000000
_cell_angle_beta 90.000000
_cell_angle_gamma 90.000000
_cell_volume 6634.768752
_symmetry_space_group_name_H-M "I M M M"
_symmetry_group_IT_number 71
_symmetry_cell_setting 'orthorhombic'
loop_
_space_group_symop_operation_xyz
x,y,z
-x,-y,z
x,-y,-z
-x,y,-z
-x,-y,-z
x,y,-z
-x,y,z
x,-y,z
1/2+x,1/2+y,1/2+z
1/2-x,1/2-y,1/2+z
1/2+x,1/2-y,1/2-z
1/2-x,1/2+y,1/2-z
1/2-x,1/2-y,1/2-z
1/2+x,1/2+y,1/2-z
1/2-x,1/2+y,1/2+z
1/2+x,1/2-y,1/2+z
loop_
_atom_site_type_symbol
_atom_site_label
_atom_site_fract_x
_atom_site_fract_y
_atom_site_fract_z
Si Si1 0.409136 0.607685 0.344997
Si Si2 0.445128 0.205378 0.409318
Si Si3 0.202000 0.893920 0.089415
Si Si4 0.341535 0.110776 0.591306
Si Si5 0.443201 0.388436 0.829477
Si Si6 0.657860 0.389304 0.090433
Si Si7 0.250956 0.276653 0.161271
O O1 0.422238 0.500000 0.362552
O O2 0.436851 0.685413 0.394598
O O3 0.349267 0.618391 0.361313
O O4 0.424074 0.626771 0.257226
O O5 0.446383 0.188284 0.500000
O O6 0.500000 0.177205 0.377094
O O7 0.395443 0.151456 0.381266
O O8 0.242613 0.818316 0.114147
O O9 0.219388 0.000000 0.099809
O O10 0.188241 0.881470 0.000000
O O11 0.335598 0.132446 0.500000
O O12 0.296303 0.158807 0.636958
O O13 0.340315 0.000000 0.599122
O O14 0.500000 0.350524 0.840532
O O15 0.446672 0.500000 0.838518
O O16 0.398789 0.358502 0.886492
O O17 0.662796 0.500000 0.108151
O O18 0.698673 0.331079 0.137500
O O19 0.666719 0.378151 0.000000
O O20 0.250000 0.250000 0.250000
#
# Coordination Sequence:
#
# PCOD9518061 Si02
#       7
#    16  16  16  16  16  16  16
#     4  10  18  30  49  75 107 143 179 216 262 317
#     4  10  20  32  49  76 107 141 183 223 258 305
#     4  10  20  34  53  75 104 141 176 213 258 313
#     4  10  21  38  58  77 104 143 181 218 262 314
#     4   9  18  32  50  74 106 141 173 209 260 316
#     4  10  21  36  55  80 108 139 178 221 261 311
#     4  12  23  35  55  79 105 135 174 219 273 318
#
# _framework density 16.880769999999998
#
# number of rings (size 3 to 8) (size 9 to 14) (size 15 to 20)
#    0.000    1.857    1.429    3.429    0.000    5.714 
#    0.000    3.571    0.000    0.000    0.000    0.000 
#    0.000    0.571    0.000    3.000    0.000    0.143 
#
# Total GULP energy -312400.999421 kJ/mol
# GULP energy per Si atom -5578.589275 kJ/mol
# Density = 1.684235 g / cm^3
# Si number density = 16.880770 Si / 1000 Ang^3
#
#
#
# Elastic Constant Matrix: (Units=GPa)
#
#
# Indices 1 2 3 4 5 6 
#
# 1 117.0188 48.7238 58.0205 0.0000 0.0000 0.0000
# 2 48.7238 69.0979 33.1531 0.0000 0.0000 0.0000
# 3 58.0205 33.1531 57.2255 0.0000 0.0000 0.0000
# 4 0.0000 0.0000 0.0000 17.5886 0.0000 0.0000
# 5 0.0000 0.0000 0.0000 0.0000 15.5333 0.0000
# 6 0.0000 0.0000 0.0000 0.0000 0.0000 14.0470
#
#
#
# Elastic Compliance Matrix: (Units=1/GPa)
#
#
# Indices 1 2 3 4 5 6 
#
# 1 0.018651 -0.005649 -0.015638 0.000000 0.000000 0.000000
# 2 -0.005649 0.021755 -0.006876 0.000000 0.000000 0.000000
# 3 -0.015638 -0.006876 0.037313 0.000000 0.000000 0.000000
# 4 0.000000 0.000000 0.000000 0.056855 0.000000 0.000000
# 5 0.000000 0.000000 0.000000 0.000000 0.064378 0.000000
# 6 0.000000 0.000000 0.000000 0.000000 0.000000 0.071189
#
#
# Mechanical properties :
#
#
# Convention : Reuss Voigt Hill
#
# Bulk Modulus (GPa) = 46.74230 58.12632 52.43431
# Shear Modulus (GPa) = 14.98811 16.33010 15.65910
#
# Velocity S-wave (km/s) = 2.98297 3.11365 3.04901
# Velocity P-wave (km/s) = 6.29396 6.88728 6.59729
#
# Compressibility (1/GPa) = 0.02139390
#
# Stress axis : x y z
#
# Youngs Moduli (GPa) = 53.61597 45.96749 26.80015
#
# Poissons Ratio (x) = 0.25966 0.41909
# Poissons Ratio (y) = 0.30286 0.18428
# Poissons Ratio (z) = 0.83843 0.31607
#
# Static dielectric constant tensor:
#      x y z
#    x 1.622500 0.000000 0.000000 
#    y 0.000000 1.566880 0.000000 
#    z 0.000000 0.000000 1.572770 
# 
# From -- ./inp_files/34922.got.cif
#   From: 2010.05.17/outbox.cif.g08.bks.cpg/sg71_18_cif.got.tgz:34922.got - 2010.06.03 16:22:01.
