data_PCOD9518505
_publ_section_title
;
Structure prediction by ZEFSAII (Michael W. Deem and Ramdas Pophale) SiO2 
 PCOD9518505
Probable space group: I M M M
;
_chemical_formula_sum "Si O2"
_cell_formula_units_Z 96
_cell_length_a 11.951142
_cell_length_b 29.288061
_cell_length_c 13.558174
_cell_angle_alpha 90.000000
_cell_angle_beta 90.000000
_cell_angle_gamma 90.000000
_cell_volume 4745.710374
_symmetry_space_group_name_H-M "I M M M"
_symmetry_group_IT_number 71
_symmetry_cell_setting 'orthorhombic'
loop_
_space_group_symop_operation_xyz
x,y,z
-x,-y,z
x,-y,-z
-x,y,-z
-x,-y,-z
x,y,-z
-x,y,z
x,-y,z
1/2+x,1/2+y,1/2+z
1/2-x,1/2-y,1/2+z
1/2+x,1/2-y,1/2-z
1/2-x,1/2+y,1/2-z
1/2-x,1/2-y,1/2-z
1/2+x,1/2+y,1/2-z
1/2-x,1/2+y,1/2+z
1/2+x,1/2-y,1/2+z
loop_
_atom_site_type_symbol
_atom_site_label
_atom_site_fract_x
_atom_site_fract_y
_atom_site_fract_z
Si Si1 0.257624 0.318999 0.820490
Si Si2 0.866368 0.592954 0.222241
Si Si3 0.500000 0.329995 0.394523
Si Si4 0.265900 0.718948 0.392594
Si Si5 0.500000 0.641450 0.880857
Si Si6 0.773685 0.052310 0.115456
Si Si7 0.000000 0.922677 0.778899
Si Si8 0.635762 0.000000 0.611504
O O1 0.184025 0.364067 0.835820
O O2 0.223004 0.303429 0.708727
O O3 0.237763 0.273433 0.882685
O O4 0.386348 0.333598 0.841903
O O5 0.809387 0.587010 0.329574
O O6 0.832560 0.546158 0.167265
O O7 0.000000 0.595833 0.228786
O O8 0.500000 0.354144 0.500000
O O9 0.607232 0.298454 0.389801
O O10 0.500000 0.370993 0.319770
O O11 0.217676 0.705522 0.500000
O O12 0.500000 0.589499 0.836872
O O13 0.500000 0.642175 0.000000
O O14 0.889628 0.054868 0.176009
O O15 0.730929 0.000000 0.119765
O O16 0.791024 0.063514 0.000000
O O17 0.500000 0.000000 0.608994
O O18 0.677532 0.000000 0.500000
#
# Coordination Sequence:
#
# PCOD9518505 Si02
#       8
#    16  16   8  16   8  16   8   8
#     4  11  23  41  63  92 130 169 216 271 327 388
#     4  11  23  41  65  96 131 171 217 269 322 392
#     4  10  18  33  61  89 120 160 207 263 320 373
#     4  10  21  38  61  91 125 168 218 264 318 383
#     4  12  24  41  64  91 123 168 215 267 334 390
#     4  11  23  40  66  98 132 171 215 268 328 390
#     4  12  21  41  63  96 127 173 218 271 316 388
#     4   9  20  40  63  86 121 168 217 264 314 373
#
# _framework density 20.228795000000002
#
# number of rings (size 3 to 8) (size 9 to 14) (size 15 to 20)
#    0.000    1.250    4.167    1.500    1.167    4.333 
#    1.500    0.833    0.000    0.500    0.000    0.000 
#    0.000    0.000    0.000    0.000    0.000    0.000 
#
# Total GULP energy -267650.472987 kJ/mol
# GULP energy per Si atom -5576.051521 kJ/mol
# Density = 2.018275 g / cm^3
# Si number density = 20.228795 Si / 1000 Ang^3
#
#
#
# Elastic Constant Matrix: (Units=GPa)
#
#
# Indices 1 2 3 4 5 6 
#
# 1 62.5990 24.8436 2.7607 0.0000 0.0000 0.0000
# 2 24.8436 98.1319 16.3927 0.0000 0.0000 0.0000
# 3 2.7607 16.3927 110.7239 0.0001 -0.0001 0.0001
# 4 0.0000 0.0000 0.0001 21.4231 0.0000 0.0000
# 5 0.0000 0.0000 -0.0001 0.0000 18.3548 0.0000
# 6 0.0000 0.0000 0.0001 0.0000 0.0000 30.2774
#
#
#
# Elastic Compliance Matrix: (Units=1/GPa)
#
#
# Indices 1 2 3 4 5 6 
#
# 1 0.017765 -0.004536 0.000229 0.000000 0.000000 0.000000
# 2 -0.004536 0.011607 -0.001605 0.000000 0.000000 0.000000
# 3 0.000229 -0.001605 0.009263 0.000000 0.000000 0.000000
# 4 0.000000 0.000000 0.000000 0.046679 0.000000 0.000000
# 5 0.000000 0.000000 0.000000 0.000000 0.054482 0.000000
# 6 0.000000 0.000000 0.000000 0.000000 0.000000 0.033028
#
#
# Mechanical properties :
#
#
# Convention : Reuss Voigt Hill
#
# Bulk Modulus (GPa) = 37.29919 39.93875 38.61897
# Shear Modulus (GPa) = 25.82851 29.17490 27.50170
#
# Velocity S-wave (km/s) = 3.57714 3.80181 3.69118
# Velocity P-wave (km/s) = 5.96153 6.24965 6.10729
#
# Compressibility (1/GPa) = 0.02681024
#
# Stress axis : x y z
#
# Youngs Moduli (GPa) = 56.29164 86.15661 107.95127
#
# Poissons Ratio (x) = 0.39077 -0.02467
# Poissons Ratio (y) = 0.25531 0.17329
# Poissons Ratio (z) = -0.01287 0.13831
#
# Static dielectric constant tensor:
#      x y z
#    x 1.651720 0.000000 0.000000 
#    y 0.000000 1.712390 0.000000 
#    z 0.000000 0.000000 1.821930 
# 
# From -- ./inp_files/33275.got.cif
#   From: 2010.05.17/outbox.cif.g08.bks.cpg/sg71_17_cif.got.tgz:33275.got - 2010.06.03 16:22:01.
