data_PCOD9518267
_publ_section_title
;
Structure prediction by ZEFSAII (Michael W. Deem and Ramdas Pophale) SiO2 
 PCOD9518267
Probable space group: I M M M
;
_chemical_formula_sum "Si O2"
_cell_formula_units_Z 80
_cell_length_a 18.082696
_cell_length_b 7.399921
_cell_length_c 26.281732
_cell_angle_alpha 90.000000
_cell_angle_beta 90.000000
_cell_angle_gamma 90.000000
_cell_volume 3516.772274
_symmetry_space_group_name_H-M "I M M M"
_symmetry_group_IT_number 71
_symmetry_cell_setting 'orthorhombic'
loop_
_space_group_symop_operation_xyz
x,y,z
-x,-y,z
x,-y,-z
-x,y,-z
-x,-y,-z
x,y,-z
-x,y,z
x,-y,z
1/2+x,1/2+y,1/2+z
1/2-x,1/2-y,1/2+z
1/2+x,1/2-y,1/2-z
1/2-x,1/2+y,1/2-z
1/2-x,1/2-y,1/2-z
1/2+x,1/2+y,1/2-z
1/2-x,1/2+y,1/2+z
1/2+x,1/2-y,1/2+z
loop_
_atom_site_type_symbol
_atom_site_label
_atom_site_fract_x
_atom_site_fract_y
_atom_site_fract_z
Si Si1 0.316888 0.283843 0.710298
Si Si2 0.154383 0.781485 0.398689
Si Si3 0.416905 0.719624 0.203423
Si Si4 0.182600 0.208920 0.904913
Si Si5 0.000000 0.205714 0.559963
Si Si6 0.413596 0.278509 0.500000
O O1 0.319336 0.500000 0.705738
O O2 0.250000 0.250000 0.750000
O O3 0.388830 0.221785 0.741642
O O4 0.315912 0.211288 0.652610
O O5 0.141666 0.727291 0.339892
O O6 0.231261 0.714850 0.420852
O O7 0.078488 0.715751 0.424020
O O8 0.157080 0.000000 0.402318
O O9 0.500000 0.779542 0.191180
O O10 0.417703 0.500000 0.202923
O O11 0.160107 0.000000 0.899658
O O12 0.129963 0.283835 0.949138
O O13 0.000000 0.194483 0.500000
O O14 0.000000 0.000000 0.582110
O O15 0.410620 0.500000 0.500000
O O16 0.500000 0.227729 0.500000
#
# Coordination Sequence:
#
# PCOD9518267 Si02
#       6
#    16  16  16  16   8   8
#     4  10  19  31  50  77 106 135 169 215 265 314
#     4  10  18  31  52  76 105 141 174 210 259 309
#     4   9  16  28  47  72 100 131 168 209 252 302
#     4  10  21  35  54  80 107 137 178 224 270 321
#     4   9  18  30  47  75 107 137 177 216 244 293
#     4   9  20  40  61  78 105 144 182 227 277 319
#
# _framework density 22.748132999999999
#
# number of rings (size 3 to 8) (size 9 to 14) (size 15 to 20)
#    0.000    2.400    3.000    0.000    1.400    0.800 
#    0.000    4.500    0.000    3.600    0.000    2.800 
#    0.000    0.000    0.000    0.000    0.000    0.000 
#
# Total GULP energy -223129.304396 kJ/mol
# GULP energy per Si atom -5578.232610 kJ/mol
# Density = 2.269636 g / cm^3
# Si number density = 22.748133 Si / 1000 Ang^3
#
#
#
# Elastic Constant Matrix: (Units=GPa)
#
#
# Indices 1 2 3 4 5 6 
#
# 1 165.7343 -5.1391 94.1763 0.0000 0.0000 0.0000
# 2 -5.1391 77.2208 8.3578 0.0000 0.0000 0.0000
# 3 94.1763 8.3578 161.6180 0.0000 0.0000 0.0000
# 4 0.0000 0.0000 0.0000 -0.1596 0.0000 0.0000
# 5 0.0000 0.0000 0.0000 0.0000 42.2574 0.0000
# 6 0.0000 0.0000 0.0000 0.0000 0.0000 19.8665
#
#
#
# Elastic Compliance Matrix: (Units=1/GPa)
#
#
# Indices 1 2 3 4 5 6 
#
# 1 0.009128 0.001190 -0.005381 0.000000 0.000000 0.000000
# 2 0.001190 0.013178 -0.001375 0.000000 0.000000 0.000000
# 3 -0.005381 -0.001375 0.009394 0.000000 0.000000 0.000000
# 4 0.000000 0.000000 0.000000 -6.267164 0.000000 0.000000
# 5 0.000000 0.000000 0.000000 0.000000 0.023665 0.000000
# 6 0.000000 0.000000 0.000000 0.000000 0.000000 0.050336
#
#
# Mechanical properties :
#
#
# Convention : Reuss Voigt Hill
#
# Bulk Modulus (GPa) = 48.61750 66.59589 57.60669
# Shear Modulus (GPa) = -0.81387 32.87140 16.02877
#
# Velocity S-wave (km/s) = -0.59879 3.80546 2.65735
# Velocity P-wave (km/s) = 4.57607 6.97478 5.89864
#
# Compressibility (1/GPa) = 0.02056873
#
# Stress axis : x y z
#
# Youngs Moduli (GPa) = 109.55223 75.88488 106.45302
#
# Poissons Ratio (x) = -0.09029 0.57277
# Poissons Ratio (y) = -0.13035 0.14635
# Poissons Ratio (z) = 0.58945 0.10433
#
# Static dielectric constant tensor:
#      x y z
#    x 1.854870 0.000000 0.000000 
#    y 0.000000 1.917710 0.000000 
#    z 0.000000 0.000000 1.874270 
# 
# From -- ./inp_files/65841.got.cif
#   From: 2010.05.17/outbox.cif.g08.bks.cpg/sg71_33_cif.got.tgz:65841.got - 2010.06.03 16:22:01.
