data_PCOD9518602
_publ_section_title
;
Structure prediction by ZEFSAII (Michael W. Deem and Ramdas Pophale) SiO2 
 PCOD9518602
Probable space group: I M M M
;
_chemical_formula_sum "Si O2"
_cell_formula_units_Z 80
_cell_length_a 18.931422
_cell_length_b 7.323744
_cell_length_c 28.009747
_cell_angle_alpha 90.000000
_cell_angle_beta 90.000000
_cell_angle_gamma 90.000000
_cell_volume 3883.520283
_symmetry_space_group_name_H-M "I M M M"
_symmetry_group_IT_number 71
_symmetry_cell_setting 'orthorhombic'
loop_
_space_group_symop_operation_xyz
x,y,z
-x,-y,z
x,-y,-z
-x,y,-z
-x,-y,-z
x,y,-z
-x,y,z
x,-y,z
1/2+x,1/2+y,1/2+z
1/2-x,1/2-y,1/2+z
1/2+x,1/2-y,1/2-z
1/2-x,1/2+y,1/2-z
1/2-x,1/2-y,1/2-z
1/2+x,1/2+y,1/2-z
1/2-x,1/2+y,1/2+z
1/2+x,1/2-y,1/2+z
loop_
_atom_site_type_symbol
_atom_site_label
_atom_site_fract_x
_atom_site_fract_y
_atom_site_fract_z
Si Si1 0.369692 0.720029 0.810168
Si Si2 0.282076 0.222972 0.654361
Si Si3 0.422978 0.722179 0.913651
Si Si4 0.271039 0.277718 0.051850
Si Si5 0.922190 0.712204 0.205201
O O1 0.370351 0.500000 0.809389
O O2 0.288105 0.778970 0.816480
O O3 0.410358 0.774839 0.858355
O O4 0.404542 0.781744 0.761369
O O5 0.270310 0.278917 0.599398
O O6 0.354605 0.289321 0.677411
O O7 0.281892 0.000000 0.655454
O O8 0.500000 0.783137 0.930395
O O9 0.423074 0.500000 0.915213
O O10 0.352837 0.779013 0.941507
O O11 0.270463 0.500000 0.052408
O O12 0.244519 0.218871 0.000000
O O13 0.925669 0.500000 0.191175
O O14 0.000000 0.791839 0.196728
#
# Coordination Sequence:
#
# PCOD9518602 Si02
#       5
#    16  16  16  16  16
#     4   9  16  27  43  59  78 107 137 161 188 227
#     4   8  15  27  40  55  77 104 132 162 197 234
#     4   8  13  20  31  51  78 102 123 152 191 229
#     4   8  13  21  34  51  71  99 131 158 189 232
#     4  10  19  28  39  57  82 109 133 160 196 234
#
# _framework density 20.599865999999999
#
# number of rings (size 3 to 8) (size 9 to 14) (size 15 to 20)
#    0.000    3.400    0.000    3.600    0.000    1.600 
#    0.000    2.000    0.000    0.600    0.000    4.200 
#    0.000   20.000    0.000   45.800    0.000   38.800 
#
# Total GULP energy -223162.402477 kJ/mol
# GULP energy per Si atom -5579.060062 kJ/mol
# Density = 2.055298 g / cm^3
# Si number density = 20.599866 Si / 1000 Ang^3
#
#
#
# Elastic Constant Matrix: (Units=GPa)
#
#
# Indices 1 2 3 4 5 6 
#
# 1 96.3495 2.4413 19.4918 0.0000 0.0000 0.0000
# 2 2.4413 78.9831 -8.7737 0.0000 0.0000 0.0000
# 3 19.4918 -8.7737 60.0921 0.0000 0.0000 0.0000
# 4 0.0000 0.0000 0.0000 -64.9565 0.0000 0.0000
# 5 0.0000 0.0000 0.0000 0.0000 2.8136 0.0000
# 6 0.0000 0.0000 0.0000 0.0000 0.0000 -6.4437
#
#
#
# Elastic Compliance Matrix: (Units=1/GPa)
#
#
# Indices 1 2 3 4 5 6 
#
# 1 0.011152 -0.000759 -0.003728 0.000000 0.000000 0.000000
# 2 -0.000759 0.012921 0.002133 0.000000 0.000000 0.000000
# 3 -0.003728 0.002133 0.018162 0.000000 0.000000 0.000000
# 4 0.000000 0.000000 0.000000 -0.015395 0.000000 0.000000
# 5 0.000000 0.000000 0.000000 0.000000 0.355421 0.000000
# 6 0.000000 0.000000 0.000000 0.000000 0.000000 -0.155189
#
#
# Mechanical properties :
#
#
# Convention : Reuss Voigt Hill
#
# Bulk Modulus (GPa) = 26.64768 29.08261 27.86514
# Shear Modulus (GPa) = 20.46751 1.10035 10.78393
#
# Velocity S-wave (km/s) = 3.15552 0.73165 2.29048
# Velocity P-wave (km/s) = 5.12253 3.85516 4.53336
#
# Compressibility (1/GPa) = 0.03752673
#
# Stress axis : x y z
#
# Youngs Moduli (GPa) = 89.66728 77.39158 55.06056
#
# Poissons Ratio (x) = 0.05873 0.20528
# Poissons Ratio (y) = 0.06804 -0.11743
# Poissons Ratio (z) = 0.33430 -0.16505
#
# Static dielectric constant tensor:
#      x y z
#    x 1.731510 0.000000 0.000000 
#    y 0.000000 1.862190 0.000000 
#    z 0.000000 0.000000 1.705330 
# 
# From -- ./inp_files/8355.got.cif
#   From: 2010.05.17/outbox.cif.g08.bks.cpg/sg71_5_cif.got.tgz:8355.got - 2010.06.03 16:22:01.
