data_PCOD9518415
_publ_section_title
;
Structure prediction by ZEFSAII (Michael W. Deem and Ramdas Pophale) SiO2 
 PCOD9518415
Probable space group: I M M M
;
_chemical_formula_sum "Si O2"
_cell_formula_units_Z 88
_cell_length_a 18.908902
_cell_length_b 7.737404
_cell_length_c 29.400764
_cell_angle_alpha 90.000000
_cell_angle_beta 90.000000
_cell_angle_gamma 90.000000
_cell_volume 4301.502708
_symmetry_space_group_name_H-M "I M M M"
_symmetry_group_IT_number 71
_symmetry_cell_setting 'orthorhombic'
loop_
_space_group_symop_operation_xyz
x,y,z
-x,-y,z
x,-y,-z
-x,y,-z
-x,-y,-z
x,y,-z
-x,y,z
x,-y,z
1/2+x,1/2+y,1/2+z
1/2-x,1/2-y,1/2+z
1/2+x,1/2-y,1/2-z
1/2-x,1/2+y,1/2-z
1/2-x,1/2-y,1/2-z
1/2+x,1/2+y,1/2-z
1/2-x,1/2+y,1/2+z
1/2+x,1/2-y,1/2+z
loop_
_atom_site_type_symbol
_atom_site_label
_atom_site_fract_x
_atom_site_fract_y
_atom_site_fract_z
Si Si1 0.078831 0.208405 0.052228
Si Si2 0.789632 0.295861 0.884367
Si Si3 0.418907 0.211376 0.208291
Si Si4 0.814953 0.707815 0.217016
Si Si5 0.866580 0.294696 0.611526
Si Si6 0.500000 0.212218 0.052420
O O1 0.143294 0.261198 0.083965
O O2 0.000000 0.266825 0.067093
O O3 0.077647 0.000000 0.051694
O O4 0.089262 0.266562 0.000000
O O5 0.781939 0.500000 0.879877
O O6 0.803279 0.222019 0.833640
O O7 0.714065 0.233545 0.903098
O O8 0.500000 0.263469 0.204232
O O9 0.383012 0.270738 0.254929
O O10 0.377448 0.271337 0.163183
O O11 0.416895 0.000000 0.208587
O O12 0.820542 0.500000 0.213419
O O13 0.750000 0.750000 0.250000
O O14 0.877466 0.500000 0.613777
O O15 0.929241 0.229429 0.578962
O O16 0.500000 0.000000 0.052478
O O17 0.500000 0.266924 0.000000
#
# Coordination Sequence:
#
# PCOD9518415 Si02
#       6
#    16  16  16  16  16   8
#     4   9  20  41  66  87 108 141 186 232 279 334
#     4  11  23  35  53  86 121 151 182 224 282 342
#     4   9  16  29  51  75  97 134 189 232 265 314
#     4  10  20  33  51  76 108 146 184 224 267 316
#     4  10  18  32  55  77 102 146 192 233 279 327
#     4   9  18  32  53  83 109 131 181 249 292 321
#
# _framework density 20.457968000000001
#
# number of rings (size 3 to 8) (size 9 to 14) (size 15 to 20)
#    0.000    2.273    2.727    1.091    0.000    2.909 
#    0.000    5.000    0.000    2.182    0.000    0.000 
#    0.000    0.000    0.000    0.000    0.000    0.000 
#
# Total GULP energy -245525.239262 kJ/mol
# GULP energy per Si atom -5580.119074 kJ/mol
# Density = 2.041141 g / cm^3
# Si number density = 20.457968 Si / 1000 Ang^3
#
#
#
# Elastic Constant Matrix: (Units=GPa)
#
#
# Indices 1 2 3 4 5 6 
#
# 1 166.0169 -8.7537 85.0087 0.0000 0.0000 0.0000
# 2 -8.7537 25.6930 3.8477 0.0000 0.0000 0.0000
# 3 85.0087 3.8477 122.1097 0.0000 0.0000 0.0000
# 4 0.0000 0.0000 0.0000 12.0273 0.0000 0.0000
# 5 0.0000 0.0000 0.0000 0.0000 36.2511 0.0000
# 6 0.0000 0.0000 0.0000 0.0000 0.0000 9.1084
#
#
#
# Elastic Compliance Matrix: (Units=1/GPa)
#
#
# Indices 1 2 3 4 5 6 
#
# 1 0.009830 0.004395 -0.006982 0.000000 0.000000 0.000000
# 2 0.004395 0.041070 -0.004354 0.000000 0.000000 0.000000
# 3 -0.006982 -0.004354 0.013187 0.000000 0.000000 0.000000
# 4 0.000000 0.000000 0.000000 0.083144 0.000000 0.000000
# 5 0.000000 0.000000 0.000000 0.000000 0.027585 0.000000
# 6 0.000000 0.000000 0.000000 0.000000 0.000000 0.109789
#
#
# Mechanical properties :
#
#
# Convention : Reuss Voigt Hill
#
# Bulk Modulus (GPa) = 19.91787 52.66947 36.29367
# Shear Modulus (GPa) = 15.86179 27.05851 21.46015
#
# Velocity S-wave (km/s) = 2.78751 3.64076 3.24232
# Velocity P-wave (km/s) = 4.48524 6.59352 5.63879
#
# Compressibility (1/GPa) = 0.05020617
#
# Stress axis : x y z
#
# Youngs Moduli (GPa) = 101.72572 24.34844 75.83108
#
# Poissons Ratio (x) = -0.10701 0.52946
# Poissons Ratio (y) = -0.44707 0.33014
# Poissons Ratio (z) = 0.71025 0.10601
#
# Static dielectric constant tensor:
#      x y z
#    x 1.705360 0.000000 0.000000 
#    y 0.000000 1.759950 0.000000 
#    z 0.000000 0.000000 1.727150 
# 
# From -- ./inp_files/16650.got.cif
#   From: 2010.05.17/outbox.cif.g08.bks.cpg/sg71_9_cif.got.tgz:16650.got - 2010.06.03 16:22:01.
