data_PCOD9518568
_publ_section_title
;
Structure prediction by ZEFSAII (Michael W. Deem and Ramdas Pophale) SiO2 
 PCOD9518568
Probable space group: I M M M
;
_chemical_formula_sum "Si O2"
_cell_formula_units_Z 96
_cell_length_a 8.559876
_cell_length_b 25.232718
_cell_length_c 23.612577
_cell_angle_alpha 90.000000
_cell_angle_beta 90.000000
_cell_angle_gamma 90.000000
_cell_volume 5100.055411
_symmetry_space_group_name_H-M "I M M M"
_symmetry_group_IT_number 71
_symmetry_cell_setting 'orthorhombic'
loop_
_space_group_symop_operation_xyz
x,y,z
-x,-y,z
x,-y,-z
-x,y,-z
-x,-y,-z
x,y,-z
-x,y,z
x,-y,z
1/2+x,1/2+y,1/2+z
1/2-x,1/2-y,1/2+z
1/2+x,1/2-y,1/2-z
1/2-x,1/2+y,1/2-z
1/2-x,1/2-y,1/2-z
1/2+x,1/2+y,1/2-z
1/2-x,1/2+y,1/2+z
1/2+x,1/2-y,1/2+z
loop_
_atom_site_type_symbol
_atom_site_label
_atom_site_fract_x
_atom_site_fract_y
_atom_site_fract_z
Si Si1 0.322320 0.000000 0.167376
Si Si2 0.683453 0.749514 0.500000
Si Si3 0.188046 0.618686 0.195365
Si Si4 0.824377 0.097406 0.893920
Si Si5 0.178999 0.813913 0.800281
Si Si6 0.826185 0.362136 0.500000
Si Si7 0.321627 0.000000 0.302425
Si Si8 0.809489 0.718288 0.125128
O O1 0.230015 0.050706 0.146228
O O2 0.330125 0.000000 0.234578
O O3 0.500000 0.000000 0.145628
O O4 0.500000 0.763061 0.500000
O O5 0.705995 0.686415 0.500000
O O6 0.746418 0.769101 0.561250
O O7 0.240856 0.650259 0.252075
O O8 0.249162 0.558579 0.185531
O O9 0.226944 0.658856 0.144585
O O10 0.000000 0.613957 0.199760
O O11 0.823792 0.150435 0.856850
O O12 0.706101 0.103529 0.945029
O O13 0.000000 0.088202 0.915165
O O14 0.246846 0.758577 0.824838
O O15 0.000000 0.804669 0.781604
O O16 0.000000 0.339864 0.500000
O O17 0.500000 0.000000 0.325854
O O18 0.000000 0.724479 0.125021
#
# Coordination Sequence:
#
# PCOD9518568 Si02
#       8
#     8   8  16  16  16   8   8  16
#     4  11  21  36  54  77 106 141 184 226 269 312
#     4  10  18  36  57  76 104 140 178 219 263 317
#     4  10  19  33  52  77 106 140 175 212 264 321
#     4  11  22  37  56  76 104 142 183 224 266 315
#     4  10  19  32  51  78 105 134 172 217 265 315
#     4  12  24  37  55  80 105 139 182 223 268 315
#     4   9  18  31  50  75 107 140 169 211 264 315
#     4   9  18  32  54  78 103 137 177 214 261 320
#
# _framework density 18.823324
#
# number of rings (size 3 to 8) (size 9 to 14) (size 15 to 20)
#    0.000    1.833    3.333    2.000    0.000    1.000 
#    0.000    2.917    0.000    0.500    0.000    3.500 
#    0.000    0.000    0.000    2.250    0.000    2.500 
#
# Total GULP energy -267474.589105 kJ/mol
# GULP energy per Si atom -5572.387273 kJ/mol
# Density = 1.878048 g / cm^3
# Si number density = 18.823324 Si / 1000 Ang^3
#
#
#
# Elastic Constant Matrix: (Units=GPa)
#
#
# Indices 1 2 3 4 5 6 
#
# 1 19.8353 9.6890 4.9939 0.0000 0.0000 0.0000
# 2 9.6890 133.4511 10.5953 0.0000 0.0000 0.0000
# 3 4.9939 10.5953 27.6480 0.0000 0.0000 0.0000
# 4 0.0000 0.0000 0.0000 -10.0604 0.0000 0.0000
# 5 0.0000 0.0000 0.0000 0.0000 13.5458 0.0000
# 6 0.0000 0.0000 0.0000 0.0000 0.0000 15.3714
#
#
#
# Elastic Compliance Matrix: (Units=1/GPa)
#
#
# Indices 1 2 3 4 5 6 
#
# 1 0.054154 -0.003254 -0.008534 0.000000 0.000000 0.000000
# 2 -0.003254 0.007924 -0.002449 0.000000 0.000000 0.000000
# 3 -0.008534 -0.002449 0.038649 0.000000 0.000000 0.000000
# 4 0.000000 0.000000 0.000000 -0.099399 0.000000 0.000000
# 5 0.000000 0.000000 0.000000 0.000000 0.073823 0.000000
# 6 0.000000 0.000000 0.000000 0.000000 0.000000 0.065056
#
#
# Mechanical properties :
#
#
# Convention : Reuss Voigt Hill
#
# Bulk Modulus (GPa) = 13.84052 25.72122 19.78087
# Shear Modulus (GPa) = 25.93832 14.14845 20.04338
#
# Velocity S-wave (km/s) = 3.71615 2.74459 3.26669
# Velocity P-wave (km/s) = 5.07759 4.87216 4.97593
#
# Compressibility (1/GPa) = 0.07225162
#
# Stress axis : x y z
#
# Youngs Moduli (GPa) = 18.46601 126.19773 25.87395
#
# Poissons Ratio (x) = 0.41067 0.22082
# Poissons Ratio (y) = 0.06009 0.06336
# Poissons Ratio (z) = 0.15760 0.30904
#
# Static dielectric constant tensor:
#      x y z
#    x 1.683050 0.000000 0.000000 
#    y 0.000000 2.197270 0.000000 
#    z 0.000000 0.000000 1.646350 
# 
# From -- ./inp_files/57813.got.cif
#   From: 2010.05.17/outbox.cif.g08.bks.cpg/sg71_29_cif.got.tgz:57813.got - 2010.06.03 16:22:01.
