data_PCOD9518113
_publ_section_title
;
Structure prediction by ZEFSAII (Michael W. Deem and Ramdas Pophale) SiO2 
 PCOD9518113
Probable space group: I M M M
;
_chemical_formula_sum "Si O2"
_cell_formula_units_Z 72
_cell_length_a 16.373206
_cell_length_b 9.134927
_cell_length_c 22.722723
_cell_angle_alpha 90.000000
_cell_angle_beta 90.000000
_cell_angle_gamma 90.000000
_cell_volume 3398.593178
_symmetry_space_group_name_H-M "I M M M"
_symmetry_group_IT_number 71
_symmetry_cell_setting 'orthorhombic'
loop_
_space_group_symop_operation_xyz
x,y,z
-x,-y,z
x,-y,-z
-x,y,-z
-x,-y,-z
x,y,-z
-x,y,z
x,-y,z
1/2+x,1/2+y,1/2+z
1/2-x,1/2-y,1/2+z
1/2+x,1/2-y,1/2-z
1/2-x,1/2+y,1/2-z
1/2-x,1/2-y,1/2-z
1/2+x,1/2+y,1/2-z
1/2-x,1/2+y,1/2+z
1/2+x,1/2-y,1/2+z
loop_
_atom_site_type_symbol
_atom_site_label
_atom_site_fract_x
_atom_site_fract_y
_atom_site_fract_z
Si Si1 0.334548 0.332198 0.594016
Si Si2 0.500000 0.169482 0.927838
Si Si3 0.000000 0.180708 0.225837
Si Si4 0.670504 0.662979 0.264372
Si Si5 0.835158 0.166197 0.429512
Si Si6 0.500000 0.175693 0.403233
O O1 0.334552 0.500000 0.572405
O O2 0.339434 0.339681 0.665049
O O3 0.249330 0.251772 0.581335
O O4 0.415382 0.245390 0.572842
O O5 0.583268 0.250487 0.908656
O O6 0.500000 0.000000 0.909609
O O7 0.500000 0.170767 0.000000
O O8 0.083519 0.218190 0.258514
O O9 0.000000 0.271631 0.165117
O O10 0.000000 0.000000 0.215318
O O11 0.682343 0.500000 0.242194
O O12 0.750000 0.750000 0.250000
O O13 0.843210 0.157182 0.500000
O O14 0.830878 0.000000 0.406286
O O15 0.500000 0.000000 0.408642
#
# Coordination Sequence:
#
# PCOD9518113 Si02
#       6
#    16   8   8  16  16   8
#     4  10  20  35  53  74 102 136 171 206 249 303
#     4   9  17  31  52  75 100 135 173 204 244 303
#     4   8  16  32  49  68  97 132 166 199 242 300
#     4   9  18  32  51  73  98 129 165 205 246 293
#     4  10  20  34  53  78 105 132 167 212 255 294
#     4  10  18  30  51  76  99 128 167 209 252 299
#
# _framework density 21.185237000000001
#
# number of rings (size 3 to 8) (size 9 to 14) (size 15 to 20)
#    0.000    2.556    0.000    4.000    0.000    7.111 
#    0.000    1.667    0.000    8.667    0.000    0.000 
#    0.000    0.000    0.000    0.000    0.000    0.000 
#
# Total GULP energy -200793.369897 kJ/mol
# GULP energy per Si atom -5577.593608 kJ/mol
# Density = 2.113702 g / cm^3
# Si number density = 21.185237 Si / 1000 Ang^3
#
#
#
# Elastic Constant Matrix: (Units=GPa)
#
#
# Indices 1 2 3 4 5 6 
#
# 1 283.0010 139.9989 6.6997 0.0000 0.0000 0.0000
# 2 139.9989 181.1322 7.9300 0.0000 0.0000 0.0000
# 3 6.6997 7.9300 39.1983 0.0000 0.0000 0.0000
# 4 0.0000 0.0000 0.0000 15.2926 0.0000 0.0000
# 5 0.0000 0.0000 0.0000 0.0000 28.4422 0.0000
# 6 0.0000 0.0000 0.0000 0.0000 0.0000 46.1874
#
#
#
# Elastic Compliance Matrix: (Units=1/GPa)
#
#
# Indices 1 2 3 4 5 6 
#
# 1 0.005721 -0.004418 -0.000084 0.000000 0.000000 0.000000
# 2 -0.004418 0.008982 -0.001062 0.000000 0.000000 0.000000
# 3 -0.000084 -0.001062 0.025740 0.000000 0.000000 0.000000
# 4 0.000000 0.000000 0.000000 0.065391 0.000000 0.000000
# 5 0.000000 0.000000 0.000000 0.000000 0.035159 0.000000
# 6 0.000000 0.000000 0.000000 0.000000 0.000000 0.021651
#
#
# Mechanical properties :
#
#
# Convention : Reuss Voigt Hill
#
# Bulk Modulus (GPa) = 34.11181 90.28764 62.19972
# Shear Modulus (GPa) = 27.24117 41.23130 34.23623
#
# Velocity S-wave (km/s) = 3.58977 4.41639 4.02436
# Velocity P-wave (km/s) = 5.77223 8.28956 7.14267
#
# Compressibility (1/GPa) = 0.02931536
#
# Stress axis : x y z
#
# Youngs Moduli (GPa) = 174.78612 111.32989 38.84931
#
# Poissons Ratio (x) = 0.49189 0.00326
# Poissons Ratio (y) = 0.77227 0.04126
# Poissons Ratio (z) = 0.01468 0.11823
#
# Static dielectric constant tensor:
#      x y z
#    x 1.816060 0.000000 0.000000 
#    y 0.000000 1.744360 0.000000 
#    z 0.000000 0.000000 1.820310 
# 
# From -- ./inp_files/6526.got.cif
#   From: 2010.05.17/outbox.cif.g08.bks.cpg/sg71_4_cif.got.tgz:6526.got - 2010.06.03 16:22:01.
