data_PCOD9518680
_publ_section_title
;
Structure prediction by ZEFSAII (Michael W. Deem and Ramdas Pophale) SiO2 
 PCOD9518680
Probable space group: I M M M
;
_chemical_formula_sum "Si O2"
_cell_formula_units_Z 96
_cell_length_a 15.634699
_cell_length_b 13.791806
_cell_length_c 28.447905
_cell_angle_alpha 90.000000
_cell_angle_beta 90.000000
_cell_angle_gamma 90.000000
_cell_volume 6134.242678
_symmetry_space_group_name_H-M "I M M M"
_symmetry_group_IT_number 71
_symmetry_cell_setting 'orthorhombic'
loop_
_space_group_symop_operation_xyz
x,y,z
-x,-y,z
x,-y,-z
-x,y,-z
-x,-y,-z
x,y,-z
-x,y,z
x,-y,z
1/2+x,1/2+y,1/2+z
1/2-x,1/2-y,1/2+z
1/2+x,1/2-y,1/2-z
1/2-x,1/2+y,1/2-z
1/2-x,1/2-y,1/2-z
1/2+x,1/2+y,1/2-z
1/2-x,1/2+y,1/2+z
1/2+x,1/2-y,1/2+z
loop_
_atom_site_type_symbol
_atom_site_label
_atom_site_fract_x
_atom_site_fract_y
_atom_site_fract_z
Si Si1 0.603794 0.389171 0.100665
Si Si2 0.401006 0.613834 0.278426
Si Si3 0.902607 0.118027 0.500000
Si Si4 0.100789 0.248782 0.312665
Si Si5 0.753773 0.384341 0.346427
Si Si6 0.500000 0.108727 0.943286
Si Si7 0.812466 0.618897 0.553970
O O1 0.500000 0.390524 0.095857
O O2 0.630400 0.500000 0.109351
O O3 0.622828 0.322788 0.144388
O O4 0.638735 0.357087 0.049711
O O5 0.500000 0.622384 0.293607
O O6 0.388427 0.500000 0.264427
O O7 0.388518 0.686311 0.234769
O O8 0.333884 0.637420 0.319283
O O9 0.000000 0.158165 0.500000
O O10 0.909048 0.000000 0.500000
O O11 0.167145 0.335743 0.318973
O O12 0.000000 0.276706 0.316387
O O13 0.765395 0.500000 0.345845
O O14 0.754305 0.354688 0.401632
O O15 0.591270 0.152646 0.931657
O O16 0.500000 0.000000 0.923224
O O17 0.500000 0.101726 0.000000
O O18 0.793682 0.649489 0.500000
O O19 0.816136 0.500000 0.551862
#
# Coordination Sequence:
#
# PCOD9518680 Si02
#       7
#    16  16   8  16  16   8  16
#     4   8  13  23  39  58  82 114 149 181 211 243
#     4   9  18  34  53  67  80 105 148 198 238 267
#     4   7  10  18  34  54  79 111 144 179 213 241
#     4  10  19  29  43  66  92 118 146 177 216 265
#     4  10  20  31  45  65  90 120 150 182 219 262
#     4   7  10  18  34  52  72 108 147 165 181 222
#     4   8  14  25  40  57  82 117 149 173 200 240
#
# _framework density 15.649853
#
# number of rings (size 3 to 8) (size 9 to 14) (size 15 to 20)
#    0.000    3.333    0.000    3.000    1.167    2.333 
#    1.500    0.000    0.000    0.500    0.000    3.500 
#    0.000    0.000    0.000    0.000    0.000    4.667 
#
# Total GULP energy -267237.194351 kJ/mol
# GULP energy per Si atom -5567.441549 kJ/mol
# Density = 1.561423 g / cm^3
# Si number density = 15.649853 Si / 1000 Ang^3
#
#
#
# Elastic Constant Matrix: (Units=GPa)
#
#
# Indices 1 2 3 4 5 6 
#
# 1 64.8214 26.6897 64.9893 0.0000 0.0000 0.0000
# 2 26.6897 43.0670 31.3311 0.0000 0.0000 0.0000
# 3 64.9893 31.3311 120.7429 0.0000 0.0000 0.0000
# 4 0.0000 0.0000 0.0000 14.9752 0.0000 0.0000
# 5 0.0000 0.0000 0.0000 0.0000 25.2143 0.0000
# 6 0.0000 0.0000 0.0000 0.0000 0.0000 16.0360
#
#
#
# Elastic Compliance Matrix: (Units=1/GPa)
#
#
# Indices 1 2 3 4 5 6 
#
# 1 0.036931 -0.010387 -0.017183 0.000000 0.000000 0.000000
# 2 -0.010387 0.031544 -0.002595 0.000000 0.000000 0.000000
# 3 -0.017183 -0.002595 0.018204 0.000000 0.000000 0.000000
# 4 0.000000 0.000000 0.000000 0.066777 0.000000 0.000000
# 5 0.000000 0.000000 0.000000 0.000000 0.039660 0.000000
# 6 0.000000 0.000000 0.000000 0.000000 0.000000 0.062360
#
#
# Mechanical properties :
#
#
# Convention : Reuss Voigt Hill
#
# Bulk Modulus (GPa) = 37.94952 52.73906 45.34429
# Shear Modulus (GPa) = 15.40421 18.28652 16.84536
#
# Velocity S-wave (km/s) = 3.14076 3.42201 3.28440
# Velocity P-wave (km/s) = 6.11999 7.02752 6.58940
#
# Compressibility (1/GPa) = 0.02635080
#
# Stress axis : x y z
#
# Youngs Moduli (GPa) = 27.07774 31.70169 54.93349
#
# Poissons Ratio (x) = 0.32927 0.94390
# Poissons Ratio (y) = 0.28124 0.14254
# Poissons Ratio (z) = 0.46527 0.08226
#
# Static dielectric constant tensor:
#      x y z
#    x 1.501310 0.000000 0.000000 
#    y 0.000000 1.572380 0.000000 
#    z 0.000000 0.000000 1.555830 
# 
# From -- ./inp_files/65460.got.cif
#   From: 2010.05.17/outbox.cif.g08.bks.cpg/sg71_33_cif.got.tgz:65460.got - 2010.06.03 16:22:01.
