data_PCOD9518135
_publ_section_title
;
Structure prediction by ZEFSAII (Michael W. Deem and Ramdas Pophale) SiO2 
 PCOD9518135
Probable space group: I M M M
;
_chemical_formula_sum "Si O2"
_cell_formula_units_Z 104
_cell_length_a 27.166503
_cell_length_b 18.919592
_cell_length_c 11.764666
_cell_angle_alpha 90.000000
_cell_angle_beta 90.000000
_cell_angle_gamma 90.000000
_cell_volume 6046.793064
_symmetry_space_group_name_H-M "I M M M"
_symmetry_group_IT_number 71
_symmetry_cell_setting 'orthorhombic'
loop_
_space_group_symop_operation_xyz
x,y,z
-x,-y,z
x,-y,-z
-x,y,-z
-x,-y,-z
x,y,-z
-x,y,z
x,-y,z
1/2+x,1/2+y,1/2+z
1/2-x,1/2-y,1/2+z
1/2+x,1/2-y,1/2-z
1/2-x,1/2+y,1/2-z
1/2-x,1/2-y,1/2-z
1/2+x,1/2+y,1/2-z
1/2-x,1/2+y,1/2+z
1/2+x,1/2-y,1/2+z
loop_
_atom_site_type_symbol
_atom_site_label
_atom_site_fract_x
_atom_site_fract_y
_atom_site_fract_z
Si Si1 0.119673 0.921055 0.000000
Si Si2 0.441458 0.723902 0.500000
Si Si3 0.098049 0.163087 0.635109
Si Si4 0.441551 0.794169 0.259096
Si Si5 0.107199 0.415543 0.366264
Si Si6 0.779210 0.414159 0.370893
Si Si7 0.000000 0.081066 0.638614
Si Si8 0.680489 0.581873 0.265781
O O1 0.085021 0.852287 0.000000
O O2 0.153837 0.917792 0.888550
O O3 0.095739 0.000000 0.000000
O O4 0.500000 0.711474 0.500000
O O5 0.429671 0.769217 0.387119
O O6 0.098866 0.159973 0.500000
O O7 0.088488 0.241750 0.677549
O O8 0.049891 0.119228 0.676946
O O9 0.147008 0.128861 0.684986
O O10 0.500000 0.784445 0.242042
O O11 0.426359 0.872101 0.219961
O O12 0.096890 0.399186 0.500000
O O13 0.101977 0.500000 0.353778
O O14 0.164491 0.396491 0.343407
O O15 0.769145 0.389780 0.500000
O O16 0.776510 0.500000 0.373379
O O17 0.736030 0.391575 0.286428
O O18 0.000000 0.082721 0.500000
O O19 0.000000 0.000000 0.675032
O O20 0.681234 0.500000 0.226211
#
# Coordination Sequence:
#
# PCOD9518135 Si02
#       8
#     8   8  16  16  16  16   8  16
#     4  10  18  31  54  81 103 140 193 235 263 296
#     4  10  22  39  55  76 108 149 183 217 269 326
#     4  11  21  32  49  74 108 149 185 221 267 325
#     4  11  22  38  58  78 108 145 177 218 276 332
#     4   9  19  36  61  90 111 132 172 225 276 331
#     4   8  14  29  54  81 107 136 174 221 273 321
#     4   9  18  32  46  65  98 144 189 219 251 304
#     4  10  18  30  52  78 107 143 185 229 266 308
#
# _framework density 17.199199
#
# number of rings (size 3 to 8) (size 9 to 14) (size 15 to 20)
#    0.000    2.231    3.077    1.846    0.000    2.308 
#    0.000    1.923    1.692    1.385    0.000    0.000 
#    0.000    0.000    0.000    0.000    0.000    0.000 
#
# Total GULP energy -289905.857550 kJ/mol
# GULP energy per Si atom -5575.112645 kJ/mol
# Density = 1.716005 g / cm^3
# Si number density = 17.199199 Si / 1000 Ang^3
#
#
#
# Elastic Constant Matrix: (Units=GPa)
#
#
# Indices 1 2 3 4 5 6 
#
# 1 45.7779 25.4957 30.0454 0.0000 0.0000 0.0000
# 2 25.4957 65.5528 31.9921 0.0000 0.0000 0.0000
# 3 30.0454 31.9921 65.8269 0.0000 0.0000 0.0000
# 4 0.0000 0.0000 0.0000 22.9125 0.0000 0.0000
# 5 0.0000 0.0000 0.0000 0.0000 27.7688 0.0000
# 6 0.0000 0.0000 0.0000 0.0000 0.0000 8.4926
#
#
#
# Elastic Compliance Matrix: (Units=1/GPa)
#
#
# Indices 1 2 3 4 5 6 
#
# 1 0.033680 -0.007337 -0.011807 0.000000 0.000000 0.000000
# 2 -0.007337 0.021597 -0.007147 0.000000 0.000000 0.000000
# 3 -0.011807 -0.007147 0.024054 0.000000 0.000000 0.000000
# 4 0.000000 0.000000 0.000000 0.043644 0.000000 0.000000
# 5 0.000000 0.000000 0.000000 0.000000 0.036012 0.000000
# 6 0.000000 0.000000 0.000000 0.000000 0.000000 0.117750
#
#
# Mechanical properties :
#
#
# Convention : Reuss Voigt Hill
#
# Bulk Modulus (GPa) = 37.38531 39.13601 38.26066
# Shear Modulus (GPa) = 14.78263 17.80974 16.29619
#
# Velocity S-wave (km/s) = 2.93490 3.22141 3.08148
# Velocity P-wave (km/s) = 5.76790 6.05315 5.91224
#
# Compressibility (1/GPa) = 0.02674847
#
# Stress axis : x y z
#
# Youngs Moduli (GPa) = 29.69107 46.30358 41.57349
#
# Poissons Ratio (x) = 0.33974 0.49085
# Poissons Ratio (y) = 0.21785 0.29713
# Poissons Ratio (z) = 0.35055 0.33094
#
# Static dielectric constant tensor:
#      x y z
#    x 1.591010 0.000000 0.000000 
#    y 0.000000 1.592260 0.000000 
#    z 0.000000 0.000000 1.577450 
# 
# From -- ./inp_files/28939.got.cif
#   From: 2010.05.17/outbox.cif.g08.bks.cpg/sg71_15_cif.got.tgz:28939.got - 2010.06.03 16:22:01.
