data_PCOD9518014
_publ_section_title
;
Structure prediction by ZEFSAII (Michael W. Deem and Ramdas Pophale) SiO2 
 PCOD9518014
Probable space group: I M M M
;
_chemical_formula_sum "Si O2"
_cell_formula_units_Z 88
_cell_length_a 19.166229
_cell_length_b 16.642828
_cell_length_c 13.822516
_cell_angle_alpha 90.000000
_cell_angle_beta 90.000000
_cell_angle_gamma 90.000000
_cell_volume 4409.109646
_symmetry_space_group_name_H-M "I M M M"
_symmetry_group_IT_number 71
_symmetry_cell_setting 'orthorhombic'
loop_
_space_group_symop_operation_xyz
x,y,z
-x,-y,z
x,-y,-z
-x,y,-z
-x,-y,-z
x,y,-z
-x,y,z
x,-y,z
1/2+x,1/2+y,1/2+z
1/2-x,1/2-y,1/2+z
1/2+x,1/2-y,1/2-z
1/2-x,1/2+y,1/2-z
1/2-x,1/2-y,1/2-z
1/2+x,1/2+y,1/2-z
1/2-x,1/2+y,1/2+z
1/2+x,1/2-y,1/2+z
loop_
_atom_site_type_symbol
_atom_site_label
_atom_site_fract_x
_atom_site_fract_y
_atom_site_fract_z
Si Si1 0.500000 0.414587 0.167206
Si Si2 0.582817 0.000000 0.117463
Si Si3 0.146696 0.088408 0.228935
Si Si4 0.000000 0.256983 0.607470
Si Si5 0.206324 0.234708 0.884115
Si Si6 0.231646 0.410832 0.885275
Si Si7 0.858189 0.329073 0.382011
O O1 0.500000 0.500000 0.115431
O O2 0.568495 0.410726 0.232703
O O3 0.500000 0.337641 0.101176
O O4 0.626571 0.078898 0.146395
O O5 0.500000 0.000000 0.148002
O O6 0.580086 0.000000 0.000000
O O7 0.160741 0.165122 0.163057
O O8 0.198889 0.092507 0.320639
O O9 0.160181 0.000000 0.182392
O O10 0.927332 0.283334 0.653435
O O11 0.000000 0.295123 0.500000
O O12 0.190726 0.328405 0.861712
O O13 0.285964 0.212296 0.852915
O O14 0.202486 0.226962 0.000000
O O15 0.199527 0.500000 0.869376
O O16 0.248788 0.405911 0.000000
O O17 0.856560 0.325917 0.500000
#
# Coordination Sequence:
#
# PCOD9518014 Si02
#       7
#     8   8  16   8  16  16  16
#     4  10  22  37  50  67  94 134 177 215 262 310
#     4   9  14  24  40  60  96 139 164 190 237 299
#     4  10  21  36  53  75 105 139 176 220 266 309
#     4  10  18  30  48  73 102 131 165 205 252 307
#     4  10  20  33  53  80 106 136 176 219 262 309
#     4   9  18  34  55  79 108 139 170 207 255 315
#     4   9  17  27  43  70 102 134 167 199 243 307
#
# _framework density 19.958679
#
# number of rings (size 3 to 8) (size 9 to 14) (size 15 to 20)
#    0.000    2.455    0.909    1.636    1.273    2.727 
#    0.000    2.273    0.000    1.636    0.000    0.000 
#    0.000    2.909    0.000    0.000    0.000    1.091 
#
# Total GULP energy -245306.103886 kJ/mol
# GULP energy per Si atom -5575.138725 kJ/mol
# Density = 1.991325 g / cm^3
# Si number density = 19.958679 Si / 1000 Ang^3
#
#
#
# Elastic Constant Matrix: (Units=GPa)
#
#
# Indices 1 2 3 4 5 6 
#
# 1 43.6078 37.0872 -0.1889 0.0000 0.0000 0.0000
# 2 37.0872 204.0977 38.3888 0.0000 0.0000 0.0000
# 3 -0.1889 38.3888 50.8096 0.0000 0.0000 0.0000
# 4 0.0000 0.0000 0.0000 29.0544 0.0000 0.0000
# 5 0.0000 0.0000 0.0000 0.0000 -9.6573 0.0000
# 6 0.0000 0.0000 0.0000 0.0000 0.0000 18.2334
#
#
#
# Elastic Compliance Matrix: (Units=1/GPa)
#
#
# Indices 1 2 3 4 5 6 
#
# 1 0.028018 -0.005958 0.004605 0.000000 0.000000 0.000000
# 2 -0.005958 0.006978 -0.005294 0.000000 0.000000 0.000000
# 3 0.004605 -0.005294 0.023699 0.000000 0.000000 0.000000
# 4 0.000000 0.000000 0.000000 0.034418 0.000000 0.000000
# 5 0.000000 0.000000 0.000000 0.000000 -0.103549 0.000000
# 6 0.000000 0.000000 0.000000 0.000000 0.000000 0.054844
#
#
# Mechanical properties :
#
#
# Convention : Reuss Voigt Hill
#
# Bulk Modulus (GPa) = 22.02555 49.89883 35.96219
# Shear Modulus (GPa) = 68.64792 22.40797 45.52795
#
# Velocity S-wave (km/s) = 5.87109 3.35433 4.78128
# Velocity P-wave (km/s) = 7.55110 6.32909 6.96694
#
# Compressibility (1/GPa) = 0.04540181
#
# Stress axis : x y z
#
# Youngs Moduli (GPa) = 35.69096 143.30792 42.19669
#
# Poissons Ratio (x) = 0.85376 -0.19433
# Poissons Ratio (y) = 0.21263 0.22340
# Poissons Ratio (z) = -0.16437 0.75872
#
# Static dielectric constant tensor:
#      x y z
#    x 1.684380 0.000000 0.000000 
#    y 0.000000 1.773910 0.000000 
#    z 0.000000 0.000000 1.717040 
# 
# From -- ./inp_files/38027.got.cif
#   From: 2010.05.17/outbox.cif.g08.bks.cpg/sg71_20_cif.got.tgz:38027.got - 2010.06.03 16:22:01.
