data_PCOD9518402
_publ_section_title
;
Structure prediction by ZEFSAII (Michael W. Deem and Ramdas Pophale) SiO2 
 PCOD9518402
Probable space group: I M M M
;
_chemical_formula_sum "Si O2"
_cell_formula_units_Z 104
_cell_length_a 15.237977
_cell_length_b 14.525714
_cell_length_c 22.157694
_cell_angle_alpha 90.000000
_cell_angle_beta 90.000000
_cell_angle_gamma 90.000000
_cell_volume 4904.439292
_symmetry_space_group_name_H-M "I M M M"
_symmetry_group_IT_number 71
_symmetry_cell_setting 'orthorhombic'
loop_
_space_group_symop_operation_xyz
x,y,z
-x,-y,z
x,-y,-z
-x,y,-z
-x,-y,-z
x,y,-z
-x,y,z
x,-y,z
1/2+x,1/2+y,1/2+z
1/2-x,1/2-y,1/2+z
1/2+x,1/2-y,1/2-z
1/2-x,1/2+y,1/2-z
1/2-x,1/2-y,1/2-z
1/2+x,1/2+y,1/2-z
1/2-x,1/2+y,1/2+z
1/2+x,1/2-y,1/2+z
loop_
_atom_site_type_symbol
_atom_site_label
_atom_site_fract_x
_atom_site_fract_y
_atom_site_fract_z
Si Si1 0.349274 0.780843 0.748757
Si Si2 0.394360 0.789615 0.119510
Si Si3 0.106951 0.101242 0.429500
Si Si4 0.107684 0.786813 0.932876
Si Si5 0.107616 0.394524 0.500000
Si Si6 0.606082 0.895883 0.631078
Si Si7 0.397285 0.602449 0.317186
O O1 0.250000 0.750000 0.750000
O O2 0.371916 0.821650 0.813795
O O3 0.369686 0.852734 0.695897
O O4 0.394305 0.682759 0.732938
O O5 0.500000 0.788569 0.115679
O O6 0.361566 0.685002 0.110884
O O7 0.362694 0.845789 0.061520
O O8 0.128844 0.116872 0.500000
O O9 0.000000 0.100534 0.427207
O O10 0.137319 0.000000 0.411077
O O11 0.134098 0.681927 0.916955
O O12 0.140471 0.852309 0.878724
O O13 0.000000 0.788634 0.931864
O O14 0.135756 0.813479 0.000000
O O15 0.133815 0.500000 0.500000
O O16 0.000000 0.390521 0.500000
O O17 0.500000 0.899019 0.628499
O O18 0.638570 0.000000 0.622122
O O19 0.500000 0.590777 0.329261
O O20 0.361455 0.500000 0.302790
#
# Coordination Sequence:
#
# PCOD9518402 Si02
#       7
#    16  16  16  16   8  16  16
#     4  11  23  36  52  75 108 150 184 223 269 328
#     4  10  18  32  54  78 103 135 177 224 274 323
#     4   8  13  23  43  73 103 125 150 194 252 309
#     4   8  14  26  48  80 109 131 164 214 272 324
#     4   9  18  32  53  83 109 129 169 232 286 326
#     4   9  18  34  55  78 104 136 180 231 276 320
#     4   9  18  34  55  79 108 139 177 226 271 316
#
# _framework density 21.205279000000001
#
# number of rings (size 3 to 8) (size 9 to 14) (size 15 to 20)
#    0.000    2.846    0.769    2.769    0.000    2.462 
#    0.000    6.154    6.769    0.000    0.000    0.000 
#    0.000    0.000    0.000    0.000    0.000    0.000 
#
# Total GULP energy -289922.462213 kJ/mol
# GULP energy per Si atom -5575.431966 kJ/mol
# Density = 2.115701 g / cm^3
# Si number density = 21.205279 Si / 1000 Ang^3
#
#
#
# Elastic Constant Matrix: (Units=GPa)
#
#
# Indices 1 2 3 4 5 6 
#
# 1 22.5056 6.1011 -2.1720 0.0000 0.0000 0.0000
# 2 6.1011 72.7199 12.6300 0.0000 0.0000 0.0000
# 3 -2.1720 12.6300 101.4239 0.0000 0.0000 0.0000
# 4 0.0000 0.0000 0.0000 4.4719 0.0000 0.0000
# 5 0.0000 0.0000 0.0000 0.0000 -5.3192 0.0000
# 6 0.0000 0.0000 0.0000 0.0000 0.0000 -0.6335
#
#
#
# Elastic Compliance Matrix: (Units=1/GPa)
#
#
# Indices 1 2 3 4 5 6 
#
# 1 0.045686 -0.004091 0.001488 0.000000 0.000000 0.000000
# 2 -0.004091 0.014422 -0.001884 0.000000 0.000000 0.000000
# 3 0.001488 -0.001884 0.010126 0.000000 0.000000 0.000000
# 4 0.000000 0.000000 0.000000 0.223619 0.000000 0.000000
# 5 0.000000 0.000000 0.000000 0.000000 -0.187999 0.000000
# 6 0.000000 0.000000 0.000000 0.000000 0.000000 -1.578434
#
#
# Mechanical properties :
#
#
# Convention : Reuss Voigt Hill
#
# Bulk Modulus (GPa) = 16.32391 25.52974 20.92682
# Shear Modulus (GPa) = -3.46456 11.70986 4.12265
#
# Velocity S-wave (km/s) = -1.27960 2.35247 1.39584
# Velocity P-wave (km/s) = 2.35194 4.40957 3.53383
#
# Compressibility (1/GPa) = 0.06125984
#
# Stress axis : x y z
#
# Youngs Moduli (GPa) = 21.88845 69.33953 98.75550
#
# Poissons Ratio (x) = 0.28370 -0.14694
# Poissons Ratio (y) = 0.08956 0.18601
# Poissons Ratio (z) = -0.03257 0.13060
#
# Static dielectric constant tensor:
#      x y z
#    x 1.470580 0.000000 0.000000 
#    y 0.000000 1.918260 0.000000 
#    z 0.000000 0.000000 1.799340 
# 
# From -- ./inp_files/54128.got.cif
#   From: 2010.05.17/outbox.cif.g08.bks.cpg/sg71_28_cif.got.tgz:54128.got - 2010.06.03 16:22:01.
