data_PCOD9518521
_publ_section_title
;
Structure prediction by ZEFSAII (Michael W. Deem and Ramdas Pophale) SiO2 
 PCOD9518521
Probable space group: I M M M
;
_chemical_formula_sum "Si O2"
_cell_formula_units_Z 104
_cell_length_a 17.846896
_cell_length_b 14.642742
_cell_length_c 21.445295
_cell_angle_alpha 90.000000
_cell_angle_beta 90.000000
_cell_angle_gamma 90.000000
_cell_volume 5604.245192
_symmetry_space_group_name_H-M "I M M M"
_symmetry_group_IT_number 71
_symmetry_cell_setting 'orthorhombic'
loop_
_space_group_symop_operation_xyz
x,y,z
-x,-y,z
x,-y,-z
-x,y,-z
-x,-y,-z
x,y,-z
-x,y,z
x,-y,z
1/2+x,1/2+y,1/2+z
1/2-x,1/2-y,1/2+z
1/2+x,1/2-y,1/2-z
1/2-x,1/2+y,1/2-z
1/2-x,1/2-y,1/2-z
1/2+x,1/2+y,1/2-z
1/2-x,1/2+y,1/2+z
1/2+x,1/2-y,1/2+z
loop_
_atom_site_type_symbol
_atom_site_label
_atom_site_fract_x
_atom_site_fract_y
_atom_site_fract_z
Si Si1 0.918503 0.389151 0.000000
Si Si2 0.411676 0.674323 0.290701
Si Si3 0.173268 0.758235 0.569246
Si Si4 0.911493 0.101314 0.653874
Si Si5 0.810436 0.330341 0.237329
Si Si6 0.262082 0.603798 0.356737
Si Si7 0.200084 0.606083 0.097265
O O1 0.875661 0.363534 0.936959
O O2 0.922872 0.500000 0.000000
O O3 0.000000 0.348673 0.000000
O O4 0.500000 0.667407 0.308905
O O5 0.399891 0.614861 0.227853
O O6 0.389151 0.777290 0.269354
O O7 0.345523 0.642822 0.338558
O O8 0.141890 0.741020 0.500000
O O9 0.118395 0.809418 0.617774
O O10 0.216918 0.670805 0.596982
O O11 0.236276 0.835521 0.565821
O O12 0.000000 0.098455 0.643014
O O13 0.880696 0.000000 0.635763
O O14 0.750000 0.250000 0.250000
O O15 0.790625 0.394731 0.294760
O O16 0.796969 0.375903 0.170767
O O17 0.269908 0.500000 0.378932
O O18 0.209230 0.500000 0.084787
#
# Coordination Sequence:
#
# PCOD9518521 Si02
#       7
#     8  16  16  16  16  16  16
#     4   9  20  36  52  76 114 154 190 227 272 338
#     4  10  19  35  61  90 121 154 186 232 297 356
#     4  12  23  38  58  83 112 153 202 243 289 346
#     4  10  21  37  60  92 124 149 179 231 301 368
#     4  10  18  34  55  83 112 148 190 235 286 339
#     4  11  22  39  60  83 115 155 200 249 292 334
#     4  11  20  33  55  83 112 148 191 231 283 348
#
# _framework density 18.557361
#
# number of rings (size 3 to 8) (size 9 to 14) (size 15 to 20)
#    0.000    1.462    5.385    2.308    0.000    3.077 
#    0.000    0.769    0.000    2.769    0.000    2.154 
#    0.000    0.000    0.000    0.000    0.000    0.000 
#
# Total GULP energy -289555.529073 kJ/mol
# GULP energy per Si atom -5568.375559 kJ/mol
# Density = 1.851512 g / cm^3
# Si number density = 18.557361 Si / 1000 Ang^3
#
#
#
# Elastic Constant Matrix: (Units=GPa)
#
#
# Indices 1 2 3 4 5 6 
#
# 1 63.7593 20.3708 0.6492 0.0000 0.0000 0.0000
# 2 20.3708 89.0717 8.4105 0.0000 0.0000 0.0000
# 3 0.6492 8.4105 59.9516 0.0000 0.0000 0.0000
# 4 0.0000 0.0000 0.0000 52.6237 0.0000 0.0000
# 5 0.0000 0.0000 0.0000 0.0000 22.0724 0.0000
# 6 0.0000 0.0000 0.0000 0.0000 0.0000 19.0040
#
#
#
# Elastic Compliance Matrix: (Units=1/GPa)
#
#
# Indices 1 2 3 4 5 6 
#
# 1 0.016928 -0.003906 0.000365 0.000000 0.000000 0.000000
# 2 -0.003906 0.012279 -0.001680 0.000000 0.000000 0.000000
# 3 0.000365 -0.001680 0.016912 0.000000 0.000000 0.000000
# 4 0.000000 0.000000 0.000000 0.019003 0.000000 0.000000
# 5 0.000000 0.000000 0.000000 0.000000 0.045305 0.000000
# 6 0.000000 0.000000 0.000000 0.000000 0.000000 0.052621
#
#
# Mechanical properties :
#
#
# Convention : Reuss Voigt Hill
#
# Bulk Modulus (GPa) = 28.03021 30.18264 29.10642
# Shear Modulus (GPa) = 26.97122 30.96350 28.96736
#
# Velocity S-wave (km/s) = 3.81648 4.08920 3.95519
# Velocity P-wave (km/s) = 5.87862 6.21250 6.04786
#
# Compressibility (1/GPa) = 0.03567580
#
# Stress axis : x y z
#
# Youngs Moduli (GPa) = 59.07300 81.44077 59.13000
#
# Poissons Ratio (x) = 0.31810 -0.02156
# Poissons Ratio (y) = 0.23074 0.09936
# Poissons Ratio (z) = -0.02154 0.13684
#
# Static dielectric constant tensor:
#      x y z
#    x 1.693400 0.000000 0.000000 
#    y 0.000000 1.676410 0.000000 
#    z 0.000000 0.000000 1.709960 
# 
# From -- ./inp_files/54148.got.cif
#   From: 2010.05.17/outbox.cif.g08.bks.cpg/sg71_28_cif.got.tgz:54148.got - 2010.06.03 16:22:01.
