data_PCOD9518959
_publ_section_title
;
Structure prediction by ZEFSAII (Michael W. Deem and Ramdas Pophale) SiO2 
 PCOD9518959
Probable space group: I M M M
;
_chemical_formula_sum "Si O2"
_cell_formula_units_Z 88
_cell_length_a 7.703380
_cell_length_b 29.559519
_cell_length_c 19.168419
_cell_angle_alpha 90.000000
_cell_angle_beta 90.000000
_cell_angle_gamma 90.000000
_cell_volume 4364.806331
_symmetry_space_group_name_H-M "I M M M"
_symmetry_group_IT_number 71
_symmetry_cell_setting 'orthorhombic'
loop_
_space_group_symop_operation_xyz
x,y,z
-x,-y,z
x,-y,-z
-x,y,-z
-x,-y,-z
x,y,-z
-x,y,z
x,-y,z
1/2+x,1/2+y,1/2+z
1/2-x,1/2-y,1/2+z
1/2+x,1/2-y,1/2-z
1/2-x,1/2+y,1/2-z
1/2-x,1/2-y,1/2-z
1/2+x,1/2+y,1/2-z
1/2-x,1/2+y,1/2+z
1/2+x,1/2-y,1/2+z
loop_
_atom_site_type_symbol
_atom_site_label
_atom_site_fract_x
_atom_site_fract_y
_atom_site_fract_z
Si Si1 0.205380 0.000000 0.269139
Si Si2 0.204966 0.818831 0.286967
Si Si3 0.788224 0.052552 0.500000
Si Si4 0.790672 0.500000 0.608153
Si Si5 0.786648 0.912078 0.649139
Si Si6 0.793398 0.773902 0.854015
Si Si7 0.293485 0.178747 0.000000
Si Si8 0.712126 0.075377 0.000000
O O1 0.232169 0.000000 0.187051
O O2 0.273134 0.045649 0.304314
O O3 0.000000 0.000000 0.283719
O O4 0.276422 0.864855 0.319293
O O5 0.276007 0.804020 0.211051
O O6 0.226186 0.776590 0.339236
O O7 0.000000 0.826304 0.276857
O O8 0.733056 0.077817 0.429935
O O9 0.000000 0.051639 0.500000
O O10 0.732715 0.000000 0.500000
O O11 0.733905 0.455070 0.566289
O O12 0.000000 0.500000 0.606433
O O13 0.000000 0.911141 0.649310
O O14 0.000000 0.771328 0.846602
O O15 0.755771 0.794978 0.929290
O O16 0.500000 0.175517 0.000000
O O17 0.224688 0.126952 0.000000
O O18 0.500000 0.076491 0.000000
#
# Coordination Sequence:
#
# PCOD9518959 Si02
#       8
#     8  16   8   8  16  16   8   8
#     4  10  19  30  49  80 113 140 172 222 270 312
#     4   9  19  36  56  78 107 143 180 221 268 322
#     4   9  14  25  44  69 102 134 163 201 250 303
#     4   9  18  36  55  73 104 142 182 221 262 316
#     4   9  17  29  48  76 108 140 176 217 262 311
#     4  10  21  37  55  78 110 141 176 225 277 321
#     4  11  22  36  57  82 107 141 183 223 269 328
#     4   8  18  36  55  75 103 142 182 223 263 314
#
# _framework density 20.161259999999999
#
# number of rings (size 3 to 8) (size 9 to 14) (size 15 to 20)
#    0.000    2.636    0.909    1.364    2.545    1.455 
#    0.000    4.545    0.000    0.000    0.000    2.545 
#    0.000    0.000    0.000    0.000    0.000    0.000 
#
# Total GULP energy -245523.621725 kJ/mol
# GULP energy per Si atom -5580.082312 kJ/mol
# Density = 2.011537 g / cm^3
# Si number density = 20.161260 Si / 1000 Ang^3
#
#
#
# Elastic Constant Matrix: (Units=GPa)
#
#
# Indices 1 2 3 4 5 6 
#
# 1 25.8200 -6.4950 -13.4326 0.0000 0.0000 0.0000
# 2 -6.4950 196.6973 119.9709 -0.0001 0.0000 0.0000
# 3 -13.4326 119.9709 170.5047 -0.0005 0.0000 0.0000
# 4 0.0000 -0.0001 -0.0005 -68.8824 0.0000 0.0000
# 5 0.0000 0.0000 0.0000 0.0000 16.9660 0.0000
# 6 0.0000 0.0000 0.0000 0.0000 0.0000 6.7101
#
#
#
# Elastic Compliance Matrix: (Units=1/GPa)
#
#
# Indices 1 2 3 4 5 6 
#
# 1 0.040512 -0.001067 0.003942 0.000000 0.000000 0.000000
# 2 -0.001067 0.008934 -0.006370 0.000000 0.000000 0.000000
# 3 0.003942 -0.006370 0.010658 0.000000 0.000000 0.000000
# 4 0.000000 0.000000 0.000000 -0.014517 0.000000 0.000000
# 5 0.000000 0.000000 0.000000 0.000000 0.058941 0.000000
# 6 0.000000 0.000000 0.000000 0.000000 0.000000 0.149030
#
#
# Mechanical properties :
#
#
# Convention : Reuss Voigt Hill
#
# Bulk Modulus (GPa) = 18.82727 65.90096 42.36412
# Shear Modulus (GPa) = 17.96930 10.49065 14.22998
#
# Velocity S-wave (km/s) = 2.98867 2.28356 2.65959
# Velocity P-wave (km/s) = 4.61174 6.30165 5.52173
#
# Compressibility (1/GPa) = 0.05311443
#
# Stress axis : x y z
#
# Youngs Moduli (GPa) = 24.68394 111.93012 93.82801
#
# Poissons Ratio (x) = 0.11940 -0.36989
# Poissons Ratio (y) = 0.02633 0.59771
# Poissons Ratio (z) = -0.09731 0.71303
#
# Static dielectric constant tensor:
#      x y z
#    x 1.752940 0.000000 0.000000 
#    y 0.000000 1.700790 0.000000 
#    z 0.000000 0.000000 1.737690 
# 
# From -- ./inp_files/42573.got.cif
#   From: 2010.05.17/outbox.cif.g08.bks.cpg/sg71_22_cif.got.tgz:42573.got - 2010.06.03 16:22:01.
