data_PCOD9518065
_publ_section_title
;
Structure prediction by ZEFSAII (Michael W. Deem and Ramdas Pophale) SiO2 
 PCOD9518065
Probable space group: I M M M
;
_chemical_formula_sum "Si O2"
_cell_formula_units_Z 72
_cell_length_a 20.797069
_cell_length_b 18.754018
_cell_length_c 7.725658
_cell_angle_alpha 90.000000
_cell_angle_beta 90.000000
_cell_angle_gamma 90.000000
_cell_volume 3013.227623
_symmetry_space_group_name_H-M "I M M M"
_symmetry_group_IT_number 71
_symmetry_cell_setting 'orthorhombic'
loop_
_space_group_symop_operation_xyz
x,y,z
-x,-y,z
x,-y,-z
-x,y,-z
-x,-y,-z
x,y,-z
-x,y,z
x,-y,z
1/2+x,1/2+y,1/2+z
1/2-x,1/2-y,1/2+z
1/2+x,1/2-y,1/2-z
1/2-x,1/2+y,1/2-z
1/2-x,1/2-y,1/2-z
1/2+x,1/2+y,1/2-z
1/2-x,1/2+y,1/2+z
1/2+x,1/2-y,1/2+z
loop_
_atom_site_type_symbol
_atom_site_label
_atom_site_fract_x
_atom_site_fract_y
_atom_site_fract_z
Si Si1 0.255747 0.845701 0.797117
Si Si2 0.599837 0.500000 0.795281
Si Si3 0.753049 0.000000 0.291302
Si Si4 0.923549 0.581769 0.500000
Si Si5 0.610377 0.191608 0.698862
Si Si6 0.390593 0.346043 0.707050
O O1 0.277109 0.927844 0.775713
O O2 0.311278 0.801315 0.704084
O O3 0.183156 0.847655 0.723269
O O4 0.255672 0.827910 0.000000
O O5 0.673023 0.500000 0.725184
O O6 0.575157 0.578785 0.746380
O O7 0.601054 0.500000 0.000000
O O8 0.752525 0.000000 0.500000
O O9 0.898519 0.500000 0.500000
O O10 0.906053 0.629703 0.667349
O O11 0.000000 0.576198 0.500000
O O12 0.591394 0.177029 0.500000
O O13 0.582741 0.268627 0.757771
O O14 0.385852 0.343195 0.500000
#
# Coordination Sequence:
#
# PCOD9518065 Si02
#       6
#    16   8   8   8  16  16
#     4  10  18  30  49  78 121 166 203 245 292 361
#     4   9  17  27  47  75 117 170 209 236 271 332
#     4   9  17  27  39  67 109 158 209 243 277 340
#     4  11  28  52  72  91 115 151 211 282 339 380
#     4  11  23  39  63  92 119 156 202 256 321 381
#     4   9  19  33  51  83 128 172 209 241 289 362
#
# _framework density 23.894645000000001
#
# number of rings (size 3 to 8) (size 9 to 14) (size 15 to 20)
#    0.000    2.111    1.111    2.000    3.111    4.444 
#    0.000    1.111    0.000    0.000    0.000    1.556 
#    0.000    3.556    0.000    0.000    0.000    0.000 
#
# Total GULP energy -200939.657181 kJ/mol
# GULP energy per Si atom -5581.657144 kJ/mol
# Density = 2.384026 g / cm^3
# Si number density = 23.894645 Si / 1000 Ang^3
#
#
#
# Elastic Constant Matrix: (Units=GPa)
#
#
# Indices 1 2 3 4 5 6 
#
# 1 70.2945 24.6081 8.2330 0.0000 0.0000 0.0000
# 2 24.6081 250.8335 66.0840 0.0000 0.0000 0.0000
# 3 8.2330 66.0840 111.9233 0.0000 0.0000 0.0000
# 4 0.0000 0.0000 0.0000 35.5893 0.0000 0.0000
# 5 0.0000 0.0000 0.0000 0.0000 -8.3574 0.0000
# 6 0.0000 0.0000 0.0000 0.0000 0.0000 -2.0951
#
#
#
# Elastic Compliance Matrix: (Units=1/GPa)
#
#
# Indices 1 2 3 4 5 6 
#
# 1 0.014739 -0.001374 -0.000273 0.000000 0.000000 0.000000
# 2 -0.001374 0.004849 -0.002762 0.000000 0.000000 0.000000
# 3 -0.000273 -0.002762 0.010586 0.000000 0.000000 0.000000
# 4 0.000000 0.000000 0.000000 0.028098 0.000000 0.000000
# 5 0.000000 0.000000 0.000000 0.000000 -0.119654 0.000000
# 6 0.000000 0.000000 0.000000 0.000000 0.000000 -0.477311
#
#
# Mechanical properties :
#
#
# Convention : Reuss Voigt Hill
#
# Bulk Modulus (GPa) = 46.82614 70.10017 58.46316
# Shear Modulus (GPa) = -9.56468 27.30243 8.86887
#
# Velocity S-wave (km/s) = -2.00288 3.38393 1.92866
# Velocity P-wave (km/s) = 3.78031 6.68348 5.42953
#
# Compressibility (1/GPa) = 0.02135559
#
# Stress axis : x y z
#
# Youngs Moduli (GPa) = 67.84790 206.21932 94.46786
#
# Poissons Ratio (x) = 0.28336 0.02578
# Poissons Ratio (y) = 0.09323 0.26093
# Poissons Ratio (z) = 0.01851 0.56960
#
# Static dielectric constant tensor:
#      x y z
#    x 1.931000 0.000000 0.000000 
#    y 0.000000 2.049710 0.000000 
#    z 0.000000 0.000000 1.841200 
# 
# From -- ./inp_files/12230.got.cif
#   From: 2010.05.17/outbox.cif.g08.bks.cpg/sg71_7_cif.got.tgz:12230.got - 2010.06.03 16:22:01.
