data_PCOD9518495
_publ_section_title
;
Structure prediction by ZEFSAII (Michael W. Deem and Ramdas Pophale) SiO2 
 PCOD9518495
Probable space group: I M M M
;
_chemical_formula_sum "Si O2"
_cell_formula_units_Z 116
_cell_length_a 25.101561
_cell_length_b 23.779445
_cell_length_c 10.507161
_cell_angle_alpha 90.000000
_cell_angle_beta 90.000000
_cell_angle_gamma 90.000000
_cell_volume 6271.736896
_symmetry_space_group_name_H-M "I M M M"
_symmetry_group_IT_number 71
_symmetry_cell_setting 'orthorhombic'
loop_
_space_group_symop_operation_xyz
x,y,z
-x,-y,z
x,-y,-z
-x,y,-z
-x,-y,-z
x,y,-z
-x,y,z
x,-y,z
1/2+x,1/2+y,1/2+z
1/2-x,1/2-y,1/2+z
1/2+x,1/2-y,1/2-z
1/2-x,1/2+y,1/2-z
1/2-x,1/2-y,1/2-z
1/2+x,1/2+y,1/2-z
1/2-x,1/2+y,1/2+z
1/2+x,1/2-y,1/2+z
loop_
_atom_site_type_symbol
_atom_site_label
_atom_site_fract_x
_atom_site_fract_y
_atom_site_fract_z
Si Si1 0.272538 0.903231 0.790918
Si Si2 0.910757 0.243996 0.354719
Si Si3 0.712717 0.774660 0.141920
Si Si4 0.367816 0.932786 0.640997
Si Si5 0.293303 0.000000 0.000000
Si Si6 0.561031 0.349120 0.648457
Si Si7 0.561718 0.126094 0.145179
Si Si8 0.656831 0.565867 0.652730
O O1 0.287150 0.841838 0.842415
O O2 0.306985 0.914482 0.665521
O O3 0.208886 0.909311 0.778991
O O4 0.290273 0.951048 0.889589
O O5 0.923663 0.225622 0.500000
O O6 0.847023 0.251428 0.345090
O O7 0.930378 0.201419 0.247338
O O8 0.934004 0.306665 0.338417
O O9 0.750000 0.750000 0.250000
O O10 0.732375 0.760753 0.000000
O O11 0.385404 0.915234 0.500000
O O12 0.402683 0.904598 0.751081
O O13 0.371919 0.000000 0.649867
O O14 0.569053 0.331591 0.500000
O O15 0.500000 0.369337 0.659111
O O16 0.604302 0.397552 0.675896
O O17 0.500000 0.109325 0.156858
O O18 0.579612 0.113337 0.000000
O O19 0.668284 0.568344 0.500000
O O20 0.650405 0.500000 0.684050
#
# Coordination Sequence:
#
# PCOD9518495 Si02
#       8
#    16  16  16  16   4  16  16  16
#     4  12  20  37  62  90 120 156 211 250 302 366
#     4  10  21  39  61  84 116 155 197 244 298 353
#     4  11  23  37  58  89 125 160 197 245 305 369
#     4  11  25  40  58  86 123 160 194 244 310 366
#     4  12  20  32  70  96 110 170 210 270 296 348
#     4  10  22  38  59  88 120 157 202 251 303 363
#     4  10  22  40  64  88 111 149 203 254 294 348
#     4  10  18  33  58  90 122 155 197 248 305 357
#
# _framework density 18.495674000000001
#
# number of rings (size 3 to 8) (size 9 to 14) (size 15 to 20)
#    0.000    1.379    4.138    1.241    0.966    4.690 
#    0.000    3.448    0.000    1.241    0.000    0.966 
#    0.000    0.000    0.000    0.000    0.000    0.000 
#
# Total GULP energy -323382.418933 kJ/mol
# GULP energy per Si atom -5575.558947 kJ/mol
# Density = 1.845358 g / cm^3
# Si number density = 18.495674 Si / 1000 Ang^3
#
#
#
# Elastic Constant Matrix: (Units=GPa)
#
#
# Indices 1 2 3 4 5 6 
#
# 1 108.7509 36.1183 64.7124 0.0000 0.0000 0.0000
# 2 36.1183 46.4463 40.9289 0.0000 0.0000 0.0000
# 3 64.7124 40.9289 110.2203 0.0000 0.0000 0.0000
# 4 0.0000 0.0000 0.0000 28.5653 0.0000 0.0000
# 5 0.0000 0.0000 0.0000 0.0000 23.0866 0.0000
# 6 0.0000 0.0000 0.0000 0.0000 0.0000 -21.9026
#
#
#
# Elastic Compliance Matrix: (Units=1/GPa)
#
#
# Indices 1 2 3 4 5 6 
#
# 1 0.015133 -0.005854 -0.006711 0.000000 0.000000 0.000000
# 2 -0.005854 0.034267 -0.009287 0.000000 0.000000 0.000000
# 3 -0.006711 -0.009287 0.016462 0.000000 0.000000 0.000000
# 4 0.000000 0.000000 0.000000 0.035008 0.000000 0.000000
# 5 0.000000 0.000000 0.000000 0.000000 0.043315 0.000000
# 6 0.000000 0.000000 0.000000 0.000000 0.000000 -0.045657
#
#
# Mechanical properties :
#
#
# Convention : Reuss Voigt Hill
#
# Bulk Modulus (GPa) = 45.13398 60.99297 53.06348
# Shear Modulus (GPa) = 33.41844 14.19373 23.80609
#
# Velocity S-wave (km/s) = 4.25529 2.77322 3.59153
# Velocity P-wave (km/s) = 6.97128 6.58049 6.77870
#
# Compressibility (1/GPa) = 0.02215625
#
# Stress axis : x y z
#
# Youngs Moduli (GPa) = 66.08072 29.18275 60.74720
#
# Poissons Ratio (x) = 0.17084 0.40767
# Poissons Ratio (y) = 0.38685 0.56419
# Poissons Ratio (z) = 0.44347 0.27103
#
# Static dielectric constant tensor:
#      x y z
#    x 1.667100 0.000000 0.000000 
#    y 0.000000 1.605240 0.000000 
#    z 0.000000 0.000000 1.636270 
# 
# From -- ./inp_files/15411.got.cif
#   From: 2010.05.17/outbox.cif.g08.bks.cpg/sg71_8_cif.got.tgz:15411.got - 2010.06.03 16:22:01.
