data_PCOD9518374
_publ_section_title
;
Structure prediction by ZEFSAII (Michael W. Deem and Ramdas Pophale) SiO2 
 PCOD9518374
Probable space group: I M M M
;
_chemical_formula_sum "Si O2"
_cell_formula_units_Z 104
_cell_length_a 31.049283
_cell_length_b 20.888137
_cell_length_c 7.519228
_cell_angle_alpha 90.000000
_cell_angle_beta 90.000000
_cell_angle_gamma 90.000000
_cell_volume 4876.683122
_symmetry_space_group_name_H-M "I M M M"
_symmetry_group_IT_number 71
_symmetry_cell_setting 'orthorhombic'
loop_
_space_group_symop_operation_xyz
x,y,z
-x,-y,z
x,-y,-z
-x,y,-z
-x,-y,-z
x,y,-z
-x,y,z
x,-y,z
1/2+x,1/2+y,1/2+z
1/2-x,1/2-y,1/2+z
1/2+x,1/2-y,1/2-z
1/2-x,1/2+y,1/2-z
1/2-x,1/2-y,1/2-z
1/2+x,1/2+y,1/2-z
1/2-x,1/2+y,1/2+z
1/2+x,1/2-y,1/2+z
loop_
_atom_site_type_symbol
_atom_site_label
_atom_site_fract_x
_atom_site_fract_y
_atom_site_fract_z
Si Si1 0.176686 0.875520 0.203988
Si Si2 0.083423 0.851710 0.284715
Si Si3 0.228804 0.000000 0.217383
Si Si4 0.050129 0.711965 0.283134
Si Si5 0.500000 0.428089 0.217097
Si Si6 0.328851 0.000000 0.216566
Si Si7 0.798876 0.263002 0.303524
Si Si8 0.131904 0.364594 0.718200
O O1 0.125804 0.885477 0.211273
O O2 0.181654 0.807875 0.300901
O O3 0.203941 0.935442 0.274470
O O4 0.190507 0.864760 0.000000
O O5 0.086765 0.852197 0.500000
O O6 0.073519 0.778523 0.231415
O O7 0.042142 0.891048 0.227573
O O8 0.278662 0.000000 0.272061
O O9 0.227197 0.000000 0.000000
O O10 0.048384 0.712250 0.500000
O O11 0.083862 0.656997 0.227228
O O12 0.000000 0.708248 0.223932
O O13 0.500000 0.500000 0.279052
O O14 0.500000 0.427905 0.000000
O O15 0.352784 0.064934 0.272481
O O16 0.328307 0.000000 0.000000
O O17 0.750000 0.250000 0.250000
O O18 0.832247 0.312749 0.216428
O O19 0.705138 0.210087 0.000000
O O20 0.131012 0.363075 0.500000
#
# Coordination Sequence:
#
# PCOD9518374 Si02
#       8
#    16  16   8  16   8   8  16  16
#     4  11  22  36  53  76 106 141 183 228 274 325
#     4  10  18  32  52  74 103 138 178 224 271 324
#     4   9  20  36  51  69 102 148 185 215 271 337
#     4   9  15  27  48  74 103 136 171 210 263 320
#     4   9  18  30  49  77 103 138 186 225 268 333
#     4   9  16  30  49  69  99 138 173 206 252 322
#     4  11  21  35  55  80 109 140 181 227 272 323
#     4   9  17  29  49  76 103 135 175 213 260 321
#
# _framework density 21.325970000000002
#
# number of rings (size 3 to 8) (size 9 to 14) (size 15 to 20)
#    0.000    2.231    2.308    1.846    1.077    2.462 
#    0.000    1.923    0.000    2.769    0.000    1.615 
#    0.000    0.000    0.000    1.385    0.000    1.538 
#
# Total GULP energy -290121.351895 kJ/mol
# GULP energy per Si atom -5579.256767 kJ/mol
# Density = 2.127743 g / cm^3
# Si number density = 21.325970 Si / 1000 Ang^3
#
#
#
# Elastic Constant Matrix: (Units=GPa)
#
#
# Indices 1 2 3 4 5 6 
#
# 1 149.9591 79.3635 2.0129 0.0000 0.0000 0.0000
# 2 79.3635 158.3322 -2.1737 0.0000 0.0000 0.0000
# 3 2.0129 -2.1737 50.5031 0.0000 0.0000 0.0000
# 4 0.0000 0.0000 0.0000 4.8457 0.0000 0.0000
# 5 0.0000 0.0000 0.0000 0.0000 -30.0933 0.0000
# 6 0.0000 0.0000 0.0000 0.0000 0.0000 39.5312
#
#
#
# Elastic Compliance Matrix: (Units=1/GPa)
#
#
# Indices 1 2 3 4 5 6 
#
# 1 0.009092 -0.004565 -0.000559 0.000000 0.000000 0.000000
# 2 -0.004565 0.008612 0.000553 0.000000 0.000000 0.000000
# 3 -0.000559 0.000553 0.019847 0.000000 0.000000 0.000000
# 4 0.000000 0.000000 0.000000 0.206366 0.000000 0.000000
# 5 0.000000 0.000000 0.000000 0.000000 -0.033230 0.000000
# 6 0.000000 0.000000 0.000000 0.000000 0.000000 0.025297
#
#
# Mechanical properties :
#
#
# Convention : Reuss Voigt Hill
#
# Bulk Modulus (GPa) = 35.20148 57.46664 46.33406
# Shear Modulus (GPa) = 19.63903 21.49618 20.56761
#
# Velocity S-wave (km/s) = 3.03792 3.17832 3.10891
# Velocity P-wave (km/s) = 5.37099 6.36193 5.88735
#
# Compressibility (1/GPa) = 0.02840790
#
# Stress axis : x y z
#
# Youngs Moduli (GPa) = 109.98772 116.12251 50.38589
#
# Poissons Ratio (x) = 0.53010 0.02816
# Poissons Ratio (y) = 0.50209 -0.02784
# Poissons Ratio (z) = 0.06147 -0.06417
#
# Static dielectric constant tensor:
#      x y z
#    x 1.886000 0.000000 0.000000 
#    y 0.000000 1.760970 0.000000 
#    z 0.000000 0.000000 1.876100 
# 
# From -- ./inp_files/17080.got.cif
#   From: 2010.05.17/outbox.cif.g08.bks.cpg/sg71_9_cif.got.tgz:17080.got - 2010.06.03 16:22:01.
