data_PCOD9518822
_publ_section_title
;
Structure prediction by ZEFSAII (Michael W. Deem and Ramdas Pophale) SiO2 
 PCOD9518822
Probable space group: I M M M
;
_chemical_formula_sum "Si O2"
_cell_formula_units_Z 88
_cell_length_a 18.700558
_cell_length_b 7.611304
_cell_length_c 28.631191
_cell_angle_alpha 90.000000
_cell_angle_beta 90.000000
_cell_angle_gamma 90.000000
_cell_volume 4075.238663
_symmetry_space_group_name_H-M "I M M M"
_symmetry_group_IT_number 71
_symmetry_cell_setting 'orthorhombic'
loop_
_space_group_symop_operation_xyz
x,y,z
-x,-y,z
x,-y,-z
-x,y,-z
-x,-y,-z
x,y,-z
-x,y,z
x,-y,z
1/2+x,1/2+y,1/2+z
1/2-x,1/2-y,1/2+z
1/2+x,1/2-y,1/2-z
1/2-x,1/2+y,1/2-z
1/2-x,1/2-y,1/2-z
1/2+x,1/2+y,1/2-z
1/2-x,1/2+y,1/2+z
1/2+x,1/2-y,1/2+z
loop_
_atom_site_type_symbol
_atom_site_label
_atom_site_fract_x
_atom_site_fract_y
_atom_site_fract_z
Si Si1 0.808766 0.295339 0.076847
Si Si2 0.365232 0.207173 0.844750
Si Si3 0.578578 0.215453 0.250875
Si Si4 0.202944 0.711574 0.819654
Si Si5 0.347684 0.797374 0.948420
Si Si6 0.420211 0.710266 0.500000
O O1 0.788316 0.500000 0.078136
O O2 0.826539 0.240367 0.129267
O O3 0.738625 0.201777 0.056792
O O4 0.875879 0.270775 0.044382
O O5 0.413689 0.275534 0.802776
O O6 0.284633 0.224801 0.823879
O O7 0.370880 0.280495 0.897734
O O8 0.379572 0.000000 0.849553
O O9 0.500000 0.265473 0.269316
O O10 0.647465 0.275656 0.280647
O O11 0.581033 0.000000 0.251063
O O12 0.206598 0.500000 0.815071
O O13 0.372274 0.000000 0.949569
O O14 0.365106 0.720251 0.000000
O O15 0.421513 0.500000 0.500000
O O16 0.500000 0.778928 0.500000
#
# Coordination Sequence:
#
# PCOD9518822 Si02
#       6
#    16  16  16  16  16   8
#     4  10  19  30  46  68  90 113 151 197 234 274
#     4   9  17  29  48  72  94 123 162 199 235 281
#     4   9  17  30  48  69  95 127 161 196 239 289
#     4   9  18  31  49  72  95 121 154 198 244 283
#     4   9  16  27  45  67  93 121 149 187 235 281
#     4  11  23  35  45  59  87 127 160 187 228 279
#
# _framework density 21.593828999999999
#
# number of rings (size 3 to 8) (size 9 to 14) (size 15 to 20)
#    0.000    2.636    0.909    1.364    0.000    2.182 
#    0.000    1.818    0.000    2.727    0.000    3.818 
#    0.000    0.000    0.000    9.091    0.000    9.455 
#
# Total GULP energy -245210.327863 kJ/mol
# GULP energy per Si atom -5572.961997 kJ/mol
# Density = 2.154468 g / cm^3
# Si number density = 21.593829 Si / 1000 Ang^3
#
#
#
# Elastic Constant Matrix: (Units=GPa)
#
#
# Indices 1 2 3 4 5 6 
#
# 1 10.7367 -7.1712 12.6956 0.0000 0.0000 0.0000
# 2 -7.1712 44.2513 8.2890 0.0000 0.0000 0.0000
# 3 12.6956 8.2890 137.4884 0.0000 0.0000 0.0000
# 4 0.0000 0.0000 0.0000 0.9986 0.0000 0.0000
# 5 0.0000 0.0000 0.0000 0.0000 6.1556 0.0000
# 6 0.0000 0.0000 0.0000 0.0000 0.0000 0.7878
#
#
#
# Elastic Compliance Matrix: (Units=1/GPa)
#
#
# Indices 1 2 3 4 5 6 
#
# 1 0.123082 0.022327 -0.012711 0.000000 0.000000 0.000000
# 2 0.022327 0.026907 -0.003684 0.000000 0.000000 0.000000
# 3 -0.012711 -0.003684 0.008669 0.000000 0.000000 0.000000
# 4 0.000000 0.000000 0.000000 1.001366 0.000000 0.000000
# 5 0.000000 0.000000 0.000000 0.000000 0.162455 0.000000
# 6 0.000000 0.000000 0.000000 0.000000 0.000000 1.269371
#
#
# Mechanical properties :
#
#
# Convention : Reuss Voigt Hill
#
# Bulk Modulus (GPa) = 5.86435 24.45592 15.16013
# Shear Modulus (GPa) = 1.89622 13.49927 7.69774
#
# Velocity S-wave (km/s) = 0.93810 2.50300 1.89011
# Velocity P-wave (km/s) = 1.97358 4.43885 3.43500
#
# Compressibility (1/GPa) = 0.17052199
#
# Stress axis : x y z
#
# Youngs Moduli (GPa) = 8.12465 37.16571 115.35085
#
# Poissons Ratio (x) = -0.82981 1.46628
# Poissons Ratio (y) = -0.18140 0.42494
# Poissons Ratio (z) = 0.10328 0.13691
#
# Static dielectric constant tensor:
#      x y z
#    x 1.747580 0.000000 0.000000 
#    y 0.000000 1.834600 0.000000 
#    z 0.000000 0.000000 1.829550 
# 
# From -- ./inp_files/51056.got.cif
#   From: 2010.05.17/outbox.cif.g08.bks.cpg/sg71_26_cif.got.tgz:51056.got - 2010.06.03 16:22:01.
