data_PCOD9518526
_publ_section_title
;
Structure prediction by ZEFSAII (Michael W. Deem and Ramdas Pophale) SiO2 
 PCOD9518526
Probable space group: I M M M
;
_chemical_formula_sum "Si O2"
_cell_formula_units_Z 90
_cell_length_a 9.364029
_cell_length_b 20.495512
_cell_length_c 22.918404
_cell_angle_alpha 90.000000
_cell_angle_beta 90.000000
_cell_angle_gamma 90.000000
_cell_volume 4398.513130
_symmetry_space_group_name_H-M "I M M M"
_symmetry_group_IT_number 71
_symmetry_cell_setting 'orthorhombic'
loop_
_space_group_symop_operation_xyz
x,y,z
-x,-y,z
x,-y,-z
-x,y,-z
-x,-y,-z
x,y,-z
-x,y,z
x,-y,z
1/2+x,1/2+y,1/2+z
1/2-x,1/2-y,1/2+z
1/2+x,1/2-y,1/2-z
1/2-x,1/2+y,1/2-z
1/2-x,1/2-y,1/2-z
1/2+x,1/2+y,1/2-z
1/2-x,1/2+y,1/2+z
1/2+x,1/2-y,1/2+z
loop_
_atom_site_type_symbol
_atom_site_label
_atom_site_fract_x
_atom_site_fract_y
_atom_site_fract_z
Si Si1 0.227328 0.500000 0.109017
Si Si2 0.659977 0.643342 0.131155
Si Si3 0.659659 0.000000 0.742569
Si Si4 0.673006 0.000000 0.067994
Si Si5 0.333732 0.370892 0.732670
Si Si6 0.500000 0.000000 0.500000
Si Si7 0.670952 0.140285 0.121172
Si Si8 0.160973 0.748579 0.067196
O O1 0.316428 0.432421 0.113480
O O2 0.150307 0.500000 0.172385
O O3 0.125029 0.500000 0.052644
O O4 0.500000 0.663009 0.112872
O O5 0.670322 0.654056 0.200937
O O6 0.779570 0.687357 0.102259
O O7 0.749847 0.061378 0.762293
O O8 0.500000 0.000000 0.767733
O O9 0.713831 0.933184 0.101328
O O10 0.500000 0.000000 0.066350
O O11 0.721696 0.000000 0.000000
O O12 0.500000 0.377979 0.716786
O O13 0.246679 0.336688 0.681200
O O14 0.500000 0.142838 0.126255
O O15 0.732513 0.191045 0.074824
O O16 0.000000 0.766517 0.085766
O O17 0.156358 0.729246 0.000000
#
# Coordination Sequence:
#
# PCOD9518526 Si02
#       8
#     8  16   8   8  16   2  16  16
#     4  10  23  37  62  89 127 159 209 255 313 369
#     4  10  23  43  65  91 122 163 210 261 315 370
#     4  10  18  34  56  86 121 162 203 249 303 365
#     4   9  19  36  61  92 125 158 198 247 296 352
#     4  10  21  37  60  88 124 160 201 255 315 371
#     4  12  24  36  58  96 128 168 202 262 318 376
#     4  11  22  39  65  96 125 161 206 254 309 371
#     4  11  26  44  64  88 124 166 208 253 311 374
#
# _framework density 20.461459000000001
#
# number of rings (size 3 to 8) (size 9 to 14) (size 15 to 20)
#    0.000    1.689    0.444    3.200    2.489    7.111 
#    0.000    1.778    0.000    3.200    0.000    0.000 
#    0.000    0.000    0.000    0.000    0.000    0.000 
#
# Total GULP energy -250857.520250 kJ/mol
# GULP energy per Si atom -5574.611561 kJ/mol
# Density = 2.041489 g / cm^3
# Si number density = 20.461459 Si / 1000 Ang^3
#
#
#
# Elastic Constant Matrix: (Units=GPa)
#
#
# Indices 1 2 3 4 5 6 
#
# 1 131.8770 23.7922 45.0760 0.0000 0.0000 0.0000
# 2 23.7922 66.8128 9.7514 0.0000 0.0000 0.0000
# 3 45.0760 9.7514 105.3440 0.0000 0.0000 0.0000
# 4 0.0000 0.0000 0.0000 40.4506 0.0000 0.0000
# 5 0.0000 0.0000 0.0000 0.0000 28.3137 0.0000
# 6 0.0000 0.0000 0.0000 0.0000 0.0000 50.7723
#
#
#
# Elastic Compliance Matrix: (Units=1/GPa)
#
#
# Indices 1 2 3 4 5 6 
#
# 1 0.009368 -0.002789 -0.003750 0.000000 0.000000 0.000000
# 2 -0.002789 0.016002 -0.000288 0.000000 0.000000 0.000000
# 3 -0.003750 -0.000288 0.011124 0.000000 0.000000 0.000000
# 4 0.000000 0.000000 0.000000 0.024721 0.000000 0.000000
# 5 0.000000 0.000000 0.000000 0.000000 0.035319 0.000000
# 6 0.000000 0.000000 0.000000 0.000000 0.000000 0.019696
#
#
# Mechanical properties :
#
#
# Convention : Reuss Voigt Hill
#
# Bulk Modulus (GPa) = 43.78224 51.25255 47.51739
# Shear Modulus (GPa) = 36.36438 38.93494 37.64966
#
# Velocity S-wave (km/s) = 4.22027 4.36689 4.29421
# Velocity P-wave (km/s) = 6.72246 7.10838 6.91811
#
# Compressibility (1/GPa) = 0.02284031
#
# Stress axis : x y z
#
# Youngs Moduli (GPa) = 106.74902 62.49125 89.89487
#
# Poissons Ratio (x) = 0.17426 0.33713
# Poissons Ratio (y) = 0.29767 0.02590
# Poissons Ratio (z) = 0.40034 0.01800
#
# Static dielectric constant tensor:
#      x y z
#    x 1.698780 0.000000 0.000000 
#    y 0.000000 1.622880 0.000000 
#    z 0.000000 0.000000 1.753790 
# 
# From -- ./inp_files/57637.got.cif
#   From: 2010.05.17/outbox.cif.g08.bks.cpg/sg71_29_cif.got.tgz:57637.got - 2010.06.03 16:22:01.
