data_PCOD9518356
_publ_section_title
;
Structure prediction by ZEFSAII (Michael W. Deem and Ramdas Pophale) SiO2 
 PCOD9518356
Probable space group: I M M M
;
_chemical_formula_sum "Si O2"
_cell_formula_units_Z 128
_cell_length_a 24.562111
_cell_length_b 16.076947
_cell_length_c 18.005005
_cell_angle_alpha 90.000000
_cell_angle_beta 90.000000
_cell_angle_gamma 90.000000
_cell_volume 7109.884015
_symmetry_space_group_name_H-M "I M M M"
_symmetry_group_IT_number 71
_symmetry_cell_setting 'orthorhombic'
loop_
_space_group_symop_operation_xyz
x,y,z
-x,-y,z
x,-y,-z
-x,y,-z
-x,-y,-z
x,y,-z
-x,y,z
x,-y,z
1/2+x,1/2+y,1/2+z
1/2-x,1/2-y,1/2+z
1/2+x,1/2-y,1/2-z
1/2-x,1/2+y,1/2-z
1/2-x,1/2-y,1/2-z
1/2+x,1/2+y,1/2-z
1/2-x,1/2+y,1/2+z
1/2+x,1/2-y,1/2+z
loop_
_atom_site_type_symbol
_atom_site_label
_atom_site_fract_x
_atom_site_fract_y
_atom_site_fract_z
Si Si1 0.366981 0.662902 0.697048
Si Si2 0.061666 0.091028 0.326698
Si Si3 0.063778 0.734573 0.088645
Si Si4 0.352135 0.092498 0.588905
Si Si5 0.061148 0.741192 0.587790
Si Si6 0.755831 0.906852 0.821351
Si Si7 0.231714 0.095765 0.642984
Si Si8 0.169965 0.261963 0.666561
O O1 0.396386 0.608528 0.760536
O O2 0.411362 0.692831 0.638628
O O3 0.317317 0.617268 0.656846
O O4 0.341380 0.738171 0.747008
O O5 0.063932 0.162003 0.388377
O O6 0.000000 0.094215 0.296049
O O7 0.071491 0.000000 0.358207
O O8 0.100710 0.655597 0.110773
O O9 0.000000 0.721653 0.103019
O O10 0.070388 0.748876 0.000000
O O11 0.354710 0.088052 0.500000
O O12 0.290583 0.116905 0.608994
O O13 0.360909 0.000000 0.620266
O O14 0.066819 0.730655 0.500000
O O15 0.113302 0.707007 0.631325
O O16 0.000000 0.711927 0.609554
O O17 0.759615 0.907750 0.731568
O O18 0.714688 0.833414 0.841919
O O19 0.740834 0.000000 0.846252
O O20 0.191346 0.174195 0.630619
O O21 0.216345 0.000000 0.619602
#
# Coordination Sequence:
#
# PCOD9518356 Si02
#       8
#    16  16  16  16  16  16  16  16
#     4  10  18  32  50  71  98 129 162 201 246 296
#     4   9  17  29  48  74 101 131 165 196 228 276
#     4  10  20  32  48  70  95 128 170 212 252 292
#     4   9  17  29  45  67  99 135 165 197 240 291
#     4   9  19  34  50  71 100 131 159 191 239 294
#     4  10  19  31  50  73  96 124 160 207 256 295
#     4   9  17  30  48  73 104 133 162 197 241 296
#     4  10  19  31  51  75  98 129 165 200 241 293
#
# _framework density 18.003107
#
# number of rings (size 3 to 8) (size 9 to 14) (size 15 to 20)
#    0.000    2.500    0.000    3.750    0.000    4.500 
#    0.000    3.125    0.000    3.000    0.000    5.250 
#    0.000    0.000    0.000    0.000    0.000    0.000 
#
# Total GULP energy -356407.381284 kJ/mol
# GULP energy per Si atom -5568.865333 kJ/mol
# Density = 1.796213 g / cm^3
# Si number density = 18.003107 Si / 1000 Ang^3
#
#
#
# Elastic Constant Matrix: (Units=GPa)
#
#
# Indices 1 2 3 4 5 6 
#
# 1 99.5213 39.5597 11.8680 0.0000 0.0000 0.0000
# 2 39.5597 47.8948 9.6004 0.0000 0.0000 0.0000
# 3 11.8680 9.6004 11.9016 0.0000 0.0000 0.0000
# 4 0.0000 0.0000 0.0000 9.1617 0.0000 0.0000
# 5 0.0000 0.0000 0.0000 0.0000 29.3787 0.0000
# 6 0.0000 0.0000 0.0000 0.0000 0.0000 17.8835
#
#
#
# Elastic Compliance Matrix: (Units=1/GPa)
#
#
# Indices 1 2 3 4 5 6 
#
# 1 0.015316 -0.011439 -0.006046 0.000000 0.000000 0.000000
# 2 -0.011439 0.033449 -0.015575 0.000000 0.000000 0.000000
# 3 -0.006046 -0.015575 0.102615 0.000000 0.000000 0.000000
# 4 0.000000 0.000000 0.000000 0.109150 0.000000 0.000000
# 5 0.000000 0.000000 0.000000 0.000000 0.034038 0.000000
# 6 0.000000 0.000000 0.000000 0.000000 0.000000 0.055917
#
#
# Mechanical properties :
#
#
# Convention : Reuss Voigt Hill
#
# Bulk Modulus (GPa) = 11.72878 31.26375 21.49626
# Shear Modulus (GPa) = 11.23534 17.83742 14.53638
#
# Velocity S-wave (km/s) = 2.50086 3.15111 2.84463
# Velocity P-wave (km/s) = 3.85592 5.53559 4.77027
#
# Compressibility (1/GPa) = 0.08526038
#
# Stress axis : x y z
#
# Youngs Moduli (GPa) = 65.29166 29.89622 9.74520
#
# Poissons Ratio (x) = 0.34197 0.05892
# Poissons Ratio (y) = 0.74685 0.15178
# Poissons Ratio (z) = 0.39473 0.46564
#
# Static dielectric constant tensor:
#      x y z
#    x 1.653580 0.000000 0.000000 
#    y 0.000000 1.655160 0.000000 
#    z 0.000000 0.000000 1.591430 
# 
# From -- ./inp_files/48408.got.cif
#   From: 2010.05.17/outbox.cif.g08.bks.cpg/sg71_25_cif.got.tgz:48408.got - 2010.06.03 16:22:01.
