data_PCOD9518618
_publ_section_title
;
Structure prediction by ZEFSAII (Michael W. Deem and Ramdas Pophale) SiO2 
 PCOD9518618
Probable space group: I M M M
;
_chemical_formula_sum "Si O2"
_cell_formula_units_Z 96
_cell_length_a 18.627967
_cell_length_b 14.192395
_cell_length_c 24.024758
_cell_angle_alpha 90.000000
_cell_angle_beta 90.000000
_cell_angle_gamma 90.000000
_cell_volume 6351.556585
_symmetry_space_group_name_H-M "I M M M"
_symmetry_group_IT_number 71
_symmetry_cell_setting 'orthorhombic'
loop_
_space_group_symop_operation_xyz
x,y,z
-x,-y,z
x,-y,-z
-x,y,-z
-x,-y,-z
x,y,-z
-x,y,z
x,-y,z
1/2+x,1/2+y,1/2+z
1/2-x,1/2-y,1/2+z
1/2+x,1/2-y,1/2-z
1/2-x,1/2+y,1/2-z
1/2-x,1/2-y,1/2-z
1/2+x,1/2+y,1/2-z
1/2-x,1/2+y,1/2+z
1/2+x,1/2-y,1/2+z
loop_
_atom_site_type_symbol
_atom_site_label
_atom_site_fract_x
_atom_site_fract_y
_atom_site_fract_z
Si Si1 0.587054 0.890375 0.438415
Si Si2 0.913757 0.269237 0.168552
Si Si3 0.083193 0.615070 0.500000
Si Si4 0.914591 0.388854 0.721442
Si Si5 0.418747 0.385982 0.500000
Si Si6 0.331992 0.114264 0.109904
Si Si7 0.834909 0.886975 0.113264
O O1 0.610227 0.856712 0.500000
O O2 0.500000 0.888860 0.438299
O O3 0.609573 0.830649 0.385193
O O4 0.608129 0.000000 0.432657
O O5 0.897936 0.326728 0.224535
O O6 0.873587 0.170391 0.162038
O O7 0.000000 0.255887 0.165652
O O8 0.083943 0.500000 0.500000
O O9 0.124722 0.646553 0.444525
O O10 0.000000 0.643761 0.500000
O O11 0.900061 0.500000 0.732421
O O12 0.870576 0.358056 0.667178
O O13 0.000000 0.381374 0.710153
O O14 0.423603 0.500000 0.500000
O O15 0.500000 0.347265 0.500000
O O16 0.376633 0.362281 0.556138
O O17 0.248454 0.140283 0.108442
O O18 0.334317 0.000000 0.108604
O O19 0.839258 0.000000 0.120721
#
# Coordination Sequence:
#
# PCOD9518618 Si02
#       7
#    16  16   8  16   8  16  16
#     4   8  14  25  40  58  80 104 136 182 225 255
#     4  10  19  28  42  62  83 114 153 185 214 252
#     4   9  15  25  45  69  87 106 136 173 218 269
#     4   9  17  30  47  66  87 110 140 179 222 268
#     4   9  17  29  43  57  78 111 148 182 211 237
#     4   9  17  29  44  63  88 115 141 173 216 266
#     4  10  20  31  42  59  86 120 153 183 213 251
#
# _framework density 15.114405
#
# number of rings (size 3 to 8) (size 9 to 14) (size 15 to 20)
#    0.000    2.833    0.000    2.500    1.167    7.667 
#    0.000    0.000    0.000    0.000    0.000    0.000 
#    0.000    0.000    0.000    0.167    0.000   12.333 
#
# Total GULP energy -267442.491559 kJ/mol
# GULP energy per Si atom -5571.718574 kJ/mol
# Density = 1.508000 g / cm^3
# Si number density = 15.114405 Si / 1000 Ang^3
#
#
#
# Elastic Constant Matrix: (Units=GPa)
#
#
# Indices 1 2 3 4 5 6 
#
# 1 89.8387 34.7615 74.9203 0.0000 0.0000 0.0000
# 2 34.7615 45.7431 43.4262 0.0000 0.0000 0.0000
# 3 74.9203 43.4262 129.0746 0.0000 0.0000 0.0000
# 4 0.0000 0.0000 0.0000 9.2979 0.0000 0.0000
# 5 0.0000 0.0000 0.0000 0.0000 17.0898 0.0000
# 6 0.0000 0.0000 0.0000 0.0000 0.0000 11.5557
#
#
#
# Elastic Compliance Matrix: (Units=1/GPa)
#
#
# Indices 1 2 3 4 5 6 
#
# 1 0.023031 -0.007069 -0.010990 0.000000 0.000000 0.000000
# 2 -0.007069 0.034290 -0.007434 0.000000 0.000000 0.000000
# 3 -0.010990 -0.007434 0.016628 0.000000 0.000000 0.000000
# 4 0.000000 0.000000 0.000000 0.107551 0.000000 0.000000
# 5 0.000000 0.000000 0.000000 0.000000 0.058514 0.000000
# 6 0.000000 0.000000 0.000000 0.000000 0.000000 0.086538
#
#
# Mechanical properties :
#
#
# Convention : Reuss Voigt Hill
#
# Bulk Modulus (GPa) = 43.54639 63.43025 53.48832
# Shear Modulus (GPa) = 12.98055 15.02524 14.00289
#
# Velocity S-wave (km/s) = 2.93374 3.15636 3.04708
# Velocity P-wave (km/s) = 6.35213 7.43917 6.91704
#
# Compressibility (1/GPa) = 0.02296402
#
# Stress axis : x y z
#
# Youngs Moduli (GPa) = 43.41924 29.16293 60.14097
#
# Poissons Ratio (x) = 0.20614 0.66096
# Poissons Ratio (y) = 0.30692 0.44707
# Poissons Ratio (z) = 0.47718 0.21679
#
# Static dielectric constant tensor:
#      x y z
#    x 1.489750 0.000000 0.000000 
#    y 0.000000 1.509230 0.000000 
#    z 0.000000 0.000000 1.503220 
# 
# From -- ./inp_files/59840.got.cif
#   From: 2010.05.17/outbox.cif.g08.bks.cpg/sg71_30_cif.got.tgz:59840.got - 2010.06.03 16:22:01.
