data_PCOD9518426
_publ_section_title
;
Structure prediction by ZEFSAII (Michael W. Deem and Ramdas Pophale) SiO2 
 PCOD9518426
Probable space group: I M M M
;
_chemical_formula_sum "Si O2"
_cell_formula_units_Z 72
_cell_length_a 12.557935
_cell_length_b 22.266051
_cell_length_c 12.954000
_cell_angle_alpha 90.000000
_cell_angle_beta 90.000000
_cell_angle_gamma 90.000000
_cell_volume 3622.140757
_symmetry_space_group_name_H-M "I M M M"
_symmetry_group_IT_number 71
_symmetry_cell_setting 'orthorhombic'
loop_
_space_group_symop_operation_xyz
x,y,z
-x,-y,z
x,-y,-z
-x,y,-z
-x,-y,-z
x,y,-z
-x,y,z
x,-y,z
1/2+x,1/2+y,1/2+z
1/2-x,1/2-y,1/2+z
1/2+x,1/2-y,1/2-z
1/2-x,1/2+y,1/2-z
1/2-x,1/2-y,1/2-z
1/2+x,1/2+y,1/2-z
1/2-x,1/2+y,1/2+z
1/2+x,1/2-y,1/2+z
loop_
_atom_site_type_symbol
_atom_site_label
_atom_site_fract_x
_atom_site_fract_y
_atom_site_fract_z
Si Si1 0.378536 0.933604 0.836098
Si Si2 0.122845 0.721664 0.834371
Si Si3 0.802210 0.693021 0.613101
Si Si4 0.802532 0.591609 0.881768
Si Si5 0.619165 0.500000 0.876449
O O1 0.500000 0.924279 0.870922
O O2 0.308464 0.878692 0.875252
O O3 0.377318 0.930059 0.711123
O O4 0.343394 0.000000 0.867072
O O5 0.131777 0.718572 0.709929
O O6 0.184396 0.780096 0.872984
O O7 0.189101 0.663655 0.874091
O O8 0.000000 0.717148 0.865746
O O9 0.842873 0.709897 0.500000
O O10 0.690658 0.559099 0.854392
O O11 0.829501 0.574655 0.000000
O O12 0.500000 0.500000 0.831812
O O13 0.608864 0.500000 0.000000
#
# Coordination Sequence:
#
# PCOD9518426 Si02
#       5
#    16  16  16  16   8
#     4  10  21  36  55  81 114 147 186 239 287 331
#     4  10  22  39  59  86 118 149 188 239 290 339
#     4  10  21  38  60  84 115 151 189 235 286 344
#     4  10  18  32  55  82 114 149 187 231 282 343
#     4   9  18  32  49  73 110 153 189 223 273 333
#
# _framework density 19.877746999999999
#
# number of rings (size 3 to 8) (size 9 to 14) (size 15 to 20)
#    0.000    2.111    1.111    3.333    0.000    5.333 
#    0.000   13.333    0.000   10.667    0.000    1.556 
#    0.000    0.000    0.000    0.000    0.000    0.000 
#
# Total GULP energy -200651.902885 kJ/mol
# GULP energy per Si atom -5573.663969 kJ/mol
# Density = 1.983250 g / cm^3
# Si number density = 19.877747 Si / 1000 Ang^3
#
#
#
# Elastic Constant Matrix: (Units=GPa)
#
#
# Indices 1 2 3 4 5 6 
#
# 1 121.8943 77.7622 9.2586 0.0000 0.0000 0.0000
# 2 77.7622 161.2255 15.3818 0.0000 0.0000 0.0000
# 3 9.2586 15.3818 108.9534 -0.0001 0.0000 0.0000
# 4 0.0000 0.0000 -0.0001 9.8597 0.0000 0.0000
# 5 0.0000 0.0000 0.0000 0.0000 1.9460 0.0000
# 6 0.0000 0.0000 0.0000 0.0000 0.0000 12.3268
#
#
#
# Elastic Compliance Matrix: (Units=1/GPa)
#
#
# Indices 1 2 3 4 5 6 
#
# 1 0.011854 -0.005698 -0.000203 0.000000 0.000000 0.000000
# 2 -0.005698 0.009026 -0.000790 0.000000 0.000000 0.000000
# 3 -0.000203 -0.000790 0.009307 0.000000 0.000000 0.000000
# 4 0.000000 0.000000 0.000000 0.101422 0.000000 0.000000
# 5 0.000000 0.000000 0.000000 0.000000 0.513873 0.000000
# 6 0.000000 0.000000 0.000000 0.000000 0.000000 0.081124
#
#
# Mechanical properties :
#
#
# Convention : Reuss Voigt Hill
#
# Bulk Modulus (GPa) = 59.50529 66.31982 62.91255
# Shear Modulus (GPa) = 6.70608 24.13787 15.42198
#
# Velocity S-wave (km/s) = 1.83875 3.48848 2.78841
# Velocity P-wave (km/s) = 5.87440 7.04715 6.48733
#
# Compressibility (1/GPa) = 0.01680523
#
# Stress axis : x y z
#
# Youngs Moduli (GPa) = 84.35655 110.78791 107.44575
#
# Poissons Ratio (x) = 0.63130 0.02180
# Poissons Ratio (y) = 0.48069 0.08489
# Poissons Ratio (z) = 0.01712 0.08753
#
# Static dielectric constant tensor:
#      x y z
#    x 1.691100 0.000000 0.000000 
#    y 0.000000 1.730560 0.000000 
#    z 0.000000 0.000000 1.754750 
# 
# From -- ./inp_files/32591.got.cif
#   From: 2010.05.17/outbox.cif.g08.bks.cpg/sg71_17_cif.got.tgz:32591.got - 2010.06.03 16:22:01.
