data_PCOD9518733
_publ_section_title
;
Structure prediction by ZEFSAII (Michael W. Deem and Ramdas Pophale) SiO2 
 PCOD9518733
Probable space group: I M M M
;
_chemical_formula_sum "Si O2"
_cell_formula_units_Z 120
_cell_length_a 22.827653
_cell_length_b 21.485173
_cell_length_c 15.190575
_cell_angle_alpha 90.000000
_cell_angle_beta 90.000000
_cell_angle_gamma 90.000000
_cell_volume 7450.309775
_symmetry_space_group_name_H-M "I M M M"
_symmetry_group_IT_number 71
_symmetry_cell_setting 'orthorhombic'
loop_
_space_group_symop_operation_xyz
x,y,z
-x,-y,z
x,-y,-z
-x,y,-z
-x,-y,-z
x,y,-z
-x,y,z
x,-y,z
1/2+x,1/2+y,1/2+z
1/2-x,1/2-y,1/2+z
1/2+x,1/2-y,1/2-z
1/2-x,1/2+y,1/2-z
1/2-x,1/2-y,1/2-z
1/2+x,1/2+y,1/2-z
1/2-x,1/2+y,1/2+z
1/2+x,1/2-y,1/2+z
loop_
_atom_site_type_symbol
_atom_site_label
_atom_site_fract_x
_atom_site_fract_y
_atom_site_fract_z
Si Si1 0.310539 0.570086 0.660867
Si Si2 0.568251 0.574238 0.000000
Si Si3 0.392820 0.187645 0.100486
Si Si4 0.838341 0.790977 0.896740
Si Si5 0.181107 0.571310 0.397347
Si Si6 0.565958 0.730296 0.256784
Si Si7 0.636231 0.379265 0.171869
Si Si8 0.219711 0.777174 0.399176
O O1 0.320597 0.500000 0.622463
O O2 0.334054 0.633845 0.615952
O O3 0.240092 0.578883 0.659191
O O4 0.340528 0.572283 0.756589
O O5 0.605807 0.595342 0.915558
O O6 0.564806 0.500000 0.000000
O O7 0.500000 0.597825 0.000000
O O8 0.371302 0.118310 0.121827
O O9 0.429020 0.218968 0.178613
O O10 0.332581 0.227157 0.099280
O O11 0.417183 0.190864 0.000000
O O12 0.888819 0.761809 0.836566
O O13 0.777730 0.757854 0.867230
O O14 0.846632 0.779234 0.000000
O O15 0.198603 0.583297 0.500000
O O16 0.162173 0.500000 0.390525
O O17 0.500000 0.726930 0.288676
O O18 0.587257 0.665517 0.214164
O O19 0.692429 0.335179 0.152144
O O20 0.230394 0.796997 0.500000
#
# Coordination Sequence:
#
# PCOD9518733 Si02
#       8
#    16   8  16  16  16  16  16  16
#     4  10  19  29  47  74 103 131 162 199 244 297
#     4  11  22  36  52  68  96 142 180 206 244 293
#     4   9  17  29  48  73 103 131 160 200 245 301
#     4  10  20  33  52  73  99 130 166 207 256 302
#     4   9  16  27  45  72 105 135 160 189 236 304
#     4  10  22  34  49  72  97 129 169 211 252 297
#     4  10  20  33  50  70  99 128 168 211 248 294
#     4   9  16  29  48  73  95 124 160 203 255 302
#
# _framework density 16.106712999999999
#
# number of rings (size 3 to 8) (size 9 to 14) (size 15 to 20)
#    0.000    2.333    2.000    1.200    2.800    2.933 
#    0.000    0.000    0.000    4.000    0.000    5.600 
#    0.000    0.000    0.000    1.200    0.000    0.000 
#
# Total GULP energy -334025.234335 kJ/mol
# GULP energy per Si atom -5567.087239 kJ/mol
# Density = 1.607005 g / cm^3
# Si number density = 16.106713 Si / 1000 Ang^3
#
#
#
# Elastic Constant Matrix: (Units=GPa)
#
#
# Indices 1 2 3 4 5 6 
#
# 1 75.3086 21.6291 28.6834 0.0000 0.0000 0.0000
# 2 21.6291 63.3883 17.8223 0.0000 0.0000 0.0000
# 3 28.6834 17.8223 50.3323 0.0000 0.0000 0.0000
# 4 0.0000 0.0000 0.0000 17.8981 0.0000 0.0000
# 5 0.0000 0.0000 0.0000 0.0000 18.1600 0.0000
# 6 0.0000 0.0000 0.0000 0.0000 0.0000 9.3063
#
#
#
# Elastic Compliance Matrix: (Units=1/GPa)
#
#
# Indices 1 2 3 4 5 6 
#
# 1 0.017650 -0.003548 -0.008802 0.000000 0.000000 0.000000
# 2 -0.003548 0.018233 -0.004434 0.000000 0.000000 0.000000
# 3 -0.008802 -0.004434 0.026454 0.000000 0.000000 0.000000
# 4 0.000000 0.000000 0.000000 0.055872 0.000000 0.000000
# 5 0.000000 0.000000 0.000000 0.000000 0.055066 0.000000
# 6 0.000000 0.000000 0.000000 0.000000 0.000000 0.107455
#
#
# Mechanical properties :
#
#
# Convention : Reuss Voigt Hill
#
# Bulk Modulus (GPa) = 34.75979 36.14431 35.45205
# Shear Modulus (GPa) = 15.43741 17.13252 16.28496
#
# Velocity S-wave (km/s) = 3.09924 3.26496 3.18318
# Velocity P-wave (km/s) = 5.86812 6.05826 5.96395
#
# Compressibility (1/GPa) = 0.02876887
#
# Stress axis : x y z
#
# Youngs Moduli (GPa) = 56.65651 54.84538 37.80086
#
# Poissons Ratio (x) = 0.19457 0.33274
# Poissons Ratio (y) = 0.20100 0.16763
# Poissons Ratio (z) = 0.49871 0.24321
#
# Static dielectric constant tensor:
#      x y z
#    x 1.524930 0.000000 0.000000 
#    y 0.000000 1.566620 0.000000 
#    z 0.000000 0.000000 1.572480 
# 
# From -- ./inp_files/38404.got.cif
#   From: 2010.05.17/outbox.cif.g08.bks.cpg/sg71_20_cif.got.tgz:38404.got - 2010.06.03 16:22:01.
