data_PCOD9518010
_publ_section_title
;
Structure prediction by ZEFSAII (Michael W. Deem and Ramdas Pophale) SiO2 
 PCOD9518010
Probable space group: I M M M
;
_chemical_formula_sum "Si O2"
_cell_formula_units_Z 108
_cell_length_a 16.141960
_cell_length_b 14.771705
_cell_length_c 25.432844
_cell_angle_alpha 90.000000
_cell_angle_beta 90.000000
_cell_angle_gamma 90.000000
_cell_volume 6064.315953
_symmetry_space_group_name_H-M "I M M M"
_symmetry_group_IT_number 71
_symmetry_cell_setting 'orthorhombic'
loop_
_space_group_symop_operation_xyz
x,y,z
-x,-y,z
x,-y,-z
-x,y,-z
-x,-y,-z
x,y,-z
-x,y,z
x,-y,z
1/2+x,1/2+y,1/2+z
1/2-x,1/2-y,1/2+z
1/2+x,1/2-y,1/2-z
1/2-x,1/2+y,1/2-z
1/2-x,1/2-y,1/2-z
1/2+x,1/2+y,1/2-z
1/2-x,1/2+y,1/2+z
1/2+x,1/2-y,1/2+z
loop_
_atom_site_type_symbol
_atom_site_label
_atom_site_fract_x
_atom_site_fract_y
_atom_site_fract_z
Si Si1 0.670548 0.603885 0.902181
Si Si2 0.318940 0.398232 0.688170
Si Si3 0.138454 0.344931 0.267740
Si Si4 0.350674 0.108899 0.438652
Si Si5 0.095700 0.725123 0.155839
Si Si6 0.403934 0.641684 0.204389
Si Si7 0.000000 0.895914 0.562062
Si Si8 0.500000 0.000000 0.217607
O O1 0.668261 0.500000 0.921504
O O2 0.756304 0.638434 0.924844
O O3 0.659259 0.605708 0.839638
O O4 0.585647 0.649581 0.921213
O O5 0.316401 0.500000 0.666448
O O6 0.228656 0.370067 0.710098
O O7 0.354997 0.319496 0.650959
O O8 0.379043 0.396058 0.738967
O O9 0.137827 0.328277 0.204598
O O10 0.109616 0.249311 0.291820
O O11 0.072427 0.421447 0.280332
O O12 0.369202 0.125435 0.500000
O O13 0.402511 0.164678 0.396344
O O14 0.358189 0.000000 0.429780
O O15 0.000000 0.742413 0.170941
O O16 0.500000 0.620765 0.191711
O O17 0.000000 0.902391 0.500000
O O18 0.000000 0.000000 0.583757
#
# Coordination Sequence:
#
# PCOD9518010 Si02
#       8
#    16  16  16  16  16  16   8   4
#     4  10  18  30  48  72 105 144 181 216 265 320
#     4  11  22  35  56  79 111 147 181 223 267 321
#     4  11  21  36  52  79 111 145 184 219 263 321
#     4  10  22  38  57  80 106 139 182 232 280 326
#     4  11  23  38  56  80 109 144 182 225 276 326
#     4  11  20  32  48  77 113 145 184 225 264 315
#     4   9  16  25  40  63  96 137 178 217 254 302
#     4  12  20  34  56  74 109 152 179 220 264 312
#
# _framework density 17.809099
#
# number of rings (size 3 to 8) (size 9 to 14) (size 15 to 20)
#    0.000    1.407    2.963    5.778    1.037    5.333 
#    0.000    0.741    0.000    0.444    0.000    1.037 
#    0.000    0.000    0.000    6.370    0.000    0.000 
#
# Total GULP energy -300732.297469 kJ/mol
# GULP energy per Si atom -5569.116620 kJ/mol
# Density = 1.776856 g / cm^3
# Si number density = 17.809099 Si / 1000 Ang^3
#
#
#
# Elastic Constant Matrix: (Units=GPa)
#
#
# Indices 1 2 3 4 5 6 
#
# 1 93.2672 35.1851 11.4255 0.0000 0.0000 0.0000
# 2 35.1851 99.1356 20.8161 0.0000 0.0000 0.0000
# 3 11.4255 20.8161 62.8099 0.0000 0.0000 0.0000
# 4 0.0000 0.0000 0.0000 20.8233 0.0000 0.0000
# 5 0.0000 0.0000 0.0000 0.0000 17.6034 0.0000
# 6 0.0000 0.0000 0.0000 0.0000 0.0000 1.8970
#
#
#
# Elastic Compliance Matrix: (Units=1/GPa)
#
#
# Indices 1 2 3 4 5 6 
#
# 1 0.012422 -0.004229 -0.000858 0.000000 0.000000 0.000000
# 2 -0.004229 0.012281 -0.003301 0.000000 0.000000 0.000000
# 3 -0.000858 -0.003301 0.017171 0.000000 0.000000 0.000000
# 4 0.000000 0.000000 0.000000 0.048023 0.000000 0.000000
# 5 0.000000 0.000000 0.000000 0.000000 0.056807 0.000000
# 6 0.000000 0.000000 0.000000 0.000000 0.000000 0.527154
#
#
# Mechanical properties :
#
#
# Convention : Reuss Voigt Hill
#
# Bulk Modulus (GPa) = 39.84240 43.34066 41.59153
# Shear Modulus (GPa) = 7.15306 20.58379 13.86843
#
# Velocity S-wave (km/s) = 2.00630 3.40340 2.79360
# Velocity P-wave (km/s) = 5.27138 6.31136 5.81467
#
# Compressibility (1/GPa) = 0.02509889
#
# Stress axis : x y z
#
# Youngs Moduli (GPa) = 80.50042 81.42558 58.23718
#
# Poissons Ratio (x) = 0.34432 0.04998
# Poissons Ratio (y) = 0.34041 0.19224
# Poissons Ratio (z) = 0.06909 0.26878
#
# Static dielectric constant tensor:
#      x y z
#    x 1.669390 0.000000 0.000000 
#    y 0.000000 1.619380 0.000000 
#    z 0.000000 0.000000 1.616900 
# 
# From -- ./inp_files/65567.got.cif
#   From: 2010.05.17/outbox.cif.g08.bks.cpg/sg71_33_cif.got.tgz:65567.got - 2010.06.03 16:22:01.
