data_PCOD9518256
_publ_section_title
;
Structure prediction by ZEFSAII (Michael W. Deem and Ramdas Pophale) SiO2 
 PCOD9518256
Probable space group: I M M M
;
_chemical_formula_sum "Si O2"
_cell_formula_units_Z 88
_cell_length_a 21.423190
_cell_length_b 7.467307
_cell_length_c 26.158558
_cell_angle_alpha 90.000000
_cell_angle_beta 90.000000
_cell_angle_gamma 90.000000
_cell_volume 4184.677037
_symmetry_space_group_name_H-M "I M M M"
_symmetry_group_IT_number 71
_symmetry_cell_setting 'orthorhombic'
loop_
_space_group_symop_operation_xyz
x,y,z
-x,-y,z
x,-y,-z
-x,y,-z
-x,-y,-z
x,y,-z
-x,y,z
x,-y,z
1/2+x,1/2+y,1/2+z
1/2-x,1/2-y,1/2+z
1/2+x,1/2-y,1/2-z
1/2-x,1/2+y,1/2-z
1/2-x,1/2-y,1/2-z
1/2+x,1/2+y,1/2-z
1/2-x,1/2+y,1/2+z
1/2+x,1/2-y,1/2+z
loop_
_atom_site_type_symbol
_atom_site_label
_atom_site_fract_x
_atom_site_fract_y
_atom_site_fract_z
Si Si1 0.670240 0.783824 0.195526
Si Si2 0.769780 0.218851 0.000000
Si Si3 0.366806 0.704645 0.583302
Si Si4 0.000000 0.205280 0.060949
Si Si5 0.183708 0.710796 0.809698
Si Si6 0.571523 0.781219 0.109644
Si Si7 0.626227 0.218800 0.000000
O O1 0.741970 0.736970 0.183754
O O2 0.661942 0.720984 0.254134
O O3 0.620522 0.721625 0.153315
O O4 0.666790 0.000000 0.196135
O O5 0.810175 0.277716 0.950901
O O6 0.698330 0.278819 0.000000
O O7 0.765212 0.000000 0.000000
O O8 0.373800 0.500000 0.564395
O O9 0.434453 0.790693 0.576499
O O10 0.348985 0.703769 0.642078
O O11 0.000000 0.000000 0.082024
O O12 0.000000 0.197123 0.000000
O O13 0.170820 0.500000 0.811334
O O14 0.500000 0.726638 0.119445
O O15 0.593215 0.725557 0.052801
O O16 0.572649 0.000000 0.110010
O O17 0.625158 0.000000 0.000000
#
# Coordination Sequence:
#
# PCOD9518256 Si02
#       7
#    16   8  16   8  16  16   8
#     4   9  18  34  53  72  96 132 171 204 245 296
#     4   9  16  26  47  75  99 126 163 204 244 291
#     4  10  18  31  52  75 100 131 167 209 252 298
#     4   9  16  30  51  75 101 131 171 212 251 300
#     4  10  20  33  50  74 100 129 167 211 254 296
#     4   9  16  27  45  70 100 128 155 193 240 290
#     4   9  15  22  38  71 103 120 145 192 248 288
#
# _framework density 21.029102999999999
#
# number of rings (size 3 to 8) (size 9 to 14) (size 15 to 20)
#    0.000    2.636    0.909    1.909    0.000    4.727 
#    1.636    0.909    0.000    1.091    0.000    0.000 
#    0.000    2.909    0.000    0.000    0.000    0.000 
#
# Total GULP energy -245503.410713 kJ/mol
# GULP energy per Si atom -5579.622971 kJ/mol
# Density = 2.098124 g / cm^3
# Si number density = 21.029103 Si / 1000 Ang^3
#
#
#
# Elastic Constant Matrix: (Units=GPa)
#
#
# Indices 1 2 3 4 5 6 
#
# 1 106.8110 6.3141 69.4081 0.0000 0.0000 0.0000
# 2 6.3141 61.3751 7.4126 0.0000 0.0000 0.0000
# 3 69.4081 7.4126 145.3002 0.0000 0.0000 0.0000
# 4 0.0000 0.0000 0.0000 9.6388 0.0000 0.0000
# 5 0.0000 0.0000 0.0000 0.0000 13.7746 0.0000
# 6 0.0000 0.0000 0.0000 0.0000 0.0000 -4.9912
#
#
#
# Elastic Compliance Matrix: (Units=1/GPa)
#
#
# Indices 1 2 3 4 5 6 
#
# 1 0.013600 -0.000618 -0.006465 0.000000 0.000000 0.000000
# 2 -0.000618 0.016422 -0.000542 0.000000 0.000000 0.000000
# 3 -0.006465 -0.000542 0.009998 0.000000 0.000000 0.000000
# 4 0.000000 0.000000 0.000000 0.103747 0.000000 0.000000
# 5 0.000000 0.000000 0.000000 0.000000 0.072597 0.000000
# 6 0.000000 0.000000 0.000000 0.000000 0.000000 -0.200353
#
#
# Mechanical properties :
#
#
# Convention : Reuss Voigt Hill
#
# Bulk Modulus (GPa) = 40.37293 53.30623 46.83958
# Shear Modulus (GPa) = 126.51843 19.04120 72.77982
#
# Velocity S-wave (km/s) = 7.76493 3.01237 5.88933
# Velocity P-wave (km/s) = 9.98160 6.12397 8.28056
#
# Compressibility (1/GPa) = 0.02476907
#
# Stress axis : x y z
#
# Youngs Moduli (GPa) = 73.52948 60.89252 100.01770
#
# Poissons Ratio (x) = 0.03765 0.64661
# Poissons Ratio (y) = 0.04546 0.05425
# Poissons Ratio (z) = 0.47537 0.03303
#
# Static dielectric constant tensor:
#      x y z
#    x 1.738470 0.000000 0.000000 
#    y 0.000000 1.832350 0.000000 
#    z 0.000000 0.000000 1.724740 
# 
# From -- ./inp_files/61173.got.cif
#   From: 2010.05.17/outbox.cif.g08.bks.cpg/sg71_31_cif.got.tgz:61173.got - 2010.06.03 16:22:01.
