data_PCOD9518022
_publ_section_title
;
Structure prediction by ZEFSAII (Michael W. Deem and Ramdas Pophale) SiO2 
 PCOD9518022
Probable space group: I M M M
;
_chemical_formula_sum "Si O2"
_cell_formula_units_Z 120
_cell_length_a 21.713950
_cell_length_b 22.435562
_cell_length_c 13.159299
_cell_angle_alpha 90.000000
_cell_angle_beta 90.000000
_cell_angle_gamma 90.000000
_cell_volume 6410.745574
_symmetry_space_group_name_H-M "I M M M"
_symmetry_group_IT_number 71
_symmetry_cell_setting 'orthorhombic'
loop_
_space_group_symop_operation_xyz
x,y,z
-x,-y,z
x,-y,-z
-x,y,-z
-x,-y,-z
x,y,-z
-x,y,z
x,-y,z
1/2+x,1/2+y,1/2+z
1/2-x,1/2-y,1/2+z
1/2+x,1/2-y,1/2-z
1/2-x,1/2+y,1/2-z
1/2-x,1/2-y,1/2-z
1/2+x,1/2+y,1/2-z
1/2-x,1/2+y,1/2+z
1/2+x,1/2-y,1/2+z
loop_
_atom_site_type_symbol
_atom_site_label
_atom_site_fract_x
_atom_site_fract_y
_atom_site_fract_z
Si Si1 0.431734 0.204790 0.169688
Si Si2 0.694083 0.069039 0.679441
Si Si3 0.384697 0.820452 0.387187
Si Si4 0.363924 0.098110 0.116955
Si Si5 0.266090 0.732485 0.388281
Si Si6 0.500000 0.929367 0.116341
Si Si7 0.069194 0.156490 0.619226
Si Si8 0.300432 0.342329 0.195743
O O1 0.500000 0.180657 0.140869
O O2 0.425309 0.198386 0.291162
O O3 0.373688 0.169381 0.123355
O O4 0.431898 0.272154 0.133393
O O5 0.642635 0.113213 0.631774
O O6 0.683009 0.073122 0.801483
O O7 0.757626 0.103730 0.658367
O O8 0.691948 0.000000 0.647894
O O9 0.412287 0.817086 0.500000
O O10 0.326995 0.774646 0.383760
O O11 0.431987 0.081801 0.159657
O O12 0.356282 0.079379 0.000000
O O13 0.259726 0.706579 0.500000
O O14 0.276453 0.681198 0.305312
O O15 0.213050 0.781415 0.367209
O O16 0.500000 0.000000 0.109500
O O17 0.500000 0.907485 0.000000
O O18 0.079151 0.142576 0.500000
O O19 0.128661 0.138785 0.685254
O O20 0.000000 0.135011 0.647618
#
# Coordination Sequence:
#
# PCOD9518022 Si02
#       8
#    16  16  16  16  16   8  16  16
#     4  10  18  30  48  75 106 136 169 203 248 308
#     4  10  22  36  51  73 101 137 182 225 263 307
#     4   9  18  33  50  70  99 133 172 215 254 294
#     4  10  19  31  47  73 106 138 174 214 261 311
#     4   9  17  30  50  76 103 134 171 210 256 309
#     4   9  16  26  42  62  91 135 177 209 245 293
#     4  10  20  33  53  81 111 136 160 200 261 329
#     4  10  19  34  52  76 105 138 174 215 265 317
#
# _framework density 18.718572000000002
#
# number of rings (size 3 to 8) (size 9 to 14) (size 15 to 20)
#    0.000    2.333    2.000    1.200    1.867    2.933 
#    0.000    0.000    0.000    0.800    0.000    2.800 
#    0.000    0.000    0.000    2.400    0.000    0.000 
#
# Total GULP energy -334192.195121 kJ/mol
# GULP energy per Si atom -5569.869919 kJ/mol
# Density = 1.867597 g / cm^3
# Si number density = 18.718572 Si / 1000 Ang^3
#
#
#
# Elastic Constant Matrix: (Units=GPa)
#
#
# Indices 1 2 3 4 5 6 
#
# 1 77.8992 -0.1128 -4.8230 0.0000 0.0000 0.0000
# 2 -0.1128 42.1288 -9.5253 0.0000 0.0000 0.0000
# 3 -4.8230 -9.5253 66.6075 0.0000 0.0000 0.0000
# 4 0.0000 0.0000 0.0000 7.7148 0.0000 0.0000
# 5 0.0000 0.0000 0.0000 0.0000 17.8490 0.0000
# 6 0.0000 0.0000 0.0000 0.0000 0.0000 11.9485
#
#
#
# Elastic Compliance Matrix: (Units=1/GPa)
#
#
# Indices 1 2 3 4 5 6 
#
# 1 0.012898 0.000254 0.000970 0.000000 0.000000 0.000000
# 2 0.000254 0.024535 0.003527 0.000000 0.000000 0.000000
# 3 0.000970 0.003527 0.015588 0.000000 0.000000 0.000000
# 4 0.000000 0.000000 0.000000 0.129621 0.000000 0.000000
# 5 0.000000 0.000000 0.000000 0.000000 0.056026 0.000000
# 6 0.000000 0.000000 0.000000 0.000000 0.000000 0.083693
#
#
# Mechanical properties :
#
#
# Convention : Reuss Voigt Hill
#
# Bulk Modulus (GPa) = 15.99420 17.52371 16.75895
# Shear Modulus (GPa) = 14.98361 20.90889 17.94625
#
# Velocity S-wave (km/s) = 2.83232 3.34580 3.09971
# Velocity P-wave (km/s) = 4.38853 4.93030 4.66728
#
# Compressibility (1/GPa) = 0.06252265
#
# Stress axis : x y z
#
# Youngs Moduli (GPa) = 77.53422 40.75828 64.15208
#
# Poissons Ratio (x) = -0.01035 -0.06224
# Poissons Ratio (y) = -0.01969 -0.22627
# Poissons Ratio (z) = -0.07522 -0.14376
#
# Static dielectric constant tensor:
#      x y z
#    x 1.717480 0.000000 0.000000 
#    y 0.000000 1.704390 0.000000 
#    z 0.000000 0.000000 1.684010 
# 
# From -- ./inp_files/38530.got.cif
#   From: 2010.05.17/outbox.cif.g08.bks.cpg/sg71_20_cif.got.tgz:38530.got - 2010.06.03 16:22:01.
