data_PCOD9518593
_publ_section_title
;
Structure prediction by ZEFSAII (Michael W. Deem and Ramdas Pophale) SiO2 
 PCOD9518593
Probable space group: I M M M
;
_chemical_formula_sum "Si O2"
_cell_formula_units_Z 96
_cell_length_a 9.152426
_cell_length_b 23.741864
_cell_length_c 39.515137
_cell_angle_alpha 90.000000
_cell_angle_beta 90.000000
_cell_angle_gamma 90.000000
_cell_volume 8586.467512
_symmetry_space_group_name_H-M "I M M M"
_symmetry_group_IT_number 71
_symmetry_cell_setting 'orthorhombic'
loop_
_space_group_symop_operation_xyz
x,y,z
-x,-y,z
x,-y,-z
-x,y,-z
-x,-y,-z
x,y,-z
-x,y,z
x,-y,z
1/2+x,1/2+y,1/2+z
1/2-x,1/2-y,1/2+z
1/2+x,1/2-y,1/2-z
1/2-x,1/2+y,1/2-z
1/2-x,1/2-y,1/2-z
1/2+x,1/2+y,1/2-z
1/2-x,1/2+y,1/2+z
1/2+x,1/2-y,1/2+z
loop_
_atom_site_type_symbol
_atom_site_label
_atom_site_fract_x
_atom_site_fract_y
_atom_site_fract_z
Si Si1 0.824611 0.434609 0.234259
Si Si2 0.174581 0.877084 0.670000
Si Si3 0.667374 0.227939 0.301650
Si Si4 0.332534 0.828559 0.773400
Si Si5 0.669754 0.431667 0.962251
Si Si6 0.328189 0.932151 0.393970
O O1 0.796397 0.500000 0.241060
O O2 0.740272 0.414108 0.200881
O O3 0.785944 0.392290 0.264882
O O4 0.000000 0.427555 0.228348
O O5 0.234640 0.813982 0.676240
O O6 0.237217 0.902353 0.635414
O O7 0.000000 0.878276 0.670808
O O8 0.500000 0.228336 0.313306
O O9 0.668344 0.200689 0.263846
O O10 0.732531 0.290193 0.297039
O O11 0.500000 0.827854 0.785478
O O12 0.500000 0.415673 0.956883
O O13 0.673290 0.500000 0.962747
O O14 0.769148 0.414300 0.930850
O O15 0.714834 0.412810 0.000000
O O16 0.500000 0.920158 0.390305
O O17 0.309263 0.000000 0.391034
#
# Coordination Sequence:
#
# PCOD9518593 Si02
#       6
#    16  16  16  16  16  16
#     4   9  17  28  39  50  66  86 105 127 158 195
#     4  11  20  27  36  49  65  84 106 132 162 196
#     4   9  16  26  38  49  62  80 102 128 157 189
#     4   8  14  24  37  51  64  79 101 127 154 186
#     4   8  14  25  39  52  65  81 102 128 156 186
#     4  10  19  28  37  49  66  86 106 129 159 196
#
# _framework density 11.180383000000001
#
# number of rings (size 3 to 8) (size 9 to 14) (size 15 to 20)
#    0.000    2.833    0.000    4.500    0.000    7.667 
#    0.000    1.667    0.000    0.000    0.000    0.000 
#    0.000    0.000    0.000    0.000    0.000    0.000 
#
# Total GULP energy -267224.278213 kJ/mol
# GULP energy per Si atom -5567.172463 kJ/mol
# Density = 1.115494 g / cm^3
# Si number density = 11.180383 Si / 1000 Ang^3
#
#
#
# Elastic Constant Matrix: (Units=GPa)
#
#
# Indices 1 2 3 4 5 6 
#
# 1 70.8136 40.4933 34.5526 0.0000 0.0000 0.0000
# 2 40.4933 70.5358 31.5626 0.0000 0.0000 0.0000
# 3 34.5526 31.5626 36.3490 0.0000 0.0000 0.0000
# 4 0.0000 0.0000 0.0000 9.5826 0.0000 0.0000
# 5 0.0000 0.0000 0.0000 0.0000 16.3144 0.0000
# 6 0.0000 0.0000 0.0000 0.0000 0.0000 14.9534
#
#
#
# Elastic Compliance Matrix: (Units=1/GPa)
#
#
# Indices 1 2 3 4 5 6 
#
# 1 0.028235 -0.006868 -0.020876 0.000000 0.000000 0.000000
# 2 -0.006868 0.024857 -0.015055 0.000000 0.000000 0.000000
# 3 -0.020876 -0.015055 0.060428 0.000000 0.000000 0.000000
# 4 0.000000 0.000000 0.000000 0.104356 0.000000 0.000000
# 5 0.000000 0.000000 0.000000 0.000000 0.061296 0.000000
# 6 0.000000 0.000000 0.000000 0.000000 0.000000 0.066874
#
#
# Mechanical properties :
#
#
# Convention : Reuss Voigt Hill
#
# Bulk Modulus (GPa) = 35.81449 43.43503 39.62476
# Shear Modulus (GPa) = 11.33913 12.90941 12.12427
#
# Velocity S-wave (km/s) = 3.18810 3.40170 3.29663
# Velocity P-wave (km/s) = 6.75684 7.37309 7.07168
#
# Compressibility (1/GPa) = 0.02792166
#
# Stress axis : x y z
#
# Youngs Moduli (GPa) = 35.41699 40.23081 16.54857
#
# Poissons Ratio (x) = 0.27630 0.34547
# Poissons Ratio (y) = 0.24324 0.24914
# Poissons Ratio (z) = 0.73937 0.60568
#
# Static dielectric constant tensor:
#      x y z
#    x 1.375200 0.000000 0.000000 
#    y 0.000000 1.363180 0.000000 
#    z 0.000000 0.000000 1.344740 
# 
# From -- ./inp_files/63657.got.cif
#   From: 2010.05.17/outbox.cif.g08.bks.cpg/sg71_32_cif.got.tgz:63657.got - 2010.06.03 16:22:01.
