data_PCOD9518877
_publ_section_title
;
Structure prediction by ZEFSAII (Michael W. Deem and Ramdas Pophale) SiO2 
 PCOD9518877
Probable space group: I M M M
;
_chemical_formula_sum "Si O2"
_cell_formula_units_Z 112
_cell_length_a 25.845251
_cell_length_b 7.318898
_cell_length_c 26.279092
_cell_angle_alpha 90.000000
_cell_angle_beta 90.000000
_cell_angle_gamma 90.000000
_cell_volume 4970.920348
_symmetry_space_group_name_H-M "I M M M"
_symmetry_group_IT_number 71
_symmetry_cell_setting 'orthorhombic'
loop_
_space_group_symop_operation_xyz
x,y,z
-x,-y,z
x,-y,-z
-x,y,-z
-x,-y,-z
x,y,-z
-x,y,z
x,-y,z
1/2+x,1/2+y,1/2+z
1/2-x,1/2-y,1/2+z
1/2+x,1/2-y,1/2-z
1/2-x,1/2+y,1/2-z
1/2-x,1/2-y,1/2-z
1/2+x,1/2+y,1/2-z
1/2-x,1/2+y,1/2+z
1/2+x,1/2-y,1/2+z
loop_
_atom_site_type_symbol
_atom_site_label
_atom_site_fract_x
_atom_site_fract_y
_atom_site_fract_z
Si Si1 0.133707 0.713426 0.942795
Si Si2 0.439999 0.223211 0.351951
Si Si3 0.400969 0.222707 0.758996
Si Si4 0.250875 0.279425 0.595435
Si Si5 0.443882 0.222326 0.135338
Si Si6 0.288762 0.216628 0.204408
Si Si7 0.358682 0.222369 0.944372
O O1 0.120335 0.500000 0.946451
O O2 0.096366 0.786948 0.898368
O O3 0.193419 0.722601 0.925015
O O4 0.128509 0.790633 0.000000
O O5 0.500000 0.276168 0.357795
O O6 0.418092 0.283052 0.296927
O O7 0.438705 0.000000 0.351432
O O8 0.437583 0.275021 0.805826
O O9 0.344395 0.285618 0.777323
O O10 0.400293 0.000000 0.756860
O O11 0.252492 0.500000 0.595346
O O12 0.236861 0.214730 0.652395
O O13 0.200831 0.222329 0.563107
O O14 0.500000 0.278992 0.115637
O O15 0.396088 0.284335 0.100817
O O16 0.442358 0.000000 0.134409
O O17 0.250000 0.250000 0.250000
O O18 0.296077 0.000000 0.196049
O O19 0.358735 0.000000 0.942589
O O20 0.377591 0.277494 0.000000
#
# Coordination Sequence:
#
# PCOD9518877 Si02
#       7
#    16  16  16  16  16  16  16
#     4  10  21  35  51  74 102 129 164 214 260 296
#     4   9  17  29  47  70  95 127 163 199 248 304
#     4   9  15  26  42  64  94 123 155 197 241 288
#     4  10  19  33  51  72  99 134 172 203 240 299
#     4   9  15  23  37  59  89 123 157 194 236 281
#     4  10  19  30  47  71 101 132 161 197 241 290
#     4   9  16  26  40  60  89 125 163 199 235 279
#
# _framework density 22.531039
#
# number of rings (size 3 to 8) (size 9 to 14) (size 15 to 20)
#    0.000    2.571    1.429    1.714    0.000    4.857 
#    0.000    2.857    0.000    0.429    0.000    1.000 
#    0.000    3.429    0.000    3.000    0.000    2.857 
#
# Total GULP energy -312766.853177 kJ/mol
# GULP energy per Si atom -5585.122378 kJ/mol
# Density = 2.247976 g / cm^3
# Si number density = 22.531039 Si / 1000 Ang^3
#
#
#
# Elastic Constant Matrix: (Units=GPa)
#
#
# Indices 1 2 3 4 5 6 
#
# 1 120.7161 -6.4209 89.8194 0.0000 0.0000 0.0000
# 2 -6.4209 87.6343 4.0335 0.0000 0.0000 0.0000
# 3 89.8194 4.0335 214.3880 0.0000 0.0000 0.0000
# 4 0.0000 0.0000 0.0000 -3.8197 0.0000 0.0000
# 5 0.0000 0.0000 0.0000 0.0000 11.4650 0.0000
# 6 0.0000 0.0000 0.0000 0.0000 0.0000 4.0470
#
#
#
# Elastic Compliance Matrix: (Units=1/GPa)
#
#
# Indices 1 2 3 4 5 6 
#
# 1 0.012146 0.001125 -0.005110 0.000000 0.000000 0.000000
# 2 0.001125 0.011525 -0.000688 0.000000 0.000000 0.000000
# 3 -0.005110 -0.000688 0.006818 0.000000 0.000000 0.000000
# 4 0.000000 0.000000 0.000000 -0.261802 0.000000 0.000000
# 5 0.000000 0.000000 0.000000 0.000000 0.087222 0.000000
# 6 0.000000 0.000000 0.000000 0.000000 0.000000 0.247099
#
#
# Mechanical properties :
#
#
# Convention : Reuss Voigt Hill
#
# Bulk Modulus (GPa) = 47.29620 66.40026 56.84823
# Shear Modulus (GPa) = 41.87542 24.69221 33.28382
#
# Velocity S-wave (km/s) = 4.31579 3.31406 3.84766
# Velocity P-wave (km/s) = 6.77287 6.64669 6.71008
#
# Compressibility (1/GPa) = 0.02114335
#
# Stress axis : x y z
#
# Youngs Moduli (GPa) = 82.33433 86.76663 146.66814
#
# Poissons Ratio (x) = -0.09762 0.74942
# Poissons Ratio (y) = -0.09263 0.10094
# Poissons Ratio (z) = 0.42070 0.05971
#
# Static dielectric constant tensor:
#      x y z
#    x 1.788660 0.000000 0.000000 
#    y 0.000000 1.938710 0.000000 
#    z 0.000000 0.000000 1.807530 
# 
# From -- ./inp_files/27805.got.cif
#   From: 2010.05.17/outbox.cif.g08.bks.cpg/sg71_14_cif.got.tgz:27805.got - 2010.06.03 16:22:01.
