data_PCOD9518628
_publ_section_title
;
Structure prediction by ZEFSAII (Michael W. Deem and Ramdas Pophale) SiO2 
 PCOD9518628
Probable space group: I M M M
;
_chemical_formula_sum "Si O2"
_cell_formula_units_Z 104
_cell_length_a 8.601643
_cell_length_b 25.120072
_cell_length_c 20.373111
_cell_angle_alpha 90.000000
_cell_angle_beta 90.000000
_cell_angle_gamma 90.000000
_cell_volume 4402.097375
_symmetry_space_group_name_H-M "I M M M"
_symmetry_group_IT_number 71
_symmetry_cell_setting 'orthorhombic'
loop_
_space_group_symop_operation_xyz
x,y,z
-x,-y,z
x,-y,-z
-x,y,-z
-x,-y,-z
x,y,-z
-x,y,z
x,-y,z
1/2+x,1/2+y,1/2+z
1/2-x,1/2-y,1/2+z
1/2+x,1/2-y,1/2-z
1/2-x,1/2+y,1/2-z
1/2-x,1/2-y,1/2-z
1/2+x,1/2+y,1/2-z
1/2-x,1/2+y,1/2+z
1/2+x,1/2-y,1/2+z
loop_
_atom_site_type_symbol
_atom_site_label
_atom_site_fract_x
_atom_site_fract_y
_atom_site_fract_z
Si Si1 0.172534 0.603421 0.923867
Si Si2 0.681707 0.224434 0.614188
Si Si3 0.815089 0.328705 0.243647
Si Si4 0.000000 0.063032 0.424971
Si Si5 0.817467 0.057833 0.900889
Si Si6 0.815296 0.941223 0.258344
Si Si7 0.684653 0.830598 0.106503
O O1 0.187543 0.667451 0.921158
O O2 0.334128 0.580429 0.896282
O O3 0.000000 0.589906 0.896656
O O4 0.168582 0.585823 0.000000
O O5 0.500000 0.238682 0.620201
O O6 0.748822 0.210047 0.687118
O O7 0.764887 0.273480 0.579306
O O8 0.781405 0.389326 0.222546
O O9 0.754062 0.325548 0.317795
O O10 0.000000 0.320290 0.245465
O O11 0.000000 0.084430 0.500000
O O12 0.000000 0.000000 0.426416
O O13 0.801846 0.057310 0.821551
O O14 0.745873 0.114012 0.922402
O O15 0.000000 0.058951 0.916540
O O16 0.754515 0.000000 0.923480
O O17 0.000000 0.935077 0.271482
O O18 0.764941 0.000000 0.281683
O O19 0.500000 0.834236 0.107620
#
# Coordination Sequence:
#
# PCOD9518628 Si02
#       7
#    16  16  16   8  16  16  16
#     4   9  19  36  57  79 102 131 167 209 259 311
#     4  10  20  33  48  65  92 127 160 197 244 295
#     4   9  18  30  42  61  89 122 158 196 240 284
#     4   9  18  34  58  84 106 130 163 209 263 315
#     4   8  14  26  43  60  83 118 156 193 232 272
#     4   8  14  25  40  57  78 110 152 192 231 275
#     4  10  19  28  43  68  94 123 161 200 238 287
#
# _framework density 23.625101000000001
#
# number of rings (size 3 to 8) (size 9 to 14) (size 15 to 20)
#    0.000    3.000    0.000    1.846    1.077    2.154 
#    0.000    5.385    0.000    2.769    0.000    0.000 
#    0.000    0.615    0.000    7.077    0.000    2.308 
#
# Total GULP energy -290142.137556 kJ/mol
# GULP energy per Si atom -5579.656491 kJ/mol
# Density = 2.357133 g / cm^3
# Si number density = 23.625101 Si / 1000 Ang^3
#
#
#
# Elastic Constant Matrix: (Units=GPa)
#
#
# Indices 1 2 3 4 5 6 
#
# 1 90.6320 54.3586 11.0282 0.0000 0.0000 0.0000
# 2 54.3586 159.8202 -3.1434 0.0000 0.0000 0.0000
# 3 11.0282 -3.1434 73.8178 0.0000 0.0000 0.0000
# 4 0.0000 0.0000 0.0000 -1.2294 0.0000 0.0000
# 5 0.0000 0.0000 0.0000 0.0000 -7.7829 0.0000
# 6 0.0000 0.0000 0.0000 0.0000 0.0000 43.1984
#
#
#
# Elastic Compliance Matrix: (Units=1/GPa)
#
#
# Indices 1 2 3 4 5 6 
#
# 1 0.014253 -0.004894 -0.002338 0.000000 0.000000 0.000000
# 2 -0.004894 0.007943 0.001069 0.000000 0.000000 0.000000
# 3 -0.002338 0.001069 0.013942 0.000000 0.000000 0.000000
# 4 0.000000 0.000000 0.000000 -0.813401 0.000000 0.000000
# 5 0.000000 0.000000 0.000000 0.000000 -0.128487 0.000000
# 6 0.000000 0.000000 0.000000 0.000000 0.000000 0.023149
#
#
# Mechanical properties :
#
#
# Convention : Reuss Voigt Hill
#
# Bulk Modulus (GPa) = 41.99402 49.86189 45.92796
# Shear Modulus (GPa) = -5.79819 24.30565 9.25373
#
# Velocity S-wave (km/s) = -1.56830 3.21098 1.98126
# Velocity P-wave (km/s) = 3.81239 5.90749 4.97156
#
# Compressibility (1/GPa) = 0.02381291
#
# Stress axis : x y z
#
# Youngs Moduli (GPa) = 70.15912 125.90362 71.72738
#
# Poissons Ratio (x) = 0.61616 0.16769
# Poissons Ratio (y) = 0.34335 -0.07670
# Poissons Ratio (z) = 0.16402 -0.13464
#
# Static dielectric constant tensor:
#      x y z
#    x 1.832890 0.000000 0.000000 
#    y 0.000000 1.901400 0.000000 
#    z 0.000000 0.000000 2.026690 
# 
# From -- ./inp_files/63520.got.cif
#   From: 2010.05.17/outbox.cif.g08.bks.cpg/sg71_32_cif.got.tgz:63520.got - 2010.06.03 16:22:01.
