data_PCOD9518932
_publ_section_title
;
Structure prediction by ZEFSAII (Michael W. Deem and Ramdas Pophale) SiO2 
 PCOD9518932
Probable space group: I M M M
;
_chemical_formula_sum "Si O2"
_cell_formula_units_Z 88
_cell_length_a 29.755815
_cell_length_b 7.684935
_cell_length_c 17.911441
_cell_angle_alpha 90.000000
_cell_angle_beta 90.000000
_cell_angle_gamma 90.000000
_cell_volume 4095.836155
_symmetry_space_group_name_H-M "I M M M"
_symmetry_group_IT_number 71
_symmetry_cell_setting 'orthorhombic'
loop_
_space_group_symop_operation_xyz
x,y,z
-x,-y,z
x,-y,-z
-x,y,-z
-x,-y,-z
x,y,-z
-x,y,z
x,-y,z
1/2+x,1/2+y,1/2+z
1/2-x,1/2-y,1/2+z
1/2+x,1/2-y,1/2-z
1/2-x,1/2+y,1/2-z
1/2-x,1/2-y,1/2-z
1/2+x,1/2+y,1/2-z
1/2-x,1/2+y,1/2+z
1/2+x,1/2-y,1/2+z
loop_
_atom_site_type_symbol
_atom_site_label
_atom_site_fract_x
_atom_site_fract_y
_atom_site_fract_z
Si Si1 0.947777 0.204562 0.662035
Si Si2 0.665048 0.812578 0.000000
Si Si3 0.070472 0.804449 0.500000
Si Si4 0.412816 0.713260 0.682039
Si Si5 0.500000 0.287351 0.586766
Si Si6 0.187018 0.789234 0.190806
Si Si7 0.784384 0.203079 0.355611
O O1 0.942277 0.279342 0.579179
O O2 0.920908 0.274494 0.732759
O O3 0.000000 0.211742 0.683048
O O4 0.934669 0.000000 0.655428
O O5 0.694689 0.793642 0.073290
O O6 0.623992 0.682195 0.000000
O O7 0.642486 0.000000 0.000000
O O8 0.050202 0.000000 0.500000
O O9 0.414146 0.500000 0.682757
O O10 0.454448 0.768366 0.629920
O O11 0.361967 0.764209 0.661381
O O12 0.500000 0.500000 0.588078
O O13 0.500000 0.233949 0.500000
O O14 0.195375 0.732506 0.276807
O O15 0.230693 0.724618 0.147264
O O16 0.188629 0.000000 0.190481
O O17 0.795617 0.000000 0.361258
#
# Coordination Sequence:
#
# PCOD9518932 Si02
#       7
#    16   8   8  16   8  16  16
#     4   9  15  25  44  71 102 135 174 222 265 305
#     4  12  24  37  53  75 106 141 177 218 268 325
#     4  10  19  30  48  76 104 134 177 221 266 315
#     4   9  15  26  44  68 101 137 173 213 261 308
#     4   9  16  26  40  63 100 140 171 207 256 306
#     4   9  18  33  54  80 107 138 175 219 270 321
#     4  10  20  36  56  77 105 138 176 220 268 321
#
# _framework density 21.485233999999998
#
# number of rings (size 3 to 8) (size 9 to 14) (size 15 to 20)
#    0.000    2.455    0.909    2.727    0.000    4.727 
#    1.636    0.000    0.000    1.091    0.000    0.636 
#    0.000    0.727    0.000    0.000    0.000    0.000 
#
# Total GULP energy -245548.077811 kJ/mol
# GULP energy per Si atom -5580.638132 kJ/mol
# Density = 2.143633 g / cm^3
# Si number density = 21.485234 Si / 1000 Ang^3
#
#
#
# Elastic Constant Matrix: (Units=GPa)
#
#
# Indices 1 2 3 4 5 6 
#
# 1 133.7044 6.3174 36.0338 0.0000 0.0000 0.0000
# 2 6.3174 45.6725 1.7039 0.0000 0.0000 0.0000
# 3 36.0338 1.7039 56.7609 0.0000 0.0000 0.0000
# 4 0.0000 0.0000 0.0000 -19.8762 0.0000 0.0000
# 5 0.0000 0.0000 0.0000 0.0000 24.2569 0.0000
# 6 0.0000 0.0000 0.0000 0.0000 0.0000 11.9735
#
#
#
# Elastic Compliance Matrix: (Units=1/GPa)
#
#
# Indices 1 2 3 4 5 6 
#
# 1 0.009072 -0.001041 -0.005728 0.000000 0.000000 0.000000
# 2 -0.001041 0.022039 -0.000001 0.000000 0.000000 0.000000
# 3 -0.005728 -0.000001 0.021254 0.000000 0.000000 0.000000
# 4 0.000000 0.000000 0.000000 -0.050311 0.000000 0.000000
# 5 0.000000 0.000000 0.000000 0.000000 0.041225 0.000000
# 6 0.000000 0.000000 0.000000 0.000000 0.000000 0.083518
#
#
# Mechanical properties :
#
#
# Convention : Reuss Voigt Hill
#
# Bulk Modulus (GPa) = 25.75617 36.02757 30.89187
# Shear Modulus (GPa) = 32.62039 16.07635 24.34837
#
# Velocity S-wave (km/s) = 3.90073 2.73839 3.37005
# Velocity P-wave (km/s) = 5.68343 5.17719 5.43621
#
# Compressibility (1/GPa) = 0.03882564
#
# Stress axis : x y z
#
# Youngs Moduli (GPa) = 110.22797 45.37398 47.04963
#
# Poissons Ratio (x) = 0.04724 0.26950
# Poissons Ratio (y) = 0.11476 0.00003
# Poissons Ratio (z) = 0.63139 0.00003
#
# Static dielectric constant tensor:
#      x y z
#    x 1.751760 0.000000 0.000000 
#    y 0.000000 1.833260 0.000000 
#    z 0.000000 0.000000 1.767790 
# 
# From -- ./inp_files/49272.got.cif
#   From: 2010.05.17/outbox.cif.g08.bks.cpg/sg71_25_cif.got.tgz:49272.got - 2010.06.03 16:22:01.
