data_PCOD9518055
_publ_section_title
;
Structure prediction by ZEFSAII (Michael W. Deem and Ramdas Pophale) SiO2 
 PCOD9518055
Probable space group: I M M M
;
_chemical_formula_sum "Si O2"
_cell_formula_units_Z 120
_cell_length_a 14.320899
_cell_length_b 25.251883
_cell_length_c 21.348906
_cell_angle_alpha 90.000000
_cell_angle_beta 90.000000
_cell_angle_gamma 90.000000
_cell_volume 7720.397746
_symmetry_space_group_name_H-M "I M M M"
_symmetry_group_IT_number 71
_symmetry_cell_setting 'orthorhombic'
loop_
_space_group_symop_operation_xyz
x,y,z
-x,-y,z
x,-y,-z
-x,y,-z
-x,-y,-z
x,y,-z
-x,y,z
x,-y,z
1/2+x,1/2+y,1/2+z
1/2-x,1/2-y,1/2+z
1/2+x,1/2-y,1/2-z
1/2-x,1/2+y,1/2-z
1/2-x,1/2-y,1/2-z
1/2+x,1/2+y,1/2-z
1/2-x,1/2+y,1/2+z
1/2+x,1/2-y,1/2+z
loop_
_atom_site_type_symbol
_atom_site_label
_atom_site_fract_x
_atom_site_fract_y
_atom_site_fract_z
Si Si1 0.891194 0.064428 0.000000
Si Si2 0.891363 0.213080 0.425567
Si Si3 0.891810 0.746938 0.803814
Si Si4 0.781757 0.143818 0.786060
Si Si5 0.227462 0.653389 0.142173
Si Si6 0.105360 0.690784 0.332329
Si Si7 0.387580 0.561807 0.364235
Si Si8 0.889528 0.438301 0.924934
O O1 0.852385 0.081169 0.932850
O O2 0.000000 0.080184 0.000000
O O3 0.890197 0.000000 0.000000
O O4 0.880271 0.219323 0.500000
O O5 0.816020 0.172050 0.398575
O O6 0.876485 0.268126 0.388332
O O7 0.000000 0.197602 0.413154
O O8 0.835258 0.801435 0.801609
O O9 0.841712 0.703718 0.847770
O O10 0.889510 0.723942 0.732872
O O11 0.000000 0.754865 0.821134
O O12 0.761980 0.140520 0.712339
O O13 0.684222 0.147074 0.823461
O O14 0.843318 0.096057 0.810264
O O15 0.172591 0.604411 0.111487
O O16 0.000000 0.670123 0.338304
O O17 0.500000 0.566263 0.363902
O O18 0.364915 0.500000 0.357839
O O19 0.867630 0.500000 0.909770
O O20 0.000000 0.430092 0.911506
O O21 0.877204 0.431958 0.000000
#
# Coordination Sequence:
#
# PCOD9518055 Si02
#       8
#     8  16  16  16  16  16  16  16
#     4   7  12  28  50  66  85 117 155 187 221 277
#     4  10  19  31  48  68  94 132 174 206 234 281
#     4  10  18  30  49  73  98 128 156 192 249 305
#     4  11  19  30  48  74 102 127 158 197 250 300
#     4  11  19  32  50  74 101 129 166 207 250 296
#     4   9  17  32  47  64  93 125 162 196 228 282
#     4   9  18  32  50  71  94 124 160 196 237 290
#     4   9  19  36  56  76  99 132 172 211 256 309
#
# _framework density 15.543241
#
# number of rings (size 3 to 8) (size 9 to 14) (size 15 to 20)
#    0.000    2.333    2.667    3.200    0.000    1.600 
#    1.200    0.000    0.000    0.800    0.000    1.867 
#    0.000    1.600    0.000    0.000    0.000    0.000 
#
# Total GULP energy -334258.901200 kJ/mol
# GULP energy per Si atom -5570.981687 kJ/mol
# Density = 1.550786 g / cm^3
# Si number density = 15.543241 Si / 1000 Ang^3
#
#
#
# Elastic Constant Matrix: (Units=GPa)
#
#
# Indices 1 2 3 4 5 6 
#
# 1 67.4330 44.1050 46.7946 0.0000 0.0000 0.0000
# 2 44.1050 69.0759 43.4002 0.0000 0.0000 0.0000
# 3 46.7946 43.4002 73.7204 0.0000 0.0000 0.0000
# 4 0.0000 0.0000 0.0000 16.3246 0.0000 0.0000
# 5 0.0000 0.0000 0.0000 0.0000 22.0121 0.0000
# 6 0.0000 0.0000 0.0000 0.0000 0.0000 24.1177
#
#
#
# Elastic Compliance Matrix: (Units=1/GPa)
#
#
# Indices 1 2 3 4 5 6 
#
# 1 0.031815 -0.012102 -0.013070 0.000000 0.000000 0.000000
# 2 -0.012102 0.027578 -0.008554 0.000000 0.000000 0.000000
# 3 -0.013070 -0.008554 0.026897 0.000000 0.000000 0.000000
# 4 0.000000 0.000000 0.000000 0.061257 0.000000 0.000000
# 5 0.000000 0.000000 0.000000 0.000000 0.045429 0.000000
# 6 0.000000 0.000000 0.000000 0.000000 0.000000 0.041463
#
#
# Mechanical properties :
#
#
# Convention : Reuss Voigt Hill
#
# Bulk Modulus (GPa) = 53.08385 53.20321 53.14353
# Shear Modulus (GPa) = 16.22474 17.55286 16.88880
#
# Velocity S-wave (km/s) = 3.23436 3.36414 3.29989
# Velocity P-wave (km/s) = 6.94080 7.02804 6.98456
#
# Compressibility (1/GPa) = 0.01883812
#
# Stress axis : x y z
#
# Youngs Moduli (GPa) = 31.43202 36.26036 37.17883
#
# Poissons Ratio (x) = 0.43881 0.48593
# Poissons Ratio (y) = 0.38038 0.31803
# Poissons Ratio (z) = 0.41082 0.31017
#
# Static dielectric constant tensor:
#      x y z
#    x 1.533050 0.000000 0.000000 
#    y 0.000000 1.489730 0.000000 
#    z 0.000000 0.000000 1.519630 
# 
# From -- ./inp_files/53556.got.cif
#   From: 2010.05.17/outbox.cif.g08.bks.cpg/sg71_27_cif.got.tgz:53556.got - 2010.06.03 16:22:01.
