data_PCOD9518047
_publ_section_title
;
Structure prediction by ZEFSAII (Michael W. Deem and Ramdas Pophale) SiO2 
 PCOD9518047
Probable space group: I M M M
;
_chemical_formula_sum "Si O2"
_cell_formula_units_Z 88
_cell_length_a 8.726582
_cell_length_b 18.112771
_cell_length_c 30.052527
_cell_angle_alpha 90.000000
_cell_angle_beta 90.000000
_cell_angle_gamma 90.000000
_cell_volume 4750.179995
_symmetry_space_group_name_H-M "I M M M"
_symmetry_group_IT_number 71
_symmetry_cell_setting 'orthorhombic'
loop_
_space_group_symop_operation_xyz
x,y,z
-x,-y,z
x,-y,-z
-x,y,-z
-x,-y,-z
x,y,-z
-x,y,z
x,-y,z
1/2+x,1/2+y,1/2+z
1/2-x,1/2-y,1/2+z
1/2+x,1/2-y,1/2-z
1/2-x,1/2+y,1/2-z
1/2-x,1/2-y,1/2-z
1/2+x,1/2+y,1/2-z
1/2-x,1/2+y,1/2+z
1/2+x,1/2-y,1/2+z
loop_
_atom_site_type_symbol
_atom_site_label
_atom_site_fract_x
_atom_site_fract_y
_atom_site_fract_z
Si Si1 0.814690 0.644105 0.393727
Si Si2 0.815165 0.085012 0.383278
Si Si3 0.682994 0.586485 0.304128
Si Si4 0.176891 0.589744 0.210372
Si Si5 0.312950 0.712031 0.051040
Si Si6 0.813347 0.500000 0.550980
O O1 0.749895 0.633698 0.344465
O O2 0.765931 0.717539 0.419693
O O3 0.765999 0.572978 0.422599
O O4 0.000000 0.644138 0.391278
O O5 0.754815 0.113213 0.335672
O O6 0.765550 0.138118 0.423138
O O7 0.000000 0.085322 0.381613
O O8 0.765262 0.000000 0.389559
O O9 0.500000 0.588033 0.304995
O O10 0.732078 0.500000 0.310050
O O11 0.741014 0.612479 0.255890
O O12 0.184356 0.500000 0.210022
O O13 0.000000 0.611910 0.211215
O O14 0.500000 0.712700 0.049960
O O15 0.260590 0.715910 0.000000
O O16 0.760781 0.500000 0.500000
O O17 0.000000 0.500000 0.550090
#
# Coordination Sequence:
#
# PCOD9518047 Si02
#       6
#    16  16  16  16  16   8
#     4  10  18  30  49  73 101 133 173 214 250 291
#     4   9  17  31  52  77 104 133 166 205 253 307
#     4  10  19  31  49  74 105 137 169 206 251 302
#     4   9  17  30  51  77 103 131 167 209 252 299
#     4   9  18  32  51  76 104 133 168 213 257 295
#     4   9  16  26  45  71  95 125 169 215 250 285
#
# _framework density 18.525614000000001
#
# number of rings (size 3 to 8) (size 9 to 14) (size 15 to 20)
#    0.000    2.636    0.909    1.636    0.000    5.455 
#    0.000    3.636    0.000    4.364    0.000    2.545 
#    0.000    0.000    0.000    0.000    0.000    0.000 
#
# Total GULP energy -245394.324452 kJ/mol
# GULP energy per Si atom -5577.143738 kJ/mol
# Density = 1.848345 g / cm^3
# Si number density = 18.525614 Si / 1000 Ang^3
#
#
#
# Elastic Constant Matrix: (Units=GPa)
#
#
# Indices 1 2 3 4 5 6 
#
# 1 16.3039 19.0947 27.1388 0.0000 0.0000 0.0000
# 2 19.0947 90.4522 77.0301 0.0000 0.0000 0.0000
# 3 27.1388 77.0301 160.2048 0.0000 0.0000 0.0000
# 4 0.0000 0.0000 0.0000 14.3431 0.0000 0.0000
# 5 0.0000 0.0000 0.0000 0.0000 24.5435 0.0000
# 6 0.0000 0.0000 0.0000 0.0000 0.0000 8.3380
#
#
#
# Elastic Compliance Matrix: (Units=1/GPa)
#
#
# Indices 1 2 3 4 5 6 
#
# 1 0.090726 -0.010269 -0.010432 0.000000 0.000000 0.000000
# 2 -0.010269 0.019884 -0.007821 0.000000 0.000000 0.000000
# 3 -0.010432 -0.007821 0.011770 0.000000 0.000000 0.000000
# 4 0.000000 0.000000 0.000000 0.069720 0.000000 0.000000
# 5 0.000000 0.000000 0.000000 0.000000 0.040744 0.000000
# 6 0.000000 0.000000 0.000000 0.000000 0.000000 0.119933
#
#
# Mechanical properties :
#
#
# Convention : Reuss Voigt Hill
#
# Bulk Modulus (GPa) = 15.30541 57.05424 36.17983
# Shear Modulus (GPa) = 11.58487 19.02475 15.30481
#
# Velocity S-wave (km/s) = 2.50340 3.20807 2.87739
# Velocity P-wave (km/s) = 4.07869 6.67732 5.53274
#
# Compressibility (1/GPa) = 0.06533637
#
# Stress axis : x y z
#
# Youngs Moduli (GPa) = 11.02224 50.29211 84.96422
#
# Poissons Ratio (x) = 0.51644 0.88631
# Poissons Ratio (y) = 0.11319 0.66451
# Poissons Ratio (z) = 0.11498 0.39334
#
# Static dielectric constant tensor:
#      x y z
#    x 1.628040 0.000000 0.000000 
#    y 0.000000 1.646920 0.000000 
#    z 0.000000 0.000000 1.619280 
# 
# From -- ./inp_files/42431.got.cif
#   From: 2010.05.17/outbox.cif.g08.bks.cpg/sg71_22_cif.got.tgz:42431.got - 2010.06.03 16:22:01.
