data_PCOD9518158
_publ_section_title
;
Structure prediction by ZEFSAII (Michael W. Deem and Ramdas Pophale) SiO2 
 PCOD9518158
Probable space group: I M M M
;
_chemical_formula_sum "Si O2"
_cell_formula_units_Z 72
_cell_length_a 18.081077
_cell_length_b 8.736845
_cell_length_c 23.714541
_cell_angle_alpha 90.000000
_cell_angle_beta 90.000000
_cell_angle_gamma 90.000000
_cell_volume 3746.223207
_symmetry_space_group_name_H-M "I M M M"
_symmetry_group_IT_number 71
_symmetry_cell_setting 'orthorhombic'
loop_
_space_group_symop_operation_xyz
x,y,z
-x,-y,z
x,-y,-z
-x,y,-z
-x,-y,-z
x,y,-z
-x,y,z
x,-y,z
1/2+x,1/2+y,1/2+z
1/2-x,1/2-y,1/2+z
1/2+x,1/2-y,1/2-z
1/2-x,1/2+y,1/2-z
1/2-x,1/2-y,1/2-z
1/2+x,1/2+y,1/2-z
1/2-x,1/2+y,1/2+z
1/2+x,1/2-y,1/2+z
loop_
_atom_site_type_symbol
_atom_site_label
_atom_site_fract_x
_atom_site_fract_y
_atom_site_fract_z
Si Si1 0.583104 0.683292 0.376583
Si Si2 0.500000 0.186890 0.934431
Si Si3 0.254016 0.835257 0.000000
Si Si4 0.890727 0.676560 0.000000
Si Si5 0.654501 0.824528 0.113988
Si Si6 0.275655 0.819912 0.309459
O O1 0.500000 0.719686 0.354680
O O2 0.591340 0.500000 0.378233
O O3 0.586212 0.745821 0.440964
O O4 0.650682 0.748909 0.339048
O O5 0.572710 0.232087 0.900153
O O6 0.500000 0.000000 0.936690
O O7 0.500000 0.238241 0.000000
O O8 0.197617 0.697238 0.000000
O O9 0.304829 0.833510 0.945861
O O10 0.212135 0.000000 0.000000
O O11 0.912673 0.500000 0.000000
O O12 0.705728 0.718139 0.151171
O O13 0.651896 0.000000 0.136911
O O14 0.250000 0.750000 0.250000
O O15 0.287773 0.000000 0.303950
#
# Coordination Sequence:
#
# PCOD9518158 Si02
#       6
#    16   8   8   8  16  16
#     4  11  24  43  67  95 128 164 204 255 315 374
#     4   9  16  30  57  95 129 161 201 244 293 360
#     4  10  18  30  57  88 123 166 206 248 305 372
#     4  12  23  35  59  96 134 167 204 249 304 377
#     4  10  19  35  61  91 124 163 206 254 308 365
#     4  12  26  45  67  89 119 162 213 262 311 370
#
# _framework density 19.219356000000001
#
# number of rings (size 3 to 8) (size 9 to 14) (size 15 to 20)
#    0.000    1.222    3.333    4.000    0.000    3.111 
#    2.000    0.556    0.000    0.667    0.000    0.000 
#    0.000    0.000    0.000    0.000    0.000    0.000 
#
# Total GULP energy -200929.316317 kJ/mol
# GULP energy per Si atom -5581.369898 kJ/mol
# Density = 1.917561 g / cm^3
# Si number density = 19.219356 Si / 1000 Ang^3
#
#
#
# Elastic Constant Matrix: (Units=GPa)
#
#
# Indices 1 2 3 4 5 6 
#
# 1 180.1457 59.2035 65.1233 0.0000 0.0000 0.0000
# 2 59.2035 106.8640 50.1737 0.0000 0.0000 0.0000
# 3 65.1233 50.1737 121.1677 0.0000 0.0000 0.0000
# 4 0.0000 0.0000 0.0000 13.1873 0.0000 0.0000
# 5 0.0000 0.0000 0.0000 0.0000 3.2758 0.0000
# 6 0.0000 0.0000 0.0000 0.0000 0.0000 4.6437
#
#
#
# Elastic Compliance Matrix: (Units=1/GPa)
#
#
# Indices 1 2 3 4 5 6 
#
# 1 0.007515 -0.002814 -0.002874 0.000000 0.000000 0.000000
# 2 -0.002814 0.012670 -0.003734 0.000000 0.000000 0.000000
# 3 -0.002874 -0.003734 0.011344 0.000000 0.000000 0.000000
# 4 0.000000 0.000000 0.000000 0.075831 0.000000 0.000000
# 5 0.000000 0.000000 0.000000 0.000000 0.305268 0.000000
# 6 0.000000 0.000000 0.000000 0.000000 0.000000 0.215347
#
#
# Mechanical properties :
#
#
# Convention : Reuss Voigt Hill
#
# Bulk Modulus (GPa) = 78.83334 84.13094 81.48214
# Shear Modulus (GPa) = 7.67996 19.79981 13.73988
#
# Velocity S-wave (km/s) = 2.00116 3.21316 2.67666
# Velocity P-wave (km/s) = 6.81515 7.59177 7.21392
#
# Compressibility (1/GPa) = 0.01268499
#
# Stress axis : x y z
#
# Youngs Moduli (GPa) = 133.07258 78.92792 88.15479
#
# Poissons Ratio (x) = 0.22210 0.25333
# Poissons Ratio (y) = 0.37447 0.32916
# Poissons Ratio (z) = 0.38240 0.29471
#
# Static dielectric constant tensor:
#      x y z
#    x 1.700360 0.000000 0.000000 
#    y 0.000000 1.680890 0.000000 
#    z 0.000000 0.000000 1.622470 
# 
# From -- ./inp_files/60399.got.cif
#   From: 2010.05.17/outbox.cif.g08.bks.cpg/sg71_31_cif.got.tgz:60399.got - 2010.06.03 16:22:01.
