data_PCOD9518391
_publ_section_title
;
Structure prediction by ZEFSAII (Michael W. Deem and Ramdas Pophale) SiO2 
 PCOD9518391
Probable space group: I M M M
;
_chemical_formula_sum "Si O2"
_cell_formula_units_Z 52
_cell_length_a 7.740188
_cell_length_b 21.340899
_cell_length_c 19.334344
_cell_angle_alpha 90.000000
_cell_angle_beta 90.000000
_cell_angle_gamma 90.000000
_cell_volume 3193.696638
_symmetry_space_group_name_H-M "I M M M"
_symmetry_group_IT_number 71
_symmetry_cell_setting 'orthorhombic'
loop_
_space_group_symop_operation_xyz
x,y,z
-x,-y,z
x,-y,-z
-x,y,-z
-x,-y,-z
x,y,-z
-x,y,z
x,-y,z
1/2+x,1/2+y,1/2+z
1/2-x,1/2-y,1/2+z
1/2+x,1/2-y,1/2-z
1/2-x,1/2+y,1/2-z
1/2-x,1/2-y,1/2-z
1/2+x,1/2+y,1/2-z
1/2-x,1/2+y,1/2+z
1/2+x,1/2-y,1/2+z
loop_
_atom_site_type_symbol
_atom_site_label
_atom_site_fract_x
_atom_site_fract_y
_atom_site_fract_z
Si Si1 0.500000 0.851661 0.000000
Si Si2 0.792407 0.221281 0.352116
Si Si3 0.303827 0.249540 0.500000
Si Si4 0.300577 0.352126 0.282233
Si Si5 0.000000 0.425609 0.644043
O O1 0.666692 0.806251 0.000000
O O2 0.500000 0.893211 0.068785
O O3 0.729449 0.211226 0.429800
O O4 0.715153 0.286956 0.325063
O O5 0.750554 0.168314 0.295813
O O6 0.000000 0.228684 0.352033
O O7 0.500000 0.272891 0.500000
O O8 0.500000 0.372695 0.283661
O O9 0.167840 0.400413 0.315191
O O10 0.000000 0.500000 0.638327
#
# Coordination Sequence:
#
# PCOD9518391 Si02
#       5
#     4  16   8  16   8
#     4  12  23  40  48  80 114 148 195 216 258 328
#     4  10  18  32  53  81 113 138 171 228 288 332
#     4  12  20  29  53  83 116 147 169 219 281 338
#     4  10  20  34  55  79 104 140 185 231 276 322
#     4  12  25  40  56  73 110 159 195 224 258 313
#
# _framework density 16.282073
#
# number of rings (size 3 to 8) (size 9 to 14) (size 15 to 20)
#    0.000    1.231    6.154    1.154    4.308    0.615 
#    0.000    0.000    0.000    2.769    0.000    2.154 
#    0.000    4.923    0.000    0.000    0.000    0.000 
#
# Total GULP energy -145161.084131 kJ/mol
# GULP energy per Si atom -5583.118620 kJ/mol
# Density = 1.624501 g / cm^3
# Si number density = 16.282073 Si / 1000 Ang^3
#
#
#
# Elastic Constant Matrix: (Units=GPa)
#
#
# Indices 1 2 3 4 5 6 
#
# 1 117.2941 46.2160 48.5325 0.0000 0.0000 0.0000
# 2 46.2160 54.3373 41.1988 0.0000 0.0000 0.0000
# 3 48.5325 41.1988 163.7314 0.0000 0.0000 0.0000
# 4 0.0000 0.0000 0.0000 9.3689 0.0000 0.0000
# 5 0.0000 0.0000 0.0000 0.0000 23.6292 0.0000
# 6 0.0000 0.0000 0.0000 0.0000 0.0000 14.0075
#
#
#
# Elastic Compliance Matrix: (Units=1/GPa)
#
#
# Indices 1 2 3 4 5 6 
#
# 1 0.013053 -0.010094 -0.001329 0.000000 0.000000 0.000000
# 2 -0.010094 0.030549 -0.004695 0.000000 0.000000 0.000000
# 3 -0.001329 -0.004695 0.007683 0.000000 0.000000 0.000000
# 4 0.000000 0.000000 0.000000 0.106737 0.000000 0.000000
# 5 0.000000 0.000000 0.000000 0.000000 0.042321 0.000000
# 6 0.000000 0.000000 0.000000 0.000000 0.000000 0.071391
#
#
# Mechanical properties :
#
#
# Convention : Reuss Voigt Hill
#
# Bulk Modulus (GPa) = 52.49826 67.47307 59.98566
# Shear Modulus (GPa) = 16.11254 22.69546 19.40400
#
# Velocity S-wave (km/s) = 3.14918 3.73754 3.45590
# Velocity P-wave (km/s) = 6.74805 7.75601 7.26952
#
# Compressibility (1/GPa) = 0.01904825
#
# Stress axis : x y z
#
# Youngs Moduli (GPa) = 76.61183 32.73470 130.16021
#
# Poissons Ratio (x) = 0.33043 0.17300
# Poissons Ratio (y) = 0.77333 0.61106
# Poissons Ratio (z) = 0.10183 0.15368
#
# Static dielectric constant tensor:
#      x y z
#    x 1.562010 0.000000 0.000000 
#    y 0.000000 1.489960 0.000000 
#    z 0.000000 0.000000 1.582620 
# 
# From -- ./inp_files/7144.got.cif
#   From: 2010.05.17/outbox.cif.g08.bks.cpg/sg71_4_cif.got.tgz:7144.got - 2010.06.03 16:22:01.
