data_PCOD9518558
_publ_section_title
;
Structure prediction by ZEFSAII (Michael W. Deem and Ramdas Pophale) SiO2 
 PCOD9518558
Probable space group: I M M M
;
_chemical_formula_sum "Si O2"
_cell_formula_units_Z 104
_cell_length_a 27.574254
_cell_length_b 17.474178
_cell_length_c 12.456347
_cell_angle_alpha 90.000000
_cell_angle_beta 90.000000
_cell_angle_gamma 90.000000
_cell_volume 6001.934134
_symmetry_space_group_name_H-M "I M M M"
_symmetry_group_IT_number 71
_symmetry_cell_setting 'orthorhombic'
loop_
_space_group_symop_operation_xyz
x,y,z
-x,-y,z
x,-y,-z
-x,y,-z
-x,-y,-z
x,y,-z
-x,y,z
x,-y,z
1/2+x,1/2+y,1/2+z
1/2-x,1/2-y,1/2+z
1/2+x,1/2-y,1/2-z
1/2-x,1/2+y,1/2-z
1/2-x,1/2-y,1/2-z
1/2+x,1/2+y,1/2-z
1/2-x,1/2+y,1/2+z
1/2+x,1/2-y,1/2+z
loop_
_atom_site_type_symbol
_atom_site_label
_atom_site_fract_x
_atom_site_fract_y
_atom_site_fract_z
Si Si1 0.055997 0.912551 0.294445
Si Si2 0.192966 0.744568 0.265635
Si Si3 0.944300 0.801968 0.500000
Si Si4 0.338756 0.755431 0.000000
Si Si5 0.555353 0.164461 0.626712
Si Si6 0.613537 0.322044 0.373848
Si Si7 0.635603 0.913880 0.762843
Si Si8 0.648003 0.918101 0.000000
O O1 0.061176 0.855175 0.394724
O O2 0.091182 0.888739 0.198404
O O3 0.000000 0.906663 0.257742
O O4 0.064317 0.000000 0.329206
O O5 0.250000 0.750000 0.250000
O O6 0.178527 0.775058 0.385000
O O7 0.163775 0.793422 0.177600
O O8 0.173515 0.656627 0.253832
O O9 0.897691 0.746361 0.500000
O O10 0.000000 0.771141 0.500000
O O11 0.319586 0.842851 0.000000
O O12 0.556665 0.147327 0.500000
O O13 0.500000 0.161586 0.664181
O O14 0.577011 0.249664 0.640194
O O15 0.590386 0.107622 0.689447
O O16 0.617319 0.339130 0.500000
O O17 0.653819 0.000000 0.738648
O O18 0.619959 0.914259 0.888041
O O19 0.674367 0.000000 0.000000
#
# Coordination Sequence:
#
# PCOD9518558 Si02
#       8
#    16  16   8   8  16  16  16   8
#     4  10  20  34  54  79 109 146 182 221 275 334
#     4  10  21  36  57  81 104 139 183 228 269 321
#     4  10  19  34  56  83 110 141 185 229 268 329
#     4  10  18  35  60  83 103 140 185 221 273 322
#     4   9  18  32  51  75 104 140 177 212 252 305
#     4  10  20  35  53  77 108 139 178 227 274 317
#     4   9  18  34  54  75 103 135 170 214 261 311
#     4   8  16  32  51  74 102 130 164 209 261 309
#
# _framework density 17.327748
#
# number of rings (size 3 to 8) (size 9 to 14) (size 15 to 20)
#    0.000    2.462    1.538    0.692    1.077    2.769 
#    0.000    2.692    0.000    2.538    0.000    0.000 
#    0.000    0.000    0.000    0.000    0.000    0.000 
#
# Total GULP energy -289480.707743 kJ/mol
# GULP energy per Si atom -5566.936687 kJ/mol
# Density = 1.728831 g / cm^3
# Si number density = 17.327748 Si / 1000 Ang^3
#
#
#
# Elastic Constant Matrix: (Units=GPa)
#
#
# Indices 1 2 3 4 5 6 
#
# 1 122.8237 26.2998 35.9544 0.0000 0.0000 0.0000
# 2 26.2998 41.9072 6.0058 0.0000 0.0000 0.0000
# 3 35.9544 6.0058 61.6957 0.0000 0.0000 0.0000
# 4 0.0000 0.0000 0.0000 16.5747 0.0000 0.0000
# 5 0.0000 0.0000 0.0000 0.0000 16.7625 0.0000
# 6 0.0000 0.0000 0.0000 0.0000 0.0000 12.4623
#
#
#
# Elastic Compliance Matrix: (Units=1/GPa)
#
#
# Indices 1 2 3 4 5 6 
#
# 1 0.011199 -0.006179 -0.005925 0.000000 0.000000 0.000000
# 2 -0.006179 0.027609 0.000913 0.000000 0.000000 0.000000
# 3 -0.005925 0.000913 0.019573 0.000000 0.000000 0.000000
# 4 0.000000 0.000000 0.000000 0.060333 0.000000 0.000000
# 5 0.000000 0.000000 0.000000 0.000000 0.059657 0.000000
# 6 0.000000 0.000000 0.000000 0.000000 0.000000 0.080242
#
#
# Mechanical properties :
#
#
# Convention : Reuss Voigt Hill
#
# Bulk Modulus (GPa) = 27.77823 40.32740 34.05282
# Shear Modulus (GPa) = 17.06512 19.70433 18.38472
#
# Velocity S-wave (km/s) = 3.14163 3.37583 3.26083
# Velocity P-wave (km/s) = 5.40607 6.20635 5.81998
#
# Compressibility (1/GPa) = 0.03599942
#
# Stress axis : x y z
#
# Youngs Moduli (GPa) = 89.29065 36.21968 51.09174
#
# Poissons Ratio (x) = 0.22381 0.30273
# Poissons Ratio (y) = 0.55175 -0.04667
# Poissons Ratio (z) = 0.52906 -0.03309
#
# Static dielectric constant tensor:
#      x y z
#    x 1.557960 0.000000 0.000000 
#    y 0.000000 1.617680 0.000000 
#    z 0.000000 0.000000 1.606350 
# 
# From -- ./inp_files/28956.got.cif
#   From: 2010.05.17/outbox.cif.g08.bks.cpg/sg71_15_cif.got.tgz:28956.got - 2010.06.03 16:22:01.
