data_PCOD9518947
_publ_section_title
;
Structure prediction by ZEFSAII (Michael W. Deem and Ramdas Pophale) SiO2 
 PCOD9518947
Probable space group: I M M M
;
_chemical_formula_sum "Si O2"
_cell_formula_units_Z 72
_cell_length_a 7.316085
_cell_length_b 13.885044
_cell_length_c 30.741782
_cell_angle_alpha 90.000000
_cell_angle_beta 90.000000
_cell_angle_gamma 90.000000
_cell_volume 3122.878167
_symmetry_space_group_name_H-M "I M M M"
_symmetry_group_IT_number 71
_symmetry_cell_setting 'orthorhombic'
loop_
_space_group_symop_operation_xyz
x,y,z
-x,-y,z
x,-y,-z
-x,y,-z
-x,-y,-z
x,y,-z
-x,y,z
x,-y,z
1/2+x,1/2+y,1/2+z
1/2-x,1/2-y,1/2+z
1/2+x,1/2-y,1/2-z
1/2-x,1/2+y,1/2-z
1/2-x,1/2-y,1/2-z
1/2+x,1/2+y,1/2-z
1/2-x,1/2+y,1/2+z
1/2+x,1/2-y,1/2+z
loop_
_atom_site_type_symbol
_atom_site_label
_atom_site_fract_x
_atom_site_fract_y
_atom_site_fract_z
Si Si1 0.712050 0.297843 0.089406
Si Si2 0.220645 0.110081 0.867517
Si Si3 0.782130 0.116563 0.772509
Si Si4 0.276817 0.612102 0.000000
Si Si5 0.221967 0.113558 0.321283
O O1 0.500000 0.327945 0.089756
O O2 0.722470 0.183433 0.095293
O O3 0.787773 0.337331 0.044314
O O4 0.791638 0.339178 0.134447
O O5 0.288368 0.146755 0.819941
O O6 0.000000 0.109214 0.865867
O O7 0.280174 0.000000 0.873692
O O8 0.711649 0.152326 0.725755
O O9 0.000000 0.131855 0.772688
O O10 0.755989 0.000000 0.772110
O O11 0.227682 0.500000 0.000000
O O12 0.500000 0.617668 0.000000
O O13 0.000000 0.121470 0.320330
O O14 0.264162 0.000000 0.323147
#
# Coordination Sequence:
#
# PCOD9518947 Si02
#       5
#    16  16  16   8  16
#     4  10  19  30  49  75  96 119 156 199 239 275
#     4   9  18  33  50  67  93 130 163 190 228 279
#     4   7  11  22  41  64  91 124 158 188 222 271
#     4   9  18  34  54  75 100 126 151 185 234 289
#     4   8  13  23  42  69  97 123 155 193 230 276
#
# _framework density 23.055653
#
# number of rings (size 3 to 8) (size 9 to 14) (size 15 to 20)
#    0.000    3.444    0.000    3.333    0.000    4.000 
#    0.000    1.111    0.000    6.667    0.000    3.111 
#    0.000    0.000    0.000    0.000    0.000    0.000 
#
# Total GULP energy -200981.879650 kJ/mol
# GULP energy per Si atom -5582.829990 kJ/mol
# Density = 2.300318 g / cm^3
# Si number density = 23.055653 Si / 1000 Ang^3
#
#
#
# Elastic Constant Matrix: (Units=GPa)
#
#
# Indices 1 2 3 4 5 6 
#
# 1 91.7834 -8.3811 10.5029 0.0000 0.0000 0.0000
# 2 -8.3811 102.2331 105.4311 0.0000 0.0000 0.0000
# 3 10.5029 105.4311 216.3728 0.0000 0.0000 0.0000
# 4 0.0000 0.0000 0.0000 45.1398 0.0000 0.0000
# 5 0.0000 0.0000 0.0000 0.0000 -96.2983 0.0000
# 6 0.0000 0.0000 0.0000 0.0000 0.0000 5.2184
#
#
#
# Elastic Compliance Matrix: (Units=1/GPa)
#
#
# Indices 1 2 3 4 5 6 
#
# 1 0.011404 0.003027 -0.002028 0.000000 0.000000 0.000000
# 2 0.003027 0.020465 -0.010119 0.000000 0.000000 0.000000
# 3 -0.002028 -0.010119 0.009651 0.000000 0.000000 0.000000
# 4 0.000000 0.000000 0.000000 0.022153 0.000000 0.000000
# 5 0.000000 0.000000 0.000000 0.000000 -0.010384 0.000000
# 6 0.000000 0.000000 0.000000 0.000000 0.000000 0.191629
#
#
# Mechanical properties :
#
#
# Convention : Reuss Voigt Hill
#
# Bulk Modulus (GPa) = 42.95830 69.49947 56.22889
# Shear Modulus (GPa) = 18.45575 11.00107 14.72841
#
# Velocity S-wave (km/s) = 2.83236 2.18675 2.53023
# Velocity P-wave (km/s) = 5.41934 6.04860 5.74259
#
# Compressibility (1/GPa) = 0.02327839
#
# Stress axis : x y z
#
# Youngs Moduli (GPa) = 87.69089 48.86380 103.61971
#
# Poissons Ratio (x) = -0.14789 0.21017
# Poissons Ratio (y) = -0.26541 1.04851
# Poissons Ratio (z) = 0.17787 0.49444
#
# Static dielectric constant tensor:
#      x y z
#    x 1.921330 0.000000 0.000000 
#    y 0.000000 1.875300 0.000000 
#    z 0.000000 0.000000 1.861800 
# 
# From -- ./inp_files/6492.got.cif
#   From: 2010.05.17/outbox.cif.g08.bks.cpg/sg71_4_cif.got.tgz:6492.got - 2010.06.03 16:22:01.
