data_PCOD9518081
_publ_section_title
;
Structure prediction by ZEFSAII (Michael W. Deem and Ramdas Pophale) SiO2 
 PCOD9518081
Probable space group: I M M M
;
_chemical_formula_sum "Si O2"
_cell_formula_units_Z 64
_cell_length_a 35.807469
_cell_length_b 11.849363
_cell_length_c 7.728447
_cell_angle_alpha 90.000000
_cell_angle_beta 90.000000
_cell_angle_gamma 90.000000
_cell_volume 3279.146817
_symmetry_space_group_name_H-M "I M M M"
_symmetry_group_IT_number 71
_symmetry_cell_setting 'orthorhombic'
loop_
_space_group_symop_operation_xyz
x,y,z
-x,-y,z
x,-y,-z
-x,y,-z
-x,-y,-z
x,y,-z
-x,y,z
x,-y,z
1/2+x,1/2+y,1/2+z
1/2-x,1/2-y,1/2+z
1/2+x,1/2-y,1/2-z
1/2-x,1/2+y,1/2-z
1/2-x,1/2-y,1/2-z
1/2+x,1/2+y,1/2-z
1/2-x,1/2+y,1/2+z
1/2+x,1/2-y,1/2+z
loop_
_atom_site_type_symbol
_atom_site_label
_atom_site_fract_x
_atom_site_fract_y
_atom_site_fract_z
Si Si1 0.355878 0.375409 0.707640
Si Si2 0.572466 0.763627 0.207368
Si Si3 0.456535 0.000000 0.788004
Si Si4 0.500000 0.628216 0.787989
Si Si5 0.270530 0.369680 0.708261
O O1 0.353740 0.378557 0.500000
O O2 0.367980 0.500000 0.769309
O O3 0.387198 0.285802 0.753120
O O4 0.313567 0.355913 0.769231
O O5 0.564614 0.888923 0.271787
O O6 0.537911 0.688074 0.271083
O O7 0.569262 0.766016 0.000000
O O8 0.500000 0.000000 0.736031
O O9 0.456862 0.000000 0.000000
O O10 0.500000 0.500000 0.732599
O O11 0.500000 0.631276 0.000000
O O12 0.269996 0.375654 0.500000
O O13 0.258535 0.500000 0.765383
O O14 0.250000 0.250000 0.750000
#
# Coordination Sequence:
#
# PCOD9518081 Si02
#       5
#    16  16   8   8  16
#     4   9  19  36  54  73 103 137 165 202 255 307
#     4  10  18  30  50  73  98 130 171 211 249 297
#     4   9  16  30  49  69  97 135 171 209 257 297
#     4   9  16  25  42  70  97 121 160 213 252 284
#     4   9  19  37  59  82 109 141 176 215 262 317
#
# _framework density 19.517271999999998
#
# number of rings (size 3 to 8) (size 9 to 14) (size 15 to 20)
#    0.000    2.750    1.250    2.250    0.000    3.000 
#    2.250    3.750    0.000    3.000    0.000    0.000 
#    0.000    0.000    0.000    0.000    0.000    0.000 
#
# Total GULP energy -178227.579588 kJ/mol
# GULP energy per Si atom -5569.611862 kJ/mol
# Density = 1.947285 g / cm^3
# Si number density = 19.517272 Si / 1000 Ang^3
#
#
#
# Elastic Constant Matrix: (Units=GPa)
#
#
# Indices 1 2 3 4 5 6 
#
# 1 115.4049 112.3092 4.3998 0.0000 0.0006 0.0000
# 2 112.3092 226.1516 13.2862 0.0002 0.0027 0.0002
# 3 4.3998 13.2862 27.8955 0.0000 0.0059 0.0004
# 4 0.0000 0.0002 0.0000 13.4022 0.0025 0.0001
# 5 0.0006 0.0027 0.0059 0.0025 117.2787 0.0013
# 6 0.0000 0.0002 0.0004 0.0001 0.0013 43.6749
#
#
#
# Elastic Compliance Matrix: (Units=1/GPa)
#
#
# Indices 1 2 3 4 5 6 
#
# 1 0.016820 -0.008433 0.001364 0.000000 0.000000 0.000000
# 2 -0.008433 0.008777 -0.002850 0.000000 0.000000 0.000000
# 3 0.001364 -0.002850 0.036991 0.000000 -0.000002 0.000000
# 4 0.000000 0.000000 0.000000 0.074614 -0.000002 0.000000
# 5 0.000000 0.000000 -0.000002 -0.000002 0.008527 0.000000
# 6 0.000000 0.000000 0.000000 0.000000 0.000000 0.022896
#
#
# Mechanical properties :
#
#
# Convention : Reuss Voigt Hill
#
# Bulk Modulus (GPa) = 23.39281 69.93803 46.66542
# Shear Modulus (GPa) = 24.66523 50.83495 37.75009
#
# Velocity S-wave (km/s) = 3.55880 5.10908 4.40271
# Velocity P-wave (km/s) = 5.37573 8.40924 7.05740
#
# Compressibility (1/GPa) = 0.04274818
#
# Stress axis : x y z
#
# Youngs Moduli (GPa) = 59.45279 113.93098 27.03394
#
# Poissons Ratio (x) = 0.96079 -0.03687
# Poissons Ratio (y) = 0.50137 0.07706
# Poissons Ratio (z) = -0.08107 0.32475
#
# Static dielectric constant tensor:
#      x y z
#    x 1.656460 0.000000 0.000000 
#    y 0.000000 1.702880 0.000000 
#    z 0.000000 0.000000 1.740220 
# 
# From -- ./inp_files/3787.got.cif
#   From: 2010.05.17/outbox.cif.g08.bks.cpg/sg71_2_cif.got.tgz:3787.got - 2010.06.03 16:22:01.
