data_PCOD9518966
_publ_section_title
;
Structure prediction by ZEFSAII (Michael W. Deem and Ramdas Pophale) SiO2 
 PCOD9518966
Probable space group: I M M M
;
_chemical_formula_sum "Si O2"
_cell_formula_units_Z 104
_cell_length_a 13.500471
_cell_length_b 18.300090
_cell_length_c 26.770004
_cell_angle_alpha 90.000000
_cell_angle_beta 90.000000
_cell_angle_gamma 90.000000
_cell_volume 6613.792754
_symmetry_space_group_name_H-M "I M M M"
_symmetry_group_IT_number 71
_symmetry_cell_setting 'orthorhombic'
loop_
_space_group_symop_operation_xyz
x,y,z
-x,-y,z
x,-y,-z
-x,y,-z
-x,-y,-z
x,y,-z
-x,y,z
x,-y,z
1/2+x,1/2+y,1/2+z
1/2-x,1/2-y,1/2+z
1/2+x,1/2-y,1/2-z
1/2-x,1/2+y,1/2-z
1/2-x,1/2-y,1/2-z
1/2+x,1/2+y,1/2-z
1/2-x,1/2+y,1/2+z
1/2+x,1/2-y,1/2+z
loop_
_atom_site_type_symbol
_atom_site_label
_atom_site_fract_x
_atom_site_fract_y
_atom_site_fract_z
Si Si1 0.614100 0.311752 0.777109
Si Si2 0.618158 0.917794 0.121963
Si Si3 0.880974 0.000000 0.441363
Si Si4 0.614261 0.912839 0.672647
Si Si5 0.695826 0.360130 0.118947
Si Si6 0.808432 0.646935 0.277346
Si Si7 0.117851 0.275433 0.441037
O O1 0.500000 0.318292 0.762346
O O2 0.633982 0.352468 0.829542
O O3 0.693608 0.341267 0.737185
O O4 0.642563 0.226682 0.785249
O O5 0.500000 0.913866 0.132436
O O6 0.673763 0.899472 0.173263
O O7 0.639944 0.854764 0.082002
O O8 0.640216 0.000000 0.104777
O O9 0.840091 0.928512 0.413576
O O10 0.853571 0.000000 0.500000
O O11 0.000000 0.000000 0.438397
O O12 0.500000 0.895365 0.662184
O O13 0.691644 0.872505 0.636697
O O14 0.640426 0.889477 0.729176
O O15 0.628385 0.000000 0.667819
O O16 0.677691 0.286724 0.087872
O O17 0.136321 0.273276 0.500000
O O18 0.000000 0.261092 0.433094
#
# Coordination Sequence:
#
# PCOD9518966 Si02
#       7
#    16  16   8  16  16  16  16
#     4  10  19  31  49  74 106 138 169 207 255 303
#     4  10  19  32  52  76 104 135 168 209 254 306
#     4  11  22  34  51  75 101 135 178 216 250 301
#     4  10  20  34  52  74 103 136 171 212 256 301
#     4  11  20  34  53  75 102 137 170 212 256 302
#     4  10  19  30  50  76 102 136 173 208 247 303
#     4  10  20  34  53  76 103 134 168 210 259 307
#
# _framework density 15.724714000000001
#
# number of rings (size 3 to 8) (size 9 to 14) (size 15 to 20)
#    0.000    1.769    2.308    3.692    0.000    2.769 
#    0.000    1.538    0.000    2.308    0.000    0.000 
#    0.000    0.000    0.000    2.769    0.000    0.308 
#
# Total GULP energy -290233.691190 kJ/mol
# GULP energy per Si atom -5581.417138 kJ/mol
# Density = 1.568892 g / cm^3
# Si number density = 15.724714 Si / 1000 Ang^3
#
#
#
# Elastic Constant Matrix: (Units=GPa)
#
#
# Indices 1 2 3 4 5 6 
#
# 1 99.5127 40.3885 36.9875 0.0000 0.0000 0.0000
# 2 40.3885 91.7032 33.3251 0.0000 0.0000 0.0000
# 3 36.9875 33.3251 69.8518 0.0000 0.0000 0.0000
# 4 0.0000 0.0000 0.0000 18.0958 0.0000 0.0000
# 5 0.0000 0.0000 0.0000 0.0000 18.0617 0.0000
# 6 0.0000 0.0000 0.0000 0.0000 0.0000 19.8263
#
#
#
# Elastic Compliance Matrix: (Units=1/GPa)
#
#
# Indices 1 2 3 4 5 6 
#
# 1 0.013679 -0.004104 -0.005285 0.000000 0.000000 0.000000
# 2 -0.004104 0.014423 -0.004708 0.000000 0.000000 0.000000
# 3 -0.005285 -0.004708 0.019361 0.000000 0.000000 0.000000
# 4 0.000000 0.000000 0.000000 0.055261 0.000000 0.000000
# 5 0.000000 0.000000 0.000000 0.000000 0.055366 0.000000
# 6 0.000000 0.000000 0.000000 0.000000 0.000000 0.050438
#
#
# Mechanical properties :
#
#
# Convention : Reuss Voigt Hill
#
# Bulk Modulus (GPa) = 51.89809 53.60777 52.75293
# Shear Modulus (GPa) = 20.56382 21.22120 20.89251
#
# Velocity S-wave (km/s) = 3.62019 3.67760 3.64901
# Velocity P-wave (km/s) = 7.10986 7.22485 7.16759
#
# Compressibility (1/GPa) = 0.01926853
#
# Stress axis : x y z
#
# Youngs Moduli (GPa) = 73.10425 69.33324 51.65088
#
# Poissons Ratio (x) = 0.28454 0.27299
# Poissons Ratio (y) = 0.30001 0.24317
# Poissons Ratio (z) = 0.38638 0.32642
#
# Static dielectric constant tensor:
#      x y z
#    x 1.511000 0.000000 0.000000 
#    y 0.000000 1.532000 0.000000 
#    z 0.000000 0.000000 1.505600 
# 
# From -- ./inp_files/64651.got.cif
#   From: 2010.05.17/outbox.cif.g08.bks.cpg/sg71_33_cif.got.tgz:64651.got - 2010.06.03 16:22:01.
