data_PCOD9518633
_publ_section_title
;
Structure prediction by ZEFSAII (Michael W. Deem and Ramdas Pophale) SiO2 
 PCOD9518633
Probable space group: I M M M
;
_chemical_formula_sum "Si O2"
_cell_formula_units_Z 96
_cell_length_a 25.588680
_cell_length_b 25.160169
_cell_length_c 8.831817
_cell_angle_alpha 90.000000
_cell_angle_beta 90.000000
_cell_angle_gamma 90.000000
_cell_volume 5686.060795
_symmetry_space_group_name_H-M "I M M M"
_symmetry_group_IT_number 71
_symmetry_cell_setting 'orthorhombic'
loop_
_space_group_symop_operation_xyz
x,y,z
-x,-y,z
x,-y,-z
-x,y,-z
-x,-y,-z
x,y,-z
-x,y,z
x,-y,z
1/2+x,1/2+y,1/2+z
1/2-x,1/2-y,1/2+z
1/2+x,1/2-y,1/2-z
1/2-x,1/2+y,1/2-z
1/2-x,1/2-y,1/2-z
1/2+x,1/2+y,1/2-z
1/2-x,1/2+y,1/2+z
1/2+x,1/2-y,1/2+z
loop_
_atom_site_type_symbol
_atom_site_label
_atom_site_fract_x
_atom_site_fract_y
_atom_site_fract_z
Si Si1 0.112073 0.106040 0.816230
Si Si2 0.224217 0.500000 0.830131
Si Si3 0.169165 0.000000 0.821542
Si Si4 0.313603 0.305924 0.181350
Si Si5 0.500000 0.437708 0.315934
Si Si6 0.306070 0.189084 0.683311
Si Si7 0.560072 0.000000 0.819114
Si Si8 0.134501 0.413540 0.177239
O O1 0.143503 0.053811 0.762621
O O2 0.141755 0.156548 0.748945
O O3 0.052244 0.093964 0.771814
O O4 0.114068 0.109696 0.000000
O O5 0.269966 0.500000 0.711195
O O6 0.186669 0.550512 0.815294
O O7 0.247054 0.500000 0.000000
O O8 0.158439 0.000000 0.000000
O O9 0.317613 0.246300 0.245780
O O10 0.254393 0.325119 0.222136
O O11 0.317090 0.305258 0.000000
O O12 0.500000 0.500000 0.265711
O O13 0.500000 0.440258 0.500000
O O14 0.308445 0.192291 0.500000
O O15 0.347330 0.144190 0.733085
O O16 0.590453 0.947651 0.760791
O O17 0.500000 0.000000 0.767573
O O18 0.561397 0.000000 0.000000
O O19 0.119828 0.409719 0.000000
#
# Coordination Sequence:
#
# PCOD9518633 Si02
#       8
#    16   8   8  16   8  16   8  16
#     4  10  19  32  51  73  97 129 172 216 253 294
#     4   9  17  29  45  71 106 135 156 190 247 303
#     4  10  19  28  44  72 101 128 163 208 252 297
#     4  10  20  33  51  76 106 137 165 202 254 304
#     4   9  16  32  55  73  93 129 175 218 255 288
#     4   9  18  34  54  76 103 135 171 206 243 295
#     4  10  21  35  52  77 106 133 162 203 256 304
#     4   9  18  33  53  74  99 133 170 206 241 289
#
# _framework density 16.883393000000002
#
# number of rings (size 3 to 8) (size 9 to 14) (size 15 to 20)
#    0.000    2.500    0.833    2.250    0.000    5.333 
#    0.000    0.417    1.833    0.500    0.000    0.000 
#    0.000    0.000    0.000    0.000    0.000    0.000 
#
# Total GULP energy -267528.184998 kJ/mol
# GULP energy per Si atom -5573.503854 kJ/mol
# Density = 1.684497 g / cm^3
# Si number density = 16.883393 Si / 1000 Ang^3
#
#
#
# Elastic Constant Matrix: (Units=GPa)
#
#
# Indices 1 2 3 4 5 6 
#
# 1 119.2925 74.6505 32.4621 0.0000 0.0000 0.0000
# 2 74.6505 114.5744 31.9518 0.0000 0.0000 0.0000
# 3 32.4621 31.9518 21.3116 0.0000 0.0000 0.0000
# 4 0.0000 0.0000 0.0000 18.8719 0.0000 0.0000
# 5 0.0000 0.0000 0.0000 0.0000 10.8628 0.0000
# 6 0.0000 0.0000 0.0000 0.0000 0.0000 -16.4982
#
#
#
# Elastic Compliance Matrix: (Units=1/GPa)
#
#
# Indices 1 2 3 4 5 6 
#
# 1 0.016745 -0.006525 -0.015722 0.000000 0.000000 0.000000
# 2 -0.006525 0.017542 -0.016361 0.000000 0.000000 0.000000
# 3 -0.015722 -0.016361 0.095401 0.000000 0.000000 0.000000
# 4 0.000000 0.000000 0.000000 0.052989 0.000000 0.000000
# 5 0.000000 0.000000 0.000000 0.000000 0.092058 0.000000
# 6 0.000000 0.000000 0.000000 0.000000 0.000000 -0.060613
#
#
# Mechanical properties :
#
#
# Convention : Reuss Voigt Hill
#
# Bulk Modulus (GPa) = 19.05845 59.25637 39.15741
# Shear Modulus (GPa) = 16.19025 10.38824 13.28925
#
# Velocity S-wave (km/s) = 3.10004 2.48320 2.80861
# Velocity P-wave (km/s) = 4.91187 6.58751 5.81041
#
# Compressibility (1/GPa) = 0.05247018
#
# Stress axis : x y z
#
# Youngs Moduli (GPa) = 59.72101 57.00582 10.48212
#
# Poissons Ratio (x) = 0.37198 0.16480
# Poissons Ratio (y) = 0.38970 0.17150
# Poissons Ratio (z) = 0.93896 0.93266
#
# Static dielectric constant tensor:
#      x y z
#    x 1.560270 0.000000 0.000000 
#    y 0.000000 1.564330 0.000000 
#    z 0.000000 0.000000 1.572840 
# 
# From -- ./inp_files/12961.got.cif
#   From: 2010.05.17/outbox.cif.g08.bks.cpg/sg71_7_cif.got.tgz:12961.got - 2010.06.03 16:22:01.
