data_PCOD9518364
_publ_section_title
;
Structure prediction by ZEFSAII (Michael W. Deem and Ramdas Pophale) SiO2 
 PCOD9518364
Probable space group: I M M M
;
_chemical_formula_sum "Si O2"
_cell_formula_units_Z 80
_cell_length_a 21.132298
_cell_length_b 10.198951
_cell_length_c 21.820123
_cell_angle_alpha 90.000000
_cell_angle_beta 90.000000
_cell_angle_gamma 90.000000
_cell_volume 4702.831581
_symmetry_space_group_name_H-M "I M M M"
_symmetry_group_IT_number 71
_symmetry_cell_setting 'orthorhombic'
loop_
_space_group_symop_operation_xyz
x,y,z
-x,-y,z
x,-y,-z
-x,y,-z
-x,-y,-z
x,y,-z
-x,y,z
x,-y,z
1/2+x,1/2+y,1/2+z
1/2-x,1/2-y,1/2+z
1/2+x,1/2-y,1/2-z
1/2-x,1/2+y,1/2-z
1/2-x,1/2-y,1/2-z
1/2+x,1/2+y,1/2-z
1/2-x,1/2+y,1/2+z
1/2+x,1/2-y,1/2+z
loop_
_atom_site_type_symbol
_atom_site_label
_atom_site_fract_x
_atom_site_fract_y
_atom_site_fract_z
Si Si1 0.363759 0.500000 0.434344
Si Si2 0.255033 0.714344 0.430892
Si Si3 0.690362 0.000000 0.568977
Si Si4 0.427008 0.777379 0.247970
Si Si5 0.290526 0.848688 0.794976
Si Si6 0.074924 0.000000 0.803360
Si Si7 0.432441 0.000000 0.349559
O O1 0.398273 0.500000 0.500000
O O2 0.318768 0.627558 0.432783
O O3 0.402697 0.500000 0.372785
O O4 0.226003 0.694468 0.500000
O O5 0.223214 0.671865 0.367236
O O6 0.269832 0.867834 0.423649
O O7 0.665571 0.000000 0.500000
O O8 0.630478 0.000000 0.612116
O O9 0.500000 0.775698 0.222228
O O10 0.366275 0.829448 0.211577
O O11 0.406959 0.632218 0.268758
O O12 0.431106 0.872470 0.306493
O O13 0.250000 0.750000 0.750000
O O14 0.274441 0.000000 0.778517
O O15 0.000000 0.000000 0.804190
O O16 0.500000 0.000000 0.383609
#
# Coordination Sequence:
#
# PCOD9518364 Si02
#       7
#     8  16   8  16  16   8   8
#     4  10  18  32  51  73 106 144 186 226 270 330
#     4  10  22  37  54  78 111 149 182 226 290 338
#     4  10  20  34  51  75 108 146 186 228 272 328
#     4  10  22  37  54  78 111 149 182 226 290 338
#     4  12  24  36  60  89 115 144 190 245 280 337
#     4  10  20  34  51  75 108 146 186 228 272 328
#     4  10  18  32  51  73 106 144 186 226 270 330
#
# _framework density 17.011029000000001
#
# number of rings (size 3 to 8) (size 9 to 14) (size 15 to 20)
#    0.000    1.600    2.000    3.600    2.800    0.400 
#    0.000    0.000    0.000    7.800    0.000    1.400 
#    0.000    4.800    0.000    0.000    0.000    0.000 
#
# Total GULP energy -222724.264863 kJ/mol
# GULP energy per Si atom -5568.106622 kJ/mol
# Density = 1.697231 g / cm^3
# Si number density = 17.011029 Si / 1000 Ang^3
#
#
#
# Elastic Constant Matrix: (Units=GPa)
#
#
# Indices 1 2 3 4 5 6 
#
# 1 19.2442 4.3331 27.6343 0.0000 0.0000 0.0000
# 2 4.3331 130.5880 19.0360 0.0000 0.0000 0.0000
# 3 27.6343 19.0360 82.0318 0.0000 0.0000 0.0000
# 4 0.0000 0.0000 0.0000 23.3597 0.0000 0.0000
# 5 0.0000 0.0000 0.0000 0.0000 22.4179 0.0000
# 6 0.0000 0.0000 0.0000 0.0000 0.0000 20.2952
#
#
#
# Elastic Compliance Matrix: (Units=1/GPa)
#
#
# Indices 1 2 3 4 5 6 
#
# 1 0.101003 0.001665 -0.034411 0.000000 0.000000 0.000000
# 2 0.001665 0.007953 -0.002406 0.000000 0.000000 0.000000
# 3 -0.034411 -0.002406 0.024341 0.000000 0.000000 0.000000
# 4 0.000000 0.000000 0.000000 0.042809 0.000000 0.000000
# 5 0.000000 0.000000 0.000000 0.000000 0.044607 0.000000
# 6 0.000000 0.000000 0.000000 0.000000 0.000000 0.049273
#
#
# Mechanical properties :
#
#
# Convention : Reuss Voigt Hill
#
# Bulk Modulus (GPa) = 15.87530 37.09676 26.48603
# Shear Modulus (GPa) = 13.83934 25.27192 19.55563
#
# Velocity S-wave (km/s) = 2.85538 3.85856 3.39423
# Velocity P-wave (km/s) = 4.49706 6.45802 5.56460
#
# Compressibility (1/GPa) = 0.06299093
#
# Stress axis : x y z
#
# Youngs Moduli (GPa) = 9.90072 125.73531 41.08279
#
# Poissons Ratio (x) = -0.20932 1.41372
# Poissons Ratio (y) = -0.01648 0.09886
# Poissons Ratio (z) = 0.34070 0.30257
#
# Static dielectric constant tensor:
#      x y z
#    x 1.589350 0.000000 0.000000 
#    y 0.000000 2.050890 0.000000 
#    z 0.000000 0.000000 1.608520 
# 
# From -- ./inp_files/61050.got.cif
#   From: 2010.05.17/outbox.cif.g08.bks.cpg/sg71_31_cif.got.tgz:61050.got - 2010.06.03 16:22:01.
