data_PCOD9518323
_publ_section_title
;
Structure prediction by ZEFSAII (Michael W. Deem and Ramdas Pophale) SiO2 
 PCOD9518323
Probable space group: I M M M
;
_chemical_formula_sum "Si O2"
_cell_formula_units_Z 120
_cell_length_a 14.212458
_cell_length_b 32.796699
_cell_length_c 13.851603
_cell_angle_alpha 90.000000
_cell_angle_beta 90.000000
_cell_angle_gamma 90.000000
_cell_volume 6456.532836
_symmetry_space_group_name_H-M "I M M M"
_symmetry_group_IT_number 71
_symmetry_cell_setting 'orthorhombic'
loop_
_space_group_symop_operation_xyz
x,y,z
-x,-y,z
x,-y,-z
-x,y,-z
-x,-y,-z
x,y,-z
-x,y,z
x,-y,z
1/2+x,1/2+y,1/2+z
1/2-x,1/2-y,1/2+z
1/2+x,1/2-y,1/2-z
1/2-x,1/2+y,1/2-z
1/2-x,1/2-y,1/2-z
1/2+x,1/2+y,1/2-z
1/2-x,1/2+y,1/2+z
1/2+x,1/2-y,1/2+z
loop_
_atom_site_type_symbol
_atom_site_label
_atom_site_fract_x
_atom_site_fract_y
_atom_site_fract_z
Si Si1 0.614644 0.000000 0.611444
Si Si2 0.706628 0.838954 0.384306
Si Si3 0.607665 0.665822 0.382774
Si Si4 0.890483 0.257511 0.117115
Si Si5 0.387384 0.915904 0.281482
Si Si6 0.390290 0.545607 0.262729
Si Si7 0.255244 0.591629 0.386348
Si Si8 0.891977 0.117435 0.387204
O O1 0.642047 0.041657 0.666401
O O2 0.500000 0.000000 0.609489
O O3 0.647036 0.000000 0.500000
O O4 0.692631 0.839549 0.500000
O O5 0.671254 0.795255 0.347412
O O6 0.648779 0.876789 0.341014
O O7 0.816265 0.847796 0.365833
O O8 0.604519 0.666452 0.500000
O O9 0.500000 0.655685 0.351578
O O10 0.632124 0.711597 0.349807
O O11 0.685169 0.632236 0.358360
O O12 0.000000 0.265279 0.139992
O O13 0.883098 0.256697 0.000000
O O14 0.500000 0.915422 0.274942
O O15 0.337377 0.912580 0.177946
O O16 0.500000 0.549379 0.289832
O O17 0.374056 0.500000 0.226760
O O18 0.324742 0.555656 0.352984
O O19 0.371532 0.578706 0.179813
O O20 0.237559 0.591888 0.500000
O O21 0.881457 0.106212 0.500000
O O22 0.000000 0.130027 0.372415
#
# Coordination Sequence:
#
# PCOD9518323 Si02
#       8
#     8  16  16  16  16  16  16  16
#     4   9  20  40  63  85 110 141 179 225 275 329
#     4  10  18  31  55  85 113 144 178 222 283 338
#     4   8  15  31  55  81 107 139 183 233 282 331
#     4   8  14  26  49  82 114 140 174 225 280 332
#     4  11  23  38  56  81 113 146 187 233 276 326
#     4  10  21  37  57  82 111 140 179 232 282 328
#     4  11  23  38  57  78 106 147 191 232 279 328
#     4   9  18  33  53  79 115 154 185 215 264 337
#
# _framework density 18.585826999999998
#
# number of rings (size 3 to 8) (size 9 to 14) (size 15 to 20)
#    0.000    2.467    1.333    2.000    0.933    2.933 
#    0.000    2.667    0.000    2.000    0.000    3.733 
#    0.000    0.000    0.000    0.000    0.000    0.000 
#
# Total GULP energy -334753.292244 kJ/mol
# GULP energy per Si atom -5579.221537 kJ/mol
# Density = 1.854352 g / cm^3
# Si number density = 18.585827 Si / 1000 Ang^3
#
#
#
# Elastic Constant Matrix: (Units=GPa)
#
#
# Indices 1 2 3 4 5 6 
#
# 1 95.0304 57.2095 34.9811 0.0000 0.0000 0.0000
# 2 57.2095 104.8452 33.2545 0.0001 0.0000 0.0000
# 3 34.9811 33.2545 89.2583 0.0004 -0.0002 -0.0001
# 4 0.0000 0.0001 0.0004 19.7576 0.0000 0.0000
# 5 0.0000 0.0000 -0.0002 0.0000 23.2519 0.0000
# 6 0.0000 0.0000 -0.0001 0.0000 0.0000 21.0796
#
#
#
# Elastic Compliance Matrix: (Units=1/GPa)
#
#
# Indices 1 2 3 4 5 6 
#
# 1 0.016608 -0.007935 -0.003552 0.000000 0.000000 0.000000
# 2 -0.007935 0.014608 -0.002332 0.000000 0.000000 0.000000
# 3 -0.003552 -0.002332 0.013465 0.000000 0.000000 0.000000
# 4 0.000000 0.000000 0.000000 0.050614 0.000000 0.000000
# 5 0.000000 0.000000 0.000000 0.000000 0.043007 0.000000
# 6 0.000000 0.000000 0.000000 0.000000 0.000000 0.047439
#
#
# Mechanical properties :
#
#
# Convention : Reuss Voigt Hill
#
# Bulk Modulus (GPa) = 58.68576 60.00267 59.34421
# Shear Modulus (GPa) = 22.82478 23.73039 23.27758
#
# Velocity S-wave (km/s) = 3.50819 3.57711 3.54282
# Velocity P-wave (km/s) = 6.93210 7.02959 6.98101
#
# Compressibility (1/GPa) = 0.01703991
#
# Stress axis : x y z
#
# Youngs Moduli (GPa) = 60.21267 68.45723 74.26919
#
# Poissons Ratio (x) = 0.54324 0.26382
# Poissons Ratio (y) = 0.47782 0.17322
# Poissons Ratio (z) = 0.21389 0.15966
#
# Static dielectric constant tensor:
#      x y z
#    x 1.648790 0.000000 0.000000 
#    y 0.000000 1.645290 0.000000 
#    z 0.000000 0.000000 1.642000 
# 
# From -- ./inp_files/35431.got.cif
#   From: 2010.05.17/outbox.cif.g08.bks.cpg/sg71_18_cif.got.tgz:35431.got - 2010.06.03 16:22:01.
