data_PCOD9518418
_publ_section_title
;
Structure prediction by ZEFSAII (Michael W. Deem and Ramdas Pophale) SiO2 
 PCOD9518418
Probable space group: I M M M
;
_chemical_formula_sum "Si O2"
_cell_formula_units_Z 88
_cell_length_a 7.675876
_cell_length_b 28.594209
_cell_length_c 20.024160
_cell_angle_alpha 90.000000
_cell_angle_beta 90.000000
_cell_angle_gamma 90.000000
_cell_volume 4395.014824
_symmetry_space_group_name_H-M "I M M M"
_symmetry_group_IT_number 71
_symmetry_cell_setting 'orthorhombic'
loop_
_space_group_symop_operation_xyz
x,y,z
-x,-y,z
x,-y,-z
-x,y,-z
-x,-y,-z
x,y,-z
-x,y,z
x,-y,z
1/2+x,1/2+y,1/2+z
1/2-x,1/2-y,1/2+z
1/2+x,1/2-y,1/2-z
1/2-x,1/2+y,1/2-z
1/2-x,1/2-y,1/2-z
1/2+x,1/2+y,1/2-z
1/2-x,1/2+y,1/2+z
1/2+x,1/2-y,1/2+z
loop_
_atom_site_type_symbol
_atom_site_label
_atom_site_fract_x
_atom_site_fract_y
_atom_site_fract_z
Si Si1 0.794982 0.877853 0.425552
Si Si2 0.710344 0.188776 0.189408
Si Si3 0.706369 0.791600 0.340154
Si Si4 0.288563 0.554013 0.809534
Si Si5 0.786116 0.500000 0.577330
Si Si6 0.295402 0.912132 0.838415
O O1 0.720137 0.881823 0.500000
O O2 0.779076 0.825776 0.396120
O O3 0.723637 0.913231 0.369626
O O4 0.000000 0.888727 0.430229
O O5 0.500000 0.186352 0.192479
O O6 0.774381 0.193881 0.266252
O O7 0.756635 0.236695 0.152400
O O8 0.776865 0.140523 0.157896
O O9 0.500000 0.798431 0.339644
O O10 0.500000 0.556417 0.807015
O O11 0.239237 0.500000 0.819092
O O12 0.221955 0.572093 0.738436
O O13 0.737785 0.500000 0.500000
O O14 0.723128 0.546541 0.615488
O O15 0.000000 0.500000 0.581010
O O16 0.500000 0.908818 0.855049
#
# Coordination Sequence:
#
# PCOD9518418 Si02
#       6
#    16  16  16  16   8  16
#     4  10  21  36  53  74 106 146 181 219 268 320
#     4   9  18  31  50  78 106 134 172 217 263 311
#     4  10  19  32  52  77 105 136 172 220 268 313
#     4  10  20  33  52  79 107 136 177 223 265 315
#     4   9  18  32  53  81 108 135 168 208 257 311
#     4  10  18  32  55  79 106 139 175 217 260 310
#
# _framework density 20.022684999999999
#
# number of rings (size 3 to 8) (size 9 to 14) (size 15 to 20)
#    0.000    2.273    2.727    0.545    0.000    2.182 
#    0.000    2.727    0.000    4.364    0.000    2.545 
#    0.000    0.000    0.000    0.000    0.000    0.000 
#
# Total GULP energy -245557.524809 kJ/mol
# GULP energy per Si atom -5580.852837 kJ/mol
# Density = 1.997711 g / cm^3
# Si number density = 20.022685 Si / 1000 Ang^3
#
#
#
# Elastic Constant Matrix: (Units=GPa)
#
#
# Indices 1 2 3 4 5 6 
#
# 1 33.2262 -8.9199 -12.9299 0.0000 0.0000 0.0000
# 2 -8.9199 150.2806 51.8133 0.0000 0.0000 0.0000
# 3 -12.9299 51.8133 90.2800 0.0000 0.0000 0.0000
# 4 0.0000 0.0000 0.0000 22.2234 0.0000 0.0000
# 5 0.0000 0.0000 0.0000 0.0000 14.9636 0.0000
# 6 0.0000 0.0000 0.0000 0.0000 0.0000 10.3215
#
#
#
# Elastic Compliance Matrix: (Units=1/GPa)
#
#
# Indices 1 2 3 4 5 6 
#
# 1 0.031892 0.000397 0.004340 0.000000 0.000000 0.000000
# 2 0.000397 0.008301 -0.004707 0.000000 0.000000 0.000000
# 3 0.004340 -0.004707 0.014400 0.000000 0.000000 0.000000
# 4 0.000000 0.000000 0.000000 0.044998 0.000000 0.000000
# 5 0.000000 0.000000 0.000000 0.000000 0.066829 0.000000
# 6 0.000000 0.000000 0.000000 0.000000 0.000000 0.096885
#
#
# Mechanical properties :
#
#
# Convention : Reuss Voigt Hill
#
# Bulk Modulus (GPa) = 18.29779 37.07931 27.68855
# Shear Modulus (GPa) = 17.76438 25.75659 21.76049
#
# Velocity S-wave (km/s) = 2.98184 3.59049 3.30023
# Velocity P-wave (km/s) = 4.58405 5.97894 5.32735
#
# Compressibility (1/GPa) = 0.05465141
#
# Stress axis : x y z
#
# Youngs Moduli (GPa) = 31.35576 120.47240 69.44594
#
# Poissons Ratio (x) = -0.04778 -0.30139
# Poissons Ratio (y) = -0.01244 0.32689
# Poissons Ratio (z) = -0.13608 0.56707
#
# Static dielectric constant tensor:
#      x y z
#    x 1.736770 0.000000 0.000000 
#    y 0.000000 1.718050 0.000000 
#    z 0.000000 0.000000 1.678840 
# 
# From -- ./inp_files/42432.got.cif
#   From: 2010.05.17/outbox.cif.g08.bks.cpg/sg71_22_cif.got.tgz:42432.got - 2010.06.03 16:22:01.
