data_PCOD9518446
_publ_section_title
;
Structure prediction by ZEFSAII (Michael W. Deem and Ramdas Pophale) SiO2 
 PCOD9518446
Probable space group: I M M M
;
_chemical_formula_sum "Si O2"
_cell_formula_units_Z 88
_cell_length_a 21.967149
_cell_length_b 9.706424
_cell_length_c 22.409704
_cell_angle_alpha 90.000000
_cell_angle_beta 90.000000
_cell_angle_gamma 90.000000
_cell_volume 4778.252266
_symmetry_space_group_name_H-M "I M M M"
_symmetry_group_IT_number 71
_symmetry_cell_setting 'orthorhombic'
loop_
_space_group_symop_operation_xyz
x,y,z
-x,-y,z
x,-y,-z
-x,y,-z
-x,-y,-z
x,y,-z
-x,y,z
x,-y,z
1/2+x,1/2+y,1/2+z
1/2-x,1/2-y,1/2+z
1/2+x,1/2-y,1/2-z
1/2-x,1/2+y,1/2-z
1/2-x,1/2-y,1/2-z
1/2+x,1/2+y,1/2-z
1/2-x,1/2+y,1/2+z
1/2+x,1/2-y,1/2+z
loop_
_atom_site_type_symbol
_atom_site_label
_atom_site_fract_x
_atom_site_fract_y
_atom_site_fract_z
Si Si1 0.252632 0.657047 0.569817
Si Si2 0.185257 0.668317 0.242732
Si Si3 0.624843 0.335997 0.365072
Si Si4 0.640012 0.247772 0.129559
Si Si5 0.000000 0.832938 0.069165
Si Si6 0.426920 0.500000 0.928867
Si Si7 0.430505 0.000000 0.929003
O O1 0.240838 0.668159 0.500000
O O2 0.237583 0.500000 0.589559
O O3 0.323097 0.675005 0.584493
O O4 0.209086 0.758470 0.605492
O O5 0.192925 0.500000 0.238322
O O6 0.250000 0.750000 0.250000
O O7 0.149148 0.737933 0.187639
O O8 0.146583 0.706220 0.301793
O O9 0.622354 0.500000 0.347129
O O10 0.560491 0.295181 0.393868
O O11 0.600807 0.375233 0.108464
O O12 0.606744 0.127870 0.094106
O O13 0.000000 0.000000 0.066197
O O14 0.000000 0.784133 0.000000
O O15 0.500000 0.500000 0.927731
O O16 0.409423 0.500000 0.000000
O O17 0.500000 0.000000 0.906992
O O18 0.431986 0.000000 0.000000
#
# Coordination Sequence:
#
# PCOD9518446 Si02
#       7
#    16  16  16  16   8   8   8
#     4  10  18  32  59  92 121 152 208 272 322 376
#     4  12  25  43  64  92 132 171 218 271 325 388
#     4  10  21  38  63  95 129 173 215 264 331 387
#     4  12  23  40  62  93 125 166 216 263 320 385
#     4   9  18  38  67 101 135 171 220 273 326 389
#     4  11  26  46  65  94 134 171 208 261 331 391
#     4  11  22  40  65  90 122 163 212 263 317 383
#
# _framework density 18.416775999999999
#
# number of rings (size 3 to 8) (size 9 to 14) (size 15 to 20)
#    0.000    1.182    3.636    3.273    2.545    3.636 
#    3.273    0.455    0.000    2.182    0.000    0.000 
#    0.000    0.000    0.000    0.000    0.000    0.000 
#
# Total GULP energy -245376.353816 kJ/mol
# GULP energy per Si atom -5576.735314 kJ/mol
# Density = 1.837486 g / cm^3
# Si number density = 18.416776 Si / 1000 Ang^3
#
#
#
# Elastic Constant Matrix: (Units=GPa)
#
#
# Indices 1 2 3 4 5 6 
#
# 1 132.1650 38.5600 42.9781 0.0000 0.0000 0.0000
# 2 38.5600 118.5450 38.8482 0.0000 0.0000 0.0000
# 3 42.9781 38.8482 94.9714 0.0000 0.0000 0.0000
# 4 0.0000 0.0000 0.0000 27.3140 0.0000 0.0000
# 5 0.0000 0.0000 0.0000 0.0000 17.9366 0.0000
# 6 0.0000 0.0000 0.0000 0.0000 0.0000 52.9821
#
#
#
# Elastic Compliance Matrix: (Units=1/GPa)
#
#
# Indices 1 2 3 4 5 6 
#
# 1 0.009223 -0.001885 -0.003403 0.000000 0.000000 0.000000
# 2 -0.001885 0.010127 -0.003289 0.000000 0.000000 0.000000
# 3 -0.003403 -0.003289 0.013415 0.000000 0.000000 0.000000
# 4 0.000000 0.000000 0.000000 0.036611 0.000000 0.000000
# 5 0.000000 0.000000 0.000000 0.000000 0.055752 0.000000
# 6 0.000000 0.000000 0.000000 0.000000 0.000000 0.018874
#
#
# Mechanical properties :
#
#
# Convention : Reuss Voigt Hill
#
# Bulk Modulus (GPa) = 64.05942 65.16157 64.61049
# Shear Modulus (GPa) = 30.05553 34.66623 32.36088
#
# Velocity S-wave (km/s) = 4.04414 4.34328 4.19637
# Velocity P-wave (km/s) = 7.52765 7.78527 7.65754
#
# Compressibility (1/GPa) = 0.01561051
#
# Stress axis : x y z
#
# Youngs Moduli (GPa) = 108.42814 98.74911 74.54451
#
# Poissons Ratio (x) = 0.18613 0.25365
# Poissons Ratio (y) = 0.20437 0.24520
# Poissons Ratio (z) = 0.36894 0.32482
#
# Static dielectric constant tensor:
#      x y z
#    x 1.654080 0.000000 0.000000 
#    y 0.000000 2.123280 0.000000 
#    z 0.000000 0.000000 1.634820 
# 
# From -- ./inp_files/61147.got.cif
#   From: 2010.05.17/outbox.cif.g08.bks.cpg/sg71_31_cif.got.tgz:61147.got - 2010.06.03 16:22:01.
