data_PCOD9518933
_publ_section_title
;
Structure prediction by ZEFSAII (Michael W. Deem and Ramdas Pophale) SiO2 
 PCOD9518933
Probable space group: I M M M
;
_chemical_formula_sum "Si O2"
_cell_formula_units_Z 104
_cell_length_a 22.876188
_cell_length_b 9.831860
_cell_length_c 26.494798
_cell_angle_alpha 90.000000
_cell_angle_beta 90.000000
_cell_angle_gamma 90.000000
_cell_volume 5959.090150
_symmetry_space_group_name_H-M "I M M M"
_symmetry_group_IT_number 71
_symmetry_cell_setting 'orthorhombic'
loop_
_space_group_symop_operation_xyz
x,y,z
-x,-y,z
x,-y,-z
-x,y,-z
-x,-y,-z
x,y,-z
-x,y,z
x,-y,z
1/2+x,1/2+y,1/2+z
1/2-x,1/2-y,1/2+z
1/2+x,1/2-y,1/2-z
1/2-x,1/2+y,1/2-z
1/2-x,1/2-y,1/2-z
1/2+x,1/2+y,1/2-z
1/2-x,1/2+y,1/2+z
1/2+x,1/2-y,1/2+z
loop_
_atom_site_type_symbol
_atom_site_label
_atom_site_fract_x
_atom_site_fract_y
_atom_site_fract_z
Si Si1 0.430725 0.160594 0.292603
Si Si2 0.370718 0.163447 0.896906
Si Si3 0.103382 0.843377 0.304394
Si Si4 0.742969 0.338318 0.440598
Si Si5 0.837340 0.343687 0.877661
Si Si6 0.259074 0.358077 0.791716
Si Si7 0.934272 0.664764 0.500000
O O1 0.500000 0.170407 0.302018
O O2 0.415052 0.260286 0.245901
O O3 0.392853 0.195225 0.342677
O O4 0.417450 0.000000 0.280726
O O5 0.403860 0.247216 0.853248
O O6 0.301590 0.191165 0.907490
O O7 0.376078 0.000000 0.888076
O O8 0.400933 0.202133 0.949442
O O9 0.173423 0.857685 0.304924
O O10 0.079898 0.000000 0.306102
O O11 0.754671 0.309966 0.500000
O O12 0.732585 0.500000 0.435843
O O13 0.686696 0.255183 0.420994
O O14 0.845654 0.500000 0.895171
O O15 0.783545 0.342448 0.838333
O O16 0.242902 0.500000 0.766635
O O17 0.250000 0.250000 0.750000
O O18 0.935887 0.500000 0.500000
O O19 0.000000 0.716885 0.500000
#
# Coordination Sequence:
#
# PCOD9518933 Si02
#       7
#    16  16  16  16  16  16   8
#     4  10  22  40  59  78 105 144 187 226 265 319
#     4  10  19  33  54  79 108 143 184 229 270 312
#     4  11  22  34  51  80 114 144 175 216 269 322
#     4  10  20  34  54  82 113 142 177 224 278 330
#     4  10  20  35  55  81 109 138 176 222 275 330
#     4  10  19  30  48  76 107 136 170 211 257 309
#     4   9  18  34  55  75  97 135 188 233 262 300
#
# _framework density 17.452328999999999
#
# number of rings (size 3 to 8) (size 9 to 14) (size 15 to 20)
#    0.000    1.923    3.846    0.462    0.000    3.077 
#    0.000    1.923    0.000    0.923    0.000    3.231 
#    0.000    0.000    0.000    0.000    0.000    0.000 
#
# Total GULP energy -289488.087256 kJ/mol
# GULP energy per Si atom -5567.078601 kJ/mol
# Density = 1.741261 g / cm^3
# Si number density = 17.452329 Si / 1000 Ang^3
#
#
#
# Elastic Constant Matrix: (Units=GPa)
#
#
# Indices 1 2 3 4 5 6 
#
# 1 82.3305 20.9700 18.9380 0.0000 0.0000 0.0000
# 2 20.9700 76.7669 48.3026 0.0000 0.0000 0.0000
# 3 18.9380 48.3026 57.7725 0.0000 0.0000 0.0000
# 4 0.0000 0.0000 0.0000 29.9852 0.0000 0.0000
# 5 0.0000 0.0000 0.0000 0.0000 10.3200 0.0000
# 6 0.0000 0.0000 0.0000 0.0000 0.0000 14.4653
#
#
#
# Elastic Compliance Matrix: (Units=1/GPa)
#
#
# Indices 1 2 3 4 5 6 
#
# 1 0.013263 -0.001872 -0.002782 0.000000 0.000000 0.000000
# 2 -0.001872 0.027750 -0.022588 0.000000 0.000000 0.000000
# 3 -0.002782 -0.022588 0.037107 0.000000 0.000000 0.000000
# 4 0.000000 0.000000 0.000000 0.033350 0.000000 0.000000
# 5 0.000000 0.000000 0.000000 0.000000 0.096899 0.000000
# 6 0.000000 0.000000 0.000000 0.000000 0.000000 0.069131
#
#
# Mechanical properties :
#
#
# Convention : Reuss Voigt Hill
#
# Bulk Modulus (GPa) = 42.30986 43.69902 43.00444
# Shear Modulus (GPa) = 14.71179 19.53140 17.12160
#
# Velocity S-wave (km/s) = 2.90654 3.34897 3.13557
# Velocity P-wave (km/s) = 5.96320 6.32831 6.14847
#
# Compressibility (1/GPa) = 0.02363515
#
# Stress axis : x y z
#
# Youngs Moduli (GPa) = 75.39746 36.03544 26.94937
#
# Poissons Ratio (x) = 0.06747 0.07498
# Poissons Ratio (y) = 0.14117 0.60873
# Poissons Ratio (z) = 0.20977 0.81396
#
# Static dielectric constant tensor:
#      x y z
#    x 1.605320 0.000000 0.000000 
#    y 0.000000 1.628540 0.000000 
#    z 0.000000 0.000000 1.582220 
# 
# From -- ./inp_files/57989.got.cif
#   From: 2010.05.17/outbox.cif.g08.bks.cpg/sg71_29_cif.got.tgz:57989.got - 2010.06.03 16:22:01.
