data_PCOD9518842
_publ_section_title
;
Structure prediction by ZEFSAII (Michael W. Deem and Ramdas Pophale) SiO2 
 PCOD9518842
Probable space group: I M M M
;
_chemical_formula_sum "Si O2"
_cell_formula_units_Z 104
_cell_length_a 24.238606
_cell_length_b 18.458830
_cell_length_c 14.131564
_cell_angle_alpha 90.000000
_cell_angle_beta 90.000000
_cell_angle_gamma 90.000000
_cell_volume 6322.692185
_symmetry_space_group_name_H-M "I M M M"
_symmetry_group_IT_number 71
_symmetry_cell_setting 'orthorhombic'
loop_
_space_group_symop_operation_xyz
x,y,z
-x,-y,z
x,-y,-z
-x,y,-z
-x,-y,-z
x,y,-z
-x,y,z
x,-y,z
1/2+x,1/2+y,1/2+z
1/2-x,1/2-y,1/2+z
1/2+x,1/2-y,1/2-z
1/2-x,1/2+y,1/2-z
1/2-x,1/2-y,1/2-z
1/2+x,1/2+y,1/2-z
1/2-x,1/2+y,1/2+z
1/2+x,1/2-y,1/2+z
loop_
_atom_site_type_symbol
_atom_site_label
_atom_site_fract_x
_atom_site_fract_y
_atom_site_fract_z
Si Si1 0.880856 0.412957 0.608199
Si Si2 0.281681 0.842804 0.790224
Si Si3 0.176143 0.086629 0.888528
Si Si4 0.561016 0.587565 0.701124
Si Si5 0.775939 0.810447 0.389308
Si Si6 0.500000 0.916776 0.115056
Si Si7 0.118276 0.914518 0.393420
O O1 0.869375 0.388105 0.500000
O O2 0.885299 0.500000 0.604037
O O3 0.831659 0.391950 0.676093
O O4 0.940837 0.383728 0.640151
O O5 0.224080 0.873241 0.831661
O O6 0.273580 0.837701 0.677698
O O7 0.291841 0.765018 0.839087
O O8 0.114787 0.111090 0.857831
O O9 0.180211 0.000000 0.869993
O O10 0.184236 0.097991 0.000000
O O11 0.500000 0.614956 0.674925
O O12 0.559197 0.500000 0.691090
O O13 0.575545 0.603330 0.810519
O O14 0.762522 0.800398 0.500000
O O15 0.826934 0.866326 0.383374
O O16 0.500000 0.000000 0.149698
O O17 0.500000 0.919634 0.000000
O O18 0.096531 0.904022 0.500000
O O19 0.132390 0.000000 0.382920
#
# Coordination Sequence:
#
# PCOD9518842 Si02
#       7
#    16  16  16  16  16   8  16
#     4   9  16  27  47  74 101 127 154 185 224 274
#     4  11  20  31  50  71  94 124 155 190 230 277
#     4  10  19  30  46  70  98 125 157 196 234 272
#     4   9  17  29  45  66  92 122 158 197 235 275
#     4  10  21  34  48  68  95 124 152 189 237 282
#     4   7  12  24  42  68 101 129 150 178 221 272
#     4   9  17  31  50  68  90 121 156 195 235 277
#
# _framework density 16.448689000000002
#
# number of rings (size 3 to 8) (size 9 to 14) (size 15 to 20)
#    0.000    2.538    1.538    2.769    0.000    2.462 
#    0.000    3.077    1.692    0.000    0.000    0.538 
#    0.000    1.846    0.000    0.000    0.000    0.000 
#
# Total GULP energy -289558.818583 kJ/mol
# GULP energy per Si atom -5568.438819 kJ/mol
# Density = 1.641125 g / cm^3
# Si number density = 16.448689 Si / 1000 Ang^3
#
#
#
# Elastic Constant Matrix: (Units=GPa)
#
#
# Indices 1 2 3 4 5 6 
#
# 1 90.3019 8.9320 18.2663 0.0000 0.0000 0.0000
# 2 8.9320 20.3912 5.6291 0.0000 0.0000 0.0000
# 3 18.2663 5.6291 50.9853 0.0000 0.0000 0.0000
# 4 0.0000 0.0000 0.0000 17.5034 0.0000 0.0000
# 5 0.0000 0.0000 0.0000 0.0000 18.6165 0.0000
# 6 0.0000 0.0000 0.0000 0.0000 0.0000 -9.2913
#
#
#
# Elastic Compliance Matrix: (Units=1/GPa)
#
#
# Indices 1 2 3 4 5 6 
#
# 1 0.012294 -0.004300 -0.003930 0.000000 0.000000 0.000000
# 2 -0.004300 0.052087 -0.004210 0.000000 0.000000 0.000000
# 3 -0.003930 -0.004210 0.021486 0.000000 0.000000 0.000000
# 4 0.000000 0.000000 0.000000 0.057132 0.000000 0.000000
# 5 0.000000 0.000000 0.000000 0.000000 0.053716 0.000000
# 6 0.000000 0.000000 0.000000 0.000000 0.000000 -0.107628
#
#
# Mechanical properties :
#
#
# Convention : Reuss Voigt Hill
#
# Bulk Modulus (GPa) = 16.39706 25.25924 20.82815
# Shear Modulus (GPa) = 37.23117 13.95580 25.59348
#
# Velocity S-wave (km/s) = 4.76276 2.91597 3.94884
# Velocity P-wave (km/s) = 6.34314 5.16980 5.78629
#
# Compressibility (1/GPa) = 0.06098655
#
# Stress axis : x y z
#
# Youngs Moduli (GPa) = 81.33882 19.19880 46.54141
#
# Poissons Ratio (x) = 0.08256 0.18290
# Poissons Ratio (y) = 0.34979 0.19594
# Poissons Ratio (z) = 0.31965 0.08083
#
# Static dielectric constant tensor:
#      x y z
#    x 1.570570 0.000000 0.000000 
#    y 0.000000 1.563180 0.000000 
#    z 0.000000 0.000000 1.567260 
# 
# From -- ./inp_files/38337.got.cif
#   From: 2010.05.17/outbox.cif.g08.bks.cpg/sg71_20_cif.got.tgz:38337.got - 2010.06.03 16:22:01.
