data_PCOD9518086
_publ_section_title
;
Structure prediction by ZEFSAII (Michael W. Deem and Ramdas Pophale) SiO2 
 PCOD9518086
Probable space group: I M M M
;
_chemical_formula_sum "Si O2"
_cell_formula_units_Z 104
_cell_length_a 7.347651
_cell_length_b 23.875015
_cell_length_c 27.486567
_cell_angle_alpha 90.000000
_cell_angle_beta 90.000000
_cell_angle_gamma 90.000000
_cell_volume 4821.838653
_symmetry_space_group_name_H-M "I M M M"
_symmetry_group_IT_number 71
_symmetry_cell_setting 'orthorhombic'
loop_
_space_group_symop_operation_xyz
x,y,z
-x,-y,z
x,-y,-z
-x,y,-z
-x,-y,-z
x,y,-z
-x,y,z
x,-y,z
1/2+x,1/2+y,1/2+z
1/2-x,1/2-y,1/2+z
1/2+x,1/2-y,1/2-z
1/2-x,1/2+y,1/2-z
1/2-x,1/2-y,1/2-z
1/2+x,1/2+y,1/2-z
1/2-x,1/2+y,1/2+z
1/2+x,1/2-y,1/2+z
loop_
_atom_site_type_symbol
_atom_site_label
_atom_site_fract_x
_atom_site_fract_y
_atom_site_fract_z
Si Si1 0.778652 0.562754 0.323943
Si Si2 0.212279 0.265074 0.055732
Si Si3 0.702724 0.851065 0.633806
Si Si4 0.280885 0.565173 0.053073
Si Si5 0.722094 0.936797 0.711141
Si Si6 0.721830 0.063456 0.000000
Si Si7 0.720024 0.860412 0.089762
O O1 0.723802 0.500000 0.340575
O O2 0.725742 0.568910 0.267645
O O3 0.718386 0.612409 0.359409
O O4 0.000000 0.562962 0.324735
O O5 0.290861 0.303498 0.099405
O O6 0.221538 0.201351 0.074121
O O7 0.000000 0.281450 0.052615
O O8 0.285786 0.269542 0.000000
O O9 0.500000 0.831046 0.648309
O O10 0.691301 0.901952 0.595948
O O11 0.786758 0.883442 0.679922
O O12 0.500000 0.569685 0.057367
O O13 0.235155 0.500000 0.054516
O O14 0.229752 0.587986 0.000000
O O15 0.500000 0.936246 0.708471
O O16 0.777944 0.000000 0.694597
O O17 0.777942 0.097103 0.047569
O O18 0.500000 0.062697 0.000000
O O19 0.784199 0.000000 0.000000
O O20 0.500000 0.858940 0.090600
#
# Coordination Sequence:
#
# PCOD9518086 Si02
#       7
#    16  16  16  16  16   8  16
#     4   8  14  26  47  75 102 123 145 185 244 296
#     4  10  21  35  47  62  93 133 165 199 243 282
#     4  10  19  31  49  70  90 122 170 209 233 269
#     4   9  18  31  45  65  95 125 151 191 252 306
#     4   8  14  26  46  73 100 121 148 194 247 289
#     4   9  16  26  45  75 101 115 142 195 242 275
#     4  10  18  30  50  74  96 122 158 195 233 285
#
# _framework density 21.568535000000001
#
# number of rings (size 3 to 8) (size 9 to 14) (size 15 to 20)
#    0.000    2.846    0.769    2.769    0.000    4.308 
#    0.000    1.538    0.000    3.231    0.000    2.154 
#    0.000    0.000    0.000    0.000    0.000    0.000 
#
# Total GULP energy -290025.491762 kJ/mol
# GULP energy per Si atom -5577.413303 kJ/mol
# Density = 2.151944 g / cm^3
# Si number density = 21.568535 Si / 1000 Ang^3
#
#
#
# Elastic Constant Matrix: (Units=GPa)
#
#
# Indices 1 2 3 4 5 6 
#
# 1 77.1767 1.4453 1.8707 0.0000 0.0000 0.0000
# 2 1.4453 142.4319 78.5227 0.0000 0.0000 0.0000
# 3 1.8707 78.5227 119.0179 0.0000 0.0000 0.0000
# 4 0.0000 0.0000 0.0000 40.4171 0.0000 0.0000
# 5 0.0000 0.0000 0.0000 0.0000 -8.4137 0.0000
# 6 0.0000 0.0000 0.0000 0.0000 0.0000 12.9829
#
#
#
# Elastic Compliance Matrix: (Units=1/GPa)
#
#
# Indices 1 2 3 4 5 6 
#
# 1 0.012962 -0.000030 -0.000184 0.000000 0.000000 0.000000
# 2 -0.000030 0.011034 -0.007280 0.000000 0.000000 0.000000
# 3 -0.000184 -0.007280 0.013208 0.000000 0.000000 0.000000
# 4 0.000000 0.000000 0.000000 0.024742 0.000000 0.000000
# 5 0.000000 0.000000 0.000000 0.000000 -0.118854 0.000000
# 6 0.000000 0.000000 0.000000 0.000000 0.000000 0.077025
#
#
# Mechanical properties :
#
#
# Convention : Reuss Voigt Hill
#
# Bulk Modulus (GPa) = 45.00995 55.81154 50.41074
# Shear Modulus (GPa) = 117.61833 26.11643 71.86738
#
# Velocity S-wave (km/s) = 7.39261 3.48351 5.77865
# Velocity P-wave (km/s) = 9.68408 6.48940 8.24299
#
# Compressibility (1/GPa) = 0.02221731
#
# Stress axis : x y z
#
# Youngs Moduli (GPa) = 77.14681 90.62555 75.71341
#
# Poissons Ratio (x) = 0.00274 0.01392
# Poissons Ratio (y) = 0.00233 0.55116
# Poissons Ratio (z) = 0.01418 0.65971
#
# Static dielectric constant tensor:
#      x y z
#    x 1.876490 0.000000 0.000000 
#    y 0.000000 1.763510 0.000000 
#    z 0.000000 0.000000 1.788120 
# 
# From -- ./inp_files/63576.got.cif
#   From: 2010.05.17/outbox.cif.g08.bks.cpg/sg71_32_cif.got.tgz:63576.got - 2010.06.03 16:22:01.
