data_PCOD9518411
_publ_section_title
;
Structure prediction by ZEFSAII (Michael W. Deem and Ramdas Pophale) SiO2 
 PCOD9518411
Probable space group: I M M M
;
_chemical_formula_sum "Si O2"
_cell_formula_units_Z 88
_cell_length_a 27.398390
_cell_length_b 11.918395
_cell_length_c 15.146750
_cell_angle_alpha 90.000000
_cell_angle_beta 90.000000
_cell_angle_gamma 90.000000
_cell_volume 4946.092970
_symmetry_space_group_name_H-M "I M M M"
_symmetry_group_IT_number 71
_symmetry_cell_setting 'orthorhombic'
loop_
_space_group_symop_operation_xyz
x,y,z
-x,-y,z
x,-y,-z
-x,y,-z
-x,-y,-z
x,y,-z
-x,y,z
x,-y,z
1/2+x,1/2+y,1/2+z
1/2-x,1/2-y,1/2+z
1/2+x,1/2-y,1/2-z
1/2-x,1/2+y,1/2-z
1/2-x,1/2-y,1/2-z
1/2+x,1/2+y,1/2-z
1/2-x,1/2+y,1/2+z
1/2+x,1/2-y,1/2+z
loop_
_atom_site_type_symbol
_atom_site_label
_atom_site_fract_x
_atom_site_fract_y
_atom_site_fract_z
Si Si1 0.443968 0.636636 0.000000
Si Si2 0.390086 0.366480 0.821153
Si Si3 0.644082 0.133313 0.595030
Si Si4 0.664288 0.000000 0.105758
Si Si5 0.555463 0.217445 0.312449
Si Si6 0.196271 0.707506 0.726087
Si Si7 0.444309 0.000000 0.816114
O O1 0.415293 0.671623 0.087485
O O2 0.445429 0.500000 0.000000
O O3 0.500000 0.676461 0.000000
O O4 0.386173 0.500000 0.821577
O O5 0.424560 0.322328 0.742896
O O6 0.338016 0.308413 0.807710
O O7 0.665963 0.164642 0.500000
O O8 0.591907 0.191108 0.608500
O O9 0.674536 0.165641 0.680739
O O10 0.637351 0.000000 0.596529
O O11 0.688464 0.892245 0.154925
O O12 0.605345 0.000000 0.125870
O O13 0.671665 0.000000 0.000000
O O14 0.500000 0.231580 0.339321
O O15 0.558714 0.110187 0.246030
O O16 0.250000 0.750000 0.750000
O O17 0.500000 0.000000 0.855801
#
# Coordination Sequence:
#
# PCOD9518411 Si02
#       7
#     8  16  16   8  16  16   8
#     4   9  18  34  54  83 123 159 197 244 289 356
#     4  10  21  35  56  84 117 160 207 248 295 366
#     4  10  19  36  60  86 114 147 196 253 304 359
#     4  12  24  43  66  96 130 162 208 261 310 378
#     4  10  18  32  54  81 119 157 195 243 299 359
#     4  11  24  42  65  84 123 160 203 256 316 358
#     4  10  18  35  58  87 124 166 202 239 305 376
#
# _framework density 17.791820999999999
#
# number of rings (size 3 to 8) (size 9 to 14) (size 15 to 20)
#    0.000    1.727    5.455    0.545    2.545    2.364 
#    0.000    0.909    0.000    4.909    0.000    5.091 
#    0.000    0.000    0.000    0.000    0.000    0.000 
#
# Total GULP energy -245370.358757 kJ/mol
# GULP energy per Si atom -5576.599063 kJ/mol
# Density = 1.775133 g / cm^3
# Si number density = 17.791821 Si / 1000 Ang^3
#
#
#
# Elastic Constant Matrix: (Units=GPa)
#
#
# Indices 1 2 3 4 5 6 
#
# 1 118.4884 26.8982 62.0740 0.0000 0.0000 0.0000
# 2 26.8982 76.7698 43.4352 0.0000 0.0000 0.0000
# 3 62.0740 43.4352 128.3163 0.0000 0.0000 0.0000
# 4 0.0000 0.0000 0.0000 18.3407 0.0000 0.0000
# 5 0.0000 0.0000 0.0000 0.0000 12.3637 0.0000
# 6 0.0000 0.0000 0.0000 0.0000 0.0000 18.1402
#
#
#
# Elastic Compliance Matrix: (Units=1/GPa)
#
#
# Indices 1 2 3 4 5 6 
#
# 1 0.011376 -0.001079 -0.005138 0.000000 0.000000 0.000000
# 2 -0.001079 0.016214 -0.004967 0.000000 0.000000 0.000000
# 3 -0.005138 -0.004967 0.011960 0.000000 0.000000 0.000000
# 4 0.000000 0.000000 0.000000 0.054524 0.000000 0.000000
# 5 0.000000 0.000000 0.000000 0.000000 0.080882 0.000000
# 6 0.000000 0.000000 0.000000 0.000000 0.000000 0.055126
#
#
# Mechanical properties :
#
#
# Convention : Reuss Voigt Hill
#
# Bulk Modulus (GPa) = 58.19648 65.37660 61.78654
# Shear Modulus (GPa) = 19.36654 22.51339 20.93996
#
# Velocity S-wave (km/s) = 3.30283 3.56108 3.43438
# Velocity P-wave (km/s) = 6.87936 7.33031 7.10841
#
# Compressibility (1/GPa) = 0.01718317
#
# Stress axis : x y z
#
# Youngs Moduli (GPa) = 87.90144 61.67532 83.61163
#
# Poissons Ratio (x) = 0.06654 0.42961
# Poissons Ratio (y) = 0.09484 0.41526
# Poissons Ratio (z) = 0.45166 0.30631
#
# Static dielectric constant tensor:
#      x y z
#    x 1.614920 0.000000 0.000000 
#    y 0.000000 1.603860 0.000000 
#    z 0.000000 0.000000 1.611810 
# 
# From -- ./inp_files/40179.got.cif
#   From: 2010.05.17/outbox.cif.g08.bks.cpg/sg71_21_cif.got.tgz:40179.got - 2010.06.03 16:22:01.
