data_PCOD9518899
_publ_section_title
;
Structure prediction by ZEFSAII (Michael W. Deem and Ramdas Pophale) SiO2 
 PCOD9518899
Probable space group: I M M M
;
_chemical_formula_sum "Si O2"
_cell_formula_units_Z 72
_cell_length_a 13.247107
_cell_length_b 31.924862
_cell_length_c 8.896064
_cell_angle_alpha 90.000000
_cell_angle_beta 90.000000
_cell_angle_gamma 90.000000
_cell_volume 3762.252778
_symmetry_space_group_name_H-M "I M M M"
_symmetry_group_IT_number 71
_symmetry_cell_setting 'orthorhombic'
loop_
_space_group_symop_operation_xyz
x,y,z
-x,-y,z
x,-y,-z
-x,y,-z
-x,-y,-z
x,y,-z
-x,y,z
x,-y,z
1/2+x,1/2+y,1/2+z
1/2-x,1/2-y,1/2+z
1/2+x,1/2-y,1/2-z
1/2-x,1/2+y,1/2-z
1/2-x,1/2-y,1/2-z
1/2+x,1/2+y,1/2-z
1/2-x,1/2+y,1/2+z
1/2+x,1/2-y,1/2+z
loop_
_atom_site_type_symbol
_atom_site_label
_atom_site_fract_x
_atom_site_fract_y
_atom_site_fract_z
Si Si1 0.189871 0.896225 0.822216
Si Si2 0.384326 0.133430 0.680934
Si Si3 0.379063 0.313511 0.168566
Si Si4 0.500000 0.451635 0.316610
Si Si5 0.877259 0.729271 0.173214
O O1 0.299785 0.897376 0.745754
O O2 0.149181 0.850037 0.782466
O O3 0.102236 0.927859 0.767511
O O4 0.201144 0.901479 0.000000
O O5 0.384567 0.131768 0.500000
O O6 0.500000 0.125933 0.731604
O O7 0.354474 0.181599 0.721603
O O8 0.500000 0.312251 0.162614
O O9 0.345139 0.267700 0.222040
O O10 0.342214 0.323570 0.000000
O O11 0.500000 0.500000 0.270948
O O12 0.500000 0.449976 0.500000
O O13 0.000000 0.730199 0.171980
O O14 0.846179 0.736092 0.000000
#
# Coordination Sequence:
#
# PCOD9518899 Si02
#       5
#    16  16  16   8  16
#     4  11  21  34  57  83 107 139 179 226 278 333
#     4   9  19  36  55  77 110 150 188 227 270 316
#     4  10  19  30  47  73 108 145 183 229 277 326
#     4   9  20  40  63  87 113 139 173 223 285 343
#     4   8  15  29  48  69  99 143 190 230 267 310
#
# _framework density 19.13747
#
# number of rings (size 3 to 8) (size 9 to 14) (size 15 to 20)
#    0.000    2.556    1.111    2.667    0.000    3.111 
#    0.000    2.222    0.000    6.000    0.000    4.667 
#    0.000    0.000    0.000    0.000    0.000    0.000 
#
# Total GULP energy -200906.946531 kJ/mol
# GULP energy per Si atom -5580.748515 kJ/mol
# Density = 1.909391 g / cm^3
# Si number density = 19.137470 Si / 1000 Ang^3
#
#
#
# Elastic Constant Matrix: (Units=GPa)
#
#
# Indices 1 2 3 4 5 6 
#
# 1 137.3378 63.9954 21.9189 -0.0002 0.0000 0.0002
# 2 63.9954 85.9056 16.6325 -0.0003 0.0002 0.0000
# 3 21.9189 16.6325 23.1043 -0.0017 0.0037 0.0001
# 4 -0.0002 -0.0003 -0.0017 13.1325 0.0003 0.0000
# 5 0.0000 0.0002 0.0037 0.0003 31.2695 -0.0003
# 6 0.0002 0.0000 0.0001 0.0000 -0.0003 19.9721
#
#
#
# Elastic Compliance Matrix: (Units=1/GPa)
#
#
# Indices 1 2 3 4 5 6 
#
# 1 0.011751 -0.007664 -0.005631 -0.000001 0.000001 0.000000
# 2 -0.007664 0.018524 -0.006065 0.000000 0.000001 0.000000
# 3 -0.005631 -0.006065 0.052990 0.000007 -0.000006 0.000000
# 4 -0.000001 0.000000 0.000007 0.076147 -0.000001 0.000000
# 5 0.000001 0.000001 -0.000006 -0.000001 0.031980 0.000000
# 6 0.000000 0.000000 0.000000 0.000000 0.000000 0.050070
#
#
# Mechanical properties :
#
#
# Convention : Reuss Voigt Hill
#
# Bulk Modulus (GPa) = 22.44870 50.16013 36.30441
# Shear Modulus (GPa) = 16.94746 22.46156 19.70451
#
# Velocity S-wave (km/s) = 2.97907 3.42964 3.21227
# Velocity P-wave (km/s) = 4.85684 6.47693 5.72448
#
# Compressibility (1/GPa) = 0.04454602
#
# Stress axis : x y z
#
# Youngs Moduli (GPa) = 85.09828 53.98413 18.87149
#
# Poissons Ratio (x) = 0.41372 0.10627
# Poissons Ratio (y) = 0.65217 0.11445
# Poissons Ratio (z) = 0.47920 0.32739
#
# Static dielectric constant tensor:
#      x y z
#    x 1.767040 0.000000 0.000000 
#    y 0.000000 1.624410 0.000000 
#    z 0.000000 0.000000 1.645840 
# 
# From -- ./inp_files/6453.got.cif
#   From: 2010.05.17/outbox.cif.g08.bks.cpg/sg71_4_cif.got.tgz:6453.got - 2010.06.03 16:22:01.
