data_PCOD9518106
_publ_section_title
;
Structure prediction by ZEFSAII (Michael W. Deem and Ramdas Pophale) SiO2 
 PCOD9518106
Probable space group: I M M M
;
_chemical_formula_sum "Si O2"
_cell_formula_units_Z 120
_cell_length_a 13.338343
_cell_length_b 23.770238
_cell_length_c 22.935654
_cell_angle_alpha 90.000000
_cell_angle_beta 90.000000
_cell_angle_gamma 90.000000
_cell_volume 7271.877257
_symmetry_space_group_name_H-M "I M M M"
_symmetry_group_IT_number 71
_symmetry_cell_setting 'orthorhombic'
loop_
_space_group_symop_operation_xyz
x,y,z
-x,-y,z
x,-y,-z
-x,y,-z
-x,-y,-z
x,y,-z
-x,y,z
x,-y,z
1/2+x,1/2+y,1/2+z
1/2-x,1/2-y,1/2+z
1/2+x,1/2-y,1/2-z
1/2-x,1/2+y,1/2-z
1/2-x,1/2-y,1/2-z
1/2+x,1/2+y,1/2-z
1/2-x,1/2+y,1/2+z
1/2+x,1/2-y,1/2+z
loop_
_atom_site_type_symbol
_atom_site_label
_atom_site_fract_x
_atom_site_fract_y
_atom_site_fract_z
Si Si1 0.115413 0.855415 0.290299
Si Si2 0.383127 0.339224 0.567540
Si Si3 0.612774 0.064669 0.755805
Si Si4 0.699212 0.107537 0.640132
Si Si5 0.712851 0.780357 0.432109
Si Si6 0.383496 0.237110 0.145946
Si Si7 0.620435 0.000000 0.570149
Si Si8 0.742956 0.367299 0.674684
O O1 0.187058 0.890102 0.334552
O O2 0.119655 0.790507 0.310884
O O3 0.162333 0.858632 0.226061
O O4 0.000000 0.873799 0.291816
O O5 0.358830 0.351499 0.500000
O O6 0.500000 0.350564 0.577394
O O7 0.360787 0.272664 0.576491
O O8 0.313484 0.370886 0.613485
O O9 0.500000 0.073359 0.776433
O O10 0.634037 0.102300 0.698979
O O11 0.691148 0.080067 0.805523
O O12 0.624461 0.000000 0.737120
O O13 0.683383 0.165791 0.606062
O O14 0.670373 0.055156 0.599266
O O15 0.714340 0.795280 0.500000
O O16 0.821505 0.758221 0.410537
O O17 0.500000 0.223235 0.134915
O O18 0.320176 0.185189 0.171355
O O19 0.500000 0.000000 0.582353
O O20 0.633057 0.000000 0.500000
#
# Coordination Sequence:
#
# PCOD9518106 Si02
#       8
#    16  16  16  16  16  16   8  16
#     4   9  18  31  48  70  98 130 165 207 254 301
#     4   9  18  32  50  74 105 134 159 194 242 298
#     4  10  20  34  52  73 100 131 164 206 257 306
#     4  10  19  33  51  70 101 135 172 215 257 295
#     4   9  18  31  47  71 101 137 174 206 243 294
#     4   9  17  29  45  70 101 130 164 207 253 301
#     4  11  22  34  51  73  97 131 175 222 266 304
#     4  10  18  30  51  74  98 127 165 202 246 301
#
# _framework density 16.501929000000001
#
# number of rings (size 3 to 8) (size 9 to 14) (size 15 to 20)
#    0.000    2.467    0.667    2.000    0.000    2.400 
#    0.000    1.667    0.000    4.400    0.000    1.867 
#    0.000    0.000    0.000    0.000    0.000    0.000 
#
# Total GULP energy -334338.661252 kJ/mol
# GULP energy per Si atom -5572.311021 kJ/mol
# Density = 1.646437 g / cm^3
# Si number density = 16.501929 Si / 1000 Ang^3
#
#
#
# Elastic Constant Matrix: (Units=GPa)
#
#
# Indices 1 2 3 4 5 6 
#
# 1 94.2791 19.5824 40.6286 0.0000 0.0000 0.0000
# 2 19.5824 23.8669 24.0299 0.0000 0.0000 0.0000
# 3 40.6286 24.0299 88.7451 0.0000 0.0000 0.0000
# 4 0.0000 0.0000 0.0000 28.5929 0.0000 0.0000
# 5 0.0000 0.0000 0.0000 0.0000 19.6315 0.0000
# 6 0.0000 0.0000 0.0000 0.0000 0.0000 22.2674
#
#
#
# Elastic Compliance Matrix: (Units=1/GPa)
#
#
# Indices 1 2 3 4 5 6 
#
# 1 0.013998 -0.006919 -0.004535 0.000000 0.000000 0.000000
# 2 -0.006919 0.061023 -0.013356 0.000000 0.000000 0.000000
# 3 -0.004535 -0.013356 0.016961 0.000000 0.000000 0.000000
# 4 0.000000 0.000000 0.000000 0.034974 0.000000 0.000000
# 5 0.000000 0.000000 0.000000 0.000000 0.050938 0.000000
# 6 0.000000 0.000000 0.000000 0.000000 0.000000 0.044909
#
#
# Mechanical properties :
#
#
# Convention : Reuss Voigt Hill
#
# Bulk Modulus (GPa) = 23.60602 41.70809 32.65706
# Shear Modulus (GPa) = 17.44932 22.27507 19.86219
#
# Velocity S-wave (km/s) = 3.25531 3.67801 3.47310
# Velocity P-wave (km/s) = 5.33531 6.58533 5.99300
#
# Compressibility (1/GPa) = 0.04236207
#
# Stress axis : x y z
#
# Youngs Moduli (GPa) = 71.43721 16.38719 58.95946
#
# Poissons Ratio (x) = 0.11339 0.26738
# Poissons Ratio (y) = 0.49430 0.78745
# Poissons Ratio (z) = 0.32397 0.21886
#
# Static dielectric constant tensor:
#      x y z
#    x 1.558470 0.000000 0.000000 
#    y 0.000000 1.542120 0.000000 
#    z 0.000000 0.000000 1.550010 
# 
# From -- ./inp_files/52259.got.cif
#   From: 2010.05.17/outbox.cif.g08.bks.cpg/sg71_27_cif.got.tgz:52259.got - 2010.06.03 16:22:01.
