data_PCOD9518531
_publ_section_title
;
Structure prediction by ZEFSAII (Michael W. Deem and Ramdas Pophale) SiO2 
 PCOD9518531
Probable space group: I M M M
;
_chemical_formula_sum "Si O2"
_cell_formula_units_Z 88
_cell_length_a 13.273036
_cell_length_b 18.379685
_cell_length_c 20.975404
_cell_angle_alpha 90.000000
_cell_angle_beta 90.000000
_cell_angle_gamma 90.000000
_cell_volume 5117.038336
_symmetry_space_group_name_H-M "I M M M"
_symmetry_group_IT_number 71
_symmetry_cell_setting 'orthorhombic'
loop_
_space_group_symop_operation_xyz
x,y,z
-x,-y,z
x,-y,-z
-x,y,-z
-x,-y,-z
x,y,-z
-x,y,z
x,-y,z
1/2+x,1/2+y,1/2+z
1/2-x,1/2-y,1/2+z
1/2+x,1/2-y,1/2-z
1/2-x,1/2+y,1/2-z
1/2-x,1/2-y,1/2-z
1/2+x,1/2+y,1/2-z
1/2-x,1/2+y,1/2+z
1/2+x,1/2-y,1/2+z
loop_
_atom_site_type_symbol
_atom_site_label
_atom_site_fract_x
_atom_site_fract_y
_atom_site_fract_z
Si Si1 0.699865 0.413478 0.190197
Si Si2 0.381027 0.324790 0.927224
Si Si3 0.500000 0.917312 0.076211
Si Si4 0.384786 0.183099 0.271261
Si Si5 0.815189 0.676191 0.626299
Si Si6 0.886897 0.151784 0.819516
O O1 0.709459 0.500000 0.189074
O O2 0.648125 0.382997 0.126358
O O3 0.807462 0.373161 0.197536
O O4 0.637562 0.388676 0.252946
O O5 0.500000 0.306932 0.920624
O O6 0.319963 0.250897 0.912893
O O7 0.363809 0.349035 0.000000
O O8 0.599636 0.876770 0.099858
O O9 0.500000 0.000000 0.099534
O O10 0.500000 0.916343 0.000000
O O11 0.500000 0.156900 0.270961
O O12 0.348094 0.194920 0.198798
O O13 0.382430 0.261649 0.304651
O O14 0.705321 0.640011 0.632026
O O15 0.000000 0.133507 0.840692
#
# Coordination Sequence:
#
# PCOD9518531 Si02
#       6
#    16  16   8  16  16  16
#     4  11  22  35  52  79 115 149 181 224 278 330
#     4  11  21  34  55  79 105 145 191 227 267 324
#     4  11  24  38  56  86 117 143 178 232 287 326
#     4  10  18  34  58  81 108 138 177 230 280 327
#     4  11  18  35  58  83 109 142 181 225 275 331
#     4  10  20  35  58  82 110 143 179 226 279 331
#
# _framework density 17.197448000000001
#
# number of rings (size 3 to 8) (size 9 to 14) (size 15 to 20)
#    0.000    1.364    5.455    2.182    0.000    5.091 
#    0.000    0.909    0.000    3.818    0.000    2.545 
#    0.000    0.000    0.000    0.000    0.000    0.000 
#
# Total GULP energy -245607.052467 kJ/mol
# GULP energy per Si atom -5581.978465 kJ/mol
# Density = 1.715831 g / cm^3
# Si number density = 17.197448 Si / 1000 Ang^3
#
#
#
# Elastic Constant Matrix: (Units=GPa)
#
#
# Indices 1 2 3 4 5 6 
#
# 1 136.0467 19.8016 32.1175 0.0000 0.0000 0.0000
# 2 19.8016 83.0713 17.5801 0.0000 0.0000 0.0000
# 3 32.1175 17.5801 50.4138 0.0000 0.0000 0.0000
# 4 0.0000 0.0000 0.0000 7.5314 0.0000 0.0000
# 5 0.0000 0.0000 0.0000 0.0000 19.3946 0.0000
# 6 0.0000 0.0000 0.0000 0.0000 0.0000 13.2215
#
#
#
# Elastic Compliance Matrix: (Units=1/GPa)
#
#
# Indices 1 2 3 4 5 6 
#
# 1 0.008724 -0.000975 -0.005218 0.000000 0.000000 0.000000
# 2 -0.000975 0.013106 -0.003949 0.000000 0.000000 0.000000
# 3 -0.005218 -0.003949 0.024537 0.000000 0.000000 0.000000
# 4 0.000000 0.000000 0.000000 0.132778 0.000000 0.000000
# 5 0.000000 0.000000 0.000000 0.000000 0.051561 0.000000
# 6 0.000000 0.000000 0.000000 0.000000 0.000000 0.075635
#
#
# Mechanical properties :
#
#
# Convention : Reuss Voigt Hill
#
# Bulk Modulus (GPa) = 38.33907 45.39226 41.86567
# Shear Modulus (GPa) = 14.91118 21.36500 18.13809
#
# Velocity S-wave (km/s) = 2.94778 3.52850 3.25113
# Velocity P-wave (km/s) = 5.82475 6.56144 6.20404
#
# Compressibility (1/GPa) = 0.02608305
#
# Stress axis : x y z
#
# Youngs Moduli (GPa) = 114.62370 76.30073 40.75459
#
# Poissons Ratio (x) = 0.07442 0.21265
# Poissons Ratio (y) = 0.11180 0.16094
# Poissons Ratio (z) = 0.59809 0.30131
#
# Static dielectric constant tensor:
#      x y z
#    x 1.628190 0.000000 0.000000 
#    y 0.000000 1.569880 0.000000 
#    z 0.000000 0.000000 1.572050 
# 
# From -- ./inp_files/44700.got.cif
#   From: 2010.05.17/outbox.cif.g08.bks.cpg/sg71_23_cif.got.tgz:44700.got - 2010.06.03 16:22:01.
