data_PCOD9518764
_publ_section_title
;
Structure prediction by ZEFSAII (Michael W. Deem and Ramdas Pophale) SiO2 
 PCOD9518764
Probable space group: I M M M
;
_chemical_formula_sum "Si O2"
_cell_formula_units_Z 104
_cell_length_a 34.067150
_cell_length_b 8.008308
_cell_length_c 25.743273
_cell_angle_alpha 90.000000
_cell_angle_beta 90.000000
_cell_angle_gamma 90.000000
_cell_volume 7023.285658
_symmetry_space_group_name_H-M "I M M M"
_symmetry_group_IT_number 71
_symmetry_cell_setting 'orthorhombic'
loop_
_space_group_symop_operation_xyz
x,y,z
-x,-y,z
x,-y,-z
-x,y,-z
-x,-y,-z
x,y,-z
-x,y,z
x,-y,z
1/2+x,1/2+y,1/2+z
1/2-x,1/2-y,1/2+z
1/2+x,1/2-y,1/2-z
1/2-x,1/2+y,1/2-z
1/2-x,1/2-y,1/2-z
1/2+x,1/2+y,1/2-z
1/2-x,1/2+y,1/2+z
1/2+x,1/2-y,1/2+z
loop_
_atom_site_type_symbol
_atom_site_label
_atom_site_fract_x
_atom_site_fract_y
_atom_site_fract_z
Si Si1 0.378976 0.698646 0.659789
Si Si2 0.244457 0.799837 0.556375
Si Si3 0.310058 0.801395 0.730724
Si Si4 0.544524 0.201056 0.613064
Si Si5 0.164243 0.797672 0.943226
Si Si6 0.766770 0.799295 0.669237
Si Si7 0.952055 0.692503 0.000000
O O1 0.378128 0.500000 0.657530
O O2 0.351823 0.751936 0.707465
O O3 0.423898 0.754214 0.656341
O O4 0.358726 0.766456 0.606861
O O5 0.230919 0.733289 0.500000
O O6 0.290981 0.763818 0.559654
O O7 0.227001 0.735387 0.610712
O O8 0.238954 0.000000 0.555307
O O9 0.274722 0.735580 0.693320
O O10 0.299705 0.742272 0.788510
O O11 0.307362 0.000000 0.730316
O O12 0.500000 0.258481 0.623123
O O13 0.557994 0.269233 0.556071
O O14 0.543244 0.000000 0.608245
O O15 0.164574 0.000000 0.941858
O O16 0.148179 0.746443 0.000000
O O17 0.763722 0.000000 0.666258
O O18 0.938298 0.500000 0.000000
O O19 0.000000 0.687933 0.000000
#
# Coordination Sequence:
#
# PCOD9518764 Si02
#       7
#    16  16  16  16  16  16   8
#     4  11  21  30  43  60  81 103 131 170 211 252
#     4   9  16  27  43  61  80 103 133 167 202 242
#     4  10  19  30  44  60  78 105 138 169 202 242
#     4   9  18  32  47  60  76 100 131 167 206 251
#     4   9  18  29  38  52  77 105 131 163 205 248
#     4   9  17  29  43  60  82 105 132 167 205 240
#     4   7  12  26  45  61  75  95 127 165 205 249
#
# _framework density 14.807884
#
# number of rings (size 3 to 8) (size 9 to 14) (size 15 to 20)
#    0.000    2.692    1.538    1.846    1.077    2.154 
#    0.000    0.000    0.000    1.385    0.000    0.000 
#    0.000    0.000    0.000    0.000    0.000    0.769 
#
# Total GULP energy -289736.903778 kJ/mol
# GULP energy per Si atom -5571.863534 kJ/mol
# Density = 1.477418 g / cm^3
# Si number density = 14.807884 Si / 1000 Ang^3
#
#
#
# Elastic Constant Matrix: (Units=GPa)
#
#
# Indices 1 2 3 4 5 6 
#
# 1 58.8725 -4.6903 56.4737 0.0000 0.0000 0.0000
# 2 -4.6903 8.9520 14.0881 0.0000 0.0000 0.0000
# 3 56.4737 14.0881 119.9782 0.0000 0.0000 0.0000
# 4 0.0000 0.0000 0.0000 10.9580 0.0000 0.0000
# 5 0.0000 0.0000 0.0000 0.0000 24.6685 0.0000
# 6 0.0000 0.0000 0.0000 0.0000 0.0000 13.6363
#
#
#
# Elastic Compliance Matrix: (Units=1/GPa)
#
#
# Indices 1 2 3 4 5 6 
#
# 1 0.067906 0.105349 -0.044334 0.000000 0.000000 0.000000
# 2 0.105349 0.300467 -0.084869 0.000000 0.000000 0.000000
# 3 -0.044334 -0.084869 0.039168 0.000000 0.000000 0.000000
# 4 0.000000 0.000000 0.000000 0.091258 0.000000 0.000000
# 5 0.000000 0.000000 0.000000 0.000000 0.040537 0.000000
# 6 0.000000 0.000000 0.000000 0.000000 0.000000 0.073334
#
#
# Mechanical properties :
#
#
# Convention : Reuss Voigt Hill
#
# Bulk Modulus (GPa) = 2.77906 35.50506 19.14206
# Shear Modulus (GPa) = 6.40761 17.98131 12.19446
#
# Velocity S-wave (km/s) = 2.08244 3.48847 2.87280
# Velocity P-wave (km/s) = 2.76819 6.34469 4.89479
#
# Compressibility (1/GPa) = 0.35983347
#
# Stress axis : x y z
#
# Youngs Moduli (GPa) = 14.72617 3.32816 25.53085
#
# Poissons Ratio (x) = -0.35062 1.13188
# Poissons Ratio (y) = -1.55139 2.16678
# Poissons Ratio (z) = 0.65287 0.28246
#
# Static dielectric constant tensor:
#      x y z
#    x 1.487810 0.000000 0.000000 
#    y 0.000000 1.521610 0.000000 
#    z 0.000000 0.000000 1.533680 
# 
# From -- ./inp_files/17468.got.cif
#   From: 2010.05.17/outbox.cif.g08.bks.cpg/sg71_9_cif.got.tgz:17468.got - 2010.06.03 16:22:01.
