data_PCOD9518707
_publ_section_title
;
Structure prediction by ZEFSAII (Michael W. Deem and Ramdas Pophale) SiO2 
 PCOD9518707
Probable space group: I M M M
;
_chemical_formula_sum "Si O2"
_cell_formula_units_Z 88
_cell_length_a 20.312603
_cell_length_b 31.398787
_cell_length_c 8.767529
_cell_angle_alpha 90.000000
_cell_angle_beta 90.000000
_cell_angle_gamma 90.000000
_cell_volume 5591.851921
_symmetry_space_group_name_H-M "I M M M"
_symmetry_group_IT_number 71
_symmetry_cell_setting 'orthorhombic'
loop_
_space_group_symop_operation_xyz
x,y,z
-x,-y,z
x,-y,-z
-x,y,-z
-x,-y,-z
x,y,-z
-x,y,z
x,-y,z
1/2+x,1/2+y,1/2+z
1/2-x,1/2-y,1/2+z
1/2+x,1/2-y,1/2-z
1/2-x,1/2+y,1/2-z
1/2-x,1/2-y,1/2-z
1/2+x,1/2+y,1/2-z
1/2-x,1/2+y,1/2+z
1/2+x,1/2-y,1/2+z
loop_
_atom_site_type_symbol
_atom_site_label
_atom_site_fract_x
_atom_site_fract_y
_atom_site_fract_z
Si Si1 0.500000 0.948234 0.826231
Si Si2 0.645464 0.048824 0.186975
Si Si3 0.707785 0.132269 0.179853
Si Si4 0.071892 0.319561 0.323674
Si Si5 0.711766 0.291096 0.819513
Si Si6 0.426282 0.271647 0.319649
O O1 0.571666 0.938676 0.757533
O O2 0.500000 0.000000 0.837264
O O3 0.500000 0.930935 0.000000
O O4 0.699893 0.083461 0.232324
O O5 0.659017 0.000000 0.230622
O O6 0.642058 0.049977 0.000000
O O7 0.633679 0.150365 0.194821
O O8 0.753717 0.165322 0.266711
O O9 0.725228 0.133236 0.000000
O O10 0.073946 0.304062 0.500000
O O11 0.077191 0.278784 0.215996
O O12 0.000000 0.340009 0.300451
O O13 0.750000 0.250000 0.750000
O O14 0.636327 0.291101 0.764296
O O15 0.714856 0.286645 0.000000
O O16 0.420346 0.278749 0.500000
O O17 0.500000 0.285513 0.270503
#
# Coordination Sequence:
#
# PCOD9518707 Si02
#       6
#     8  16  16  16  16  16
#     4   7  10  18  34  58  89 121 153 195 241 275
#     4   8  14  24  39  62  92 123 157 198 241 282
#     4  10  19  29  45  68  94 126 162 202 244 283
#     4   9  17  27  40  62  92 126 164 201 235 274
#     4  12  23  35  50  68  95 127 161 199 239 283
#     4  10  20  34  52  71  93 122 155 193 236 283
#
# _framework density 15.737183999999999
#
# number of rings (size 3 to 8) (size 9 to 14) (size 15 to 20)
#    0.000    2.455    1.818    3.273    1.273    1.091 
#    0.000    0.000    0.000    0.545    0.000    0.000 
#    0.000    2.909    0.000    8.364    0.000    2.364 
#
# Total GULP energy -245151.066616 kJ/mol
# GULP energy per Si atom -5571.615150 kJ/mol
# Density = 1.570137 g / cm^3
# Si number density = 15.737184 Si / 1000 Ang^3
#
#
#
# Elastic Constant Matrix: (Units=GPa)
#
#
# Indices 1 2 3 4 5 6 
#
# 1 90.4511 51.0532 44.9043 0.0000 0.0000 0.0000
# 2 51.0532 87.4845 32.6381 0.0000 0.0000 0.0000
# 3 44.9043 32.6381 52.6140 0.0001 0.0000 0.0000
# 4 0.0000 0.0000 0.0001 11.2302 0.0000 0.0000
# 5 0.0000 0.0000 0.0000 0.0000 17.8472 0.0000
# 6 0.0000 0.0000 0.0000 0.0000 0.0000 26.2651
#
#
#
# Elastic Compliance Matrix: (Units=1/GPa)
#
#
# Indices 1 2 3 4 5 6 
#
# 1 0.022664 -0.007819 -0.014492 0.000000 0.000000 0.000000
# 2 -0.007819 0.017570 -0.004226 0.000000 0.000000 0.000000
# 3 -0.014492 -0.004226 0.033996 0.000000 0.000000 0.000000
# 4 0.000000 0.000000 0.000000 0.089046 0.000000 0.000000
# 5 0.000000 0.000000 0.000000 0.000000 0.056031 0.000000
# 6 0.000000 0.000000 0.000000 0.000000 0.000000 0.038073
#
#
# Mechanical properties :
#
#
# Convention : Reuss Voigt Hill
#
# Bulk Modulus (GPa) = 47.26862 54.19343 50.73102
# Shear Modulus (GPa) = 15.74767 17.86543 16.80655
#
# Velocity S-wave (km/s) = 3.16676 3.37298 3.27150
# Velocity P-wave (km/s) = 6.59338 7.04845 6.82471
#
# Compressibility (1/GPa) = 0.02115568
#
# Stress axis : x y z
#
# Youngs Moduli (GPa) = 44.12335 56.91455 29.41480
#
# Poissons Ratio (x) = 0.44503 0.42629
# Poissons Ratio (y) = 0.34501 0.12430
# Poissons Ratio (z) = 0.63945 0.24052
#
# Static dielectric constant tensor:
#      x y z
#    x 1.542560 0.000000 0.000000 
#    y 0.000000 1.550150 0.000000 
#    z 0.000000 0.000000 1.542030 
# 
# From -- ./inp_files/11381.got.cif
#   From: 2010.05.17/outbox.cif.g08.bks.cpg/sg71_6_cif.got.tgz:11381.got - 2010.06.03 16:22:01.
