data_PCOD9518111
_publ_section_title
;
Structure prediction by ZEFSAII (Michael W. Deem and Ramdas Pophale) SiO2 
 PCOD9518111
Probable space group: I M M M
;
_chemical_formula_sum "Si O2"
_cell_formula_units_Z 104
_cell_length_a 22.844718
_cell_length_b 27.693582
_cell_length_c 8.278528
_cell_angle_alpha 90.000000
_cell_angle_beta 90.000000
_cell_angle_gamma 90.000000
_cell_volume 5237.427886
_symmetry_space_group_name_H-M "I M M M"
_symmetry_group_IT_number 71
_symmetry_cell_setting 'orthorhombic'
loop_
_space_group_symop_operation_xyz
x,y,z
-x,-y,z
x,-y,-z
-x,y,-z
-x,-y,-z
x,y,-z
-x,y,z
x,-y,z
1/2+x,1/2+y,1/2+z
1/2-x,1/2-y,1/2+z
1/2+x,1/2-y,1/2-z
1/2-x,1/2+y,1/2-z
1/2-x,1/2-y,1/2-z
1/2+x,1/2+y,1/2-z
1/2-x,1/2+y,1/2+z
1/2+x,1/2-y,1/2+z
loop_
_atom_site_type_symbol
_atom_site_label
_atom_site_fract_x
_atom_site_fract_y
_atom_site_fract_z
Si Si1 0.596347 0.286330 0.192784
Si Si2 0.500000 0.443159 0.183578
Si Si3 0.065856 0.677851 0.194813
Si Si4 0.216849 0.054911 0.304798
Si Si5 0.104326 0.885495 0.811827
Si Si6 0.320124 0.880184 0.303070
Si Si7 0.227555 0.199213 0.693843
O O1 0.578228 0.234168 0.260719
O O2 0.570500 0.337904 0.241350
O O3 0.661541 0.300108 0.252308
O O4 0.594346 0.281328 0.000000
O O5 0.500000 0.500000 0.171564
O O6 0.558011 0.427049 0.274798
O O7 0.500000 0.423208 0.000000
O O8 0.116447 0.640315 0.251940
O O9 0.000000 0.665860 0.251632
O O10 0.066322 0.675820 0.000000
O O11 0.216318 0.054607 0.500000
O O12 0.166430 0.093691 0.257310
O O13 0.282872 0.072183 0.255516
O O14 0.204896 0.000000 0.248364
O O15 0.112886 0.877484 0.000000
O O16 0.323566 0.881298 0.500000
O O17 0.274095 0.839409 0.249144
O O18 0.225519 0.194952 0.500000
O O19 0.250000 0.250000 0.750000
#
# Coordination Sequence:
#
# PCOD9518111 Si02
#       7
#    16   8  16  16  16  16  16
#     4  11  22  36  54  78 110 146 187 228 273 334
#     4  11  25  45  65  81 105 149 199 239 278 327
#     4  10  21  36  55  79 112 152 192 235 287 345
#     4  10  20  37  61  85 111 145 188 237 290 347
#     4  12  25  39  58  84 117 151 188 234 285 336
#     4   9  17  33  54  79 110 145 186 232 285 345
#     4  10  18  30  51  76 105 138 176 220 270 327
#
# _framework density 19.857075999999999
#
# number of rings (size 3 to 8) (size 9 to 14) (size 15 to 20)
#    0.000    1.615    3.077    2.538    1.077    3.692 
#    0.000    0.769    0.000    0.462    0.000    3.231 
#    0.000    0.000    0.000    2.769    0.000    3.077 
#
# Total GULP energy -289477.933111 kJ/mol
# GULP energy per Si atom -5566.883329 kJ/mol
# Density = 1.981188 g / cm^3
# Si number density = 19.857076 Si / 1000 Ang^3
#
#
#
# Elastic Constant Matrix: (Units=GPa)
#
#
# Indices 1 2 3 4 5 6 
#
# 1 143.9018 34.2932 14.2184 0.0000 0.0000 0.0000
# 2 34.2932 69.1361 1.8498 0.0000 0.0000 0.0000
# 3 14.2184 1.8498 20.5667 0.0000 0.0000 0.0000
# 4 0.0000 0.0000 0.0000 19.4119 0.0000 0.0000
# 5 0.0000 0.0000 0.0000 0.0000 3.8449 0.0000
# 6 0.0000 0.0000 0.0000 0.0000 0.0000 13.9226
#
#
#
# Elastic Compliance Matrix: (Units=1/GPa)
#
#
# Indices 1 2 3 4 5 6 
#
# 1 0.008455 -0.004047 -0.005481 0.000000 0.000000 0.000000
# 2 -0.004047 0.016437 0.001320 0.000000 0.000000 0.000000
# 3 -0.005481 0.001320 0.052293 0.000000 0.000000 0.000000
# 4 0.000000 0.000000 0.000000 0.051515 0.000000 0.000000
# 5 0.000000 0.000000 0.000000 0.000000 0.260086 0.000000
# 6 0.000000 0.000000 0.000000 0.000000 0.000000 0.071826
#
#
# Mechanical properties :
#
#
# Convention : Reuss Voigt Hill
#
# Bulk Modulus (GPa) = 16.45635 37.14750 26.80193
# Shear Modulus (GPa) = 10.05458 19.65208 14.85333
#
# Velocity S-wave (km/s) = 2.25266 3.14933 2.73795
# Velocity P-wave (km/s) = 3.88218 5.65441 4.84993
#
# Compressibility (1/GPa) = 0.06076681
#
# Stress axis : x y z
#
# Youngs Moduli (GPa) = 118.26894 60.84020 19.12299
#
# Poissons Ratio (x) = 0.24624 0.10482
# Poissons Ratio (y) = 0.47868 -0.02524
# Poissons Ratio (z) = 0.64828 -0.08029
#
# Static dielectric constant tensor:
#      x y z
#    x 1.698350 0.000000 0.000000 
#    y 0.000000 2.058770 0.000000 
#    z 0.000000 0.000000 1.742490 
# 
# From -- ./inp_files/13305.got.cif
#   From: 2010.05.17/outbox.cif.g08.bks.cpg/sg71_7_cif.got.tgz:13305.got - 2010.06.03 16:22:01.
