data_PCOD9518455
_publ_section_title
;
Structure prediction by ZEFSAII (Michael W. Deem and Ramdas Pophale) SiO2 
 PCOD9518455
Probable space group: I M M M
;
_chemical_formula_sum "Si O2"
_cell_formula_units_Z 100
_cell_length_a 7.697283
_cell_length_b 31.449633
_cell_length_c 21.431771
_cell_angle_alpha 90.000000
_cell_angle_beta 90.000000
_cell_angle_gamma 90.000000
_cell_volume 5188.132944
_symmetry_space_group_name_H-M "I M M M"
_symmetry_group_IT_number 71
_symmetry_cell_setting 'orthorhombic'
loop_
_space_group_symop_operation_xyz
x,y,z
-x,-y,z
x,-y,-z
-x,y,-z
-x,-y,-z
x,y,-z
-x,y,z
x,-y,z
1/2+x,1/2+y,1/2+z
1/2-x,1/2-y,1/2+z
1/2+x,1/2-y,1/2-z
1/2-x,1/2+y,1/2-z
1/2-x,1/2-y,1/2-z
1/2+x,1/2+y,1/2-z
1/2-x,1/2+y,1/2+z
1/2+x,1/2-y,1/2+z
loop_
_atom_site_type_symbol
_atom_site_label
_atom_site_fract_x
_atom_site_fract_y
_atom_site_fract_z
Si Si1 0.790399 0.402285 0.570525
Si Si2 0.500000 0.618237 0.000000
Si Si3 0.206356 0.871492 0.266457
Si Si4 0.707742 0.452952 0.310525
Si Si5 0.307346 0.143126 0.407340
Si Si6 0.210339 0.240161 0.429161
Si Si7 0.209688 0.320125 0.648065
O O1 0.726599 0.407150 0.500000
O O2 0.741415 0.439481 0.618153
O O3 0.729642 0.358326 0.602629
O O4 0.000000 0.400441 0.568454
O O5 0.346600 0.621378 0.054129
O O6 0.274439 0.914376 0.232506
O O7 0.286908 0.864356 0.333648
O O8 0.237741 0.833258 0.217600
O O9 0.000000 0.875461 0.274748
O O10 0.500000 0.453914 0.301957
O O11 0.776825 0.500000 0.296954
O O12 0.500000 0.129475 0.426548
O O13 0.287086 0.193654 0.419400
O O14 0.248042 0.254744 0.500000
O O15 0.269014 0.275157 0.379369
O O16 0.000000 0.235538 0.424897
O O17 0.000000 0.319691 0.645821
#
# Coordination Sequence:
#
# PCOD9518455 Si02
#       7
#    16   4  16  16  16  16  16
#     4   9  17  30  47  73 106 145 191 236 286 331
#     4  12  22  44  60  90 117 146 184 228 277 328
#     4  10  20  37  55  78 112 144 181 234 284 336
#     4   9  19  35  55  77 104 142 185 229 281 339
#     4  12  23  38  62  86 115 149 186 230 276 332
#     4  10  18  33  52  76 110 148 193 241 282 326
#     4   9  18  31  51  74 105 150 195 237 281 330
#
# _framework density 19.274757000000001
#
# number of rings (size 3 to 8) (size 9 to 14) (size 15 to 20)
#    0.000    2.080    2.400    1.200    0.000    4.800 
#    0.000    1.600    0.000    2.880    0.000    1.120 
#    0.000    1.280    0.000    0.000    0.000    0.000 
#
# Total GULP energy -278565.486805 kJ/mol
# GULP energy per Si atom -5571.309736 kJ/mol
# Density = 1.923089 g / cm^3
# Si number density = 19.274757 Si / 1000 Ang^3
#
#
#
# Elastic Constant Matrix: (Units=GPa)
#
#
# Indices 1 2 3 4 5 6 
#
# 1 84.9407 3.8780 27.1859 0.0000 0.0000 0.0000
# 2 3.8780 13.2246 12.3324 0.0000 0.0000 0.0000
# 3 27.1859 12.3324 145.1198 0.0000 0.0000 0.0000
# 4 0.0000 0.0000 0.0000 11.6414 0.0000 0.0000
# 5 0.0000 0.0000 0.0000 0.0000 24.5301 0.0000
# 6 0.0000 0.0000 0.0000 0.0000 0.0000 12.9923
#
#
#
# Elastic Compliance Matrix: (Units=1/GPa)
#
#
# Indices 1 2 3 4 5 6 
#
# 1 0.012556 -0.001617 -0.002215 0.000000 0.000000 0.000000
# 2 -0.001617 0.082333 -0.006694 0.000000 0.000000 0.000000
# 3 -0.002215 -0.006694 0.007875 0.000000 0.000000 0.000000
# 4 0.000000 0.000000 0.000000 0.085900 0.000000 0.000000
# 5 0.000000 0.000000 0.000000 0.000000 0.040766 0.000000
# 6 0.000000 0.000000 0.000000 0.000000 0.000000 0.076969
#
#
# Mechanical properties :
#
#
# Convention : Reuss Voigt Hill
#
# Bulk Modulus (GPa) = 12.23796 36.67528 24.45662
# Shear Modulus (GPa) = 14.09696 23.15868 18.62782
#
# Velocity S-wave (km/s) = 2.70732 3.47003 3.11213
# Velocity P-wave (km/s) = 4.01693 5.92653 5.06258
#
# Compressibility (1/GPa) = 0.08171298
#
# Stress axis : x y z
#
# Youngs Moduli (GPa) = 79.64598 12.14579 126.99065
#
# Poissons Ratio (x) = 0.01963 0.28125
# Poissons Ratio (y) = 0.12875 0.85006
# Poissons Ratio (z) = 0.17639 0.08130
#
# Static dielectric constant tensor:
#      x y z
#    x 1.716520 0.000000 0.000000 
#    y 0.000000 1.667340 0.000000 
#    z 0.000000 0.000000 1.658870 
# 
# From -- ./inp_files/17001.got.cif
#   From: 2010.05.17/outbox.cif.g08.bks.cpg/sg71_9_cif.got.tgz:17001.got - 2010.06.03 16:22:01.
