data_PCOD9518379
_publ_section_title
;
Structure prediction by ZEFSAII (Michael W. Deem and Ramdas Pophale) SiO2 
 PCOD9518379
Probable space group: I M M M
;
_chemical_formula_sum "Si O2"
_cell_formula_units_Z 104
_cell_length_a 9.581148
_cell_length_b 27.331688
_cell_length_c 24.393673
_cell_angle_alpha 90.000000
_cell_angle_beta 90.000000
_cell_angle_gamma 90.000000
_cell_volume 6387.945482
_symmetry_space_group_name_H-M "I M M M"
_symmetry_group_IT_number 71
_symmetry_cell_setting 'orthorhombic'
loop_
_space_group_symop_operation_xyz
x,y,z
-x,-y,z
x,-y,-z
-x,y,-z
-x,-y,-z
x,y,-z
-x,y,z
x,-y,z
1/2+x,1/2+y,1/2+z
1/2-x,1/2-y,1/2+z
1/2+x,1/2-y,1/2-z
1/2-x,1/2+y,1/2-z
1/2-x,1/2-y,1/2-z
1/2+x,1/2+y,1/2-z
1/2-x,1/2+y,1/2+z
1/2+x,1/2-y,1/2+z
loop_
_atom_site_type_symbol
_atom_site_label
_atom_site_fract_x
_atom_site_fract_y
_atom_site_fract_z
Si Si1 0.661604 0.943689 0.260471
Si Si2 0.665933 0.308679 0.687483
Si Si3 0.337736 0.389828 0.147166
Si Si4 0.331426 0.418610 0.653012
Si Si5 0.831399 0.000000 0.063432
Si Si6 0.654370 0.942682 0.434659
Si Si7 0.661977 0.285428 0.185804
O O1 0.500000 0.928469 0.253866
O O2 0.743427 0.911645 0.304443
O O3 0.745311 0.940406 0.203639
O O4 0.662473 0.000000 0.279136
O O5 0.500000 0.302381 0.682010
O O6 0.700271 0.360133 0.657736
O O7 0.697695 0.306793 0.753225
O O8 0.746824 0.260603 0.668087
O O9 0.500000 0.401425 0.157468
O O10 0.278086 0.413431 0.092617
O O11 0.323551 0.331552 0.146453
O O12 0.500000 0.423386 0.661190
O O13 0.295075 0.451154 0.599180
O O14 0.000000 0.000000 0.060659
O O15 0.780294 0.000000 0.000000
O O16 0.656458 0.938379 0.500000
O O17 0.500000 0.926361 0.414885
O O18 0.667176 0.000000 0.421162
O O19 0.500000 0.270346 0.188776
#
# Coordination Sequence:
#
# PCOD9518379 Si02
#       7
#    16  16  16  16   8  16  16
#     4  11  22  32  45  71 105 136 169 204 251 309
#     4   9  17  30  47  70  98 133 171 204 247 303
#     4  11  21  33  50  74 103 134 171 212 255 301
#     4  10  18  32  53  74 102 134 165 207 255 305
#     4   9  18  32  55  83 105 133 172 211 256 305
#     4   9  19  36  54  72  99 135 172 210 253 299
#     4   9  18  31  46  69 101 132 167 206 251 304
#
# _framework density 16.280664999999999
#
# number of rings (size 3 to 8) (size 9 to 14) (size 15 to 20)
#    0.000    2.231    2.308    1.846    0.000    5.231 
#    0.000    0.769    0.000    1.846    0.000    2.154 
#    0.000    0.000    0.000    0.000    0.000    0.000 
#
# Total GULP energy -289616.443209 kJ/mol
# GULP energy per Si atom -5569.546985 kJ/mol
# Density = 1.624361 g / cm^3
# Si number density = 16.280665 Si / 1000 Ang^3
#
#
#
# Elastic Constant Matrix: (Units=GPa)
#
#
# Indices 1 2 3 4 5 6 
#
# 1 62.6136 54.9781 27.7830 0.0000 0.0000 0.0000
# 2 54.9781 107.8565 42.3579 0.0000 0.0000 0.0000
# 3 27.7830 42.3579 61.0182 0.0000 0.0000 0.0000
# 4 0.0000 0.0000 0.0000 -41.4513 0.0000 0.0000
# 5 0.0000 0.0000 0.0000 0.0000 18.8110 0.0000
# 6 0.0000 0.0000 0.0000 0.0000 0.0000 28.8184
#
#
#
# Elastic Compliance Matrix: (Units=1/GPa)
#
#
# Indices 1 2 3 4 5 6 
#
# 1 0.029651 -0.013490 -0.004137 0.000000 0.000000 0.000000
# 2 -0.013490 0.018884 -0.006967 0.000000 0.000000 0.000000
# 3 -0.004137 -0.006967 0.023108 0.000000 0.000000 0.000000
# 4 0.000000 0.000000 0.000000 -0.024125 0.000000 0.000000
# 5 0.000000 0.000000 0.000000 0.000000 0.053160 0.000000
# 6 0.000000 0.000000 0.000000 0.000000 0.000000 0.034700
#
#
# Mechanical properties :
#
#
# Convention : Reuss Voigt Hill
#
# Bulk Modulus (GPa) = 44.52891 53.52514 49.02703
# Shear Modulus (GPa) = 26.03489 8.32690 17.18090
#
# Velocity S-wave (km/s) = 4.00325 2.26400 3.25205
# Velocity P-wave (km/s) = 6.98414 6.30731 6.65433
#
# Compressibility (1/GPa) = 0.02245732
#
# Stress axis : x y z
#
# Youngs Moduli (GPa) = 33.72560 52.95582 43.27485
#
# Poissons Ratio (x) = 0.71435 0.17901
# Poissons Ratio (y) = 0.45495 0.30148
# Poissons Ratio (z) = 0.13951 0.36892
#
# Static dielectric constant tensor:
#      x y z
#    x 1.547540 0.000000 0.000000 
#    y 0.000000 1.565800 0.000000 
#    z 0.000000 0.000000 1.555770 
# 
# From -- ./inp_files/13271.got.cif
#   From: 2010.05.17/outbox.cif.g08.bks.cpg/sg71_7_cif.got.tgz:13271.got - 2010.06.03 16:22:01.
