data_PCOD9518813
_publ_section_title
;
Structure prediction by ZEFSAII (Michael W. Deem and Ramdas Pophale) SiO2 
 PCOD9518813
Probable space group: I M M M
;
_chemical_formula_sum "Si O2"
_cell_formula_units_Z 88
_cell_length_a 21.003624
_cell_length_b 7.778588
_cell_length_c 31.244014
_cell_angle_alpha 90.000000
_cell_angle_beta 90.000000
_cell_angle_gamma 90.000000
_cell_volume 5104.601316
_symmetry_space_group_name_H-M "I M M M"
_symmetry_group_IT_number 71
_symmetry_cell_setting 'orthorhombic'
loop_
_space_group_symop_operation_xyz
x,y,z
-x,-y,z
x,-y,-z
-x,y,-z
-x,-y,-z
x,y,-z
-x,y,z
x,-y,z
1/2+x,1/2+y,1/2+z
1/2-x,1/2-y,1/2+z
1/2+x,1/2-y,1/2-z
1/2-x,1/2+y,1/2-z
1/2-x,1/2-y,1/2-z
1/2+x,1/2+y,1/2-z
1/2-x,1/2+y,1/2+z
1/2+x,1/2-y,1/2+z
loop_
_atom_site_type_symbol
_atom_site_label
_atom_site_fract_x
_atom_site_fract_y
_atom_site_fract_z
Si Si1 0.068114 0.707936 0.673705
Si Si2 0.930856 0.291755 0.224704
Si Si3 0.859200 0.704677 0.548220
Si Si4 0.197991 0.707991 0.367784
Si Si5 0.000000 0.205003 0.449838
Si Si6 0.291304 0.796755 0.707708
O O1 0.067975 0.500000 0.668470
O O2 0.070378 0.740531 0.724373
O O3 0.132630 0.773966 0.653521
O O4 0.000000 0.773464 0.656966
O O5 0.931594 0.500000 0.219291
O O6 0.863315 0.223850 0.207765
O O7 0.000000 0.228413 0.208397
O O8 0.855092 0.778144 0.500000
O O9 0.851150 0.500000 0.544804
O O10 0.808060 0.767820 0.583021
O O11 0.931285 0.731409 0.565958
O O12 0.196334 0.500000 0.368306
O O13 0.254466 0.755477 0.335983
O O14 0.000000 0.260236 0.500000
O O15 0.000000 0.000000 0.447757
O O16 0.250000 0.750000 0.750000
O O17 0.298011 0.000000 0.710643
#
# Coordination Sequence:
#
# PCOD9518813 Si02
#       6
#    16  16  16  16   8  16
#     4   8  13  22  38  59  81 110 150 183 208 249
#     4   8  14  26  44  62  81 111 149 181 209 252
#     4   9  18  31  46  64  86 116 158 199 230 271
#     4  10  19  30  46  65  87 118 153 189 231 271
#     4   9  17  29  45  63  87 119 151 193 247 283
#     4  11  20  31  47  67  93 119 148 185 224 268
#
# _framework density 17.239346999999999
#
# number of rings (size 3 to 8) (size 9 to 14) (size 15 to 20)
#    0.000    2.818    1.818    1.909    1.273    1.818 
#    0.000    0.000    0.000    3.273    0.000    0.000 
#    0.000    0.727    0.000    9.091    0.000    0.000 
#
# Total GULP energy -245050.074061 kJ/mol
# GULP energy per Si atom -5569.319865 kJ/mol
# Density = 1.720011 g / cm^3
# Si number density = 17.239347 Si / 1000 Ang^3
#
#
#
# Elastic Constant Matrix: (Units=GPa)
#
#
# Indices 1 2 3 4 5 6 
#
# 1 149.0815 7.1967 70.9754 0.0000 0.0000 0.0000
# 2 7.1967 24.6305 7.9638 0.0000 0.0000 0.0000
# 3 70.9754 7.9638 81.3354 0.0000 0.0000 0.0000
# 4 0.0000 0.0000 0.0000 10.7676 0.0000 0.0000
# 5 0.0000 0.0000 0.0000 0.0000 24.6213 0.0000
# 6 0.0000 0.0000 0.0000 0.0000 0.0000 15.2816
#
#
#
# Elastic Compliance Matrix: (Units=1/GPa)
#
#
# Indices 1 2 3 4 5 6 
#
# 1 0.011475 -0.000119 -0.010002 0.000000 0.000000 0.000000
# 2 -0.000119 0.041929 -0.004002 0.000000 0.000000 0.000000
# 3 -0.010002 -0.004002 0.021415 0.000000 0.000000 0.000000
# 4 0.000000 0.000000 0.000000 0.092871 0.000000 0.000000
# 5 0.000000 0.000000 0.000000 0.000000 0.040615 0.000000
# 6 0.000000 0.000000 0.000000 0.000000 0.000000 0.065438
#
#
# Mechanical properties :
#
#
# Convention : Reuss Voigt Hill
#
# Bulk Modulus (GPa) = 21.47144 47.47993 34.47568
# Shear Modulus (GPa) = 15.74741 21.39486 18.57114
#
# Velocity S-wave (km/s) = 3.02562 3.52667 3.28571
# Velocity P-wave (km/s) = 4.96868 6.64715 5.86824
#
# Compressibility (1/GPa) = 0.04657350
#
# Stress axis : x y z
#
# Youngs Moduli (GPa) = 87.14394 23.85002 46.69719
#
# Poissons Ratio (x) = 0.00284 0.46706
# Poissons Ratio (y) = 0.01037 0.18686
# Poissons Ratio (z) = 0.87161 0.09544
#
# Static dielectric constant tensor:
#      x y z
#    x 1.633290 0.000000 0.000000 
#    y 0.000000 1.632570 0.000000 
#    z 0.000000 0.000000 1.639180 
# 
# From -- ./inp_files/70649.got.cif
#   From: 2010.05.17/outbox.cif.g08.bks.cpg/sg71_36_cif.got.tgz:70649.got - 2010.06.03 16:22:01.
