data_PCOD9518556
_publ_section_title
;
Structure prediction by ZEFSAII (Michael W. Deem and Ramdas Pophale) SiO2 
 PCOD9518556
Probable space group: I M M M
;
_chemical_formula_sum "Si O2"
_cell_formula_units_Z 100
_cell_length_a 22.832810
_cell_length_b 7.638295
_cell_length_c 29.983226
_cell_angle_alpha 90.000000
_cell_angle_beta 90.000000
_cell_angle_gamma 90.000000
_cell_volume 5229.186705
_symmetry_space_group_name_H-M "I M M M"
_symmetry_group_IT_number 71
_symmetry_cell_setting 'orthorhombic'
loop_
_space_group_symop_operation_xyz
x,y,z
-x,-y,z
x,-y,-z
-x,y,-z
-x,-y,-z
x,y,-z
-x,y,z
x,-y,z
1/2+x,1/2+y,1/2+z
1/2-x,1/2-y,1/2+z
1/2+x,1/2-y,1/2-z
1/2-x,1/2+y,1/2-z
1/2-x,1/2-y,1/2-z
1/2+x,1/2+y,1/2-z
1/2-x,1/2+y,1/2+z
1/2+x,1/2-y,1/2+z
loop_
_atom_site_type_symbol
_atom_site_label
_atom_site_fract_x
_atom_site_fract_y
_atom_site_fract_z
Si Si1 0.294207 0.787004 0.051850
Si Si2 0.309170 0.712054 0.298084
Si Si3 0.563784 0.211392 0.551715
Si Si4 0.320787 0.295277 0.395820
Si Si5 0.099902 0.803942 0.617835
Si Si6 0.673627 0.796465 0.797983
Si Si7 0.000000 0.500000 0.614597
O O1 0.235080 0.724101 0.077052
O O2 0.350004 0.727634 0.080434
O O3 0.293951 0.000000 0.051653
O O4 0.295390 0.731056 0.000000
O O5 0.310739 0.500000 0.294586
O O6 0.331318 0.774074 0.346052
O O7 0.341917 0.779996 0.254210
O O8 0.240806 0.768787 0.298752
O O9 0.567177 0.263523 0.500000
O O10 0.500000 0.268112 0.569260
O O11 0.620038 0.278734 0.576869
O O12 0.565220 0.000000 0.553189
O O13 0.306859 0.500000 0.389463
O O14 0.132286 0.792697 0.666036
O O15 0.051369 0.654000 0.614900
O O16 0.076201 0.000000 0.612183
O O17 0.674953 0.000000 0.810921
#
# Coordination Sequence:
#
# PCOD9518556 Si02
#       7
#    16  16  16  16  16  16   4
#     4  10  20  38  62  90 128 164 196 256 333 385
#     4   9  18  31  54  88 123 155 194 240 303 367
#     4   9  19  35  52  72 107 155 203 250 297 353
#     4  10  19  33  56  87 122 157 198 252 310 369
#     4  12  24  42  69  94 123 165 214 263 316 381
#     4  10  18  35  59  86 124 158 193 250 307 358
#     4  12  26  48  69  92 128 166 216 262 315 384
#
# _framework density 19.123432000000001
#
# number of rings (size 3 to 8) (size 9 to 14) (size 15 to 20)
#    0.000    1.920    3.200    1.680    0.000    3.520 
#    0.000    1.600    1.760    0.960    0.000    0.000 
#    0.000    0.000    0.000    0.000    0.000    0.000 
#
# Total GULP energy -278420.603197 kJ/mol
# GULP energy per Si atom -5568.412064 kJ/mol
# Density = 1.907991 g / cm^3
# Si number density = 19.123432 Si / 1000 Ang^3
#
#
#
# Elastic Constant Matrix: (Units=GPa)
#
#
# Indices 1 2 3 4 5 6 
#
# 1 99.5994 19.3107 51.5650 0.0000 0.0000 0.0000
# 2 19.3107 82.1510 14.7008 0.0000 0.0000 0.0000
# 3 51.5650 14.7008 126.0253 0.0000 0.0000 0.0000
# 4 0.0000 0.0000 0.0000 21.2640 0.0000 0.0000
# 5 0.0000 0.0000 0.0000 0.0000 5.0769 0.0000
# 6 0.0000 0.0000 0.0000 0.0000 0.0000 -0.4336
#
#
#
# Elastic Compliance Matrix: (Units=1/GPa)
#
#
# Indices 1 2 3 4 5 6 
#
# 1 0.013106 -0.002166 -0.005110 0.000000 0.000000 0.000000
# 2 -0.002166 0.012790 -0.000606 0.000000 0.000000 0.000000
# 3 -0.005110 -0.000606 0.010096 0.000000 0.000000 0.000000
# 4 0.000000 0.000000 0.000000 0.047028 0.000000 0.000000
# 5 0.000000 0.000000 0.000000 0.000000 0.196970 0.000000
# 6 0.000000 0.000000 0.000000 0.000000 0.000000 -2.306260
#
#
# Mechanical properties :
#
#
# Convention : Reuss Voigt Hill
#
# Bulk Modulus (GPa) = 49.43385 53.21429 51.32407
# Shear Modulus (GPa) = -2.49530 19.99475 8.74972
#
# Velocity S-wave (km/s) = -1.14354 3.23702 2.14134
# Velocity P-wave (km/s) = 4.91553 6.46980 5.74546
#
# Compressibility (1/GPa) = 0.02022905
#
# Stress axis : x y z
#
# Youngs Moduli (GPa) = 76.30321 78.18430 99.04678
#
# Poissons Ratio (x) = 0.16937 0.50609
# Poissons Ratio (y) = 0.16529 0.05998
# Poissons Ratio (z) = 0.38988 0.04735
#
# Static dielectric constant tensor:
#      x y z
#    x 1.628520 0.000000 0.000000 
#    y 0.000000 1.728530 0.000000 
#    z 0.000000 0.000000 1.692290 
# 
# From -- ./inp_files/70748.got.cif
#   From: 2010.05.17/outbox.cif.g08.bks.cpg/sg71_36_cif.got.tgz:70748.got - 2010.06.03 16:22:01.
