data_PCOD9518591
_publ_section_title
;
Structure prediction by ZEFSAII (Michael W. Deem and Ramdas Pophale) SiO2 
 PCOD9518591
Probable space group: I M M M
;
_chemical_formula_sum "Si O2"
_cell_formula_units_Z 56
_cell_length_a 9.949486
_cell_length_b 14.671481
_cell_length_c 16.204658
_cell_angle_alpha 90.000000
_cell_angle_beta 90.000000
_cell_angle_gamma 90.000000
_cell_volume 2365.453801
_symmetry_space_group_name_H-M "I M M M"
_symmetry_group_IT_number 71
_symmetry_cell_setting 'orthorhombic'
loop_
_space_group_symop_operation_xyz
x,y,z
-x,-y,z
x,-y,-z
-x,y,-z
-x,-y,-z
x,y,-z
-x,y,z
x,-y,z
1/2+x,1/2+y,1/2+z
1/2-x,1/2-y,1/2+z
1/2+x,1/2-y,1/2-z
1/2-x,1/2+y,1/2-z
1/2-x,1/2-y,1/2-z
1/2+x,1/2+y,1/2-z
1/2-x,1/2+y,1/2+z
1/2+x,1/2-y,1/2+z
loop_
_atom_site_type_symbol
_atom_site_label
_atom_site_fract_x
_atom_site_fract_y
_atom_site_fract_z
Si Si1 0.348099 0.868416 0.593813
Si Si2 0.203300 0.845742 0.907639
Si Si3 0.000000 0.399365 0.402555
Si Si4 0.345204 0.660606 0.766451
O O1 0.321076 0.899277 0.500000
O O2 0.500000 0.895411 0.617836
O O3 0.347087 0.757920 0.588811
O O4 0.234999 0.890859 0.661123
O O5 0.362603 0.847068 0.889823
O O6 0.148408 0.887612 0.823231
O O7 0.179671 0.885342 0.000000
O O8 0.000000 0.500000 0.362228
O O9 0.000000 0.413266 0.500000
O O10 0.500000 0.681919 0.788988
O O11 0.250000 0.750000 0.750000
#
# Coordination Sequence:
#
# PCOD9518591 Si02
#       4
#    16  16   8  16
#     4   9  18  30  44  64  93 125 152 181 221 270
#     4   9  17  27  42  60  86 119 149 183 225 264
#     4   9  18  30  44  64  85 113 161 207 233 258
#     4  10  19  27  41  64  90 121 153 183 217 268
#
# _framework density 23.674104
#
# number of rings (size 3 to 8) (size 9 to 14) (size 15 to 20)
#    0.000    2.714    0.000    3.429   10.000    2.286 
#    0.000    0.000    0.000    3.429    0.000   18.000 
#    0.000    2.286    0.000    2.571    0.000    0.571 
#
# Total GULP energy -155926.496297 kJ/mol
# GULP energy per Si atom -5568.803439 kJ/mol
# Density = 2.362022 g / cm^3
# Si number density = 23.674104 Si / 1000 Ang^3
#
#
#
# Elastic Constant Matrix: (Units=GPa)
#
#
# Indices 1 2 3 4 5 6 
#
# 1 224.8313 32.8411 87.1320 0.0000 0.0000 0.0000
# 2 32.8411 81.8874 6.7936 0.0000 0.0000 0.0000
# 3 87.1320 6.7936 218.6199 0.0000 0.0000 0.0000
# 4 0.0000 0.0000 0.0000 -32.5968 0.0000 0.0000
# 5 0.0000 0.0000 0.0000 0.0000 23.9041 0.0000
# 6 0.0000 0.0000 0.0000 0.0000 0.0000 -117.1251
#
#
#
# Elastic Compliance Matrix: (Units=1/GPa)
#
#
# Indices 1 2 3 4 5 6 
#
# 1 0.005587 -0.002061 -0.002163 0.000000 0.000000 0.000000
# 2 -0.002061 0.013004 0.000417 0.000000 0.000000 0.000000
# 3 -0.002163 0.000417 0.005423 0.000000 0.000000 0.000000
# 4 0.000000 0.000000 0.000000 -0.030678 0.000000 0.000000
# 5 0.000000 0.000000 0.000000 0.000000 0.041834 0.000000
# 6 0.000000 0.000000 0.000000 0.000000 0.000000 -0.008538
#
#
# Mechanical properties :
#
#
# Convention : Reuss Voigt Hill
#
# Bulk Modulus (GPa) = 60.97169 86.54133 73.75651
# Shear Modulus (GPa) = 125.90618 1.40790 63.65704
#
# Velocity S-wave (km/s) = 7.30058 0.77200 5.19108
# Velocity P-wave (km/s) = 9.84252 6.11795 8.19465
#
# Compressibility (1/GPa) = 0.01640105
#
# Stress axis : x y z
#
# Youngs Moduli (GPa) = 178.98703 76.89981 184.39569
#
# Poissons Ratio (x) = 0.15851 0.39879
# Poissons Ratio (y) = 0.36894 -0.07697
# Poissons Ratio (z) = 0.38709 -0.03210
#
# Static dielectric constant tensor:
#      x y z
#    x 1.883910 0.000000 0.000000 
#    y 0.000000 1.978830 0.000000 
#    z 0.000000 0.000000 1.995970 
# 
# From -- ./inp_files/7207.got.cif
#   From: 2010.05.17/outbox.cif.g08.bks.cpg/sg71_4_cif.got.tgz:7207.got - 2010.06.03 16:22:01.
