data_PCOD9518023
_publ_section_title
;
Structure prediction by ZEFSAII (Michael W. Deem and Ramdas Pophale) SiO2 
 PCOD9518023
Probable space group: I M M M
;
_chemical_formula_sum "Si O2"
_cell_formula_units_Z 112
_cell_length_a 14.379457
_cell_length_b 25.234439
_cell_length_c 19.216963
_cell_angle_alpha 90.000000
_cell_angle_beta 90.000000
_cell_angle_gamma 90.000000
_cell_volume 6973.019738
_symmetry_space_group_name_H-M "I M M M"
_symmetry_group_IT_number 71
_symmetry_cell_setting 'orthorhombic'
loop_
_space_group_symop_operation_xyz
x,y,z
-x,-y,z
x,-y,-z
-x,y,-z
-x,-y,-z
x,y,-z
-x,y,z
x,-y,z
1/2+x,1/2+y,1/2+z
1/2-x,1/2-y,1/2+z
1/2+x,1/2-y,1/2-z
1/2-x,1/2+y,1/2-z
1/2-x,1/2-y,1/2-z
1/2+x,1/2+y,1/2-z
1/2-x,1/2+y,1/2+z
1/2+x,1/2-y,1/2+z
loop_
_atom_site_type_symbol
_atom_site_label
_atom_site_fract_x
_atom_site_fract_y
_atom_site_fract_z
Si Si1 0.224373 0.641237 0.826472
Si Si2 0.894444 0.286524 0.636873
Si Si3 0.389926 0.561833 0.417296
Si Si4 0.222713 0.851869 0.831349
Si Si5 0.607351 0.327042 0.079538
Si Si6 0.608930 0.754380 0.298958
Si Si7 0.110950 0.437392 0.079295
O O1 0.245336 0.630533 0.745694
O O2 0.320244 0.647412 0.868038
O O3 0.167428 0.696705 0.829926
O O4 0.164028 0.596665 0.863977
O O5 0.814621 0.329909 0.630018
O O6 0.882450 0.236518 0.586625
O O7 0.884906 0.262409 0.715293
O O8 0.000000 0.307026 0.630341
O O9 0.375197 0.569991 0.500000
O O10 0.500000 0.570205 0.403824
O O11 0.369262 0.500000 0.402023
O O12 0.329309 0.602259 0.372709
O O13 0.155557 0.800898 0.820216
O O14 0.500000 0.339014 0.097655
O O15 0.624458 0.343082 0.000000
O O16 0.500000 0.756479 0.317996
O O17 0.129718 0.500000 0.086567
O O18 0.000000 0.429959 0.086017
O O19 0.136852 0.421678 0.000000
#
# Coordination Sequence:
#
# PCOD9518023 Si02
#       7
#    16  16  16  16  16  16  16
#     4  11  19  32  50  77 106 133 169 214 254 298
#     4   9  17  31  46  67 103 138 165 196 236 291
#     4   9  20  39  58  75  98 129 165 209 265 322
#     4  11  19  31  53  79 102 129 169 207 256 304
#     4  10  19  30  45  66  98 140 176 202 236 290
#     4  10  18  30  48  75 107 134 159 200 259 309
#     4   9  19  36  55  74 101 140 179 213 255 304
#
# _framework density 16.061907999999999
#
# number of rings (size 3 to 8) (size 9 to 14) (size 15 to 20)
#    0.000    2.143    2.857    3.000    0.000    2.286 
#    0.000    0.000    0.000    3.429    0.000    3.000 
#    0.000    0.000    0.000    0.000    0.000    0.000 
#
# Total GULP energy -312340.481168 kJ/mol
# GULP energy per Si atom -5577.508592 kJ/mol
# Density = 1.602535 g / cm^3
# Si number density = 16.061908 Si / 1000 Ang^3
#
#
#
# Elastic Constant Matrix: (Units=GPa)
#
#
# Indices 1 2 3 4 5 6 
#
# 1 80.4656 49.9401 30.9876 0.0000 0.0000 0.0000
# 2 49.9401 86.2264 41.4741 0.0000 0.0000 0.0000
# 3 30.9876 41.4741 42.2744 0.0000 0.0000 0.0000
# 4 0.0000 0.0000 0.0000 5.0850 0.0000 0.0000
# 5 0.0000 0.0000 0.0000 0.0000 27.9167 0.0000
# 6 0.0000 0.0000 0.0000 0.0000 0.0000 31.7457
#
#
#
# Elastic Compliance Matrix: (Units=1/GPa)
#
#
# Indices 1 2 3 4 5 6 
#
# 1 0.020256 -0.008691 -0.006321 0.000000 0.000000 0.000000
# 2 -0.008691 0.025689 -0.018832 0.000000 0.000000 0.000000
# 3 -0.006321 -0.018832 0.046764 0.000000 0.000000 0.000000
# 4 0.000000 0.000000 0.000000 0.196658 0.000000 0.000000
# 5 0.000000 0.000000 0.000000 0.000000 0.035821 0.000000
# 6 0.000000 0.000000 0.000000 0.000000 0.000000 0.031500
#
#
# Mechanical properties :
#
#
# Convention : Reuss Voigt Hill
#
# Bulk Modulus (GPa) = 39.96763 50.41887 45.19325
# Shear Modulus (GPa) = 11.55488 18.72045 15.13767
#
# Velocity S-wave (km/s) = 2.68507 3.41767 3.07328
# Velocity P-wave (km/s) = 5.87795 6.85802 6.38681
#
# Compressibility (1/GPa) = 0.02502025
#
# Stress axis : x y z
#
# Youngs Moduli (GPa) = 49.36756 38.92680 21.38404
#
# Poissons Ratio (x) = 0.33833 0.13517
# Poissons Ratio (y) = 0.42908 0.40270
# Poissons Ratio (z) = 0.31206 0.73307
#
# Static dielectric constant tensor:
#      x y z
#    x 1.544570 0.000000 0.000000 
#    y 0.000000 1.512250 0.000000 
#    z 0.000000 0.000000 1.533120 
# 
# From -- ./inp_files/52221.got.cif
#   From: 2010.05.17/outbox.cif.g08.bks.cpg/sg71_27_cif.got.tgz:52221.got - 2010.06.03 16:22:01.
