data_PCOD9518108
_publ_section_title
;
Structure prediction by ZEFSAII (Michael W. Deem and Ramdas Pophale) SiO2 
 PCOD9518108
Probable space group: I M M M
;
_chemical_formula_sum "Si O2"
_cell_formula_units_Z 104
_cell_length_a 31.155399
_cell_length_b 7.511547
_cell_length_c 21.408793
_cell_angle_alpha 90.000000
_cell_angle_beta 90.000000
_cell_angle_gamma 90.000000
_cell_volume 5010.198003
_symmetry_space_group_name_H-M "I M M M"
_symmetry_group_IT_number 71
_symmetry_cell_setting 'orthorhombic'
loop_
_space_group_symop_operation_xyz
x,y,z
-x,-y,z
x,-y,-z
-x,y,-z
-x,-y,-z
x,y,-z
-x,y,z
x,-y,z
1/2+x,1/2+y,1/2+z
1/2-x,1/2-y,1/2+z
1/2+x,1/2-y,1/2-z
1/2-x,1/2+y,1/2-z
1/2-x,1/2-y,1/2-z
1/2+x,1/2+y,1/2-z
1/2-x,1/2+y,1/2+z
1/2+x,1/2-y,1/2+z
loop_
_atom_site_type_symbol
_atom_site_label
_atom_site_fract_x
_atom_site_fract_y
_atom_site_fract_z
Si Si1 0.369217 0.218073 0.282648
Si Si2 0.719244 0.289633 0.929867
Si Si3 0.868303 0.284739 0.639083
Si Si4 0.049470 0.709866 0.861034
Si Si5 0.453274 0.216989 0.072301
Si Si6 0.450926 0.712687 0.500000
Si Si7 0.224890 0.286109 0.814937
O O1 0.365007 0.273095 0.210581
O O2 0.413293 0.280222 0.315334
O O3 0.324419 0.275645 0.313651
O O4 0.370219 0.000000 0.284241
O O5 0.728436 0.500000 0.933953
O O6 0.671048 0.270803 0.904154
O O7 0.749434 0.215278 0.874928
O O8 0.723669 0.215626 0.000000
O O9 0.868375 0.500000 0.639210
O O10 0.913083 0.220426 0.611163
O O11 0.045847 0.500000 0.848171
O O12 0.066055 0.729770 0.932543
O O13 0.000000 0.782198 0.856781
O O14 0.500000 0.273711 0.095773
O O15 0.452822 0.000000 0.073407
O O16 0.449235 0.269140 0.000000
O O17 0.451129 0.500000 0.500000
O O18 0.500000 0.780655 0.500000
O O19 0.223728 0.500000 0.819425
O O20 0.250000 0.250000 0.750000
#
# Coordination Sequence:
#
# PCOD9518108 Si02
#       7
#    16  16  16  16  16   8  16
#     4   9  18  31  49  76 102 126 161 204 247 296
#     4  10  21  35  51  73 100 131 168 208 250 299
#     4  10  18  30  51  75  98 128 167 206 247 293
#     4   9  17  31  51  75 103 134 168 206 252 307
#     4   8  14  24  39  64  97 127 156 194 240 285
#     4   9  17  31  51  73  99 133 171 211 253 297
#     4  10  19  35  55  74 100 132 167 204 249 302
#
# _framework density 20.757660999999999
#
# number of rings (size 3 to 8) (size 9 to 14) (size 15 to 20)
#    0.000    2.692    1.538    1.154    0.000    2.462 
#    1.385    4.615    0.000    0.462    0.000    2.154 
#    0.000    0.000    0.000    0.000    0.000    0.000 
#
# Total GULP energy -290005.583843 kJ/mol
# GULP energy per Si atom -5577.030459 kJ/mol
# Density = 2.071042 g / cm^3
# Si number density = 20.757661 Si / 1000 Ang^3
#
#
#
# Elastic Constant Matrix: (Units=GPa)
#
#
# Indices 1 2 3 4 5 6 
#
# 1 167.7927 4.9447 95.6896 0.0000 0.0000 0.0000
# 2 4.9447 55.6057 3.3627 0.0000 0.0000 0.0000
# 3 95.6896 3.3627 161.1706 0.0000 0.0000 0.0000
# 4 0.0000 0.0000 0.0000 6.0317 0.0000 0.0000
# 5 0.0000 0.0000 0.0000 0.0000 -41.4511 0.0000
# 6 0.0000 0.0000 0.0000 0.0000 0.0000 7.9731
#
#
#
# Elastic Compliance Matrix: (Units=1/GPa)
#
#
# Indices 1 2 3 4 5 6 
#
# 1 0.009023 -0.000479 -0.005347 0.000000 0.000000 0.000000
# 2 -0.000479 0.018032 -0.000092 0.000000 0.000000 0.000000
# 3 -0.005347 -0.000092 0.009381 0.000000 0.000000 0.000000
# 4 0.000000 0.000000 0.000000 0.165791 0.000000 0.000000
# 5 0.000000 0.000000 0.000000 0.000000 -0.024125 0.000000
# 6 0.000000 0.000000 0.000000 0.000000 0.000000 0.125422
#
#
# Mechanical properties :
#
#
# Convention : Reuss Voigt Hill
#
# Bulk Modulus (GPa) = 40.64996 65.84032 53.24514
# Shear Modulus (GPa) = 15.45301 13.21553 14.33427
#
# Velocity S-wave (km/s) = 2.73142 2.52595 2.63069
# Velocity P-wave (km/s) = 5.43812 6.34780 5.91049
#
# Compressibility (1/GPa) = 0.02460027
#
# Stress axis : x y z
#
# Youngs Moduli (GPa) = 110.82374 55.45723 106.59503
#
# Poissons Ratio (x) = 0.02656 0.57000
# Poissons Ratio (y) = 0.05309 0.00979
# Poissons Ratio (z) = 0.59261 0.00509
#
# Static dielectric constant tensor:
#      x y z
#    x 1.737060 0.000000 0.000000 
#    y 0.000000 1.816330 0.000000 
#    z 0.000000 0.000000 1.731820 
# 
# From -- ./inp_files/56731.got.cif
#   From: 2010.05.17/outbox.cif.g08.bks.cpg/sg71_29_cif.got.tgz:56731.got - 2010.06.03 16:22:01.
