data_PCOD9518240
_publ_section_title
;
Structure prediction by ZEFSAII (Michael W. Deem and Ramdas Pophale) SiO2 
 PCOD9518240
Probable space group: I M M M
;
_chemical_formula_sum "Si O2"
_cell_formula_units_Z 104
_cell_length_a 19.520223
_cell_length_b 16.420295
_cell_length_c 16.588765
_cell_angle_alpha 90.000000
_cell_angle_beta 90.000000
_cell_angle_gamma 90.000000
_cell_volume 5317.160684
_symmetry_space_group_name_H-M "I M M M"
_symmetry_group_IT_number 71
_symmetry_cell_setting 'orthorhombic'
loop_
_space_group_symop_operation_xyz
x,y,z
-x,-y,z
x,-y,-z
-x,y,-z
-x,-y,-z
x,y,-z
-x,y,z
x,-y,z
1/2+x,1/2+y,1/2+z
1/2-x,1/2-y,1/2+z
1/2+x,1/2-y,1/2-z
1/2-x,1/2+y,1/2-z
1/2-x,1/2-y,1/2-z
1/2+x,1/2+y,1/2-z
1/2-x,1/2+y,1/2+z
1/2+x,1/2-y,1/2+z
loop_
_atom_site_type_symbol
_atom_site_label
_atom_site_fract_x
_atom_site_fract_y
_atom_site_fract_z
Si Si1 0.575666 0.405045 0.166402
Si Si2 0.658419 0.180953 0.662367
Si Si3 0.857657 0.865192 0.000000
Si Si4 0.342540 0.375989 0.672651
Si Si5 0.418868 0.184733 0.500000
Si Si6 0.212183 0.095899 0.406208
Si Si7 0.298470 0.900722 0.000000
Si Si8 0.820121 0.593892 0.321973
O O1 0.500000 0.368056 0.162693
O O2 0.569337 0.500000 0.144219
O O3 0.608400 0.401246 0.255203
O O4 0.635637 0.372450 0.109523
O O5 0.656701 0.278023 0.667799
O O6 0.613112 0.153317 0.584902
O O7 0.734333 0.149927 0.641506
O O8 0.644721 0.144982 0.751033
O O9 0.869294 0.906492 0.914040
O O10 0.898123 0.780350 0.000000
O O11 0.774613 0.854333 0.000000
O O12 0.263395 0.401342 0.684865
O O13 0.500000 0.174001 0.500000
O O14 0.228669 0.099745 0.500000
O O15 0.217042 0.000000 0.381311
O O16 0.334133 0.881530 0.914965
O O17 0.285182 0.000000 0.000000
O O18 0.839562 0.500000 0.311508
#
# Coordination Sequence:
#
# PCOD9518240 Si02
#       8
#    16  16   8  16   8  16   8  16
#     4  10  21  36  53  77 111 149 184 221 269 327
#     4  11  20  33  56  82 109 143 188 228 274 329
#     4   8  18  32  50  72 102 144 178 210 262 325
#     4  10  19  31  51  77 109 142 184 228 271 318
#     4  10  22  38  53  77 113 145 177 224 277 331
#     4  10  20  35  57  83 110 143 183 227 273 329
#     4   8  16  30  50  81 114 138 172 225 268 309
#     4  10  18  31  51  77 109 142 179 225 279 324
#
# _framework density 19.559311000000001
#
# number of rings (size 3 to 8) (size 9 to 14) (size 15 to 20)
#    0.000    2.154    2.308    1.385    0.000    3.385 
#    0.000    1.538    0.000    4.846    0.000    0.538 
#    0.000    1.846    0.000    0.000    0.000    0.000 
#
# Total GULP energy -289842.474196 kJ/mol
# GULP energy per Si atom -5573.893735 kJ/mol
# Density = 1.951479 g / cm^3
# Si number density = 19.559311 Si / 1000 Ang^3
#
#
#
# Elastic Constant Matrix: (Units=GPa)
#
#
# Indices 1 2 3 4 5 6 
#
# 1 54.3858 16.2897 29.5887 0.0000 0.0000 0.0000
# 2 16.2897 47.1629 28.8219 0.0000 0.0000 0.0000
# 3 29.5887 28.8219 119.1377 0.0000 0.0000 0.0000
# 4 0.0000 0.0000 0.0000 25.3067 0.0000 0.0000
# 5 0.0000 0.0000 0.0000 0.0000 8.5639 0.0000
# 6 0.0000 0.0000 0.0000 0.0000 0.0000 7.7199
#
#
#
# Elastic Compliance Matrix: (Units=1/GPa)
#
#
# Indices 1 2 3 4 5 6 
#
# 1 0.022241 -0.005053 -0.004301 0.000000 0.000000 0.000000
# 2 -0.005053 0.026030 -0.005042 0.000000 0.000000 0.000000
# 3 -0.004301 -0.005042 0.010682 0.000000 0.000000 0.000000
# 4 0.000000 0.000000 0.000000 0.039515 0.000000 0.000000
# 5 0.000000 0.000000 0.000000 0.000000 0.116769 0.000000
# 6 0.000000 0.000000 0.000000 0.000000 0.000000 0.129536
#
#
# Mechanical properties :
#
#
# Convention : Reuss Voigt Hill
#
# Bulk Modulus (GPa) = 33.15753 41.12080 37.13917
# Shear Modulus (GPa) = 13.03380 18.05051 15.54216
#
# Velocity S-wave (km/s) = 2.58422 3.04116 2.82195
# Velocity P-wave (km/s) = 5.08855 5.77934 5.44491
#
# Compressibility (1/GPa) = 0.03015906
#
# Stress axis : x y z
#
# Youngs Moduli (GPa) = 44.96248 38.41746 93.61833
#
# Poissons Ratio (x) = 0.19414 0.40267
# Poissons Ratio (y) = 0.22721 0.47204
# Poissons Ratio (z) = 0.19339 0.19371
#
# Static dielectric constant tensor:
#      x y z
#    x 1.670360 0.000000 0.000000 
#    y 0.000000 1.704340 0.000000 
#    z 0.000000 0.000000 1.756230 
# 
# From -- ./inp_files/46195.got.cif
#   From: 2010.05.17/outbox.cif.g08.bks.cpg/sg71_24_cif.got.tgz:46195.got - 2010.06.03 16:22:01.
