data_PCOD9518232
_publ_section_title
;
Structure prediction by ZEFSAII (Michael W. Deem and Ramdas Pophale) SiO2 
 PCOD9518232
Probable space group: I M M M
;
_chemical_formula_sum "Si O2"
_cell_formula_units_Z 64
_cell_length_a 28.166400
_cell_length_b 7.481668
_cell_length_c 13.848814
_cell_angle_alpha 90.000000
_cell_angle_beta 90.000000
_cell_angle_gamma 90.000000
_cell_volume 2918.383474
_symmetry_space_group_name_H-M "I M M M"
_symmetry_group_IT_number 71
_symmetry_cell_setting 'orthorhombic'
loop_
_space_group_symop_operation_xyz
x,y,z
-x,-y,z
x,-y,-z
-x,y,-z
-x,-y,-z
x,y,-z
-x,y,z
x,-y,z
1/2+x,1/2+y,1/2+z
1/2-x,1/2-y,1/2+z
1/2+x,1/2-y,1/2-z
1/2-x,1/2+y,1/2-z
1/2-x,1/2-y,1/2-z
1/2+x,1/2+y,1/2-z
1/2-x,1/2+y,1/2+z
1/2+x,1/2-y,1/2+z
loop_
_atom_site_type_symbol
_atom_site_label
_atom_site_fract_x
_atom_site_fract_y
_atom_site_fract_z
Si Si1 0.416565 0.713081 0.500000
Si Si2 0.190411 0.781303 0.000000
Si Si3 0.731730 0.212251 0.854884
Si Si4 0.447243 0.212891 0.279783
Si Si5 0.376024 0.781540 0.109806
O O1 0.416929 0.500000 0.500000
O O2 0.362834 0.784201 0.500000
O O3 0.437720 0.761786 0.605244
O O4 0.223504 0.719600 0.085943
O O5 0.186963 0.000000 0.000000
O O6 0.750000 0.250000 0.750000
O O7 0.678732 0.279447 0.876218
O O8 0.728865 0.000000 0.874072
O O9 0.500000 0.284043 0.258546
O O10 0.408422 0.278948 0.200949
O O11 0.448139 0.000000 0.265943
O O12 0.375976 0.000000 0.112053
O O13 0.391388 0.731284 0.000000
#
# Coordination Sequence:
#
# PCOD9518232 Si02
#       5
#     8   8  16  16  16
#     4  11  22  36  55  78 106 141 182 221 262 321
#     4   9  18  32  50  73 101 134 167 201 250 303
#     4  10  18  31  51  74 102 135 169 206 250 303
#     4  10  21  36  55  80 108 137 174 225 275 313
#     4   9  17  32  55  80 106 139 177 215 261 320
#
# _framework density 21.929949000000001
#
# number of rings (size 3 to 8) (size 9 to 14) (size 15 to 20)
#    0.000    2.250    1.250    2.250    0.000    2.500 
#    0.000    4.375    0.000    2.250    0.000    1.750 
#    0.000    0.000    0.000    0.000    0.000    0.000 
#
# Total GULP energy -178313.706111 kJ/mol
# GULP energy per Si atom -5572.303316 kJ/mol
# Density = 2.188004 g / cm^3
# Si number density = 21.929949 Si / 1000 Ang^3
#
#
#
# Elastic Constant Matrix: (Units=GPa)
#
#
# Indices 1 2 3 4 5 6 
#
# 1 145.9240 6.0887 49.9962 0.0000 0.0000 0.0000
# 2 6.0887 62.6248 -9.7361 0.0000 0.0000 0.0000
# 3 49.9962 -9.7361 147.1320 0.0000 0.0000 0.0000
# 4 0.0000 0.0000 0.0000 5.7336 0.0000 0.0000
# 5 0.0000 0.0000 0.0000 0.0000 40.0616 0.0000
# 6 0.0000 0.0000 0.0000 0.0000 0.0000 4.2137
#
#
#
# Elastic Compliance Matrix: (Units=1/GPa)
#
#
# Indices 1 2 3 4 5 6 
#
# 1 0.007843 -0.001189 -0.002744 0.000000 0.000000 0.000000
# 2 -0.001189 0.016314 0.001484 0.000000 0.000000 0.000000
# 3 -0.002744 0.001484 0.007827 0.000000 0.000000 0.000000
# 4 0.000000 0.000000 0.000000 0.174411 0.000000 0.000000
# 5 0.000000 0.000000 0.000000 0.000000 0.024962 0.000000
# 6 0.000000 0.000000 0.000000 0.000000 0.000000 0.237320
#
#
# Mechanical properties :
#
#
# Convention : Reuss Voigt Hill
#
# Bulk Modulus (GPa) = 36.91958 49.81982 43.36970
# Shear Modulus (GPa) = 10.36046 30.62390 20.49218
#
# Velocity S-wave (km/s) = 2.17591 3.74095 3.06017
# Velocity P-wave (km/s) = 4.81504 6.43636 5.68380
#
# Compressibility (1/GPa) = 0.02708590
#
# Stress axis : x y z
#
# Youngs Moduli (GPa) = 127.51033 61.29562 127.76160
#
# Poissons Ratio (x) = 0.07288 0.35053
# Poissons Ratio (y) = 0.15161 -0.18955
# Poissons Ratio (z) = 0.34984 -0.09094
#
# Static dielectric constant tensor:
#      x y z
#    x 1.789950 0.000000 0.000000 
#    y 0.000000 1.840460 0.000000 
#    z 0.000000 0.000000 1.758510 
# 
# From -- ./inp_files/3727.got.cif
#   From: 2010.05.17/outbox.cif.g08.bks.cpg/sg71_2_cif.got.tgz:3727.got - 2010.06.03 16:22:01.
