data_PCOD9518386
_publ_section_title
;
Structure prediction by ZEFSAII (Michael W. Deem and Ramdas Pophale) SiO2 
 PCOD9518386
Probable space group: I M M M
;
_chemical_formula_sum "Si O2"
_cell_formula_units_Z 112
_cell_length_a 27.982308
_cell_length_b 15.737681
_cell_length_c 13.932124
_cell_angle_alpha 90.000000
_cell_angle_beta 90.000000
_cell_angle_gamma 90.000000
_cell_volume 6135.381913
_symmetry_space_group_name_H-M "I M M M"
_symmetry_group_IT_number 71
_symmetry_cell_setting 'orthorhombic'
loop_
_space_group_symop_operation_xyz
x,y,z
-x,-y,z
x,-y,-z
-x,y,-z
-x,-y,-z
x,y,-z
-x,y,z
x,-y,z
1/2+x,1/2+y,1/2+z
1/2-x,1/2-y,1/2+z
1/2+x,1/2-y,1/2-z
1/2-x,1/2+y,1/2-z
1/2-x,1/2-y,1/2-z
1/2+x,1/2+y,1/2-z
1/2-x,1/2+y,1/2+z
1/2+x,1/2-y,1/2+z
loop_
_atom_site_type_symbol
_atom_site_label
_atom_site_fract_x
_atom_site_fract_y
_atom_site_fract_z
Si Si1 0.377612 0.404100 0.889907
Si Si2 0.341070 0.094339 0.606017
Si Si3 0.312942 0.661506 0.727939
Si Si4 0.389008 0.096590 0.113400
Si Si5 0.707707 0.147447 0.793912
Si Si6 0.101495 0.766210 0.890238
Si Si7 0.055314 0.758130 0.693326
O O1 0.397185 0.500000 0.883892
O O2 0.335476 0.395059 0.811877
O O3 0.416126 0.332604 0.861431
O O4 0.361726 0.389867 0.000000
O O5 0.319022 0.101758 0.500000
O O6 0.303277 0.107898 0.689679
O O7 0.379821 0.168721 0.613212
O O8 0.362012 0.000000 0.615121
O O9 0.302121 0.752136 0.779661
O O10 0.262896 0.632130 0.683400
O O11 0.353073 0.679399 0.647651
O O12 0.333054 0.111779 0.136748
O O13 0.418785 0.169364 0.167165
O O14 0.401331 0.000000 0.142557
O O15 0.397144 0.105115 0.000000
O O16 0.062417 0.774864 0.807071
O O17 0.088480 0.786260 0.000000
O O18 0.000000 0.755727 0.667217
#
# Coordination Sequence:
#
# PCOD9518386 Si02
#       7
#    16  16  16  16  16  16  16
#     4  10  21  38  60  87 117 147 184 233 288 344
#     4   9  16  27  47  75 108 144 181 223 269 317
#     4   9  19  33  53  83 112 151 188 222 275 329
#     4  11  23  38  57  82 114 154 196 233 273 328
#     4  10  18  32  53  78 114 154 192 226 265 321
#     4   9  18  35  56  81 109 139 180 227 278 336
#     4  11  23  40  61  83 111 146 185 237 296 343
#
# _framework density 18.254771999999999
#
# number of rings (size 3 to 8) (size 9 to 14) (size 15 to 20)
#    0.000    2.143    4.286    0.857    0.000    4.286 
#    0.000    5.714    0.000    6.857    0.000    7.000 
#    0.000    0.000    0.000    0.000    0.000    0.000 
#
# Total GULP energy -312130.336445 kJ/mol
# GULP energy per Si atom -5573.756008 kJ/mol
# Density = 1.821322 g / cm^3
# Si number density = 18.254772 Si / 1000 Ang^3
#
#
#
# Elastic Constant Matrix: (Units=GPa)
#
#
# Indices 1 2 3 4 5 6 
#
# 1 77.3536 20.4329 8.0617 0.0000 0.0000 0.0000
# 2 20.4329 79.9674 31.7561 0.0000 0.0000 0.0000
# 3 8.0617 31.7561 84.5648 0.0000 0.0000 0.0000
# 4 0.0000 0.0000 0.0000 20.6269 0.0000 0.0000
# 5 0.0000 0.0000 0.0000 0.0000 3.8876 0.0000
# 6 0.0000 0.0000 0.0000 0.0000 0.0000 2.3681
#
#
#
# Elastic Compliance Matrix: (Units=1/GPa)
#
#
# Indices 1 2 3 4 5 6 
#
# 1 0.013863 -0.003546 0.000010 0.000000 0.000000 0.000000
# 2 -0.003546 0.015604 -0.005522 0.000000 0.000000 0.000000
# 3 0.000010 -0.005522 0.013898 0.000000 0.000000 0.000000
# 4 0.000000 0.000000 0.000000 0.048480 0.000000 0.000000
# 5 0.000000 0.000000 0.000000 0.000000 0.257227 0.000000
# 6 0.000000 0.000000 0.000000 0.000000 0.000000 0.422284
#
#
# Mechanical properties :
#
#
# Convention : Reuss Voigt Hill
#
# Bulk Modulus (GPa) = 39.60474 40.26523 39.93498
# Shear Modulus (GPa) = 6.26654 17.48553 11.87604
#
# Velocity S-wave (km/s) = 1.85480 3.09829 2.55340
# Velocity P-wave (km/s) = 5.13125 5.90800 5.53327
#
# Compressibility (1/GPa) = 0.02524950
#
# Stress axis : x y z
#
# Youngs Moduli (GPa) = 72.13262 64.08649 71.95402
#
# Poissons Ratio (x) = 0.22727 -0.00073
# Poissons Ratio (y) = 0.25580 0.39730
# Poissons Ratio (z) = -0.00073 0.35386
#
# Static dielectric constant tensor:
#      x y z
#    x 1.614100 0.000000 0.000000 
#    y 0.000000 1.650170 0.000000 
#    z 0.000000 0.000000 1.637110 
# 
# From -- ./inp_files/40361.got.cif
#   From: 2010.05.17/outbox.cif.g08.bks.cpg/sg71_21_cif.got.tgz:40361.got - 2010.06.03 16:22:01.
