data_PCOD9518090
_publ_section_title
;
Structure prediction by ZEFSAII (Michael W. Deem and Ramdas Pophale) SiO2 
 PCOD9518090
Probable space group: I M M M
;
_chemical_formula_sum "Si O2"
_cell_formula_units_Z 104
_cell_length_a 12.900019
_cell_length_b 23.693584
_cell_length_c 22.135591
_cell_angle_alpha 90.000000
_cell_angle_beta 90.000000
_cell_angle_gamma 90.000000
_cell_volume 6765.692118
_symmetry_space_group_name_H-M "I M M M"
_symmetry_group_IT_number 71
_symmetry_cell_setting 'orthorhombic'
loop_
_space_group_symop_operation_xyz
x,y,z
-x,-y,z
x,-y,-z
-x,y,-z
-x,-y,-z
x,y,-z
-x,y,z
x,-y,z
1/2+x,1/2+y,1/2+z
1/2-x,1/2-y,1/2+z
1/2+x,1/2-y,1/2-z
1/2-x,1/2+y,1/2-z
1/2-x,1/2-y,1/2-z
1/2+x,1/2+y,1/2-z
1/2-x,1/2+y,1/2+z
1/2+x,1/2-y,1/2+z
loop_
_atom_site_type_symbol
_atom_site_label
_atom_site_fract_x
_atom_site_fract_y
_atom_site_fract_z
Si Si1 0.763344 0.259409 0.069726
Si Si2 0.375536 0.646185 0.389265
Si Si3 0.625623 0.435099 0.500000
Si Si4 0.376127 0.879169 0.432809
Si Si5 0.122925 0.565903 0.192969
Si Si6 0.622993 0.740652 0.183653
Si Si7 0.254191 0.655547 0.733669
O O1 0.838342 0.207554 0.087412
O O2 0.823543 0.318477 0.076638
O O3 0.668302 0.259773 0.116038
O O4 0.732462 0.253249 0.000000
O O5 0.500000 0.645413 0.382274
O O6 0.345067 0.600145 0.440101
O O7 0.317957 0.637240 0.325659
O O8 0.662421 0.500000 0.500000
O O9 0.500000 0.436502 0.500000
O O10 0.346839 0.900138 0.500000
O O11 0.500000 0.871214 0.432620
O O12 0.351605 0.919402 0.376828
O O13 0.139116 0.500000 0.204580
O O14 0.193364 0.604966 0.234796
O O15 0.000000 0.578299 0.201800
O O16 0.500000 0.741112 0.185670
O O17 0.669086 0.687309 0.219977
O O18 0.671168 0.796534 0.214442
#
# Coordination Sequence:
#
# PCOD9518090 Si02
#       7
#    16  16   8  16  16  16  16
#     4  10  18  30  50  76 102 129 166 204 253 305
#     4  10  19  31  51  76 102 132 167 209 257 308
#     4   9  18  32  48  70 101 133 164 204 254 305
#     4   9  17  29  48  75 103 130 162 206 255 300
#     4  10  20  34  52  74 103 137 171 208 250 301
#     4  10  20  33  50  73 104 134 164 208 257 301
#     4  10  20  34  50  75 101 135 170 208 251 310
#
# _framework density 15.371672
#
# number of rings (size 3 to 8) (size 9 to 14) (size 15 to 20)
#    0.000    2.231    2.308    1.385    0.000    1.846 
#    0.000    1.538    0.000    1.385    0.000    0.000 
#    0.000    7.385    0.000    0.000    0.000    0.000 
#
# Total GULP energy -289901.325890 kJ/mol
# GULP energy per Si atom -5575.025498 kJ/mol
# Density = 1.533669 g / cm^3
# Si number density = 15.371672 Si / 1000 Ang^3
#
#
#
# Elastic Constant Matrix: (Units=GPa)
#
#
# Indices 1 2 3 4 5 6 
#
# 1 85.0047 51.8061 68.9117 0.0000 0.0000 0.0000
# 2 51.8061 87.1588 64.1791 0.0000 0.0000 0.0000
# 3 68.9117 64.1791 129.1278 0.0000 0.0000 0.0000
# 4 0.0000 0.0000 0.0000 22.2512 0.0000 0.0000
# 5 0.0000 0.0000 0.0000 0.0000 21.9181 0.0000
# 6 0.0000 0.0000 0.0000 0.0000 0.0000 19.4037
#
#
#
# Elastic Compliance Matrix: (Units=1/GPa)
#
#
# Indices 1 2 3 4 5 6 
#
# 1 0.023446 -0.007449 -0.008810 0.000000 0.000000 0.000000
# 2 -0.007449 0.020462 -0.006195 0.000000 0.000000 0.000000
# 3 -0.008810 -0.006195 0.015525 0.000000 0.000000 0.000000
# 4 0.000000 0.000000 0.000000 0.044941 0.000000 0.000000
# 5 0.000000 0.000000 0.000000 0.000000 0.045624 0.000000
# 6 0.000000 0.000000 0.000000 0.000000 0.000000 0.051537
#
#
# Mechanical properties :
#
#
# Convention : Reuss Voigt Hill
#
# Bulk Modulus (GPa) = 68.84444 74.56500 71.70472
# Shear Modulus (GPa) = 19.89765 20.47422 20.18593
#
# Velocity S-wave (km/s) = 3.60173 3.65354 3.62773
# Velocity P-wave (km/s) = 7.88546 8.14931 8.01847
#
# Compressibility (1/GPa) = 0.01452550
#
# Stress axis : x y z
#
# Youngs Moduli (GPa) = 42.65133 48.87003 64.41138
#
# Poissons Ratio (x) = 0.36401 0.56749
# Poissons Ratio (y) = 0.31769 0.39904
# Poissons Ratio (z) = 0.37577 0.30276
#
# Static dielectric constant tensor:
#      x y z
#    x 1.475810 0.000000 0.000000 
#    y 0.000000 1.492510 0.000000 
#    z 0.000000 0.000000 1.526480 
# 
# From -- ./inp_files/26260.got.cif
#   From: 2010.05.17/outbox.cif.g08.bks.cpg/sg71_14_cif.got.tgz:26260.got - 2010.06.03 16:22:01.
