data_PCOD9518577
_publ_section_title
;
Structure prediction by ZEFSAII (Michael W. Deem and Ramdas Pophale) SiO2 
 PCOD9518577
Probable space group: I M M M
;
_chemical_formula_sum "Si O2"
_cell_formula_units_Z 88
_cell_length_a 27.775379
_cell_length_b 12.408043
_cell_length_c 13.884425
_cell_angle_alpha 90.000000
_cell_angle_beta 90.000000
_cell_angle_gamma 90.000000
_cell_volume 4785.101810
_symmetry_space_group_name_H-M "I M M M"
_symmetry_group_IT_number 71
_symmetry_cell_setting 'orthorhombic'
loop_
_space_group_symop_operation_xyz
x,y,z
-x,-y,z
x,-y,-z
-x,y,-z
-x,-y,-z
x,y,-z
-x,y,z
x,-y,z
1/2+x,1/2+y,1/2+z
1/2-x,1/2-y,1/2+z
1/2+x,1/2-y,1/2-z
1/2-x,1/2+y,1/2-z
1/2-x,1/2-y,1/2-z
1/2+x,1/2+y,1/2-z
1/2-x,1/2+y,1/2+z
1/2+x,1/2-y,1/2+z
loop_
_atom_site_type_symbol
_atom_site_label
_atom_site_fract_x
_atom_site_fract_y
_atom_site_fract_z
Si Si1 0.302190 0.707402 0.778509
Si Si2 0.845893 0.500000 0.819138
Si Si3 0.383615 0.000000 0.889831
Si Si4 0.106775 0.735340 0.610825
Si Si5 0.128642 0.737370 0.887716
Si Si6 0.265552 0.500000 0.884878
Si Si7 0.557475 0.373636 0.725061
O O1 0.250000 0.750000 0.750000
O O2 0.338485 0.771682 0.848822
O O3 0.331502 0.703815 0.678636
O O4 0.291820 0.600315 0.837036
O O5 0.849063 0.500000 0.703290
O O6 0.870027 0.389000 0.856823
O O7 0.790786 0.500000 0.855083
O O8 0.412343 0.112581 0.881827
O O9 0.362923 0.000000 0.000000
O O10 0.106220 0.768577 0.500000
O O11 0.079058 0.819037 0.678391
O O12 0.080038 0.799866 0.859184
O O13 0.139118 0.744311 0.000000
O O14 0.268725 0.500000 0.000000
O O15 0.500000 0.368220 0.725769
O O16 0.571547 0.500000 0.717390
#
# Coordination Sequence:
#
# PCOD9518577 Si02
#       7
#    16   8   8  16  16   8  16
#     4  11  22  37  57  87 127 163 211 253 296 359
#     4  12  20  42  64  90 123 162 210 256 305 368
#     4  10  18  36  62  88 122 161 197 249 312 358
#     4  10  21  37  61  91 124 164 206 254 311 364
#     4  11  24  41  65  91 122 163 207 259 314 362
#     4  12  24  38  58  86 125 172 210 253 310 363
#     4  10  23  43  65  90 122 158 200 252 310 378
#
# _framework density 18.390412000000001
#
# number of rings (size 3 to 8) (size 9 to 14) (size 15 to 20)
#    0.000    1.273    5.455    1.364    5.091    2.182 
#    0.000    4.545    0.000    2.727    0.000    0.000 
#    0.000    0.000    0.000    0.000    0.000    0.000 
#
# Total GULP energy -245163.262481 kJ/mol
# GULP energy per Si atom -5571.892329 kJ/mol
# Density = 1.834855 g / cm^3
# Si number density = 18.390412 Si / 1000 Ang^3
#
#
#
# Elastic Constant Matrix: (Units=GPa)
#
#
# Indices 1 2 3 4 5 6 
#
# 1 67.5311 42.2185 24.9462 0.0000 0.0000 0.0000
# 2 42.2185 148.1916 54.7225 0.0000 0.0000 0.0000
# 3 24.9462 54.7225 175.2955 0.0000 0.0000 0.0000
# 4 0.0000 0.0000 0.0000 21.4033 0.0000 0.0000
# 5 0.0000 0.0000 0.0000 0.0000 10.0380 0.0000
# 6 0.0000 0.0000 0.0000 0.0000 0.0000 26.5718
#
#
#
# Elastic Compliance Matrix: (Units=1/GPa)
#
#
# Indices 1 2 3 4 5 6 
#
# 1 0.018202 -0.004780 -0.001098 0.000000 0.000000 0.000000
# 2 -0.004780 0.008883 -0.002093 0.000000 0.000000 0.000000
# 3 -0.001098 -0.002093 0.006514 0.000000 0.000000 0.000000
# 4 0.000000 0.000000 0.000000 0.046722 0.000000 0.000000
# 5 0.000000 0.000000 0.000000 0.000000 0.099622 0.000000
# 6 0.000000 0.000000 0.000000 0.000000 0.000000 0.037634
#
#
# Mechanical properties :
#
#
# Convention : Reuss Voigt Hill
#
# Bulk Modulus (GPa) = 56.63449 70.53254 63.58352
# Shear Modulus (GPa) = 20.88521 29.54467 25.21494
#
# Velocity S-wave (km/s) = 3.37361 4.01250 3.70684
# Velocity P-wave (km/s) = 6.78509 7.73970 7.27807
#
# Compressibility (1/GPa) = 0.01765709
#
# Stress axis : x y z
#
# Youngs Moduli (GPa) = 54.93891 112.57988 153.51098
#
# Poissons Ratio (x) = 0.53814 0.16857
# Poissons Ratio (y) = 0.26261 0.32124
# Poissons Ratio (z) = 0.06033 0.23559
#
# Static dielectric constant tensor:
#      x y z
#    x 1.636650 0.000000 0.000000 
#    y 0.000000 1.699230 0.000000 
#    z 0.000000 0.000000 1.627710 
# 
# From -- ./inp_files/40216.got.cif
#   From: 2010.05.17/outbox.cif.g08.bks.cpg/sg71_21_cif.got.tgz:40216.got - 2010.06.03 16:22:01.
