data_PCOD9518457
_publ_section_title
;
Structure prediction by ZEFSAII (Michael W. Deem and Ramdas Pophale) SiO2 
 PCOD9518457
Probable space group: I M M M
;
_chemical_formula_sum "Si O2"
_cell_formula_units_Z 104
_cell_length_a 20.704625
_cell_length_b 23.108215
_cell_length_c 13.688571
_cell_angle_alpha 90.000000
_cell_angle_beta 90.000000
_cell_angle_gamma 90.000000
_cell_volume 6549.254716
_symmetry_space_group_name_H-M "I M M M"
_symmetry_group_IT_number 71
_symmetry_cell_setting 'orthorhombic'
loop_
_space_group_symop_operation_xyz
x,y,z
-x,-y,z
x,-y,-z
-x,y,-z
-x,-y,-z
x,y,-z
-x,y,z
x,-y,z
1/2+x,1/2+y,1/2+z
1/2-x,1/2-y,1/2+z
1/2+x,1/2-y,1/2-z
1/2-x,1/2+y,1/2-z
1/2-x,1/2-y,1/2-z
1/2+x,1/2+y,1/2-z
1/2-x,1/2+y,1/2+z
1/2+x,1/2-y,1/2+z
loop_
_atom_site_type_symbol
_atom_site_label
_atom_site_fract_x
_atom_site_fract_y
_atom_site_fract_z
Si Si1 0.209371 0.841522 0.298785
Si Si2 0.071505 0.167249 0.613910
Si Si3 0.252078 0.219988 0.890459
Si Si4 0.426506 0.100029 0.258058
Si Si5 0.307741 0.930665 0.615760
Si Si6 0.596723 0.803608 0.108137
Si Si7 0.078174 0.500000 0.609925
O O1 0.135495 0.852131 0.329746
O O2 0.213688 0.817138 0.188875
O O3 0.239773 0.787275 0.359873
O O4 0.253027 0.896715 0.323610
O O5 0.077794 0.150145 0.500000
O O6 0.074680 0.237294 0.615101
O O7 0.000000 0.149254 0.648710
O O8 0.325616 0.196803 0.889300
O O9 0.226330 0.215963 0.000000
O O10 0.500000 0.085605 0.287318
O O11 0.376156 0.093738 0.345322
O O12 0.426284 0.160478 0.200710
O O13 0.403992 0.055416 0.173755
O O14 0.299476 0.919907 0.500000
O O15 0.306082 0.000000 0.631184
O O16 0.576562 0.826073 0.000000
O O17 0.103899 0.500000 0.500000
O O18 0.000000 0.500000 0.603676
#
# Coordination Sequence:
#
# PCOD9518457 Si02
#       7
#    16  16  16  16  16  16   8
#     4  10  18  33  53  72  99 130 162 201 247 298
#     4   9  17  29  48  76 102 124 155 193 241 302
#     4   9  17  29  51  78 100 126 159 198 244 294
#     4  11  20  31  45  65  93 127 169 207 241 282
#     4  11  23  37  51  66  90 130 177 215 244 283
#     4   9  16  28  46  71 101 129 155 190 240 295
#     4   9  18  30  43  61  87 121 159 202 250 286
#
# _framework density 15.879669
#
# number of rings (size 3 to 8) (size 9 to 14) (size 15 to 20)
#    0.000    2.231    2.308    3.231    0.000    1.846 
#    0.000    0.769    0.000    0.923    0.000    2.154 
#    0.000    0.000    0.000    1.385    0.000    0.154 
#
# Total GULP energy -289753.942760 kJ/mol
# GULP energy per Si atom -5572.191207 kJ/mol
# Density = 1.584353 g / cm^3
# Si number density = 15.879669 Si / 1000 Ang^3
#
#
#
# Elastic Constant Matrix: (Units=GPa)
#
#
# Indices 1 2 3 4 5 6 
#
# 1 92.2810 15.2366 26.5153 0.0000 0.0000 0.0000
# 2 15.2366 34.4681 16.9447 0.0000 0.0000 0.0000
# 3 26.5153 16.9447 76.1238 0.0000 0.0000 0.0000
# 4 0.0000 0.0000 0.0000 16.0225 0.0000 0.0000
# 5 0.0000 0.0000 0.0000 0.0000 14.6448 0.0000
# 6 0.0000 0.0000 0.0000 0.0000 0.0000 7.2063
#
#
#
# Elastic Compliance Matrix: (Units=1/GPa)
#
#
# Indices 1 2 3 4 5 6 
#
# 1 0.012468 -0.003791 -0.003499 0.000000 0.000000 0.000000
# 2 -0.003791 0.033730 -0.006188 0.000000 0.000000 0.000000
# 3 -0.003499 -0.006188 0.015732 0.000000 0.000000 0.000000
# 4 0.000000 0.000000 0.000000 0.062412 0.000000 0.000000
# 5 0.000000 0.000000 0.000000 0.000000 0.068284 0.000000
# 6 0.000000 0.000000 0.000000 0.000000 0.000000 0.138768
#
#
# Mechanical properties :
#
#
# Convention : Reuss Voigt Hill
#
# Bulk Modulus (GPa) = 28.59186 35.58514 32.08850
# Shear Modulus (GPa) = 13.51322 17.18646 15.34984
#
# Velocity S-wave (km/s) = 2.92031 3.29339 3.11245
# Velocity P-wave (km/s) = 5.42360 6.07617 5.75913
#
# Compressibility (1/GPa) = 0.03497499
#
# Stress axis : x y z
#
# Youngs Moduli (GPa) = 80.20672 29.64714 63.56269
#
# Poissons Ratio (x) = 0.11240 0.22239
# Poissons Ratio (y) = 0.30409 0.39330
# Poissons Ratio (z) = 0.28063 0.18344
#
# Static dielectric constant tensor:
#      x y z
#    x 1.540130 0.000000 0.000000 
#    y 0.000000 1.544110 0.000000 
#    z 0.000000 0.000000 1.544510 
# 
# From -- ./inp_files/27686.got.cif
#   From: 2010.05.17/outbox.cif.g08.bks.cpg/sg71_14_cif.got.tgz:27686.got - 2010.06.03 16:22:01.
