data_PCOD9518407
_publ_section_title
;
Structure prediction by ZEFSAII (Michael W. Deem and Ramdas Pophale) SiO2 
 PCOD9518407
Probable space group: I M M M
;
_chemical_formula_sum "Si O2"
_cell_formula_units_Z 96
_cell_length_a 14.026510
_cell_length_b 24.690773
_cell_length_c 15.573109
_cell_angle_alpha 90.000000
_cell_angle_beta 90.000000
_cell_angle_gamma 90.000000
_cell_volume 5393.362805
_symmetry_space_group_name_H-M "I M M M"
_symmetry_group_IT_number 71
_symmetry_cell_setting 'orthorhombic'
loop_
_space_group_symop_operation_xyz
x,y,z
-x,-y,z
x,-y,-z
-x,y,-z
-x,-y,-z
x,y,-z
-x,y,z
x,-y,z
1/2+x,1/2+y,1/2+z
1/2-x,1/2-y,1/2+z
1/2+x,1/2-y,1/2-z
1/2-x,1/2+y,1/2-z
1/2-x,1/2-y,1/2-z
1/2+x,1/2+y,1/2-z
1/2-x,1/2+y,1/2+z
1/2+x,1/2-y,1/2+z
loop_
_atom_site_type_symbol
_atom_site_label
_atom_site_fract_x
_atom_site_fract_y
_atom_site_fract_z
Si Si1 0.282737 0.939703 0.900023
Si Si2 0.605284 0.000000 0.353025
Si Si3 0.385859 0.382385 0.899217
Si Si4 0.283512 0.311411 0.761138
Si Si5 0.106979 0.611321 0.255660
Si Si6 0.317428 0.500000 0.903088
Si Si7 0.387444 0.361745 0.400291
O O1 0.360038 0.904315 0.851126
O O2 0.176850 0.915536 0.891214
O O3 0.284882 0.000000 0.864149
O O4 0.304981 0.940789 0.000000
O O5 0.609297 0.944823 0.297339
O O6 0.702969 0.000000 0.405312
O O7 0.500000 0.000000 0.395428
O O8 0.500000 0.382690 0.896120
O O9 0.346664 0.333393 0.840802
O O10 0.350200 0.441808 0.865595
O O11 0.356196 0.377217 0.000000
O O12 0.250000 0.250000 0.750000
O O13 0.187576 0.346980 0.772299
O O14 0.342176 0.324916 0.673970
O O15 0.000000 0.633050 0.251447
O O16 0.357921 0.500000 0.000000
O O17 0.374353 0.342964 0.500000
O O18 0.500000 0.369907 0.387030
#
# Coordination Sequence:
#
# PCOD9518407 Si02
#       7
#    16   8  16  16  16   8  16
#     4   9  17  29  48  76 108 140 175 216 263 318
#     4  10  18  32  54  78 110 146 180 221 277 332
#     4  10  21  38  61  90 120 149 187 240 300 358
#     4  11  23  38  59  81 109 149 193 235 284 339
#     4  10  20  34  51  74 106 143 182 227 275 327
#     4  10  19  35  60  88 118 148 183 234 299 361
#     4   9  19  36  56  79 109 143 180 223 273 330
#
# _framework density 17.799655999999999
#
# number of rings (size 3 to 8) (size 9 to 14) (size 15 to 20)
#    0.000    2.167    2.500    0.750    0.000    3.833 
#    0.000    2.500    0.000    0.500    0.000    0.000 
#    0.000    0.000    0.000    0.000    0.000    0.000 
#
# Total GULP energy -267203.177465 kJ/mol
# GULP energy per Si atom -5566.732864 kJ/mol
# Density = 1.775914 g / cm^3
# Si number density = 17.799656 Si / 1000 Ang^3
#
#
#
# Elastic Constant Matrix: (Units=GPa)
#
#
# Indices 1 2 3 4 5 6 
#
# 1 96.0762 8.9992 33.4531 0.0000 0.0000 0.0000
# 2 8.9992 69.7095 25.9465 0.0000 0.0000 0.0000
# 3 33.4531 25.9465 60.4561 0.0000 0.0000 0.0000
# 4 0.0000 0.0000 0.0000 16.5332 0.0000 0.0000
# 5 0.0000 0.0000 0.0000 0.0000 17.6810 0.0000
# 6 0.0000 0.0000 0.0000 0.0000 0.0000 15.3556
#
#
#
# Elastic Compliance Matrix: (Units=1/GPa)
#
#
# Indices 1 2 3 4 5 6 
#
# 1 0.012974 0.001187 -0.007689 0.000000 0.000000 0.000000
# 2 0.001187 0.017181 -0.008031 0.000000 0.000000 0.000000
# 3 -0.007689 -0.008031 0.024242 0.000000 0.000000 0.000000
# 4 0.000000 0.000000 0.000000 0.060484 0.000000 0.000000
# 5 0.000000 0.000000 0.000000 0.000000 0.056558 0.000000
# 6 0.000000 0.000000 0.000000 0.000000 0.000000 0.065123
#
#
# Mechanical properties :
#
#
# Convention : Reuss Voigt Hill
#
# Bulk Modulus (GPa) = 39.47461 40.33771 39.90616
# Shear Modulus (GPa) = 18.24342 20.43683 19.34013
#
# Velocity S-wave (km/s) = 3.20493 3.39212 3.29985
# Velocity P-wave (km/s) = 5.99339 6.16873 6.08169
#
# Compressibility (1/GPa) = 0.02533274
#
# Stress axis : x y z
#
# Youngs Moduli (GPa) = 77.07485 58.20365 41.25077
#
# Poissons Ratio (x) = -0.06908 0.31717
# Poissons Ratio (y) = -0.09148 0.33126
# Poissons Ratio (z) = 0.59261 0.46740
#
# Static dielectric constant tensor:
#      x y z
#    x 1.594400 0.000000 0.000000 
#    y 0.000000 1.606170 0.000000 
#    z 0.000000 0.000000 1.630170 
# 
# From -- ./inp_files/34806.got.cif
#   From: 2010.05.17/outbox.cif.g08.bks.cpg/sg71_18_cif.got.tgz:34806.got - 2010.06.03 16:22:01.
