data_PCOD9518950
_publ_section_title
;
Structure prediction by ZEFSAII (Michael W. Deem and Ramdas Pophale) SiO2 
 PCOD9518950
Probable space group: I M M M
;
_chemical_formula_sum "Si O2"
_cell_formula_units_Z 96
_cell_length_a 25.432894
_cell_length_b 24.843475
_cell_length_c 8.982430
_cell_angle_alpha 90.000000
_cell_angle_beta 90.000000
_cell_angle_gamma 90.000000
_cell_volume 5675.471742
_symmetry_space_group_name_H-M "I M M M"
_symmetry_group_IT_number 71
_symmetry_cell_setting 'orthorhombic'
loop_
_space_group_symop_operation_xyz
x,y,z
-x,-y,z
x,-y,-z
-x,y,-z
-x,-y,-z
x,y,-z
-x,y,z
x,-y,z
1/2+x,1/2+y,1/2+z
1/2-x,1/2-y,1/2+z
1/2+x,1/2-y,1/2-z
1/2-x,1/2+y,1/2-z
1/2-x,1/2-y,1/2-z
1/2+x,1/2+y,1/2-z
1/2-x,1/2+y,1/2+z
1/2+x,1/2-y,1/2+z
loop_
_atom_site_type_symbol
_atom_site_label
_atom_site_fract_x
_atom_site_fract_y
_atom_site_fract_z
Si Si1 0.723218 0.500000 0.835188
Si Si2 0.633907 0.410954 0.826916
Si Si3 0.829063 0.500000 0.323421
Si Si4 0.312157 0.802890 0.179012
Si Si5 0.562255 0.500000 0.677264
Si Si6 0.192310 0.814108 0.177865
Si Si7 0.607010 0.103917 0.180552
Si Si8 0.500000 0.935893 0.678912
O O1 0.685428 0.448880 0.821651
O O2 0.768521 0.500000 0.716439
O O3 0.747488 0.500000 0.000000
O O4 0.589401 0.446935 0.747473
O O5 0.651718 0.355967 0.749602
O O6 0.620092 0.402507 0.000000
O O7 0.834688 0.500000 0.500000
O O8 0.857593 0.553453 0.268947
O O9 0.253946 0.826702 0.214560
O O10 0.316858 0.745841 0.260254
O O11 0.359558 0.842941 0.218246
O O12 0.312940 0.794639 0.000000
O O13 0.500000 0.500000 0.705140
O O14 0.571554 0.500000 0.500000
O O15 0.187212 0.815401 0.000000
O O16 0.550993 0.093942 0.255285
O O17 0.601234 0.102852 0.000000
O O18 0.500000 0.933798 0.500000
O O19 0.500000 0.000000 0.722311
#
# Coordination Sequence:
#
# PCOD9518950 Si02
#       8
#     8  16   8  16   8  16  16   8
#     4   9  19  31  45  73 109 141 169 204 257 310
#     4  10  20  34  53  78 110 145 178 214 259 317
#     4  10  19  30  49  76 104 134 171 215 261 315
#     4   9  19  34  53  80 110 142 180 219 263 320
#     4  10  21  37  58  83 108 137 176 222 271 319
#     4  10  19  33  55  81 111 145 178 216 264 314
#     4  10  20  35  55  75 100 137 179 220 263 316
#     4  11  23  37  53  75 103 135 175 224 273 316
#
# _framework density 16.914892999999999
#
# number of rings (size 3 to 8) (size 9 to 14) (size 15 to 20)
#    0.000    2.167    0.833    3.000    0.000    6.333 
#    0.000    0.000    1.833    0.000    0.000    0.000 
#    0.000    0.000    0.000    0.000    0.000    0.000 
#
# Total GULP energy -267710.213121 kJ/mol
# GULP energy per Si atom -5577.296107 kJ/mol
# Density = 1.687639 g / cm^3
# Si number density = 16.914893 Si / 1000 Ang^3
#
#
#
# Elastic Constant Matrix: (Units=GPa)
#
#
# Indices 1 2 3 4 5 6 
#
# 1 117.8519 66.6027 59.6630 0.0000 0.0000 0.0000
# 2 66.6027 104.4815 57.1406 0.0000 0.0000 0.0000
# 3 59.6630 57.1406 63.4654 0.0000 0.0000 0.0000
# 4 0.0000 0.0000 0.0000 20.1603 0.0000 0.0000
# 5 0.0000 0.0000 0.0000 0.0000 -24.0732 0.0000
# 6 0.0000 0.0000 0.0000 0.0000 0.0000 -152.8512
#
#
#
# Elastic Compliance Matrix: (Units=1/GPa)
#
#
# Indices 1 2 3 4 5 6 
#
# 1 0.017055 -0.004144 -0.012303 0.000000 0.000000 0.000000
# 2 -0.004144 0.019862 -0.013987 0.000000 0.000000 0.000000
# 3 -0.012303 -0.013987 0.039915 0.000000 0.000000 0.000000
# 4 0.000000 0.000000 0.000000 0.049603 0.000000 0.000000
# 5 0.000000 0.000000 0.000000 0.000000 -0.041540 0.000000
# 6 0.000000 0.000000 0.000000 0.000000 0.000000 -0.006542
#
#
# Mechanical properties :
#
#
# Convention : Reuss Voigt Hill
#
# Bulk Modulus (GPa) = 62.63459 72.51237 67.57348
# Shear Modulus (GPa) = 34.59199 -24.52667 5.03266
#
# Velocity S-wave (km/s) = 4.52714 -3.81202 1.72677
# Velocity P-wave (km/s) = 8.02722 4.85661 6.63412
#
# Compressibility (1/GPa) = 0.01596562
#
# Stress axis : x y z
#
# Youngs Moduli (GPa) = 58.63281 50.34715 25.05300
#
# Poissons Ratio (x) = 0.20863 0.30822
# Poissons Ratio (y) = 0.24296 0.35042
# Poissons Ratio (z) = 0.72134 0.70421
#
# Static dielectric constant tensor:
#      x y z
#    x 1.549250 0.000000 0.000000 
#    y 0.000000 1.561850 0.000000 
#    z 0.000000 0.000000 1.575950 
# 
# From -- ./inp_files/12988.got.cif
#   From: 2010.05.17/outbox.cif.g08.bks.cpg/sg71_7_cif.got.tgz:12988.got - 2010.06.03 16:22:01.
