data_PCOD9518301
_publ_section_title
;
Structure prediction by ZEFSAII (Michael W. Deem and Ramdas Pophale) SiO2 
 PCOD9518301
Probable space group: I M M M
;
_chemical_formula_sum "Si O2"
_cell_formula_units_Z 96
_cell_length_a 9.012220
_cell_length_b 27.361499
_cell_length_c 22.307952
_cell_angle_alpha 90.000000
_cell_angle_beta 90.000000
_cell_angle_gamma 90.000000
_cell_volume 5500.869889
_symmetry_space_group_name_H-M "I M M M"
_symmetry_group_IT_number 71
_symmetry_cell_setting 'orthorhombic'
loop_
_space_group_symop_operation_xyz
x,y,z
-x,-y,z
x,-y,-z
-x,y,-z
-x,-y,-z
x,y,-z
-x,y,z
x,-y,z
1/2+x,1/2+y,1/2+z
1/2-x,1/2-y,1/2+z
1/2+x,1/2-y,1/2-z
1/2-x,1/2+y,1/2-z
1/2-x,1/2-y,1/2-z
1/2+x,1/2+y,1/2-z
1/2-x,1/2+y,1/2+z
1/2+x,1/2-y,1/2+z
loop_
_atom_site_type_symbol
_atom_site_label
_atom_site_fract_x
_atom_site_fract_y
_atom_site_fract_z
Si Si1 0.825217 0.387389 0.890149
Si Si2 0.824632 0.910563 0.847691
Si Si3 0.681110 0.500000 0.430581
Si Si4 0.667919 0.557409 0.788831
Si Si5 0.678477 0.790866 0.672841
Si Si6 0.177494 0.056917 0.500000
Si Si7 0.822710 0.688454 0.310722
O O1 0.787355 0.415178 0.828590
O O2 0.782330 0.331318 0.876603
O O3 0.737759 0.414683 0.942191
O O4 0.000000 0.389220 0.902836
O O5 0.771465 0.950877 0.895534
O O6 0.810233 0.934075 0.781579
O O7 0.741939 0.858957 0.843579
O O8 0.000000 0.901768 0.858151
O O9 0.500000 0.500000 0.427942
O O10 0.725412 0.500000 0.500000
O O11 0.500000 0.574767 0.803959
O O12 0.674210 0.500000 0.801677
O O13 0.500000 0.784631 0.672666
O O14 0.756564 0.739025 0.664527
O O15 0.719077 0.810919 0.739548
O O16 0.000000 0.057188 0.500000
O O17 0.226485 0.000000 0.500000
O O18 0.000000 0.688507 0.314323
#
# Coordination Sequence:
#
# PCOD9518301 Si02
#       7
#    16  16   8  16  16   8  16
#     4  11  22  37  57  81 109 142 186 235 282 329
#     4  10  18  31  53  80 109 143 182 226 275 326
#     4   9  18  34  57  83 111 146 191 230 265 321
#     4  10  19  31  49  77 110 141 177 223 276 335
#     4   9  19  34  52  79 111 142 178 224 277 329
#     4  11  25  43  59  79 111 153 195 230 273 334
#     4  10  19  32  52  81 114 144 178 222 277 335
#
# _framework density 17.451785999999998
#
# number of rings (size 3 to 8) (size 9 to 14) (size 15 to 20)
#    0.000    2.000    2.500    1.750    0.000    5.000 
#    0.000    0.417    1.833    1.000    0.000    0.000 
#    0.000    0.000    0.000    0.000    0.000    0.000 
#
# Total GULP energy -267808.904658 kJ/mol
# GULP energy per Si atom -5579.352180 kJ/mol
# Density = 1.741207 g / cm^3
# Si number density = 17.451786 Si / 1000 Ang^3
#
#
#
# Elastic Constant Matrix: (Units=GPa)
#
#
# Indices 1 2 3 4 5 6 
#
# 1 34.2046 52.2053 29.2351 0.0000 0.0000 0.0000
# 2 52.2053 162.4338 62.8946 0.0000 0.0000 0.0000
# 3 29.2351 62.8946 73.6563 0.0000 0.0000 0.0000
# 4 0.0000 0.0000 0.0000 23.3953 0.0000 0.0000
# 5 0.0000 0.0000 0.0000 0.0000 1.4823 0.0000
# 6 0.0000 0.0000 0.0000 0.0000 0.0000 27.2742
#
#
#
# Elastic Compliance Matrix: (Units=1/GPa)
#
#
# Indices 1 2 3 4 5 6 
#
# 1 0.063390 -0.015882 -0.011598 0.000000 0.000000 0.000000
# 2 -0.015882 0.013176 -0.004947 0.000000 0.000000 0.000000
# 3 -0.011598 -0.004947 0.022405 0.000000 0.000000 0.000000
# 4 0.000000 0.000000 0.000000 0.042744 0.000000 0.000000
# 5 0.000000 0.000000 0.000000 0.000000 0.674607 0.000000
# 6 0.000000 0.000000 0.000000 0.000000 0.000000 0.036665
#
#
# Mechanical properties :
#
#
# Convention : Reuss Voigt Hill
#
# Bulk Modulus (GPa) = 29.31291 62.10717 45.71004
# Shear Modulus (GPa) = 5.38089 18.82769 12.10429
#
# Velocity S-wave (km/s) = 1.75784 3.28813 2.63646
# Velocity P-wave (km/s) = 4.57744 7.07678 5.95961
#
# Compressibility (1/GPa) = 0.03411466
#
# Stress axis : x y z
#
# Youngs Moduli (GPa) = 15.77548 75.89310 44.63342
#
# Poissons Ratio (x) = 1.20534 0.51768
# Poissons Ratio (y) = 0.25055 0.22082
# Poissons Ratio (z) = 0.18297 0.37548
#
# Static dielectric constant tensor:
#      x y z
#    x 1.591520 0.000000 0.000000 
#    y 0.000000 1.591860 0.000000 
#    z 0.000000 0.000000 1.588230 
# 
# From -- ./inp_files/57766.got.cif
#   From: 2010.05.17/outbox.cif.g08.bks.cpg/sg71_29_cif.got.tgz:57766.got - 2010.06.03 16:22:01.
