data_PCOD9518583
_publ_section_title
;
Structure prediction by ZEFSAII (Michael W. Deem and Ramdas Pophale) SiO2 
 PCOD9518583
Probable space group: I M M M
;
_chemical_formula_sum "Si O2"
_cell_formula_units_Z 80
_cell_length_a 17.409036
_cell_length_b 8.036462
_cell_length_c 24.893831
_cell_angle_alpha 90.000000
_cell_angle_beta 90.000000
_cell_angle_gamma 90.000000
_cell_volume 3482.822615
_symmetry_space_group_name_H-M "I M M M"
_symmetry_group_IT_number 71
_symmetry_cell_setting 'orthorhombic'
loop_
_space_group_symop_operation_xyz
x,y,z
-x,-y,z
x,-y,-z
-x,y,-z
-x,-y,-z
x,y,-z
-x,y,z
x,-y,z
1/2+x,1/2+y,1/2+z
1/2-x,1/2-y,1/2+z
1/2+x,1/2-y,1/2-z
1/2-x,1/2+y,1/2-z
1/2-x,1/2-y,1/2-z
1/2+x,1/2+y,1/2-z
1/2-x,1/2+y,1/2+z
1/2+x,1/2-y,1/2+z
loop_
_atom_site_type_symbol
_atom_site_label
_atom_site_fract_x
_atom_site_fract_y
_atom_site_fract_z
Si Si1 0.347596 0.797082 0.619418
Si Si2 0.197050 0.680868 0.500000
Si Si3 0.856220 0.312737 0.000000
Si Si4 0.802797 0.193461 0.684118
Si Si5 0.587177 0.304379 0.088609
Si Si6 0.083370 0.698854 0.229328
O O1 0.370263 0.736893 0.559574
O O2 0.266026 0.739012 0.645922
O O3 0.406780 0.757070 0.666674
O O4 0.342045 0.000000 0.614175
O O5 0.234506 0.500000 0.500000
O O6 0.263311 0.816349 0.500000
O O7 0.142425 0.703727 0.550336
O O8 0.889295 0.500000 0.000000
O O9 0.879081 0.208485 0.647752
O O10 0.836932 0.256519 0.740463
O O11 0.783671 0.000000 0.692091
O O12 0.500000 0.248552 0.084706
O O13 0.590873 0.500000 0.073050
O O14 0.079923 0.500000 0.233238
O O15 0.000000 0.765442 0.248785
#
# Coordination Sequence:
#
# PCOD9518583 Si02
#       6
#    16   8   8  16  16  16
#     4   9  18  34  59  83 104 139 183 226 266 316
#     4  12  23  33  48  74 109 140 174 222 276 325
#     4  10  18  37  62  78 100 138 186 228 267 313
#     4  10  19  34  57  81 104 139 189 227 254 306
#     4  10  20  34  52  73 101 142 187 223 257 307
#     4  10  21  36  53  80 117 146 171 216 280 332
#
# _framework density 22.969874999999998
#
# number of rings (size 3 to 8) (size 9 to 14) (size 15 to 20)
#    0.000    2.000    2.000    2.400    0.000    3.600 
#    0.000    1.500    0.000    3.000    0.000    0.000 
#    0.000    2.400    0.000    0.000    0.000    0.000 
#
# Total GULP energy -222938.850097 kJ/mol
# GULP energy per Si atom -5573.471252 kJ/mol
# Density = 2.291759 g / cm^3
# Si number density = 22.969875 Si / 1000 Ang^3
#
#
#
# Elastic Constant Matrix: (Units=GPa)
#
#
# Indices 1 2 3 4 5 6 
#
# 1 54.0806 -6.4577 0.8351 0.0000 0.0000 0.0000
# 2 -6.4577 11.0913 9.8888 0.0000 0.0000 0.0000
# 3 0.8351 9.8888 137.8158 0.0000 0.0000 0.0000
# 4 0.0000 0.0000 0.0000 30.3267 0.0000 0.0000
# 5 0.0000 0.0000 0.0000 0.0000 20.5471 0.0000
# 6 0.0000 0.0000 0.0000 0.0000 0.0000 10.6493
#
#
#
# Elastic Compliance Matrix: (Units=1/GPa)
#
#
# Indices 1 2 3 4 5 6 
#
# 1 0.020006 0.012560 -0.001022 0.000000 0.000000 0.000000
# 2 0.012560 0.104209 -0.007553 0.000000 0.000000 0.000000
# 3 -0.001022 -0.007553 0.007804 0.000000 0.000000 0.000000
# 4 0.000000 0.000000 0.000000 0.032974 0.000000 0.000000
# 5 0.000000 0.000000 0.000000 0.000000 0.048669 0.000000
# 6 0.000000 0.000000 0.000000 0.000000 0.000000 0.093903
#
#
# Mechanical properties :
#
#
# Convention : Reuss Voigt Hill
#
# Bulk Modulus (GPa) = 7.14350 23.50223 15.32287
# Shear Modulus (GPa) = 14.44005 25.55271 19.99638
#
# Velocity S-wave (km/s) = 2.51001 3.33895 2.95371
# Velocity P-wave (km/s) = 3.39366 5.01186 4.27993
#
# Compressibility (1/GPa) = 0.13998731
#
# Stress axis : x y z
#
# Youngs Moduli (GPa) = 49.98385 9.59615 128.13532
#
# Poissons Ratio (x) = -0.12053 0.13101
# Poissons Ratio (y) = -0.62780 0.96787
# Poissons Ratio (z) = 0.05111 0.07248
#
# Static dielectric constant tensor:
#      x y z
#    x 1.857320 0.000000 0.000000 
#    y 0.000000 1.879220 0.000000 
#    z 0.000000 0.000000 1.975880 
# 
# From -- ./inp_files/61025.got.cif
#   From: 2010.05.17/outbox.cif.g08.bks.cpg/sg71_31_cif.got.tgz:61025.got - 2010.06.03 16:22:01.
