data_PCOD9518389
_publ_section_title
;
Structure prediction by ZEFSAII (Michael W. Deem and Ramdas Pophale) SiO2 
 PCOD9518389
Probable space group: I M M M
;
_chemical_formula_sum "Si O2"
_cell_formula_units_Z 104
_cell_length_a 7.716042
_cell_length_b 20.572181
_cell_length_c 30.972029
_cell_angle_alpha 90.000000
_cell_angle_beta 90.000000
_cell_angle_gamma 90.000000
_cell_volume 4916.370192
_symmetry_space_group_name_H-M "I M M M"
_symmetry_group_IT_number 71
_symmetry_cell_setting 'orthorhombic'
loop_
_space_group_symop_operation_xyz
x,y,z
-x,-y,z
x,-y,-z
-x,y,-z
-x,-y,-z
x,y,-z
-x,y,z
x,-y,z
1/2+x,1/2+y,1/2+z
1/2-x,1/2-y,1/2+z
1/2+x,1/2-y,1/2-z
1/2-x,1/2+y,1/2-z
1/2-x,1/2-y,1/2-z
1/2+x,1/2+y,1/2-z
1/2-x,1/2+y,1/2+z
1/2+x,1/2-y,1/2+z
loop_
_atom_site_type_symbol
_atom_site_label
_atom_site_fract_x
_atom_site_fract_y
_atom_site_fract_z
Si Si1 0.192464 0.889625 0.330359
Si Si2 0.703534 0.000000 0.263060
Si Si3 0.207503 0.747925 0.800162
Si Si4 0.303444 0.000000 0.450045
Si Si5 0.211693 0.140444 0.132312
Si Si6 0.788220 0.224331 0.949930
Si Si7 0.803986 0.632351 0.922927
Si Si8 0.703937 0.500000 0.662906
O O1 0.194731 0.815904 0.315175
O O2 0.309750 0.884322 0.372421
O O3 0.000000 0.909913 0.343809
O O4 0.248084 0.937555 0.292114
O O5 0.500000 0.000000 0.256536
O O6 0.782315 0.000000 0.215101
O O7 0.250000 0.750000 0.750000
O O8 0.259017 0.810235 0.828783
O O9 0.000000 0.739372 0.806127
O O10 0.213591 0.931963 0.440283
O O11 0.500000 0.000000 0.428987
O O12 0.329959 0.000000 0.500000
O O13 0.266913 0.171944 0.086450
O O14 0.000000 0.138846 0.131804
O O15 0.274480 0.067675 0.143339
O O16 0.732082 0.296445 0.933789
O O17 0.000000 0.223545 0.949242
O O18 0.735686 0.213559 0.000000
O O19 0.000000 0.633911 0.941206
O O20 0.500000 0.500000 0.652513
#
# Coordination Sequence:
#
# PCOD9518389 Si02
#       8
#    16   8  16   8  16  16  16   8
#     4  12  24  38  56  82 116 155 194 236 289 350
#     4  12  25  41  60  84 115 153 199 248 294 353
#     4  11  21  36  57  84 117 154 198 245 294 349
#     4   9  17  28  48  80 108 137 184 237 284 335
#     4   9  18  33  54  82 116 151 191 242 297 353
#     4   9  16  29  53  83 114 152 197 246 299 355
#     4  10  18  32  53  79 113 151 194 242 289 341
#     4  10  20  37  60  84 116 154 189 238 307 366
#
# _framework density 21.153818000000001
#
# number of rings (size 3 to 8) (size 9 to 14) (size 15 to 20)
#    0.000    1.769    1.538    4.385    0.000    3.692 
#    0.000    1.154    0.000    4.615    0.000    0.000 
#    0.000    0.615    0.000    0.000    0.000    0.000 
#
# Total GULP energy -289977.172703 kJ/mol
# GULP energy per Si atom -5576.484090 kJ/mol
# Density = 2.110567 g / cm^3
# Si number density = 21.153818 Si / 1000 Ang^3
#
#
#
# Elastic Constant Matrix: (Units=GPa)
#
#
# Indices 1 2 3 4 5 6 
#
# 1 48.6645 5.0483 -5.8513 0.0000 0.0000 0.0000
# 2 5.0483 206.6439 98.1034 0.0000 0.0000 0.0000
# 3 -5.8513 98.1034 161.1882 0.0000 0.0000 0.0000
# 4 0.0000 0.0000 0.0000 40.2925 0.0000 0.0000
# 5 0.0000 0.0000 0.0000 0.0000 9.9937 0.0000
# 6 0.0000 0.0000 0.0000 0.0000 0.0000 -89.2402
#
#
#
# Elastic Compliance Matrix: (Units=1/GPa)
#
#
# Indices 1 2 3 4 5 6 
#
# 1 0.020856 -0.001222 0.001501 0.000000 0.000000 0.000000
# 2 -0.001222 0.006877 -0.004230 0.000000 0.000000 0.000000
# 3 0.001501 -0.004230 0.008833 0.000000 0.000000 0.000000
# 4 0.000000 0.000000 0.000000 0.024819 0.000000 0.000000
# 5 0.000000 0.000000 0.000000 0.000000 0.100063 0.000000
# 6 0.000000 0.000000 0.000000 0.000000 0.000000 -0.011206
#
#
# Mechanical properties :
#
#
# Convention : Reuss Voigt Hill
#
# Bulk Modulus (GPa) = 34.88712 67.89968 51.39340
# Shear Modulus (GPa) = 29.81527 13.48895 21.65211
#
# Velocity S-wave (km/s) = 3.75834 2.52793 3.20278
# Velocity P-wave (km/s) = 5.94654 6.37874 6.16643
#
# Compressibility (1/GPa) = 0.02866387
#
# Stress axis : x y z
#
# Youngs Moduli (GPa) = 47.94758 145.40575 113.21256
#
# Poissons Ratio (x) = 0.17769 -0.16992
# Poissons Ratio (y) = 0.05859 0.47890
# Poissons Ratio (z) = -0.07196 0.61508
#
# Static dielectric constant tensor:
#      x y z
#    x 1.811890 0.000000 0.000000 
#    y 0.000000 1.760720 0.000000 
#    z 0.000000 0.000000 1.673640 
# 
# From -- ./inp_files/68325.got.cif
#   From: 2010.05.17/outbox.cif.g08.bks.cpg/sg71_35_cif.got.tgz:68325.got - 2010.06.03 16:22:01.
