data_PCOD9518717
_publ_section_title
;
Structure prediction by ZEFSAII (Michael W. Deem and Ramdas Pophale) SiO2 
 PCOD9518717
Probable space group: I M M M
;
_chemical_formula_sum "Si O2"
_cell_formula_units_Z 80
_cell_length_a 15.521099
_cell_length_b 7.709171
_cell_length_c 32.358472
_cell_angle_alpha 90.000000
_cell_angle_beta 90.000000
_cell_angle_gamma 90.000000
_cell_volume 3871.846699
_symmetry_space_group_name_H-M "I M M M"
_symmetry_group_IT_number 71
_symmetry_cell_setting 'orthorhombic'
loop_
_space_group_symop_operation_xyz
x,y,z
-x,-y,z
x,-y,-z
-x,y,-z
-x,-y,-z
x,y,-z
-x,y,z
x,-y,z
1/2+x,1/2+y,1/2+z
1/2-x,1/2-y,1/2+z
1/2+x,1/2-y,1/2-z
1/2-x,1/2+y,1/2-z
1/2-x,1/2-y,1/2-z
1/2+x,1/2+y,1/2-z
1/2-x,1/2+y,1/2+z
1/2+x,1/2-y,1/2+z
loop_
_atom_site_type_symbol
_atom_site_label
_atom_site_fract_x
_atom_site_fract_y
_atom_site_fract_z
Si Si1 0.000000 0.287535 0.275754
Si Si2 0.173513 0.207846 0.134179
Si Si3 0.783822 0.797409 0.955608
Si Si4 0.094002 0.795904 0.433348
Si Si5 0.141319 0.710444 0.340525
Si Si6 0.500000 0.205851 0.317913
O O1 0.916229 0.232773 0.301989
O O2 0.000000 0.223636 0.228857
O O3 0.000000 0.500000 0.275183
O O4 0.178954 0.277866 0.087116
O O5 0.259051 0.268092 0.158547
O O6 0.085534 0.244578 0.157306
O O7 0.182122 0.000000 0.130923
O O8 0.680040 0.788212 0.951295
O O9 0.808431 0.000000 0.956579
O O10 0.808486 0.719507 0.000000
O O11 0.101399 0.772434 0.383838
O O12 0.000000 0.729257 0.446603
O O13 0.097937 0.000000 0.443125
O O14 0.138813 0.500000 0.341279
O O15 0.500000 0.000000 0.314419
#
# Coordination Sequence:
#
# PCOD9518717 Si02
#       6
#     8  16  16  16  16   8
#     4   9  18  33  55  82 109 138 180 222 254 305
#     4   9  19  36  57  79 104 135 173 221 272 314
#     4   9  19  36  57  78  99 132 180 224 262 311
#     4  10  19  29  45  75 114 147 173 207 258 312
#     4   9  17  33  57  78 102 142 184 219 258 303
#     4  11  23  37  54  78 107 141 177 218 272 326
#
# _framework density 20.661975000000002
#
# number of rings (size 3 to 8) (size 9 to 14) (size 15 to 20)
#    0.000    2.600    1.000    2.100    0.000    6.000 
#    0.000    4.500    0.000    3.000    0.000    0.000 
#    0.000    0.000    0.000    0.000    0.000    0.000 
#
# Total GULP energy -223145.486718 kJ/mol
# GULP energy per Si atom -5578.637168 kJ/mol
# Density = 2.061495 g / cm^3
# Si number density = 20.661975 Si / 1000 Ang^3
#
#
#
# Elastic Constant Matrix: (Units=GPa)
#
#
# Indices 1 2 3 4 5 6 
#
# 1 130.5459 0.0588 91.5903 0.0000 0.0000 0.0000
# 2 0.0588 33.3653 4.1512 0.0000 0.0000 0.0000
# 3 91.5903 4.1512 186.1354 0.0000 0.0000 0.0000
# 4 0.0000 0.0000 0.0000 8.3022 0.0000 0.0000
# 5 0.0000 0.0000 0.0000 0.0000 4.0270 0.0000
# 6 0.0000 0.0000 0.0000 0.0000 0.0000 2.6634
#
#
#
# Elastic Compliance Matrix: (Units=1/GPa)
#
#
# Indices 1 2 3 4 5 6 
#
# 1 0.011715 0.000698 -0.005780 0.000000 0.000000 0.000000
# 2 0.000698 0.030096 -0.001015 0.000000 0.000000 0.000000
# 3 -0.005780 -0.001015 0.008239 0.000000 0.000000 0.000000
# 4 0.000000 0.000000 0.000000 0.120451 0.000000 0.000000
# 5 0.000000 0.000000 0.000000 0.000000 0.248323 0.000000
# 6 0.000000 0.000000 0.000000 0.000000 0.000000 0.375455
#
#
# Mechanical properties :
#
#
# Convention : Reuss Voigt Hill
#
# Bulk Modulus (GPa) = 26.41479 60.18304 43.29891
# Shear Modulus (GPa) = 6.10432 19.94827 13.02629
#
# Velocity S-wave (km/s) = 1.72069 3.11055 2.51360
# Velocity P-wave (km/s) = 4.09386 6.48779 5.42453
#
# Compressibility (1/GPa) = 0.03785758
#
# Stress axis : x y z
#
# Youngs Moduli (GPa) = 85.35945 33.22664 121.36990
#
# Poissons Ratio (x) = -0.02321 0.70154
# Poissons Ratio (y) = -0.05962 0.12318
# Poissons Ratio (z) = 0.49339 0.03372
#
# Static dielectric constant tensor:
#      x y z
#    x 1.830840 0.000000 0.000000 
#    y 0.000000 1.762610 0.000000 
#    z 0.000000 0.000000 1.759750 
# 
# From -- ./inp_files/65828.got.cif
#   From: 2010.05.17/outbox.cif.g08.bks.cpg/sg71_33_cif.got.tgz:65828.got - 2010.06.03 16:22:01.
