data_PCOD9518334
_publ_section_title
;
Structure prediction by ZEFSAII (Michael W. Deem and Ramdas Pophale) SiO2 
 PCOD9518334
Probable space group: I M M M
;
_chemical_formula_sum "Si O2"
_cell_formula_units_Z 96
_cell_length_a 12.855573
_cell_length_b 18.864601
_cell_length_c 20.931884
_cell_angle_alpha 90.000000
_cell_angle_beta 90.000000
_cell_angle_gamma 90.000000
_cell_volume 5076.301192
_symmetry_space_group_name_H-M "I M M M"
_symmetry_group_IT_number 71
_symmetry_cell_setting 'orthorhombic'
loop_
_space_group_symop_operation_xyz
x,y,z
-x,-y,z
x,-y,-z
-x,y,-z
-x,-y,-z
x,y,-z
-x,y,z
x,-y,z
1/2+x,1/2+y,1/2+z
1/2-x,1/2-y,1/2+z
1/2+x,1/2-y,1/2-z
1/2-x,1/2+y,1/2-z
1/2-x,1/2-y,1/2-z
1/2+x,1/2+y,1/2-z
1/2-x,1/2+y,1/2+z
1/2+x,1/2-y,1/2+z
loop_
_atom_site_type_symbol
_atom_site_label
_atom_site_fract_x
_atom_site_fract_y
_atom_site_fract_z
Si Si1 0.227499 0.084356 0.786014
Si Si2 0.500000 0.416388 0.704452
Si Si3 0.617321 0.685773 0.076502
Si Si4 0.298981 0.083533 0.424805
Si Si5 0.500000 0.332894 0.570475
Si Si6 0.618677 0.837067 0.692271
Si Si7 0.291369 0.710505 0.626144
O O1 0.312382 0.114515 0.738016
O O2 0.234724 0.131720 0.850052
O O3 0.109295 0.099939 0.762141
O O4 0.238585 0.000000 0.795337
O O5 0.500000 0.500000 0.693763
O O6 0.500000 0.381031 0.634229
O O7 0.500000 0.685726 0.102352
O O8 0.683997 0.614722 0.089634
O O9 0.690278 0.749698 0.100156
O O10 0.611036 0.691203 0.000000
O O11 0.320534 0.095871 0.500000
O O12 0.373100 0.126804 0.377667
O O13 0.304960 0.000000 0.412584
O O14 0.500000 0.366419 0.500000
O O15 0.609029 0.291041 0.578824
O O16 0.500000 0.832254 0.713090
O O17 0.667737 0.759122 0.684721
#
# Coordination Sequence:
#
# PCOD9518334 Si02
#       7
#    16   8  16  16   8  16  16
#     4  10  21  38  59  79 106 144 182 228 277 326
#     4   8  18  37  56  80 113 141 177 227 278 328
#     4   9  18  33  53  77 107 143 180 220 269 326
#     4   9  19  35  53  77 110 144 181 230 282 327
#     4  10  18  31  58  86 111 143 179 221 276 332
#     4  11  22  37  55  80 110 145 186 225 271 331
#     4  10  20  37  54  82 112 141 181 227 276 324
#
# _framework density 18.911405999999999
#
# number of rings (size 3 to 8) (size 9 to 14) (size 15 to 20)
#    0.000    2.333    0.833    1.500    0.000    3.500 
#    6.000    2.500    0.000    1.500    0.000    1.167 
#    0.000    0.000    0.000    0.000    0.000    0.000 
#
# Total GULP energy -267507.204051 kJ/mol
# GULP energy per Si atom -5573.066751 kJ/mol
# Density = 1.886836 g / cm^3
# Si number density = 18.911406 Si / 1000 Ang^3
#
#
#
# Elastic Constant Matrix: (Units=GPa)
#
#
# Indices 1 2 3 4 5 6 
#
# 1 86.7678 10.2340 22.7924 0.0000 0.0000 0.0000
# 2 10.2340 79.3779 15.8609 0.0000 0.0000 0.0000
# 3 22.7924 15.8609 38.1290 0.0000 0.0000 0.0000
# 4 0.0000 0.0000 0.0000 17.9379 0.0000 0.0000
# 5 0.0000 0.0000 0.0000 0.0000 20.1379 0.0000
# 6 0.0000 0.0000 0.0000 0.0000 0.0000 16.6467
#
#
#
# Elastic Compliance Matrix: (Units=1/GPa)
#
#
# Indices 1 2 3 4 5 6 
#
# 1 0.013673 -0.000141 -0.008115 0.000000 0.000000 0.000000
# 2 -0.000141 0.013741 -0.005632 0.000000 0.000000 0.000000
# 3 -0.008115 -0.005632 0.033420 0.000000 0.000000 0.000000
# 4 0.000000 0.000000 0.000000 0.055748 0.000000 0.000000
# 5 0.000000 0.000000 0.000000 0.000000 0.049658 0.000000
# 6 0.000000 0.000000 0.000000 0.000000 0.000000 0.060072
#
#
# Mechanical properties :
#
#
# Convention : Reuss Voigt Hill
#
# Bulk Modulus (GPa) = 30.24855 33.56102 31.90479
# Shear Modulus (GPa) = 18.86025 21.30364 20.08194
#
# Velocity S-wave (km/s) = 3.16142 3.35997 3.26221
# Velocity P-wave (km/s) = 5.41809 5.73040 5.57644
#
# Compressibility (1/GPa) = 0.03305944
#
# Stress axis : x y z
#
# Youngs Moduli (GPa) = 73.13541 72.77233 29.92213
#
# Poissons Ratio (x) = 0.01029 0.24281
# Poissons Ratio (y) = 0.01034 0.16851
# Poissons Ratio (z) = 0.59347 0.40983
#
# Static dielectric constant tensor:
#      x y z
#    x 1.684040 0.000000 0.000000 
#    y 0.000000 1.648970 0.000000 
#    z 0.000000 0.000000 1.679170 
# 
# From -- ./inp_files/52035.got.cif
#   From: 2010.05.17/outbox.cif.g08.bks.cpg/sg71_27_cif.got.tgz:52035.got - 2010.06.03 16:22:01.
