data_PCOD9518578
_publ_section_title
;
Structure prediction by ZEFSAII (Michael W. Deem and Ramdas Pophale) SiO2 
 PCOD9518578
Probable space group: I M M M
;
_chemical_formula_sum "Si O2"
_cell_formula_units_Z 100
_cell_length_a 9.672945
_cell_length_b 28.168416
_cell_length_c 20.289909
_cell_angle_alpha 90.000000
_cell_angle_beta 90.000000
_cell_angle_gamma 90.000000
_cell_volume 5528.422725
_symmetry_space_group_name_H-M "I M M M"
_symmetry_group_IT_number 71
_symmetry_cell_setting 'orthorhombic'
loop_
_space_group_symop_operation_xyz
x,y,z
-x,-y,z
x,-y,-z
-x,y,-z
-x,-y,-z
x,y,-z
-x,y,z
x,-y,z
1/2+x,1/2+y,1/2+z
1/2-x,1/2-y,1/2+z
1/2+x,1/2-y,1/2-z
1/2-x,1/2+y,1/2-z
1/2-x,1/2-y,1/2-z
1/2+x,1/2+y,1/2-z
1/2-x,1/2+y,1/2+z
1/2+x,1/2-y,1/2+z
loop_
_atom_site_type_symbol
_atom_site_label
_atom_site_fract_x
_atom_site_fract_y
_atom_site_fract_z
Si Si1 0.000000 0.055669 0.079540
Si Si2 0.729757 0.884610 0.888865
Si Si3 0.000000 0.594347 0.500000
Si Si4 0.657052 0.872146 0.737368
Si Si5 0.658373 0.441986 0.000000
Si Si6 0.335458 0.219355 0.924461
Si Si7 0.335234 0.283249 0.799507
Si Si8 0.657830 0.944211 0.378776
O O1 0.133581 0.084074 0.104455
O O2 0.000000 0.000000 0.099184
O O3 0.000000 0.057141 0.000000
O O4 0.620029 0.903567 0.941994
O O5 0.678966 0.884984 0.813512
O O6 0.746503 0.828509 0.906235
O O7 0.500000 0.852589 0.730694
O O8 0.768864 0.834416 0.712231
O O9 0.669376 0.917077 0.689704
O O10 0.738064 0.426235 0.065471
O O11 0.662592 0.500000 0.000000
O O12 0.500000 0.426904 0.000000
O O13 0.500000 0.206121 0.920805
O O14 0.313081 0.260989 0.872162
O O15 0.307385 0.232726 0.000000
O O16 0.500000 0.282761 0.786686
O O17 0.250000 0.250000 0.750000
O O18 0.500000 0.938531 0.403109
O O19 0.682305 0.000000 0.368880
#
# Coordination Sequence:
#
# PCOD9518578 Si02
#       8
#     8  16   4  16   8  16  16  16
#     4  11  26  44  58  87 134 164 196 261 325 367
#     4  12  21  39  67  90 118 160 210 257 307 363
#     4  12  20  38  71  96 108 154 224 256 291 370
#     4  11  23  39  61  90 127 159 200 259 310 369
#     4   9  17  33  59  88 115 147 196 253 299 356
#     4  10  18  36  63  88 114 152 209 260 295 355
#     4  11  23  37  60  88 122 161 198 245 310 371
#     4   9  19  37  61  86 115 158 204 249 305 366
#
# _framework density 18.088341
#
# number of rings (size 3 to 8) (size 9 to 14) (size 15 to 20)
#    0.000    1.440    4.800    0.720    1.120    2.240 
#    2.880    0.800    0.000    0.000    0.000    0.000 
#    0.000    0.000    0.000    0.000    0.000    0.000 
#
# Total GULP energy -278478.932316 kJ/mol
# GULP energy per Si atom -5569.578646 kJ/mol
# Density = 1.804717 g / cm^3
# Si number density = 18.088341 Si / 1000 Ang^3
#
#
#
# Elastic Constant Matrix: (Units=GPa)
#
#
# Indices 1 2 3 4 5 6 
#
# 1 131.7520 64.0498 73.6115 0.0000 0.0000 0.0000
# 2 64.0498 61.9195 50.2453 0.0000 0.0000 0.0000
# 3 73.6115 50.2453 162.5552 0.0000 0.0000 0.0000
# 4 0.0000 0.0000 0.0000 19.1144 0.0000 0.0000
# 5 0.0000 0.0000 0.0000 0.0000 18.2482 0.0000
# 6 0.0000 0.0000 0.0000 0.0000 0.0000 25.3974
#
#
#
# Elastic Compliance Matrix: (Units=1/GPa)
#
#
# Indices 1 2 3 4 5 6 
#
# 1 0.016219 -0.014439 -0.002882 0.000000 0.000000 0.000000
# 2 -0.014439 0.034411 -0.004098 0.000000 0.000000 0.000000
# 3 -0.002882 -0.004098 0.008723 0.000000 0.000000 0.000000
# 4 0.000000 0.000000 0.000000 0.052317 0.000000 0.000000
# 5 0.000000 0.000000 0.000000 0.000000 0.054800 0.000000
# 6 0.000000 0.000000 0.000000 0.000000 0.000000 0.039374
#
#
# Mechanical properties :
#
#
# Convention : Reuss Voigt Hill
#
# Bulk Modulus (GPa) = 60.54490 81.33777 70.94133
# Shear Modulus (GPa) = 19.67055 23.77334 21.72194
#
# Velocity S-wave (km/s) = 3.30126 3.62925 3.46913
# Velocity P-wave (km/s) = 6.93365 7.91369 7.43983
#
# Compressibility (1/GPa) = 0.01651667
#
# Stress axis : x y z
#
# Youngs Moduli (GPa) = 61.65419 29.06046 114.63506
#
# Poissons Ratio (x) = 0.41961 0.33035
# Poissons Ratio (y) = 0.89023 0.46975
# Poissons Ratio (z) = 0.17767 0.11908
#
# Static dielectric constant tensor:
#      x y z
#    x 1.620760 0.000000 0.000000 
#    y 0.000000 1.643440 0.000000 
#    z 0.000000 0.000000 1.599590 
# 
# From -- ./inp_files/50987.got.cif
#   From: 2010.05.17/outbox.cif.g08.bks.cpg/sg71_26_cif.got.tgz:50987.got - 2010.06.03 16:22:01.
