data_PCOD9518971
_publ_section_title
;
Structure prediction by ZEFSAII (Michael W. Deem and Ramdas Pophale) SiO2 
 PCOD9518971
Probable space group: I M M M
;
_chemical_formula_sum "Si O2"
_cell_formula_units_Z 88
_cell_length_a 20.239977
_cell_length_b 7.842747
_cell_length_c 28.490091
_cell_angle_alpha 90.000000
_cell_angle_beta 90.000000
_cell_angle_gamma 90.000000
_cell_volume 4522.432113
_symmetry_space_group_name_H-M "I M M M"
_symmetry_group_IT_number 71
_symmetry_cell_setting 'orthorhombic'
loop_
_space_group_symop_operation_xyz
x,y,z
-x,-y,z
x,-y,-z
-x,y,-z
-x,-y,-z
x,y,-z
-x,y,z
x,-y,z
1/2+x,1/2+y,1/2+z
1/2-x,1/2-y,1/2+z
1/2+x,1/2-y,1/2-z
1/2-x,1/2+y,1/2-z
1/2-x,1/2-y,1/2-z
1/2+x,1/2+y,1/2-z
1/2-x,1/2+y,1/2+z
1/2+x,1/2-y,1/2+z
loop_
_atom_site_type_symbol
_atom_site_label
_atom_site_fract_x
_atom_site_fract_y
_atom_site_fract_z
Si Si1 0.925326 0.790637 0.372758
Si Si2 0.199203 0.202505 0.812861
Si Si3 0.844035 0.799748 0.712871
Si Si4 0.425018 0.702988 0.500000
Si Si5 0.684838 0.291596 0.053323
Si Si6 0.829717 0.703111 0.914590
O O1 0.898874 0.729781 0.322210
O O2 0.872417 0.735493 0.411569
O O3 0.000000 0.737308 0.382216
O O4 0.924383 0.000000 0.372536
O O5 0.164168 0.270265 0.765500
O O6 0.272736 0.281380 0.812499
O O7 0.161440 0.235019 0.861267
O O8 0.208482 0.000000 0.807458
O O9 0.858216 0.000000 0.718160
O O10 0.429014 0.500000 0.500000
O O11 0.500000 0.772581 0.500000
O O12 0.384156 0.752668 0.546564
O O13 0.686046 0.500000 0.054329
O O14 0.757640 0.232279 0.068731
O O15 0.672053 0.239500 0.000000
O O16 0.826014 0.500000 0.912645
#
# Coordination Sequence:
#
# PCOD9518971 Si02
#       6
#    16  16  16   8  16  16
#     4   9  16  27  46  72 105 143 181 224 272 319
#     4  10  19  30  50  79 107 138 182 235 284 325
#     4   9  17  31  49  73 106 142 185 232 279 332
#     4  11  25  43  61  85 116 143 174 222 276 332
#     4   9  16  27  46  75 105 134 173 219 264 309
#     4  11  20  35  59  83 110 143 180 224 271 329
#
# _framework density 19.458556000000002
#
# number of rings (size 3 to 8) (size 9 to 14) (size 15 to 20)
#    0.000    2.273    2.727    1.364    0.000    1.818 
#    0.000    2.727    0.000    3.818    0.000    0.000 
#    0.000    2.182    0.000    0.000    0.000    0.000 
#
# Total GULP energy -245459.023086 kJ/mol
# GULP energy per Si atom -5578.614161 kJ/mol
# Density = 1.941427 g / cm^3
# Si number density = 19.458556 Si / 1000 Ang^3
#
#
#
# Elastic Constant Matrix: (Units=GPa)
#
#
# Indices 1 2 3 4 5 6 
#
# 1 134.0842 -3.3741 75.0292 0.0000 0.0000 0.0000
# 2 -3.3741 20.2096 -4.4702 0.0000 0.0000 0.0000
# 3 75.0292 -4.4702 152.4472 0.0000 0.0000 0.0000
# 4 0.0000 0.0000 0.0000 18.0362 0.0000 0.0000
# 5 0.0000 0.0000 0.0000 0.0000 29.2529 0.0000
# 6 0.0000 0.0000 0.0000 0.0000 0.0000 12.5325
#
#
#
# Elastic Compliance Matrix: (Units=1/GPa)
#
#
# Indices 1 2 3 4 5 6 
#
# 1 0.010300 0.000602 -0.005052 0.000000 0.000000 0.000000
# 2 0.000602 0.049840 0.001165 0.000000 0.000000 0.000000
# 3 -0.005052 0.001165 0.009080 0.000000 0.000000 0.000000
# 4 0.000000 0.000000 0.000000 0.055444 0.000000 0.000000
# 5 0.000000 0.000000 0.000000 0.000000 0.034185 0.000000
# 6 0.000000 0.000000 0.000000 0.000000 0.000000 0.079793
#
#
# Mechanical properties :
#
#
# Convention : Reuss Voigt Hill
#
# Bulk Modulus (GPa) = 15.96145 49.01231 32.48688
# Shear Modulus (GPa) = 18.79041 27.93471 23.36256
#
# Velocity S-wave (km/s) = 3.11088 3.79304 3.46877
# Velocity P-wave (km/s) = 4.59609 6.66526 5.72493
#
# Compressibility (1/GPa) = 0.06265094
#
# Stress axis : x y z
#
# Youngs Moduli (GPa) = 97.08879 20.06435 110.13201
#
# Poissons Ratio (x) = -0.01208 0.55634
# Poissons Ratio (y) = -0.05847 -0.12831
# Poissons Ratio (z) = 0.49045 -0.02338
#
# Static dielectric constant tensor:
#      x y z
#    x 1.660440 0.000000 0.000000 
#    y 0.000000 1.717400 0.000000 
#    z 0.000000 0.000000 1.735960 
# 
# From -- ./inp_files/70648.got.cif
#   From: 2010.05.17/outbox.cif.g08.bks.cpg/sg71_36_cif.got.tgz:70648.got - 2010.06.03 16:22:01.
