data_PCOD9518063
_publ_section_title
;
Structure prediction by ZEFSAII (Michael W. Deem and Ramdas Pophale) SiO2 
 PCOD9518063
Probable space group: I M M M
;
_chemical_formula_sum "Si O2"
_cell_formula_units_Z 56
_cell_length_a 8.069841
_cell_length_b 33.257280
_cell_length_c 13.138961
_cell_angle_alpha 90.000000
_cell_angle_beta 90.000000
_cell_angle_gamma 90.000000
_cell_volume 3526.246989
_symmetry_space_group_name_H-M "I M M M"
_symmetry_group_IT_number 71
_symmetry_cell_setting 'orthorhombic'
loop_
_space_group_symop_operation_xyz
x,y,z
-x,-y,z
x,-y,-z
-x,y,-z
-x,-y,-z
x,y,-z
-x,y,z
x,-y,z
1/2+x,1/2+y,1/2+z
1/2-x,1/2-y,1/2+z
1/2+x,1/2-y,1/2-z
1/2-x,1/2+y,1/2-z
1/2-x,1/2-y,1/2-z
1/2+x,1/2+y,1/2-z
1/2-x,1/2+y,1/2+z
1/2+x,1/2-y,1/2+z
loop_
_atom_site_type_symbol
_atom_site_label
_atom_site_fract_x
_atom_site_fract_y
_atom_site_fract_z
Si Si1 0.000000 0.218663 0.119991
Si Si2 0.681778 0.340111 0.754318
Si Si3 0.695985 0.912230 0.118555
Si Si4 0.500000 0.185478 0.620239
Si Si5 0.306758 0.500000 0.622854
O O1 0.845044 0.196970 0.175384
O O2 0.000000 0.266258 0.134864
O O3 0.000000 0.210071 0.000000
O O4 0.500000 0.343110 0.806018
O O5 0.712982 0.379823 0.687735
O O6 0.835462 0.332095 0.827195
O O7 0.500000 0.904079 0.121227
O O8 0.727137 0.957885 0.155227
O O9 0.751062 0.909308 0.000000
O O10 0.500000 0.177352 0.500000
O O11 0.500000 0.500000 0.649436
O O12 0.291713 0.500000 0.500000
#
# Coordination Sequence:
#
# PCOD9518063 Si02
#       5
#     8  16  16   8   8
#     4   9  20  36  57  80 110 139 171 218 273 330
#     4  10  21  34  56  77 106 137 182 215 265 316
#     4  10  18  30  49  76 111 145 176 210 262 325
#     4  11  22  40  55  74 105 141 184 234 272 304
#     4   9  17  27  43  71 109 146 175 207 253 321
#
# _framework density 15.880907000000001
#
# number of rings (size 3 to 8) (size 9 to 14) (size 15 to 20)
#    0.857    1.286    1.429    3.000    0.000    3.429 
#    0.000    0.000    0.000    0.000    0.000    2.000 
#    0.000    3.429    0.000    0.000    0.000    0.000 
#
# Total GULP energy -155916.387486 kJ/mol
# GULP energy per Si atom -5568.442410 kJ/mol
# Density = 1.584476 g / cm^3
# Si number density = 15.880907 Si / 1000 Ang^3
#
#
#
# Elastic Constant Matrix: (Units=GPa)
#
#
# Indices 1 2 3 4 5 6 
#
# 1 108.3167 50.8806 52.6609 0.0000 0.0000 0.0000
# 2 50.8806 88.9887 50.2239 -0.0002 -0.0001 0.0002
# 3 52.6609 50.2239 73.4972 -0.0005 -0.0002 0.0001
# 4 0.0000 -0.0002 -0.0005 19.7784 -0.0001 0.0000
# 5 0.0000 -0.0001 -0.0002 -0.0001 13.9134 0.0000
# 6 0.0000 0.0002 0.0001 0.0000 0.0000 20.8784
#
#
#
# Elastic Compliance Matrix: (Units=1/GPa)
#
#
# Indices 1 2 3 4 5 6 
#
# 1 0.015032 -0.004096 -0.007971 0.000000 0.000000 0.000000
# 2 -0.004096 0.019408 -0.010328 0.000000 0.000000 0.000000
# 3 -0.007971 -0.010328 0.026375 0.000001 0.000000 0.000000
# 4 0.000000 0.000000 0.000001 0.050560 0.000000 0.000000
# 5 0.000000 0.000000 0.000000 0.000000 0.071873 0.000000
# 6 0.000000 0.000000 0.000000 0.000000 0.000000 0.047896
#
#
# Mechanical properties :
#
#
# Convention : Reuss Voigt Hill
#
# Bulk Modulus (GPa) = 62.40328 64.25924 63.33126
# Shear Modulus (GPa) = 17.77618 18.71654 18.24636
#
# Velocity S-wave (km/s) = 3.34929 3.43673 3.39329
# Velocity P-wave (km/s) = 7.37135 7.50328 7.43761
#
# Compressibility (1/GPa) = 0.01602480
#
# Stress axis : x y z
#
# Youngs Moduli (GPa) = 66.52674 51.52525 37.91465
#
# Poissons Ratio (x) = 0.21102 0.30224
# Poissons Ratio (y) = 0.27246 0.39158
# Poissons Ratio (z) = 0.53032 0.53215
#
# Static dielectric constant tensor:
#      x y z
#    x 1.546620 0.000000 0.000000 
#    y 0.000000 1.529710 0.000000 
#    z 0.000000 0.000000 1.496390 
# 
# From -- ./inp_files/18425.got.cif
#   From: 2010.05.17/outbox.cif.g08.bks.cpg/sg71_10_cif.got.tgz:18425.got - 2010.06.03 16:22:01.
