data_PCOD9518712
_publ_section_title
;
Structure prediction by ZEFSAII (Michael W. Deem and Ramdas Pophale) SiO2 
 PCOD9518712
Probable space group: I M M M
;
_chemical_formula_sum "Si O2"
_cell_formula_units_Z 120
_cell_length_a 12.814495
_cell_length_b 31.492832
_cell_length_c 19.646501
_cell_angle_alpha 90.000000
_cell_angle_beta 90.000000
_cell_angle_gamma 90.000000
_cell_volume 7928.635033
_symmetry_space_group_name_H-M "I M M M"
_symmetry_group_IT_number 71
_symmetry_cell_setting 'orthorhombic'
loop_
_space_group_symop_operation_xyz
x,y,z
-x,-y,z
x,-y,-z
-x,y,-z
-x,-y,-z
x,y,-z
-x,y,z
x,-y,z
1/2+x,1/2+y,1/2+z
1/2-x,1/2-y,1/2+z
1/2+x,1/2-y,1/2-z
1/2-x,1/2+y,1/2-z
1/2-x,1/2-y,1/2-z
1/2+x,1/2+y,1/2-z
1/2-x,1/2+y,1/2+z
1/2+x,1/2-y,1/2+z
loop_
_atom_site_type_symbol
_atom_site_label
_atom_site_fract_x
_atom_site_fract_y
_atom_site_fract_z
Si Si1 0.374546 0.608329 0.197662
Si Si2 0.877880 0.287874 0.309824
Si Si3 0.735080 0.672156 0.419037
Si Si4 0.271503 0.301273 0.181026
Si Si5 0.126861 0.950880 0.575258
Si Si6 0.126273 0.909977 0.854558
Si Si7 0.126517 0.000000 0.921361
Si Si8 0.882125 0.259699 0.080912
O O1 0.500000 0.610176 0.194572
O O2 0.328970 0.654282 0.181706
O O3 0.337026 0.576270 0.139188
O O4 0.348745 0.593814 0.274359
O O5 0.835659 0.314002 0.375042
O O6 0.803425 0.300156 0.246949
O O7 0.853187 0.237724 0.318150
O O8 0.000000 0.294852 0.297991
O O9 0.754583 0.670402 0.500000
O O10 0.684033 0.628459 0.393146
O O11 0.655259 0.711382 0.405558
O O12 0.196729 0.291256 0.117645
O O13 0.159142 0.935300 0.500000
O O14 0.000000 0.950197 0.576015
O O15 0.157969 0.000000 0.581751
O O16 0.000000 0.905289 0.862745
O O17 0.156704 0.956169 0.884069
O O18 0.000000 0.000000 0.921654
O O19 0.161468 0.000000 0.000000
O O20 0.000000 0.265250 0.106004
O O21 0.879771 0.265644 0.000000
#
# Coordination Sequence:
#
# PCOD9518712 Si02
#       8
#    16  16  16  16  16  16   8  16
#     4  10  19  29  45  69  97 126 158 192 227 273
#     4  10  20  33  48  66  92 125 161 200 236 273
#     4  10  19  32  49  69  93 124 162 197 232 280
#     4  10  19  32  47  68  93 126 158 192 233 279
#     4   8  15  28  45  65  92 127 159 183 215 266
#     4  10  19  30  46  70 100 129 156 191 235 285
#     4   9  18  30  44  66  96 128 156 187 238 292
#     4   9  18  31  48  70  94 123 158 194 230 270
#
# _framework density 15.135013000000001
#
# number of rings (size 3 to 8) (size 9 to 14) (size 15 to 20)
#    0.000    2.467    1.333    2.000    0.933    2.133 
#    0.000    0.000    0.000    2.400    0.000    0.467 
#    0.000    3.200    0.000    7.333    0.000    0.533 
#
# Total GULP energy -334281.941060 kJ/mol
# GULP energy per Si atom -5571.365684 kJ/mol
# Density = 1.510057 g / cm^3
# Si number density = 15.135013 Si / 1000 Ang^3
#
#
#
# Elastic Constant Matrix: (Units=GPa)
#
#
# Indices 1 2 3 4 5 6 
#
# 1 28.6752 15.9476 23.0408 0.0000 0.0000 0.0000
# 2 15.9476 105.8622 67.0923 0.0000 0.0000 0.0000
# 3 23.0408 67.0923 95.6579 0.0001 0.0000 0.0000
# 4 0.0000 0.0000 0.0001 26.6365 0.0000 0.0000
# 5 0.0000 0.0000 0.0000 0.0000 15.8889 0.0000
# 6 0.0000 0.0000 0.0000 0.0000 0.0000 21.4273
#
#
#
# Elastic Compliance Matrix: (Units=1/GPa)
#
#
# Indices 1 2 3 4 5 6 
#
# 1 0.043244 0.000156 -0.010526 0.000000 0.000000 0.000000
# 2 0.000156 0.017006 -0.011965 0.000000 0.000000 0.000000
# 3 -0.010526 -0.011965 0.021381 0.000000 0.000000 0.000000
# 4 0.000000 0.000000 0.000000 0.037542 0.000000 0.000000
# 5 0.000000 0.000000 0.000000 0.000000 0.062937 0.000000
# 6 0.000000 0.000000 0.000000 0.000000 0.000000 0.046670
#
#
# Mechanical properties :
#
#
# Convention : Reuss Voigt Hill
#
# Bulk Modulus (GPa) = 27.05478 49.15077 38.10277
# Shear Modulus (GPa) = 17.49659 21.06484 19.28072
#
# Velocity S-wave (km/s) = 3.40374 3.73472 3.57307
# Velocity P-wave (km/s) = 5.77596 7.15143 6.50018
#
# Compressibility (1/GPa) = 0.03696205
#
# Stress axis : x y z
#
# Youngs Moduli (GPa) = 23.12467 58.80318 46.76972
#
# Poissons Ratio (x) = -0.00920 0.49228
# Poissons Ratio (y) = -0.00362 0.55961
# Poissons Ratio (z) = 0.24340 0.70359
#
# Static dielectric constant tensor:
#      x y z
#    x 1.475280 0.000000 0.000000 
#    y 0.000000 1.483990 0.000000 
#    z 0.000000 0.000000 1.525990 
# 
# From -- ./inp_files/52393.got.cif
#   From: 2010.05.17/outbox.cif.g08.bks.cpg/sg71_27_cif.got.tgz:52393.got - 2010.06.03 16:22:01.
