data_PCOD9518743
_publ_section_title
;
Structure prediction by ZEFSAII (Michael W. Deem and Ramdas Pophale) SiO2 
 PCOD9518743
Probable space group: I M M M
;
_chemical_formula_sum "Si O2"
_cell_formula_units_Z 42
_cell_length_a 29.947527
_cell_length_b 7.553329
_cell_length_c 10.083271
_cell_angle_alpha 90.000000
_cell_angle_beta 90.000000
_cell_angle_gamma 90.000000
_cell_volume 2280.871435
_symmetry_space_group_name_H-M "I M M M"
_symmetry_group_IT_number 71
_symmetry_cell_setting 'orthorhombic'
loop_
_space_group_symop_operation_xyz
x,y,z
-x,-y,z
x,-y,-z
-x,y,-z
-x,-y,-z
x,y,-z
-x,y,z
x,-y,z
1/2+x,1/2+y,1/2+z
1/2-x,1/2-y,1/2+z
1/2+x,1/2-y,1/2-z
1/2-x,1/2+y,1/2-z
1/2-x,1/2-y,1/2-z
1/2+x,1/2+y,1/2-z
1/2-x,1/2+y,1/2+z
1/2+x,1/2-y,1/2+z
loop_
_atom_site_type_symbol
_atom_site_label
_atom_site_fract_x
_atom_site_fract_y
_atom_site_fract_z
Si Si1 0.347827 0.784696 0.209736
Si Si2 0.923187 0.198744 0.500000
Si Si3 0.274241 0.786167 0.000000
Si Si4 0.000000 0.500000 0.500000
Si Si5 0.670839 0.205757 0.500000
O O1 0.390427 0.723697 0.126418
O O2 0.345983 0.719030 0.360412
O O3 0.348165 0.000000 0.209465
O O4 0.303480 0.731718 0.127818
O O5 0.960921 0.345710 0.500000
O O6 0.941080 0.000000 0.500000
O O7 0.224516 0.714478 0.000000
O O8 0.271316 0.000000 0.000000
O O9 0.657261 0.000000 0.500000
#
# Coordination Sequence:
#
# PCOD9518743 Si02
#       5
#    16   8   8   2   8
#     4   9  18  35  51  76 116 153 188 238 285 328
#     4  11  22  38  65  90 108 145 180 228 294 347
#     4   9  17  28  45  70 114 159 199 242 273 309
#     4  12  22  44  68  88 120 128 186 246 288 346
#     4  10  19  29  51  77 111 160 198 227 280 331
#
# _framework density 18.414014000000002
#
# number of rings (size 3 to 8) (size 9 to 14) (size 15 to 20)
#    0.000    2.286    1.905    2.571    0.000    4.571 
#    0.000    0.000    0.000    2.286    0.000    2.667 
#    0.000    0.000    0.000    0.000    0.000    0.000 
#
# Total GULP energy -116966.599731 kJ/mol
# GULP energy per Si atom -5569.838082 kJ/mol
# Density = 1.837210 g / cm^3
# Si number density = 18.414014 Si / 1000 Ang^3
#
#
#
# Elastic Constant Matrix: (Units=GPa)
#
#
# Indices 1 2 3 4 5 6 
#
# 1 114.0826 30.0146 59.5375 0.0000 0.0000 0.0000
# 2 30.0146 90.0429 31.8126 0.0000 0.0000 0.0000
# 3 59.5375 31.8126 177.8856 0.0000 0.0000 0.0000
# 4 0.0000 0.0000 0.0000 1.1628 0.0000 0.0000
# 5 0.0000 0.0000 0.0000 0.0000 -0.5362 0.0000
# 6 0.0000 0.0000 0.0000 0.0000 0.0000 26.7295
#
#
#
# Elastic Compliance Matrix: (Units=1/GPa)
#
#
# Indices 1 2 3 4 5 6 
#
# 1 0.011147 -0.002559 -0.003273 0.000000 0.000000 0.000000
# 2 -0.002559 0.012442 -0.001369 0.000000 0.000000 0.000000
# 3 -0.003273 -0.001369 0.006962 0.000000 0.000000 0.000000
# 4 0.000000 0.000000 0.000000 0.859964 0.000000 0.000000
# 5 0.000000 0.000000 0.000000 0.000000 -1.865047 0.000000
# 6 0.000000 0.000000 0.000000 0.000000 0.000000 0.037412
#
#
# Mechanical properties :
#
#
# Convention : Reuss Voigt Hill
#
# Bulk Modulus (GPa) = 61.92228 69.41560 65.66894
# Shear Modulus (GPa) = -5.45058 22.84766 8.69854
#
# Velocity S-wave (km/s) = -1.72234 3.52629 2.17580
# Velocity P-wave (km/s) = 5.45395 7.37283 6.48476
#
# Compressibility (1/GPa) = 0.01614927
#
# Stress axis : x y z
#
# Youngs Moduli (GPa) = 89.70911 80.37003 143.63955
#
# Poissons Ratio (x) = 0.20569 0.47016
# Poissons Ratio (y) = 0.22959 0.19658
# Poissons Ratio (z) = 0.29364 0.10999
#
# Static dielectric constant tensor:
#      x y z
#    x 1.568590 0.000000 0.000000 
#    y 0.000000 1.667960 0.000000 
#    z 0.000000 0.000000 1.665080 
# 
# From -- ./inp_files/2004.got.cif
#   From: 2010.05.17/outbox.cif.g08.bks.cpg/sg71_2_cif.got.tgz:2004.got - 2010.06.03 16:22:01.
