data_PCOD9518275
_publ_section_title
;
Structure prediction by ZEFSAII (Michael W. Deem and Ramdas Pophale) SiO2 
 PCOD9518275
Probable space group: I M M M
;
_chemical_formula_sum "Si O2"
_cell_formula_units_Z 104
_cell_length_a 28.666775
_cell_length_b 23.596707
_cell_length_c 8.962050
_cell_angle_alpha 90.000000
_cell_angle_beta 90.000000
_cell_angle_gamma 90.000000
_cell_volume 6062.302458
_symmetry_space_group_name_H-M "I M M M"
_symmetry_group_IT_number 71
_symmetry_cell_setting 'orthorhombic'
loop_
_space_group_symop_operation_xyz
x,y,z
-x,-y,z
x,-y,-z
-x,y,-z
-x,-y,-z
x,y,-z
-x,y,z
x,-y,z
1/2+x,1/2+y,1/2+z
1/2-x,1/2-y,1/2+z
1/2+x,1/2-y,1/2-z
1/2-x,1/2+y,1/2-z
1/2-x,1/2-y,1/2-z
1/2+x,1/2+y,1/2-z
1/2-x,1/2+y,1/2+z
1/2+x,1/2-y,1/2+z
loop_
_atom_site_type_symbol
_atom_site_label
_atom_site_fract_x
_atom_site_fract_y
_atom_site_fract_z
Si Si1 0.000000 0.568909 0.328911
Si Si2 0.905177 0.434488 0.177188
Si Si3 0.300814 0.261214 0.823657
Si Si4 0.855240 0.133146 0.819223
Si Si5 0.766412 0.936785 0.819273
Si Si6 0.053582 0.065659 0.818423
Si Si7 0.322922 0.866830 0.823914
O O1 0.953134 0.587279 0.247797
O O2 0.000000 0.500000 0.323167
O O3 0.000000 0.586482 0.500000
O O4 0.898354 0.500000 0.224989
O O5 0.862407 0.398173 0.233270
O O6 0.909051 0.433606 0.000000
O O7 0.250000 0.250000 0.750000
O O8 0.332507 0.310070 0.749786
O O9 0.325370 0.200306 0.807409
O O10 0.294521 0.273108 0.000000
O O11 0.817681 0.084458 0.779172
O O12 0.906251 0.110121 0.771436
O O13 0.855639 0.139538 0.000000
O O14 0.727267 0.891525 0.774396
O O15 0.756031 0.000000 0.763974
O O16 0.765429 0.938433 0.000000
O O17 0.000000 0.078879 0.772860
O O18 0.063773 0.000000 0.774099
O O19 0.054245 0.065931 0.000000
O O20 0.328067 0.880196 0.000000
#
# Coordination Sequence:
#
# PCOD9518275 Si02
#       7
#     8  16  16  16  16  16  16
#     4   9  17  31  53  77 101 135 173 203 240 299
#     4  10  20  33  51  78 109 135 163 208 266 314
#     4  11  22  37  55  75 100 135 180 221 259 307
#     4  10  18  31  52  78 106 139 177 216 264 317
#     4   9  16  27  46  73 102 131 166 208 251 306
#     4   8  14  26  49  83 116 142 175 223 272 318
#     4  10  20  34  51  71  97 134 179 216 252 309
#
# _framework density 17.155199
#
# number of rings (size 3 to 8) (size 9 to 14) (size 15 to 20)
#    0.000    2.385    1.538    2.538    0.000    5.538 
#    0.000    0.000    1.692    2.308    0.000    1.077 
#    0.000    0.000    0.000    0.000    0.000    0.000 
#
# Total GULP energy -289739.344451 kJ/mol
# GULP energy per Si atom -5571.910470 kJ/mol
# Density = 1.711615 g / cm^3
# Si number density = 17.155199 Si / 1000 Ang^3
#
#
#
# Elastic Constant Matrix: (Units=GPa)
#
#
# Indices 1 2 3 4 5 6 
#
# 1 138.4894 53.1666 37.8279 0.0000 0.0000 0.0000
# 2 53.1666 86.1341 30.4498 0.0000 0.0000 0.0000
# 3 37.8279 30.4498 32.5237 0.0000 0.0000 0.0000
# 4 0.0000 0.0000 0.0000 24.6918 0.0000 0.0000
# 5 0.0000 0.0000 0.0000 0.0000 -1.1677 0.0000
# 6 0.0000 0.0000 0.0000 0.0000 0.0000 26.0356
#
#
#
# Elastic Compliance Matrix: (Units=1/GPa)
#
#
# Indices 1 2 3 4 5 6 
#
# 1 0.011233 -0.003460 -0.009825 0.000000 0.000000 0.000000
# 2 -0.003460 0.018419 -0.013220 0.000000 0.000000 0.000000
# 3 -0.009825 -0.013220 0.054552 0.000000 0.000000 0.000000
# 4 0.000000 0.000000 0.000000 0.040499 0.000000 0.000000
# 5 0.000000 0.000000 0.000000 0.000000 -0.856393 0.000000
# 6 0.000000 0.000000 0.000000 0.000000 0.000000 0.038409
#
#
# Mechanical properties :
#
#
# Convention : Reuss Voigt Hill
#
# Bulk Modulus (GPa) = 32.05908 55.55951 43.80930
# Shear Modulus (GPa) = -7.93811 18.95881 5.51035
#
# Velocity S-wave (km/s) = -2.15343 3.32796 1.79417
# Velocity P-wave (km/s) = 3.54192 6.87196 5.46667
#
# Compressibility (1/GPa) = 0.03119241
#
# Stress axis : x y z
#
# Youngs Moduli (GPa) = 89.02450 54.29144 18.33128
#
# Poissons Ratio (x) = 0.18786 0.18011
# Poissons Ratio (y) = 0.30804 0.24234
# Poissons Ratio (z) = 0.87469 0.71774
#
# Static dielectric constant tensor:
#      x y z
#    x 1.586360 0.000000 0.000000 
#    y 0.000000 1.587130 0.000000 
#    z 0.000000 0.000000 1.581290 
# 
# From -- ./inp_files/15316.got.cif
#   From: 2010.05.17/outbox.cif.g08.bks.cpg/sg71_8_cif.got.tgz:15316.got - 2010.06.03 16:22:01.
