data_PCOD9518471
_publ_section_title
;
Structure prediction by ZEFSAII (Michael W. Deem and Ramdas Pophale) SiO2 
 PCOD9518471
Probable space group: I M M M
;
_chemical_formula_sum "Si O2"
_cell_formula_units_Z 88
_cell_length_a 14.913639
_cell_length_b 13.492166
_cell_length_c 23.427825
_cell_angle_alpha 90.000000
_cell_angle_beta 90.000000
_cell_angle_gamma 90.000000
_cell_volume 4714.083529
_symmetry_space_group_name_H-M "I M M M"
_symmetry_group_IT_number 71
_symmetry_cell_setting 'orthorhombic'
loop_
_space_group_symop_operation_xyz
x,y,z
-x,-y,z
x,-y,-z
-x,y,-z
-x,-y,-z
x,y,-z
-x,y,z
x,-y,z
1/2+x,1/2+y,1/2+z
1/2-x,1/2-y,1/2+z
1/2+x,1/2-y,1/2-z
1/2-x,1/2+y,1/2-z
1/2-x,1/2-y,1/2-z
1/2+x,1/2+y,1/2-z
1/2-x,1/2+y,1/2+z
1/2+x,1/2-y,1/2+z
loop_
_atom_site_type_symbol
_atom_site_label
_atom_site_fract_x
_atom_site_fract_y
_atom_site_fract_z
Si Si1 0.897943 0.617845 0.869236
Si Si2 0.777057 0.189952 0.568134
Si Si3 0.597116 0.609623 0.298320
Si Si4 0.214661 0.386709 0.636570
Si Si5 0.604001 0.500000 0.069717
Si Si6 0.349188 0.796270 0.246852
O O1 0.894575 0.500000 0.876711
O O2 0.822144 0.665275 0.908670
O O3 0.873922 0.644472 0.803835
O O4 0.000000 0.651243 0.880728
O O5 0.777833 0.191967 0.500000
O O6 0.802318 0.297360 0.593098
O O7 0.842302 0.099600 0.587463
O O8 0.500000 0.613462 0.328134
O O9 0.607765 0.500000 0.272829
O O10 0.681851 0.622565 0.340399
O O11 0.596162 0.694668 0.250936
O O12 0.202746 0.500000 0.616815
O O13 0.151639 0.363829 0.691279
O O14 0.500000 0.500000 0.088011
O O15 0.604391 0.500000 0.000000
O O16 0.250000 0.750000 0.250000
#
# Coordination Sequence:
#
# PCOD9518471 Si02
#       6
#    16  16  16  16   8  16
#     4  11  22  36  58  90 130 167 199 245 312 380
#     4  11  22  38  63  90 120 163 208 252 307 365
#     4   9  17  30  51  80 113 151 195 239 292 351
#     4  10  21  37  57  82 118 162 200 251 300 354
#     4   9  20  42  67  87 111 147 200 262 312 355
#     4  10  18  33  55  77 108 160 203 245 296 354
#
# _framework density 18.667466999999998
#
# number of rings (size 3 to 8) (size 9 to 14) (size 15 to 20)
#    0.000    1.909    4.545    1.091    0.000    1.455 
#    1.636    2.727    0.000    2.727    0.000    6.364 
#    0.000    0.000    0.000    0.000    0.000    0.000 
#
# Total GULP energy -245086.605285 kJ/mol
# GULP energy per Si atom -5570.150120 kJ/mol
# Density = 1.862498 g / cm^3
# Si number density = 18.667467 Si / 1000 Ang^3
#
#
#
# Elastic Constant Matrix: (Units=GPa)
#
#
# Indices 1 2 3 4 5 6 
#
# 1 82.6488 44.9920 30.8913 0.0000 0.0000 0.0000
# 2 44.9920 162.7715 47.5226 0.0000 0.0000 0.0000
# 3 30.8913 47.5226 63.0353 0.0000 0.0000 0.0000
# 4 0.0000 0.0000 0.0000 25.8676 0.0000 0.0000
# 5 0.0000 0.0000 0.0000 0.0000 16.1077 0.0000
# 6 0.0000 0.0000 0.0000 0.0000 0.0000 -0.7992
#
#
#
# Elastic Compliance Matrix: (Units=1/GPa)
#
#
# Indices 1 2 3 4 5 6 
#
# 1 0.015674 -0.002680 -0.005661 0.000000 0.000000 0.000000
# 2 -0.002680 0.008336 -0.004971 0.000000 0.000000 0.000000
# 3 -0.005661 -0.004971 0.022386 0.000000 0.000000 0.000000
# 4 0.000000 0.000000 0.000000 0.038658 0.000000 0.000000
# 5 0.000000 0.000000 0.000000 0.000000 0.062082 0.000000
# 6 0.000000 0.000000 0.000000 0.000000 0.000000 -1.251196
#
#
# Mechanical properties :
#
#
# Convention : Reuss Voigt Hill
#
# Bulk Modulus (GPa) = 50.57607 61.69638 56.13623
# Shear Modulus (GPa) = -4.66921 20.57186 7.95133
#
# Velocity S-wave (km/s) = -1.58325 3.32327 2.06608
# Velocity P-wave (km/s) = 4.87952 6.91718 5.98570
#
# Compressibility (1/GPa) = 0.01977220
#
# Stress axis : x y z
#
# Youngs Moduli (GPa) = 63.79963 119.96701 44.67061
#
# Poissons Ratio (x) = 0.32148 0.25288
# Poissons Ratio (y) = 0.17096 0.22206
# Poissons Ratio (z) = 0.36117 0.59636
#
# Static dielectric constant tensor:
#      x y z
#    x 1.662590 0.000000 0.000000 
#    y 0.000000 1.689970 0.000000 
#    z 0.000000 0.000000 1.627080 
# 
# From -- ./inp_files/59781.got.cif
#   From: 2010.05.17/outbox.cif.g08.bks.cpg/sg71_30_cif.got.tgz:59781.got - 2010.06.03 16:22:01.
