data_PCOD9518475
_publ_section_title
;
Structure prediction by ZEFSAII (Michael W. Deem and Ramdas Pophale) SiO2 
 PCOD9518475
Probable space group: I M M M
;
_chemical_formula_sum "Si O2"
_cell_formula_units_Z 96
_cell_length_a 14.985302
_cell_length_b 20.923685
_cell_length_c 15.742943
_cell_angle_alpha 90.000000
_cell_angle_beta 90.000000
_cell_angle_gamma 90.000000
_cell_volume 4936.164178
_symmetry_space_group_name_H-M "I M M M"
_symmetry_group_IT_number 71
_symmetry_cell_setting 'orthorhombic'
loop_
_space_group_symop_operation_xyz
x,y,z
-x,-y,z
x,-y,-z
-x,y,-z
-x,-y,-z
x,y,-z
-x,y,z
x,-y,z
1/2+x,1/2+y,1/2+z
1/2-x,1/2-y,1/2+z
1/2+x,1/2-y,1/2-z
1/2-x,1/2+y,1/2-z
1/2-x,1/2-y,1/2-z
1/2+x,1/2+y,1/2-z
1/2-x,1/2+y,1/2+z
1/2+x,1/2-y,1/2+z
loop_
_atom_site_type_symbol
_atom_site_label
_atom_site_fract_x
_atom_site_fract_y
_atom_site_fract_z
Si Si1 0.606646 0.074447 0.500000
Si Si2 0.099867 0.378669 0.596555
Si Si3 0.131788 0.773742 0.407554
Si Si4 0.393152 0.500000 0.600921
Si Si5 0.599789 0.725904 0.285746
Si Si6 0.698507 0.846165 0.647156
Si Si7 0.780797 0.108695 0.189133
O O1 0.500000 0.077563 0.500000
O O2 0.644201 0.111217 0.418040
O O3 0.633640 0.000000 0.500000
O O4 0.100494 0.403064 0.500000
O O5 0.116406 0.302303 0.591797
O O6 0.185734 0.403840 0.645114
O O7 0.000000 0.389896 0.632293
O O8 0.097898 0.796959 0.500000
O O9 0.095062 0.791441 0.314425
O O10 0.232569 0.799553 0.401008
O O11 0.500000 0.500000 0.606741
O O12 0.369745 0.500000 0.500000
O O13 0.350935 0.559836 0.650256
O O14 0.500000 0.719527 0.321829
O O15 0.635839 0.797965 0.298539
O O16 0.673335 0.678182 0.324823
O O17 0.755695 0.890060 0.711386
#
# Coordination Sequence:
#
# PCOD9518475 Si02
#       7
#     8  16  16   8  16  16  16
#     4  11  26  44  62  88 124 169 221 276 333 388
#     4  10  19  32  55  88 127 162 197 251 310 371
#     4  10  18  33  55  86 124 162 200 247 316 379
#     4  11  26  48  69  94 131 174 219 258 308 379
#     4  11  21  36  61  96 131 163 207 263 325 383
#     4  11  21  39  62  91 123 163 213 267 323 381
#     4  11  22  40  65  92 124 175 214 261 312 379
#
# _framework density 19.4483
#
# number of rings (size 3 to 8) (size 9 to 14) (size 15 to 20)
#    0.000    1.333    4.167    3.000    1.167    1.667 
#    1.500    0.417    0.000    1.500    0.000    0.583 
#    0.000    0.000    0.000    0.000    0.000    0.000 
#
# Total GULP energy -267427.674616 kJ/mol
# GULP energy per Si atom -5571.409888 kJ/mol
# Density = 1.940403 g / cm^3
# Si number density = 19.448300 Si / 1000 Ang^3
#
#
#
# Elastic Constant Matrix: (Units=GPa)
#
#
# Indices 1 2 3 4 5 6 
#
# 1 127.1895 31.5505 54.0863 0.0000 0.0000 0.0000
# 2 31.5505 74.1251 44.5604 0.0001 0.0000 0.0000
# 3 54.0863 44.5604 105.1701 0.0001 0.0001 0.0000
# 4 0.0000 0.0001 0.0001 15.2957 0.0001 0.0000
# 5 0.0000 0.0000 0.0001 0.0001 23.1027 0.0000
# 6 0.0000 0.0000 0.0000 0.0000 0.0000 18.4275
#
#
#
# Elastic Compliance Matrix: (Units=1/GPa)
#
#
# Indices 1 2 3 4 5 6 
#
# 1 0.010201 -0.001594 -0.004571 0.000000 0.000000 0.000000
# 2 -0.001594 0.018350 -0.006955 0.000000 0.000000 0.000000
# 3 -0.004571 -0.006955 0.014806 0.000000 0.000000 0.000000
# 4 0.000000 0.000000 0.000000 0.065378 0.000000 0.000000
# 5 0.000000 0.000000 0.000000 0.000000 0.043285 0.000000
# 6 0.000000 0.000000 0.000000 0.000000 0.000000 0.054267
#
#
# Mechanical properties :
#
#
# Convention : Reuss Voigt Hill
#
# Bulk Modulus (GPa) = 58.42069 62.98654 60.70362
# Shear Modulus (GPa) = 20.98781 23.11769 22.05275
#
# Velocity S-wave (km/s) = 3.28862 3.45146 3.37102
# Velocity P-wave (km/s) = 6.67265 6.95272 6.81412
#
# Compressibility (1/GPa) = 0.01711722
#
# Stress axis : x y z
#
# Youngs Moduli (GPa) = 98.02489 54.49476 67.54056
#
# Poissons Ratio (x) = 0.08689 0.30872
# Poissons Ratio (y) = 0.15629 0.46975
# Poissons Ratio (z) = 0.44805 0.37901
#
# Static dielectric constant tensor:
#      x y z
#    x 1.701680 0.000000 0.000000 
#    y 0.000000 1.674430 0.000000 
#    z 0.000000 0.000000 1.714500 
# 
# From -- ./inp_files/34553.got.cif
#   From: 2010.05.17/outbox.cif.g08.bks.cpg/sg71_18_cif.got.tgz:34553.got - 2010.06.03 16:22:01.
