data_PCOD9518900
_publ_section_title
;
Structure prediction by ZEFSAII (Michael W. Deem and Ramdas Pophale) SiO2 
 PCOD9518900
Probable space group: I M M M
;
_chemical_formula_sum "Si O2"
_cell_formula_units_Z 80
_cell_length_a 9.396988
_cell_length_b 17.898184
_cell_length_c 22.600461
_cell_angle_alpha 90.000000
_cell_angle_beta 90.000000
_cell_angle_gamma 90.000000
_cell_volume 3801.149393
_symmetry_space_group_name_H-M "I M M M"
_symmetry_group_IT_number 71
_symmetry_cell_setting 'orthorhombic'
loop_
_space_group_symop_operation_xyz
x,y,z
-x,-y,z
x,-y,-z
-x,y,-z
-x,-y,-z
x,y,-z
-x,y,z
x,-y,z
1/2+x,1/2+y,1/2+z
1/2-x,1/2-y,1/2+z
1/2+x,1/2-y,1/2-z
1/2-x,1/2+y,1/2-z
1/2-x,1/2-y,1/2-z
1/2+x,1/2+y,1/2-z
1/2-x,1/2+y,1/2+z
1/2+x,1/2-y,1/2+z
loop_
_atom_site_type_symbol
_atom_site_label
_atom_site_fract_x
_atom_site_fract_y
_atom_site_fract_z
Si Si1 0.161924 0.885295 0.934895
Si Si2 0.340976 0.586842 0.766714
Si Si3 0.164426 0.915828 0.590623
Si Si4 0.839405 0.721549 0.103657
Si Si5 0.168323 0.663628 0.329191
O O1 0.154119 0.794878 0.937059
O O2 0.267399 0.893234 0.879429
O O3 0.000000 0.911042 0.922258
O O4 0.205338 0.912487 0.000000
O O5 0.500000 0.614059 0.750156
O O6 0.329944 0.500000 0.748559
O O7 0.330178 0.586513 0.837587
O O8 0.223756 0.634101 0.733084
O O9 0.266904 0.848931 0.573083
O O10 0.000000 0.903052 0.573382
O O11 0.204055 0.000000 0.572306
O O12 0.739880 0.756263 0.155487
O O13 0.000000 0.704152 0.123481
O O14 0.000000 0.668494 0.333363
#
# Coordination Sequence:
#
# PCOD9518900 Si02
#       5
#    16  16  16  16  16
#     4   8  16  32  51  70  93 121 154 192 236 284
#     4   9  18  33  50  67  93 130 164 191 228 280
#     4   9  18  32  49  69  95 127 160 195 235 277
#     4   9  18  31  48  71  94 123 160 194 233 279
#     4  10  19  30  47  73  98 122 155 196 238 276
#
# _framework density 21.046264999999998
#
# number of rings (size 3 to 8) (size 9 to 14) (size 15 to 20)
#    1.200    1.800    0.000    3.000    0.000    2.800 
#    0.000    2.000    0.000    1.200    0.000    8.400 
#    0.000    0.000    0.000    0.000    0.000    0.000 
#
# Total GULP energy -222732.685932 kJ/mol
# GULP energy per Si atom -5568.317148 kJ/mol
# Density = 2.099836 g / cm^3
# Si number density = 21.046265 Si / 1000 Ang^3
#
#
#
# Elastic Constant Matrix: (Units=GPa)
#
#
# Indices 1 2 3 4 5 6 
#
# 1 119.3060 36.4819 35.0391 0.0000 0.0000 0.0000
# 2 36.4819 86.6134 7.4095 0.0000 0.0000 0.0000
# 3 35.0391 7.4095 70.8395 0.0000 0.0000 0.0000
# 4 0.0000 0.0000 0.0000 -39.0180 0.0000 0.0000
# 5 0.0000 0.0000 0.0000 0.0000 3.9272 0.0000
# 6 0.0000 0.0000 0.0000 0.0000 0.0000 19.5440
#
#
#
# Elastic Compliance Matrix: (Units=1/GPa)
#
#
# Indices 1 2 3 4 5 6 
#
# 1 0.011182 -0.004275 -0.005084 0.000000 0.000000 0.000000
# 2 -0.004275 0.013284 0.000725 0.000000 0.000000 0.000000
# 3 -0.005084 0.000725 0.016555 0.000000 0.000000 0.000000
# 4 0.000000 0.000000 0.000000 -0.025629 0.000000 0.000000
# 5 0.000000 0.000000 0.000000 0.000000 0.254637 0.000000
# 6 0.000000 0.000000 0.000000 0.000000 0.000000 0.051167
#
#
# Mechanical properties :
#
#
# Convention : Reuss Voigt Hill
#
# Bulk Modulus (GPa) = 42.09833 48.29111 45.19472
# Shear Modulus (GPa) = 14.43496 10.07920 12.25708
#
# Velocity S-wave (km/s) = 2.62175 2.19077 2.41589
# Velocity P-wave (km/s) = 5.40471 5.42165 5.41319
#
# Compressibility (1/GPa) = 0.02375391
#
# Stress axis : x y z
#
# Youngs Moduli (GPa) = 89.42844 75.27736 60.40411
#
# Poissons Ratio (x) = 0.32181 0.30708
# Poissons Ratio (y) = 0.38231 -0.04380
# Poissons Ratio (z) = 0.45464 -0.05458
#
# Static dielectric constant tensor:
#      x y z
#    x 1.732230 0.000000 0.000000 
#    y 0.000000 1.792060 0.000000 
#    z 0.000000 0.000000 1.797150 
# 
# From -- ./inp_files/42367.got.cif
#   From: 2010.05.17/outbox.cif.g08.bks.cpg/sg71_22_cif.got.tgz:42367.got - 2010.06.03 16:22:01.
