data_PCOD9518968
_publ_section_title
;
Structure prediction by ZEFSAII (Michael W. Deem and Ramdas Pophale) SiO2 
 PCOD9518968
Probable space group: I M M M
;
_chemical_formula_sum "Si O2"
_cell_formula_units_Z 80
_cell_length_a 7.299585
_cell_length_b 27.193346
_cell_length_c 20.393974
_cell_angle_alpha 90.000000
_cell_angle_beta 90.000000
_cell_angle_gamma 90.000000
_cell_volume 4048.206706
_symmetry_space_group_name_H-M "I M M M"
_symmetry_group_IT_number 71
_symmetry_cell_setting 'orthorhombic'
loop_
_space_group_symop_operation_xyz
x,y,z
-x,-y,z
x,-y,-z
-x,y,-z
-x,-y,-z
x,y,-z
-x,y,z
x,-y,z
1/2+x,1/2+y,1/2+z
1/2-x,1/2-y,1/2+z
1/2+x,1/2-y,1/2-z
1/2-x,1/2+y,1/2-z
1/2-x,1/2-y,1/2-z
1/2+x,1/2+y,1/2-z
1/2-x,1/2+y,1/2+z
1/2+x,1/2-y,1/2+z
loop_
_atom_site_type_symbol
_atom_site_label
_atom_site_fract_x
_atom_site_fract_y
_atom_site_fract_z
Si Si1 0.212284 0.736029 0.927659
Si Si2 0.221863 0.057358 0.071516
Si Si3 0.000000 0.556694 0.185259
Si Si4 0.000000 0.357572 0.921158
Si Si5 0.781925 0.208649 0.196523
Si Si6 0.721506 0.598625 0.712956
O O1 0.175302 0.678771 0.908073
O O2 0.293999 0.769678 0.871466
O O3 0.000000 0.752972 0.934101
O O4 0.293960 0.738484 0.000000
O O5 0.275726 0.082910 0.138998
O O6 0.000000 0.059172 0.070813
O O7 0.274296 0.000000 0.074790
O O8 0.282451 0.077000 0.000000
O O9 0.174008 0.567567 0.232273
O O10 0.000000 0.500000 0.163893
O O11 0.000000 0.595299 0.124984
O O12 0.000000 0.367145 0.000000
O O13 0.750000 0.250000 0.250000
O O14 0.718702 0.155388 0.219037
O O15 0.000000 0.203111 0.188529
O O16 0.500000 0.593817 0.719111
#
# Coordination Sequence:
#
# PCOD9518968 Si02
#       6
#    16  16   8   8  16  16
#     4   7  13  27  49  75 101 135 171 211 268 324
#     4   8  14  28  50  72  99 139 182 224 269 315
#     4  12  24  37  59  82 110 153 191 237 294 338
#     4   8  16  33  56  83 113 140 181 237 282 346
#     4  10  19  30  50  77 105 140 172 212 266 322
#     4  10  22  36  53  82 114 146 189 236 279 329
#
# _framework density 19.761837
#
# number of rings (size 3 to 8) (size 9 to 14) (size 15 to 20)
#    0.600    2.400    0.000    2.400    1.400    2.200 
#    0.000    4.500    0.000    3.000    0.000    7.000 
#    0.000    0.000    0.000    0.000    0.000    0.000 
#
# Total GULP energy -222719.841440 kJ/mol
# GULP energy per Si atom -5567.996036 kJ/mol
# Density = 1.971686 g / cm^3
# Si number density = 19.761837 Si / 1000 Ang^3
#
#
#
# Elastic Constant Matrix: (Units=GPa)
#
#
# Indices 1 2 3 4 5 6 
#
# 1 83.6699 6.1222 5.9018 0.0000 0.0000 0.0000
# 2 6.1222 51.6324 5.7708 0.0000 0.0000 0.0000
# 3 5.9018 5.7708 51.2822 0.0000 0.0000 0.0000
# 4 0.0000 0.0000 0.0000 36.1730 0.0000 0.0000
# 5 0.0000 0.0000 0.0000 0.0000 -15.4971 0.0000
# 6 0.0000 0.0000 0.0000 0.0000 0.0000 14.4728
#
#
#
# Elastic Compliance Matrix: (Units=1/GPa)
#
#
# Indices 1 2 3 4 5 6 
#
# 1 0.012135 -0.001299 -0.001250 0.000000 0.000000 0.000000
# 2 -0.001299 0.019753 -0.002073 0.000000 0.000000 0.000000
# 3 -0.001250 -0.002073 0.019877 0.000000 0.000000 0.000000
# 4 0.000000 0.000000 0.000000 0.027645 0.000000 0.000000
# 5 0.000000 0.000000 0.000000 0.000000 -0.064528 0.000000
# 6 0.000000 0.000000 0.000000 0.000000 0.000000 0.069095
#
#
# Mechanical properties :
#
#
# Convention : Reuss Voigt Hill
#
# Bulk Modulus (GPa) = 23.51838 24.68601 24.10220
# Shear Modulus (GPa) = 46.55659 18.28239 32.41949
#
# Velocity S-wave (km/s) = 4.85901 3.04491 4.05472
# Velocity P-wave (km/s) = 6.58838 4.98807 5.84327
#
# Compressibility (1/GPa) = 0.04251993
#
# Stress axis : x y z
#
# Youngs Moduli (GPa) = 82.40635 50.62401 50.30906
#
# Poissons Ratio (x) = 0.06577 0.06290
# Poissons Ratio (y) = 0.10706 0.10431
# Poissons Ratio (z) = 0.10304 0.10496
#
# Static dielectric constant tensor:
#      x y z
#    x 1.769550 0.000000 0.000000 
#    y 0.000000 1.672080 0.000000 
#    z 0.000000 0.000000 1.699990 
# 
# From -- ./inp_files/50753.got.cif
#   From: 2010.05.17/outbox.cif.g08.bks.cpg/sg71_26_cif.got.tgz:50753.got - 2010.06.03 16:22:01.
