data_PCOD9518767
_publ_section_title
;
Structure prediction by ZEFSAII (Michael W. Deem and Ramdas Pophale) SiO2 
 PCOD9518767
Probable space group: I M M M
;
_chemical_formula_sum "Si O2"
_cell_formula_units_Z 80
_cell_length_a 26.289883
_cell_length_b 8.344352
_cell_length_c 20.248122
_cell_angle_alpha 90.000000
_cell_angle_beta 90.000000
_cell_angle_gamma 90.000000
_cell_volume 4441.871785
_symmetry_space_group_name_H-M "I M M M"
_symmetry_group_IT_number 71
_symmetry_cell_setting 'orthorhombic'
loop_
_space_group_symop_operation_xyz
x,y,z
-x,-y,z
x,-y,-z
-x,y,-z
-x,-y,-z
x,y,-z
-x,y,z
x,-y,z
1/2+x,1/2+y,1/2+z
1/2-x,1/2-y,1/2+z
1/2+x,1/2-y,1/2-z
1/2-x,1/2+y,1/2-z
1/2-x,1/2-y,1/2-z
1/2+x,1/2+y,1/2-z
1/2-x,1/2+y,1/2+z
1/2+x,1/2-y,1/2+z
loop_
_atom_site_type_symbol
_atom_site_label
_atom_site_fract_x
_atom_site_fract_y
_atom_site_fract_z
Si Si1 0.168556 0.193869 0.746100
Si Si2 0.133025 0.687508 0.000000
Si Si3 0.556049 0.313896 0.241269
Si Si4 0.242456 0.308889 0.853722
Si Si5 0.556060 0.183987 0.382684
Si Si6 0.240189 0.180870 0.000000
O O1 0.112247 0.254085 0.725399
O O2 0.191033 0.245869 0.817580
O O3 0.210770 0.245961 0.692696
O O4 0.166454 0.000000 0.746614
O O5 0.098596 0.711169 0.063788
O O6 0.151002 0.500000 0.000000
O O7 0.179295 0.806724 0.000000
O O8 0.500000 0.244937 0.221561
O O9 0.555600 0.500000 0.220815
O O10 0.557470 0.300042 0.320695
O O11 0.239395 0.500000 0.851261
O O12 0.252732 0.259549 0.929226
O O13 0.500000 0.195188 0.413740
O O14 0.561327 0.000000 0.357665
O O15 0.258935 0.000000 0.000000
#
# Coordination Sequence:
#
# PCOD9518767 Si02
#       6
#    16   8  16  16  16   8
#     4   9  18  33  52  74  99 127 159 195 236 282
#     4  10  19  30  44  60  82 117 157 194 231 271
#     4   9  17  29  45  66  92 119 147 183 228 276
#     4  10  20  34  52  72  96 127 162 199 238 282
#     4   9  17  28  41  59  85 118 155 191 224 261
#     4  12  24  35  47  67  95 123 156 199 243 286
#
# _framework density 18.010424
#
# number of rings (size 3 to 8) (size 9 to 14) (size 15 to 20)
#    0.000    2.400    0.000    3.000    0.000    6.800 
#    0.000    0.000    0.000    3.000    0.000    0.700 
#    0.000    5.600    0.000    0.000    0.000    0.000 
#
# Total GULP energy -222705.928070 kJ/mol
# GULP energy per Si atom -5567.648202 kJ/mol
# Density = 1.796943 g / cm^3
# Si number density = 18.010424 Si / 1000 Ang^3
#
#
#
# Elastic Constant Matrix: (Units=GPa)
#
#
# Indices 1 2 3 4 5 6 
#
# 1 118.7331 8.4166 24.5680 0.0000 0.0000 0.0000
# 2 8.4166 12.8181 6.1703 0.0000 0.0000 0.0000
# 3 24.5680 6.1703 70.0968 0.0000 0.0000 0.0000
# 4 0.0000 0.0000 0.0000 19.1851 0.0000 0.0000
# 5 0.0000 0.0000 0.0000 0.0000 18.8986 0.0000
# 6 0.0000 0.0000 0.0000 0.0000 0.0000 17.8486
#
#
#
# Elastic Compliance Matrix: (Units=1/GPa)
#
#
# Indices 1 2 3 4 5 6 
#
# 1 0.009351 -0.004764 -0.002858 0.000000 0.000000 0.000000
# 2 -0.004764 0.083894 -0.005715 0.000000 0.000000 0.000000
# 3 -0.002858 -0.005715 0.015771 0.000000 0.000000 0.000000
# 4 0.000000 0.000000 0.000000 0.052124 0.000000 0.000000
# 5 0.000000 0.000000 0.000000 0.000000 0.052914 0.000000
# 6 0.000000 0.000000 0.000000 0.000000 0.000000 0.056027
#
#
# Mechanical properties :
#
#
# Convention : Reuss Voigt Hill
#
# Bulk Modulus (GPa) = 12.14461 31.10644 21.62552
# Shear Modulus (GPa) = 15.42245 22.01933 18.72089
#
# Velocity S-wave (km/s) = 2.92945 3.50035 3.22754
# Velocity P-wave (km/s) = 4.26614 5.80047 5.09143
#
# Compressibility (1/GPa) = 0.08234106
#
# Stress axis : x y z
#
# Youngs Moduli (GPa) = 106.93592 11.91982 63.40837
#
# Poissons Ratio (x) = 0.05679 0.18123
# Poissons Ratio (y) = 0.50949 0.36237
# Poissons Ratio (z) = 0.30564 0.06812
#
# Static dielectric constant tensor:
#      x y z
#    x 1.695650 0.000000 0.000000 
#    y 0.000000 1.655730 0.000000 
#    z 0.000000 0.000000 1.603250 
# 
# From -- ./inp_files/14572.got.cif
#   From: 2010.05.17/outbox.cif.g08.bks.cpg/sg71_8_cif.got.tgz:14572.got - 2010.06.03 16:22:01.
