data_PCOD9518341
_publ_section_title
;
Structure prediction by ZEFSAII (Michael W. Deem and Ramdas Pophale) SiO2 
 PCOD9518341
Probable space group: I M M M
;
_chemical_formula_sum "Si O2"
_cell_formula_units_Z 104
_cell_length_a 16.419381
_cell_length_b 18.078451
_cell_length_c 19.396913
_cell_angle_alpha 90.000000
_cell_angle_beta 90.000000
_cell_angle_gamma 90.000000
_cell_volume 5757.720977
_symmetry_space_group_name_H-M "I M M M"
_symmetry_group_IT_number 71
_symmetry_cell_setting 'orthorhombic'
loop_
_space_group_symop_operation_xyz
x,y,z
-x,-y,z
x,-y,-z
-x,y,-z
-x,-y,-z
x,y,-z
-x,y,z
x,-y,z
1/2+x,1/2+y,1/2+z
1/2-x,1/2-y,1/2+z
1/2+x,1/2-y,1/2-z
1/2-x,1/2+y,1/2-z
1/2-x,1/2-y,1/2-z
1/2+x,1/2+y,1/2-z
1/2-x,1/2+y,1/2+z
1/2+x,1/2-y,1/2+z
loop_
_atom_site_type_symbol
_atom_site_label
_atom_site_fract_x
_atom_site_fract_y
_atom_site_fract_z
Si Si1 0.835603 0.767469 0.078556
Si Si2 0.755576 0.916383 0.126359
Si Si3 0.902768 0.916659 0.500000
Si Si4 0.335225 0.691346 0.888375
Si Si5 0.410260 0.839770 0.147555
Si Si6 0.259155 0.418123 0.791943
Si Si7 0.092757 0.654948 0.812891
O O1 0.814700 0.852846 0.096804
O O2 0.748028 0.726310 0.082460
O O3 0.888025 0.724627 0.136978
O O4 0.867301 0.761410 0.000000
O O5 0.662006 0.889838 0.117326
O O6 0.762504 0.917509 0.209422
O O7 0.769219 0.000000 0.100694
O O8 0.869710 0.872481 0.564699
O O9 0.000000 0.916654 0.500000
O O10 0.872604 0.000000 0.500000
O O11 0.397624 0.758135 0.882099
O O12 0.311662 0.651027 0.817579
O O13 0.500000 0.869599 0.133431
O O14 0.402271 0.829396 0.230600
O O15 0.285780 0.500000 0.815165
O O16 0.167466 0.402785 0.820328
O O17 0.000000 0.629142 0.826511
#
# Coordination Sequence:
#
# PCOD9518341 Si02
#       7
#    16  16   8  16  16  16  16
#     4  10  19  32  50  70  93 130 168 200 239 284
#     4   9  18  31  49  74  99 123 160 205 246 294
#     4  11  22  32  44  66  94 124 156 193 234 280
#     4  10  18  32  48  68  92 127 164 200 227 283
#     4   9  17  30  50  73  98 128 158 198 251 294
#     4   9  17  30  50  73  98 128 158 198 251 294
#     4   9  18  31  49  74  99 123 160 205 246 294
#
# _framework density 18.062702999999999
#
# number of rings (size 3 to 8) (size 9 to 14) (size 15 to 20)
#    0.000    2.538    0.769    1.846    0.000    4.923 
#    0.000    3.077    0.000    0.462    0.000    9.692 
#    0.000    0.000    0.000    0.000    0.000    0.000 
#
# Total GULP energy -289529.608868 kJ/mol
# GULP energy per Si atom -5567.877094 kJ/mol
# Density = 1.802159 g / cm^3
# Si number density = 18.062703 Si / 1000 Ang^3
#
#
#
# Elastic Constant Matrix: (Units=GPa)
#
#
# Indices 1 2 3 4 5 6 
#
# 1 18.8233 -15.7045 -8.5595 0.0000 0.0000 0.0000
# 2 -15.7045 84.1291 3.0824 0.0000 0.0000 0.0000
# 3 -8.5595 3.0824 14.7331 0.0000 0.0000 0.0000
# 4 0.0000 0.0000 0.0000 17.3393 0.0000 0.0000
# 5 0.0000 0.0000 0.0000 0.0000 14.5881 0.0000
# 6 0.0000 0.0000 0.0000 0.0000 0.0000 14.7302
#
#
#
# Elastic Compliance Matrix: (Units=1/GPa)
#
#
# Indices 1 2 3 4 5 6 
#
# 1 0.086718 0.014453 0.047357 0.000000 0.000000 0.000000
# 2 0.014453 0.014387 0.005387 0.000000 0.000000 0.000000
# 3 0.047357 0.005387 0.094261 0.000000 0.000000 0.000000
# 4 0.000000 0.000000 0.000000 0.057672 0.000000 0.000000
# 5 0.000000 0.000000 0.000000 0.000000 0.068549 0.000000
# 6 0.000000 0.000000 0.000000 0.000000 0.000000 0.067888
#
#
# Mechanical properties :
#
#
# Convention : Reuss Voigt Hill
#
# Bulk Modulus (GPa) = 3.03253 8.36915 5.70084
# Shear Modulus (GPa) = 13.69856 18.58932 16.14394
#
# Velocity S-wave (km/s) = 2.75687 3.21153 2.99285
# Velocity P-wave (km/s) = 3.43749 4.28897 3.88662
#
# Compressibility (1/GPa) = 0.32975810
#
# Stress axis : x y z
#
# Youngs Moduli (GPa) = 11.53162 69.50698 10.60889
#
# Poissons Ratio (x) = -1.00456 -0.50240
# Poissons Ratio (y) = -0.16666 -0.05715
# Poissons Ratio (z) = -0.54610 -0.37440
#
# Static dielectric constant tensor:
#      x y z
#    x 1.618640 0.000000 0.000000 
#    y 0.000000 1.607260 0.000000 
#    z 0.000000 0.000000 1.534360 
# 
# From -- ./inp_files/36924.got.cif
#   From: 2010.05.17/outbox.cif.g08.bks.cpg/sg71_19_cif.got.tgz:36924.got - 2010.06.03 16:22:01.
