data_PCOD9518940
_publ_section_title
;
Structure prediction by ZEFSAII (Michael W. Deem and Ramdas Pophale) SiO2 
 PCOD9518940
Probable space group: I M M M
;
_chemical_formula_sum "Si O2"
_cell_formula_units_Z 104
_cell_length_a 27.949832
_cell_length_b 9.951001
_cell_length_c 23.281949
_cell_angle_alpha 90.000000
_cell_angle_beta 90.000000
_cell_angle_gamma 90.000000
_cell_volume 6475.380681
_symmetry_space_group_name_H-M "I M M M"
_symmetry_group_IT_number 71
_symmetry_cell_setting 'orthorhombic'
loop_
_space_group_symop_operation_xyz
x,y,z
-x,-y,z
x,-y,-z
-x,y,-z
-x,-y,-z
x,y,-z
-x,y,z
x,-y,z
1/2+x,1/2+y,1/2+z
1/2-x,1/2-y,1/2+z
1/2+x,1/2-y,1/2-z
1/2-x,1/2+y,1/2-z
1/2-x,1/2-y,1/2-z
1/2+x,1/2+y,1/2-z
1/2-x,1/2+y,1/2+z
1/2+x,1/2-y,1/2+z
loop_
_atom_site_type_symbol
_atom_site_label
_atom_site_fract_x
_atom_site_fract_y
_atom_site_fract_z
Si Si1 0.201040 0.844427 0.689302
Si Si2 0.447795 0.500000 0.931799
Si Si3 0.554528 0.157276 0.781901
Si Si4 0.274787 0.334300 0.500000
Si Si5 0.650171 0.160165 0.278584
Si Si6 0.612674 0.743957 0.112368
Si Si7 0.165558 0.344603 0.500000
Si Si8 0.794052 0.341437 0.890334
O O1 0.189207 0.742706 0.741239
O O2 0.155143 0.823049 0.648685
O O3 0.246962 0.816295 0.649344
O O4 0.204485 0.000000 0.708665
O O5 0.500000 0.500000 0.905649
O O6 0.420363 0.629450 0.912205
O O7 0.450417 0.500000 0.000000
O O8 0.500000 0.214010 0.779869
O O9 0.596783 0.208205 0.739342
O O10 0.579513 0.171681 0.844334
O O11 0.550061 0.000000 0.769069
O O12 0.279106 0.500000 0.500000
O O13 0.218933 0.285409 0.500000
O O14 0.295663 0.262698 0.557108
O O15 0.662437 0.174976 0.345433
O O16 0.654412 0.000000 0.264612
O O17 0.636544 0.813281 0.057606
O O18 0.175040 0.500000 0.500000
O O19 0.792034 0.500000 0.908513
#
# Coordination Sequence:
#
# PCOD9518940 Si02
#       8
#    16   8  16   8  16  16   8  16
#     4  10  19  30  49  73  99 131 167 204 248 297
#     4  11  22  32  44  62  88 128 176 221 254 286
#     4   9  18  33  52  73  96 125 162 205 252 296
#     4  11  23  35  51  77 103 136 170 207 251 295
#     4   9  19  33  52  74 101 133 165 205 251 298
#     4  11  19  33  48  66  94 128 170 207 253 293
#     4  11  22  34  48  69  96 129 172 215 254 296
#     4  10  20  35  51  74 103 134 168 202 248 303
#
# _framework density 16.060832999999999
#
# number of rings (size 3 to 8) (size 9 to 14) (size 15 to 20)
#    0.000    1.923    3.077    1.615    0.000    1.846 
#    1.385    0.000    0.000    1.846    0.000    0.538 
#    0.000    4.308    0.000    0.000    0.000    0.000 
#
# Total GULP energy -289487.911523 kJ/mol
# GULP energy per Si atom -5567.075222 kJ/mol
# Density = 1.602428 g / cm^3
# Si number density = 16.060833 Si / 1000 Ang^3
#
#
#
# Elastic Constant Matrix: (Units=GPa)
#
#
# Indices 1 2 3 4 5 6 
#
# 1 72.9910 14.7263 43.1671 0.0000 0.0000 0.0000
# 2 14.7263 55.1670 42.6159 0.0000 0.0000 0.0000
# 3 43.1671 42.6159 96.0076 0.0000 0.0000 0.0000
# 4 0.0000 0.0000 0.0000 27.6724 0.0000 0.0000
# 5 0.0000 0.0000 0.0000 0.0000 6.0319 0.0000
# 6 0.0000 0.0000 0.0000 0.0000 0.0000 8.7140
#
#
#
# Elastic Compliance Matrix: (Units=1/GPa)
#
#
# Indices 1 2 3 4 5 6 
#
# 1 0.018854 0.002307 -0.009501 0.000000 0.000000 0.000000
# 2 0.002307 0.027868 -0.013407 0.000000 0.000000 0.000000
# 3 -0.009501 -0.013407 0.020639 0.000000 0.000000 0.000000
# 4 0.000000 0.000000 0.000000 0.036137 0.000000 0.000000
# 5 0.000000 0.000000 0.000000 0.000000 0.165787 0.000000
# 6 0.000000 0.000000 0.000000 0.000000 0.000000 0.114758
#
#
# Mechanical properties :
#
#
# Convention : Reuss Voigt Hill
#
# Bulk Modulus (GPa) = 38.22984 47.24270 42.73627
# Shear Modulus (GPa) = 11.52169 16.72740 14.12455
#
# Velocity S-wave (km/s) = 2.68130 3.23073 2.96875
# Velocity P-wave (km/s) = 5.78279 6.58753 6.19823
#
# Compressibility (1/GPa) = 0.02615758
#
# Stress axis : x y z
#
# Youngs Moduli (GPa) = 53.03959 35.88361 48.45241
#
# Poissons Ratio (x) = -0.08277 0.46034
# Poissons Ratio (y) = -0.12234 0.64961
# Poissons Ratio (z) = 0.50393 0.48109
#
# Static dielectric constant tensor:
#      x y z
#    x 1.585550 0.000000 0.000000 
#    y 0.000000 1.542830 0.000000 
#    z 0.000000 0.000000 1.610620 
# 
# From -- ./inp_files/15360.got.cif
#   From: 2010.05.17/outbox.cif.g08.bks.cpg/sg71_8_cif.got.tgz:15360.got - 2010.06.03 16:22:01.
