data_PCOD9518677
_publ_section_title
;
Structure prediction by ZEFSAII (Michael W. Deem and Ramdas Pophale) SiO2 
 PCOD9518677
Probable space group: I M M M
;
_chemical_formula_sum "Si O2"
_cell_formula_units_Z 80
_cell_length_a 7.375046
_cell_length_b 18.850713
_cell_length_c 28.692224
_cell_angle_alpha 90.000000
_cell_angle_beta 90.000000
_cell_angle_gamma 90.000000
_cell_volume 3988.932870
_symmetry_space_group_name_H-M "I M M M"
_symmetry_group_IT_number 71
_symmetry_cell_setting 'orthorhombic'
loop_
_space_group_symop_operation_xyz
x,y,z
-x,-y,z
x,-y,-z
-x,y,-z
-x,-y,-z
x,y,-z
-x,y,z
x,-y,z
1/2+x,1/2+y,1/2+z
1/2-x,1/2-y,1/2+z
1/2+x,1/2-y,1/2-z
1/2-x,1/2+y,1/2-z
1/2-x,1/2-y,1/2-z
1/2+x,1/2+y,1/2-z
1/2-x,1/2+y,1/2+z
1/2+x,1/2-y,1/2+z
loop_
_atom_site_type_symbol
_atom_site_label
_atom_site_fract_x
_atom_site_fract_y
_atom_site_fract_z
Si Si1 0.278684 0.276979 0.948143
Si Si2 0.779246 0.846430 0.695583
Si Si3 0.717093 0.205747 0.853945
Si Si4 0.784857 0.079927 0.789305
Si Si5 0.279618 0.420799 0.099745
O O1 0.500000 0.276120 0.948271
O O2 0.219080 0.226661 0.905655
O O3 0.223765 0.357106 0.934208
O O4 0.218437 0.258114 0.000000
O O5 0.717943 0.767278 0.681707
O O6 0.712725 0.877677 0.744247
O O7 0.729687 0.896897 0.652130
O O8 0.000000 0.844680 0.697065
O O9 0.500000 0.211767 0.855059
O O10 0.759932 0.128824 0.834351
O O11 0.000000 0.074072 0.781915
O O12 0.712986 0.000000 0.793011
O O13 0.500000 0.421891 0.098560
O O14 0.216599 0.500000 0.088814
#
# Coordination Sequence:
#
# PCOD9518677 Si02
#       5
#    16  16  16  16  16
#     4   8  14  24  38  57  80 107 139 172 206 244
#     4   8  14  25  40  59  84 114 143 165 193 239
#     4   9  17  29  45  63  84 111 140 170 203 241
#     4  10  19  29  43  63  86 111 138 170 207 245
#     4   8  12  18  31  54  85 116 140 163 195 238
#
# _framework density 20.055489000000001
#
# number of rings (size 3 to 8) (size 9 to 14) (size 15 to 20)
#    0.000    3.400    0.000    3.600    0.000    3.200 
#    0.000    2.000    0.000    1.200    0.000    4.200 
#    0.000    7.200    0.000    7.200    0.000    8.000 
#
# Total GULP energy -223117.040213 kJ/mol
# GULP energy per Si atom -5577.926005 kJ/mol
# Density = 2.000984 g / cm^3
# Si number density = 20.055489 Si / 1000 Ang^3
#
#
#
# Elastic Constant Matrix: (Units=GPa)
#
#
# Indices 1 2 3 4 5 6 
#
# 1 69.3602 2.1689 1.2580 0.0000 0.0000 0.0000
# 2 2.1689 128.4484 88.8860 0.0000 0.0000 0.0000
# 3 1.2580 88.8860 144.0503 0.0000 0.0000 0.0000
# 4 0.0000 0.0000 0.0000 6.3599 0.0000 0.0000
# 5 0.0000 0.0000 0.0000 0.0000 -2.0932 0.0000
# 6 0.0000 0.0000 0.0000 0.0000 0.0000 1.4842
#
#
#
# Elastic Compliance Matrix: (Units=1/GPa)
#
#
# Indices 1 2 3 4 5 6 
#
# 1 0.014425 -0.000273 0.000042 0.000000 0.000000 0.000000
# 2 -0.000273 0.013592 -0.008384 0.000000 0.000000 0.000000
# 3 0.000042 -0.008384 0.012115 0.000000 0.000000 0.000000
# 4 0.000000 0.000000 0.000000 0.157235 0.000000 0.000000
# 5 0.000000 0.000000 0.000000 0.000000 -0.477730 0.000000
# 6 0.000000 0.000000 0.000000 0.000000 0.000000 0.673755
#
#
# Mechanical properties :
#
#
# Convention : Reuss Voigt Hill
#
# Bulk Modulus (GPa) = 43.66343 58.49832 51.08087
# Shear Modulus (GPa) = 11.95436 17.78657 14.87047
#
# Velocity S-wave (km/s) = 2.44409 2.98126 2.72594
# Velocity P-wave (km/s) = 5.45741 6.40953 5.95254
#
# Compressibility (1/GPa) = 0.02290246
#
# Stress axis : x y z
#
# Youngs Moduli (GPa) = 69.32286 73.57344 82.54051
#
# Poissons Ratio (x) = 0.02008 -0.00350
# Poissons Ratio (y) = 0.01892 0.69206
# Poissons Ratio (z) = -0.00294 0.61687
#
# Static dielectric constant tensor:
#      x y z
#    x 1.821770 0.000000 0.000000 
#    y 0.000000 1.694950 0.000000 
#    z 0.000000 0.000000 1.695090 
# 
# From -- ./inp_files/8363.got.cif
#   From: 2010.05.17/outbox.cif.g08.bks.cpg/sg71_5_cif.got.tgz:8363.got - 2010.06.03 16:22:01.
