data_PCOD9518298
_publ_section_title
;
Structure prediction by ZEFSAII (Michael W. Deem and Ramdas Pophale) SiO2 
 PCOD9518298
Probable space group: I M M M
;
_chemical_formula_sum "Si O2"
_cell_formula_units_Z 68
_cell_length_a 14.466351
_cell_length_b 19.704893
_cell_length_c 12.879780
_cell_angle_alpha 90.000000
_cell_angle_beta 90.000000
_cell_angle_gamma 90.000000
_cell_volume 3671.483021
_symmetry_space_group_name_H-M "I M M M"
_symmetry_group_IT_number 71
_symmetry_cell_setting 'orthorhombic'
loop_
_space_group_symop_operation_xyz
x,y,z
-x,-y,z
x,-y,-z
-x,y,-z
-x,-y,-z
x,y,-z
-x,y,z
x,-y,z
1/2+x,1/2+y,1/2+z
1/2-x,1/2-y,1/2+z
1/2+x,1/2-y,1/2-z
1/2-x,1/2+y,1/2-z
1/2-x,1/2-y,1/2-z
1/2+x,1/2+y,1/2-z
1/2-x,1/2+y,1/2+z
1/2+x,1/2-y,1/2+z
loop_
_atom_site_type_symbol
_atom_site_label
_atom_site_fract_x
_atom_site_fract_y
_atom_site_fract_z
Si Si1 0.000000 0.644963 0.123504
Si Si2 0.000000 0.500000 0.238044
Si Si3 0.000000 0.928672 0.711945
Si Si4 0.652564 0.396940 0.618900
Si Si5 0.354443 0.749117 0.288817
Si Si6 0.317558 0.000000 0.120533
Si Si7 0.500000 0.287498 0.117975
O O1 0.000000 0.569905 0.172584
O O2 0.908666 0.687802 0.159403
O O3 0.000000 0.640588 0.000000
O O4 0.906918 0.500000 0.307448
O O5 0.914145 0.923545 0.791017
O O6 0.000000 0.868274 0.631033
O O7 0.000000 0.000000 0.657004
O O8 0.625295 0.413872 0.500000
O O9 0.644123 0.315988 0.634690
O O10 0.751508 0.433683 0.635667
O O11 0.250000 0.750000 0.250000
O O12 0.412834 0.736396 0.184314
O O13 0.346313 0.000000 0.000000
O O14 0.500000 0.265003 0.000000
#
# Coordination Sequence:
#
# PCOD9518298 Si02
#       7
#     8   4   8  16  16   8   8
#     4  11  24  42  64  88 115 154 204 249 296 353
#     4  12  24  42  58  78 118 162 204 248 286 338
#     4  10  18  31  53  78 115 150 176 226 281 340
#     4  10  19  32  55  87 116 144 185 235 296 351
#     4  10  21  39  61  85 115 152 191 248 295 345
#     4  10  21  36  57  85 119 156 194 238 290 352
#     4   9  21  36  53  83 116 150 190 228 280 347
#
# _framework density 18.521125999999999
#
# number of rings (size 3 to 8) (size 9 to 14) (size 15 to 20)
#    0.000    1.882    1.176    3.529    0.000    2.588 
#    0.000    7.059    0.000    1.412    0.000    0.000 
#    0.000    0.000    0.000    0.000    0.000    0.000 
#
# Total GULP energy -189460.346781 kJ/mol
# GULP energy per Si atom -5572.363141 kJ/mol
# Density = 1.847897 g / cm^3
# Si number density = 18.521126 Si / 1000 Ang^3
#
#
#
# Elastic Constant Matrix: (Units=GPa)
#
#
# Indices 1 2 3 4 5 6 
#
# 1 138.6723 48.5714 58.0577 0.0000 0.0000 0.0000
# 2 48.5714 136.9320 47.5211 0.0000 0.0000 0.0000
# 3 58.0577 47.5211 122.8685 0.0000 0.0000 0.0000
# 4 0.0000 0.0000 0.0000 10.5009 0.0000 0.0000
# 5 0.0000 0.0000 0.0000 0.0000 14.0734 0.0000
# 6 0.0000 0.0000 0.0000 0.0000 0.0000 271.8315
#
#
#
# Elastic Compliance Matrix: (Units=1/GPa)
#
#
# Indices 1 2 3 4 5 6 
#
# 1 0.009480 -0.002088 -0.003672 0.000000 0.000000 0.000000
# 2 -0.002088 0.008895 -0.002454 0.000000 0.000000 0.000000
# 3 -0.003672 -0.002454 0.010823 0.000000 0.000000 0.000000
# 4 0.000000 0.000000 0.000000 0.095230 0.000000 0.000000
# 5 0.000000 0.000000 0.000000 0.000000 0.071056 0.000000
# 6 0.000000 0.000000 0.000000 0.000000 0.000000 0.003679
#
#
# Mechanical properties :
#
#
# Convention : Reuss Voigt Hill
#
# Bulk Modulus (GPa) = 78.30562 78.53034 78.41798
# Shear Modulus (GPa) = 22.74312 75.56934 49.15623
#
# Velocity S-wave (km/s) = 3.50802 6.39455 5.15735
# Velocity P-wave (km/s) = 7.66676 9.84951 8.82587
#
# Compressibility (1/GPa) = 0.01277048
#
# Stress axis : x y z
#
# Youngs Moduli (GPa) = 105.48549 112.42081 92.39861
#
# Poissons Ratio (x) = 0.23478 0.33926
# Poissons Ratio (y) = 0.22030 0.22670
# Poissons Ratio (z) = 0.38732 0.27583
#
# Static dielectric constant tensor:
#      x y z
#    x 1.569820 0.000000 0.000000 
#    y 0.000000 1.703610 0.000000 
#    z 0.000000 0.000000 1.588110 
# 
# From -- ./inp_files/21654.got.cif
#   From: 2010.05.17/outbox.cif.g08.bks.cpg/sg71_11_cif.got.tgz:21654.got - 2010.06.03 16:22:01.
