data_PCOD9518574
_publ_section_title
;
Structure prediction by ZEFSAII (Michael W. Deem and Ramdas Pophale) SiO2 
 PCOD9518574
Probable space group: I M M M
;
_chemical_formula_sum "Si O2"
_cell_formula_units_Z 100
_cell_length_a 29.695467
_cell_length_b 7.423901
_cell_length_c 21.822479
_cell_angle_alpha 90.000000
_cell_angle_beta 90.000000
_cell_angle_gamma 90.000000
_cell_volume 4810.900951
_symmetry_space_group_name_H-M "I M M M"
_symmetry_group_IT_number 71
_symmetry_cell_setting 'orthorhombic'
loop_
_space_group_symop_operation_xyz
x,y,z
-x,-y,z
x,-y,-z
-x,y,-z
-x,-y,-z
x,y,-z
-x,y,z
x,-y,z
1/2+x,1/2+y,1/2+z
1/2-x,1/2-y,1/2+z
1/2+x,1/2-y,1/2-z
1/2-x,1/2+y,1/2-z
1/2-x,1/2-y,1/2-z
1/2+x,1/2+y,1/2-z
1/2-x,1/2+y,1/2+z
1/2+x,1/2-y,1/2+z
loop_
_atom_site_type_symbol
_atom_site_label
_atom_site_fract_x
_atom_site_fract_y
_atom_site_fract_z
Si Si1 0.354549 0.207835 0.434719
Si Si2 0.049942 0.787618 0.110524
Si Si3 0.266043 0.000000 0.000000
Si Si4 0.355891 0.218439 0.805775
Si Si5 0.050114 0.716820 0.255194
Si Si6 0.721021 0.291395 0.891086
Si Si7 0.804325 0.281650 0.184901
O O1 0.342028 0.292581 0.500000
O O2 0.408128 0.209954 0.425715
O O3 0.332622 0.285568 0.373848
O O4 0.340160 0.000000 0.436714
O O5 0.057365 0.759889 0.183320
O O6 0.000000 0.716442 0.095941
O O7 0.049843 0.000000 0.098383
O O8 0.268682 0.842144 0.946117
O O9 0.407231 0.279112 0.794497
O O10 0.329914 0.277080 0.866516
O O11 0.326889 0.283384 0.747109
O O12 0.356068 0.000000 0.805829
O O13 0.049361 0.500000 0.259259
O O14 0.000000 0.783085 0.271905
O O15 0.730854 0.500000 0.906566
O O16 0.753220 0.239147 0.833245
O O17 0.808045 0.500000 0.187665
#
# Coordination Sequence:
#
# PCOD9518574 Si02
#       7
#    16  16   4  16  16  16  16
#     4  10  20  35  53  73 100 146 202 250 297 350
#     4  10  20  33  47  69 104 145 192 249 305 356
#     4  12  26  48  64  94 125 162 217 256 294 380
#     4  10  18  36  61  91 127 157 200 254 305 360
#     4   9  17  31  56  85 115 153 195 242 301 360
#     4  11  24  42  65  91 125 166 204 252 309 364
#     4   9  19  36  59  85 118 158 198 254 305 353
#
# _framework density 20.786127
#
# number of rings (size 3 to 8) (size 9 to 14) (size 15 to 20)
#    0.000    2.080    2.400    1.200    1.120    2.240 
#    2.880    1.600    0.000    0.000    0.000    1.120 
#    0.000    1.280    0.000    0.000    0.000    0.000 
#
# Total GULP energy -278759.586700 kJ/mol
# GULP energy per Si atom -5575.191734 kJ/mol
# Density = 2.073882 g / cm^3
# Si number density = 20.786127 Si / 1000 Ang^3
#
#
#
# Elastic Constant Matrix: (Units=GPa)
#
#
# Indices 1 2 3 4 5 6 
#
# 1 109.0041 9.6685 33.3888 0.0000 0.0000 0.0000
# 2 9.6685 100.8937 12.3528 0.0000 0.0000 0.0000
# 3 33.3888 12.3528 40.0260 0.0000 0.0000 0.0000
# 4 0.0000 0.0000 0.0000 15.8420 0.0000 0.0000
# 5 0.0000 0.0000 0.0000 0.0000 13.2858 0.0000
# 6 0.0000 0.0000 0.0000 0.0000 0.0000 0.5108
#
#
#
# Elastic Compliance Matrix: (Units=1/GPa)
#
#
# Indices 1 2 3 4 5 6 
#
# 1 0.012323 0.000081 -0.010305 0.000000 0.000000 0.000000
# 2 0.000081 0.010301 -0.003246 0.000000 0.000000 0.000000
# 3 -0.010305 -0.003246 0.034582 0.000000 0.000000 0.000000
# 4 0.000000 0.000000 0.000000 0.063124 0.000000 0.000000
# 5 0.000000 0.000000 0.000000 0.000000 0.075268 0.000000
# 6 0.000000 0.000000 0.000000 0.000000 0.000000 1.957822
#
#
# Mechanical properties :
#
#
# Convention : Reuss Voigt Hill
#
# Bulk Modulus (GPa) = 33.04126 40.08264 36.56195
# Shear Modulus (GPa) = 2.28264 18.89529 10.58896
#
# Velocity S-wave (km/s) = 1.04907 3.01829 2.25949
# Velocity P-wave (km/s) = 4.17106 5.60999 4.94316
#
# Compressibility (1/GPa) = 0.03026519
#
# Stress axis : x y z
#
# Youngs Moduli (GPa) = 81.14779 97.07639 28.91710
#
# Poissons Ratio (x) = -0.00784 0.29798
# Poissons Ratio (y) = -0.00655 0.09388
# Poissons Ratio (z) = 0.83620 0.31516
#
# Static dielectric constant tensor:
#      x y z
#    x 1.817160 0.000000 0.000000 
#    y 0.000000 1.794840 0.000000 
#    z 0.000000 0.000000 1.716710 
# 
# From -- ./inp_files/56651.got.cif
#   From: 2010.05.17/outbox.cif.g08.bks.cpg/sg71_29_cif.got.tgz:56651.got - 2010.06.03 16:22:01.
