data_PCOD9518161
_publ_section_title
;
Structure prediction by ZEFSAII (Michael W. Deem and Ramdas Pophale) SiO2 
 PCOD9518161
Probable space group: I M M M
;
_chemical_formula_sum "Si O2"
_cell_formula_units_Z 88
_cell_length_a 31.062993
_cell_length_b 24.228041
_cell_length_c 9.153198
_cell_angle_alpha 90.000000
_cell_angle_beta 90.000000
_cell_angle_gamma 90.000000
_cell_volume 6888.655332
_symmetry_space_group_name_H-M "I M M M"
_symmetry_group_IT_number 71
_symmetry_cell_setting 'orthorhombic'
loop_
_space_group_symop_operation_xyz
x,y,z
-x,-y,z
x,-y,-z
-x,y,-z
-x,-y,-z
x,y,-z
-x,y,z
x,-y,z
1/2+x,1/2+y,1/2+z
1/2-x,1/2-y,1/2+z
1/2+x,1/2-y,1/2-z
1/2-x,1/2+y,1/2-z
1/2-x,1/2-y,1/2-z
1/2+x,1/2+y,1/2-z
1/2-x,1/2+y,1/2+z
1/2+x,1/2-y,1/2+z
loop_
_atom_site_type_symbol
_atom_site_label
_atom_site_fract_x
_atom_site_fract_y
_atom_site_fract_z
Si Si1 0.753814 0.386830 0.826061
Si Si2 0.291492 0.722382 0.174520
Si Si3 0.839112 0.685582 0.175828
Si Si4 0.915583 0.607192 0.170810
Si Si5 0.000000 0.435078 0.674784
Si Si6 0.232911 0.500000 0.327388
Si Si7 0.855473 0.500000 0.834273
O O1 0.715923 0.342493 0.797320
O O2 0.799420 0.356448 0.787666
O O3 0.748825 0.443762 0.741652
O O4 0.755536 0.397049 0.000000
O O5 0.250000 0.750000 0.250000
O O6 0.330421 0.756566 0.244424
O O7 0.290089 0.730414 0.000000
O O8 0.884408 0.657495 0.214604
O O9 0.837279 0.692601 0.000000
O O10 0.885175 0.553386 0.180366
O O11 0.957739 0.594978 0.263726
O O12 0.927402 0.614025 0.000000
O O13 0.000000 0.500000 0.722107
O O14 0.000000 0.434354 0.500000
O O15 0.237777 0.500000 0.500000
O O16 0.182781 0.500000 0.280102
O O17 0.836967 0.500000 0.000000
#
# Coordination Sequence:
#
# PCOD9518161 Si02
#       7
#    16  16  16  16   8   8   8
#     4   9  17  30  42  54  77 106 132 156 192 242
#     4   9  17  28  42  58  76 100 127 158 197 236
#     4   9  17  29  45  61  75  96 129 166 200 237
#     4  10  19  32  48  59  71 102 138 163 199 252
#     4  11  23  33  41  59  83 101 125 170 217 244
#     4  12  22  26  37  61  82 102 131 169 207 234
#     4  10  18  31  45  54  73 102 134 166 199 249
#
# _framework density 12.774627000000001
#
# number of rings (size 3 to 8) (size 9 to 14) (size 15 to 20)
#    0.000    2.273    2.727    2.727    0.000    5.455 
#    0.000    0.000    0.000    0.000    0.000    0.000 
#    0.000    0.000    0.000    0.000    0.000    0.909 
#
# Total GULP energy -245143.960303 kJ/mol
# GULP energy per Si atom -5571.453643 kJ/mol
# Density = 1.274555 g / cm^3
# Si number density = 12.774627 Si / 1000 Ang^3
#
#
#
# Elastic Constant Matrix: (Units=GPa)
#
#
# Indices 1 2 3 4 5 6 
#
# 1 62.0069 47.3404 32.8625 0.0000 0.0000 0.0000
# 2 47.3404 98.3800 54.1453 0.0000 0.0000 0.0000
# 3 32.8625 54.1453 51.4344 0.0000 0.0000 0.0000
# 4 0.0000 0.0000 0.0000 21.6974 0.0000 0.0000
# 5 0.0000 0.0000 0.0000 0.0000 18.9482 0.0000
# 6 0.0000 0.0000 0.0000 0.0000 0.0000 12.2048
#
#
#
# Elastic Compliance Matrix: (Units=1/GPa)
#
#
# Indices 1 2 3 4 5 6 
#
# 1 0.026965 -0.008306 -0.008485 0.000000 0.000000 0.000000
# 2 -0.008306 0.026724 -0.022826 0.000000 0.000000 0.000000
# 3 -0.008485 -0.022826 0.048892 0.000000 0.000000 0.000000
# 4 0.000000 0.000000 0.000000 0.046089 0.000000 0.000000
# 5 0.000000 0.000000 0.000000 0.000000 0.052776 0.000000
# 6 0.000000 0.000000 0.000000 0.000000 0.000000 0.081935
#
#
# Mechanical properties :
#
#
# Convention : Reuss Voigt Hill
#
# Bulk Modulus (GPa) = 42.82968 53.39085 48.11027
# Shear Modulus (GPa) = 13.49903 15.73495 14.61699
#
# Velocity S-wave (km/s) = 3.25423 3.51342 3.38630
# Velocity P-wave (km/s) = 6.90796 7.63832 7.28230
#
# Compressibility (1/GPa) = 0.02334829
#
# Stress axis : x y z
#
# Youngs Moduli (GPa) = 37.08448 37.41967 20.45306
#
# Poissons Ratio (x) = 0.31080 0.17355
# Poissons Ratio (y) = 0.30801 0.46686
# Poissons Ratio (z) = 0.31468 0.85413
#
# Static dielectric constant tensor:
#      x y z
#    x 1.407460 0.000000 0.000000 
#    y 0.000000 1.434100 0.000000 
#    z 0.000000 0.000000 1.425960 
# 
# From -- ./inp_files/17191.got.cif
#   From: 2010.05.17/outbox.cif.g08.bks.cpg/sg71_9_cif.got.tgz:17191.got - 2010.06.03 16:22:01.
