data_PCOD9518965
_publ_section_title
;
Structure prediction by ZEFSAII (Michael W. Deem and Ramdas Pophale) SiO2 
 PCOD9518965
Probable space group: I M M M
;
_chemical_formula_sum "Si O2"
_cell_formula_units_Z 80
_cell_length_a 30.145580
_cell_length_b 16.116502
_cell_length_c 7.398014
_cell_angle_alpha 90.000000
_cell_angle_beta 90.000000
_cell_angle_gamma 90.000000
_cell_volume 3594.260742
_symmetry_space_group_name_H-M "I M M M"
_symmetry_group_IT_number 71
_symmetry_cell_setting 'orthorhombic'
loop_
_space_group_symop_operation_xyz
x,y,z
-x,-y,z
x,-y,-z
-x,y,-z
-x,-y,-z
x,y,-z
-x,y,z
x,-y,z
1/2+x,1/2+y,1/2+z
1/2-x,1/2-y,1/2+z
1/2+x,1/2-y,1/2-z
1/2-x,1/2+y,1/2-z
1/2-x,1/2-y,1/2-z
1/2+x,1/2+y,1/2-z
1/2-x,1/2+y,1/2+z
1/2+x,1/2-y,1/2+z
loop_
_atom_site_type_symbol
_atom_site_label
_atom_site_fract_x
_atom_site_fract_y
_atom_site_fract_z
Si Si1 0.298545 0.165430 0.716300
Si Si2 0.392762 0.591277 0.221006
Si Si3 0.606491 0.091362 0.215192
Si Si4 0.702553 0.641597 0.793243
Si Si5 0.051131 0.250350 0.278943
O O1 0.294562 0.174542 0.500000
O O2 0.341859 0.112479 0.756120
O O3 0.303997 0.258508 0.791494
O O4 0.251737 0.128711 0.784638
O O5 0.409064 0.500000 0.272061
O O6 0.342126 0.603645 0.285662
O O7 0.422989 0.667780 0.279742
O O8 0.391698 0.594678 0.000000
O O9 0.577189 0.167771 0.283983
O O10 0.596006 0.000000 0.287839
O O11 0.599169 0.088918 0.000000
O O12 0.704509 0.611712 0.000000
O O13 0.051975 0.250506 0.500000
O O14 0.000000 0.250510 0.223812
#
# Coordination Sequence:
#
# PCOD9518965 Si02
#       5
#    16  16  16  16  16
#     4  10  19  30  50  76 102 135 172 209 248 294
#     4   9  16  27  47  74 102 130 159 197 248 301
#     4  10  20  34  52  73 101 136 170 208 256 305
#     4   9  17  31  50  73 104 138 170 203 243 294
#     4   9  17  30  49  73 100 128 163 211 259 302
#
# _framework density 22.257705000000001
#
# number of rings (size 3 to 8) (size 9 to 14) (size 15 to 20)
#    0.000    2.600    2.000    0.600    0.000    2.800 
#    0.000    6.000    0.000    1.200    0.000    1.400 
#    0.000    1.600    0.000    0.000    0.000    0.000 
#
# Total GULP energy -223384.156566 kJ/mol
# GULP energy per Si atom -5584.603914 kJ/mol
# Density = 2.220705 g / cm^3
# Si number density = 22.257705 Si / 1000 Ang^3
#
#
#
# Elastic Constant Matrix: (Units=GPa)
#
#
# Indices 1 2 3 4 5 6 
#
# 1 173.3612 120.4817 0.3907 0.0000 0.0000 0.0000
# 2 120.4817 190.1425 4.8567 0.0000 0.0000 0.0000
# 3 0.3907 4.8567 80.5869 0.0000 0.0000 0.0000
# 4 0.0000 0.0000 0.0000 -4.7372 0.0000 0.0000
# 5 0.0000 0.0000 0.0000 0.0000 8.2942 0.0000
# 6 0.0000 0.0000 0.0000 0.0000 0.0000 -3.9851
#
#
#
# Elastic Compliance Matrix: (Units=1/GPa)
#
#
# Indices 1 2 3 4 5 6 
#
# 1 0.010317 -0.006546 0.000344 0.000000 0.000000 0.000000
# 2 -0.006546 0.009421 -0.000536 0.000000 0.000000 0.000000
# 3 0.000344 -0.000536 0.012440 0.000000 0.000000 0.000000
# 4 0.000000 0.000000 0.000000 -0.211093 0.000000 0.000000
# 5 0.000000 0.000000 0.000000 0.000000 0.120566 0.000000
# 6 0.000000 0.000000 0.000000 0.000000 0.000000 -0.250933
#
#
# Mechanical properties :
#
#
# Convention : Reuss Voigt Hill
#
# Bulk Modulus (GPa) = 53.46982 77.28320 65.37651
# Shear Modulus (GPa) = -17.26670 21.13848 1.93589
#
# Velocity S-wave (km/s) = -2.78827 3.08509 0.93362
# Velocity P-wave (km/s) = 3.70260 6.89113 5.53159
#
# Compressibility (1/GPa) = 0.01870214
#
# Stress axis : x y z
#
# Youngs Moduli (GPa) = 96.92953 106.14981 80.38847
#
# Poissons Ratio (x) = 0.69485 -0.02769
# Poissons Ratio (y) = 0.63449 0.04309
# Poissons Ratio (z) = -0.03339 0.05690
#
# Static dielectric constant tensor:
#      x y z
#    x 1.786240 0.000000 0.000000 
#    y 0.000000 1.790950 0.000000 
#    z 0.000000 0.000000 1.970490 
# 
# From -- ./inp_files/8625.got.cif
#   From: 2010.05.17/outbox.cif.g08.bks.cpg/sg71_5_cif.got.tgz:8625.got - 2010.06.03 16:22:01.
