data_PCOD9518217
_publ_section_title
;
Structure prediction by ZEFSAII (Michael W. Deem and Ramdas Pophale) SiO2 
 PCOD9518217
Probable space group: I M M M
;
_chemical_formula_sum "Si O2"
_cell_formula_units_Z 96
_cell_length_a 27.126928
_cell_length_b 7.687432
_cell_length_c 26.611561
_cell_angle_alpha 90.000000
_cell_angle_beta 90.000000
_cell_angle_gamma 90.000000
_cell_volume 5549.479512
_symmetry_space_group_name_H-M "I M M M"
_symmetry_group_IT_number 71
_symmetry_cell_setting 'orthorhombic'
loop_
_space_group_symop_operation_xyz
x,y,z
-x,-y,z
x,-y,-z
-x,y,-z
-x,-y,-z
x,y,-z
-x,y,z
x,-y,z
1/2+x,1/2+y,1/2+z
1/2-x,1/2-y,1/2+z
1/2+x,1/2-y,1/2-z
1/2-x,1/2+y,1/2-z
1/2-x,1/2-y,1/2-z
1/2+x,1/2+y,1/2-z
1/2-x,1/2+y,1/2+z
1/2+x,1/2-y,1/2+z
loop_
_atom_site_type_symbol
_atom_site_label
_atom_site_fract_x
_atom_site_fract_y
_atom_site_fract_z
Si Si1 0.799123 0.000000 0.441472
Si Si2 0.778410 0.195976 0.941458
Si Si3 0.555458 0.500000 0.778924
Si Si4 0.153686 0.000000 0.340503
Si Si5 0.902502 0.704010 0.789855
Si Si6 0.443197 0.212764 0.500000
Si Si7 0.617392 0.210262 0.402160
Si Si8 0.803152 0.298599 0.272339
O O1 0.763937 0.834564 0.432050
O O2 0.814132 0.000000 0.500000
O O3 0.841275 0.000000 0.400113
O O4 0.826899 0.225249 0.908684
O O5 0.760303 0.000000 0.935249
O O6 0.793862 0.220359 0.000000
O O7 0.500000 0.500000 0.798160
O O8 0.597847 0.500000 0.820936
O O9 0.565452 0.330981 0.744346
O O10 0.181120 0.833126 0.316212
O O11 0.916273 0.500000 0.785530
O O12 0.904051 0.758188 0.848048
O O13 0.846094 0.719644 0.769782
O O14 0.500000 0.267516 0.500000
O O15 0.414845 0.269540 0.550321
O O16 0.442597 0.000000 0.500000
O O17 0.619305 0.000000 0.403581
O O18 0.802586 0.500000 0.288530
O O19 0.750000 0.250000 0.250000
#
# Coordination Sequence:
#
# PCOD9518217 Si02
#       8
#     8  16   8   8  16   8  16  16
#     4  10  22  38  56  81 114 149 181 214 264 336
#     4  10  20  32  50  76 106 145 186 219 264 317
#     4  10  22  42  62  80 106 138 178 230 285 335
#     4  10  22  38  56  85 113 142 186 223 276 335
#     4   9  21  35  51  79 107 139 183 224 270 327
#     4   9  18  30  47  69  93 130 181 241 286 310
#     4  10  18  31  51  70 100 139 185 230 271 325
#     4  10  19  32  51  79 115 149 180 220 271 324
#
# _framework density 17.298919000000001
#
# number of rings (size 3 to 8) (size 9 to 14) (size 15 to 20)
#    0.000    2.250    2.500    0.000    3.500    1.667 
#    0.000    1.667    0.000    0.750    0.000    0.000 
#    0.000    0.000    0.000   12.500    0.000    0.000 
#
# Total GULP energy -267952.403612 kJ/mol
# GULP energy per Si atom -5582.341742 kJ/mol
# Density = 1.725955 g / cm^3
# Si number density = 17.298919 Si / 1000 Ang^3
#
#
#
# Elastic Constant Matrix: (Units=GPa)
#
#
# Indices 1 2 3 4 5 6 
#
# 1 84.4093 33.9658 48.7196 0.0000 0.0000 0.0000
# 2 33.9658 76.4322 36.5086 0.0000 0.0000 0.0000
# 3 48.7196 36.5086 106.6389 0.0000 0.0000 0.0000
# 4 0.0000 0.0000 0.0000 11.0025 0.0000 0.0000
# 5 0.0000 0.0000 0.0000 0.0000 8.1767 0.0000
# 6 0.0000 0.0000 0.0000 0.0000 0.0000 -1.1923
#
#
#
# Elastic Compliance Matrix: (Units=1/GPa)
#
#
# Indices 1 2 3 4 5 6 
#
# 1 0.017398 -0.004704 -0.006338 0.000000 0.000000 0.000000
# 2 -0.004704 0.016913 -0.003641 0.000000 0.000000 0.000000
# 3 -0.006338 -0.003641 0.013520 0.000000 0.000000 0.000000
# 4 0.000000 0.000000 0.000000 0.090888 0.000000 0.000000
# 5 0.000000 0.000000 0.000000 0.000000 0.122299 0.000000
# 6 0.000000 0.000000 0.000000 0.000000 0.000000 -0.838705
#
#
# Mechanical properties :
#
#
# Convention : Reuss Voigt Hill
#
# Bulk Modulus (GPa) = 54.15894 56.20760 55.18327
# Shear Modulus (GPa) = -9.22228 13.48314 2.13043
#
# Velocity S-wave (km/s) = -2.31143 2.79484 1.11095
# Velocity P-wave (km/s) = 4.92464 6.55571 5.79782
#
# Compressibility (1/GPa) = 0.01846417
#
# Stress axis : x y z
#
# Youngs Moduli (GPa) = 57.47719 59.12533 73.96605
#
# Poissons Ratio (x) = 0.27813 0.46881
# Poissons Ratio (y) = 0.27038 0.26933
# Poissons Ratio (z) = 0.36430 0.21529
#
# Static dielectric constant tensor:
#      x y z
#    x 1.554080 0.000000 0.000000 
#    y 0.000000 1.612220 0.000000 
#    z 0.000000 0.000000 1.589490 
# 
# From -- ./inp_files/66770.got.cif
#   From: 2010.05.17/outbox.cif.g08.bks.cpg/sg71_34_cif.got.tgz:66770.got - 2010.06.03 16:22:01.
