data_PCOD9518088
_publ_section_title
;
Structure prediction by ZEFSAII (Michael W. Deem and Ramdas Pophale) SiO2 
 PCOD9518088
Probable space group: I M M M
;
_chemical_formula_sum "Si O2"
_cell_formula_units_Z 120
_cell_length_a 23.344962
_cell_length_b 19.254480
_cell_length_c 15.494372
_cell_angle_alpha 90.000000
_cell_angle_beta 90.000000
_cell_angle_gamma 90.000000
_cell_volume 6964.644352
_symmetry_space_group_name_H-M "I M M M"
_symmetry_group_IT_number 71
_symmetry_cell_setting 'orthorhombic'
loop_
_space_group_symop_operation_xyz
x,y,z
-x,-y,z
x,-y,-z
-x,y,-z
-x,-y,-z
x,y,-z
-x,y,z
x,-y,z
1/2+x,1/2+y,1/2+z
1/2-x,1/2-y,1/2+z
1/2+x,1/2-y,1/2-z
1/2-x,1/2+y,1/2-z
1/2-x,1/2-y,1/2-z
1/2+x,1/2+y,1/2-z
1/2-x,1/2+y,1/2+z
1/2+x,1/2-y,1/2+z
loop_
_atom_site_type_symbol
_atom_site_label
_atom_site_fract_x
_atom_site_fract_y
_atom_site_fract_z
Si Si1 0.768860 0.078181 0.146653
Si Si2 0.204972 0.773923 0.602085
Si Si3 0.131823 0.581329 0.159768
Si Si4 0.263408 0.422287 0.855041
Si Si5 0.326041 0.714952 0.602637
Si Si6 0.063480 0.292688 0.898358
Si Si7 0.431801 0.082763 0.000000
Si Si8 0.146718 0.359769 0.351840
O O1 0.766005 0.077907 0.250849
O O2 0.815689 0.133939 0.118513
O O3 0.706681 0.105495 0.116765
O O4 0.778958 0.000000 0.116698
O O5 0.202101 0.758040 0.500000
O O6 0.200590 0.856397 0.613943
O O7 0.268537 0.752861 0.636426
O O8 0.160123 0.722495 0.647297
O O9 0.118097 0.500000 0.159769
O O10 0.196244 0.588650 0.121540
O O11 0.086366 0.629037 0.111681
O O12 0.134572 0.609910 0.257508
O O13 0.280111 0.500000 0.884313
O O14 0.326239 0.727991 0.500000
O O15 0.385144 0.745252 0.638349
O O16 0.000000 0.283929 0.860355
O O17 0.059475 0.276940 0.000000
O O18 0.402670 0.117846 0.916920
O O19 0.500000 0.091765 0.000000
O O20 0.419540 0.000000 0.000000
#
# Coordination Sequence:
#
# PCOD9518088 Si02
#       8
#    16  16  16  16  16  16   8  16
#     4   9  18  30  49  75 102 128 159 202 253 306
#     4  10  18  30  50  75 100 130 168 204 247 301
#     4  10  20  33  51  73 100 133 171 210 249 299
#     4   9  18  30  46  74 106 132 156 197 258 305
#     4   9  18  30  46  71  96 126 166 203 245 295
#     4  10  21  36  51  69  98 134 174 215 250 293
#     4  11  22  36  52  70 103 145 174 204 248 289
#     4  10  20  34  51  75 103 134 169 209 247 295
#
# _framework density 17.229882
#
# number of rings (size 3 to 8) (size 9 to 14) (size 15 to 20)
#    0.000    2.333    2.000    2.000    2.800    3.200 
#    0.000    2.000    0.000    0.400    0.000    1.867 
#    0.000    1.067    0.000    0.000    0.000    0.000 
#
# Total GULP energy -334591.738918 kJ/mol
# GULP energy per Si atom -5576.528982 kJ/mol
# Density = 1.719067 g / cm^3
# Si number density = 17.229882 Si / 1000 Ang^3
#
#
#
# Elastic Constant Matrix: (Units=GPa)
#
#
# Indices 1 2 3 4 5 6 
#
# 1 78.5918 39.7026 9.0727 0.0000 0.0000 0.0000
# 2 39.7026 116.3776 -2.2109 0.0000 0.0000 0.0000
# 3 9.0727 -2.2109 18.1033 0.0000 0.0000 0.0000
# 4 0.0000 0.0000 0.0000 22.3293 0.0000 0.0000
# 5 0.0000 0.0000 0.0000 0.0000 14.0068 0.0000
# 6 0.0000 0.0000 0.0000 0.0000 0.0000 16.9359
#
#
#
# Elastic Compliance Matrix: (Units=1/GPa)
#
#
# Indices 1 2 3 4 5 6 
#
# 1 0.016750 -0.005888 -0.009114 0.000000 0.000000 0.000000
# 2 -0.005888 0.010682 0.004255 0.000000 0.000000 0.000000
# 3 -0.009114 0.004255 0.060326 0.000000 0.000000 0.000000
# 4 0.000000 0.000000 0.000000 0.044784 0.000000 0.000000
# 5 0.000000 0.000000 0.000000 0.000000 0.071394 0.000000
# 6 0.000000 0.000000 0.000000 0.000000 0.000000 0.059046
#
#
# Mechanical properties :
#
#
# Convention : Reuss Voigt Hill
#
# Bulk Modulus (GPa) = 15.09071 34.02238 24.55655
# Shear Modulus (GPa) = 16.30988 21.75497 19.03242
#
# Velocity S-wave (km/s) = 3.08003 3.55721 3.32718
# Velocity P-wave (km/s) = 4.62885 6.05480 5.38920
#
# Compressibility (1/GPa) = 0.06626595
#
# Stress axis : x y z
#
# Youngs Moduli (GPa) = 59.70035 93.61433 16.57673
#
# Poissons Ratio (x) = 0.55116 0.15107
# Poissons Ratio (y) = 0.35149 -0.07054
# Poissons Ratio (z) = 0.54409 -0.39835
#
# Static dielectric constant tensor:
#      x y z
#    x 1.579760 0.000000 0.000000 
#    y 0.000000 1.609450 0.000000 
#    z 0.000000 0.000000 1.620370 
# 
# From -- ./inp_files/47578.got.cif
#   From: 2010.05.17/outbox.cif.g08.bks.cpg/sg71_24_cif.got.tgz:47578.got - 2010.06.03 16:22:01.
