data_PCOD9518204
_publ_section_title
;
Structure prediction by ZEFSAII (Michael W. Deem and Ramdas Pophale) SiO2 
 PCOD9518204
Probable space group: I M M M
;
_chemical_formula_sum "Si O2"
_cell_formula_units_Z 112
_cell_length_a 16.960422
_cell_length_b 26.253066
_cell_length_c 14.098549
_cell_angle_alpha 90.000000
_cell_angle_beta 90.000000
_cell_angle_gamma 90.000000
_cell_volume 6277.563325
_symmetry_space_group_name_H-M "I M M M"
_symmetry_group_IT_number 71
_symmetry_cell_setting 'orthorhombic'
loop_
_space_group_symop_operation_xyz
x,y,z
-x,-y,z
x,-y,-z
-x,y,-z
-x,-y,-z
x,y,-z
-x,y,z
x,-y,z
1/2+x,1/2+y,1/2+z
1/2-x,1/2-y,1/2+z
1/2+x,1/2-y,1/2-z
1/2-x,1/2+y,1/2-z
1/2-x,1/2-y,1/2-z
1/2+x,1/2+y,1/2-z
1/2-x,1/2+y,1/2+z
1/2+x,1/2-y,1/2+z
loop_
_atom_site_type_symbol
_atom_site_label
_atom_site_fract_x
_atom_site_fract_y
_atom_site_fract_z
Si Si1 0.093205 0.096213 0.393920
Si Si2 0.203588 0.184198 0.611279
Si Si3 0.905465 0.440968 0.894122
Si Si4 0.156158 0.942845 0.797342
Si Si5 0.306183 0.117180 0.246260
Si Si6 0.088881 0.158092 0.885936
Si Si7 0.239748 0.700636 0.386133
O O1 0.120052 0.081899 0.500000
O O2 0.120575 0.154774 0.377880
O O3 0.129923 0.062109 0.312143
O O4 0.000000 0.092349 0.389544
O O5 0.224401 0.182290 0.500000
O O6 0.260629 0.149524 0.673256
O O7 0.211689 0.242789 0.639989
O O8 0.880061 0.500000 0.885030
O O9 0.874960 0.409320 0.804785
O O10 0.000000 0.440011 0.894959
O O11 0.878918 0.423074 0.000000
O O12 0.246944 0.925057 0.796513
O O13 0.107084 0.899433 0.852001
O O14 0.144885 0.000000 0.832338
O O15 0.315468 0.158607 0.163399
O O16 0.168125 0.189595 0.856842
O O17 0.000000 0.173164 0.853030
O O18 0.087560 0.159992 0.000000
O O19 0.236635 0.695592 0.500000
#
# Coordination Sequence:
#
# PCOD9518204 Si02
#       7
#    16  16  16  16  16  16  16
#     4   9  18  31  45  63  90 122 153 187 229 276
#     4   9  17  30  48  69  93 123 159 199 241 285
#     4   9  18  33  53  76 101 127 153 187 238 295
#     4  10  20  31  45  67  92 120 156 193 227 269
#     4  10  18  31  50  71  95 124 158 195 235 282
#     4   9  18  32  48  66  91 123 157 194 236 279
#     4   9  18  32  49  69  95 127 162 199 239 283
#
# _framework density 17.841318000000001
#
# number of rings (size 3 to 8) (size 9 to 14) (size 15 to 20)
#    0.000    2.714    0.000    2.143    0.000    2.286 
#    0.000    2.857    0.000    5.143    0.000    1.000 
#    0.000    0.000    0.000    0.000    0.000    0.000 
#
# Total GULP energy -311819.142174 kJ/mol
# GULP energy per Si atom -5568.198967 kJ/mol
# Density = 1.780071 g / cm^3
# Si number density = 17.841318 Si / 1000 Ang^3
#
#
#
# Elastic Constant Matrix: (Units=GPa)
#
#
# Indices 1 2 3 4 5 6 
#
# 1 18.3637 4.0675 4.2004 0.0000 0.0000 0.0000
# 2 4.0675 55.8201 0.8683 0.0000 0.0000 0.0000
# 3 4.2004 0.8683 26.1116 -0.0002 0.0000 0.0000
# 4 0.0000 0.0000 -0.0002 25.8929 0.0000 0.0000
# 5 0.0000 0.0000 0.0000 0.0000 27.4171 0.0000
# 6 0.0000 0.0000 0.0000 0.0000 0.0000 9.7154
#
#
#
# Elastic Compliance Matrix: (Units=1/GPa)
#
#
# Indices 1 2 3 4 5 6 
#
# 1 0.057433 -0.004043 -0.009104 0.000000 0.000000 0.000000
# 2 -0.004043 0.018209 0.000045 0.000000 0.000000 0.000000
# 3 -0.009104 0.000045 0.039760 0.000000 0.000000 0.000000
# 4 0.000000 0.000000 0.000000 0.038621 0.000000 0.000000
# 5 0.000000 0.000000 0.000000 0.000000 0.036474 0.000000
# 6 0.000000 0.000000 0.000000 0.000000 0.000000 0.102929
#
#
# Mechanical properties :
#
#
# Convention : Reuss Voigt Hill
#
# Bulk Modulus (GPa) = 11.21123 13.17421 12.19272
# Shear Modulus (GPa) = 14.31172 18.68234 16.49703
#
# Velocity S-wave (km/s) = 2.83533 3.23946 3.04411
# Velocity P-wave (km/s) = 4.12508 4.62518 4.38227
#
# Compressibility (1/GPa) = 0.08919625
#
# Stress axis : x y z
#
# Youngs Moduli (GPa) = 17.41145 54.91894 25.15076
#
# Poissons Ratio (x) = 0.22206 0.22898
# Poissons Ratio (y) = 0.07040 -0.00113
# Poissons Ratio (z) = 0.15852 -0.00247
#
# Static dielectric constant tensor:
#      x y z
#    x 1.615200 0.000000 0.000000 
#    y 0.000000 1.612460 0.000000 
#    z 0.000000 0.000000 1.648680 
# 
# From -- ./inp_files/34906.got.cif
#   From: 2010.05.17/outbox.cif.g08.bks.cpg/sg71_18_cif.got.tgz:34906.got - 2010.06.03 16:22:01.
