data_PCOD9518390
_publ_section_title
;
Structure prediction by ZEFSAII (Michael W. Deem and Ramdas Pophale) SiO2 
 PCOD9518390
Probable space group: I M M M
;
_chemical_formula_sum "Si O2"
_cell_formula_units_Z 88
_cell_length_a 15.320518
_cell_length_b 26.194709
_cell_length_c 12.210337
_cell_angle_alpha 90.000000
_cell_angle_beta 90.000000
_cell_angle_gamma 90.000000
_cell_volume 4900.209840
_symmetry_space_group_name_H-M "I M M M"
_symmetry_group_IT_number 71
_symmetry_cell_setting 'orthorhombic'
loop_
_space_group_symop_operation_xyz
x,y,z
-x,-y,z
x,-y,-z
-x,y,-z
-x,-y,-z
x,y,-z
-x,y,z
x,-y,z
1/2+x,1/2+y,1/2+z
1/2-x,1/2-y,1/2+z
1/2+x,1/2-y,1/2-z
1/2-x,1/2+y,1/2-z
1/2-x,1/2-y,1/2-z
1/2+x,1/2+y,1/2-z
1/2-x,1/2+y,1/2+z
1/2+x,1/2-y,1/2+z
loop_
_atom_site_type_symbol
_atom_site_label
_atom_site_fract_x
_atom_site_fract_y
_atom_site_fract_z
Si Si1 0.191960 0.061432 0.878304
Si Si2 0.894808 0.561116 0.000000
Si Si3 0.500000 0.642234 0.868631
Si Si4 0.173953 0.201182 0.631311
Si Si5 0.813452 0.619873 0.791252
Si Si6 0.101178 0.692050 0.628107
Si Si7 0.500000 0.439220 0.304278
O O1 0.249464 0.085347 0.782540
O O2 0.089982 0.075422 0.863531
O O3 0.197652 0.000000 0.872756
O O4 0.220982 0.077723 0.000000
O O5 0.854388 0.588436 0.892145
O O6 0.875972 0.500000 0.000000
O O7 0.000000 0.567251 0.000000
O O8 0.413570 0.671939 0.831768
O O9 0.500000 0.587245 0.813434
O O10 0.500000 0.639249 0.000000
O O11 0.172096 0.201631 0.500000
O O12 0.255764 0.167413 0.665890
O O13 0.162408 0.260361 0.662538
O O14 0.882907 0.644723 0.708002
O O15 0.118613 0.679786 0.500000
O O16 0.000000 0.708827 0.634004
O O17 0.500000 0.500000 0.295007
#
# Coordination Sequence:
#
# PCOD9518390 Si02
#       7
#    16   8   8  16  16  16   8
#     4  10  21  36  55  81 113 150 193 242 294 348
#     4  11  26  46  64  85 119 159 193 238 306 365
#     4  10  18  32  53  80 118 157 186 230 294 348
#     4  10  19  35  57  84 115 152 187 233 291 344
#     4  12  21  37  61  88 112 146 197 246 283 343
#     4  10  21  37  58  84 113 150 191 233 289 349
#     4  10  19  33  52  77 115 161 198 233 292 356
#
# _framework density 17.958416
#
# number of rings (size 3 to 8) (size 9 to 14) (size 15 to 20)
#    0.000    1.545    3.636    2.455    0.000    1.273 
#    0.000    0.000    0.000    0.000    0.000    7.636 
#    0.000    0.000    0.000    0.000    0.000    0.000 
#
# Total GULP energy -245356.182343 kJ/mol
# GULP energy per Si atom -5576.276871 kJ/mol
# Density = 1.791754 g / cm^3
# Si number density = 17.958416 Si / 1000 Ang^3
#
#
#
# Elastic Constant Matrix: (Units=GPa)
#
#
# Indices 1 2 3 4 5 6 
#
# 1 83.6086 47.3106 49.5555 0.0000 0.0000 0.0000
# 2 47.3106 80.8129 68.3591 0.0000 0.0000 0.0000
# 3 49.5555 68.3591 112.6487 0.0000 0.0000 0.0000
# 4 0.0000 0.0000 0.0000 34.4681 0.0000 0.0000
# 5 0.0000 0.0000 0.0000 0.0000 27.8715 0.0000
# 6 0.0000 0.0000 0.0000 0.0000 0.0000 31.3077
#
#
#
# Elastic Compliance Matrix: (Units=1/GPa)
#
#
# Indices 1 2 3 4 5 6 
#
# 1 0.018432 -0.008079 -0.003206 0.000000 0.000000 0.000000
# 2 -0.008079 0.028967 -0.014024 0.000000 0.000000 0.000000
# 3 -0.003206 -0.014024 0.018798 0.000000 0.000000 0.000000
# 4 0.000000 0.000000 0.000000 0.029012 0.000000 0.000000
# 5 0.000000 0.000000 0.000000 0.000000 0.035879 0.000000
# 6 0.000000 0.000000 0.000000 0.000000 0.000000 0.031941
#
#
# Mechanical properties :
#
#
# Convention : Reuss Voigt Hill
#
# Bulk Modulus (GPa) = 64.18937 67.50228 65.84583
# Shear Modulus (GPa) = 22.84775 26.18579 24.51677
#
# Velocity S-wave (km/s) = 3.57074 3.82270 3.69887
# Velocity P-wave (km/s) = 7.26782 7.56001 7.41535
#
# Compressibility (1/GPa) = 0.01557890
#
# Stress axis : x y z
#
# Youngs Moduli (GPa) = 54.25273 34.52232 53.19785
#
# Poissons Ratio (x) = 0.27890 0.17055
# Poissons Ratio (y) = 0.43831 0.74605
# Poissons Ratio (z) = 0.17393 0.48414
#
# Static dielectric constant tensor:
#      x y z
#    x 1.623490 0.000000 0.000000 
#    y 0.000000 1.609490 0.000000 
#    z 0.000000 0.000000 1.601090 
# 
# From -- ./inp_files/22366.got.cif
#   From: 2010.05.17/outbox.cif.g08.bks.cpg/sg71_12_cif.got.tgz:22366.got - 2010.06.03 16:22:01.
