data_PCOD9518616
_publ_section_title
;
Structure prediction by ZEFSAII (Michael W. Deem and Ramdas Pophale) SiO2 
 PCOD9518616
Probable space group: I M M M
;
_chemical_formula_sum "Si O2"
_cell_formula_units_Z 120
_cell_length_a 14.939265
_cell_length_b 19.075992
_cell_length_c 22.980837
_cell_angle_alpha 90.000000
_cell_angle_beta 90.000000
_cell_angle_gamma 90.000000
_cell_volume 6549.108795
_symmetry_space_group_name_H-M "I M M M"
_symmetry_group_IT_number 71
_symmetry_cell_setting 'orthorhombic'
loop_
_space_group_symop_operation_xyz
x,y,z
-x,-y,z
x,-y,-z
-x,y,-z
-x,-y,-z
x,y,-z
-x,y,z
x,-y,z
1/2+x,1/2+y,1/2+z
1/2-x,1/2-y,1/2+z
1/2+x,1/2-y,1/2-z
1/2-x,1/2+y,1/2-z
1/2-x,1/2-y,1/2-z
1/2+x,1/2+y,1/2-z
1/2-x,1/2+y,1/2+z
1/2+x,1/2-y,1/2+z
loop_
_atom_site_type_symbol
_atom_site_label
_atom_site_fract_x
_atom_site_fract_y
_atom_site_fract_z
Si Si1 0.391900 0.271915 0.696387
Si Si2 0.630457 0.921907 0.234467
Si Si3 0.390425 0.000000 0.568356
Si Si4 0.892824 0.077271 0.632424
Si Si5 0.398059 0.781908 0.179666
Si Si6 0.398054 0.135562 0.637138
Si Si7 0.155512 0.920020 0.233788
Si Si8 0.609679 0.287937 0.935210
O O1 0.500000 0.263484 0.696550
O O2 0.357044 0.248270 0.760593
O O3 0.358597 0.213745 0.649510
O O4 0.372554 0.354807 0.693136
O O5 0.600470 0.864597 0.188499
O O6 0.599593 0.897107 0.298005
O O7 0.737704 0.921610 0.234744
O O8 0.599769 0.000000 0.222784
O O9 0.357677 0.072654 0.598386
O O10 0.500000 0.000000 0.576180
O O11 0.371431 0.000000 0.500000
O O12 0.874675 0.095741 0.699812
O O13 0.862467 0.135214 0.587010
O O14 0.000000 0.074020 0.626665
O O15 0.854844 0.000000 0.622045
O O16 0.500000 0.754256 0.179340
O O17 0.359266 0.761240 0.117664
O O18 0.500000 0.146017 0.615632
O O19 0.123656 0.000000 0.219823
O O20 0.500000 0.285569 0.937570
O O21 0.642050 0.272116 0.000000
#
# Coordination Sequence:
#
# PCOD9518616 Si02
#       8
#    16  16   8  16  16  16  16  16
#     4   9  16  28  44  64  89 116 148 184 220 264
#     4  10  19  29  43  65  88 115 146 183 224 267
#     4   9  16  28  48  72  96 120 146 176 214 260
#     4   9  16  27  42  60  86 119 151 184 219 257
#     4   9  17  28  43  64  87 114 146 182 228 269
#     4   9  17  28  45  68  90 116 149 180 213 260
#     4  10  19  28  41  65  90 119 149 182 230 270
#     4   9  16  27  43  62  84 111 149 190 221 257
#
# _framework density 18.323104000000001
#
# number of rings (size 3 to 8) (size 9 to 14) (size 15 to 20)
#    0.000    2.733    2.000    1.600    0.000    4.000 
#    0.000    1.333    0.000    1.200    0.000    1.867 
#    0.000    1.600    0.000    5.200    0.000    0.133 
#
# Total GULP energy -334089.210548 kJ/mol
# GULP energy per Si atom -5568.153509 kJ/mol
# Density = 1.828140 g / cm^3
# Si number density = 18.323104 Si / 1000 Ang^3
#
#
#
# Elastic Constant Matrix: (Units=GPa)
#
#
# Indices 1 2 3 4 5 6 
#
# 1 34.2931 5.9571 5.5815 0.0000 0.0000 0.0000
# 2 5.9571 127.6415 47.9781 0.0000 0.0000 0.0000
# 3 5.5815 47.9781 77.4145 0.0000 0.0000 0.0000
# 4 0.0000 0.0000 0.0000 22.5360 0.0000 0.0000
# 5 0.0000 0.0000 0.0000 0.0000 -35.8133 0.0000
# 6 0.0000 0.0000 0.0000 0.0000 0.0000 0.7411
#
#
#
# Elastic Compliance Matrix: (Units=1/GPa)
#
#
# Indices 1 2 3 4 5 6 
#
# 1 0.029562 -0.000754 -0.001664 0.000000 0.000000 0.000000
# 2 -0.000754 0.010233 -0.006288 0.000000 0.000000 0.000000
# 3 -0.001664 -0.006288 0.016934 0.000000 0.000000 0.000000
# 4 0.000000 0.000000 0.000000 0.044373 0.000000 0.000000
# 5 0.000000 0.000000 0.000000 0.000000 -0.027923 0.000000
# 6 0.000000 0.000000 0.000000 0.000000 0.000000 1.349346
#
#
# Mechanical properties :
#
#
# Convention : Reuss Voigt Hill
#
# Bulk Modulus (GPa) = 25.43372 39.82028 32.62700
# Shear Modulus (GPa) = 3.44105 9.48158 6.46132
#
# Velocity S-wave (km/s) = 1.37188 2.27726 1.87989
# Velocity P-wave (km/s) = 4.05219 5.35668 4.74943
#
# Compressibility (1/GPa) = 0.03931788
#
# Stress axis : x y z
#
# Youngs Moduli (GPa) = 33.82693 97.72270 59.05200
#
# Poissons Ratio (x) = 0.07370 0.09826
# Poissons Ratio (y) = 0.02551 0.37130
# Poissons Ratio (z) = 0.05629 0.61444
#
# Static dielectric constant tensor:
#      x y z
#    x 1.701940 0.000000 0.000000 
#    y 0.000000 1.699710 0.000000 
#    z 0.000000 0.000000 1.599640 
# 
# From -- ./inp_files/61422.got.cif
#   From: 2010.05.17/outbox.cif.g08.bks.cpg/sg71_31_cif.got.tgz:61422.got - 2010.06.03 16:22:01.
