data_PCOD9518395
_publ_section_title
;
Structure prediction by ZEFSAII (Michael W. Deem and Ramdas Pophale) SiO2 
 PCOD9518395
Probable space group: I M M M
;
_chemical_formula_sum "Si O2"
_cell_formula_units_Z 88
_cell_length_a 18.024142
_cell_length_b 7.486434
_cell_length_c 30.528620
_cell_angle_alpha 90.000000
_cell_angle_beta 90.000000
_cell_angle_gamma 90.000000
_cell_volume 4119.426643
_symmetry_space_group_name_H-M "I M M M"
_symmetry_group_IT_number 71
_symmetry_cell_setting 'orthorhombic'
loop_
_space_group_symop_operation_xyz
x,y,z
-x,-y,z
x,-y,-z
-x,y,-z
-x,-y,-z
x,y,-z
-x,y,z
x,-y,z
1/2+x,1/2+y,1/2+z
1/2-x,1/2-y,1/2+z
1/2+x,1/2-y,1/2-z
1/2-x,1/2+y,1/2-z
1/2-x,1/2-y,1/2-z
1/2+x,1/2+y,1/2-z
1/2-x,1/2+y,1/2+z
1/2+x,1/2-y,1/2+z
loop_
_atom_site_type_symbol
_atom_site_label
_atom_site_fract_x
_atom_site_fract_y
_atom_site_fract_z
Si Si1 0.647696 0.290218 0.395443
Si Si2 0.412823 0.718215 0.304824
Si Si3 0.288665 0.780558 0.050379
Si Si4 0.916063 0.711068 0.386289
Si Si5 0.913739 0.214481 0.290492
Si Si6 0.000000 0.714241 0.949707
O O1 0.663104 0.500000 0.389224
O O2 0.631503 0.215904 0.347044
O O3 0.716489 0.218002 0.422977
O O4 0.572952 0.273793 0.423782
O O5 0.500000 0.768153 0.308864
O O6 0.412041 0.500000 0.305544
O O7 0.384055 0.774934 0.256785
O O8 0.361300 0.719589 0.076662
O O9 0.288158 0.000000 0.050181
O O10 0.287171 0.724156 0.000000
O O11 0.922486 0.500000 0.393714
O O12 0.882186 0.731709 0.337452
O O13 0.000000 0.786428 0.386865
O O14 0.000000 0.274406 0.291356
O O15 0.913480 0.000000 0.289856
O O16 0.000000 0.500000 0.950306
O O17 0.000000 0.778111 0.000000
#
# Coordination Sequence:
#
# PCOD9518395 Si02
#       6
#    16  16  16  16  16   8
#     4  10  18  32  54  74  93 123 169 212 240 279
#     4   8  13  24  45  72  95 118 154 197 237 276
#     4   9  18  31  48  72  97 122 160 211 256 287
#     4   9  17  30  48  70  97 127 160 199 246 297
#     4   8  14  26  46  69  94 123 155 191 234 288
#     4  11  23  35  47  69 103 135 163 199 246 295
#
# _framework density 21.362196000000001
#
# number of rings (size 3 to 8) (size 9 to 14) (size 15 to 20)
#    0.000    3.000    0.909    1.909    0.000    1.818 
#    0.000    4.545    0.000    1.636    0.000    2.545 
#    0.000    0.000    0.000    0.000    0.000    0.000 
#
# Total GULP energy -245378.260673 kJ/mol
# GULP energy per Si atom -5576.778652 kJ/mol
# Density = 2.131357 g / cm^3
# Si number density = 21.362196 Si / 1000 Ang^3
#
#
#
# Elastic Constant Matrix: (Units=GPa)
#
#
# Indices 1 2 3 4 5 6 
#
# 1 98.4214 0.1940 97.7831 0.0000 0.0000 0.0000
# 2 0.1940 57.3702 4.0623 0.0000 0.0000 0.0000
# 3 97.7831 4.0623 192.5667 0.0000 0.0000 0.0000
# 4 0.0000 0.0000 0.0000 12.2099 0.0000 0.0000
# 5 0.0000 0.0000 0.0000 0.0000 580.8445 0.0000
# 6 0.0000 0.0000 0.0000 0.0000 0.0000 727.7763
#
#
#
# Elastic Compliance Matrix: (Units=1/GPa)
#
#
# Indices 1 2 3 4 5 6 
#
# 1 0.020531 0.000670 -0.010439 0.000000 0.000000 0.000000
# 2 0.000670 0.017479 -0.000709 0.000000 0.000000 0.000000
# 3 -0.010439 -0.000709 0.010509 0.000000 0.000000 0.000000
# 4 0.000000 0.000000 0.000000 0.081901 0.000000 0.000000
# 5 0.000000 0.000000 0.000000 0.000000 0.001722 0.000000
# 6 0.000000 0.000000 0.000000 0.000000 0.000000 0.001374
#
#
# Mechanical properties :
#
#
# Convention : Reuss Voigt Hill
#
# Bulk Modulus (GPa) = 36.28265 61.38190 48.83228
# Shear Modulus (GPa) = 30.55133 280.58741 155.56937
#
# Velocity S-wave (km/s) = 3.78585 11.47313 8.54299
# Velocity P-wave (km/s) = 6.01095 14.29359 10.96445
#
# Compressibility (1/GPa) = 0.02756138
#
# Stress axis : x y z
#
# Youngs Moduli (GPa) = 48.70740 57.21291 95.15691
#
# Poissons Ratio (x) = -0.03832 0.99338
# Poissons Ratio (y) = -0.03262 0.06745
# Poissons Ratio (z) = 0.50848 0.04055
#
# Static dielectric constant tensor:
#      x y z
#    x 1.880340 0.000000 0.000000 
#    y 0.000000 1.837490 0.000000 
#    z 0.000000 0.000000 1.786090 
# 
# From -- ./inp_files/8733.got.cif
#   From: 2010.05.17/outbox.cif.g08.bks.cpg/sg71_5_cif.got.tgz:8733.got - 2010.06.03 16:22:01.
