data_PCOD9518927
_publ_section_title
;
Structure prediction by ZEFSAII (Michael W. Deem and Ramdas Pophale) SiO2 
 PCOD9518927
Probable space group: I M M M
;
_chemical_formula_sum "Si O2"
_cell_formula_units_Z 120
_cell_length_a 29.502355
_cell_length_b 28.182025
_cell_length_c 7.648735
_cell_angle_alpha 90.000000
_cell_angle_beta 90.000000
_cell_angle_gamma 90.000000
_cell_volume 6359.434446
_symmetry_space_group_name_H-M "I M M M"
_symmetry_group_IT_number 71
_symmetry_cell_setting 'orthorhombic'
loop_
_space_group_symop_operation_xyz
x,y,z
-x,-y,z
x,-y,-z
-x,y,-z
-x,-y,-z
x,y,-z
-x,y,z
x,-y,z
1/2+x,1/2+y,1/2+z
1/2-x,1/2-y,1/2+z
1/2+x,1/2-y,1/2-z
1/2-x,1/2+y,1/2-z
1/2-x,1/2-y,1/2-z
1/2+x,1/2+y,1/2-z
1/2-x,1/2+y,1/2+z
1/2+x,1/2-y,1/2+z
loop_
_atom_site_type_symbol
_atom_site_label
_atom_site_fract_x
_atom_site_fract_y
_atom_site_fract_z
Si Si1 0.642012 0.195176 0.287590
Si Si2 0.203916 0.221981 0.209659
Si Si3 0.401771 0.947119 0.211991
Si Si4 0.209985 0.113610 0.787092
Si Si5 0.190728 0.402130 0.706567
Si Si6 0.051673 0.057711 0.000000
Si Si7 0.120216 0.943999 0.699743
Si Si8 0.050093 0.649668 0.207760
O O1 0.641593 0.194853 0.500000
O O2 0.662700 0.244929 0.227098
O O3 0.675016 0.152358 0.230866
O O4 0.591835 0.181293 0.223728
O O5 0.250000 0.250000 0.250000
O O6 0.205635 0.168137 0.274358
O O7 0.200086 0.219105 0.000000
O O8 0.351099 0.933250 0.276239
O O9 0.434973 0.904957 0.266962
O O10 0.414299 0.000000 0.269240
O O11 0.400956 0.946653 0.000000
O O12 0.258358 0.093016 0.724404
O O13 0.166761 0.083751 0.730063
O O14 0.210989 0.113728 0.000000
O O15 0.192908 0.412232 0.500000
O O16 0.081101 0.072131 0.832042
O O17 0.000000 0.074986 0.000000
O O18 0.049695 0.000000 0.000000
O O19 0.105507 0.938445 0.500000
O O20 0.128416 0.000000 0.732555
O O21 0.000000 0.658185 0.281018
O O22 0.048179 0.658184 0.000000
#
# Coordination Sequence:
#
# PCOD9518927 Si02
#       8
#    16  16  16  16  16   8  16  16
#     4   9  17  30  47  68  95 125 157 211 263 308
#     4  10  19  30  48  75 103 134 171 216 263 317
#     4   9  18  31  45  65  93 123 162 210 258 308
#     4  10  19  31  49  74 108 147 181 216 262 324
#     4   9  17  29  46  67  93 130 171 207 250 315
#     4   9  18  36  62  86 110 142 180 226 273 315
#     4  10  21  36  55  83 116 149 187 225 267 324
#     4   9  18  32  49  67  88 121 164 207 256 308
#
# _framework density 18.869603000000001
#
# number of rings (size 3 to 8) (size 9 to 14) (size 15 to 20)
#    0.000    2.600    2.000    0.000    0.000    2.667 
#    0.000    4.000    0.000    0.800    0.000    0.000 
#    0.000    0.000    0.000    0.000    0.000    0.000 
#
# Total GULP energy -334617.459690 kJ/mol
# GULP energy per Si atom -5576.957662 kJ/mol
# Density = 1.882665 g / cm^3
# Si number density = 18.869603 Si / 1000 Ang^3
#
#
#
# Elastic Constant Matrix: (Units=GPa)
#
#
# Indices 1 2 3 4 5 6 
#
# 1 160.9850 31.8497 24.1901 0.0000 0.0000 0.0000
# 2 31.8497 39.7384 8.0331 0.0000 0.0000 0.0000
# 3 24.1901 8.0331 40.2606 0.0000 0.0000 0.0000
# 4 0.0000 0.0000 0.0000 -2.6227 0.0000 0.0000
# 5 0.0000 0.0000 0.0000 0.0000 10.0059 0.0000
# 6 0.0000 0.0000 0.0000 0.0000 0.0000 15.1358
#
#
#
# Elastic Compliance Matrix: (Units=1/GPa)
#
#
# Indices 1 2 3 4 5 6 
#
# 1 0.007855 -0.005566 -0.003609 0.000000 0.000000 0.000000
# 2 -0.005566 0.030167 -0.002675 0.000000 0.000000 0.000000
# 3 -0.003609 -0.002675 0.027540 0.000000 0.000000 0.000000
# 4 0.000000 0.000000 0.000000 -0.381286 0.000000 0.000000
# 5 0.000000 0.000000 0.000000 0.000000 0.099941 0.000000
# 6 0.000000 0.000000 0.000000 0.000000 0.000000 0.066069
#
#
# Mechanical properties :
#
#
# Convention : Reuss Voigt Hill
#
# Bulk Modulus (GPa) = 23.88792 41.01441 32.45116
# Shear Modulus (GPa) = -44.61889 16.29787 -14.16051
#
# Velocity S-wave (km/s) = -4.86798 2.94208 -2.74239
# Velocity P-wave (km/s) = 4.34849 5.77270 2.68465
#
# Compressibility (1/GPa) = 0.04186217
#
# Stress axis : x y z
#
# Youngs Moduli (GPa) = 127.30194 33.14925 36.31032
#
# Poissons Ratio (x) = 0.18452 0.13105
# Poissons Ratio (y) = 0.70861 0.09711
# Poissons Ratio (z) = 0.45945 0.08866
#
# Static dielectric constant tensor:
#      x y z
#    x 1.659020 0.000000 0.000000 
#    y 0.000000 1.639580 0.000000 
#    z 0.000000 0.000000 1.707870 
# 
# From -- ./inp_files/15684.got.cif
#   From: 2010.05.17/outbox.cif.g08.bks.cpg/sg71_8_cif.got.tgz:15684.got - 2010.06.03 16:22:01.
