data_PCOD9518008
_publ_section_title
;
Structure prediction by ZEFSAII (Michael W. Deem and Ramdas Pophale) SiO2 
 PCOD9518008
Probable space group: I M M M
;
_chemical_formula_sum "Si O2"
_cell_formula_units_Z 128
_cell_length_a 24.360086
_cell_length_b 13.223345
_cell_length_c 24.580577
_cell_angle_alpha 90.000000
_cell_angle_beta 90.000000
_cell_angle_gamma 90.000000
_cell_volume 7917.940234
_symmetry_space_group_name_H-M "I M M M"
_symmetry_group_IT_number 71
_symmetry_cell_setting 'orthorhombic'
loop_
_space_group_symop_operation_xyz
x,y,z
-x,-y,z
x,-y,-z
-x,y,-z
-x,-y,-z
x,y,-z
-x,y,z
x,-y,z
1/2+x,1/2+y,1/2+z
1/2-x,1/2-y,1/2+z
1/2+x,1/2-y,1/2-z
1/2-x,1/2+y,1/2-z
1/2-x,1/2-y,1/2-z
1/2+x,1/2+y,1/2-z
1/2-x,1/2+y,1/2+z
1/2+x,1/2-y,1/2+z
loop_
_atom_site_type_symbol
_atom_site_label
_atom_site_fract_x
_atom_site_fract_y
_atom_site_fract_z
Si Si1 0.605620 0.117206 0.766335
Si Si2 0.141186 0.379023 0.936057
Si Si3 0.761094 0.745027 0.884786
Si Si4 0.151733 0.117325 0.181300
Si Si5 0.829630 0.616539 0.564332
Si Si6 0.934722 0.281381 0.155521
Si Si7 0.441358 0.879984 0.118203
Si Si8 0.303375 0.284772 0.217423
O O1 0.580886 0.152768 0.709039
O O2 0.564216 0.128339 0.816749
O O3 0.656570 0.188085 0.782262
O O4 0.622151 0.000000 0.762961
O O5 0.142079 0.500000 0.928960
O O6 0.198932 0.330383 0.916801
O O7 0.094714 0.331472 0.896802
O O8 0.131926 0.356969 0.000000
O O9 0.801765 0.820198 0.851527
O O10 0.722011 0.814726 0.921077
O O11 0.720445 0.690020 0.841761
O O12 0.095046 0.174069 0.166880
O O13 0.166070 0.133066 0.245227
O O14 0.151691 0.000000 0.167224
O O15 0.837443 0.613549 0.500000
O O16 0.820961 0.500000 0.583814
O O17 0.885452 0.658298 0.591402
O O18 0.000000 0.274869 0.149477
O O19 0.500000 0.836824 0.100129
O O20 0.441851 0.000000 0.105317
O O21 0.250000 0.250000 0.250000
#
# Coordination Sequence:
#
# PCOD9518008 Si02
#       8
#    16  16  16  16  16  16  16  16
#     4  10  18  30  48  72 102 131 162 204 251 301
#     4  10  22  38  54  75 104 135 167 210 259 298
#     4  10  18  33  52  73  99 132 170 210 249 301
#     4   9  19  33  50  74 104 133 162 203 257 306
#     4  10  19  29  45  70  99 135 175 209 245 294
#     4  10  21  35  53  77 101 132 174 211 248 302
#     4   9  17  28  43  65  95 131 164 198 244 291
#     4   9  18  28  44  72 100 128 161 198 247 302
#
# _framework density 16.16582
#
# number of rings (size 3 to 8) (size 9 to 14) (size 15 to 20)
#    0.000    2.375    1.250    2.250    0.000    4.750 
#    0.000    1.875    0.000    3.375    0.000    3.500 
#    0.000    0.500    0.000    2.625    0.000    0.125 
#
# Total GULP energy -356461.059231 kJ/mol
# GULP energy per Si atom -5569.704050 kJ/mol
# Density = 1.612903 g / cm^3
# Si number density = 16.165820 Si / 1000 Ang^3
#
#
#
# Elastic Constant Matrix: (Units=GPa)
#
#
# Indices 1 2 3 4 5 6 
#
# 1 128.3389 27.9939 40.0905 0.0000 0.0000 0.0000
# 2 27.9939 50.5539 20.9220 0.0000 0.0000 0.0000
# 3 40.0905 20.9220 86.2404 0.0000 0.0000 0.0000
# 4 0.0000 0.0000 0.0000 14.4355 0.0000 0.0000
# 5 0.0000 0.0000 0.0000 0.0000 -0.1930 0.0000
# 6 0.0000 0.0000 0.0000 0.0000 0.0000 9.9157
#
#
#
# Elastic Compliance Matrix: (Units=1/GPa)
#
#
# Indices 1 2 3 4 5 6 
#
# 1 0.009769 -0.003924 -0.003589 0.000000 0.000000 0.000000
# 2 -0.003924 0.023565 -0.003893 0.000000 0.000000 0.000000
# 3 -0.003589 -0.003893 0.014208 0.000000 0.000000 0.000000
# 4 0.000000 0.000000 0.000000 0.069274 0.000000 0.000000
# 5 0.000000 0.000000 0.000000 0.000000 -5.181868 0.000000
# 6 0.000000 0.000000 0.000000 0.000000 0.000000 0.100850
#
#
# Mechanical properties :
#
#
# Convention : Reuss Voigt Hill
#
# Bulk Modulus (GPa) = 40.43653 49.23843 44.83748
# Shear Modulus (GPa) = -1.01355 16.57343 7.77994
#
# Velocity S-wave (km/s) = -0.79267 3.20537 2.19614
# Velocity P-wave (km/s) = 4.92241 6.65009 5.85038
#
# Compressibility (1/GPa) = 0.02473011
#
# Stress axis : x y z
#
# Youngs Moduli (GPa) = 102.36414 42.43621 70.38073
#
# Poissons Ratio (x) = 0.16652 0.25262
# Poissons Ratio (y) = 0.40168 0.27397
# Poissons Ratio (z) = 0.36742 0.16519
#
# Static dielectric constant tensor:
#      x y z
#    x 1.555540 0.000000 0.000000 
#    y 0.000000 1.519080 0.000000 
#    z 0.000000 0.000000 1.577220 
# 
# From -- ./inp_files/67020.got.cif
#   From: 2010.05.17/outbox.cif.g08.bks.cpg/sg71_34_cif.got.tgz:67020.got - 2010.06.03 16:22:01.
