data_PCOD9518470
_publ_section_title
;
Structure prediction by ZEFSAII (Michael W. Deem and Ramdas Pophale) SiO2 
 PCOD9518470
Probable space group: I M M M
;
_chemical_formula_sum "Si O2"
_cell_formula_units_Z 88
_cell_length_a 19.917729
_cell_length_b 17.048664
_cell_length_c 13.674359
_cell_angle_alpha 90.000000
_cell_angle_beta 90.000000
_cell_angle_gamma 90.000000
_cell_volume 4643.411239
_symmetry_space_group_name_H-M "I M M M"
_symmetry_group_IT_number 71
_symmetry_cell_setting 'orthorhombic'
loop_
_space_group_symop_operation_xyz
x,y,z
-x,-y,z
x,-y,-z
-x,y,-z
-x,-y,-z
x,y,-z
-x,y,z
x,-y,z
1/2+x,1/2+y,1/2+z
1/2-x,1/2-y,1/2+z
1/2+x,1/2-y,1/2-z
1/2-x,1/2+y,1/2-z
1/2-x,1/2-y,1/2-z
1/2+x,1/2+y,1/2-z
1/2-x,1/2+y,1/2+z
1/2+x,1/2-y,1/2+z
loop_
_atom_site_type_symbol
_atom_site_label
_atom_site_fract_x
_atom_site_fract_y
_atom_site_fract_z
Si Si1 0.141969 0.685348 0.114010
Si Si2 0.500000 0.720070 0.117474
Si Si3 0.500000 0.805495 0.693789
Si Si4 0.744038 0.411829 0.212380
Si Si5 0.397214 0.413448 0.115703
Si Si6 0.000000 0.873558 0.881973
Si Si7 0.148211 0.875017 0.112976
O O1 0.068950 0.659393 0.153158
O O2 0.199537 0.649238 0.181850
O O3 0.145512 0.780164 0.117924
O O4 0.150707 0.662808 0.000000
O O5 0.500000 0.794310 0.188910
O O6 0.562325 0.663671 0.145949
O O7 0.500000 0.735513 0.000000
O O8 0.500000 0.716629 0.651333
O O9 0.771093 0.500000 0.204175
O O10 0.680666 0.403817 0.139664
O O11 0.707958 0.401580 0.317071
O O12 0.418311 0.500000 0.153060
O O13 0.408195 0.416281 0.000000
O O14 0.926068 0.905188 0.854124
O O15 0.000000 0.875349 0.000000
O O16 0.158236 0.897536 0.000000
#
# Coordination Sequence:
#
# PCOD9518470 Si02
#       7
#    16   8   8  16  16   8  16
#     4  10  20  36  58  80 101 130 172 224 278 324
#     4  10  19  30  48  75 106 137 170 208 247 301
#     4  10  18  33  55  75  98 127 169 222 274 323
#     4  11  22  34  50  75 109 143 174 214 264 315
#     4   9  17  29  45  68 102 142 175 202 242 300
#     4   8  14  28  52  79 104 135 177 223 261 293
#     4   9  18  33  54  79 108 143 182 220 258 307
#
# _framework density 18.951584
#
# number of rings (size 3 to 8) (size 9 to 14) (size 15 to 20)
#    0.000    2.364    0.000    5.455    0.000    2.545 
#    0.000    4.545    0.000    2.727    0.000    0.000 
#    0.000    3.636    0.000    0.000    0.000    0.000 
#
# Total GULP energy -245346.547219 kJ/mol
# GULP energy per Si atom -5576.057891 kJ/mol
# Density = 1.890845 g / cm^3
# Si number density = 18.951584 Si / 1000 Ang^3
#
#
#
# Elastic Constant Matrix: (Units=GPa)
#
#
# Indices 1 2 3 4 5 6 
#
# 1 105.8839 28.7531 37.1185 0.0000 0.0000 0.0000
# 2 28.7531 35.0938 19.8398 0.0000 0.0000 0.0000
# 3 37.1185 19.8398 96.3885 0.0000 0.0000 0.0000
# 4 0.0000 0.0000 0.0000 11.1370 0.0000 0.0000
# 5 0.0000 0.0000 0.0000 0.0000 31.1901 0.0000
# 6 0.0000 0.0000 0.0000 0.0000 0.0000 113.3793
#
#
#
# Elastic Compliance Matrix: (Units=1/GPa)
#
#
# Indices 1 2 3 4 5 6 
#
# 1 0.012951 -0.008817 -0.003172 0.000000 0.000000 0.000000
# 2 -0.008817 0.038251 -0.004478 0.000000 0.000000 0.000000
# 3 -0.003172 -0.004478 0.012518 0.000000 0.000000 0.000000
# 4 0.000000 0.000000 0.000000 0.089791 0.000000 0.000000
# 5 0.000000 0.000000 0.000000 0.000000 0.032061 0.000000
# 6 0.000000 0.000000 0.000000 0.000000 0.000000 0.008820
#
#
# Mechanical properties :
#
#
# Convention : Reuss Voigt Hill
#
# Bulk Modulus (GPa) = 32.48376 45.42098 38.95237
# Shear Modulus (GPa) = 21.04479 41.25160 31.14820
#
# Velocity S-wave (km/s) = 3.33596 4.67056 4.05849
# Velocity P-wave (km/s) = 5.65825 7.28727 6.52381
#
# Compressibility (1/GPa) = 0.03078462
#
# Stress axis : x y z
#
# Youngs Moduli (GPa) = 77.21534 26.14330 79.88513
#
# Poissons Ratio (x) = 0.23052 0.25342
# Poissons Ratio (y) = 0.68084 0.35770
# Poissons Ratio (z) = 0.24495 0.11706
#
# Static dielectric constant tensor:
#      x y z
#    x 1.668730 0.000000 0.000000 
#    y 0.000000 1.647190 0.000000 
#    z 0.000000 0.000000 1.704030 
# 
# From -- ./inp_files/36448.got.cif
#   From: 2010.05.17/outbox.cif.g08.bks.cpg/sg71_19_cif.got.tgz:36448.got - 2010.06.03 16:22:01.
