data_PCOD9518784
_publ_section_title
;
Structure prediction by ZEFSAII (Michael W. Deem and Ramdas Pophale) SiO2 
 PCOD9518784
Probable space group: I M M M
;
_chemical_formula_sum "Si O2"
_cell_formula_units_Z 104
_cell_length_a 8.759328
_cell_length_b 34.110973
_cell_length_c 25.003715
_cell_angle_alpha 90.000000
_cell_angle_beta 90.000000
_cell_angle_gamma 90.000000
_cell_volume 7470.840025
_symmetry_space_group_name_H-M "I M M M"
_symmetry_group_IT_number 71
_symmetry_cell_setting 'orthorhombic'
loop_
_space_group_symop_operation_xyz
x,y,z
-x,-y,z
x,-y,-z
-x,y,-z
-x,-y,-z
x,y,-z
-x,y,z
x,-y,z
1/2+x,1/2+y,1/2+z
1/2-x,1/2-y,1/2+z
1/2+x,1/2-y,1/2-z
1/2-x,1/2+y,1/2-z
1/2-x,1/2-y,1/2-z
1/2+x,1/2+y,1/2-z
1/2-x,1/2+y,1/2+z
1/2+x,1/2-y,1/2+z
loop_
_atom_site_type_symbol
_atom_site_label
_atom_site_fract_x
_atom_site_fract_y
_atom_site_fract_z
Si Si1 0.681005 0.837604 0.939472
Si Si2 0.817915 0.689908 0.732140
Si Si3 0.818608 0.877572 0.163474
Si Si4 0.681048 0.250860 0.440421
Si Si5 0.682188 0.268663 0.832640
Si Si6 0.672673 0.952410 0.000000
Si Si7 0.816096 0.955232 0.886395
O O1 0.500000 0.841082 0.928596
O O2 0.775474 0.859004 0.893869
O O3 0.729140 0.792054 0.938305
O O4 0.710924 0.851998 0.000000
O O5 0.763338 0.649116 0.707322
O O6 0.739907 0.701084 0.788011
O O7 0.777027 0.725362 0.690989
O O8 0.000000 0.690488 0.738171
O O9 0.770779 0.923009 0.157459
O O10 0.000000 0.875441 0.171748
O O11 0.707094 0.233978 0.500000
O O12 0.500000 0.258400 0.435083
O O13 0.739537 0.226447 0.390000
O O14 0.500000 0.270405 0.837748
O O15 0.754341 0.942456 0.055444
O O16 0.500000 0.937192 0.000000
O O17 0.668061 0.000000 0.000000
O O18 0.000000 0.955264 0.889267
O O19 0.765375 0.000000 0.875973
#
# Coordination Sequence:
#
# PCOD9518784 Si02
#       7
#    16  16  16  16  16   8  16
#     4  10  20  31  41  56  80 108 136 172 216 258
#     4  10  20  32  46  63  84 110 137 173 213 252
#     4  11  21  31  46  63  80 103 137 176 214 259
#     4  10  19  30  45  64  86 112 141 173 208 250
#     4  10  19  31  47  64  85 112 140 172 208 248
#     4   9  17  29  45  63  79  99 131 171 215 261
#     4   9  19  34  47  59  78 105 135 169 212 261
#
# _framework density 13.920790999999999
#
# number of rings (size 3 to 8) (size 9 to 14) (size 15 to 20)
#    0.000    2.077    1.538    2.538    1.077    5.231 
#    0.000    0.000    0.000    0.000    0.000    0.000 
#    0.000    0.000    0.000    0.000    0.000    0.769 
#
# Total GULP energy -290100.231152 kJ/mol
# GULP energy per Si atom -5578.850599 kJ/mol
# Density = 1.388911 g / cm^3
# Si number density = 13.920791 Si / 1000 Ang^3
#
#
#
# Elastic Constant Matrix: (Units=GPa)
#
#
# Indices 1 2 3 4 5 6 
#
# 1 25.8668 11.9240 19.8594 0.0000 0.0000 0.0000
# 2 11.9240 62.6435 33.4032 0.0000 0.0000 0.0000
# 3 19.8594 33.4032 79.1617 0.0000 0.0000 0.0000
# 4 0.0000 0.0000 0.0000 23.7087 0.0000 0.0000
# 5 0.0000 0.0000 0.0000 0.0000 23.6493 0.0000
# 6 0.0000 0.0000 0.0000 0.0000 0.0000 13.0968
#
#
#
# Elastic Compliance Matrix: (Units=1/GPa)
#
#
# Indices 1 2 3 4 5 6 
#
# 1 0.048483 -0.003539 -0.010669 0.000000 0.000000 0.000000
# 2 -0.003539 0.020856 -0.007913 0.000000 0.000000 0.000000
# 3 -0.010669 -0.007913 0.018648 0.000000 0.000000 0.000000
# 4 0.000000 0.000000 0.000000 0.042179 0.000000 0.000000
# 5 0.000000 0.000000 0.000000 0.000000 0.042285 0.000000
# 6 0.000000 0.000000 0.000000 0.000000 0.000000 0.076354
#
#
# Mechanical properties :
#
#
# Convention : Reuss Voigt Hill
#
# Bulk Modulus (GPa) = 22.86030 33.11613 27.98822
# Shear Modulus (GPa) = 16.25339 18.92334 17.58837
#
# Velocity S-wave (km/s) = 3.42067 3.69095 3.55837
# Velocity P-wave (km/s) = 5.66204 6.48111 6.08537
#
# Compressibility (1/GPa) = 0.04374396
#
# Stress axis : x y z
#
# Youngs Moduli (GPa) = 20.62597 47.94725 53.62558
#
# Poissons Ratio (x) = 0.16970 0.57215
# Poissons Ratio (y) = 0.07300 0.42432
# Poissons Ratio (z) = 0.22007 0.37939
#
# Static dielectric constant tensor:
#      x y z
#    x 1.461900 0.000000 0.000000 
#    y 0.000000 1.474060 0.000000 
#    z 0.000000 0.000000 1.455280 
# 
# From -- ./inp_files/17464.got.cif
#   From: 2010.05.17/outbox.cif.g08.bks.cpg/sg71_9_cif.got.tgz:17464.got - 2010.06.03 16:22:01.
