data_PCOD9518573
_publ_section_title
;
Structure prediction by ZEFSAII (Michael W. Deem and Ramdas Pophale) SiO2 
 PCOD9518573
Probable space group: I M M M
;
_chemical_formula_sum "Si O2"
_cell_formula_units_Z 104
_cell_length_a 28.129935
_cell_length_b 8.176690
_cell_length_c 22.927916
_cell_angle_alpha 90.000000
_cell_angle_beta 90.000000
_cell_angle_gamma 90.000000
_cell_volume 5273.644416
_symmetry_space_group_name_H-M "I M M M"
_symmetry_group_IT_number 71
_symmetry_cell_setting 'orthorhombic'
loop_
_space_group_symop_operation_xyz
x,y,z
-x,-y,z
x,-y,-z
-x,y,-z
-x,-y,-z
x,y,-z
-x,y,z
x,-y,z
1/2+x,1/2+y,1/2+z
1/2-x,1/2-y,1/2+z
1/2+x,1/2-y,1/2-z
1/2-x,1/2+y,1/2-z
1/2-x,1/2-y,1/2-z
1/2+x,1/2+y,1/2-z
1/2-x,1/2+y,1/2+z
1/2+x,1/2-y,1/2+z
loop_
_atom_site_type_symbol
_atom_site_label
_atom_site_fract_x
_atom_site_fract_y
_atom_site_fract_z
Si Si1 0.176978 0.302207 0.500000
Si Si2 0.573584 0.311090 0.664718
Si Si3 0.000000 0.305025 0.932158
Si Si4 0.947263 0.696320 0.704505
Si Si5 0.670006 0.190164 0.380968
Si Si6 0.640368 0.198949 0.874022
Si Si7 0.239826 0.695957 0.684942
Si Si8 0.287908 0.198579 0.500000
O O1 0.175829 0.500000 0.500000
O O2 0.151077 0.245559 0.559603
O O3 0.233017 0.255416 0.500000
O O4 0.561378 0.500000 0.670589
O O5 0.544711 0.245135 0.608546
O O6 0.562012 0.230106 0.727010
O O7 0.629097 0.286061 0.651970
O O8 0.000000 0.500000 0.936096
O O9 0.000000 0.242712 0.000000
O O10 0.947610 0.500000 0.698181
O O11 0.905977 0.758773 0.661132
O O12 0.000000 0.759133 0.689865
O O13 0.720814 0.209175 0.351250
O O14 0.681518 0.253503 0.444991
O O15 0.655482 0.000000 0.382567
O O16 0.687171 0.238712 0.836465
O O17 0.637364 0.000000 0.876379
O O18 0.245697 0.500000 0.677840
O O19 0.250000 0.750000 0.750000
O O20 0.286275 0.000000 0.500000
#
# Coordination Sequence:
#
# PCOD9518573 Si02
#       8
#     8  16   8  16  16  16  16   8
#     4  10  18  36  61  84 119 161 202 254 314 375
#     4  12  25  41  63  92 123 157 204 256 308 362
#     4  11  25  45  67  89 119 162 205 248 307 369
#     4  10  20  38  63  88 119 162 208 253 309 372
#     4  11  23  39  58  84 118 155 198 244 294 361
#     4   9  19  34  57  87 117 156 204 254 310 370
#     4  11  21  35  55  83 118 156 198 247 305 364
#     4  10  22  38  58  84 116 155 200 246 294 360
#
# _framework density 19.720707000000001
#
# number of rings (size 3 to 8) (size 9 to 14) (size 15 to 20)
#    0.000    1.462    2.308    3.462    1.077    2.462 
#    0.000    1.923    0.000    2.308    0.000    0.000 
#    0.000    1.846    0.000    0.000    0.000    0.000 
#
# Total GULP energy -290269.046660 kJ/mol
# GULP energy per Si atom -5582.097051 kJ/mol
# Density = 1.967582 g / cm^3
# Si number density = 19.720707 Si / 1000 Ang^3
#
#
#
# Elastic Constant Matrix: (Units=GPa)
#
#
# Indices 1 2 3 4 5 6 
#
# 1 141.0498 8.4835 53.6106 0.0000 0.0000 0.0000
# 2 8.4835 16.2625 5.4335 0.0000 0.0000 0.0000
# 3 53.6106 5.4335 116.9557 0.0000 0.0000 0.0000
# 4 0.0000 0.0000 0.0000 11.6173 0.0000 0.0000
# 5 0.0000 0.0000 0.0000 0.0000 63.2941 0.0000
# 6 0.0000 0.0000 0.0000 0.0000 0.0000 23.5046
#
#
#
# Elastic Compliance Matrix: (Units=1/GPa)
#
#
# Indices 1 2 3 4 5 6 
#
# 1 0.008754 -0.003277 -0.003860 0.000000 0.000000 0.000000
# 2 -0.003277 0.063687 -0.001457 0.000000 0.000000 0.000000
# 3 -0.003860 -0.001457 0.010388 0.000000 0.000000 0.000000
# 4 0.000000 0.000000 0.000000 0.086079 0.000000 0.000000
# 5 0.000000 0.000000 0.000000 0.000000 0.015799 0.000000
# 6 0.000000 0.000000 0.000000 0.000000 0.000000 0.042545
#
#
# Mechanical properties :
#
#
# Convention : Reuss Voigt Hill
#
# Bulk Modulus (GPa) = 15.23439 45.48034 30.35737
# Shear Modulus (GPa) = 18.77439 33.46589 26.12014
#
# Velocity S-wave (km/s) = 3.08882 4.12393 3.64332
# Velocity P-wave (km/s) = 4.52360 6.76668 5.75547
#
# Compressibility (1/GPa) = 0.06564095
#
# Stress axis : x y z
#
# Youngs Moduli (GPa) = 114.23237 15.70169 96.26951
#
# Poissons Ratio (x) = 0.05145 0.37165
# Poissons Ratio (y) = 0.37432 0.14024
# Poissons Ratio (z) = 0.44099 0.02287
#
# Static dielectric constant tensor:
#      x y z
#    x 1.681170 0.000000 0.000000 
#    y 0.000000 1.663630 0.000000 
#    z 0.000000 0.000000 1.650770 
# 
# From -- ./inp_files/56301.got.cif
#   From: 2010.05.17/outbox.cif.g08.bks.cpg/sg71_29_cif.got.tgz:56301.got - 2010.06.03 16:22:01.
