data_PCOD9518943
_publ_section_title
;
Structure prediction by ZEFSAII (Michael W. Deem and Ramdas Pophale) SiO2 
 PCOD9518943
Probable space group: I M M M
;
_chemical_formula_sum "Si O2"
_cell_formula_units_Z 82
_cell_length_a 7.786433
_cell_length_b 21.477346
_cell_length_c 30.350154
_cell_angle_alpha 90.000000
_cell_angle_beta 90.000000
_cell_angle_gamma 90.000000
_cell_volume 5075.514394
_symmetry_space_group_name_H-M "I M M M"
_symmetry_group_IT_number 71
_symmetry_cell_setting 'orthorhombic'
loop_
_space_group_symop_operation_xyz
x,y,z
-x,-y,z
x,-y,-z
-x,y,-z
-x,-y,-z
x,y,-z
-x,y,z
x,-y,z
1/2+x,1/2+y,1/2+z
1/2-x,1/2-y,1/2+z
1/2+x,1/2-y,1/2-z
1/2-x,1/2+y,1/2-z
1/2-x,1/2-y,1/2-z
1/2+x,1/2+y,1/2-z
1/2-x,1/2+y,1/2+z
1/2+x,1/2-y,1/2+z
loop_
_atom_site_type_symbol
_atom_site_label
_atom_site_fract_x
_atom_site_fract_y
_atom_site_fract_z
Si Si1 0.000000 0.000000 0.500000
Si Si2 0.298736 0.745991 0.379163
Si Si3 0.791505 0.929821 0.738878
Si Si4 0.809441 0.606259 0.859614
Si Si5 0.000000 0.240284 0.446879
Si Si6 0.000000 0.094634 0.420960
Si Si7 0.293385 0.304247 0.285321
O O1 0.000000 0.946995 0.462583
O O2 0.500000 0.730756 0.388788
O O3 0.296943 0.818765 0.364562
O O4 0.170227 0.736432 0.420310
O O5 0.236079 0.711089 0.334937
O O6 0.726227 0.914879 0.689927
O O7 0.733053 0.871808 0.768716
O O8 0.000000 0.928555 0.737881
O O9 0.739266 0.000000 0.751914
O O10 0.664948 0.581096 0.891381
O O11 0.000000 0.587116 0.872829
O O12 0.000000 0.166302 0.436847
O O13 0.000000 0.251414 0.500000
O O14 0.500000 0.305424 0.287178
O O15 0.250000 0.250000 0.250000
#
# Coordination Sequence:
#
# PCOD9518943 Si02
#       7
#     2  16  16  16   8   8  16
#     4  12  24  40  58  64  88 146 172 236 268 304
#     4   9  19  33  51  77 101 129 172 218 264 309
#     4  10  20  32  48  72 104 141 176 209 253 303
#     4  10  19  33  52  72  95 130 171 218 260 306
#     4  10  20  36  56  74  97 130 168 220 278 312
#     4  10  22  38  50  68  96 125 174 222 270 305
#     4  10  19  30  49  74 104 139 175 214 255 312
#
# _framework density 16.155999000000001
#
# number of rings (size 3 to 8) (size 9 to 14) (size 15 to 20)
#    0.000    2.146    3.415    0.000    2.732    0.780 
#    0.000    0.976    0.000    0.000    0.000    0.000 
#    0.000    1.561    0.000    7.610    0.000    0.000 
#
# Total GULP energy -228323.322380 kJ/mol
# GULP energy per Si atom -5568.861521 kJ/mol
# Density = 1.611923 g / cm^3
# Si number density = 16.155999 Si / 1000 Ang^3
#
#
#
# Elastic Constant Matrix: (Units=GPa)
#
#
# Indices 1 2 3 4 5 6 
#
# 1 84.3608 38.1583 64.8376 0.0000 0.0000 0.0000
# 2 38.1583 72.1868 53.7498 0.0000 0.0000 0.0000
# 3 64.8376 53.7498 144.8669 0.0000 0.0000 0.0000
# 4 0.0000 0.0000 0.0000 37.5213 0.0000 0.0000
# 5 0.0000 0.0000 0.0000 0.0000 14.4200 0.0000
# 6 0.0000 0.0000 0.0000 0.0000 0.0000 4.4969
#
#
#
# Elastic Compliance Matrix: (Units=1/GPa)
#
#
# Indices 1 2 3 4 5 6 
#
# 1 0.019404 -0.005238 -0.006741 0.000000 0.000000 0.000000
# 2 -0.005238 0.020555 -0.005282 0.000000 0.000000 0.000000
# 3 -0.006741 -0.005282 0.011880 0.000000 0.000000 0.000000
# 4 0.000000 0.000000 0.000000 0.026652 0.000000 0.000000
# 5 0.000000 0.000000 0.000000 0.000000 0.069348 0.000000
# 6 0.000000 0.000000 0.000000 0.000000 0.000000 0.222375
#
#
# Mechanical properties :
#
#
# Convention : Reuss Voigt Hill
#
# Bulk Modulus (GPa) = 57.74844 68.32287 63.03566
# Shear Modulus (GPa) = 12.18005 20.93224 16.55615
#
# Velocity S-wave (km/s) = 2.74871 3.60339 3.20467
# Velocity P-wave (km/s) = 6.77464 7.72618 7.26600
#
# Compressibility (1/GPa) = 0.01731648
#
# Stress axis : x y z
#
# Youngs Moduli (GPa) = 51.53538 48.65085 84.17536
#
# Poissons Ratio (x) = 0.25481 0.56746
# Poissons Ratio (y) = 0.26992 0.44463
# Poissons Ratio (z) = 0.34742 0.25698
#
# Static dielectric constant tensor:
#      x y z
#    x 1.574850 0.000000 0.000000 
#    y 0.000000 1.556860 0.000000 
#    z 0.000000 0.000000 1.508380 
# 
# From -- ./inp_files/13099.got.cif
#   From: 2010.05.17/outbox.cif.g08.bks.cpg/sg71_7_cif.got.tgz:13099.got - 2010.06.03 16:22:01.
