data_PCOD9518285
_publ_section_title
;
Structure prediction by ZEFSAII (Michael W. Deem and Ramdas Pophale) SiO2 
 PCOD9518285
Probable space group: I M M M
;
_chemical_formula_sum "Si O2"
_cell_formula_units_Z 112
_cell_length_a 28.236737
_cell_length_b 18.429545
_cell_length_c 14.059138
_cell_angle_alpha 90.000000
_cell_angle_beta 90.000000
_cell_angle_gamma 90.000000
_cell_volume 7316.237849
_symmetry_space_group_name_H-M "I M M M"
_symmetry_group_IT_number 71
_symmetry_cell_setting 'orthorhombic'
loop_
_space_group_symop_operation_xyz
x,y,z
-x,-y,z
x,-y,-z
-x,y,-z
-x,-y,-z
x,y,-z
-x,y,z
x,-y,z
1/2+x,1/2+y,1/2+z
1/2-x,1/2-y,1/2+z
1/2+x,1/2-y,1/2-z
1/2-x,1/2+y,1/2-z
1/2-x,1/2-y,1/2-z
1/2+x,1/2+y,1/2-z
1/2-x,1/2+y,1/2+z
1/2+x,1/2-y,1/2+z
loop_
_atom_site_type_symbol
_atom_site_label
_atom_site_fract_x
_atom_site_fract_y
_atom_site_fract_z
Si Si1 0.606167 0.749490 0.611883
Si Si2 0.805580 0.656054 0.891534
Si Si3 0.660947 0.667605 0.773111
Si Si4 0.746562 0.084129 0.219313
Si Si5 0.087681 0.083921 0.392006
Si Si6 0.000000 0.082535 0.249480
Si Si7 0.000000 0.781097 0.887483
Si Si8 0.223816 0.724917 0.391324
O O1 0.610762 0.728282 0.500000
O O2 0.640224 0.819380 0.623603
O O3 0.628570 0.691153 0.684256
O O4 0.550233 0.758382 0.633053
O O5 0.784998 0.602452 0.812606
O O6 0.772901 0.729146 0.885291
O O7 0.800125 0.628949 0.000000
O O8 0.699880 0.608233 0.743908
O O9 0.629073 0.635225 0.856525
O O10 0.688998 0.735896 0.817338
O O11 0.731084 0.142194 0.139594
O O12 0.743209 0.000000 0.193832
O O13 0.072676 0.099617 0.500000
O O14 0.044990 0.091036 0.318153
O O15 0.103525 0.000000 0.389039
O O16 0.000000 0.143816 0.169960
O O17 0.000000 0.000000 0.211184
O O18 0.000000 0.795542 0.000000
O O19 0.207286 0.730743 0.500000
#
# Coordination Sequence:
#
# PCOD9518285 Si02
#       8
#    16  16  16  16  16   8   8  16
#     4  10  18  31  53  73  94 122 162 206 249 292
#     4   9  17  33  53  69  92 129 165 200 246 294
#     4  11  18  33  51  70  94 129 167 203 242 287
#     4  11  21  31  46  73 103 129 161 199 240 294
#     4  10  20  32  46  66  92 125 165 207 249 286
#     4  10  19  31  46  61  89 131 165 198 240 292
#     4  10  20  32  49  76  97 119 161 212 251 293
#     4  10  19  32  49  70  95 130 168 200 238 287
#
# _framework density 15.308414000000001
#
# number of rings (size 3 to 8) (size 9 to 14) (size 15 to 20)
#    0.000    1.857    4.286    1.929    0.000    2.143 
#    0.000    0.000    0.000    1.286    0.000    0.500 
#    0.000    2.857    0.000    1.286    0.000    0.000 
#
# Total GULP energy -312054.944305 kJ/mol
# GULP energy per Si atom -5572.409720 kJ/mol
# Density = 1.527357 g / cm^3
# Si number density = 15.308414 Si / 1000 Ang^3
#
#
#
# Elastic Constant Matrix: (Units=GPa)
#
#
# Indices 1 2 3 4 5 6 
#
# 1 87.0695 17.6228 18.1088 0.0000 0.0000 0.0000
# 2 17.6228 62.2965 5.8736 0.0000 0.0000 0.0000
# 3 18.1088 5.8736 48.8493 0.0000 0.0000 0.0000
# 4 0.0000 0.0000 0.0000 20.5652 0.0000 0.0000
# 5 0.0000 0.0000 0.0000 0.0000 15.5177 0.0000
# 6 0.0000 0.0000 0.0000 0.0000 0.0000 13.5385
#
#
#
# Elastic Compliance Matrix: (Units=1/GPa)
#
#
# Indices 1 2 3 4 5 6 
#
# 1 0.013075 -0.003279 -0.004453 0.000000 0.000000 0.000000
# 2 -0.003279 0.017059 -0.000836 0.000000 0.000000 0.000000
# 3 -0.004453 -0.000836 0.022222 0.000000 0.000000 0.000000
# 4 0.000000 0.000000 0.000000 0.048626 0.000000 0.000000
# 5 0.000000 0.000000 0.000000 0.000000 0.064443 0.000000
# 6 0.000000 0.000000 0.000000 0.000000 0.000000 0.073863
#
#
# Mechanical properties :
#
#
# Convention : Reuss Voigt Hill
#
# Bulk Modulus (GPa) = 28.39190 31.26953 29.83071
# Shear Modulus (GPa) = 18.64545 20.36496 19.50520
#
# Velocity S-wave (km/s) = 3.49375 3.65130 3.57340
# Velocity P-wave (km/s) = 5.90440 6.18439 6.04602
#
# Compressibility (1/GPa) = 0.03522131
#
# Stress axis : x y z
#
# Youngs Moduli (GPa) = 76.48306 58.62147 44.99999
#
# Poissons Ratio (x) = 0.19221 0.20037
# Poissons Ratio (y) = 0.25078 0.03760
# Poissons Ratio (z) = 0.34055 0.04899
#
# Static dielectric constant tensor:
#      x y z
#    x 1.526570 0.000000 0.000000 
#    y 0.000000 1.488350 0.000000 
#    z 0.000000 0.000000 1.519810 
# 
# From -- ./inp_files/41220.got.cif
#   From: 2010.05.17/outbox.cif.g08.bks.cpg/sg71_21_cif.got.tgz:41220.got - 2010.06.03 16:22:01.
