data_PCOD9518032
_publ_section_title
;
Structure prediction by ZEFSAII (Michael W. Deem and Ramdas Pophale) SiO2 
 PCOD9518032
Probable space group: I M M M
;
_chemical_formula_sum "Si O2"
_cell_formula_units_Z 120
_cell_length_a 8.349346
_cell_length_b 29.509795
_cell_length_c 28.103868
_cell_angle_alpha 90.000000
_cell_angle_beta 90.000000
_cell_angle_gamma 90.000000
_cell_volume 6924.441463
_symmetry_space_group_name_H-M "I M M M"
_symmetry_group_IT_number 71
_symmetry_cell_setting 'orthorhombic'
loop_
_space_group_symop_operation_xyz
x,y,z
-x,-y,z
x,-y,-z
-x,y,-z
-x,-y,-z
x,y,-z
-x,y,z
x,-y,z
1/2+x,1/2+y,1/2+z
1/2-x,1/2-y,1/2+z
1/2+x,1/2-y,1/2-z
1/2-x,1/2+y,1/2-z
1/2-x,1/2-y,1/2-z
1/2+x,1/2+y,1/2-z
1/2-x,1/2+y,1/2+z
1/2+x,1/2-y,1/2+z
loop_
_atom_site_type_symbol
_atom_site_label
_atom_site_fract_x
_atom_site_fract_y
_atom_site_fract_z
Si Si1 0.692206 0.365376 0.739708
Si Si2 0.307268 0.284219 0.552271
Si Si3 0.689881 0.810954 0.155723
Si Si4 0.500000 0.047935 0.444061
Si Si5 0.686071 0.816247 0.581936
Si Si6 0.677142 0.409750 0.091773
Si Si7 0.805612 0.789946 0.317162
Si Si8 0.190680 0.052256 0.301748
O O1 0.500000 0.367689 0.741233
O O2 0.742727 0.352124 0.686665
O O3 0.737160 0.322801 0.773711
O O4 0.755501 0.412577 0.762095
O O5 0.251670 0.300640 0.500000
O O6 0.500000 0.287408 0.553296
O O7 0.245956 0.306879 0.600937
O O8 0.268837 0.230584 0.556662
O O9 0.500000 0.813956 0.155311
O O10 0.731457 0.763688 0.183236
O O11 0.500000 0.044100 0.500000
O O12 0.332543 0.069550 0.431441
O O13 0.500000 0.000000 0.418312
O O14 0.500000 0.827488 0.570219
O O15 0.806355 0.857674 0.575838
O O16 0.704752 0.806721 0.637883
O O17 0.500000 0.427220 0.079297
O O18 0.701176 0.420955 0.147892
O O19 0.000000 0.794283 0.325256
O O20 0.000000 0.047966 0.293256
O O21 0.253141 0.000000 0.303513
#
# Coordination Sequence:
#
# PCOD9518032 Si02
#       8
#    16  16  16   8  16  16  16  16
#     4  10  18  30  49  70  99 136 172 209 255 312
#     4   9  19  35  53  72  99 137 177 217 261 306
#     4  10  20  31  46  71 103 134 171 213 254 308
#     4  11  26  44  58  76 100 126 170 228 279 335
#     4  10  18  30  50  78 105 132 167 214 258 309
#     4  11  21  38  61  81 103 135 174 221 276 333
#     4   9  17  30  46  68  98 135 172 208 248 299
#     4   9  18  33  55  80 104 134 174 219 267 320
#
# _framework density 17.329917999999999
#
# number of rings (size 3 to 8) (size 9 to 14) (size 15 to 20)
#    0.000    2.200    2.000    1.600    0.000    3.467 
#    1.200    0.667    0.000    0.000    0.000    0.000 
#    0.000    0.533    0.000    6.133    0.000    1.733 
#
# Total GULP energy -334039.017659 kJ/mol
# GULP energy per Si atom -5567.316961 kJ/mol
# Density = 1.729047 g / cm^3
# Si number density = 17.329918 Si / 1000 Ang^3
#
#
#
# Elastic Constant Matrix: (Units=GPa)
#
#
# Indices 1 2 3 4 5 6 
#
# 1 42.0148 24.8779 19.0881 0.0000 0.0000 0.0000
# 2 24.8779 38.4261 30.0235 0.0000 0.0000 0.0000
# 3 19.0881 30.0235 88.1945 0.0000 0.0000 0.0000
# 4 0.0000 0.0000 0.0000 13.6245 0.0000 0.0000
# 5 0.0000 0.0000 0.0000 0.0000 45.8812 0.0000
# 6 0.0000 0.0000 0.0000 0.0000 0.0000 -6.3698
#
#
#
# Elastic Compliance Matrix: (Units=1/GPa)
#
#
# Indices 1 2 3 4 5 6 
#
# 1 0.038600 -0.025154 0.000209 0.000000 0.000000 0.000000
# 2 -0.025154 0.051846 -0.012205 0.000000 0.000000 0.000000
# 3 0.000209 -0.012205 0.015448 0.000000 0.000000 0.000000
# 4 0.000000 0.000000 0.000000 0.073397 0.000000 0.000000
# 5 0.000000 0.000000 0.000000 0.000000 0.021795 0.000000
# 6 0.000000 0.000000 0.000000 0.000000 0.000000 -0.156991
#
#
# Mechanical properties :
#
#
# Convention : Reuss Voigt Hill
#
# Bulk Modulus (GPa) = 31.65228 35.17938 33.41583
# Shear Modulus (GPa) = 38.78131 16.93691 27.85911
#
# Velocity S-wave (km/s) = 4.73570 3.12961 4.01380
# Velocity P-wave (km/s) = 6.94310 5.77954 6.38787
#
# Compressibility (1/GPa) = 0.03159330
#
# Stress axis : x y z
#
# Youngs Moduli (GPa) = 25.90645 19.28807 64.73152
#
# Poissons Ratio (x) = 0.48517 -0.01350
# Poissons Ratio (y) = 0.65164 0.79007
# Poissons Ratio (z) = -0.00540 0.23542
#
# Static dielectric constant tensor:
#      x y z
#    x 1.551980 0.000000 0.000000 
#    y 0.000000 1.654580 0.000000 
#    z 0.000000 0.000000 1.603240 
# 
# From -- ./inp_files/63794.got.cif
#   From: 2010.05.17/outbox.cif.g08.bks.cpg/sg71_32_cif.got.tgz:63794.got - 2010.06.03 16:22:01.
