data_PCOD9518497
_publ_section_title
;
Structure prediction by ZEFSAII (Michael W. Deem and Ramdas Pophale) SiO2 
 PCOD9518497
Probable space group: I M M M
;
_chemical_formula_sum "Si O2"
_cell_formula_units_Z 64
_cell_length_a 17.212971
_cell_length_b 24.344648
_cell_length_c 7.470865
_cell_angle_alpha 90.000000
_cell_angle_beta 90.000000
_cell_angle_gamma 90.000000
_cell_volume 3130.619061
_symmetry_space_group_name_H-M "I M M M"
_symmetry_group_IT_number 71
_symmetry_cell_setting 'orthorhombic'
loop_
_space_group_symop_operation_xyz
x,y,z
-x,-y,z
x,-y,-z
-x,y,-z
-x,-y,-z
x,y,-z
-x,y,z
x,-y,z
1/2+x,1/2+y,1/2+z
1/2-x,1/2-y,1/2+z
1/2+x,1/2-y,1/2-z
1/2-x,1/2+y,1/2-z
1/2-x,1/2-y,1/2-z
1/2+x,1/2+y,1/2-z
1/2-x,1/2+y,1/2+z
1/2+x,1/2-y,1/2+z
loop_
_atom_site_type_symbol
_atom_site_label
_atom_site_fract_x
_atom_site_fract_y
_atom_site_fract_z
Si Si1 0.589847 0.565561 0.500000
Si Si2 0.814708 0.128500 0.294769
Si Si3 0.911103 0.765220 0.782922
Si Si4 0.362071 0.142933 0.281940
Si Si5 0.500000 0.063115 0.281249
O O1 0.592934 0.500000 0.500000
O O2 0.500000 0.583481 0.500000
O O3 0.633094 0.590264 0.328793
O O4 0.814805 0.109646 0.500000
O O5 0.851890 0.189229 0.285951
O O6 0.726025 0.130851 0.228245
O O7 0.888385 0.703769 0.725847
O O8 0.000000 0.777142 0.729532
O O9 0.908189 0.767027 0.000000
O O10 0.362882 0.143566 0.500000
O O11 0.424077 0.097294 0.224711
O O12 0.500000 0.062829 0.500000
O O13 0.500000 0.000000 0.222555
#
# Coordination Sequence:
#
# PCOD9518497 Si02
#       5
#     8  16  16  16   8
#     4  11  26  48  68  89 123 165 207 256 318 377
#     4  11  23  39  64  96 126 158 210 262 315 373
#     4  10  18  33  59  88 126 167 206 256 314 376
#     4   9  18  33  55  89 126 166 210 257 312 368
#     4   9  16  30  54  85 123 167 214 258 303 367
#
# _framework density 20.443239999999999
#
# number of rings (size 3 to 8) (size 9 to 14) (size 15 to 20)
#    0.000    2.000    2.500    1.500    0.000    3.500 
#    2.250    3.750    0.000    0.750    0.000    1.750 
#    0.000    0.000    0.000    0.000    0.000    0.000 
#
# Total GULP energy -178939.112251 kJ/mol
# GULP energy per Si atom -5591.847258 kJ/mol
# Density = 2.039671 g / cm^3
# Si number density = 20.443240 Si / 1000 Ang^3
#
#
#
# Elastic Constant Matrix: (Units=GPa)
#
#
# Indices 1 2 3 4 5 6 
#
# 1 219.9536 89.4808 34.1162 0.0000 0.0000 0.0000
# 2 89.4808 126.7991 20.4571 0.0000 0.0000 0.0000
# 3 34.1162 20.4571 77.9248 0.0000 0.0000 0.0000
# 4 0.0000 0.0000 0.0000 -26.9524 0.0000 0.0000
# 5 0.0000 0.0000 0.0000 0.0000 23.6922 0.0000
# 6 0.0000 0.0000 0.0000 0.0000 0.0000 -128.4805
#
#
#
# Elastic Compliance Matrix: (Units=1/GPa)
#
#
# Indices 1 2 3 4 5 6 
#
# 1 0.006596 -0.004374 -0.001739 0.000000 0.000000 0.000000
# 2 -0.004374 0.011136 -0.001009 0.000000 0.000000 0.000000
# 3 -0.001739 -0.001009 0.013859 0.000000 0.000000 0.000000
# 4 0.000000 0.000000 0.000000 -0.037102 0.000000 0.000000
# 5 0.000000 0.000000 0.000000 0.000000 0.042208 0.000000
# 6 0.000000 0.000000 0.000000 0.000000 0.000000 -0.007783
#
#
# Mechanical properties :
#
#
# Convention : Reuss Voigt Hill
#
# Bulk Modulus (GPa) = 57.64651 79.19840 68.42245
# Shear Modulus (GPa) = 102.16914 -7.63994 47.26460
#
# Velocity S-wave (km/s) = 7.07711 -1.93527 4.81353
# Velocity P-wave (km/s) = 9.74885 5.81645 8.02718
#
# Compressibility (1/GPa) = 0.01734710
#
# Stress axis : x y z
#
# Youngs Moduli (GPa) = 151.61802 89.80107 72.15446
#
# Poissons Ratio (x) = 0.39277 0.12550
# Poissons Ratio (y) = 0.66314 0.07277
# Poissons Ratio (z) = 0.26372 0.09057
#
# Static dielectric constant tensor:
#      x y z
#    x 1.693460 0.000000 0.000000 
#    y 0.000000 1.679670 0.000000 
#    z 0.000000 0.000000 1.809200 
# 
# From -- ./inp_files/5495.got.cif
#   From: 2010.05.17/outbox.cif.g08.bks.cpg/sg71_3_cif.got.tgz:5495.got - 2010.06.03 16:22:01.
