data_PCOD9518553
_publ_section_title
;
Structure prediction by ZEFSAII (Michael W. Deem and Ramdas Pophale) SiO2 
 PCOD9518553
Probable space group: I M M M
;
_chemical_formula_sum "Si O2"
_cell_formula_units_Z 96
_cell_length_a 14.419039
_cell_length_b 15.661225
_cell_length_c 23.427248
_cell_angle_alpha 90.000000
_cell_angle_beta 90.000000
_cell_angle_gamma 90.000000
_cell_volume 5290.336787
_symmetry_space_group_name_H-M "I M M M"
_symmetry_group_IT_number 71
_symmetry_cell_setting 'orthorhombic'
loop_
_space_group_symop_operation_xyz
x,y,z
-x,-y,z
x,-y,-z
-x,y,-z
-x,-y,-z
x,y,-z
-x,y,z
x,-y,z
1/2+x,1/2+y,1/2+z
1/2-x,1/2-y,1/2+z
1/2+x,1/2-y,1/2-z
1/2-x,1/2+y,1/2-z
1/2-x,1/2-y,1/2-z
1/2+x,1/2+y,1/2-z
1/2-x,1/2+y,1/2+z
1/2+x,1/2-y,1/2+z
loop_
_atom_site_type_symbol
_atom_site_label
_atom_site_fract_x
_atom_site_fract_y
_atom_site_fract_z
Si Si1 0.697220 0.406489 0.150076
Si Si2 0.302110 0.249728 0.063869
Si Si3 0.000000 0.337790 0.689225
Si Si4 0.203881 0.655004 0.741259
Si Si5 0.800594 0.901692 0.874538
Si Si6 0.000000 0.142529 0.699051
Si Si7 0.500000 0.840622 0.063466
Si Si8 0.000000 0.100332 0.172171
O O1 0.707643 0.500000 0.123610
O O2 0.707670 0.328276 0.106836
O O3 0.770083 0.393717 0.201203
O O4 0.594630 0.400456 0.178195
O O5 0.243439 0.168309 0.084489
O O6 0.407668 0.216413 0.063668
O O7 0.276175 0.275125 0.000000
O O8 0.095074 0.348577 0.724900
O O9 0.000000 0.237528 0.674591
O O10 0.000000 0.384669 0.626906
O O11 0.250000 0.750000 0.750000
O O12 0.254308 0.612349 0.687352
O O13 0.908682 0.884016 0.864277
O O14 0.787141 0.000000 0.892824
O O15 0.000000 0.148779 0.767732
O O16 0.500000 0.885544 0.000000
O O17 0.000000 0.000000 0.188567
#
# Coordination Sequence:
#
# PCOD9518553 Si02
#       8
#    16  16   8  16  16   8   8   8
#     4  12  23  37  58  88 123 157 197 245 299 354
#     4  11  23  41  60  81 114 158 206 249 294 351
#     4  12  20  34  59  87 119 159 195 240 295 347
#     4  12  20  36  58  87 123 156 190 234 297 356
#     4  11  21  37  60  89 120 153 192 242 302 361
#     4  12  18  31  56  92 120 149 191 236 297 365
#     4  10  18  35  58  81 116 158 195 238 287 345
#     4  10  20  32  55  90 122 147 178 230 301 369
#
# _framework density 18.146293
#
# number of rings (size 3 to 8) (size 9 to 14) (size 15 to 20)
#    0.000    0.667    8.333    1.250    0.000    0.667 
#    0.000    3.333    0.000    5.500    0.000    0.000 
#    0.000    2.667    0.000    0.000    0.000    0.000 
#
# Total GULP energy -267878.011633 kJ/mol
# GULP energy per Si atom -5580.791909 kJ/mol
# Density = 1.810499 g / cm^3
# Si number density = 18.146293 Si / 1000 Ang^3
#
#
#
# Elastic Constant Matrix: (Units=GPa)
#
#
# Indices 1 2 3 4 5 6 
#
# 1 140.1400 44.3894 53.3047 0.0000 0.0000 0.0000
# 2 44.3894 78.0423 21.4765 0.0000 0.0000 0.0000
# 3 53.3047 21.4765 99.4688 0.0000 0.0000 0.0000
# 4 0.0000 0.0000 0.0000 -1.0630 0.0000 0.0000
# 5 0.0000 0.0000 0.0000 0.0000 24.4054 0.0000
# 6 0.0000 0.0000 0.0000 0.0000 0.0000 -3.7748
#
#
#
# Elastic Compliance Matrix: (Units=1/GPa)
#
#
# Indices 1 2 3 4 5 6 
#
# 1 0.010326 -0.004625 -0.004535 0.000000 0.000000 0.000000
# 2 -0.004625 0.015695 -0.000910 0.000000 0.000000 0.000000
# 3 -0.004535 -0.000910 0.012680 0.000000 0.000000 0.000000
# 4 0.000000 0.000000 0.000000 -0.940772 0.000000 0.000000
# 5 0.000000 0.000000 0.000000 0.000000 0.040975 0.000000
# 6 0.000000 0.000000 0.000000 0.000000 0.000000 -0.264912
#
#
# Mechanical properties :
#
#
# Convention : Reuss Voigt Hill
#
# Bulk Modulus (GPa) = 53.87833 61.77692 57.82762
# Shear Modulus (GPa) = -4.54677 17.14555 6.29939
#
# Velocity S-wave (km/s) = -1.58463 3.07718 1.86520
# Velocity P-wave (km/s) = 5.13882 6.83689 6.04775
#
# Compressibility (1/GPa) = 0.01856034
#
# Stress axis : x y z
#
# Youngs Moduli (GPa) = 96.84628 63.71568 78.86382
#
# Poissons Ratio (x) = 0.29469 0.35763
# Poissons Ratio (y) = 0.44793 0.07177
# Poissons Ratio (z) = 0.43918 0.05799
#
# Static dielectric constant tensor:
#      x y z
#    x 1.661370 0.000000 0.000000 
#    y 0.000000 1.637080 0.000000 
#    z 0.000000 0.000000 1.632650 
# 
# From -- ./inp_files/34576.got.cif
#   From: 2010.05.17/outbox.cif.g08.bks.cpg/sg71_18_cif.got.tgz:34576.got - 2010.06.03 16:22:01.
