data_PCOD9518592
_publ_section_title
;
Structure prediction by ZEFSAII (Michael W. Deem and Ramdas Pophale) SiO2 
 PCOD9518592
Probable space group: I M M M
;
_chemical_formula_sum "Si O2"
_cell_formula_units_Z 88
_cell_length_a 11.861140
_cell_length_b 28.988908
_cell_length_c 14.752619
_cell_angle_alpha 90.000000
_cell_angle_beta 90.000000
_cell_angle_gamma 90.000000
_cell_volume 5072.562590
_symmetry_space_group_name_H-M "I M M M"
_symmetry_group_IT_number 71
_symmetry_cell_setting 'orthorhombic'
loop_
_space_group_symop_operation_xyz
x,y,z
-x,-y,z
x,-y,-z
-x,y,-z
-x,-y,-z
x,y,-z
-x,y,z
x,-y,z
1/2+x,1/2+y,1/2+z
1/2-x,1/2-y,1/2+z
1/2+x,1/2-y,1/2-z
1/2-x,1/2+y,1/2-z
1/2-x,1/2-y,1/2-z
1/2+x,1/2+y,1/2-z
1/2-x,1/2+y,1/2+z
1/2+x,1/2-y,1/2+z
loop_
_atom_site_type_symbol
_atom_site_label
_atom_site_fract_x
_atom_site_fract_y
_atom_site_fract_z
Si Si1 0.743391 0.640497 0.722255
Si Si2 0.752279 0.948491 0.890431
Si Si3 0.000000 0.345771 0.307560
Si Si4 0.000000 0.251813 0.399525
Si Si5 0.866600 0.776428 0.891392
Si Si6 0.000000 0.434632 0.398457
Si Si7 0.720286 0.689024 0.896256
O O1 0.704092 0.594814 0.668057
O O2 0.879377 0.641508 0.733834
O O3 0.701975 0.684793 0.663710
O O4 0.702436 0.648729 0.824183
O O5 0.620053 0.950178 0.861652
O O6 0.800460 0.000000 0.875815
O O7 0.757767 0.939104 0.000000
O O8 0.000000 0.292306 0.328350
O O9 0.000000 0.379156 0.395196
O O10 0.890551 0.220581 0.392388
O O11 0.000000 0.273316 0.500000
O O12 0.819704 0.725200 0.870479
O O13 0.000000 0.779978 0.872227
O O14 0.849234 0.783195 0.000000
O O15 0.000000 0.451125 0.500000
O O16 0.738035 0.673843 0.000000
#
# Coordination Sequence:
#
# PCOD9518592 Si02
#       7
#    16  16   8   8  16   8  16
#     4  11  21  32  51  72 102 132 169 206 246 291
#     4   9  17  30  49  73  99 125 157 200 251 301
#     4  10  19  27  47  76  98 129 170 204 239 287
#     4  10  19  32  49  71 100 127 161 208 249 284
#     4  10  21  34  50  73 104 138 167 197 243 298
#     4   8  14  24  42  70 102 129 150 189 247 297
#     4  10  22  35  49  71 100 134 168 206 245 287
#
# _framework density 17.348233
#
# number of rings (size 3 to 8) (size 9 to 14) (size 15 to 20)
#    0.000    2.182    1.818    1.636    2.545    2.545 
#    0.000    0.000    0.000    1.091    0.000    2.545 
#    0.000    6.545    0.000    0.000    0.000    0.000 
#
# Total GULP energy -244944.299001 kJ/mol
# GULP energy per Si atom -5566.915886 kJ/mol
# Density = 1.730875 g / cm^3
# Si number density = 17.348233 Si / 1000 Ang^3
#
#
#
# Elastic Constant Matrix: (Units=GPa)
#
#
# Indices 1 2 3 4 5 6 
#
# 1 36.8874 1.3393 0.2790 0.0000 0.0000 0.0000
# 2 1.3393 95.7267 66.0778 0.0000 0.0000 0.0000
# 3 0.2790 66.0778 79.3169 0.0000 0.0000 0.0000
# 4 0.0000 0.0000 0.0000 20.8102 0.0000 0.0000
# 5 0.0000 0.0000 0.0000 0.0000 4.8385 0.0000
# 6 0.0000 0.0000 0.0000 0.0000 0.0000 7.2460
#
#
#
# Elastic Compliance Matrix: (Units=1/GPa)
#
#
# Indices 1 2 3 4 5 6 
#
# 1 0.027132 -0.000738 0.000520 0.000000 0.000000 0.000000
# 2 -0.000738 0.024603 -0.020494 0.000000 0.000000 0.000000
# 3 0.000520 -0.020494 0.029679 0.000000 0.000000 0.000000
# 4 0.000000 0.000000 0.000000 0.048053 0.000000 0.000000
# 5 0.000000 0.000000 0.000000 0.000000 0.206674 0.000000
# 6 0.000000 0.000000 0.000000 0.000000 0.000000 0.138007
#
#
# Mechanical properties :
#
#
# Convention : Reuss Voigt Hill
#
# Bulk Modulus (GPa) = 25.00665 38.59147 31.79906
# Shear Modulus (GPa) = 9.45350 16.19460 12.82405
#
# Velocity S-wave (km/s) = 2.33690 3.05864 2.72180
# Velocity P-wave (km/s) = 4.66125 5.89637 5.31481
#
# Compressibility (1/GPa) = 0.03998937
#
# Stress axis : x y z
#
# Youngs Moduli (GPa) = 36.85632 40.64503 33.69370
#
# Poissons Ratio (x) = 0.03001 -0.01751
# Poissons Ratio (y) = 0.02721 0.69052
# Poissons Ratio (z) = -0.01915 0.83298
#
# Static dielectric constant tensor:
#      x y z
#    x 1.695080 0.000000 0.000000 
#    y 0.000000 1.610380 0.000000 
#    z 0.000000 0.000000 1.615240 
# 
# From -- ./inp_files/22568.got.cif
#   From: 2010.05.17/outbox.cif.g08.bks.cpg/sg71_12_cif.got.tgz:22568.got - 2010.06.03 16:22:01.
