data_PCOD9518303
_publ_section_title
;
Structure prediction by ZEFSAII (Michael W. Deem and Ramdas Pophale) SiO2 
 PCOD9518303
Probable space group: I M M M
;
_chemical_formula_sum "Si O2"
_cell_formula_units_Z 56
_cell_length_a 23.291905
_cell_length_b 8.564579
_cell_length_c 14.535733
_cell_angle_alpha 90.000000
_cell_angle_beta 90.000000
_cell_angle_gamma 90.000000
_cell_volume 2899.665937
_symmetry_space_group_name_H-M "I M M M"
_symmetry_group_IT_number 71
_symmetry_cell_setting 'orthorhombic'
loop_
_space_group_symop_operation_xyz
x,y,z
-x,-y,z
x,-y,-z
-x,y,-z
-x,-y,-z
x,y,-z
-x,y,z
x,-y,z
1/2+x,1/2+y,1/2+z
1/2-x,1/2-y,1/2+z
1/2+x,1/2-y,1/2-z
1/2-x,1/2+y,1/2-z
1/2-x,1/2-y,1/2-z
1/2+x,1/2+y,1/2-z
1/2-x,1/2+y,1/2+z
1/2+x,1/2-y,1/2+z
loop_
_atom_site_type_symbol
_atom_site_label
_atom_site_fract_x
_atom_site_fract_y
_atom_site_fract_z
Si Si1 0.115499 0.813885 0.800124
Si Si2 0.147904 0.313150 0.400339
Si Si3 0.000000 0.312364 0.891777
Si Si4 0.766626 0.686675 0.850320
O O1 0.122386 0.759943 0.693240
O O2 0.056231 0.754658 0.842217
O O3 0.168203 0.743683 0.860272
O O4 0.119538 0.000000 0.802514
O O5 0.120915 0.271344 0.500000
O O6 0.145747 0.500000 0.390062
O O7 0.214255 0.259542 0.405861
O O8 0.000000 0.500000 0.884413
O O9 0.000000 0.270794 0.000000
O O10 0.764567 0.500000 0.855675
O O11 0.750000 0.750000 0.750000
#
# Coordination Sequence:
#
# PCOD9518303 Si02
#       4
#    16  16   8  16
#     4  11  22  38  60  85 117 152 189 237 287 339
#     4  10  20  35  57  86 120 156 193 234 282 338
#     4  11  25  45  66  85 108 143 189 238 286 339
#     4  10  18  31  53  80 113 150 188 230 277 330
#
# _framework density 19.312570000000001
#
# number of rings (size 3 to 8) (size 9 to 14) (size 15 to 20)
#    0.000    1.571    0.000    9.857    0.000    4.571 
#    0.000    0.714    0.000    4.286    0.000    0.000 
#    0.000    0.000    0.000    0.000    0.000    0.000 
#
# Total GULP energy -156190.987099 kJ/mol
# GULP energy per Si atom -5578.249539 kJ/mol
# Density = 1.926861 g / cm^3
# Si number density = 19.312570 Si / 1000 Ang^3
#
#
#
# Elastic Constant Matrix: (Units=GPa)
#
#
# Indices 1 2 3 4 5 6 
#
# 1 123.2209 20.4152 41.6326 0.0000 0.0000 0.0000
# 2 20.4152 100.1503 29.8091 0.0000 0.0000 0.0000
# 3 41.6326 29.8091 126.6814 0.0000 0.0000 0.0000
# 4 0.0000 0.0000 0.0000 12.3010 0.0000 0.0000
# 5 0.0000 0.0000 0.0000 0.0000 -8.5030 0.0000
# 6 0.0000 0.0000 0.0000 0.0000 0.0000 34.8756
#
#
#
# Elastic Compliance Matrix: (Units=1/GPa)
#
#
# Indices 1 2 3 4 5 6 
#
# 1 0.009231 -0.001052 -0.002786 0.000000 0.000000 0.000000
# 2 -0.001052 0.010857 -0.002209 0.000000 0.000000 0.000000
# 3 -0.002786 -0.002209 0.009329 0.000000 0.000000 0.000000
# 4 0.000000 0.000000 0.000000 0.081294 0.000000 0.000000
# 5 0.000000 0.000000 0.000000 0.000000 -0.117606 0.000000
# 6 0.000000 0.000000 0.000000 0.000000 0.000000 0.028673
#
#
# Mechanical properties :
#
#
# Convention : Reuss Voigt Hill
#
# Bulk Modulus (GPa) = 57.72817 59.30738 58.51778
# Shear Modulus (GPa) = 126.10870 24.94777 75.52823
#
# Velocity S-wave (km/s) = 8.08953 3.59805 6.26045
# Velocity P-wave (km/s) = 10.82638 6.93088 9.08976
#
# Compressibility (1/GPa) = 0.01732256
#
# Stress axis : x y z
#
# Youngs Moduli (GPa) = 108.32807 92.10658 107.19036
#
# Poissons Ratio (x) = 0.09694 0.29864
# Poissons Ratio (y) = 0.11401 0.23677
# Poissons Ratio (z) = 0.30181 0.20345
#
# Static dielectric constant tensor:
#      x y z
#    x 1.682390 0.000000 0.000000 
#    y 0.000000 1.639990 0.000000 
#    z 0.000000 0.000000 1.701170 
# 
# From -- ./inp_files/37334.got.cif
#   From: 2010.05.17/outbox.cif.g08.bks.cpg/sg71_19_cif.got.tgz:37334.got - 2010.06.03 16:22:01.
