data_PCOD9518149
_publ_section_title
;
Structure prediction by ZEFSAII (Michael W. Deem and Ramdas Pophale) SiO2 
 PCOD9518149
Probable space group: I M M M
;
_chemical_formula_sum "Si O2"
_cell_formula_units_Z 96
_cell_length_a 31.557793
_cell_length_b 12.576550
_cell_length_c 14.060121
_cell_angle_alpha 90.000000
_cell_angle_beta 90.000000
_cell_angle_gamma 90.000000
_cell_volume 5580.295575
_symmetry_space_group_name_H-M "I M M M"
_symmetry_group_IT_number 71
_symmetry_cell_setting 'orthorhombic'
loop_
_space_group_symop_operation_xyz
x,y,z
-x,-y,z
x,-y,-z
-x,y,-z
-x,-y,-z
x,y,-z
-x,y,z
x,-y,z
1/2+x,1/2+y,1/2+z
1/2-x,1/2-y,1/2+z
1/2+x,1/2-y,1/2-z
1/2-x,1/2+y,1/2-z
1/2-x,1/2-y,1/2-z
1/2+x,1/2+y,1/2-z
1/2-x,1/2+y,1/2+z
1/2+x,1/2-y,1/2+z
loop_
_atom_site_type_symbol
_atom_site_label
_atom_site_fract_x
_atom_site_fract_y
_atom_site_fract_z
Si Si1 0.388015 0.125101 0.719946
Si Si2 0.289041 0.119170 0.310166
Si Si3 0.774129 0.288790 0.391957
Si Si4 0.549452 0.276045 0.386502
Si Si5 0.370306 0.725003 0.106931
Si Si6 0.415269 0.500000 0.891436
Si Si7 0.451447 0.500000 0.692285
O O1 0.339615 0.135096 0.682478
O O2 0.421817 0.180806 0.651727
O O3 0.388491 0.192326 0.817369
O O4 0.396177 0.000000 0.733906
O O5 0.263280 0.206752 0.368331
O O6 0.276753 0.131834 0.198003
O O7 0.278604 0.000000 0.341720
O O8 0.770111 0.331849 0.500000
O O9 0.819370 0.228581 0.386939
O O10 0.550373 0.280077 0.500000
O O11 0.500000 0.263825 0.356303
O O12 0.566604 0.388997 0.346459
O O13 0.387463 0.606293 0.121259
O O14 0.382039 0.758043 0.000000
O O15 0.448537 0.500000 0.806040
O O16 0.431868 0.500000 0.000000
O O17 0.500000 0.500000 0.658566
#
# Coordination Sequence:
#
# PCOD9518149 Si02
#       7
#    16  16  16  16  16   8   8
#     4  10  20  35  54  75 103 138 174 212 257 305
#     4   9  19  33  49  73 101 133 171 211 252 298
#     4   9  18  32  50  72 100 134 171 209 250 297
#     4  10  21  37  57  79 102 132 173 216 257 305
#     4   9  18  32  52  79 105 134 171 210 253 308
#     4  10  18  30  53  84 110 131 165 209 258 314
#     4  10  19  35  58  81 105 136 167 209 264 310
#
# _framework density 17.203389000000001
#
# number of rings (size 3 to 8) (size 9 to 14) (size 15 to 20)
#    0.000    2.500    1.667    0.250    1.167    3.500 
#    0.000    5.833    0.000    0.500    0.000    1.167 
#    0.000    0.000    0.000    0.000    0.000    0.000 
#
# Total GULP energy -267380.232143 kJ/mol
# GULP energy per Si atom -5570.421503 kJ/mol
# Density = 1.716423 g / cm^3
# Si number density = 17.203389 Si / 1000 Ang^3
#
#
#
# Elastic Constant Matrix: (Units=GPa)
#
#
# Indices 1 2 3 4 5 6 
#
# 1 43.0204 38.4513 24.9996 0.0000 0.0000 0.0000
# 2 38.4513 104.4412 28.2783 0.0000 0.0000 0.0000
# 3 24.9996 28.2783 69.1827 0.0000 0.0000 0.0000
# 4 0.0000 0.0000 0.0000 16.2355 0.0000 0.0000
# 5 0.0000 0.0000 0.0000 0.0000 24.3363 0.0000
# 6 0.0000 0.0000 0.0000 0.0000 0.0000 16.1882
#
#
#
# Elastic Compliance Matrix: (Units=1/GPa)
#
#
# Indices 1 2 3 4 5 6 
#
# 1 0.039362 -0.011965 -0.009333 0.000000 0.000000 0.000000
# 2 -0.011965 0.014403 -0.001564 0.000000 0.000000 0.000000
# 3 -0.009333 -0.001564 0.018466 0.000000 0.000000 0.000000
# 4 0.000000 0.000000 0.000000 0.061593 0.000000 0.000000
# 5 0.000000 0.000000 0.000000 0.000000 0.041091 0.000000
# 6 0.000000 0.000000 0.000000 0.000000 0.000000 0.061774
#
#
# Mechanical properties :
#
#
# Convention : Reuss Voigt Hill
#
# Bulk Modulus (GPa) = 37.72393 44.45584 41.08989
# Shear Modulus (GPa) = 17.16744 19.67967 18.42356
#
# Velocity S-wave (km/s) = 3.16240 3.38589 3.27605
# Velocity P-wave (km/s) = 5.94224 6.41741 6.18439
#
# Compressibility (1/GPa) = 0.02650837
#
# Stress axis : x y z
#
# Youngs Moduli (GPa) = 25.40501 69.42949 54.15276
#
# Poissons Ratio (x) = 0.83070 0.50542
# Poissons Ratio (y) = 0.30396 0.08468
# Poissons Ratio (z) = 0.23711 0.10857
#
# Static dielectric constant tensor:
#      x y z
#    x 1.570920 0.000000 0.000000 
#    y 0.000000 1.567060 0.000000 
#    z 0.000000 0.000000 1.595130 
# 
# From -- ./inp_files/40894.got.cif
#   From: 2010.05.17/outbox.cif.g08.bks.cpg/sg71_21_cif.got.tgz:40894.got - 2010.06.03 16:22:01.
