data_PCOD9518936
_publ_section_title
;
Structure prediction by ZEFSAII (Michael W. Deem and Ramdas Pophale) SiO2 
 PCOD9518936
Probable space group: I M M M
;
_chemical_formula_sum "Si O2"
_cell_formula_units_Z 88
_cell_length_a 29.651308
_cell_length_b 17.956356
_cell_length_c 9.092495
_cell_angle_alpha 90.000000
_cell_angle_beta 90.000000
_cell_angle_gamma 90.000000
_cell_volume 4841.112042
_symmetry_space_group_name_H-M "I M M M"
_symmetry_group_IT_number 71
_symmetry_cell_setting 'orthorhombic'
loop_
_space_group_symop_operation_xyz
x,y,z
-x,-y,z
x,-y,-z
-x,y,-z
-x,-y,-z
x,y,-z
-x,y,z
x,-y,z
1/2+x,1/2+y,1/2+z
1/2-x,1/2-y,1/2+z
1/2+x,1/2-y,1/2-z
1/2-x,1/2+y,1/2-z
1/2-x,1/2-y,1/2-z
1/2+x,1/2+y,1/2-z
1/2-x,1/2+y,1/2+z
1/2+x,1/2-y,1/2+z
loop_
_atom_site_type_symbol
_atom_site_label
_atom_site_fract_x
_atom_site_fract_y
_atom_site_fract_z
Si Si1 0.609025 0.586715 0.177578
Si Si2 0.801077 0.588480 0.674960
Si Si3 0.109914 0.643544 0.822497
Si Si4 0.209436 0.909442 0.669304
Si Si5 0.948401 0.500000 0.821148
Si Si6 0.052078 0.212103 0.823020
O O1 0.603654 0.500000 0.218979
O O2 0.659568 0.613084 0.221703
O O3 0.571757 0.638523 0.248918
O O4 0.607387 0.590523 0.000000
O O5 0.802972 0.595652 0.500000
O O6 0.806494 0.500000 0.711919
O O7 0.841473 0.633039 0.750245
O O8 0.752182 0.612805 0.734559
O O9 0.078958 0.573351 0.777223
O O10 0.083752 0.718536 0.781170
O O11 0.114467 0.641637 0.000000
O O12 0.215685 0.885549 0.500000
O O13 0.208189 0.000000 0.668508
O O14 0.000000 0.500000 0.769090
O O15 0.949864 0.500000 0.000000
O O16 0.000000 0.225664 0.782456
O O17 0.053921 0.205066 0.000000
#
# Coordination Sequence:
#
# PCOD9518936 Si02
#       6
#    16  16  16  16   8  16
#     4   9  19  37  60  84 107 136 177 220 263 322
#     4  10  19  30  48  78 113 143 175 217 264 315
#     4  10  19  33  53  76 104 142 185 223 263 312
#     4   8  15  30  53  78 104 135 174 217 260 310
#     4   9  16  28  51  77  97 129 183 233 262 297
#     4  10  22  38  55  79 110 140 175 224 275 318
#
# _framework density 18.177641999999999
#
# number of rings (size 3 to 8) (size 9 to 14) (size 15 to 20)
#    0.000    2.636    0.909    2.182    0.000    5.455 
#    0.000    4.545    0.000    2.182    0.000    0.000 
#    0.000    0.000    0.000    0.000    0.000    0.000 
#
# Total GULP energy -245411.625616 kJ/mol
# GULP energy per Si atom -5577.536946 kJ/mol
# Density = 1.813627 g / cm^3
# Si number density = 18.177642 Si / 1000 Ang^3
#
#
#
# Elastic Constant Matrix: (Units=GPa)
#
#
# Indices 1 2 3 4 5 6 
#
# 1 77.0921 33.0132 28.4317 0.0000 0.0000 0.0000
# 2 33.0132 71.4627 22.7341 0.0000 0.0000 0.0000
# 3 28.4317 22.7341 18.8495 0.0000 0.0000 0.0000
# 4 0.0000 0.0000 0.0000 18.8248 0.0000 0.0000
# 5 0.0000 0.0000 0.0000 0.0000 26.1747 0.0000
# 6 0.0000 0.0000 0.0000 0.0000 0.0000 7.4169
#
#
#
# Elastic Compliance Matrix: (Units=1/GPa)
#
#
# Indices 1 2 3 4 5 6 
#
# 1 0.029266 0.000849 -0.045167 0.000000 0.000000 0.000000
# 2 0.000849 0.022729 -0.028694 0.000000 0.000000 0.000000
# 3 -0.045167 -0.028694 0.155787 0.000000 0.000000 0.000000
# 4 0.000000 0.000000 0.000000 0.053121 0.000000 0.000000
# 5 0.000000 0.000000 0.000000 0.000000 0.038205 0.000000
# 6 0.000000 0.000000 0.000000 0.000000 0.000000 0.134827
#
#
# Mechanical properties :
#
#
# Convention : Reuss Voigt Hill
#
# Bulk Modulus (GPa) = 16.19224 37.30692 26.74958
# Shear Modulus (GPa) = 8.32577 16.03166 12.17871
#
# Velocity S-wave (km/s) = 2.14247 2.97298 2.59121
# Velocity P-wave (km/s) = 3.87909 5.68796 4.86827
#
# Compressibility (1/GPa) = 0.06175797
#
# Stress axis : x y z
#
# Youngs Moduli (GPa) = 34.16992 43.99582 6.41902
#
# Poissons Ratio (x) = -0.03736 0.28993
# Poissons Ratio (y) = -0.02901 0.18419
# Poissons Ratio (z) = 1.54335 1.26243
#
# Static dielectric constant tensor:
#      x y z
#    x 1.617150 0.000000 0.000000 
#    y 0.000000 1.619350 0.000000 
#    z 0.000000 0.000000 1.602390 
# 
# From -- ./inp_files/16644.got.cif
#   From: 2010.05.17/outbox.cif.g08.bks.cpg/sg71_9_cif.got.tgz:16644.got - 2010.06.03 16:22:01.
