data_PCOD9518837
_publ_section_title
;
Structure prediction by ZEFSAII (Michael W. Deem and Ramdas Pophale) SiO2 
 PCOD9518837
Probable space group: I M M M
;
_chemical_formula_sum "Si O2"
_cell_formula_units_Z 88
_cell_length_a 25.667171
_cell_length_b 9.021165
_cell_length_c 20.957581
_cell_angle_alpha 90.000000
_cell_angle_beta 90.000000
_cell_angle_gamma 90.000000
_cell_volume 4852.681453
_symmetry_space_group_name_H-M "I M M M"
_symmetry_group_IT_number 71
_symmetry_cell_setting 'orthorhombic'
loop_
_space_group_symop_operation_xyz
x,y,z
-x,-y,z
x,-y,-z
-x,y,-z
-x,-y,-z
x,y,-z
-x,y,z
x,-y,z
1/2+x,1/2+y,1/2+z
1/2-x,1/2-y,1/2+z
1/2+x,1/2-y,1/2-z
1/2-x,1/2+y,1/2-z
1/2-x,1/2-y,1/2-z
1/2+x,1/2+y,1/2-z
1/2-x,1/2+y,1/2+z
1/2+x,1/2-y,1/2+z
loop_
_atom_site_type_symbol
_atom_site_label
_atom_site_fract_x
_atom_site_fract_y
_atom_site_fract_z
Si Si1 0.937622 0.667991 0.128243
Si Si2 0.833389 0.678481 0.570575
Si Si3 0.936322 0.171123 0.000000
Si Si4 0.400421 0.674021 0.753812
Si Si5 0.293839 0.177172 0.794023
Si Si6 0.557749 0.675536 0.892741
O O1 0.917617 0.500000 0.135486
O O2 0.918424 0.744707 0.063470
O O3 0.925300 0.766944 0.189296
O O4 0.000000 0.659299 0.122741
O O5 0.814083 0.721028 0.500000
O O6 0.837173 0.500000 0.573266
O O7 0.797734 0.723949 0.631000
O O8 0.891680 0.743335 0.579432
O O9 0.000000 0.172033 0.000000
O O10 0.920060 0.000000 0.000000
O O11 0.387352 0.500000 0.748938
O O12 0.349131 0.769751 0.766798
O O13 0.436807 0.691397 0.816001
O O14 0.250000 0.250000 0.750000
O O15 0.288528 0.000000 0.791658
O O16 0.500000 0.727130 0.912920
O O17 0.561606 0.500000 0.907389
#
# Coordination Sequence:
#
# PCOD9518837 Si02
#       6
#    16  16   8  16  16  16
#     4  10  19  30  46  70 101 135 170 211 258 306
#     4   9  19  35  54  77 105 138 174 212 256 309
#     4   9  17  29  45  65  91 129 173 209 247 301
#     4  10  19  32  51  74 100 132 172 214 258 308
#     4  10  20  36  58  80 102 129 167 215 267 319
#     4   9  18  31  47  72 107 143 177 213 251 294
#
# _framework density 18.134305000000001
#
# number of rings (size 3 to 8) (size 9 to 14) (size 15 to 20)
#    0.000    2.455    0.000    2.455    0.000    5.455 
#    0.000    1.818    2.000    0.000    0.000    0.000 
#    0.000    0.000    0.000    0.000    0.000    0.000 
#
# Total GULP energy -245288.001972 kJ/mol
# GULP energy per Si atom -5574.727318 kJ/mol
# Density = 1.809303 g / cm^3
# Si number density = 18.134305 Si / 1000 Ang^3
#
#
#
# Elastic Constant Matrix: (Units=GPa)
#
#
# Indices 1 2 3 4 5 6 
#
# 1 58.2227 15.6925 24.8693 0.0000 0.0000 0.0000
# 2 15.6925 50.7694 39.5579 0.0000 0.0000 0.0000
# 3 24.8693 39.5579 131.7333 0.0000 0.0000 0.0000
# 4 0.0000 0.0000 0.0000 25.8499 0.0000 0.0000
# 5 0.0000 0.0000 0.0000 0.0000 8.0662 0.0000
# 6 0.0000 0.0000 0.0000 0.0000 0.0000 27.3857
#
#
#
# Elastic Compliance Matrix: (Units=1/GPa)
#
#
# Indices 1 2 3 4 5 6 
#
# 1 0.019309 -0.004084 -0.002419 0.000000 0.000000 0.000000
# 2 -0.004084 0.026577 -0.007210 0.000000 0.000000 0.000000
# 3 -0.002419 -0.007210 0.010213 0.000000 0.000000 0.000000
# 4 0.000000 0.000000 0.000000 0.038685 0.000000 0.000000
# 5 0.000000 0.000000 0.000000 0.000000 0.123975 0.000000
# 6 0.000000 0.000000 0.000000 0.000000 0.000000 0.036515
#
#
# Mechanical properties :
#
#
# Convention : Reuss Voigt Hill
#
# Bulk Modulus (GPa) = 34.87467 44.55164 39.71316
# Shear Modulus (GPa) = 17.10827 22.96741 20.03784
#
# Velocity S-wave (km/s) = 3.07485 3.56268 3.32771
# Velocity P-wave (km/s) = 5.64618 6.44550 6.05904
#
# Compressibility (1/GPa) = 0.02867410
#
# Stress axis : x y z
#
# Youngs Moduli (GPa) = 51.78846 37.62700 97.91655
#
# Poissons Ratio (x) = 0.15365 0.23687
# Poissons Ratio (y) = 0.21148 0.70595
# Poissons Ratio (z) = 0.12528 0.27128
#
# Static dielectric constant tensor:
#      x y z
#    x 1.603290 0.000000 0.000000 
#    y 0.000000 1.616460 0.000000 
#    z 0.000000 0.000000 1.646020 
# 
# From -- ./inp_files/12571.got.cif
#   From: 2010.05.17/outbox.cif.g08.bks.cpg/sg71_7_cif.got.tgz:12571.got - 2010.06.03 16:22:01.
