data_PCOD9518019
_publ_section_title
;
Structure prediction by ZEFSAII (Michael W. Deem and Ramdas Pophale) SiO2 
 PCOD9518019
Probable space group: I M M M
;
_chemical_formula_sum "Si O2"
_cell_formula_units_Z 72
_cell_length_a 22.159604
_cell_length_b 17.510110
_cell_length_c 8.164878
_cell_angle_alpha 90.000000
_cell_angle_beta 90.000000
_cell_angle_gamma 90.000000
_cell_volume 3168.112313
_symmetry_space_group_name_H-M "I M M M"
_symmetry_group_IT_number 71
_symmetry_cell_setting 'orthorhombic'
loop_
_space_group_symop_operation_xyz
x,y,z
-x,-y,z
x,-y,-z
-x,y,-z
-x,-y,-z
x,y,-z
-x,y,z
x,-y,z
1/2+x,1/2+y,1/2+z
1/2-x,1/2-y,1/2+z
1/2+x,1/2-y,1/2-z
1/2-x,1/2+y,1/2-z
1/2-x,1/2-y,1/2-z
1/2+x,1/2+y,1/2-z
1/2-x,1/2+y,1/2+z
1/2+x,1/2-y,1/2+z
loop_
_atom_site_type_symbol
_atom_site_label
_atom_site_fract_x
_atom_site_fract_y
_atom_site_fract_z
Si Si1 0.089920 0.000000 0.305929
Si Si2 0.726061 0.500000 0.308503
Si Si3 0.234371 0.164125 0.690409
Si Si4 0.426894 0.910502 0.500000
Si Si5 0.410213 0.338912 0.193431
Si Si6 0.930826 0.329823 0.314616
O O1 0.162938 0.000000 0.291666
O O2 0.068919 0.080576 0.234142
O O3 0.075526 0.000000 0.500000
O O4 0.711180 0.500000 0.500000
O O5 0.755809 0.583194 0.270160
O O6 0.250434 0.159782 0.500000
O O7 0.250000 0.250000 0.750000
O O8 0.161824 0.162566 0.708777
O O9 0.500000 0.894382 0.500000
O O10 0.401155 0.876700 0.668578
O O11 0.419067 0.000000 0.500000
O O12 0.432564 0.257180 0.248982
O O13 0.425505 0.340495 0.000000
O O14 0.904121 0.332102 0.500000
O O15 0.000000 0.356615 0.331404
#
# Coordination Sequence:
#
# PCOD9518019 Si02
#       6
#     8   8  16   8  16  16
#     4   8  14  28  47  68  97 131 164 200 238 274
#     4  10  18  30  48  73  99 125 166 208 244 293
#     4  10  19  33  52  73  99 130 166 206 252 297
#     4   9  18  32  50  73  97 125 165 210 250 292
#     4   8  15  29  49  71  98 129 160 198 241 287
#     4   9  17  31  51  74 100 131 164 200 247 298
#
# _framework density 22.726465000000001
#
# number of rings (size 3 to 8) (size 9 to 14) (size 15 to 20)
#    0.000    3.000    0.000    3.000    0.000    0.444 
#   10.000    2.778    2.444    3.333    0.000    2.333 
#    0.000    0.000    0.000    0.000    0.000    0.000 
#
# Total GULP energy -200433.593959 kJ/mol
# GULP energy per Si atom -5567.599832 kJ/mol
# Density = 2.267474 g / cm^3
# Si number density = 22.726465 Si / 1000 Ang^3
#
#
#
# Elastic Constant Matrix: (Units=GPa)
#
#
# Indices 1 2 3 4 5 6 
#
# 1 33.0578 26.7047 12.7250 0.0000 0.0000 0.0000
# 2 26.7047 160.0793 74.8165 0.0000 0.0000 0.0000
# 3 12.7250 74.8165 94.1813 0.0000 0.0000 0.0000
# 4 0.0000 0.0000 0.0000 62.7067 0.0000 0.0000
# 5 0.0000 0.0000 0.0000 0.0000 -19.7626 0.0000
# 6 0.0000 0.0000 0.0000 0.0000 0.0000 19.3468
#
#
#
# Elastic Compliance Matrix: (Units=1/GPa)
#
#
# Indices 1 2 3 4 5 6 
#
# 1 0.034963 -0.005765 -0.000144 0.000000 0.000000 0.000000
# 2 -0.005765 0.010886 -0.007869 0.000000 0.000000 0.000000
# 3 -0.000144 -0.007869 0.016888 0.000000 0.000000 0.000000
# 4 0.000000 0.000000 0.000000 0.015947 0.000000 0.000000
# 5 0.000000 0.000000 0.000000 0.000000 -0.050601 0.000000
# 6 0.000000 0.000000 0.000000 0.000000 0.000000 0.051688
#
#
# Mechanical properties :
#
#
# Convention : Reuss Voigt Hill
#
# Bulk Modulus (GPa) = 28.42460 57.31233 42.86847
# Shear Modulus (GPa) = 41.99697 23.99631 32.99664
#
# Velocity S-wave (km/s) = 4.30342 3.25295 3.81452
# Velocity P-wave (km/s) = 6.10139 6.27551 6.18906
#
# Compressibility (1/GPa) = 0.03518079
#
# Stress axis : x y z
#
# Youngs Moduli (GPa) = 28.60191 91.85709 59.21210
#
# Poissons Ratio (x) = 0.52957 0.00853
# Poissons Ratio (y) = 0.16490 0.46595
# Poissons Ratio (z) = 0.00412 0.72284
#
# Static dielectric constant tensor:
#      x y z
#    x 1.880100 0.000000 0.000000 
#    y 0.000000 1.811140 0.000000 
#    z 0.000000 0.000000 1.851870 
# 
# From -- ./inp_files/14356.got.cif
#   From: 2010.05.17/outbox.cif.g08.bks.cpg/sg71_8_cif.got.tgz:14356.got - 2010.06.03 16:22:01.
