data_PCOD9518540
_publ_section_title
;
Structure prediction by ZEFSAII (Michael W. Deem and Ramdas Pophale) SiO2 
 PCOD9518540
Probable space group: I M M M
;
_chemical_formula_sum "Si O2"
_cell_formula_units_Z 88
_cell_length_a 7.652084
_cell_length_b 28.720746
_cell_length_c 20.074317
_cell_angle_alpha 90.000000
_cell_angle_beta 90.000000
_cell_angle_gamma 90.000000
_cell_volume 4411.804130
_symmetry_space_group_name_H-M "I M M M"
_symmetry_group_IT_number 71
_symmetry_cell_setting 'orthorhombic'
loop_
_space_group_symop_operation_xyz
x,y,z
-x,-y,z
x,-y,-z
-x,y,-z
-x,-y,-z
x,y,-z
-x,y,z
x,-y,z
1/2+x,1/2+y,1/2+z
1/2-x,1/2-y,1/2+z
1/2+x,1/2-y,1/2-z
1/2-x,1/2+y,1/2-z
1/2-x,1/2-y,1/2-z
1/2+x,1/2+y,1/2-z
1/2-x,1/2+y,1/2+z
1/2+x,1/2-y,1/2+z
loop_
_atom_site_type_symbol
_atom_site_label
_atom_site_fract_x
_atom_site_fract_y
_atom_site_fract_z
Si Si1 0.709628 0.085001 0.328075
Si Si2 0.789273 0.371359 0.424809
Si Si3 0.713783 0.052863 0.182004
Si Si4 0.297570 0.186404 0.316795
Si Si5 0.792110 0.000000 0.575269
Si Si6 0.708025 0.289430 0.330284
O O1 0.500000 0.089355 0.322016
O O2 0.773170 0.067542 0.255853
O O3 0.778872 0.137277 0.340843
O O4 0.742565 0.046040 0.383287
O O5 0.724564 0.376806 0.500000
O O6 0.726211 0.410982 0.373845
O O7 0.742460 0.321810 0.392981
O O8 0.000000 0.374470 0.426338
O O9 0.500000 0.053735 0.182564
O O10 0.766903 0.000000 0.168062
O O11 0.500000 0.187228 0.338005
O O12 0.222593 0.236631 0.337463
O O13 0.288869 0.187530 0.236074
O O14 0.720015 0.000000 0.500000
O O15 0.000000 0.000000 0.571025
O O16 0.500000 0.286940 0.318021
#
# Coordination Sequence:
#
# PCOD9518540 Si02
#       6
#    16  16  16  16   8  16
#     4  10  18  34  60  83 104 136 180 226 264 311
#     4  10  20  34  52  74 107 149 184 221 270 320
#     4   9  16  29  52  80 104 130 173 226 265 300
#     4   9  18  33  54  80 108 136 174 225 269 313
#     4  11  25  41  55  79 116 145 168 212 274 336
#     4  10  19  31  51  79 109 141 176 221 274 321
#
# _framework density 19.946490000000001
#
# number of rings (size 3 to 8) (size 9 to 14) (size 15 to 20)
#    0.000    2.273    2.727    0.818    0.000    2.909 
#    0.000    2.727    0.000    5.455    0.000    1.273 
#    0.000    0.000    0.000    0.000    0.000    0.000 
#
# Total GULP energy -245515.370811 kJ/mol
# GULP energy per Si atom -5579.894791 kJ/mol
# Density = 1.990109 g / cm^3
# Si number density = 19.946490 Si / 1000 Ang^3
#
#
#
# Elastic Constant Matrix: (Units=GPa)
#
#
# Indices 1 2 3 4 5 6 
#
# 1 37.9710 0.9025 -5.2403 0.0000 0.0000 0.0000
# 2 0.9025 192.2958 91.2070 0.0000 0.0000 0.0000
# 3 -5.2403 91.2070 136.7214 0.0000 0.0000 0.0000
# 4 0.0000 0.0000 0.0000 19.4487 0.0000 0.0000
# 5 0.0000 0.0000 0.0000 0.0000 11.9405 0.0000
# 6 0.0000 0.0000 0.0000 0.0000 0.0000 11.7187
#
#
#
# Elastic Compliance Matrix: (Units=1/GPa)
#
#
# Indices 1 2 3 4 5 6 
#
# 1 0.026579 -0.000889 0.001612 0.000000 0.000000 0.000000
# 2 -0.000889 0.007637 -0.005129 0.000000 0.000000 0.000000
# 3 0.001612 -0.005129 0.010797 0.000000 0.000000 0.000000
# 4 0.000000 0.000000 0.000000 0.051417 0.000000 0.000000
# 5 0.000000 0.000000 0.000000 0.000000 0.083748 0.000000
# 6 0.000000 0.000000 0.000000 0.000000 0.000000 0.085334
#
#
# Mechanical properties :
#
#
# Convention : Reuss Voigt Hill
#
# Bulk Modulus (GPa) = 27.62300 60.08073 43.85187
# Shear Modulus (GPa) = 17.45851 27.29617 22.37734
#
# Velocity S-wave (km/s) = 2.96170 3.70330 3.35306
# Velocity P-wave (km/s) = 5.05709 6.96220 6.08467
#
# Compressibility (1/GPa) = 0.03620171
#
# Stress axis : x y z
#
# Youngs Moduli (GPa) = 37.62299 130.93934 92.61516
#
# Poissons Ratio (x) = 0.11645 -0.14930
# Poissons Ratio (y) = 0.03346 0.47501
# Poissons Ratio (z) = -0.06065 0.67156
#
# Static dielectric constant tensor:
#      x y z
#    x 1.768170 0.000000 0.000000 
#    y 0.000000 1.739930 0.000000 
#    z 0.000000 0.000000 1.666410 
# 
# From -- ./inp_files/8800.got.cif
#   From: 2010.05.17/outbox.cif.g08.bks.cpg/sg71_5_cif.got.tgz:8800.got - 2010.06.03 16:22:01.
