data_PCOD9518502
_publ_section_title
;
Structure prediction by ZEFSAII (Michael W. Deem and Ramdas Pophale) SiO2 
 PCOD9518502
Probable space group: I M M M
;
_chemical_formula_sum "Si O2"
_cell_formula_units_Z 104
_cell_length_a 18.808512
_cell_length_b 17.414650
_cell_length_c 17.007675
_cell_angle_alpha 90.000000
_cell_angle_beta 90.000000
_cell_angle_gamma 90.000000
_cell_volume 5570.756007
_symmetry_space_group_name_H-M "I M M M"
_symmetry_group_IT_number 71
_symmetry_cell_setting 'orthorhombic'
loop_
_space_group_symop_operation_xyz
x,y,z
-x,-y,z
x,-y,-z
-x,y,-z
-x,-y,-z
x,y,-z
-x,y,z
x,-y,z
1/2+x,1/2+y,1/2+z
1/2-x,1/2-y,1/2+z
1/2+x,1/2-y,1/2-z
1/2-x,1/2+y,1/2-z
1/2-x,1/2-y,1/2-z
1/2+x,1/2+y,1/2-z
1/2-x,1/2+y,1/2+z
1/2+x,1/2-y,1/2+z
loop_
_atom_site_type_symbol
_atom_site_label
_atom_site_fract_x
_atom_site_fract_y
_atom_site_fract_z
Si Si1 0.000000 0.087063 0.311642
Si Si2 0.282165 0.697010 0.086568
Si Si3 0.367053 0.151408 0.912703
Si Si4 0.140929 0.848745 0.248758
Si Si5 0.214122 0.416776 0.713845
Si Si6 0.000000 0.247195 0.595014
Si Si7 0.500000 0.907513 0.404732
Si Si8 0.365948 0.187909 0.337739
O O1 0.928430 0.100036 0.261600
O O2 0.000000 0.161472 0.370061
O O3 0.000000 0.000000 0.344808
O O4 0.304616 0.785593 0.084651
O O5 0.323985 0.664945 0.163493
O O6 0.197854 0.692417 0.098942
O O7 0.302852 0.664378 0.000000
O O8 0.334656 0.083865 0.862803
O O9 0.432621 0.201630 0.879995
O O10 0.387587 0.127342 0.000000
O O11 0.205727 0.888082 0.202283
O O12 0.119766 0.771131 0.201772
O O13 0.216999 0.500000 0.751850
O O14 0.172479 0.358244 0.768444
O O15 0.000000 0.240689 0.500000
O O16 0.500000 0.902815 0.500000
O O17 0.567966 0.861029 0.370227
O O18 0.500000 0.000000 0.384731
#
# Coordination Sequence:
#
# PCOD9518502 Si02
#       8
#     8  16  16  16  16   8   8  16
#     4  12  23  34  51  77 111 146 180 228 287 333
#     4  10  18  33  60  85 108 138 187 236 274 325
#     4  10  19  35  58  83 111 150 189 228 280 340
#     4  11  21  38  56  83 112 149 195 235 275 337
#     4  11  21  36  57  85 117 148 185 239 291 337
#     4  10  20  36  57  80 110 145 183 227 274 336
#     4  11  25  42  59  86 121 150 185 240 297 339
#     4  11  20  38  60  84 108 151 195 231 273 343
#
# _framework density 18.66892
#
# number of rings (size 3 to 8) (size 9 to 14) (size 15 to 20)
#    0.000    1.308    4.615    2.769    0.000    1.077 
#    0.000    1.154    0.000   10.154    0.000    0.000 
#    0.000    4.923    0.000    0.000    0.000    0.000 
#
# Total GULP energy -289574.488383 kJ/mol
# GULP energy per Si atom -5568.740161 kJ/mol
# Density = 1.862643 g / cm^3
# Si number density = 18.668920 Si / 1000 Ang^3
#
#
#
# Elastic Constant Matrix: (Units=GPa)
#
#
# Indices 1 2 3 4 5 6 
#
# 1 133.4442 36.3297 22.0468 0.0000 0.0000 0.0000
# 2 36.3297 81.2855 12.0582 0.0000 0.0000 0.0000
# 3 22.0468 12.0582 47.8872 0.0000 0.0000 0.0000
# 4 0.0000 0.0000 0.0000 5.9120 0.0000 0.0000
# 5 0.0000 0.0000 0.0000 0.0000 18.2614 0.0000
# 6 0.0000 0.0000 0.0000 0.0000 0.0000 3.5703
#
#
#
# Elastic Compliance Matrix: (Units=1/GPa)
#
#
# Indices 1 2 3 4 5 6 
#
# 1 0.008994 -0.003538 -0.003250 0.000000 0.000000 0.000000
# 2 -0.003538 0.014171 -0.001940 0.000000 0.000000 0.000000
# 3 -0.003250 -0.001940 0.022867 0.000000 0.000000 0.000000
# 4 0.000000 0.000000 0.000000 0.169148 0.000000 0.000000
# 5 0.000000 0.000000 0.000000 0.000000 0.054760 0.000000
# 6 0.000000 0.000000 0.000000 0.000000 0.000000 0.280092
#
#
# Mechanical properties :
#
#
# Convention : Reuss Voigt Hill
#
# Bulk Modulus (GPa) = 34.99233 44.83182 39.91208
# Shear Modulus (GPa) = 8.66533 18.36088 13.51310
#
# Velocity S-wave (km/s) = 2.15677 3.13948 2.69333
# Velocity P-wave (km/s) = 4.99865 6.09984 5.57650
#
# Compressibility (1/GPa) = 0.02857769
#
# Stress axis : x y z
#
# Youngs Moduli (GPa) = 111.18788 70.56592 43.73106
#
# Poissons Ratio (x) = 0.24963 0.14212
# Poissons Ratio (y) = 0.39334 0.08482
# Poissons Ratio (z) = 0.36135 0.13688
#
# Static dielectric constant tensor:
#      x y z
#    x 1.666660 0.000000 0.000000 
#    y 0.000000 1.630540 0.000000 
#    z 0.000000 0.000000 1.730190 
# 
# From -- ./inp_files/46201.got.cif
#   From: 2010.05.17/outbox.cif.g08.bks.cpg/sg71_24_cif.got.tgz:46201.got - 2010.06.03 16:22:01.
