data_PCOD9518353
_publ_section_title
;
Structure prediction by ZEFSAII (Michael W. Deem and Ramdas Pophale) SiO2 
 PCOD9518353
Probable space group: I M M M
;
_chemical_formula_sum "Si O2"
_cell_formula_units_Z 96
_cell_length_a 13.789686
_cell_length_b 20.960826
_cell_length_c 16.339153
_cell_angle_alpha 90.000000
_cell_angle_beta 90.000000
_cell_angle_gamma 90.000000
_cell_volume 4722.721213
_symmetry_space_group_name_H-M "I M M M"
_symmetry_group_IT_number 71
_symmetry_cell_setting 'orthorhombic'
loop_
_space_group_symop_operation_xyz
x,y,z
-x,-y,z
x,-y,-z
-x,y,-z
-x,-y,-z
x,y,-z
-x,y,z
x,-y,z
1/2+x,1/2+y,1/2+z
1/2-x,1/2-y,1/2+z
1/2+x,1/2-y,1/2-z
1/2-x,1/2+y,1/2-z
1/2-x,1/2-y,1/2-z
1/2+x,1/2+y,1/2-z
1/2-x,1/2+y,1/2+z
1/2+x,1/2-y,1/2+z
loop_
_atom_site_type_symbol
_atom_site_label
_atom_site_fract_x
_atom_site_fract_y
_atom_site_fract_z
Si Si1 0.891360 0.374899 0.257832
Si Si2 0.313680 0.922665 0.590980
Si Si3 0.106499 0.073270 0.347820
Si Si4 0.388578 0.758830 0.500000
Si Si5 0.611159 0.397087 0.500000
Si Si6 0.883929 0.246568 0.824435
Si Si7 0.689696 0.396337 0.676293
O O1 0.880907 0.401571 0.165585
O O2 0.873567 0.298982 0.245791
O O3 0.803848 0.404922 0.308448
O O4 0.000000 0.385708 0.288405
O O5 0.344701 0.902992 0.500000
O O6 0.203241 0.899607 0.609919
O O7 0.311286 0.000000 0.592612
O O8 0.130454 0.072875 0.250932
O O9 0.000000 0.103083 0.361788
O O10 0.100623 0.000000 0.375822
O O11 0.500000 0.781262 0.500000
O O12 0.388348 0.680789 0.500000
O O13 0.346137 0.774676 0.411273
O O14 0.500000 0.417767 0.500000
O O15 0.659333 0.416568 0.585565
O O16 0.834914 0.178778 0.812333
O O17 0.000000 0.235242 0.833979
#
# Coordination Sequence:
#
# PCOD9518353 Si02
#       7
#    16  16  16   8   8  16  16
#     4  10  21  32  46  69  96 127 166 205 240 283
#     4   9  19  34  50  71  99 131 167 205 244 285
#     4   9  17  30  50  75 102 130 159 196 245 299
#     4   7  12  22  38  64  92 114 143 182 225 274
#     4   9  16  28  50  73  90 115 151 188 234 292
#     4   9  16  27  46  71  95 122 156 198 246 293
#     4  10  18  32  49  70  98 127 159 199 245 293
#
# _framework density 20.327265000000001
#
# number of rings (size 3 to 8) (size 9 to 14) (size 15 to 20)
#    0.000    2.833    0.000    3.000    1.167    1.000 
#    0.000    3.333    0.000    1.500    0.000    0.000 
#    0.000    5.333    0.000    0.000    0.000    0.000 
#
# Total GULP energy -267596.091951 kJ/mol
# GULP energy per Si atom -5574.918582 kJ/mol
# Density = 2.028100 g / cm^3
# Si number density = 20.327265 Si / 1000 Ang^3
#
#
#
# Elastic Constant Matrix: (Units=GPa)
#
#
# Indices 1 2 3 4 5 6 
#
# 1 98.1248 9.7874 15.5716 0.0000 0.0000 0.0000
# 2 9.7874 32.4558 2.2144 0.0000 0.0000 0.0000
# 3 15.5716 2.2144 65.1056 0.0000 0.0000 0.0000
# 4 0.0000 0.0000 0.0000 14.3709 0.0000 0.0000
# 5 0.0000 0.0000 0.0000 0.0000 10.8936 0.0000
# 6 0.0000 0.0000 0.0000 0.0000 0.0000 15.7266
#
#
#
# Elastic Compliance Matrix: (Units=1/GPa)
#
#
# Indices 1 2 3 4 5 6 
#
# 1 0.010899 -0.003116 -0.002501 0.000000 0.000000 0.000000
# 2 -0.003116 0.031774 -0.000335 0.000000 0.000000 0.000000
# 3 -0.002501 -0.000335 0.015969 0.000000 0.000000 0.000000
# 4 0.000000 0.000000 0.000000 0.069585 0.000000 0.000000
# 5 0.000000 0.000000 0.000000 0.000000 0.091797 0.000000
# 6 0.000000 0.000000 0.000000 0.000000 0.000000 0.063586
#
#
# Mechanical properties :
#
#
# Convention : Reuss Voigt Hill
#
# Bulk Modulus (GPa) = 21.39618 27.87033 24.63326
# Shear Modulus (GPa) = 16.07235 19.40575 17.73905
#
# Velocity S-wave (km/s) = 2.81495 3.09312 2.95731
# Velocity P-wave (km/s) = 4.59500 5.14753 4.87909
#
# Compressibility (1/GPa) = 0.04673731
#
# Stress axis : x y z
#
# Youngs Moduli (GPa) = 91.75358 31.47254 62.62060
#
# Poissons Ratio (x) = 0.09807 0.15660
# Poissons Ratio (y) = 0.28591 0.02100
# Poissons Ratio (z) = 0.22945 0.01056
#
# Static dielectric constant tensor:
#      x y z
#    x 1.719100 0.000000 0.000000 
#    y 0.000000 1.800900 0.000000 
#    z 0.000000 0.000000 1.738110 
# 
# From -- ./inp_files/34795.got.cif
#   From: 2010.05.17/outbox.cif.g08.bks.cpg/sg71_18_cif.got.tgz:34795.got - 2010.06.03 16:22:01.
