data_PCOD9518690
_publ_section_title
;
Structure prediction by ZEFSAII (Michael W. Deem and Ramdas Pophale) SiO2 
 PCOD9518690
Probable space group: I M M M
;
_chemical_formula_sum "Si O2"
_cell_formula_units_Z 88
_cell_length_a 20.877366
_cell_length_b 27.698784
_cell_length_c 8.873458
_cell_angle_alpha 90.000000
_cell_angle_beta 90.000000
_cell_angle_gamma 90.000000
_cell_volume 5131.322451
_symmetry_space_group_name_H-M "I M M M"
_symmetry_group_IT_number 71
_symmetry_cell_setting 'orthorhombic'
loop_
_space_group_symop_operation_xyz
x,y,z
-x,-y,z
x,-y,-z
-x,y,-z
-x,-y,-z
x,y,-z
-x,y,z
x,-y,z
1/2+x,1/2+y,1/2+z
1/2-x,1/2-y,1/2+z
1/2+x,1/2-y,1/2-z
1/2-x,1/2+y,1/2-z
1/2-x,1/2-y,1/2-z
1/2+x,1/2+y,1/2-z
1/2-x,1/2+y,1/2+z
1/2+x,1/2-y,1/2+z
loop_
_atom_site_type_symbol
_atom_site_label
_atom_site_fract_x
_atom_site_fract_y
_atom_site_fract_z
Si Si1 0.866415 0.328780 0.319807
Si Si2 0.237133 0.861982 0.682008
Si Si3 0.500000 0.829357 0.674504
Si Si4 0.360455 0.555535 0.184250
Si Si5 0.632980 0.283836 0.180916
Si Si6 0.000000 0.941055 0.673192
Si Si7 0.000000 0.211891 0.826322
O O1 0.867531 0.330956 0.500000
O O2 0.806477 0.357552 0.254531
O O3 0.858189 0.272139 0.274950
O O4 0.934740 0.345209 0.254825
O O5 0.243176 0.861695 0.500000
O O6 0.196368 0.908938 0.727511
O O7 0.192990 0.816323 0.726987
O O8 0.500000 0.843370 0.500000
O O9 0.500000 0.770652 0.681649
O O10 0.349980 0.500000 0.229111
O O11 0.430974 0.572138 0.240057
O O12 0.363945 0.556179 0.000000
O O13 0.565912 0.302861 0.246849
O O14 0.628064 0.285850 0.000000
O O15 0.000000 0.923458 0.500000
O O16 0.000000 0.000000 0.668111
O O17 0.000000 0.197382 0.000000
#
# Coordination Sequence:
#
# PCOD9518690 Si02
#       7
#    16  16   8  16  16   8   8
#     4  10  19  31  46  65  92 123 152 183 223 269
#     4  10  19  29  44  67  92 120 154 189 227 269
#     4   9  17  31  50  68  87 114 151 189 222 264
#     4   8  14  25  42  65  91 117 149 192 235 268
#     4   9  18  30  43  62  91 124 155 189 225 263
#     4   7  10  19  36  58  85 115 145 180 223 262
#     4   9  17  28  44  64  87 120 157 191 226 264
#
# _framework density 17.149574999999999
#
# number of rings (size 3 to 8) (size 9 to 14) (size 15 to 20)
#    0.000    3.000    0.000    2.727    0.000    4.364 
#    0.000    2.727    0.000    0.545    0.000    0.636 
#    0.000    8.000    0.000    0.000    0.000    0.000 
#
# Total GULP energy -245227.438566 kJ/mol
# GULP energy per Si atom -5573.350876 kJ/mol
# Density = 1.711054 g / cm^3
# Si number density = 17.149575 Si / 1000 Ang^3
#
#
#
# Elastic Constant Matrix: (Units=GPa)
#
#
# Indices 1 2 3 4 5 6 
#
# 1 192.9115 61.0251 43.0454 0.0000 0.0000 0.0000
# 2 61.0251 55.9608 17.3832 0.0000 0.0000 0.0000
# 3 43.0454 17.3832 18.3205 0.0000 0.0000 0.0000
# 4 0.0000 0.0000 0.0000 7.6867 0.0000 0.0000
# 5 0.0000 0.0000 0.0000 0.0000 25.9350 0.0000
# 6 0.0000 0.0000 0.0000 0.0000 0.0000 -16.3008
#
#
#
# Elastic Compliance Matrix: (Units=1/GPa)
#
#
# Indices 1 2 3 4 5 6 
#
# 1 0.012277 -0.006278 -0.022889 0.000000 0.000000 0.000000
# 2 -0.006278 0.028548 -0.012337 0.000000 0.000000 0.000000
# 3 -0.022889 -0.012337 0.120068 0.000000 0.000000 0.000000
# 4 0.000000 0.000000 0.000000 0.130095 0.000000 0.000000
# 5 0.000000 0.000000 0.000000 0.000000 0.038558 0.000000
# 6 0.000000 0.000000 0.000000 0.000000 0.000000 -0.061347
#
#
# Mechanical properties :
#
#
# Convention : Reuss Voigt Hill
#
# Bulk Modulus (GPa) = 12.83930 56.67779 34.75854
# Shear Modulus (GPa) = 13.25667 13.18012 13.21840
#
# Velocity S-wave (km/s) = 2.78331 2.77526 2.77929
# Velocity P-wave (km/s) = 4.22279 6.58713 5.53273
#
# Compressibility (1/GPa) = 0.07788589
#
# Stress axis : x y z
#
# Youngs Moduli (GPa) = 81.45299 35.02872 8.32861
#
# Poissons Ratio (x) = 0.21991 0.19063
# Poissons Ratio (y) = 0.51137 0.10275
# Poissons Ratio (z) = 1.86437 0.43214
#
# Static dielectric constant tensor:
#      x y z
#    x 1.580460 0.000000 0.000000 
#    y 0.000000 1.588100 0.000000 
#    z 0.000000 0.000000 1.572580 
# 
# From -- ./inp_files/8898.got.cif
#   From: 2010.05.17/outbox.cif.g08.bks.cpg/sg71_5_cif.got.tgz:8898.got - 2010.06.03 16:22:01.
