data_PCOD9518209
_publ_section_title
;
Structure prediction by ZEFSAII (Michael W. Deem and Ramdas Pophale) SiO2 
 PCOD9518209
Probable space group: I M M M
;
_chemical_formula_sum "Si O2"
_cell_formula_units_Z 88
_cell_length_a 7.438757
_cell_length_b 18.354200
_cell_length_c 28.549496
_cell_angle_alpha 90.000000
_cell_angle_beta 90.000000
_cell_angle_gamma 90.000000
_cell_volume 3897.932171
_symmetry_space_group_name_H-M "I M M M"
_symmetry_group_IT_number 71
_symmetry_cell_setting 'orthorhombic'
loop_
_space_group_symop_operation_xyz
x,y,z
-x,-y,z
x,-y,-z
-x,y,-z
-x,-y,-z
x,y,-z
-x,y,z
x,-y,z
1/2+x,1/2+y,1/2+z
1/2-x,1/2-y,1/2+z
1/2+x,1/2-y,1/2-z
1/2-x,1/2+y,1/2-z
1/2-x,1/2-y,1/2-z
1/2+x,1/2+y,1/2-z
1/2-x,1/2+y,1/2+z
1/2+x,1/2-y,1/2+z
loop_
_atom_site_type_symbol
_atom_site_label
_atom_site_fract_x
_atom_site_fract_y
_atom_site_fract_z
Si Si1 0.219403 0.581978 0.644578
Si Si2 0.284851 0.678341 0.913216
Si Si3 0.279994 0.417327 0.000000
Si Si4 0.214684 0.581641 0.176316
Si Si5 0.280252 0.837262 0.053812
Si Si6 0.784654 0.667340 0.734282
O O1 0.274213 0.500000 0.657215
O O2 0.275335 0.603392 0.592124
O O3 0.279741 0.640703 0.683400
O O4 0.000000 0.583175 0.644558
O O5 0.500000 0.682237 0.916927
O O6 0.247143 0.641357 0.863713
O O7 0.221116 0.759412 0.924922
O O8 0.219737 0.624800 0.953937
O O9 0.220344 0.500000 0.000000
O O10 0.500000 0.417202 0.000000
O O11 0.282820 0.500000 0.165073
O O12 0.284117 0.613047 0.225402
O O13 0.000000 0.575918 0.180538
O O14 0.500000 0.837282 0.052524
O O15 0.221205 0.846157 0.000000
O O16 0.750000 0.750000 0.750000
O O17 0.000000 0.660296 0.732875
#
# Coordination Sequence:
#
# PCOD9518209 Si02
#       6
#    16  16   8  16  16  16
#     4   9  17  29  47  71  99 132 167 201 244 301
#     4  10  18  31  50  73 100 131 170 212 251 296
#     4   9  16  26  43  67  94 126 164 207 253 295
#     4  10  21  35  50  71 103 138 168 204 251 300
#     4   9  16  27  45  71 100 128 161 206 255 297
#     4  10  20  35  54  76 101 131 168 207 249 298
#
# _framework density 22.576072
#
# number of rings (size 3 to 8) (size 9 to 14) (size 15 to 20)
#    0.000    2.455    0.909    2.182    0.000    5.818 
#    0.000    2.273    0.000    3.273    0.000    0.000 
#    0.000    0.000    0.000    7.636    0.000    7.273 
#
# Total GULP energy -245764.492059 kJ/mol
# GULP energy per Si atom -5585.556638 kJ/mol
# Density = 2.252469 g / cm^3
# Si number density = 22.576072 Si / 1000 Ang^3
#
#
#
# Elastic Constant Matrix: (Units=GPa)
#
#
# Indices 1 2 3 4 5 6 
#
# 1 67.7203 -0.8584 0.9100 0.0000 0.0000 0.0000
# 2 -0.8584 117.0987 62.6331 0.0000 0.0000 0.0000
# 3 0.9100 62.6331 177.6701 0.0000 0.0000 0.0000
# 4 0.0000 0.0000 0.0000 46.3998 0.0000 0.0000
# 5 0.0000 0.0000 0.0000 0.0000 4.1188 0.0000
# 6 0.0000 0.0000 0.0000 0.0000 0.0000 7.4690
#
#
#
# Elastic Compliance Matrix: (Units=1/GPa)
#
#
# Indices 1 2 3 4 5 6 
#
# 1 0.014771 0.000183 -0.000140 0.000000 0.000000 0.000000
# 2 0.000183 0.010526 -0.003712 0.000000 0.000000 0.000000
# 3 -0.000140 -0.003712 0.006938 0.000000 0.000000 0.000000
# 4 0.000000 0.000000 0.000000 0.021552 0.000000 0.000000
# 5 0.000000 0.000000 0.000000 0.000000 0.242788 0.000000
# 6 0.000000 0.000000 0.000000 0.000000 0.000000 0.133888
#
#
# Mechanical properties :
#
#
# Convention : Reuss Voigt Hill
#
# Bulk Modulus (GPa) = 40.16481 54.20653 47.18567
# Shear Modulus (GPa) = 11.20828 31.58446 21.39637
#
# Velocity S-wave (km/s) = 2.23057 3.74441 3.08189
# Velocity P-wave (km/s) = 4.94605 6.53887 5.79743
#
# Compressibility (1/GPa) = 0.02489742
#
# Stress axis : x y z
#
# Youngs Moduli (GPa) = 67.70104 94.99839 144.14156
#
# Poissons Ratio (x) = -0.01741 0.02022
# Poissons Ratio (y) = -0.01241 0.53502
# Poissons Ratio (z) = 0.00950 0.35261
#
# Static dielectric constant tensor:
#      x y z
#    x 1.888620 0.000000 0.000000 
#    y 0.000000 1.809210 0.000000 
#    z 0.000000 0.000000 1.813770 
# 
# From -- ./inp_files/25676.got.cif
#   From: 2010.05.17/outbox.cif.g08.bks.cpg/sg71_13_cif.got.tgz:25676.got - 2010.06.03 16:22:01.
