data_PCOD9518195
_publ_section_title
;
Structure prediction by ZEFSAII (Michael W. Deem and Ramdas Pophale) SiO2 
 PCOD9518195
Probable space group: I M M M
;
_chemical_formula_sum "Si O2"
_cell_formula_units_Z 100
_cell_length_a 7.434214
_cell_length_b 21.813923
_cell_length_c 31.923445
_cell_angle_alpha 90.000000
_cell_angle_beta 90.000000
_cell_angle_gamma 90.000000
_cell_volume 5177.005020
_symmetry_space_group_name_H-M "I M M M"
_symmetry_group_IT_number 71
_symmetry_cell_setting 'orthorhombic'
loop_
_space_group_symop_operation_xyz
x,y,z
-x,-y,z
x,-y,-z
-x,y,-z
-x,-y,-z
x,y,-z
-x,y,z
x,-y,z
1/2+x,1/2+y,1/2+z
1/2-x,1/2-y,1/2+z
1/2+x,1/2-y,1/2-z
1/2-x,1/2+y,1/2-z
1/2-x,1/2-y,1/2-z
1/2+x,1/2+y,1/2-z
1/2-x,1/2+y,1/2+z
1/2+x,1/2-y,1/2+z
loop_
_atom_site_type_symbol
_atom_site_label
_atom_site_fract_x
_atom_site_fract_y
_atom_site_fract_z
Si Si1 0.717186 0.636417 0.173006
Si Si2 0.717818 0.192453 0.453168
Si Si3 0.718551 0.570935 0.743133
Si Si4 0.789838 0.740047 0.368553
Si Si5 0.500000 0.500000 0.625706
Si Si6 0.712995 0.932057 0.587941
Si Si7 0.708951 0.103223 0.148174
O O1 0.500000 0.639037 0.174191
O O2 0.778352 0.612183 0.217899
O O3 0.785867 0.703261 0.158687
O O4 0.763621 0.588918 0.136038
O O5 0.776936 0.207948 0.500000
O O6 0.500000 0.191265 0.452827
O O7 0.773495 0.238682 0.416646
O O8 0.782988 0.124570 0.439635
O O9 0.500000 0.572466 0.741109
O O10 0.769624 0.500000 0.749896
O O11 0.786580 0.592658 0.698263
O O12 0.721576 0.671950 0.361029
O O13 0.000000 0.736588 0.357576
O O14 0.341853 0.553387 0.628754
O O15 0.500000 0.935098 0.579602
O O16 0.787805 0.000000 0.580796
O O17 0.500000 0.097128 0.134134
#
# Coordination Sequence:
#
# PCOD9518195 Si02
#       7
#    16  16  16  16   4  16  16
#     4   9  18  32  50  71 104 144 184 227 270 318
#     4   9  18  32  52  76 102 137 180 223 271 328
#     4  10  18  31  49  74 106 144 187 229 272 315
#     4   9  20  36  53  79 108 139 176 218 272 327
#     4  12  22  40  60  86 109 146 180 220 277 320
#     4   9  17  29  44  68 103 141 185 231 274 316
#     4  11  22  37  58  83 113 143 182 227 269 326
#
# _framework density 19.316188
#
# number of rings (size 3 to 8) (size 9 to 14) (size 15 to 20)
#    0.000    2.400    1.600    0.720    1.120    2.880 
#    0.000    1.600    0.000    0.000    0.000    5.600 
#    0.000    2.560    0.000    0.000    0.000    0.000 
#
# Total GULP energy -278440.320535 kJ/mol
# GULP energy per Si atom -5568.806411 kJ/mol
# Density = 1.927222 g / cm^3
# Si number density = 19.316188 Si / 1000 Ang^3
#
#
#
# Elastic Constant Matrix: (Units=GPa)
#
#
# Indices 1 2 3 4 5 6 
#
# 1 75.2975 25.8506 13.0305 0.0000 0.0000 0.0000
# 2 25.8506 176.7837 42.4539 0.0000 0.0000 0.0000
# 3 13.0305 42.4539 -2.3087 0.0000 0.0000 0.0000
# 4 0.0000 0.0000 0.0000 7.6687 0.0000 0.0000
# 5 0.0000 0.0000 0.0000 0.0000 20.0130 0.0000
# 6 0.0000 0.0000 0.0000 0.0000 0.0000 42.9386
#
#
#
# Elastic Compliance Matrix: (Units=1/GPa)
#
#
# Indices 1 2 3 4 5 6 
#
# 1 0.013291 -0.003685 0.007252 0.000000 0.000000 0.000000
# 2 -0.003685 0.002066 0.017195 0.000000 0.000000 0.000000
# 3 0.007252 0.017195 -0.076018 0.000000 0.000000 0.000000
# 4 0.000000 0.000000 0.000000 0.130399 0.000000 0.000000
# 5 0.000000 0.000000 0.000000 0.000000 0.049968 0.000000
# 6 0.000000 0.000000 0.000000 0.000000 0.000000 0.023289
#
#
# Mechanical properties :
#
#
# Convention : Reuss Voigt Hill
#
# Bulk Modulus (GPa) = -52.25366 45.82692 -3.21337
# Shear Modulus (GPa) = 52.58090 25.35323 38.96706
#
# Velocity S-wave (km/s) = 5.22305 3.62683 4.49634
# Velocity P-wave (km/s) = 3.04355 6.42765 5.02881
#
# Compressibility (1/GPa) = -0.01913742
#
# Stress axis : x y z
#
# Youngs Moduli (GPa) = 75.24005 483.99003 -13.15472
#
# Poissons Ratio (x) = 1.78350 0.09540
# Poissons Ratio (y) = 0.27726 0.22620
# Poissons Ratio (z) = -0.54564 -8.32224
#
# Static dielectric constant tensor:
#      x y z
#    x 1.734550 0.000000 0.000000 
#    y 0.000000 1.679550 0.000000 
#    z 0.000000 0.000000 1.641320 
# 
# From -- ./inp_files/63325.got.cif
#   From: 2010.05.17/outbox.cif.g08.bks.cpg/sg71_32_cif.got.tgz:63325.got - 2010.06.03 16:22:01.
