data_PCOD9518986
_publ_section_title
;
Structure prediction by ZEFSAII (Michael W. Deem and Ramdas Pophale) SiO2 
 PCOD9518986
Probable space group: I M M M
;
_chemical_formula_sum "Si O2"
_cell_formula_units_Z 120
_cell_length_a 14.669949
_cell_length_b 22.962075
_cell_length_c 20.499924
_cell_angle_alpha 90.000000
_cell_angle_beta 90.000000
_cell_angle_gamma 90.000000
_cell_volume 6905.450017
_symmetry_space_group_name_H-M "I M M M"
_symmetry_group_IT_number 71
_symmetry_cell_setting 'orthorhombic'
loop_
_space_group_symop_operation_xyz
x,y,z
-x,-y,z
x,-y,-z
-x,y,-z
-x,-y,-z
x,y,-z
-x,y,z
x,-y,z
1/2+x,1/2+y,1/2+z
1/2-x,1/2-y,1/2+z
1/2+x,1/2-y,1/2-z
1/2-x,1/2+y,1/2-z
1/2-x,1/2-y,1/2-z
1/2+x,1/2+y,1/2-z
1/2-x,1/2+y,1/2+z
1/2+x,1/2-y,1/2+z
loop_
_atom_site_type_symbol
_atom_site_label
_atom_site_fract_x
_atom_site_fract_y
_atom_site_fract_z
Si Si1 0.898098 0.189249 0.069083
Si Si2 0.388073 0.755292 0.298946
Si Si3 0.793539 0.176827 0.312005
Si Si4 0.821529 0.629418 0.578530
Si Si5 0.000000 0.435128 0.579361
Si Si6 0.641712 0.567238 0.616402
Si Si7 0.391212 0.741762 0.922172
Si Si8 0.102912 0.932732 0.269111
O O1 0.865318 0.217029 0.136231
O O2 0.903590 0.119414 0.075965
O O3 0.000000 0.212291 0.064521
O O4 0.850185 0.202951 0.000000
O O5 0.500000 0.765188 0.295535
O O6 0.314143 0.808149 0.303641
O O7 0.352569 0.717142 0.238090
O O8 0.835201 0.194134 0.382007
O O9 0.821814 0.111109 0.295707
O O10 0.810354 0.621834 0.500000
O O11 0.743431 0.592936 0.613440
O O12 0.839011 0.697194 0.591612
O O13 0.912858 0.599031 0.600275
O O14 0.000000 0.500000 0.603424
O O15 0.000000 0.435943 0.500000
O O16 0.635057 0.500000 0.593239
O O17 0.606773 0.568850 0.690273
O O18 0.500000 0.745235 0.904482
O O19 0.388564 0.732763 0.000000
O O20 0.000000 0.914472 0.288603
O O21 0.116525 0.000000 0.288391
#
# Coordination Sequence:
#
# PCOD9518986 Si02
#       8
#    16  16  16  16   8  16  16  16
#     4  10  20  34  51  72 105 142 172 211 258 303
#     4  10  21  36  54  81 111 139 178 222 267 319
#     4  11  21  35  59  82 104 140 180 222 269 330
#     4  10  19  31  44  64  99 137 173 217 264 309
#     4   9  16  28  44  58  84 136 187 215 244 298
#     4  11  21  31  46  69  98 135 181 227 263 300
#     4  10  20  34  53  80 110 138 174 226 282 331
#     4  10  21  38  58  77 102 138 180 222 265 319
#
# _framework density 17.377578
#
# number of rings (size 3 to 8) (size 9 to 14) (size 15 to 20)
#    0.000    1.800    2.000    3.200    1.867    4.000 
#    0.000    0.667    0.000    0.800    0.000    1.867 
#    0.000    0.000    0.000    4.533    0.000    0.133 
#
# Total GULP energy -334089.101196 kJ/mol
# GULP energy per Si atom -5568.151687 kJ/mol
# Density = 1.733803 g / cm^3
# Si number density = 17.377578 Si / 1000 Ang^3
#
#
#
# Elastic Constant Matrix: (Units=GPa)
#
#
# Indices 1 2 3 4 5 6 
#
# 1 134.5653 29.1033 13.8949 0.0000 0.0000 0.0000
# 2 29.1033 70.6050 17.6945 0.0000 0.0000 0.0000
# 3 13.8949 17.6945 42.8490 0.0000 0.0000 0.0000
# 4 0.0000 0.0000 0.0000 17.5918 0.0000 0.0000
# 5 0.0000 0.0000 0.0000 0.0000 27.2134 0.0000
# 6 0.0000 0.0000 0.0000 0.0000 0.0000 27.0090
#
#
#
# Elastic Compliance Matrix: (Units=1/GPa)
#
#
# Indices 1 2 3 4 5 6 
#
# 1 0.008235 -0.003040 -0.001415 0.000000 0.000000 0.000000
# 2 -0.003040 0.016920 -0.006002 0.000000 0.000000 0.000000
# 3 -0.001415 -0.006002 0.026275 0.000000 0.000000 0.000000
# 4 0.000000 0.000000 0.000000 0.056845 0.000000 0.000000
# 5 0.000000 0.000000 0.000000 0.000000 0.036747 0.000000
# 6 0.000000 0.000000 0.000000 0.000000 0.000000 0.037025
#
#
# Mechanical properties :
#
#
# Convention : Reuss Voigt Hill
#
# Bulk Modulus (GPa) = 32.76820 41.04496 36.90658
# Shear Modulus (GPa) = 23.45972 26.85130 25.15551
#
# Velocity S-wave (km/s) = 3.67822 3.93513 3.80884
# Velocity P-wave (km/s) = 6.07755 6.65716 6.37395
#
# Compressibility (1/GPa) = 0.03051740
#
# Stress axis : x y z
#
# Youngs Moduli (GPa) = 121.43459 59.10041 38.05904
#
# Poissons Ratio (x) = 0.17965 0.05386
# Poissons Ratio (y) = 0.36913 0.22841
# Poissons Ratio (z) = 0.17184 0.35469
#
# Static dielectric constant tensor:
#      x y z
#    x 1.604920 0.000000 0.000000 
#    y 0.000000 1.584290 0.000000 
#    z 0.000000 0.000000 1.587080 
# 
# From -- ./inp_files/53441.got.cif
#   From: 2010.05.17/outbox.cif.g08.bks.cpg/sg71_27_cif.got.tgz:53441.got - 2010.06.03 16:22:01.
