data_PCOD9518569
_publ_section_title
;
Structure prediction by ZEFSAII (Michael W. Deem and Ramdas Pophale) SiO2 
 PCOD9518569
Probable space group: I M M M
;
_chemical_formula_sum "Si O2"
_cell_formula_units_Z 76
_cell_length_a 12.159916
_cell_length_b 11.461268
_cell_length_c 31.295857
_cell_angle_alpha 90.000000
_cell_angle_beta 90.000000
_cell_angle_gamma 90.000000
_cell_volume 4361.642755
_symmetry_space_group_name_H-M "I M M M"
_symmetry_group_IT_number 71
_symmetry_cell_setting 'orthorhombic'
loop_
_space_group_symop_operation_xyz
x,y,z
-x,-y,z
x,-y,-z
-x,y,-z
-x,-y,-z
x,y,-z
-x,y,z
x,-y,z
1/2+x,1/2+y,1/2+z
1/2-x,1/2-y,1/2+z
1/2+x,1/2-y,1/2-z
1/2-x,1/2+y,1/2-z
1/2-x,1/2-y,1/2-z
1/2+x,1/2+y,1/2-z
1/2-x,1/2+y,1/2+z
1/2+x,1/2-y,1/2+z
loop_
_atom_site_type_symbol
_atom_site_label
_atom_site_fract_x
_atom_site_fract_y
_atom_site_fract_z
Si Si1 0.000000 0.500000 0.589057
Si Si2 0.000000 0.240661 0.570966
Si Si3 0.129418 0.359596 0.869243
Si Si4 0.283163 0.247836 0.200761
Si Si5 0.000000 0.862333 0.334171
Si Si6 0.374459 0.000000 0.827060
Si Si7 0.265162 0.359493 0.953025
O O1 0.000000 0.379288 0.564326
O O2 0.896599 0.500000 0.621959
O O3 0.000000 0.211233 0.621748
O O4 0.888860 0.186006 0.552790
O O5 0.143015 0.500000 0.864890
O O6 0.187745 0.297592 0.829566
O O7 0.190988 0.322607 0.912913
O O8 0.000000 0.334894 0.871359
O O9 0.250000 0.250000 0.250000
O O10 0.391197 0.325826 0.191347
O O11 0.314116 0.116516 0.187229
O O12 0.000000 0.000000 0.344167
O O13 0.500000 0.000000 0.808963
O O14 0.268430 0.500000 0.951925
O O15 0.223271 0.324104 0.000000
#
# Coordination Sequence:
#
# PCOD9518569 Si02
#       7
#     4   8  16  16   8   8  16
#     4  10  18  36  59  78 118 164 188 236 297 360
#     4  12  19  35  59  89 121 152 202 241 308 358
#     4  10  22  40  59  86 121 159 202 251 302 358
#     4  12  25  39  60  88 117 159 205 246 301 352
#     4  12  22  39  61  87 119 154 194 250 303 352
#     4  10  20  42  59  82 117 160 198 246 297 357
#     4  10  20  35  59  89 119 153 194 249 309 364
#
# _framework density 17.424627999999998
#
# number of rings (size 3 to 8) (size 9 to 14) (size 15 to 20)
#    0.316    0.842    5.263    1.895    4.421    1.263 
#    0.000    3.684    0.000    0.000    0.000    0.000 
#    0.000    5.053    0.000    0.000    0.000    0.000 
#
# Total GULP energy -212166.223774 kJ/mol
# GULP energy per Si atom -5583.321678 kJ/mol
# Density = 1.738497 g / cm^3
# Si number density = 17.424628 Si / 1000 Ang^3
#
#
#
# Elastic Constant Matrix: (Units=GPa)
#
#
# Indices 1 2 3 4 5 6 
#
# 1 119.1424 34.8288 64.9193 0.0000 0.0000 0.0000
# 2 34.8288 54.9516 19.3828 0.0000 0.0000 0.0000
# 3 64.9193 19.3828 139.3081 0.0000 0.0000 0.0000
# 4 0.0000 0.0000 0.0000 18.7991 0.0000 0.0000
# 5 0.0000 0.0000 0.0000 0.0000 69.2813 0.0000
# 6 0.0000 0.0000 0.0000 0.0000 0.0000 23.6798
#
#
#
# Elastic Compliance Matrix: (Units=1/GPa)
#
#
# Indices 1 2 3 4 5 6 
#
# 1 0.013131 -0.006482 -0.005217 0.000000 0.000000 0.000000
# 2 -0.006482 0.022337 -0.000087 0.000000 0.000000 0.000000
# 3 -0.005217 -0.000087 0.009622 0.000000 0.000000 0.000000
# 4 0.000000 0.000000 0.000000 0.053194 0.000000 0.000000
# 5 0.000000 0.000000 0.000000 0.000000 0.014434 0.000000
# 6 0.000000 0.000000 0.000000 0.000000 0.000000 0.042230
#
#
# Mechanical properties :
#
#
# Convention : Reuss Voigt Hill
#
# Bulk Modulus (GPa) = 46.47582 61.29597 53.88589
# Shear Modulus (GPa) = 26.92604 35.30345 31.11475
#
# Velocity S-wave (km/s) = 3.93528 4.50607 4.23031
# Velocity P-wave (km/s) = 6.88324 7.89475 7.40628
#
# Compressibility (1/GPa) = 0.02151656
#
# Stress axis : x y z
#
# Youngs Moduli (GPa) = 76.15468 44.76859 103.93068
#
# Poissons Ratio (x) = 0.29021 0.54224
# Poissons Ratio (y) = 0.49366 0.00905
# Poissons Ratio (z) = 0.39733 0.00390
#
# Static dielectric constant tensor:
#      x y z
#    x 1.572600 0.000000 0.000000 
#    y 0.000000 1.580690 0.000000 
#    z 0.000000 0.000000 1.606950 
# 
# From -- ./inp_files/69047.got.cif
#   From: 2010.05.17/outbox.cif.g08.bks.cpg/sg71_35_cif.got.tgz:69047.got - 2010.06.03 16:22:01.
