data_PCOD9518387
_publ_section_title
;
Structure prediction by ZEFSAII (Michael W. Deem and Ramdas Pophale) SiO2 
 PCOD9518387
Probable space group: I M M M
;
_chemical_formula_sum "Si O2"
_cell_formula_units_Z 84
_cell_length_a 12.524072
_cell_length_b 11.910529
_cell_length_c 33.492415
_cell_angle_alpha 90.000000
_cell_angle_beta 90.000000
_cell_angle_gamma 90.000000
_cell_volume 4996.007371
_symmetry_space_group_name_H-M "I M M M"
_symmetry_group_IT_number 71
_symmetry_cell_setting 'orthorhombic'
loop_
_space_group_symop_operation_xyz
x,y,z
-x,-y,z
x,-y,-z
-x,y,-z
-x,-y,-z
x,y,-z
-x,y,z
x,-y,z
1/2+x,1/2+y,1/2+z
1/2-x,1/2-y,1/2+z
1/2+x,1/2-y,1/2-z
1/2-x,1/2+y,1/2-z
1/2-x,1/2-y,1/2-z
1/2+x,1/2+y,1/2-z
1/2-x,1/2+y,1/2+z
1/2+x,1/2-y,1/2+z
loop_
_atom_site_type_symbol
_atom_site_label
_atom_site_fract_x
_atom_site_fract_y
_atom_site_fract_z
Si Si1 0.500000 0.000000 0.426081
Si Si2 0.713448 0.633069 0.453510
Si Si3 0.500000 0.750660 0.546415
Si Si4 0.126951 0.632570 0.617366
Si Si5 0.873164 0.127407 0.240417
Si Si6 0.744580 0.713300 0.182228
Si Si7 0.377178 0.000000 0.348345
O O1 0.500000 0.884325 0.449701
O O2 0.600581 0.000000 0.395788
O O3 0.733243 0.664328 0.500000
O O4 0.689062 0.500000 0.452819
O O5 0.609695 0.698837 0.437142
O O6 0.814296 0.651934 0.424982
O O7 0.500000 0.716691 0.500000
O O8 0.143252 0.500000 0.627648
O O9 0.182025 0.714227 0.649370
O O10 0.000000 0.651808 0.615155
O O11 0.823410 0.205974 0.206771
O O12 0.835569 0.166508 0.284087
O O13 0.000000 0.130889 0.238158
O O14 0.835422 0.000000 0.234292
O O15 0.812158 0.610055 0.164350
O O16 0.500000 0.000000 0.331461
#
# Coordination Sequence:
#
# PCOD9518387 Si02
#       7
#     4  16   8  16  16  16   8
#     4  10  21  32  48  74 112 144 182 224 266 326
#     4   9  18  33  55  82 111 143 182 229 279 331
#     4  10  18  32  53  79 110 146 186 227 281 330
#     4  10  21  36  55  81 112 147 188 226 275 333
#     4  10  21  36  56  79 104 136 179 227 275 326
#     4  11  20  37  56  77 109 144 180 228 272 328
#     4  10  22  35  53  79 109 142 183 225 275 328
#
# _framework density 16.813426
#
# number of rings (size 3 to 8) (size 9 to 14) (size 15 to 20)
#    0.286    1.714    0.952    3.286    0.000    1.524 
#    1.714    1.905    0.000    0.000    0.000    0.000 
#    0.000    7.619    0.000    0.000    0.000    0.000 
#
# Total GULP energy -234157.573505 kJ/mol
# GULP energy per Si atom -5575.180322 kJ/mol
# Density = 1.677516 g / cm^3
# Si number density = 16.813426 Si / 1000 Ang^3
#
#
#
# Elastic Constant Matrix: (Units=GPa)
#
#
# Indices 1 2 3 4 5 6 
#
# 1 105.2247 57.6753 44.9137 0.0000 0.0000 0.0000
# 2 57.6753 93.0949 35.4920 0.0000 0.0000 0.0000
# 3 44.9137 35.4920 57.3047 0.0000 0.0000 0.0000
# 4 0.0000 0.0000 0.0000 146.8567 0.0000 0.0000
# 5 0.0000 0.0000 0.0000 0.0000 -0.6991 0.0000
# 6 0.0000 0.0000 0.0000 0.0000 0.0000 17.7632
#
#
#
# Elastic Compliance Matrix: (Units=1/GPa)
#
#
# Indices 1 2 3 4 5 6 
#
# 1 0.017395 -0.007304 -0.009110 0.000000 0.000000 0.000000
# 2 -0.007304 0.017129 -0.004884 0.000000 0.000000 0.000000
# 3 -0.009110 -0.004884 0.027616 0.000000 0.000000 0.000000
# 4 0.000000 0.000000 0.000000 0.006809 0.000000 0.000000
# 5 0.000000 0.000000 0.000000 0.000000 -1.430364 0.000000
# 6 0.000000 0.000000 0.000000 0.000000 0.000000 0.056296
#
#
# Mechanical properties :
#
#
# Convention : Reuss Voigt Hill
#
# Bulk Modulus (GPa) = 51.16816 59.08734 55.12775
# Shear Modulus (GPa) = -3.98087 40.62038 18.31976
#
# Velocity S-wave (km/s) = -1.54039 4.92056 3.30448
# Velocity P-wave (km/s) = 5.22831 8.21595 6.88611
#
# Compressibility (1/GPa) = 0.01954340
#
# Stress axis : x y z
#
# Youngs Moduli (GPa) = 57.48646 58.38131 36.21070
#
# Poissons Ratio (x) = 0.42640 0.32989
# Poissons Ratio (y) = 0.41987 0.17687
# Poissons Ratio (z) = 0.52372 0.28515
#
# Static dielectric constant tensor:
#      x y z
#    x 1.553090 0.000000 0.000000 
#    y 0.000000 1.555710 0.000000 
#    z 0.000000 0.000000 1.556790 
# 
# From -- ./inp_files/69106.got.cif
#   From: 2010.05.17/outbox.cif.g08.bks.cpg/sg71_35_cif.got.tgz:69106.got - 2010.06.03 16:22:01.
