data_PCOD9518103
_publ_section_title
;
Structure prediction by ZEFSAII (Michael W. Deem and Ramdas Pophale) SiO2 
 PCOD9518103
Probable space group: I M M M
;
_chemical_formula_sum "Si O2"
_cell_formula_units_Z 80
_cell_length_a 20.768889
_cell_length_b 24.283745
_cell_length_c 10.275990
_cell_angle_alpha 90.000000
_cell_angle_beta 90.000000
_cell_angle_gamma 90.000000
_cell_volume 5182.658608
_symmetry_space_group_name_H-M "I M M M"
_symmetry_group_IT_number 71
_symmetry_cell_setting 'orthorhombic'
loop_
_space_group_symop_operation_xyz
x,y,z
-x,-y,z
x,-y,-z
-x,y,-z
-x,-y,-z
x,y,-z
-x,y,z
x,-y,z
1/2+x,1/2+y,1/2+z
1/2-x,1/2-y,1/2+z
1/2+x,1/2-y,1/2-z
1/2-x,1/2+y,1/2-z
1/2-x,1/2-y,1/2-z
1/2+x,1/2+y,1/2-z
1/2-x,1/2+y,1/2+z
1/2+x,1/2-y,1/2+z
loop_
_atom_site_type_symbol
_atom_site_label
_atom_site_fract_x
_atom_site_fract_y
_atom_site_fract_z
Si Si1 0.165995 0.436317 0.000000
Si Si2 0.717065 0.325757 0.656674
Si Si3 0.757639 0.562454 0.733315
Si Si4 0.922657 0.334779 0.000000
Si Si5 0.075912 0.319194 0.500000
Si Si6 0.139272 0.438348 0.500000
Si Si7 0.853506 0.720912 0.245856
O O1 0.209603 0.426981 0.127385
O O2 0.145999 0.500000 0.000000
O O3 0.104862 0.396705 0.000000
O O4 0.722689 0.320257 0.500000
O O5 0.708623 0.389351 0.695510
O O6 0.784712 0.307918 0.723325
O O7 0.663963 0.283666 0.709989
O O8 0.731791 0.500000 0.731647
O O9 0.814283 0.564970 0.625422
O O10 0.891179 0.306035 0.125894
O O11 0.000000 0.332109 0.000000
O O12 0.095737 0.384025 0.500000
O O13 0.105336 0.289692 0.374146
O O14 0.000000 0.315326 0.500000
O O15 0.108909 0.500000 0.500000
#
# Coordination Sequence:
#
# PCOD9518103 Si02
#       7
#     8  16  16   8   8   8  16
#     4  10  20  32  45  70 102 134 178 215 243 286
#     4  11  19  33  56  74 103 126 168 220 257 324
#     4  10  18  30  51  74 102 133 165 209 260 303
#     4  12  22  35  50  69 102 140 182 216 246 293
#     4  12  22  37  52  71 106 140 180 216 246 299
#     4  10  18  32  49  70 100 136 182 215 241 286
#     4  11  22  34  50  78  97 132 176 209 268 299
#
# _framework density 15.436094000000001
#
# number of rings (size 3 to 8) (size 9 to 14) (size 15 to 20)
#    0.000    1.200    7.000    0.600    0.000    1.200 
#    0.000    0.000    0.000    6.000    0.000    0.000 
#    0.000    4.800    0.000    0.000    0.000    0.000 
#
# Total GULP energy -223114.928988 kJ/mol
# GULP energy per Si atom -5577.873225 kJ/mol
# Density = 1.540096 g / cm^3
# Si number density = 15.436094 Si / 1000 Ang^3
#
#
#
# Elastic Constant Matrix: (Units=GPa)
#
#
# Indices 1 2 3 4 5 6 
#
# 1 57.7308 61.3266 39.8763 0.0000 0.0000 0.0000
# 2 61.3266 146.5903 54.8639 0.0000 0.0000 0.0000
# 3 39.8763 54.8639 143.0011 0.0000 0.0000 0.0000
# 4 0.0000 0.0000 0.0000 21.3783 0.0000 0.0000
# 5 0.0000 0.0000 0.0000 0.0000 1688.7252 0.0000
# 6 0.0000 0.0000 0.0000 0.0000 0.0000 17.6141
#
#
#
# Elastic Compliance Matrix: (Units=1/GPa)
#
#
# Indices 1 2 3 4 5 6 
#
# 1 0.033629 -0.012330 -0.004647 0.000000 0.000000 0.000000
# 2 -0.012330 0.012486 -0.001352 0.000000 0.000000 0.000000
# 3 -0.004647 -0.001352 0.008808 0.000000 0.000000 0.000000
# 4 0.000000 0.000000 0.000000 0.046776 0.000000 0.000000
# 5 0.000000 0.000000 0.000000 0.000000 0.000592 0.000000
# 6 0.000000 0.000000 0.000000 0.000000 0.000000 0.056773
#
#
# Mechanical properties :
#
#
# Convention : Reuss Voigt Hill
#
# Bulk Modulus (GPa) = 54.75028 73.27285 64.01157
# Shear Modulus (GPa) = 24.77566 358.29387 191.53477
#
# Velocity S-wave (km/s) = 4.01065 15.25183 11.15131
# Velocity P-wave (km/s) = 7.54938 18.91373 14.40004
#
# Compressibility (1/GPa) = 0.01826475
#
# Stress axis : x y z
#
# Youngs Moduli (GPa) = 29.73592 80.08985 113.53775
#
# Poissons Ratio (x) = 0.98748 0.52764
# Poissons Ratio (y) = 0.36663 0.15353
# Poissons Ratio (z) = 0.13819 0.10830
#
# Static dielectric constant tensor:
#      x y z
#    x 1.462150 0.000000 0.000000 
#    y 0.000000 1.558230 0.000000 
#    z 0.000000 0.000000 1.520620 
# 
# From -- ./inp_files/10337.got.cif
#   From: 2010.05.17/outbox.cif.g08.bks.cpg/sg71_6_cif.got.tgz:10337.got - 2010.06.03 16:22:01.
