data_PCOD9518350
_publ_section_title
;
Structure prediction by ZEFSAII (Michael W. Deem and Ramdas Pophale) SiO2 
 PCOD9518350
Probable space group: I M M M
;
_chemical_formula_sum "Si O2"
_cell_formula_units_Z 108
_cell_length_a 15.901776
_cell_length_b 14.882835
_cell_length_c 24.276011
_cell_angle_alpha 90.000000
_cell_angle_beta 90.000000
_cell_angle_gamma 90.000000
_cell_volume 5745.245934
_symmetry_space_group_name_H-M "I M M M"
_symmetry_group_IT_number 71
_symmetry_cell_setting 'orthorhombic'
loop_
_space_group_symop_operation_xyz
x,y,z
-x,-y,z
x,-y,-z
-x,y,-z
-x,-y,-z
x,y,-z
-x,y,z
x,-y,z
1/2+x,1/2+y,1/2+z
1/2-x,1/2-y,1/2+z
1/2+x,1/2-y,1/2-z
1/2-x,1/2+y,1/2-z
1/2-x,1/2-y,1/2-z
1/2+x,1/2+y,1/2-z
1/2-x,1/2+y,1/2+z
1/2+x,1/2-y,1/2+z
loop_
_atom_site_type_symbol
_atom_site_label
_atom_site_fract_x
_atom_site_fract_y
_atom_site_fract_z
Si Si1 0.398304 0.500000 0.062890
Si Si2 0.907464 0.851824 0.740201
Si Si3 0.739719 0.902490 0.676624
Si Si4 0.251102 0.215708 0.122131
Si Si5 0.000000 0.500000 0.313133
Si Si6 0.094971 0.106285 0.870862
Si Si7 0.404250 0.699584 0.933699
Si Si8 0.637499 0.853478 0.217744
O O1 0.500000 0.500000 0.059838
O O2 0.379115 0.401250 0.086404
O O3 0.365222 0.500000 0.000000
O O4 0.830217 0.892804 0.706608
O O5 0.901148 0.874034 0.804988
O O6 0.900314 0.744623 0.731191
O O7 0.000000 0.882498 0.721139
O O8 0.724577 0.816268 0.638876
O O9 0.672464 0.894645 0.725938
O O10 0.732889 0.000000 0.649570
O O11 0.170742 0.161215 0.101502
O O12 0.334298 0.230215 0.085367
O O13 0.285092 0.166542 0.176935
O O14 0.927142 0.421133 0.309613
O O15 0.000000 0.131097 0.888669
O O16 0.105949 0.000000 0.878873
O O17 0.500000 0.719358 0.914651
O O18 0.406556 0.696052 0.000000
#
# Coordination Sequence:
#
# PCOD9518350 Si02
#       8
#     8  16  16  16   4  16  16  16
#     4   7  12  28  53  78 106 141 175 210 259 327
#     4  10  18  32  49  66  98 136 176 219 266 307
#     4  11  21  34  48  73 112 143 178 224 270 316
#     4  11  22  34  55  80 109 142 184 239 272 329
#     4  12  24  32  54  68 107 160 195 218 272 350
#     4  10  20  34  54  77 100 137 183 226 273 323
#     4   9  19  36  58  84 115 147 180 223 281 339
#     4  11  21  35  47  73 106 145 186 227 268 321
#
# _framework density 18.798152000000002
#
# number of rings (size 3 to 8) (size 9 to 14) (size 15 to 20)
#    0.000    1.852    4.444    2.222    3.111    1.481 
#    0.000    0.000    0.000    0.889    0.000    2.593 
#    0.000    1.778    0.000    0.000    0.000    0.000 
#
# Total GULP energy -300786.786380 kJ/mol
# GULP energy per Si atom -5570.125674 kJ/mol
# Density = 1.875537 g / cm^3
# Si number density = 18.798152 Si / 1000 Ang^3
#
#
#
# Elastic Constant Matrix: (Units=GPa)
#
#
# Indices 1 2 3 4 5 6 
#
# 1 124.8547 53.8416 8.5516 0.0000 0.0000 0.0000
# 2 53.8416 113.3384 1.3936 0.0000 0.0000 0.0000
# 3 8.5516 1.3936 20.0948 0.0000 0.0000 0.0000
# 4 0.0000 0.0000 0.0000 7.3901 0.0000 0.0000
# 5 0.0000 0.0000 0.0000 0.0000 14.9111 0.0000
# 6 0.0000 0.0000 0.0000 0.0000 0.0000 10.8602
#
#
#
# Elastic Compliance Matrix: (Units=1/GPa)
#
#
# Indices 1 2 3 4 5 6 
#
# 1 0.010398 -0.004889 -0.004086 0.000000 0.000000 0.000000
# 2 -0.004889 0.011130 0.001309 0.000000 0.000000 0.000000
# 3 -0.004086 0.001309 0.051412 0.000000 0.000000 0.000000
# 4 0.000000 0.000000 0.000000 0.135316 0.000000 0.000000
# 5 0.000000 0.000000 0.000000 0.000000 0.067064 0.000000
# 6 0.000000 0.000000 0.000000 0.000000 0.000000 0.092079
#
#
# Mechanical properties :
#
#
# Convention : Reuss Voigt Hill
#
# Bulk Modulus (GPa) = 17.35900 42.87352 30.11626
# Shear Modulus (GPa) = 12.43989 19.59901 16.01945
#
# Velocity S-wave (km/s) = 2.57526 3.23244 2.92238
# Velocity P-wave (km/s) = 4.25407 6.06534 5.23858
#
# Compressibility (1/GPa) = 0.05760699
#
# Stress axis : x y z
#
# Youngs Moduli (GPa) = 96.17687 89.85024 19.45069
#
# Poissons Ratio (x) = 0.43929 0.07947
# Poissons Ratio (y) = 0.47022 -0.02546
# Poissons Ratio (z) = 0.39295 -0.11759
#
# Static dielectric constant tensor:
#      x y z
#    x 1.690890 0.000000 0.000000 
#    y 0.000000 1.670290 0.000000 
#    z 0.000000 0.000000 1.669610 
# 
# From -- ./inp_files/65549.got.cif
#   From: 2010.05.17/outbox.cif.g08.bks.cpg/sg71_33_cif.got.tgz:65549.got - 2010.06.03 16:22:01.
