data_PCOD9518643
_publ_section_title
;
Structure prediction by ZEFSAII (Michael W. Deem and Ramdas Pophale) SiO2 
 PCOD9518643
Probable space group: I M M M
;
_chemical_formula_sum "Si O2"
_cell_formula_units_Z 112
_cell_length_a 32.915417
_cell_length_b 32.774460
_cell_length_c 8.968471
_cell_angle_alpha 90.000000
_cell_angle_beta 90.000000
_cell_angle_gamma 90.000000
_cell_volume 9675.052148
_symmetry_space_group_name_H-M "I M M M"
_symmetry_group_IT_number 71
_symmetry_cell_setting 'orthorhombic'
loop_
_space_group_symop_operation_xyz
x,y,z
-x,-y,z
x,-y,-z
-x,y,-z
-x,-y,-z
x,y,-z
-x,y,z
x,-y,z
1/2+x,1/2+y,1/2+z
1/2-x,1/2-y,1/2+z
1/2+x,1/2-y,1/2-z
1/2-x,1/2+y,1/2-z
1/2-x,1/2-y,1/2-z
1/2+x,1/2+y,1/2-z
1/2-x,1/2+y,1/2+z
1/2+x,1/2-y,1/2+z
loop_
_atom_site_type_symbol
_atom_site_label
_atom_site_fract_x
_atom_site_fract_y
_atom_site_fract_z
Si Si1 0.136235 0.384965 0.823123
Si Si2 0.726973 0.288829 0.820719
Si Si3 0.000000 0.417856 0.821321
Si Si4 0.418473 0.196286 0.324881
Si Si5 0.207043 0.338549 0.326717
Si Si6 0.000000 0.327999 0.676930
Si Si7 0.918457 0.452180 0.323305
Si Si8 0.650253 0.757172 0.827653
O O1 0.105635 0.346486 0.799498
O O2 0.179573 0.371802 0.756359
O O3 0.116688 0.423496 0.741579
O O4 0.138958 0.391583 0.000000
O O5 0.750000 0.250000 0.750000
O O6 0.750640 0.327315 0.753041
O O7 0.679569 0.280540 0.785758
O O8 0.731287 0.287888 0.000000
O O9 0.040032 0.440037 0.759939
O O10 0.000000 0.371881 0.758534
O O11 0.000000 0.417006 0.000000
O O12 0.427626 0.198937 0.500000
O O13 0.459413 0.194777 0.230152
O O14 0.387848 0.231893 0.274118
O O15 0.213152 0.348535 0.500000
O O16 0.179495 0.297206 0.321457
O O17 0.000000 0.333910 0.500000
O O18 0.923447 0.444563 0.500000
O O19 0.910111 0.500000 0.301472
O O20 0.637562 0.752661 0.000000
#
# Coordination Sequence:
#
# PCOD9518643 Si02
#       8
#    16  16   8  16  16   8  16  16
#     4  10  19  30  44  58  73  90 110 137 168 205
#     4   9  15  23  35  52  73  93 114 135 158 190
#     4  12  23  35  48  61  72  84 108 140 176 216
#     4  10  19  29  41  56  71  87 111 141 170 206
#     4   9  16  25  38  54  73  93 113 134 159 194
#     4  12  22  31  45  56  70  91 112 142 178 216
#     4  11  23  36  48  60  73  89 109 136 175 220
#     4   8  15  25  36  51  71  93 113 133 160 195
#
# _framework density 11.576165
#
# number of rings (size 3 to 8) (size 9 to 14) (size 15 to 20)
#    0.000    2.143    1.429    4.500    0.000    7.143 
#    0.000    0.000    0.000    0.000    0.000    0.000 
#    0.000    0.000    0.000    0.000    0.000    0.000 
#
# Total GULP energy -312113.436385 kJ/mol
# GULP energy per Si atom -5573.454221 kJ/mol
# Density = 1.154982 g / cm^3
# Si number density = 11.576165 Si / 1000 Ang^3
#
#
#
# Elastic Constant Matrix: (Units=GPa)
#
#
# Indices 1 2 3 4 5 6 
#
# 1 65.3320 42.5301 53.0274 0.0000 0.0000 0.0000
# 2 42.5301 37.7464 34.4575 0.0000 0.0000 0.0000
# 3 53.0274 34.4575 85.1133 0.0000 0.0000 0.0000
# 4 0.0000 0.0000 0.0000 13.4120 0.0000 0.0000
# 5 0.0000 0.0000 0.0000 0.0000 20.7790 0.0000
# 6 0.0000 0.0000 0.0000 0.0000 0.0000 2.9095
#
#
#
# Elastic Compliance Matrix: (Units=1/GPa)
#
#
# Indices 1 2 3 4 5 6 
#
# 1 0.073247 -0.064831 -0.019388 0.000000 0.000000 0.000000
# 2 -0.064831 0.099405 0.000148 0.000000 0.000000 0.000000
# 3 -0.019388 0.000148 0.023768 0.000000 0.000000 0.000000
# 4 0.000000 0.000000 0.000000 0.074560 0.000000 0.000000
# 5 0.000000 0.000000 0.000000 0.000000 0.048125 0.000000
# 6 0.000000 0.000000 0.000000 0.000000 0.000000 0.343702
#
#
# Mechanical properties :
#
#
# Convention : Reuss Voigt Hill
#
# Bulk Modulus (GPa) = 35.36356 49.80242 42.58299
# Shear Modulus (GPa) = 5.94972 11.29856 8.62414
#
# Velocity S-wave (km/s) = 2.26953 3.12752 2.73241
# Velocity P-wave (km/s) = 6.12231 7.49378 6.84249
#
# Compressibility (1/GPa) = 0.02827769
#
# Stress axis : x y z
#
# Youngs Moduli (GPa) = 13.65247 10.05984 42.07275
#
# Poissons Ratio (x) = 0.65219 0.81570
# Poissons Ratio (y) = 0.88510 -0.00621
# Poissons Ratio (z) = 0.26469 -0.00149
#
# Static dielectric constant tensor:
#      x y z
#    x 1.380270 0.000000 0.000000 
#    y 0.000000 1.356070 0.000000 
#    z 0.000000 0.000000 1.385540 
# 
# From -- ./inp_files/17621.got.cif
#   From: 2010.05.17/outbox.cif.g08.bks.cpg/sg71_9_cif.got.tgz:17621.got - 2010.06.03 16:22:01.
