data_PCOD9518180
_publ_section_title
;
Structure prediction by ZEFSAII (Michael W. Deem and Ramdas Pophale) SiO2 
 PCOD9518180
Probable space group: I M M M
;
_chemical_formula_sum "Si O2"
_cell_formula_units_Z 72
_cell_length_a 8.685614
_cell_length_b 28.829764
_cell_length_c 16.951788
_cell_angle_alpha 90.000000
_cell_angle_beta 90.000000
_cell_angle_gamma 90.000000
_cell_volume 4244.798943
_symmetry_space_group_name_H-M "I M M M"
_symmetry_group_IT_number 71
_symmetry_cell_setting 'orthorhombic'
loop_
_space_group_symop_operation_xyz
x,y,z
-x,-y,z
x,-y,-z
-x,y,-z
-x,-y,-z
x,y,-z
-x,y,z
x,-y,z
1/2+x,1/2+y,1/2+z
1/2-x,1/2-y,1/2+z
1/2+x,1/2-y,1/2-z
1/2-x,1/2+y,1/2-z
1/2-x,1/2-y,1/2-z
1/2+x,1/2+y,1/2-z
1/2-x,1/2+y,1/2+z
1/2+x,1/2-y,1/2+z
loop_
_atom_site_type_symbol
_atom_site_label
_atom_site_fract_x
_atom_site_fract_y
_atom_site_fract_z
Si Si1 0.316638 0.445661 0.331311
Si Si2 0.682460 0.141373 0.761336
Si Si3 0.184359 0.803877 0.911202
Si Si4 0.316000 0.277631 0.826045
Si Si5 0.175274 0.443764 0.500000
O O1 0.500000 0.440208 0.326752
O O2 0.278614 0.500000 0.319985
O O3 0.235528 0.411519 0.270073
O O4 0.261975 0.431813 0.419457
O O5 0.500000 0.145478 0.754991
O O6 0.737550 0.165561 0.843201
O O7 0.761446 0.170145 0.690718
O O8 0.242989 0.751209 0.897578
O O9 0.000000 0.805712 0.900448
O O10 0.221655 0.819246 0.000000
O O11 0.500000 0.274762 0.827705
O O12 0.250000 0.250000 0.750000
O O13 0.168398 0.500000 0.500000
O O14 0.000000 0.426014 0.500000
#
# Coordination Sequence:
#
# PCOD9518180 Si02
#       5
#    16  16  16  16   8
#     4  10  20  33  47  63  87 119 155 194 234 273
#     4  11  21  32  48  67  92 123 158 194 231 277
#     4  10  20  33  49  69  94 122 154 191 231 276
#     4  10  18  31  49  67  91 119 151 188 231 278
#     4   9  17  29  43  59  81 111 147 187 229 267
#
# _framework density 16.961935
#
# number of rings (size 3 to 8) (size 9 to 14) (size 15 to 20)
#    0.000    1.889    0.000    8.333    1.556    4.444 
#    0.000    0.000    0.000    0.000    0.000    0.000 
#    0.000    0.889    0.000    9.333    0.000    4.000 
#
# Total GULP energy -200894.178198 kJ/mol
# GULP energy per Si atom -5580.393839 kJ/mol
# Density = 1.692333 g / cm^3
# Si number density = 16.961935 Si / 1000 Ang^3
#
#
#
# Elastic Constant Matrix: (Units=GPa)
#
#
# Indices 1 2 3 4 5 6 
#
# 1 84.5719 19.1406 4.2922 0.0000 0.0000 0.0000
# 2 19.1406 71.2148 8.0767 0.0000 0.0000 0.0000
# 3 4.2922 8.0767 15.2690 0.0000 0.0000 0.0000
# 4 0.0000 0.0000 0.0000 22.5818 0.0000 0.0000
# 5 0.0000 0.0000 0.0000 0.0000 17.8752 0.0000
# 6 0.0000 0.0000 0.0000 0.0000 0.0000 27.7647
#
#
#
# Elastic Compliance Matrix: (Units=1/GPa)
#
#
# Indices 1 2 3 4 5 6 
#
# 1 0.012640 -0.003185 -0.001868 0.000000 0.000000 0.000000
# 2 -0.003185 0.015741 -0.007431 0.000000 0.000000 0.000000
# 3 -0.001868 -0.007431 0.069948 0.000000 0.000000 0.000000
# 4 0.000000 0.000000 0.000000 0.044283 0.000000 0.000000
# 5 0.000000 0.000000 0.000000 0.000000 0.055943 0.000000
# 6 0.000000 0.000000 0.000000 0.000000 0.000000 0.036017
#
#
# Mechanical properties :
#
#
# Convention : Reuss Voigt Hill
#
# Bulk Modulus (GPa) = 13.63141 26.00829 19.81985
# Shear Modulus (GPa) = 17.60593 22.94742 20.27668
#
# Velocity S-wave (km/s) = 3.22525 3.68214 3.46124
# Velocity P-wave (km/s) = 4.68226 5.78309 5.26154
#
# Compressibility (1/GPa) = 0.07335999
#
# Stress axis : x y z
#
# Youngs Moduli (GPa) = 79.11383 63.52868 14.29632
#
# Poissons Ratio (x) = 0.20236 0.02671
# Poissons Ratio (y) = 0.25201 0.10623
# Poissons Ratio (z) = 0.14780 0.47207
#
# Static dielectric constant tensor:
#      x y z
#    x 1.566090 0.000000 0.000000 
#    y 0.000000 1.652310 0.000000 
#    z 0.000000 0.000000 1.578730 
# 
# From -- ./inp_files/42183.got.cif
#   From: 2010.05.17/outbox.cif.g08.bks.cpg/sg71_22_cif.got.tgz:42183.got - 2010.06.03 16:22:01.
