data_PCOD9518904
_publ_section_title
;
Structure prediction by ZEFSAII (Michael W. Deem and Ramdas Pophale) SiO2 
 PCOD9518904
Probable space group: I M M M
;
_chemical_formula_sum "Si O2"
_cell_formula_units_Z 104
_cell_length_a 8.878737
_cell_length_b 27.329933
_cell_length_c 22.815086
_cell_angle_alpha 90.000000
_cell_angle_beta 90.000000
_cell_angle_gamma 90.000000
_cell_volume 5536.201249
_symmetry_space_group_name_H-M "I M M M"
_symmetry_group_IT_number 71
_symmetry_cell_setting 'orthorhombic'
loop_
_space_group_symop_operation_xyz
x,y,z
-x,-y,z
x,-y,-z
-x,y,-z
-x,-y,-z
x,y,-z
-x,y,z
x,-y,z
1/2+x,1/2+y,1/2+z
1/2-x,1/2-y,1/2+z
1/2+x,1/2-y,1/2-z
1/2-x,1/2+y,1/2-z
1/2-x,1/2-y,1/2-z
1/2+x,1/2+y,1/2-z
1/2-x,1/2+y,1/2+z
1/2+x,1/2-y,1/2+z
loop_
_atom_site_type_symbol
_atom_site_label
_atom_site_fract_x
_atom_site_fract_y
_atom_site_fract_z
Si Si1 0.678580 0.555770 0.616535
Si Si2 0.820407 0.298606 0.679436
Si Si3 0.680311 0.000000 0.431052
Si Si4 0.680994 0.685056 0.197369
Si Si5 0.668873 0.941369 0.761579
Si Si6 0.820051 0.844333 0.936304
Si Si7 0.322230 0.412466 0.856122
O O1 0.500000 0.556278 0.630695
O O2 0.717927 0.500000 0.600035
O O3 0.769666 0.570879 0.674433
O O4 0.704830 0.597301 0.568882
O O5 0.752996 0.322855 0.738412
O O6 0.780485 0.240762 0.681048
O O7 0.756893 0.320401 0.619645
O O8 0.000000 0.303115 0.681344
O O9 0.741657 0.951090 0.398864
O O10 0.500000 0.000000 0.425705
O O11 0.720852 0.000000 0.500000
O O12 0.500000 0.681466 0.203616
O O13 0.725392 0.644774 0.148465
O O14 0.500000 0.921654 0.750871
O O15 0.782950 0.928407 0.710079
O O16 0.658598 0.000000 0.760817
O O17 0.000000 0.836316 0.932320
O O18 0.767383 0.826613 0.000000
O O19 0.500000 0.415260 0.867636
#
# Coordination Sequence:
#
# PCOD9518904 Si02
#       7
#    16  16   8  16  16  16  16
#     4   9  18  32  50  73 103 139 182 227 268 314
#     4  10  20  36  58  84 113 145 182 227 281 333
#     4  11  25  43  59  79 113 151 186 229 280 337
#     4   9  20  37  58  86 115 141 176 227 282 334
#     4  10  19  30  47  75 111 142 170 212 264 315
#     4  10  21  36  53  74 104 144 186 227 271 321
#     4  11  21  35  58  83 108 142 183 224 269 327
#
# _framework density 18.785443000000001
#
# number of rings (size 3 to 8) (size 9 to 14) (size 15 to 20)
#    0.000    2.077    0.769    2.538    0.000    8.000 
#    0.000    2.308    0.000    4.615    0.000    3.231 
#    0.000    0.000    0.000    0.000    0.000    0.000 
#
# Total GULP energy -290062.571852 kJ/mol
# GULP energy per Si atom -5578.126382 kJ/mol
# Density = 1.874269 g / cm^3
# Si number density = 18.785443 Si / 1000 Ang^3
#
#
#
# Elastic Constant Matrix: (Units=GPa)
#
#
# Indices 1 2 3 4 5 6 
#
# 1 23.7754 33.5309 28.7773 0.0000 0.0000 0.0000
# 2 33.5309 105.8467 62.4074 0.0000 0.0000 0.0000
# 3 28.7773 62.4074 104.7547 0.0000 0.0000 0.0000
# 4 0.0000 0.0000 0.0000 14.0517 0.0000 0.0000
# 5 0.0000 0.0000 0.0000 0.0000 17.9467 0.0000
# 6 0.0000 0.0000 0.0000 0.0000 0.0000 23.7965
#
#
#
# Elastic Compliance Matrix: (Units=1/GPa)
#
#
# Indices 1 2 3 4 5 6 
#
# 1 0.083616 -0.019954 -0.011083 0.000000 0.000000 0.000000
# 2 -0.019954 0.019325 -0.006031 0.000000 0.000000 0.000000
# 3 -0.011083 -0.006031 0.016184 0.000000 0.000000 0.000000
# 4 0.000000 0.000000 0.000000 0.071166 0.000000 0.000000
# 5 0.000000 0.000000 0.000000 0.000000 0.055721 0.000000
# 6 0.000000 0.000000 0.000000 0.000000 0.000000 0.042023
#
#
# Mechanical properties :
#
#
# Convention : Reuss Voigt Hill
#
# Bulk Modulus (GPa) = 22.22769 53.75644 37.99206
# Shear Modulus (GPa) = 13.25676 18.46973 15.86325
#
# Velocity S-wave (km/s) = 2.65937 3.13899 2.90908
# Velocity P-wave (km/s) = 4.61387 6.46652 5.61710
#
# Compressibility (1/GPa) = 0.04498894
#
# Stress axis : x y z
#
# Youngs Moduli (GPa) = 11.95938 51.74702 61.79081
#
# Poissons Ratio (x) = 1.03257 0.68481
# Poissons Ratio (y) = 0.23864 0.37266
# Poissons Ratio (z) = 0.13254 0.31209
#
# Static dielectric constant tensor:
#      x y z
#    x 1.644670 0.000000 0.000000 
#    y 0.000000 1.719480 0.000000 
#    z 0.000000 0.000000 1.608590 
# 
# From -- ./inp_files/50913.got.cif
#   From: 2010.05.17/outbox.cif.g08.bks.cpg/sg71_26_cif.got.tgz:50913.got - 2010.06.03 16:22:01.
