data_PCOD9518263
_publ_section_title
;
Structure prediction by ZEFSAII (Michael W. Deem and Ramdas Pophale) SiO2 
 PCOD9518263
Probable space group: I M M M
;
_chemical_formula_sum "Si O2"
_cell_formula_units_Z 104
_cell_length_a 7.716826
_cell_length_b 22.524225
_cell_length_c 28.193390
_cell_angle_alpha 90.000000
_cell_angle_beta 90.000000
_cell_angle_gamma 90.000000
_cell_volume 4900.448887
_symmetry_space_group_name_H-M "I M M M"
_symmetry_group_IT_number 71
_symmetry_cell_setting 'orthorhombic'
loop_
_space_group_symop_operation_xyz
x,y,z
-x,-y,z
x,-y,-z
-x,y,-z
-x,-y,-z
x,y,-z
-x,y,z
x,-y,z
1/2+x,1/2+y,1/2+z
1/2-x,1/2-y,1/2+z
1/2+x,1/2-y,1/2-z
1/2-x,1/2+y,1/2-z
1/2-x,1/2-y,1/2-z
1/2+x,1/2+y,1/2-z
1/2-x,1/2+y,1/2+z
1/2+x,1/2-y,1/2+z
loop_
_atom_site_type_symbol
_atom_site_label
_atom_site_fract_x
_atom_site_fract_y
_atom_site_fract_z
Si Si1 0.302325 0.735079 0.056662
Si Si2 0.301261 0.359993 0.592194
Si Si3 0.796455 0.399286 0.052596
Si Si4 0.212061 0.930358 0.000000
Si Si5 0.789935 0.563685 0.847467
Si Si6 0.203950 0.816209 0.294320
Si Si7 0.704792 0.312450 0.312584
O O1 0.500000 0.735784 0.075227
O O2 0.201511 0.791570 0.075582
O O3 0.222025 0.670569 0.064419
O O4 0.309241 0.742087 0.000000
O O5 0.500000 0.380682 0.597405
O O6 0.225388 0.398056 0.548463
O O7 0.221648 0.353151 0.644972
O O8 0.725427 0.432392 0.098247
O O9 0.000000 0.413760 0.049545
O O10 0.720678 0.409639 0.000000
O O11 0.000000 0.924814 0.000000
O O12 0.254800 0.000000 0.000000
O O13 0.737159 0.500000 0.826695
O O14 0.731420 0.621932 0.820234
O O15 0.000000 0.565525 0.848461
O O16 0.277880 0.758476 0.320965
O O17 0.276512 0.820562 0.240594
O O18 0.000000 0.804533 0.290609
O O19 0.500000 0.325719 0.311078
#
# Coordination Sequence:
#
# PCOD9518263 Si02
#       7
#    16  16  16   8  16  16  16
#     4  10  19  29  44  71 105 134 162 200 247 297
#     4  10  18  31  52  75  99 130 169 208 250 304
#     4   9  18  32  50  72  99 131 169 211 253 295
#     4   9  18  32  51  75 101 131 168 209 252 301
#     4  10  21  36  53  73 100 137 176 212 252 300
#     4  10  20  35  54  78 106 135 170 212 261 311
#     4   9  19  34  54  80 106 131 164 212 266 312
#
# _framework density 21.222546000000001
#
# number of rings (size 3 to 8) (size 9 to 14) (size 15 to 20)
#    0.000    2.385    0.769    1.846    0.000    6.769 
#    0.000    2.308    0.000    3.692    0.000    3.231 
#    0.000    0.000    0.000    0.000    0.000    0.000 
#
# Total GULP energy -289995.342496 kJ/mol
# GULP energy per Si atom -5576.833510 kJ/mol
# Density = 2.117424 g / cm^3
# Si number density = 21.222546 Si / 1000 Ang^3
#
#
#
# Elastic Constant Matrix: (Units=GPa)
#
#
# Indices 1 2 3 4 5 6 
#
# 1 40.0963 -10.3136 4.5591 0.0000 0.0000 0.0000
# 2 -10.3136 91.8597 74.1674 0.0000 0.0000 0.0000
# 3 4.5591 74.1674 130.4182 0.0000 0.0000 0.0000
# 4 0.0000 0.0000 0.0000 17.9293 0.0000 0.0000
# 5 0.0000 0.0000 0.0000 0.0000 9.6520 0.0000
# 6 0.0000 0.0000 0.0000 0.0000 0.0000 1.4711
#
#
#
# Elastic Compliance Matrix: (Units=1/GPa)
#
#
# Indices 1 2 3 4 5 6 
#
# 1 0.027334 0.007101 -0.004994 0.000000 0.000000 0.000000
# 2 0.007101 0.021973 -0.012744 0.000000 0.000000 0.000000
# 3 -0.004994 -0.012744 0.015090 0.000000 0.000000 0.000000
# 4 0.000000 0.000000 0.000000 0.055774 0.000000 0.000000
# 5 0.000000 0.000000 0.000000 0.000000 0.103605 0.000000
# 6 0.000000 0.000000 0.000000 0.000000 0.000000 0.679776
#
#
# Mechanical properties :
#
#
# Convention : Reuss Voigt Hill
#
# Bulk Modulus (GPa) = 23.18940 44.35554 33.77247
# Shear Modulus (GPa) = 5.32368 18.74124 12.03246
#
# Velocity S-wave (km/s) = 1.58554 2.97489 2.38369
# Velocity P-wave (km/s) = 3.78185 5.72237 4.85015
#
# Compressibility (1/GPa) = 0.04312316
#
# Stress axis : x y z
#
# Youngs Moduli (GPa) = 36.58409 45.51058 66.27091
#
# Poissons Ratio (x) = -0.32317 0.33094
# Poissons Ratio (y) = -0.25978 0.84456
# Poissons Ratio (z) = 0.18269 0.57999
#
# Static dielectric constant tensor:
#      x y z
#    x 1.817070 0.000000 0.000000 
#    y 0.000000 1.724120 0.000000 
#    z 0.000000 0.000000 1.840210 
# 
# From -- ./inp_files/63523.got.cif
#   From: 2010.05.17/outbox.cif.g08.bks.cpg/sg71_32_cif.got.tgz:63523.got - 2010.06.03 16:22:01.
