data_PCOD9518466
_publ_section_title
;
Structure prediction by ZEFSAII (Michael W. Deem and Ramdas Pophale) SiO2 
 PCOD9518466
Probable space group: I M M M
;
_chemical_formula_sum "Si O2"
_cell_formula_units_Z 104
_cell_length_a 17.264244
_cell_length_b 13.078805
_cell_length_c 28.012409
_cell_angle_alpha 90.000000
_cell_angle_beta 90.000000
_cell_angle_gamma 90.000000
_cell_volume 6325.080960
_symmetry_space_group_name_H-M "I M M M"
_symmetry_group_IT_number 71
_symmetry_cell_setting 'orthorhombic'
loop_
_space_group_symop_operation_xyz
x,y,z
-x,-y,z
x,-y,-z
-x,y,-z
-x,-y,-z
x,y,-z
-x,y,z
x,-y,z
1/2+x,1/2+y,1/2+z
1/2-x,1/2-y,1/2+z
1/2+x,1/2-y,1/2-z
1/2-x,1/2+y,1/2-z
1/2-x,1/2-y,1/2-z
1/2+x,1/2+y,1/2-z
1/2-x,1/2+y,1/2+z
1/2+x,1/2-y,1/2+z
loop_
_atom_site_type_symbol
_atom_site_label
_atom_site_fract_x
_atom_site_fract_y
_atom_site_fract_z
Si Si1 0.500000 0.876782 0.379015
Si Si2 0.318761 0.297523 0.057073
Si Si3 0.151198 0.679692 0.289792
Si Si4 0.671779 0.879024 0.392005
Si Si5 0.740024 0.614578 0.793640
Si Si6 0.407694 0.883129 0.108073
Si Si7 0.500000 0.876213 0.266898
Si Si8 0.588543 0.500000 0.941873
O O1 0.583233 0.843745 0.399150
O O2 0.500000 0.853855 0.322832
O O3 0.500000 0.000000 0.383032
O O4 0.233948 0.312858 0.079344
O O5 0.364087 0.198271 0.075140
O O6 0.366772 0.398076 0.073160
O O7 0.314385 0.297616 0.000000
O O8 0.218401 0.629169 0.257502
O O9 0.177956 0.795702 0.299278
O O10 0.130887 0.627207 0.339728
O O11 0.074924 0.669941 0.258021
O O12 0.696671 0.873878 0.336148
O O13 0.677962 0.000000 0.405493
O O14 0.708232 0.500000 0.797633
O O15 0.500000 0.860745 0.111455
O O16 0.399648 0.000000 0.091267
O O17 0.500000 0.000000 0.260597
O O18 0.500000 0.500000 0.925464
O O19 0.587779 0.500000 0.000000
#
# Coordination Sequence:
#
# PCOD9518466 Si02
#       8
#     8  16  16  16  16  16   8   8
#     4   9  18  30  51  81 110 139 176 217 272 330
#     4  11  22  37  55  77 107 142 181 227 279 326
#     4  11  20  32  53  79 108 144 180 217 261 315
#     4  10  18  33  54  80 109 139 177 223 272 329
#     4  10  20  33  51  78 111 142 177 219 264 319
#     4  11  23  37  55  81 111 143 184 229 268 316
#     4  11  18  30  51  76 106 144 179 218 261 318
#     4   9  18  34  56  77  99 135 179 218 266 334
#
# _framework density 16.442477
#
# number of rings (size 3 to 8) (size 9 to 14) (size 15 to 20)
#    0.000    1.615    4.615    1.846    0.000    1.231 
#    0.000    1.538    0.000    1.385    0.000    0.538 
#    0.000    1.231    0.000    0.000    0.000    0.000 
#
# Total GULP energy -290074.925879 kJ/mol
# GULP energy per Si atom -5578.363959 kJ/mol
# Density = 1.640505 g / cm^3
# Si number density = 16.442477 Si / 1000 Ang^3
#
#
#
# Elastic Constant Matrix: (Units=GPa)
#
#
# Indices 1 2 3 4 5 6 
#
# 1 110.2447 56.5246 28.4744 0.0000 0.0000 0.0000
# 2 56.5246 102.0115 27.5934 0.0000 0.0000 0.0000
# 3 28.4744 27.5934 57.8290 0.0000 0.0000 0.0000
# 4 0.0000 0.0000 0.0000 16.6084 0.0000 0.0000
# 5 0.0000 0.0000 0.0000 0.0000 66.0186 0.0000
# 6 0.0000 0.0000 0.0000 0.0000 0.0000 21.2805
#
#
#
# Elastic Compliance Matrix: (Units=1/GPa)
#
#
# Indices 1 2 3 4 5 6 
#
# 1 0.013250 -0.006403 -0.003469 0.000000 0.000000 0.000000
# 2 -0.006403 0.014350 -0.003694 0.000000 0.000000 0.000000
# 3 -0.003469 -0.003694 0.020763 0.000000 0.000000 0.000000
# 4 0.000000 0.000000 0.000000 0.060211 0.000000 0.000000
# 5 0.000000 0.000000 0.000000 0.000000 0.015147 0.000000
# 6 0.000000 0.000000 0.000000 0.000000 0.000000 0.046991
#
#
# Mechanical properties :
#
#
# Convention : Reuss Voigt Hill
#
# Bulk Modulus (GPa) = 47.10247 55.03000 51.06623
# Shear Modulus (GPa) = 24.39956 31.28102 27.84029
#
# Velocity S-wave (km/s) = 3.85637 4.36644 4.11931
# Velocity P-wave (km/s) = 6.96690 7.67867 7.33143
#
# Compressibility (1/GPa) = 0.02123031
#
# Stress axis : x y z
#
# Youngs Moduli (GPa) = 75.47284 69.68509 48.16255
#
# Poissons Ratio (x) = 0.44623 0.16706
# Poissons Ratio (y) = 0.48329 0.17793
# Poissons Ratio (z) = 0.26179 0.25744
#
# Static dielectric constant tensor:
#      x y z
#    x 1.555870 0.000000 0.000000 
#    y 0.000000 1.543210 0.000000 
#    z 0.000000 0.000000 1.556730 
# 
# From -- ./inp_files/70555.got.cif
#   From: 2010.05.17/outbox.cif.g08.bks.cpg/sg71_36_cif.got.tgz:70555.got - 2010.06.03 16:22:01.
