data_PCOD9518561
_publ_section_title
;
Structure prediction by ZEFSAII (Michael W. Deem and Ramdas Pophale) SiO2 
 PCOD9518561
Probable space group: I M M M
;
_chemical_formula_sum "Si O2"
_cell_formula_units_Z 80
_cell_length_a 23.495611
_cell_length_b 11.368646
_cell_length_c 15.200838
_cell_angle_alpha 90.000000
_cell_angle_beta 90.000000
_cell_angle_gamma 90.000000
_cell_volume 4060.345758
_symmetry_space_group_name_H-M "I M M M"
_symmetry_group_IT_number 71
_symmetry_cell_setting 'orthorhombic'
loop_
_space_group_symop_operation_xyz
x,y,z
-x,-y,z
x,-y,-z
-x,y,-z
-x,-y,-z
x,y,-z
-x,y,z
x,-y,z
1/2+x,1/2+y,1/2+z
1/2-x,1/2-y,1/2+z
1/2+x,1/2-y,1/2-z
1/2-x,1/2+y,1/2-z
1/2-x,1/2-y,1/2-z
1/2+x,1/2+y,1/2-z
1/2-x,1/2+y,1/2+z
1/2+x,1/2-y,1/2+z
loop_
_atom_site_type_symbol
_atom_site_label
_atom_site_fract_x
_atom_site_fract_y
_atom_site_fract_z
Si Si1 0.066278 0.500000 0.714081
Si Si2 0.784476 0.638556 0.647508
Si Si3 0.326504 0.224232 0.662389
Si Si4 0.099886 0.727478 0.599268
Si Si5 0.376366 0.000000 0.406828
Si Si6 0.565461 0.638546 0.261563
O O1 0.082322 0.612911 0.655878
O O2 0.092514 0.500000 0.811736
O O3 0.000000 0.500000 0.726952
O O4 0.790503 0.500000 0.628291
O O5 0.721011 0.683998 0.631322
O O6 0.800426 0.663109 0.749709
O O7 0.831703 0.715958 0.598045
O O8 0.339552 0.118308 0.597469
O O9 0.385575 0.289677 0.687179
O O10 0.077961 0.726099 0.500000
O O11 0.078243 0.834454 0.658839
O O12 0.409236 0.000000 0.500000
O O13 0.500000 0.675431 0.280920
O O14 0.570495 0.500000 0.279276
#
# Coordination Sequence:
#
# PCOD9518561 Si02
#       6
#     8  16  16  16   8  16
#     4  12  23  41  62  89 125 164 205 249 308 376
#     4  10  18  35  61  85 122 164 206 246 296 361
#     4  10  20  37  60  89 121 162 206 249 312 366
#     4  11  22  37  60  94 130 165 204 249 303 366
#     4  12  24  42  63  92 124 153 203 265 314 362
#     4  10  21  38  61  89 124 164 208 253 301 366
#
# _framework density 19.702756000000001
#
# number of rings (size 3 to 8) (size 9 to 14) (size 15 to 20)
#    0.000    1.400    6.000    1.500    0.000    3.400 
#    1.800    1.000    0.000    1.800    0.000    1.400 
#    0.000    0.000    0.000    0.000    0.000    0.000 
#
# Total GULP energy -223142.469847 kJ/mol
# GULP energy per Si atom -5578.561746 kJ/mol
# Density = 1.965791 g / cm^3
# Si number density = 19.702756 Si / 1000 Ang^3
#
#
#
# Elastic Constant Matrix: (Units=GPa)
#
#
# Indices 1 2 3 4 5 6 
#
# 1 145.9242 46.1698 13.1597 0.0000 0.0000 0.0000
# 2 46.1698 80.8322 8.8790 0.0000 0.0000 0.0000
# 3 13.1597 8.8790 82.6755 0.0000 0.0000 0.0000
# 4 0.0000 0.0000 0.0000 -61.1211 0.0000 0.0000
# 5 0.0000 0.0000 0.0000 0.0000 0.8145 0.0000
# 6 0.0000 0.0000 0.0000 0.0000 0.0000 22.5265
#
#
#
# Elastic Compliance Matrix: (Units=1/GPa)
#
#
# Indices 1 2 3 4 5 6 
#
# 1 0.008421 -0.004718 -0.000834 0.000000 0.000000 0.000000
# 2 -0.004718 0.015163 -0.000877 0.000000 0.000000 0.000000
# 3 -0.000834 -0.000877 0.012322 0.000000 0.000000 0.000000
# 4 0.000000 0.000000 0.000000 -0.016361 0.000000 0.000000
# 5 0.000000 0.000000 0.000000 0.000000 1.227752 0.000000
# 6 0.000000 0.000000 0.000000 0.000000 0.000000 0.044392
#
#
# Mechanical properties :
#
#
# Convention : Reuss Voigt Hill
#
# Bulk Modulus (GPa) = 43.38895 49.53875 46.46385
# Shear Modulus (GPa) = 3.81031 8.52554 6.16792
#
# Velocity S-wave (km/s) = 1.39215 2.08242 1.77124
# Velocity P-wave (km/s) = 4.96525 5.56593 5.27415
#
# Compressibility (1/GPa) = 0.02304734
#
# Stress axis : x y z
#
# Youngs Moduli (GPa) = 118.75221 65.95145 81.15300
#
# Poissons Ratio (x) = 0.31118 0.06765
# Poissons Ratio (y) = 0.56031 0.07120
# Poissons Ratio (z) = 0.09900 0.05786
#
# Static dielectric constant tensor:
#      x y z
#    x 1.727720 0.000000 0.000000 
#    y 0.000000 1.688320 0.000000 
#    z 0.000000 0.000000 1.723000 
# 
# From -- ./inp_files/38962.got.cif
#   From: 2010.05.17/outbox.cif.g08.bks.cpg/sg71_20_cif.got.tgz:38962.got - 2010.06.03 16:22:01.
