data_PCOD9518792
_publ_section_title
;
Structure prediction by ZEFSAII (Michael W. Deem and Ramdas Pophale) SiO2 
 PCOD9518792
Probable space group: I M M M
;
_chemical_formula_sum "Si O2"
_cell_formula_units_Z 96
_cell_length_a 21.765833
_cell_length_b 21.393939
_cell_length_c 9.759798
_cell_angle_alpha 90.000000
_cell_angle_beta 90.000000
_cell_angle_gamma 90.000000
_cell_volume 4544.717315
_symmetry_space_group_name_H-M "I M M M"
_symmetry_group_IT_number 71
_symmetry_cell_setting 'orthorhombic'
loop_
_space_group_symop_operation_xyz
x,y,z
-x,-y,z
x,-y,-z
-x,y,-z
-x,-y,-z
x,y,-z
-x,y,z
x,-y,z
1/2+x,1/2+y,1/2+z
1/2-x,1/2-y,1/2+z
1/2+x,1/2-y,1/2-z
1/2-x,1/2+y,1/2-z
1/2-x,1/2-y,1/2-z
1/2+x,1/2+y,1/2-z
1/2-x,1/2+y,1/2+z
1/2+x,1/2-y,1/2+z
loop_
_atom_site_type_symbol
_atom_site_label
_atom_site_fract_x
_atom_site_fract_y
_atom_site_fract_z
Si Si1 0.073147 0.680677 0.846206
Si Si2 0.596440 0.430326 0.157491
Si Si3 0.257373 0.312198 0.342793
Si Si4 0.404038 0.318054 0.655138
Si Si5 0.746313 0.428673 0.841607
Si Si6 0.925039 0.569578 0.343392
O O1 0.082750 0.749439 0.785715
O O2 0.096452 0.624458 0.754353
O O3 0.000000 0.672095 0.857668
O O4 0.099846 0.680098 0.000000
O O5 0.578284 0.500000 0.202582
O O6 0.573830 0.374973 0.253239
O O7 0.671320 0.428610 0.158326
O O8 0.577503 0.421746 0.000000
O O9 0.233684 0.305485 0.500000
O O10 0.250000 0.250000 0.250000
O O11 0.330547 0.322126 0.353754
O O12 0.234160 0.373596 0.261265
O O13 0.428705 0.320038 0.500000
O O14 0.764577 0.500000 0.804233
O O15 0.765080 0.416781 0.000000
O O16 0.904634 0.578110 0.500000
O O17 0.907796 0.500000 0.296455
O O18 0.000000 0.571134 0.345694
#
# Coordination Sequence:
#
# PCOD9518792 Si02
#       6
#    16  16  16  16  16  16
#     4   9  17  29  45  65  89 115 143 176 213 254
#     4   8  14  25  42  64  87 111 142 179 216 254
#     4  10  19  30  45  65  90 117 146 180 216 257
#     4   9  18  30  44  65  90 115 144 178 215 255
#     4   8  14  26  44  65  88 112 140 177 220 261
#     4   8  14  25  41  62  87 112 140 176 215 253
#
# _framework density 21.123427
#
# number of rings (size 3 to 8) (size 9 to 14) (size 15 to 20)
#    0.000    3.333    0.000    2.000    0.000    2.333 
#    0.000    5.000    0.000    1.500    0.000    5.833 
#    0.000    0.000    0.000    0.000    0.000    0.000 
#
# Total GULP energy -267728.007630 kJ/mol
# GULP energy per Si atom -5577.666826 kJ/mol
# Density = 2.107535 g / cm^3
# Si number density = 21.123427 Si / 1000 Ang^3
#
#
#
# Elastic Constant Matrix: (Units=GPa)
#
#
# Indices 1 2 3 4 5 6 
#
# 1 59.8433 0.6785 5.2458 0.0000 0.0000 0.0000
# 2 0.6785 244.0678 135.7798 0.0000 0.0000 0.0000
# 3 5.2458 135.7798 121.2669 0.0000 0.0000 0.0000
# 4 0.0000 0.0000 0.0000 40.3633 0.0000 0.0000
# 5 0.0000 0.0000 0.0000 0.0000 0.7779 0.0000
# 6 0.0000 0.0000 0.0000 0.0000 0.0000 17.1408
#
#
#
# Elastic Compliance Matrix: (Units=1/GPa)
#
#
# Indices 1 2 3 4 5 6 
#
# 1 0.016857 0.000951 -0.001795 0.000000 0.000000 0.000000
# 2 0.000951 0.010919 -0.012267 0.000000 0.000000 0.000000
# 3 -0.001795 -0.012267 0.022059 0.000000 0.000000 0.000000
# 4 0.000000 0.000000 0.000000 0.024775 0.000000 0.000000
# 5 0.000000 0.000000 0.000000 0.000000 1.285550 0.000000
# 6 0.000000 0.000000 0.000000 0.000000 0.000000 0.058340
#
#
# Mechanical properties :
#
#
# Convention : Reuss Voigt Hill
#
# Bulk Modulus (GPa) = 42.34643 78.73180 60.53912
# Shear Modulus (GPa) = 3.44213 30.55465 16.99839
#
# Velocity S-wave (km/s) = 1.27792 3.80739 2.83983
# Velocity P-wave (km/s) = 4.71891 7.52871 6.28290
#
# Compressibility (1/GPa) = 0.02361474
#
# Stress axis : x y z
#
# Youngs Moduli (GPa) = 59.32317 91.58547 45.33382
#
# Poissons Ratio (x) = -0.08714 0.08135
# Poissons Ratio (y) = -0.05645 0.55609
# Poissons Ratio (z) = 0.10646 1.12345
#
# Static dielectric constant tensor:
#      x y z
#    x 1.843280 0.000000 0.000000 
#    y 0.000000 1.741900 0.000000 
#    z 0.000000 0.000000 1.747830 
# 
# From -- ./inp_files/10940.got.cif
#   From: 2010.05.17/outbox.cif.g08.bks.cpg/sg71_6_cif.got.tgz:10940.got - 2010.06.03 16:22:01.
