data_PCOD9518962
_publ_section_title
;
Structure prediction by ZEFSAII (Michael W. Deem and Ramdas Pophale) SiO2 
 PCOD9518962
Probable space group: I M M M
;
_chemical_formula_sum "Si O2"
_cell_formula_units_Z 72
_cell_length_a 7.318049
_cell_length_b 16.750362
_cell_length_c 25.182636
_cell_angle_alpha 90.000000
_cell_angle_beta 90.000000
_cell_angle_gamma 90.000000
_cell_volume 3086.886762
_symmetry_space_group_name_H-M "I M M M"
_symmetry_group_IT_number 71
_symmetry_cell_setting 'orthorhombic'
loop_
_space_group_symop_operation_xyz
x,y,z
-x,-y,z
x,-y,-z
-x,y,-z
-x,-y,-z
x,y,-z
-x,y,z
x,-y,z
1/2+x,1/2+y,1/2+z
1/2-x,1/2-y,1/2+z
1/2+x,1/2-y,1/2-z
1/2-x,1/2+y,1/2-z
1/2-x,1/2-y,1/2-z
1/2+x,1/2+y,1/2-z
1/2-x,1/2+y,1/2+z
1/2+x,1/2-y,1/2+z
loop_
_atom_site_type_symbol
_atom_site_label
_atom_site_fract_x
_atom_site_fract_y
_atom_site_fract_z
Si Si1 0.721928 0.000000 0.208596
Si Si2 0.210230 0.000000 0.915019
Si Si3 0.778142 0.171611 0.058429
Si Si4 0.777195 0.673737 0.110583
Si Si5 0.218321 0.658936 0.229357
Si Si6 0.721626 0.906920 0.500000
O O1 0.783161 0.916697 0.235874
O O2 0.500000 0.000000 0.208665
O O3 0.785483 0.000000 0.148175
O O4 0.291854 0.082743 0.934349
O O5 0.000000 0.000000 0.933946
O O6 0.721926 0.234108 0.102593
O O7 0.000000 0.168930 0.060679
O O8 0.729914 0.202221 0.000000
O O9 0.715330 0.647621 0.168653
O O10 0.717257 0.629577 0.056575
O O11 0.000000 0.669072 0.110728
O O12 0.250000 0.750000 0.250000
O O13 0.000000 0.651536 0.227984
O O14 0.500000 0.897284 0.500000
O O15 0.764948 0.000000 0.500000
#
# Coordination Sequence:
#
# PCOD9518962 Si02
#       6
#     8   8  16  16  16   8
#     4  10  22  37  51  72 106 142 172 209 260 306
#     4  10  19  30  50  74  97 129 171 209 240 292
#     4   9  15  25  42  69  99 123 152 199 254 297
#     4   9  16  27  44  67  98 129 159 200 251 303
#     4  10  21  36  54  77 106 140 176 214 257 306
#     4   9  16  24  40  67  96 126 157 195 249 309
#
# _framework density 23.324473000000001
#
# number of rings (size 3 to 8) (size 9 to 14) (size 15 to 20)
#    0.000    2.556    1.111    1.667    1.556    4.000 
#    0.000    0.000    0.000    1.333    0.000    0.778 
#    0.000    0.889    0.000    0.000    0.000    0.000 
#
# Total GULP energy -200985.697145 kJ/mol
# GULP energy per Si atom -5582.936032 kJ/mol
# Density = 2.327139 g / cm^3
# Si number density = 23.324473 Si / 1000 Ang^3
#
#
#
# Elastic Constant Matrix: (Units=GPa)
#
#
# Indices 1 2 3 4 5 6 
#
# 1 95.6467 -2.3416 -3.8418 0.0000 0.0000 0.0000
# 2 -2.3416 107.4042 43.0400 0.0000 0.0000 0.0000
# 3 -3.8418 43.0400 133.6397 0.0000 0.0000 0.0000
# 4 0.0000 0.0000 0.0000 47.3639 0.0000 0.0000
# 5 0.0000 0.0000 0.0000 0.0000 4.4834 0.0000
# 6 0.0000 0.0000 0.0000 0.0000 0.0000 0.0898
#
#
#
# Elastic Compliance Matrix: (Units=1/GPa)
#
#
# Indices 1 2 3 4 5 6 
#
# 1 0.010469 0.000124 0.000261 0.000000 0.000000 0.000000
# 2 0.000124 0.010692 -0.003440 0.000000 0.000000 0.000000
# 3 0.000261 -0.003440 0.008598 0.000000 0.000000 0.000000
# 4 0.000000 0.000000 0.000000 0.021113 0.000000 0.000000
# 5 0.000000 0.000000 0.000000 0.000000 0.223046 0.000000
# 6 0.000000 0.000000 0.000000 0.000000 0.000000 11.139500
#
#
# Mechanical properties :
#
#
# Convention : Reuss Voigt Hill
#
# Bulk Modulus (GPa) = 42.28621 45.60040 43.94331
# Shear Modulus (GPa) = 0.43754 30.37635 15.40695
#
# Velocity S-wave (km/s) = 0.43359 3.61271 2.57290
# Velocity P-wave (km/s) = 4.29180 6.08236 5.26378
#
# Compressibility (1/GPa) = 0.02364837
#
# Stress axis : x y z
#
# Youngs Moduli (GPa) = 95.52318 93.52997 116.30418
#
# Poissons Ratio (x) = -0.01156 -0.03037
# Poissons Ratio (y) = -0.01181 0.40007
# Poissons Ratio (z) = -0.02495 0.32173
#
# Static dielectric constant tensor:
#      x y z
#    x 1.923900 0.000000 0.000000 
#    y 0.000000 1.860110 0.000000 
#    z 0.000000 0.000000 1.829200 
# 
# From -- ./inp_files/62908.got.cif
#   From: 2010.05.17/outbox.cif.g08.bks.cpg/sg71_32_cif.got.tgz:62908.got - 2010.06.03 16:22:01.
