data_PCOD9518520
_publ_section_title
;
Structure prediction by ZEFSAII (Michael W. Deem and Ramdas Pophale) SiO2 
 PCOD9518520
Probable space group: I M M M
;
_chemical_formula_sum "Si O2"
_cell_formula_units_Z 116
_cell_length_a 25.633928
_cell_length_b 30.377310
_cell_length_c 7.856984
_cell_angle_alpha 90.000000
_cell_angle_beta 90.000000
_cell_angle_gamma 90.000000
_cell_volume 6118.153122
_symmetry_space_group_name_H-M "I M M M"
_symmetry_group_IT_number 71
_symmetry_cell_setting 'orthorhombic'
loop_
_space_group_symop_operation_xyz
x,y,z
-x,-y,z
x,-y,-z
-x,y,-z
-x,-y,-z
x,y,-z
-x,y,z
x,-y,z
1/2+x,1/2+y,1/2+z
1/2-x,1/2-y,1/2+z
1/2+x,1/2-y,1/2-z
1/2-x,1/2+y,1/2-z
1/2-x,1/2-y,1/2-z
1/2+x,1/2+y,1/2-z
1/2-x,1/2+y,1/2+z
1/2+x,1/2-y,1/2+z
loop_
_atom_site_type_symbol
_atom_site_label
_atom_site_fract_x
_atom_site_fract_y
_atom_site_fract_z
Si Si1 0.653543 0.612789 0.802088
Si Si2 0.941576 0.051780 0.794478
Si Si3 0.560837 0.222876 0.201091
Si Si4 0.940675 0.626193 0.202307
Si Si5 0.082637 0.184706 0.189745
Si Si6 0.000000 0.831327 0.500000
Si Si7 0.361709 0.950462 0.796700
Si Si8 0.257095 0.450357 0.203640
O O1 0.603928 0.580074 0.786073
O O2 0.635410 0.656992 0.710739
O O3 0.702682 0.585862 0.729670
O O4 0.663219 0.622588 0.000000
O O5 0.000000 0.065597 0.739094
O O6 0.935745 0.000000 0.754498
O O7 0.939155 0.056051 0.000000
O O8 0.500000 0.224440 0.258558
O O9 0.579231 0.173216 0.229991
O O10 0.589486 0.262789 0.292202
O O11 0.560730 0.232045 0.000000
O O12 0.903485 0.585743 0.244150
O O13 0.000000 0.619548 0.268657
O O14 0.943494 0.630246 0.000000
O O15 0.045161 0.171233 0.346860
O O16 0.061589 0.175002 0.000000
O O17 0.303221 0.939691 0.736507
O O18 0.374247 0.000000 0.733100
O O19 0.360771 0.951873 0.000000
O O20 0.267069 0.500000 0.271061
O O21 0.265015 0.452183 0.000000
#
# Coordination Sequence:
#
# PCOD9518520 Si02
#       8
#    16  16  16  16  16   4  16  16
#     4  11  22  35  51  77 107 138 186 239 292 349
#     4   9  19  33  46  64  94 133 176 222 278 345
#     4  10  18  34  55  81 116 152 192 232 275 333
#     4  10  21  35  56  88 121 156 190 222 269 333
#     4  12  23  36  56  81 114 153 194 244 296 349
#     4  12  22  40  52  82 113 154 195 244 298 352
#     4  10  21  37  58  85 115 149 190 235 283 334
#     4   9  19  37  60  80 105 145 190 240 290 341
#
# _framework density 18.959969999999998
#
# number of rings (size 3 to 8) (size 9 to 14) (size 15 to 20)
#    0.000    1.793    2.069    2.690    0.966    4.690 
#    0.000    3.448    0.000    0.828    0.000    0.000 
#    0.000    0.000    0.000    0.000    0.000    0.000 
#
# Total GULP energy -323287.087412 kJ/mol
# GULP energy per Si atom -5573.915300 kJ/mol
# Density = 1.891682 g / cm^3
# Si number density = 18.959970 Si / 1000 Ang^3
#
#
#
# Elastic Constant Matrix: (Units=GPa)
#
#
# Indices 1 2 3 4 5 6 
#
# 1 80.6010 80.1660 13.6711 0.0000 0.0000 0.0000
# 2 80.1660 141.9250 17.1541 0.0000 0.0000 0.0000
# 3 13.6711 17.1541 79.4734 0.0000 0.0000 0.0000
# 4 0.0000 0.0000 0.0000 13.0807 0.0000 0.0000
# 5 0.0000 0.0000 0.0000 0.0000 2.5018 0.0000
# 6 0.0000 0.0000 0.0000 0.0000 0.0000 16.0579
#
#
#
# Elastic Compliance Matrix: (Units=1/GPa)
#
#
# Indices 1 2 3 4 5 6 
#
# 1 0.028478 -0.015909 -0.001465 0.000000 0.000000 0.000000
# 2 -0.015909 0.016122 -0.000743 0.000000 0.000000 0.000000
# 3 -0.001465 -0.000743 0.012995 0.000000 0.000000 0.000000
# 4 0.000000 0.000000 0.000000 0.076449 0.000000 0.000000
# 5 0.000000 0.000000 0.000000 0.000000 0.399718 0.000000
# 6 0.000000 0.000000 0.000000 0.000000 0.000000 0.062274
#
#
# Mechanical properties :
#
#
# Convention : Reuss Voigt Hill
#
# Bulk Modulus (GPa) = 46.81353 58.22021 52.51687
# Shear Modulus (GPa) = 7.81994 19.06196 13.44095
#
# Velocity S-wave (km/s) = 2.03308 3.17421 2.66543
# Velocity P-wave (km/s) = 5.50050 6.64889 6.10177
#
# Compressibility (1/GPa) = 0.02136135
#
# Stress axis : x y z
#
# Youngs Moduli (GPa) = 35.11458 62.02766 76.95116
#
# Poissons Ratio (x) = 0.98678 0.11273
# Poissons Ratio (y) = 0.55863 0.05719
# Poissons Ratio (z) = 0.05144 0.04610
#
# Static dielectric constant tensor:
#      x y z
#    x 1.648790 0.000000 0.000000 
#    y 0.000000 1.222380 0.000000 
#    z 0.000000 0.000000 1.681670 
# 
# From -- ./inp_files/13701.got.cif
#   From: 2010.05.17/outbox.cif.g08.bks.cpg/sg71_7_cif.got.tgz:13701.got - 2010.06.03 16:22:01.
