data_PCOD9518403
_publ_section_title
;
Structure prediction by ZEFSAII (Michael W. Deem and Ramdas Pophale) SiO2 
 PCOD9518403
Probable space group: I M M M
;
_chemical_formula_sum "Si O2"
_cell_formula_units_Z 72
_cell_length_a 7.484550
_cell_length_b 19.787362
_cell_length_c 23.285348
_cell_angle_alpha 90.000000
_cell_angle_beta 90.000000
_cell_angle_gamma 90.000000
_cell_volume 3448.548402
_symmetry_space_group_name_H-M "I M M M"
_symmetry_group_IT_number 71
_symmetry_cell_setting 'orthorhombic'
loop_
_space_group_symop_operation_xyz
x,y,z
-x,-y,z
x,-y,-z
-x,y,-z
-x,-y,-z
x,y,-z
-x,y,z
x,-y,z
1/2+x,1/2+y,1/2+z
1/2-x,1/2-y,1/2+z
1/2+x,1/2-y,1/2-z
1/2-x,1/2+y,1/2-z
1/2-x,1/2-y,1/2-z
1/2+x,1/2+y,1/2-z
1/2-x,1/2+y,1/2+z
1/2+x,1/2-y,1/2+z
loop_
_atom_site_type_symbol
_atom_site_label
_atom_site_fract_x
_atom_site_fract_y
_atom_site_fract_z
Si Si1 0.718460 0.830323 0.934948
Si Si2 0.719108 0.422834 0.000000
Si Si3 0.291683 0.680222 0.095329
Si Si4 0.787993 0.674615 0.227365
Si Si5 0.781293 0.422343 0.671026
O O1 0.500000 0.830062 0.933571
O O2 0.781822 0.754739 0.918760
O O3 0.775518 0.883159 0.886504
O O4 0.771834 0.846702 0.000000
O O5 0.779001 0.379690 0.944581
O O6 0.780831 0.500000 0.000000
O O7 0.500000 0.425812 0.000000
O O8 0.500000 0.685163 0.079925
O O9 0.279601 0.666453 0.162802
O O10 0.750000 0.750000 0.250000
O O11 0.720674 0.620484 0.273706
O O12 0.000000 0.666965 0.224549
O O13 0.724531 0.500000 0.672391
O O14 0.000000 0.421766 0.671407
#
# Coordination Sequence:
#
# PCOD9518403 Si02
#       5
#    16   8  16  16  16
#     4   9  15  26  48  75  99 129 168 209 251 298
#     4   9  18  32  53  81 112 144 177 220 271 322
#     4  10  18  32  54  78 104 136 178 218 257 308
#     4  11  21  34  54  78 105 138 177 217 264 316
#     4   9  18  31  47  72 105 134 164 209 261 308
#
# _framework density 20.878350999999999
#
# number of rings (size 3 to 8) (size 9 to 14) (size 15 to 20)
#    0.000    2.333    3.333    0.667    0.000    1.333 
#    0.000    2.778    0.000    2.667    0.000    0.000 
#    0.000    1.778    0.000    0.000    0.000    0.000 
#
# Total GULP energy -201047.822063 kJ/mol
# GULP energy per Si atom -5584.661724 kJ/mol
# Density = 2.083083 g / cm^3
# Si number density = 20.878351 Si / 1000 Ang^3
#
#
#
# Elastic Constant Matrix: (Units=GPa)
#
#
# Indices 1 2 3 4 5 6 
#
# 1 52.9961 -1.6249 -15.0239 0.0000 0.0000 0.0000
# 2 -1.6249 219.3082 121.7017 0.0000 0.0000 0.0000
# 3 -15.0239 121.7017 199.2772 0.0000 0.0000 0.0000
# 4 0.0000 0.0000 0.0000 37.3253 0.0000 0.0000
# 5 0.0000 0.0000 0.0000 0.0000 18.0179 0.0000
# 6 0.0000 0.0000 0.0000 0.0000 0.0000 -0.9640
#
#
#
# Elastic Compliance Matrix: (Units=1/GPa)
#
#
# Indices 1 2 3 4 5 6 
#
# 1 0.019429 -0.001012 0.002083 0.000000 0.000000 0.000000
# 2 -0.001012 0.006950 -0.004321 0.000000 0.000000 0.000000
# 3 0.002083 -0.004321 0.007814 0.000000 0.000000 0.000000
# 4 0.000000 0.000000 0.000000 0.026791 0.000000 0.000000
# 5 0.000000 0.000000 0.000000 0.000000 0.055500 0.000000
# 6 0.000000 0.000000 0.000000 0.000000 0.000000 -1.037350
#
#
# Mechanical properties :
#
#
# Convention : Reuss Voigt Hill
#
# Bulk Modulus (GPa) = 36.11033 75.74302 55.92667
# Shear Modulus (GPa) = -5.52404 35.31109 14.89353
#
# Velocity S-wave (km/s) = -1.62836 4.11698 2.67375
# Velocity P-wave (km/s) = 3.71453 7.67830 6.03134
#
# Compressibility (1/GPa) = 0.02769291
#
# Stress axis : x y z
#
# Youngs Moduli (GPa) = 51.47019 143.88381 127.97659
#
# Poissons Ratio (x) = 0.14558 -0.26654
# Poissons Ratio (y) = 0.05208 0.55296
# Poissons Ratio (z) = -0.10720 0.62169
#
# Static dielectric constant tensor:
#      x y z
#    x 1.827770 0.000000 0.000000 
#    y 0.000000 1.709060 0.000000 
#    z 0.000000 0.000000 1.704230 
# 
# From -- ./inp_files/7878.got.cif
#   From: 2010.05.17/outbox.cif.g08.bks.cpg/sg71_4_cif.got.tgz:7878.got - 2010.06.03 16:22:01.
