data_PCOD9518585
_publ_section_title
;
Structure prediction by ZEFSAII (Michael W. Deem and Ramdas Pophale) SiO2 
 PCOD9518585
Probable space group: I M M M
;
_chemical_formula_sum "Si O2"
_cell_formula_units_Z 88
_cell_length_a 8.134056
_cell_length_b 23.326150
_cell_length_c 21.605233
_cell_angle_alpha 90.000000
_cell_angle_beta 90.000000
_cell_angle_gamma 90.000000
_cell_volume 4099.295033
_symmetry_space_group_name_H-M "I M M M"
_symmetry_group_IT_number 71
_symmetry_cell_setting 'orthorhombic'
loop_
_space_group_symop_operation_xyz
x,y,z
-x,-y,z
x,-y,-z
-x,y,-z
-x,-y,-z
x,y,-z
-x,y,z
x,-y,z
1/2+x,1/2+y,1/2+z
1/2-x,1/2-y,1/2+z
1/2+x,1/2-y,1/2-z
1/2-x,1/2+y,1/2-z
1/2-x,1/2-y,1/2-z
1/2+x,1/2+y,1/2-z
1/2-x,1/2+y,1/2+z
1/2+x,1/2-y,1/2+z
loop_
_atom_site_type_symbol
_atom_site_label
_atom_site_fract_x
_atom_site_fract_y
_atom_site_fract_z
Si Si1 0.804900 0.060187 0.374046
Si Si2 0.804719 0.000000 0.073054
Si Si3 0.819648 0.406081 0.000000
Si Si4 0.298255 0.758777 0.872183
Si Si5 0.685929 0.710964 0.000000
Si Si6 0.802380 0.161440 0.281848
Si Si7 0.195346 0.614276 0.351404
O O1 0.707387 0.060247 0.437467
O O2 0.764502 0.115963 0.335544
O O3 0.000000 0.062671 0.387318
O O4 0.774255 0.000000 0.339707
O O5 0.759503 0.057322 0.113397
O O6 0.000000 0.000000 0.068056
O O7 0.741267 0.000000 0.000000
O O8 0.684617 0.356882 0.000000
O O9 0.000000 0.379378 0.000000
O O10 0.500000 0.757041 0.869012
O O11 0.243260 0.722387 0.811566
O O12 0.247553 0.824794 0.879455
O O13 0.239647 0.728955 0.934881
O O14 0.500000 0.734592 0.000000
O O15 0.734922 0.130281 0.220377
O O16 0.000000 0.165538 0.273674
O O17 0.000000 0.610260 0.356892
#
# Coordination Sequence:
#
# PCOD9518585 Si02
#       7
#    16   8   8  16   8  16  16
#     4  10  21  37  59  82 111 162 217 253 291 360
#     4  11  27  51  73  95 127 170 217 266 321 389
#     4  12  23  35  52  83 121 159 199 260 318 355
#     4   9  19  36  64  94 124 165 211 260 313 375
#     4  10  18  37  63  85 115 161 212 254 299 372
#     4  10  20  38  63  92 127 169 212 254 305 374
#     4  11  24  41  66 100 130 161 203 259 326 383
#
# _framework density 21.467105
#
# number of rings (size 3 to 8) (size 9 to 14) (size 15 to 20)
#    0.000    1.727    1.818    2.455    2.545    2.909 
#    0.000    2.727    0.000    0.000    0.000    0.000 
#    0.000    0.000    0.000    0.000    0.000    0.000 
#
# Total GULP energy -245006.939727 kJ/mol
# GULP energy per Si atom -5568.339539 kJ/mol
# Density = 2.141824 g / cm^3
# Si number density = 21.467105 Si / 1000 Ang^3
#
#
#
# Elastic Constant Matrix: (Units=GPa)
#
#
# Indices 1 2 3 4 5 6 
#
# 1 14.2886 28.9566 18.8368 0.0000 0.0000 0.0000
# 2 28.9566 172.2593 71.8368 0.0000 0.0000 0.0000
# 3 18.8368 71.8368 131.4515 0.0000 0.0000 0.0000
# 4 0.0000 0.0000 0.0000 30.0453 0.0000 0.0000
# 5 0.0000 0.0000 0.0000 0.0000 14.8905 0.0000
# 6 0.0000 0.0000 0.0000 0.0000 0.0000 -1.3452
#
#
#
# Elastic Compliance Matrix: (Units=1/GPa)
#
#
# Indices 1 2 3 4 5 6 
#
# 1 0.111475 -0.015642 -0.007426 0.000000 0.000000 0.000000
# 2 -0.015642 0.009714 -0.003067 0.000000 0.000000 0.000000
# 3 -0.007426 -0.003067 0.010348 0.000000 0.000000 0.000000
# 4 0.000000 0.000000 0.000000 0.033283 0.000000 0.000000
# 5 0.000000 0.000000 0.000000 0.000000 0.067157 0.000000
# 6 0.000000 0.000000 0.000000 0.000000 0.000000 -0.743404
#
#
# Mechanical properties :
#
#
# Convention : Reuss Voigt Hill
#
# Bulk Modulus (GPa) = 12.61565 61.91776 37.26670
# Shear Modulus (GPa) = -11.55442 21.94272 5.19415
#
# Velocity S-wave (km/s) = -2.32251 3.20059 1.55719
# Velocity P-wave (km/s) = 1.14131 6.52411 4.54211
#
# Compressibility (1/GPa) = 0.07926662
#
# Stress axis : x y z
#
# Youngs Moduli (GPa) = 8.97058 102.94847 96.64140
#
# Poissons Ratio (x) = 1.61033 0.71766
# Poissons Ratio (y) = 0.14032 0.29639
# Poissons Ratio (z) = 0.06662 0.31573
#
# Static dielectric constant tensor:
#      x y z
#    x 1.786040 0.000000 0.000000 
#    y 0.000000 1.788830 0.000000 
#    z 0.000000 0.000000 1.827540 
# 
# From -- ./inp_files/50567.got.cif
#   From: 2010.05.17/outbox.cif.g08.bks.cpg/sg71_26_cif.got.tgz:50567.got - 2010.06.03 16:22:01.
