data_PCOD9518761
_publ_section_title
;
Structure prediction by ZEFSAII (Michael W. Deem and Ramdas Pophale) SiO2 
 PCOD9518761
Probable space group: I M M M
;
_chemical_formula_sum "Si O2"
_cell_formula_units_Z 120
_cell_length_a 7.340981
_cell_length_b 27.044457
_cell_length_c 28.425395
_cell_angle_alpha 90.000000
_cell_angle_beta 90.000000
_cell_angle_gamma 90.000000
_cell_volume 5643.374539
_symmetry_space_group_name_H-M "I M M M"
_symmetry_group_IT_number 71
_symmetry_cell_setting 'orthorhombic'
loop_
_space_group_symop_operation_xyz
x,y,z
-x,-y,z
x,-y,-z
-x,y,-z
-x,-y,-z
x,y,-z
-x,y,z
x,-y,z
1/2+x,1/2+y,1/2+z
1/2-x,1/2-y,1/2+z
1/2+x,1/2-y,1/2-z
1/2-x,1/2+y,1/2-z
1/2-x,1/2-y,1/2-z
1/2+x,1/2+y,1/2-z
1/2-x,1/2+y,1/2+z
1/2+x,1/2-y,1/2+z
loop_
_atom_site_type_symbol
_atom_site_label
_atom_site_fract_x
_atom_site_fract_y
_atom_site_fract_z
Si Si1 0.208263 0.942155 0.748787
Si Si2 0.784051 0.194499 0.234805
Si Si3 0.280850 0.629509 0.823158
Si Si4 0.208090 0.356510 0.069513
Si Si5 0.221834 0.245235 0.947250
Si Si6 0.777616 0.164950 0.870000
Si Si7 0.277429 0.443154 0.353695
Si Si8 0.221906 0.558053 0.000000
O O1 0.276755 0.922374 0.699456
O O2 0.287351 0.931877 0.800170
O O3 0.000000 0.923055 0.751950
O O4 0.203532 0.000000 0.746454
O O5 0.750000 0.250000 0.250000
O O6 0.718380 0.163704 0.279805
O O7 0.716247 0.180518 0.182752
O O8 0.000000 0.186902 0.232237
O O9 0.500000 0.633995 0.828562
O O10 0.208068 0.638684 0.874472
O O11 0.287570 0.302045 0.058768
O O12 0.000000 0.353441 0.053039
O O13 0.279537 0.406296 0.043978
O O14 0.282350 0.206202 0.907618
O O15 0.000000 0.246670 0.943796
O O16 0.268538 0.228704 0.000000
O O17 0.726366 0.107494 0.880571
O O18 0.000000 0.165721 0.869930
O O19 0.500000 0.445030 0.353122
O O20 0.221045 0.500000 0.366370
O O21 0.283598 0.500000 0.000000
O O22 0.000000 0.554535 0.000000
#
# Coordination Sequence:
#
# PCOD9518761 Si02
#       8
#    16  16  16  16  16  16  16   8
#     4   8  13  23  39  58  84 117 148 176 208 254
#     4  10  19  30  43  64  94 124 153 188 229 276
#     4  10  19  30  45  68  97 122 148 187 236 280
#     4  10  19  33  51  69  90 119 159 196 235 283
#     4   9  16  27  44  63  81 108 150 196 229 264
#     4   9  15  24  40  62  86 112 147 187 226 266
#     4   8  12  20  36  57  82 114 148 178 211 258
#     4   9  18  34  55  73  91 121 164 212 250 281
#
# _framework density 21.263873
#
# number of rings (size 3 to 8) (size 9 to 14) (size 15 to 20)
#    0.000    2.867    2.000    1.600    0.000    2.133 
#    0.000    0.333    0.000    0.800    0.000    2.800 
#    0.000    0.533    0.000    0.000    0.000    0.000 
#
# Total GULP energy -334006.370941 kJ/mol
# GULP energy per Si atom -5566.772849 kJ/mol
# Density = 2.121548 g / cm^3
# Si number density = 21.263873 Si / 1000 Ang^3
#
#
#
# Elastic Constant Matrix: (Units=GPa)
#
#
# Indices 1 2 3 4 5 6 
#
# 1 74.9363 6.9341 11.6774 0.0000 0.0000 0.0000
# 2 6.9341 184.7511 99.3326 0.0000 0.0000 0.0000
# 3 11.6774 99.3326 137.0381 0.0000 0.0000 0.0000
# 4 0.0000 0.0000 0.0000 39.7497 0.0000 0.0000
# 5 0.0000 0.0000 0.0000 0.0000 9.3628 0.0000
# 6 0.0000 0.0000 0.0000 0.0000 0.0000 -4.6302
#
#
#
# Elastic Compliance Matrix: (Units=1/GPa)
#
#
# Indices 1 2 3 4 5 6 
#
# 1 0.013528 0.000184 -0.001286 0.000000 0.000000 0.000000
# 2 0.000184 0.008872 -0.006446 0.000000 0.000000 0.000000
# 3 -0.001286 -0.006446 0.012079 0.000000 0.000000 0.000000
# 4 0.000000 0.000000 0.000000 0.025157 0.000000 0.000000
# 5 0.000000 0.000000 0.000000 0.000000 0.106805 0.000000
# 6 0.000000 0.000000 0.000000 0.000000 0.000000 -0.215972
#
#
# Mechanical properties :
#
#
# Convention : Reuss Voigt Hill
#
# Bulk Modulus (GPa) = 51.59411 70.29041 60.94226
# Shear Modulus (GPa) = -178.75182 27.48188 -75.63497
#
# Velocity S-wave (km/s) = -9.17857 3.59893 -5.97050
# Velocity P-wave (km/s) = 9.38146 7.09913 4.33671
#
# Compressibility (1/GPa) = 0.01938206
#
# Stress axis : x y z
#
# Youngs Moduli (GPa) = 73.92051 112.71783 82.78511
#
# Poissons Ratio (x) = -0.02070 0.10645
# Poissons Ratio (y) = -0.01357 0.53366
# Poissons Ratio (z) = 0.09505 0.72662
#
# Static dielectric constant tensor:
#      x y z
#    x 1.735380 0.000000 0.000000 
#    y 0.000000 0.532430 0.000000 
#    z 0.000000 0.000000 1.773270 
# 
# From -- ./inp_files/63778.got.cif
#   From: 2010.05.17/outbox.cif.g08.bks.cpg/sg71_32_cif.got.tgz:63778.got - 2010.06.03 16:22:01.
