data_PCOD9518975
_publ_section_title
;
Structure prediction by ZEFSAII (Michael W. Deem and Ramdas Pophale) SiO2 
 PCOD9518975
Probable space group: I M M M
;
_chemical_formula_sum "Si O2"
_cell_formula_units_Z 116
_cell_length_a 23.648382
_cell_length_b 14.814907
_cell_length_c 17.572125
_cell_angle_alpha 90.000000
_cell_angle_beta 90.000000
_cell_angle_gamma 90.000000
_cell_volume 6156.369042
_symmetry_space_group_name_H-M "I M M M"
_symmetry_group_IT_number 71
_symmetry_cell_setting 'orthorhombic'
loop_
_space_group_symop_operation_xyz
x,y,z
-x,-y,z
x,-y,-z
-x,y,-z
-x,-y,-z
x,y,-z
-x,y,z
x,-y,z
1/2+x,1/2+y,1/2+z
1/2-x,1/2-y,1/2+z
1/2+x,1/2-y,1/2-z
1/2-x,1/2+y,1/2-z
1/2-x,1/2-y,1/2-z
1/2+x,1/2+y,1/2-z
1/2-x,1/2+y,1/2+z
1/2+x,1/2-y,1/2+z
loop_
_atom_site_type_symbol
_atom_site_label
_atom_site_fract_x
_atom_site_fract_y
_atom_site_fract_z
Si Si1 0.746399 0.391846 0.707411
Si Si2 0.094789 0.108224 0.415318
Si Si3 0.346949 0.143925 0.418550
Si Si4 0.277258 0.391161 0.877666
Si Si5 0.374466 0.898186 0.246577
Si Si6 0.619224 0.500000 0.500000
Si Si7 0.861208 0.157174 0.876675
Si Si8 0.564410 0.710068 0.763665
O O1 0.738479 0.500000 0.703872
O O2 0.724852 0.359919 0.790023
O O3 0.813605 0.376682 0.707667
O O4 0.705387 0.351335 0.644458
O O5 0.073416 0.130270 0.500000
O O6 0.162055 0.128807 0.412341
O O7 0.068581 0.161768 0.345275
O O8 0.088223 0.000000 0.404144
O O9 0.364513 0.104051 0.500000
O O10 0.278730 0.145606 0.416645
O O11 0.363992 0.099953 0.338130
O O12 0.369999 0.245052 0.412754
O O13 0.270961 0.500000 0.878240
O O14 0.414869 0.813944 0.230435
O O15 0.391953 0.000000 0.223771
O O16 0.621476 0.421354 0.433224
O O17 0.895762 0.158939 0.797335
O O18 0.500000 0.707653 0.736373
#
# Coordination Sequence:
#
# PCOD9518975 Si02
#       8
#    16  16  16  16  16   4  16  16
#     4   9  16  31  57  83 115 152 188 231 287 366
#     4  10  21  37  58  88 121 152 192 241 294 355
#     4  10  19  30  50  87 123 151 189 239 292 359
#     4   9  17  29  51  84 115 151 183 222 287 352
#     4   9  21  38  62  90 116 155 200 244 308 368
#     4  12  24  40  61  88 120 172 205 256 310 364
#     4  11  22  37  58  84 120 160 205 243 299 357
#     4  11  25  42  63  87 115 158 210 256 302 361
#
# _framework density 18.842275000000001
#
# number of rings (size 3 to 8) (size 9 to 14) (size 15 to 20)
#    0.000    2.069    2.759    1.655    2.897    4.138 
#    0.000    1.379    0.000    0.414    0.000    2.897 
#    0.000    0.000    0.000    0.000    0.000    0.000 
#
# Total GULP energy -322961.904073 kJ/mol
# GULP energy per Si atom -5568.308691 kJ/mol
# Density = 1.879939 g / cm^3
# Si number density = 18.842275 Si / 1000 Ang^3
#
#
#
# Elastic Constant Matrix: (Units=GPa)
#
#
# Indices 1 2 3 4 5 6 
#
# 1 36.8472 16.9867 15.8852 0.0000 0.0000 0.0000
# 2 16.9867 89.5319 31.8837 0.0000 0.0000 0.0000
# 3 15.8852 31.8837 83.1592 0.0000 0.0000 0.0000
# 4 0.0000 0.0000 0.0000 18.1218 0.0000 0.0000
# 5 0.0000 0.0000 0.0000 0.0000 -2.6931 0.0000
# 6 0.0000 0.0000 0.0000 0.0000 0.0000 0.6220
#
#
#
# Elastic Compliance Matrix: (Units=1/GPa)
#
#
# Indices 1 2 3 4 5 6 
#
# 1 0.030982 -0.004367 -0.004244 0.000000 0.000000 0.000000
# 2 -0.004367 0.013551 -0.004361 0.000000 0.000000 0.000000
# 3 -0.004244 -0.004361 0.014508 0.000000 0.000000 0.000000
# 4 0.000000 0.000000 0.000000 0.055182 0.000000 0.000000
# 5 0.000000 0.000000 0.000000 0.000000 -0.371325 0.000000
# 6 0.000000 0.000000 0.000000 0.000000 0.000000 1.607709
#
#
# Mechanical properties :
#
#
# Convention : Reuss Voigt Hill
#
# Bulk Modulus (GPa) = 30.21464 37.67216 33.94340
# Shear Modulus (GPa) = 3.60339 12.86232 8.23286
#
# Velocity S-wave (km/s) = 1.38439 2.61556 2.09257
# Velocity P-wave (km/s) = 4.31576 5.39985 4.88795
#
# Compressibility (1/GPa) = 0.03309654
#
# Stress axis : x y z
#
# Youngs Moduli (GPa) = 32.27699 73.79615 68.92764
#
# Poissons Ratio (x) = 0.32225 0.29253
# Poissons Ratio (y) = 0.14095 0.30062
# Poissons Ratio (z) = 0.13698 0.32185
#
# Static dielectric constant tensor:
#      x y z
#    x 1.641560 0.000000 0.000000 
#    y 0.000000 1.656420 0.000000 
#    z 0.000000 0.000000 1.675980 
# 
# From -- ./inp_files/48284.got.cif
#   From: 2010.05.17/outbox.cif.g08.bks.cpg/sg71_25_cif.got.tgz:48284.got - 2010.06.03 16:22:01.
