data_PCOD9518238
_publ_section_title
;
Structure prediction by ZEFSAII (Michael W. Deem and Ramdas Pophale) SiO2 
 PCOD9518238
Probable space group: I M M M
;
_chemical_formula_sum "Si O2"
_cell_formula_units_Z 96
_cell_length_a 26.306075
_cell_length_b 24.394725
_cell_length_c 7.712979
_cell_angle_alpha 90.000000
_cell_angle_beta 90.000000
_cell_angle_gamma 90.000000
_cell_volume 4949.645891
_symmetry_space_group_name_H-M "I M M M"
_symmetry_group_IT_number 71
_symmetry_cell_setting 'orthorhombic'
loop_
_space_group_symop_operation_xyz
x,y,z
-x,-y,z
x,-y,-z
-x,y,-z
-x,-y,-z
x,y,-z
-x,y,z
x,-y,z
1/2+x,1/2+y,1/2+z
1/2-x,1/2-y,1/2+z
1/2+x,1/2-y,1/2-z
1/2-x,1/2+y,1/2-z
1/2-x,1/2-y,1/2-z
1/2+x,1/2+y,1/2-z
1/2-x,1/2+y,1/2+z
1/2+x,1/2-y,1/2+z
loop_
_atom_site_type_symbol
_atom_site_label
_atom_site_fract_x
_atom_site_fract_y
_atom_site_fract_z
Si Si1 0.654343 0.371939 0.294008
Si Si2 0.442635 0.563235 0.288335
Si Si3 0.152073 0.364478 0.707484
Si Si4 0.190015 0.248198 0.293317
Si Si5 0.753378 0.437021 0.287345
Si Si6 0.057867 0.438412 0.208656
O O1 0.653424 0.381815 0.500000
O O2 0.601364 0.396171 0.225772
O O3 0.664664 0.307924 0.268570
O O4 0.702929 0.405649 0.226867
O O5 0.443456 0.564700 0.500000
O O6 0.500000 0.576546 0.230500
O O7 0.431284 0.500000 0.240714
O O8 0.157728 0.361614 0.500000
O O9 0.162560 0.303190 0.774598
O O10 0.196816 0.404424 0.771873
O O11 0.098181 0.392420 0.742239
O O12 0.186234 0.248090 0.500000
O O13 0.250000 0.250000 0.250000
O O14 0.753415 0.436477 0.500000
O O15 0.753922 0.500000 0.232916
O O16 0.072954 0.500000 0.269059
O O17 0.000000 0.428018 0.268714
O O18 0.056601 0.440168 0.000000
#
# Coordination Sequence:
#
# PCOD9518238 Si02
#       6
#    16  16  16  16  16  16
#     4  10  18  31  51  76 105 138 173 211 259 308
#     4   8  14  26  48  79 109 136 172 217 258 299
#     4  10  20  34  52  75 102 134 177 217 251 300
#     4  11  22  37  54  74 102 138 177 216 256 304
#     4   9  16  27  46  73 102 130 164 209 257 305
#     4   9  19  36  56  79 108 138 167 205 258 314
#
# _framework density 19.395327000000002
#
# number of rings (size 3 to 8) (size 9 to 14) (size 15 to 20)
#    0.000    2.500    1.667    2.500    0.000    4.667 
#    0.000    1.667    0.000    5.500    0.000    1.167 
#    0.000    0.000    0.000    0.000    0.000    0.000 
#
# Total GULP energy -267841.451385 kJ/mol
# GULP energy per Si atom -5580.030237 kJ/mol
# Density = 1.935118 g / cm^3
# Si number density = 19.395327 Si / 1000 Ang^3
#
#
#
# Elastic Constant Matrix: (Units=GPa)
#
#
# Indices 1 2 3 4 5 6 
#
# 1 156.6665 109.3908 -3.4249 0.0000 0.0000 0.0000
# 2 109.3908 169.9652 -10.5199 0.0000 0.0000 0.0000
# 3 -3.4249 -10.5199 22.5403 0.0000 0.0000 0.0000
# 4 0.0000 0.0000 0.0000 19.4986 0.0000 0.0000
# 5 0.0000 0.0000 0.0000 0.0000 -6.2799 0.0000
# 6 0.0000 0.0000 0.0000 0.0000 0.0000 28.0434
#
#
#
# Elastic Compliance Matrix: (Units=1/GPa)
#
#
# Indices 1 2 3 4 5 6 
#
# 1 0.011662 -0.007616 -0.001783 0.000000 0.000000 0.000000
# 2 -0.007616 0.011032 0.003992 0.000000 0.000000 0.000000
# 3 -0.001783 0.003992 0.045957 0.000000 0.000000 0.000000
# 4 0.000000 0.000000 0.000000 0.051286 0.000000 0.000000
# 5 0.000000 0.000000 0.000000 0.000000 -0.159237 0.000000
# 6 0.000000 0.000000 0.000000 0.000000 0.000000 0.035659
#
#
# Mechanical properties :
#
#
# Convention : Reuss Voigt Hill
#
# Bulk Modulus (GPa) = 17.28974 60.00710 38.64842
# Shear Modulus (GPa) = 189.02597 25.16747 107.09672
#
# Velocity S-wave (km/s) = 9.88287 3.60614 7.43893
# Velocity P-wave (km/s) = 11.79669 6.95306 9.68264
#
# Compressibility (1/GPa) = 0.05783777
#
# Stress axis : x y z
#
# Youngs Moduli (GPa) = 85.75033 90.64302 21.75942
#
# Poissons Ratio (x) = 0.69033 0.03879
# Poissons Ratio (y) = 0.65307 -0.08686
# Poissons Ratio (z) = 0.15285 -0.36182
#
# Static dielectric constant tensor:
#      x y z
#    x 1.664760 0.000000 0.000000 
#    y 0.000000 1.643900 0.000000 
#    z 0.000000 0.000000 1.735370 
# 
# From -- ./inp_files/10875.got.cif
#   From: 2010.05.17/outbox.cif.g08.bks.cpg/sg71_6_cif.got.tgz:10875.got - 2010.06.03 16:22:01.
