data_PCOD9518248
_publ_section_title
;
Structure prediction by ZEFSAII (Michael W. Deem and Ramdas Pophale) SiO2 
 PCOD9518248
Probable space group: I M M M
;
_chemical_formula_sum "Si O2"
_cell_formula_units_Z 120
_cell_length_a 20.897432
_cell_length_b 25.333823
_cell_length_c 13.023993
_cell_angle_alpha 90.000000
_cell_angle_beta 90.000000
_cell_angle_gamma 90.000000
_cell_volume 6895.056143
_symmetry_space_group_name_H-M "I M M M"
_symmetry_group_IT_number 71
_symmetry_cell_setting 'orthorhombic'
loop_
_space_group_symop_operation_xyz
x,y,z
-x,-y,z
x,-y,-z
-x,y,-z
-x,-y,-z
x,y,-z
-x,y,z
x,-y,z
1/2+x,1/2+y,1/2+z
1/2-x,1/2-y,1/2+z
1/2+x,1/2-y,1/2-z
1/2-x,1/2+y,1/2-z
1/2-x,1/2-y,1/2-z
1/2+x,1/2+y,1/2-z
1/2-x,1/2+y,1/2+z
1/2+x,1/2-y,1/2+z
loop_
_atom_site_type_symbol
_atom_site_label
_atom_site_fract_x
_atom_site_fract_y
_atom_site_fract_z
Si Si1 0.124027 0.612470 0.738722
Si Si2 0.121211 0.764837 0.612740
Si Si3 0.172656 0.138818 0.274804
Si Si4 0.775805 0.675105 0.383905
Si Si5 0.928089 0.279143 0.814632
Si Si6 0.575882 0.334938 0.383439
Si Si7 0.000000 0.436017 0.376187
Si Si8 0.727935 0.062265 0.380505
O O1 0.171543 0.631491 0.648065
O O2 0.108002 0.665293 0.805703
O O3 0.164334 0.575334 0.814627
O O4 0.061701 0.587758 0.684203
O O5 0.094098 0.759563 0.500000
O O6 0.142077 0.823618 0.639796
O O7 0.185574 0.729706 0.619236
O O8 0.074185 0.742197 0.697986
O O9 0.222407 0.171269 0.203062
O O10 0.115002 0.128992 0.195232
O O11 0.213344 0.092734 0.326269
O O12 0.751781 0.666803 0.500000
O O13 0.902708 0.227113 0.873412
O O14 0.000000 0.289270 0.850767
O O15 0.585115 0.351895 0.500000
O O16 0.500000 0.334706 0.360192
O O17 0.000000 0.500000 0.368757
O O18 0.000000 0.423051 0.500000
O O19 0.721348 0.078967 0.500000
O O20 0.739175 0.000000 0.378457
#
# Coordination Sequence:
#
# PCOD9518248 Si02
#       8
#    16  16  16  16  16  16   8  16
#     4  10  19  34  52  73 102 137 177 226 267 312
#     4   9  17  27  41  67  99 129 165 209 256 305
#     4  10  18  31  52  72  98 133 171 211 254 311
#     4   9  17  28  44  69  99 129 165 208 258 314
#     4   9  17  30  46  72 105 139 175 205 246 304
#     4   9  18  32  52  80 114 143 166 198 246 313
#     4  11  22  34  51  73  99 139 190 240 286 317
#     4  10  22  39  57  76  99 132 176 225 274 314
#
# _framework density 17.403773999999999
#
# number of rings (size 3 to 8) (size 9 to 14) (size 15 to 20)
#    0.000    2.467    0.667    2.000    0.000    2.400 
#    0.000    0.333    0.000   10.800    0.000    1.867 
#    0.000    0.000    0.000    0.000    0.000    0.000 
#
# Total GULP energy -334082.643076 kJ/mol
# GULP energy per Si atom -5568.044051 kJ/mol
# Density = 1.736416 g / cm^3
# Si number density = 17.403774 Si / 1000 Ang^3
#
#
#
# Elastic Constant Matrix: (Units=GPa)
#
#
# Indices 1 2 3 4 5 6 
#
# 1 63.8500 25.3242 24.6153 0.0000 0.0000 0.0000
# 2 25.3242 50.0940 26.4582 0.0000 0.0000 0.0000
# 3 24.6153 26.4582 94.2308 0.0000 0.0000 0.0000
# 4 0.0000 0.0000 0.0000 17.6474 0.0000 0.0000
# 5 0.0000 0.0000 0.0000 0.0000 18.1339 0.0000
# 6 0.0000 0.0000 0.0000 0.0000 0.0000 14.3816
#
#
#
# Elastic Compliance Matrix: (Units=1/GPa)
#
#
# Indices 1 2 3 4 5 6 
#
# 1 0.020213 -0.008723 -0.002831 0.000000 0.000000 0.000000
# 2 -0.008723 0.027203 -0.005359 0.000000 0.000000 0.000000
# 3 -0.002831 -0.005359 0.012857 0.000000 0.000000 0.000000
# 4 0.000000 0.000000 0.000000 0.056666 0.000000 0.000000
# 5 0.000000 0.000000 0.000000 0.000000 0.055145 0.000000
# 6 0.000000 0.000000 0.000000 0.000000 0.000000 0.069533
#
#
# Mechanical properties :
#
#
# Convention : Reuss Voigt Hill
#
# Bulk Modulus (GPa) = 37.81330 40.10781 38.96056
# Shear Modulus (GPa) = 17.58962 18.81770 18.20366
#
# Velocity S-wave (km/s) = 3.18257 3.29179 3.23764
# Velocity P-wave (km/s) = 5.93963 6.12726 6.03418
#
# Compressibility (1/GPa) = 0.02644572
#
# Stress axis : x y z
#
# Youngs Moduli (GPa) = 49.47361 36.76066 77.78148
#
# Poissons Ratio (x) = 0.32067 0.22018
# Poissons Ratio (y) = 0.43156 0.41686
# Poissons Ratio (z) = 0.14005 0.19701
#
# Static dielectric constant tensor:
#      x y z
#    x 1.606640 0.000000 0.000000 
#    y 0.000000 1.577340 0.000000 
#    z 0.000000 0.000000 1.597820 
# 
# From -- ./inp_files/38440.got.cif
#   From: 2010.05.17/outbox.cif.g08.bks.cpg/sg71_20_cif.got.tgz:38440.got - 2010.06.03 16:22:01.
