data_PCOD9518671
_publ_section_title
;
Structure prediction by ZEFSAII (Michael W. Deem and Ramdas Pophale) SiO2 
 PCOD9518671
Probable space group: I M M M
;
_chemical_formula_sum "Si O2"
_cell_formula_units_Z 72
_cell_length_a 8.821884
_cell_length_b 12.344458
_cell_length_c 32.932423
_cell_angle_alpha 90.000000
_cell_angle_beta 90.000000
_cell_angle_gamma 90.000000
_cell_volume 3586.386197
_symmetry_space_group_name_H-M "I M M M"
_symmetry_group_IT_number 71
_symmetry_cell_setting 'orthorhombic'
loop_
_space_group_symop_operation_xyz
x,y,z
-x,-y,z
x,-y,-z
-x,y,-z
-x,-y,-z
x,y,-z
-x,y,z
x,-y,z
1/2+x,1/2+y,1/2+z
1/2-x,1/2-y,1/2+z
1/2+x,1/2-y,1/2-z
1/2-x,1/2+y,1/2-z
1/2-x,1/2-y,1/2-z
1/2+x,1/2+y,1/2-z
1/2-x,1/2+y,1/2+z
1/2+x,1/2-y,1/2+z
loop_
_atom_site_type_symbol
_atom_site_label
_atom_site_fract_x
_atom_site_fract_y
_atom_site_fract_z
Si Si1 0.500000 0.870382 0.789696
Si Si2 0.179060 0.378353 0.500000
Si Si3 0.000000 0.326475 0.048008
Si Si4 0.000000 0.116957 0.894672
Si Si5 0.250724 0.772308 0.152695
Si Si6 0.827261 0.807664 0.565752
Si Si7 0.000000 0.628673 0.805761
O O1 0.641794 0.820223 0.813271
O O2 0.500000 0.844127 0.742013
O O3 0.500000 0.000000 0.793701
O O4 0.248655 0.500000 0.500000
O O5 0.204183 0.301430 0.539047
O O6 0.000000 0.394353 0.500000
O O7 0.000000 0.217229 0.074706
O O8 0.169199 0.373923 0.058190
O O9 0.000000 0.308838 0.000000
O O10 0.855343 0.134052 0.865951
O O11 0.000000 0.000000 0.914511
O O12 0.330524 0.721749 0.113183
O O13 0.143744 0.681918 0.172447
O O14 0.000000 0.846210 0.554421
O O15 0.000000 0.500000 0.810305
#
# Coordination Sequence:
#
# PCOD9518671 Si02
#       7
#     8   8   8   8  16  16   8
#     4  11  21  35  61  94 123 158 195 238 312 389
#     4   9  18  29  45  75 118 164 202 236 280 353
#     4  10  19  29  42  69 105 158 207 236 272 341
#     4   9  19  32  47  74 113 158 197 238 286 349
#     4  10  20  37  57  83 118 155 201 250 298 368
#     4  10  19  34  50  74 113 158 200 240 292 343
#     4  10  23  42  63  85 114 154 205 268 322 364
#
# _framework density 20.075921000000001
#
# number of rings (size 3 to 8) (size 9 to 14) (size 15 to 20)
#    0.000    2.111    2.222    2.000    0.000    4.667 
#    0.000    0.556    0.000    4.000    0.000    1.556 
#    0.000    2.667    0.000    0.000    0.000    0.000 
#
# Total GULP energy -200507.742753 kJ/mol
# GULP energy per Si atom -5569.659521 kJ/mol
# Density = 2.003023 g / cm^3
# Si number density = 20.075921 Si / 1000 Ang^3
#
#
#
# Elastic Constant Matrix: (Units=GPa)
#
#
# Indices 1 2 3 4 5 6 
#
# 1 161.7754 26.2612 40.5207 0.0000 0.0000 0.0000
# 2 26.2612 71.2333 43.7263 0.0000 0.0000 0.0000
# 3 40.5207 43.7263 152.2587 0.0000 0.0000 0.0000
# 4 0.0000 0.0000 0.0000 14.2876 0.0000 0.0000
# 5 0.0000 0.0000 0.0000 0.0000 -10.0195 0.0000
# 6 0.0000 0.0000 0.0000 0.0000 0.0000 -40.4725
#
#
#
# Elastic Compliance Matrix: (Units=1/GPa)
#
#
# Indices 1 2 3 4 5 6 
#
# 1 0.006787 -0.001692 -0.001320 0.000000 0.000000 0.000000
# 2 -0.001692 0.017464 -0.004565 0.000000 0.000000 0.000000
# 3 -0.001320 -0.004565 0.008230 0.000000 0.000000 0.000000
# 4 0.000000 0.000000 0.000000 0.069991 0.000000 0.000000
# 5 0.000000 0.000000 0.000000 0.000000 -0.099805 0.000000
# 6 0.000000 0.000000 0.000000 0.000000 0.000000 -0.024708
#
#
# Mechanical properties :
#
#
# Convention : Reuss Voigt Hill
#
# Bulk Modulus (GPa) = 57.71370 67.36487 62.53928
# Shear Modulus (GPa) = -4502.08009 11.07637 -2245.50186
#
# Velocity S-wave (km/s) = -47.40670 2.35143 -33.48034
# Velocity P-wave (km/s) = 54.47676 6.40314 38.25387
#
# Compressibility (1/GPa) = 0.01732691
#
# Stress axis : x y z
#
# Youngs Moduli (GPa) = 147.34661 57.25933 121.50289
#
# Poissons Ratio (x) = 0.09686 0.16043
# Poissons Ratio (y) = 0.24924 0.55470
# Poissons Ratio (z) = 0.19455 0.26141
#
# Static dielectric constant tensor:
#      x y z
#    x 1.794310 0.000000 0.000000 
#    y 0.000000 1.690890 0.000000 
#    z 0.000000 0.000000 1.683610 
# 
# From -- ./inp_files/67901.got.cif
#   From: 2010.05.17/outbox.cif.g08.bks.cpg/sg71_34_cif.got.tgz:67901.got - 2010.06.03 16:22:01.
