data_PCOD9518922
_publ_section_title
;
Structure prediction by ZEFSAII (Michael W. Deem and Ramdas Pophale) SiO2 
 PCOD9518922
Probable space group: I M M M
;
_chemical_formula_sum "Si O2"
_cell_formula_units_Z 96
_cell_length_a 7.422946
_cell_length_b 23.651119
_cell_length_c 28.915730
_cell_angle_alpha 90.000000
_cell_angle_beta 90.000000
_cell_angle_gamma 90.000000
_cell_volume 5076.473872
_symmetry_space_group_name_H-M "I M M M"
_symmetry_group_IT_number 71
_symmetry_cell_setting 'orthorhombic'
loop_
_space_group_symop_operation_xyz
x,y,z
-x,-y,z
x,-y,-z
-x,y,-z
-x,-y,-z
x,y,-z
-x,y,z
x,-y,z
1/2+x,1/2+y,1/2+z
1/2-x,1/2-y,1/2+z
1/2+x,1/2-y,1/2-z
1/2-x,1/2+y,1/2-z
1/2-x,1/2-y,1/2-z
1/2+x,1/2+y,1/2-z
1/2-x,1/2+y,1/2+z
1/2+x,1/2-y,1/2+z
loop_
_atom_site_type_symbol
_atom_site_label
_atom_site_fract_x
_atom_site_fract_y
_atom_site_fract_z
Si Si1 0.500000 0.672428 0.944477
Si Si2 0.000000 0.062634 0.620263
Si Si3 0.218260 0.935770 0.794164
Si Si4 0.785461 0.268218 0.197768
Si Si5 0.281002 0.337428 0.361762
Si Si6 0.713763 0.268381 0.445999
Si Si7 0.790128 0.395770 0.189801
O O1 0.500000 0.614504 0.915851
O O2 0.328221 0.712631 0.933674
O O3 0.500000 0.661714 0.000000
O O4 0.829505 0.069063 0.654496
O O5 0.000000 0.000000 0.598897
O O6 0.281219 0.892448 0.833892
O O7 0.273900 0.915926 0.742935
O O8 0.000000 0.935118 0.794210
O O9 0.277528 0.000000 0.802070
O O10 0.750000 0.250000 0.250000
O O11 0.717345 0.218074 0.165789
O O12 0.719193 0.331154 0.188401
O O13 0.000000 0.270774 0.191236
O O14 0.500000 0.339647 0.359680
O O15 0.234286 0.321940 0.414331
O O16 0.745436 0.279783 0.500000
O O17 0.500000 0.257606 0.439122
O O18 0.000000 0.397634 0.176992
#
# Coordination Sequence:
#
# PCOD9518922 Si02
#       7
#     8   8  16  16  16  16  16
#     4  10  22  41  64  90 113 138 178 230 282 342
#     4  12  26  41  60  82 110 155 192 228 278 324
#     4  10  19  33  52  73 107 153 193 228 268 318
#     4  10  19  30  48  74 104 135 173 223 276 321
#     4   9  17  31  50  76 108 141 179 225 273 327
#     4   9  18  36  61  86 112 141 175 223 286 342
#     4  11  23  38  55  79 111 150 193 234 274 328
#
# _framework density 18.910765000000001
#
# number of rings (size 3 to 8) (size 9 to 14) (size 15 to 20)
#    0.000    2.000    2.500    1.500    1.167    3.500 
#    3.000    0.000    0.000    0.500    0.000    7.000 
#    0.000    2.000    0.000    0.167    0.000    0.000 
#
# Total GULP energy -267978.078007 kJ/mol
# GULP energy per Si atom -5582.876625 kJ/mol
# Density = 1.886772 g / cm^3
# Si number density = 18.910765 Si / 1000 Ang^3
#
#
#
# Elastic Constant Matrix: (Units=GPa)
#
#
# Indices 1 2 3 4 5 6 
#
# 1 80.7334 25.9013 20.8698 0.0000 0.0000 0.0000
# 2 25.9013 150.3527 64.2507 0.0000 0.0000 0.0000
# 3 20.8698 64.2507 101.0971 0.0000 0.0000 0.0000
# 4 0.0000 0.0000 0.0000 20.4166 0.0000 0.0000
# 5 0.0000 0.0000 0.0000 0.0000 3.2106 0.0000
# 6 0.0000 0.0000 0.0000 0.0000 0.0000 22.3423
#
#
#
# Elastic Compliance Matrix: (Units=1/GPa)
#
#
# Indices 1 2 3 4 5 6 
#
# 1 0.013339 -0.001539 -0.001775 0.000000 0.000000 0.000000
# 2 -0.001539 0.009308 -0.005598 0.000000 0.000000 0.000000
# 3 -0.001775 -0.005598 0.013816 0.000000 0.000000 0.000000
# 4 0.000000 0.000000 0.000000 0.048980 0.000000 0.000000
# 5 0.000000 0.000000 0.000000 0.000000 0.311468 0.000000
# 6 0.000000 0.000000 0.000000 0.000000 0.000000 0.044758
#
#
# Mechanical properties :
#
#
# Convention : Reuss Voigt Hill
#
# Bulk Modulus (GPa) = 53.65402 61.58075 57.61739
# Shear Modulus (GPa) = 10.73635 23.93798 17.33717
#
# Velocity S-wave (km/s) = 2.38531 3.56172 3.03114
# Velocity P-wave (km/s) = 6.00167 7.03911 6.54099
#
# Compressibility (1/GPa) = 0.01863793
#
# Stress axis : x y z
#
# Youngs Moduli (GPa) = 74.96685 107.42924 72.38104
#
# Poissons Ratio (x) = 0.16536 0.12851
# Poissons Ratio (y) = 0.11539 0.40520
# Poissons Ratio (z) = 0.13310 0.60140
#
# Static dielectric constant tensor:
#      x y z
#    x 1.648920 0.000000 0.000000 
#    y 0.000000 1.654130 0.000000 
#    z 0.000000 0.000000 1.654970 
# 
# From -- ./inp_files/63492.got.cif
#   From: 2010.05.17/outbox.cif.g08.bks.cpg/sg71_32_cif.got.tgz:63492.got - 2010.06.03 16:22:01.
