data_PCOD9518465
_publ_section_title
;
Structure prediction by ZEFSAII (Michael W. Deem and Ramdas Pophale) SiO2 
 PCOD9518465
Probable space group: I M M M
;
_chemical_formula_sum "Si O2"
_cell_formula_units_Z 116
_cell_length_a 9.506668
_cell_length_b 24.229427
_cell_length_c 29.041199
_cell_angle_alpha 90.000000
_cell_angle_beta 90.000000
_cell_angle_gamma 90.000000
_cell_volume 6689.382255
_symmetry_space_group_name_H-M "I M M M"
_symmetry_group_IT_number 71
_symmetry_cell_setting 'orthorhombic'
loop_
_space_group_symop_operation_xyz
x,y,z
-x,-y,z
x,-y,-z
-x,y,-z
-x,-y,-z
x,y,-z
-x,y,z
x,-y,z
1/2+x,1/2+y,1/2+z
1/2-x,1/2-y,1/2+z
1/2+x,1/2-y,1/2-z
1/2-x,1/2+y,1/2-z
1/2-x,1/2-y,1/2-z
1/2+x,1/2+y,1/2-z
1/2-x,1/2+y,1/2+z
1/2+x,1/2-y,1/2+z
loop_
_atom_site_type_symbol
_atom_site_label
_atom_site_fract_x
_atom_site_fract_y
_atom_site_fract_z
Si Si1 0.834835 0.794281 0.054025
Si Si2 0.341532 0.363419 0.149801
Si Si3 0.335613 0.566415 0.305837
Si Si4 0.335034 0.750750 0.796982
Si Si5 0.662164 0.066265 0.714385
Si Si6 0.831399 0.648201 0.633815
Si Si7 0.000000 0.375494 0.000000
Si Si8 0.761770 0.167128 0.450173
O O1 0.737000 0.830962 0.086389
O O2 0.789041 0.730133 0.057978
O O3 0.000000 0.798939 0.066681
O O4 0.821814 0.808671 0.000000
O O5 0.500000 0.380430 0.163072
O O6 0.310332 0.304681 0.173737
O O7 0.229741 0.406180 0.169667
O O8 0.335564 0.354621 0.095124
O O9 0.500000 0.582949 0.305505
O O10 0.329650 0.500000 0.309515
O O11 0.257651 0.582326 0.258249
O O12 0.249251 0.595119 0.346624
O O13 0.500000 0.752847 0.785843
O O14 0.250000 0.750000 0.750000
O O15 0.303347 0.803126 0.829086
O O16 0.500000 0.083334 0.721503
O O17 0.665635 0.000000 0.710788
O O18 0.000000 0.640609 0.630274
O O19 0.876354 0.368951 0.039274
O O20 0.838581 0.167272 0.500000
#
# Coordination Sequence:
#
# PCOD9518465 Si02
#       8
#    16  16  16  16  16  16   4  16
#     4  10  18  33  54  79 110 145 186 223 265 319
#     4  11  22  35  54  78 111 147 182 221 269 325
#     4  10  21  39  60  81 106 140 184 230 272 320
#     4  10  22  36  46  72 109 143 176 212 260 318
#     4  10  22  38  58  82 107 139 184 231 274 321
#     4  11  22  35  53  80 113 145 181 221 270 325
#     4   8  16  32  50  80 109 138 187 224 264 318
#     4   9  17  32  53  77 108 142 183 223 264 319
#
# _framework density 17.340914999999999
#
# number of rings (size 3 to 8) (size 9 to 14) (size 15 to 20)
#    0.414    1.517    2.069    2.069    0.966    6.069 
#    0.000    1.379    0.000    0.828    0.000    5.310 
#    0.000    0.000    0.000    0.000    0.000    0.000 
#
# Total GULP energy -322885.058930 kJ/mol
# GULP energy per Si atom -5566.983775 kJ/mol
# Density = 1.730145 g / cm^3
# Si number density = 17.340915 Si / 1000 Ang^3
#
#
#
# Elastic Constant Matrix: (Units=GPa)
#
#
# Indices 1 2 3 4 5 6 
#
# 1 111.7422 32.4045 49.6630 0.0000 0.0000 0.0000
# 2 32.4045 22.1063 17.1479 0.0000 0.0000 0.0000
# 3 49.6630 17.1479 84.4946 0.0000 0.0000 0.0000
# 4 0.0000 0.0000 0.0000 18.1980 0.0000 0.0000
# 5 0.0000 0.0000 0.0000 0.0000 36.2726 0.0000
# 6 0.0000 0.0000 0.0000 0.0000 0.0000 11.7686
#
#
#
# Elastic Compliance Matrix: (Units=1/GPa)
#
#
# Indices 1 2 3 4 5 6 
#
# 1 0.017924 -0.021484 -0.006175 0.000000 0.000000 0.000000
# 2 -0.021484 0.079439 -0.003494 0.000000 0.000000 0.000000
# 3 -0.006175 -0.003494 0.016174 0.000000 0.000000 0.000000
# 4 0.000000 0.000000 0.000000 0.054951 0.000000 0.000000
# 5 0.000000 0.000000 0.000000 0.000000 0.027569 0.000000
# 6 0.000000 0.000000 0.000000 0.000000 0.000000 0.084972
#
#
# Mechanical properties :
#
#
# Convention : Reuss Voigt Hill
#
# Bulk Modulus (GPa) = 19.51982 46.30820 32.91401
# Shear Modulus (GPa) = 13.87307 21.18967 17.53137
#
# Velocity S-wave (km/s) = 2.83153 3.49943 3.18305
# Velocity P-wave (km/s) = 4.68733 6.56434 5.70358
#
# Compressibility (1/GPa) = 0.05122999
#
# Stress axis : x y z
#
# Youngs Moduli (GPa) = 55.79218 12.58835 61.82903
#
# Poissons Ratio (x) = 0.27044 0.38179
# Poissons Ratio (y) = 1.19862 0.21606
# Poissons Ratio (z) = 0.34451 0.04399
#
# Static dielectric constant tensor:
#      x y z
#    x 1.585190 0.000000 0.000000 
#    y 0.000000 1.586160 0.000000 
#    z 0.000000 0.000000 1.589130 
# 
# From -- ./inp_files/68498.got.cif
#   From: 2010.05.17/outbox.cif.g08.bks.cpg/sg71_35_cif.got.tgz:68498.got - 2010.06.03 16:22:01.
