data_PCOD9518570
_publ_section_title
;
Structure prediction by ZEFSAII (Michael W. Deem and Ramdas Pophale) SiO2 
 PCOD9518570
Probable space group: I M M M
;
_chemical_formula_sum "Si O2"
_cell_formula_units_Z 96
_cell_length_a 7.864740
_cell_length_b 25.390428
_cell_length_c 23.603717
_cell_angle_alpha 90.000000
_cell_angle_beta 90.000000
_cell_angle_gamma 90.000000
_cell_volume 4713.405352
_symmetry_space_group_name_H-M "I M M M"
_symmetry_group_IT_number 71
_symmetry_cell_setting 'orthorhombic'
loop_
_space_group_symop_operation_xyz
x,y,z
-x,-y,z
x,-y,-z
-x,y,-z
-x,-y,-z
x,y,-z
-x,y,z
x,-y,z
1/2+x,1/2+y,1/2+z
1/2-x,1/2-y,1/2+z
1/2+x,1/2-y,1/2-z
1/2-x,1/2+y,1/2-z
1/2-x,1/2-y,1/2-z
1/2+x,1/2+y,1/2-z
1/2-x,1/2+y,1/2+z
1/2+x,1/2-y,1/2+z
loop_
_atom_site_type_symbol
_atom_site_label
_atom_site_fract_x
_atom_site_fract_y
_atom_site_fract_z
Si Si1 0.296134 0.605990 0.622480
Si Si2 0.806877 0.689738 0.294977
Si Si3 0.805860 0.248248 0.500000
Si Si4 0.808776 0.500000 0.210076
Si Si5 0.301100 0.364692 0.500000
Si Si6 0.809063 0.000000 0.829445
Si Si7 0.208350 0.781938 0.373787
Si Si8 0.299046 0.383788 0.189328
O O1 0.500000 0.612529 0.634321
O O2 0.201901 0.655696 0.647674
O O3 0.271658 0.602742 0.556092
O O4 0.227932 0.553840 0.651536
O O5 0.733116 0.744762 0.320356
O O6 0.729633 0.649685 0.248051
O O7 0.000000 0.699565 0.277234
O O8 0.802995 0.311261 0.500000
O O9 0.732883 0.232430 0.437690
O O10 0.000000 0.228032 0.500000
O O11 0.500000 0.500000 0.645446
O O12 0.682336 0.500000 0.262589
O O13 0.783106 0.558216 0.183337
O O14 0.500000 0.348169 0.500000
O O15 0.500000 0.000000 0.732893
O O16 0.255021 0.841626 0.358104
O O17 0.000000 0.777359 0.373037
O O18 0.500000 0.392288 0.185271
#
# Coordination Sequence:
#
# PCOD9518570 Si02
#       8
#    16  16   8   8   8   8  16  16
#     4  10  20  33  51  75 107 147 191 233 274 320
#     4  11  20  33  54  84 114 146 183 226 275 321
#     4  10  18  36  59  80 108 144 179 221 272 328
#     4  12  24  38  57  82 108 141 182 227 274 329
#     4  10  20  33  50  78 109 145 192 234 272 321
#     4  10  20  35  54  74 103 148 191 229 275 317
#     4   9  20  35  57  85 113 145 183 223 272 327
#     4  11  22  38  57  82 113 147 182 222 274 333
#
# _framework density 20.367440999999999
#
# number of rings (size 3 to 8) (size 9 to 14) (size 15 to 20)
#    0.000    1.667    3.333    2.250    0.000    0.333 
#    0.000    5.833    0.000    0.500    0.000    5.833 
#    0.000    0.000    0.000    0.000    0.000    0.000 
#
# Total GULP energy -267387.428310 kJ/mol
# GULP energy per Si atom -5570.571423 kJ/mol
# Density = 2.032108 g / cm^3
# Si number density = 20.367441 Si / 1000 Ang^3
#
#
#
# Elastic Constant Matrix: (Units=GPa)
#
#
# Indices 1 2 3 4 5 6 
#
# 1 38.8657 11.9827 4.4267 0.0000 0.0000 0.0000
# 2 11.9827 144.3760 12.4893 0.0000 0.0000 0.0000
# 3 4.4267 12.4893 36.8097 0.0000 0.0000 0.0000
# 4 0.0000 0.0000 0.0000 45.4510 0.0000 0.0000
# 5 0.0000 0.0000 0.0000 0.0000 11.6323 0.0000
# 6 0.0000 0.0000 0.0000 0.0000 0.0000 -1.1112
#
#
#
# Elastic Compliance Matrix: (Units=1/GPa)
#
#
# Indices 1 2 3 4 5 6 
#
# 1 0.026631 -0.001992 -0.002527 0.000000 0.000000 0.000000
# 2 -0.001992 0.007285 -0.002232 0.000000 0.000000 0.000000
# 3 -0.002527 -0.002232 0.028228 0.000000 0.000000 0.000000
# 4 0.000000 0.000000 0.000000 0.022002 0.000000 0.000000
# 5 0.000000 0.000000 0.000000 0.000000 0.085968 0.000000
# 6 0.000000 0.000000 0.000000 0.000000 0.000000 -0.899921
#
#
# Mechanical properties :
#
#
# Convention : Reuss Voigt Hill
#
# Bulk Modulus (GPa) = 20.55808 30.87209 25.71508
# Shear Modulus (GPa) = -7.14193 23.93793 8.39800
#
# Velocity S-wave (km/s) = -1.87461 3.43199 2.03278
# Velocity P-wave (km/s) = 2.33023 5.55835 4.26176
#
# Compressibility (1/GPa) = 0.04864268
#
# Stress axis : x y z
#
# Youngs Moduli (GPa) = 37.54956 137.27288 35.42584
#
# Poissons Ratio (x) = 0.27341 0.08952
# Poissons Ratio (y) = 0.07479 0.07908
# Poissons Ratio (z) = 0.09488 0.30641
#
# Static dielectric constant tensor:
#      x y z
#    x 1.763330 0.000000 0.000000 
#    y 0.000000 1.788960 0.000000 
#    z 0.000000 0.000000 1.739140 
# 
# From -- ./inp_files/57814.got.cif
#   From: 2010.05.17/outbox.cif.g08.bks.cpg/sg71_29_cif.got.tgz:57814.got - 2010.06.03 16:22:01.
