data_PCOD9518857
_publ_section_title
;
Structure prediction by ZEFSAII (Michael W. Deem and Ramdas Pophale) SiO2 
 PCOD9518857
Probable space group: I M M M
;
_chemical_formula_sum "Si O2"
_cell_formula_units_Z 88
_cell_length_a 7.345861
_cell_length_b 18.720462
_cell_length_c 28.945152
_cell_angle_alpha 90.000000
_cell_angle_beta 90.000000
_cell_angle_gamma 90.000000
_cell_volume 3980.476857
_symmetry_space_group_name_H-M "I M M M"
_symmetry_group_IT_number 71
_symmetry_cell_setting 'orthorhombic'
loop_
_space_group_symop_operation_xyz
x,y,z
-x,-y,z
x,-y,-z
-x,y,-z
-x,-y,-z
x,y,-z
-x,y,z
x,-y,z
1/2+x,1/2+y,1/2+z
1/2-x,1/2-y,1/2+z
1/2+x,1/2-y,1/2-z
1/2-x,1/2+y,1/2-z
1/2-x,1/2-y,1/2-z
1/2+x,1/2+y,1/2-z
1/2-x,1/2+y,1/2+z
1/2+x,1/2-y,1/2+z
loop_
_atom_site_type_symbol
_atom_site_label
_atom_site_fract_x
_atom_site_fract_y
_atom_site_fract_z
Si Si1 0.207358 0.145980 0.850560
Si Si2 0.279215 0.850868 0.406796
Si Si3 0.705594 0.296746 0.192059
Si Si4 0.278119 0.299042 0.448386
Si Si5 0.278100 0.000000 0.447474
Si Si6 0.276714 0.420513 0.740269
O O1 0.204852 0.222064 0.823087
O O2 0.285553 0.159694 0.901862
O O3 0.284922 0.092458 0.812501
O O4 0.000000 0.123158 0.858504
O O5 0.500000 0.849856 0.403995
O O6 0.204539 0.838409 0.356083
O O7 0.228956 0.783734 0.438934
O O8 0.218607 0.926923 0.424649
O O9 0.500000 0.278857 0.206866
O O10 0.783853 0.352961 0.228822
O O11 0.219720 0.321320 0.500000
O O12 0.500000 0.302405 0.447898
O O13 0.500000 0.000000 0.446230
O O14 0.221487 0.000000 0.500000
O O15 0.500000 0.418461 0.741155
O O16 0.223540 0.500000 0.756429
#
# Coordination Sequence:
#
# PCOD9518857 Si02
#       6
#    16  16  16  16   8  16
#     4   9  17  31  51  70  90 118 153 192 226 269
#     4   9  17  28  43  64  90 119 154 191 225 268
#     4  10  19  30  47  67  91 123 155 190 227 270
#     4   8  13  23  42  66  87 109 142 182 223 265
#     4   9  16  26  43  65  89 121 159 199 238 273
#     4   9  18  31  47  68  93 123 155 184 226 282
#
# _framework density 22.107904000000001
#
# number of rings (size 3 to 8) (size 9 to 14) (size 15 to 20)
#    0.000    3.000    0.000    2.727    1.273    2.182 
#    0.000    0.909    0.000   17.455    0.000    3.818 
#    0.000    0.000    0.000    6.545    0.000    7.273 
#
# Total GULP energy -245341.067547 kJ/mol
# GULP energy per Si atom -5575.933353 kJ/mol
# Density = 2.205759 g / cm^3
# Si number density = 22.107904 Si / 1000 Ang^3
#
#
#
# Elastic Constant Matrix: (Units=GPa)
#
#
# Indices 1 2 3 4 5 6 
#
# 1 80.5881 -4.9607 -3.4246 0.0000 0.0000 0.0000
# 2 -4.9607 24.8966 23.7959 0.0000 0.0000 0.0000
# 3 -3.4246 23.7959 135.4349 0.0000 0.0000 0.0000
# 4 0.0000 0.0000 0.0000 17.6380 0.0000 0.0000
# 5 0.0000 0.0000 0.0000 0.0000 -2.1307 0.0000
# 6 0.0000 0.0000 0.0000 0.0000 0.0000 12.6153
#
#
#
# Elastic Compliance Matrix: (Units=1/GPa)
#
#
# Indices 1 2 3 4 5 6 
#
# 1 0.012565 0.002644 -0.000147 0.000000 0.000000 0.000000
# 2 0.002644 0.048829 -0.008512 0.000000 0.000000 0.000000
# 3 -0.000147 -0.008512 0.008876 0.000000 0.000000 0.000000
# 4 0.000000 0.000000 0.000000 0.056696 0.000000 0.000000
# 5 0.000000 0.000000 0.000000 0.000000 -0.469327 0.000000
# 6 0.000000 0.000000 0.000000 0.000000 0.000000 0.079269
#
#
# Mechanical properties :
#
#
# Convention : Reuss Voigt Hill
#
# Bulk Modulus (GPa) = 17.17051 30.19341 23.68196
# Shear Modulus (GPa) = -21.58436 20.65845 -0.46296
#
# Velocity S-wave (km/s) = -3.12800 3.06017 -0.45811
# Velocity P-wave (km/s) = 2.29397 5.11597 3.23348
#
# Compressibility (1/GPa) = 0.05823939
#
# Stress axis : x y z
#
# Youngs Moduli (GPa) = 79.58425 20.47963 112.66924
#
# Poissons Ratio (x) = -0.05415 0.01654
# Poissons Ratio (y) = -0.21042 0.95909
# Poissons Ratio (z) = 0.01168 0.17433
#
# Static dielectric constant tensor:
#      x y z
#    x 1.870050 0.000000 0.000000 
#    y 0.000000 1.744830 0.000000 
#    z 0.000000 0.000000 1.806220 
# 
# From -- ./inp_files/16846.got.cif
#   From: 2010.05.17/outbox.cif.g08.bks.cpg/sg71_9_cif.got.tgz:16846.got - 2010.06.03 16:22:01.
