data_PCOD9518378
_publ_section_title
;
Structure prediction by ZEFSAII (Michael W. Deem and Ramdas Pophale) SiO2 
 PCOD9518378
Probable space group: I M M M
;
_chemical_formula_sum "Si O2"
_cell_formula_units_Z 120
_cell_length_a 26.144981
_cell_length_b 12.748108
_cell_length_c 22.565210
_cell_angle_alpha 90.000000
_cell_angle_beta 90.000000
_cell_angle_gamma 90.000000
_cell_volume 7520.962863
_symmetry_space_group_name_H-M "I M M M"
_symmetry_group_IT_number 71
_symmetry_cell_setting 'orthorhombic'
loop_
_space_group_symop_operation_xyz
x,y,z
-x,-y,z
x,-y,-z
-x,y,-z
-x,-y,-z
x,y,-z
-x,y,z
x,-y,z
1/2+x,1/2+y,1/2+z
1/2-x,1/2-y,1/2+z
1/2+x,1/2-y,1/2-z
1/2-x,1/2+y,1/2-z
1/2-x,1/2-y,1/2-z
1/2+x,1/2+y,1/2-z
1/2-x,1/2+y,1/2+z
1/2+x,1/2-y,1/2+z
loop_
_atom_site_type_symbol
_atom_site_label
_atom_site_fract_x
_atom_site_fract_y
_atom_site_fract_z
Si Si1 0.731622 0.874955 0.429248
Si Si2 0.137034 0.265495 0.132286
Si Si3 0.793065 0.875720 0.216294
Si Si4 0.700148 0.249794 0.164041
Si Si5 0.096112 0.625567 0.351415
Si Si6 0.500000 0.127290 0.067846
Si Si7 0.057227 0.375635 0.217749
Si Si8 0.942500 0.118606 0.070956
O O1 0.735045 0.855530 0.500000
O O2 0.676701 0.837323 0.403862
O O3 0.772275 0.807319 0.391093
O O4 0.738084 0.000000 0.419304
O O5 0.168968 0.184422 0.172238
O O6 0.100515 0.329794 0.175856
O O7 0.099913 0.199297 0.090708
O O8 0.737191 0.837921 0.193841
O O9 0.804192 0.833995 0.282564
O O10 0.797607 0.000000 0.213288
O O11 0.647431 0.194348 0.145614
O O12 0.106764 0.500000 0.358678
O O13 0.072586 0.640755 0.285994
O O14 0.051824 0.657294 0.397699
O O15 0.500000 0.000000 0.068235
O O16 0.500000 0.163259 0.000000
O O17 0.055546 0.500000 0.208301
O O18 0.000000 0.333231 0.206792
O O19 0.000000 0.146699 0.091147
O O20 0.931388 0.000000 0.092146
O O21 0.943532 0.115533 0.000000
#
# Coordination Sequence:
#
# PCOD9518378 Si02
#       8
#    16  16  16  16  16   8  16  16
#     4  10  22  38  54  73 100 134 175 219 257 300
#     4  11  19  32  52  76 101 133 170 211 255 307
#     4  10  20  32  48  75 104 129 164 209 256 305
#     4  10  20  34  52  75  99 136 170 206 254 306
#     4  10  18  32  52  77 109 137 166 205 252 305
#     4   9  18  32  52  78 107 139 170 203 247 301
#     4  10  19  31  49  76 108 138 166 204 254 310
#     4   9  18  32  49  70  98 135 176 212 250 299
#
# _framework density 15.955404
#
# number of rings (size 3 to 8) (size 9 to 14) (size 15 to 20)
#    0.000    2.067    2.000    2.800    0.000    0.533 
#    0.000    0.000    0.000    7.600    0.000    7.000 
#    0.000    3.200    0.000    0.000    0.000    0.000 
#
# Total GULP energy -334492.492715 kJ/mol
# GULP energy per Si atom -5574.874879 kJ/mol
# Density = 1.591909 g / cm^3
# Si number density = 15.955404 Si / 1000 Ang^3
#
#
#
# Elastic Constant Matrix: (Units=GPa)
#
#
# Indices 1 2 3 4 5 6 
#
# 1 125.5376 57.6092 55.4139 0.0000 0.0000 0.0000
# 2 57.6092 76.2675 52.2208 0.0000 0.0000 0.0000
# 3 55.4139 52.2208 102.2793 0.0000 0.0000 0.0000
# 4 0.0000 0.0000 0.0000 24.8392 0.0000 0.0000
# 5 0.0000 0.0000 0.0000 0.0000 15.8182 0.0000
# 6 0.0000 0.0000 0.0000 0.0000 0.0000 28.3350
#
#
#
# Elastic Compliance Matrix: (Units=1/GPa)
#
#
# Indices 1 2 3 4 5 6 
#
# 1 0.012790 -0.007559 -0.003070 0.000000 0.000000 0.000000
# 2 -0.007559 0.024626 -0.008478 0.000000 0.000000 0.000000
# 3 -0.003070 -0.008478 0.015769 0.000000 0.000000 0.000000
# 4 0.000000 0.000000 0.000000 0.040259 0.000000 0.000000
# 5 0.000000 0.000000 0.000000 0.000000 0.063218 0.000000
# 6 0.000000 0.000000 0.000000 0.000000 0.000000 0.035292
#
#
# Mechanical properties :
#
#
# Convention : Reuss Voigt Hill
#
# Bulk Modulus (GPa) = 66.79485 70.50802 68.65144
# Shear Modulus (GPa) = 21.26221 23.05450 22.15836
#
# Velocity S-wave (km/s) = 3.65444 3.80535 3.73066
# Velocity P-wave (km/s) = 7.73052 7.97460 7.85351
#
# Compressibility (1/GPa) = 0.01497121
#
# Stress axis : x y z
#
# Youngs Moduli (GPa) = 78.18897 40.60690 63.41451
#
# Poissons Ratio (x) = 0.30693 0.19468
# Poissons Ratio (y) = 0.59100 0.53765
# Poissons Ratio (z) = 0.24004 0.34428
#
# Static dielectric constant tensor:
#      x y z
#    x 1.550140 0.000000 0.000000 
#    y 0.000000 1.512180 0.000000 
#    z 0.000000 0.000000 1.523220 
# 
# From -- ./inp_files/55840.got.cif
#   From: 2010.05.17/outbox.cif.g08.bks.cpg/sg71_28_cif.got.tgz:55840.got - 2010.06.03 16:22:01.
