data_PCOD9518872
_publ_section_title
;
Structure prediction by ZEFSAII (Michael W. Deem and Ramdas Pophale) SiO2 
 PCOD9518872
Probable space group: I M M M
;
_chemical_formula_sum "Si O2"
_cell_formula_units_Z 80
_cell_length_a 7.348669
_cell_length_b 26.478688
_cell_length_c 19.023779
_cell_angle_alpha 90.000000
_cell_angle_beta 90.000000
_cell_angle_gamma 90.000000
_cell_volume 3701.706152
_symmetry_space_group_name_H-M "I M M M"
_symmetry_group_IT_number 71
_symmetry_cell_setting 'orthorhombic'
loop_
_space_group_symop_operation_xyz
x,y,z
-x,-y,z
x,-y,-z
-x,y,-z
-x,-y,-z
x,y,-z
-x,y,z
x,-y,z
1/2+x,1/2+y,1/2+z
1/2-x,1/2-y,1/2+z
1/2+x,1/2-y,1/2-z
1/2-x,1/2+y,1/2-z
1/2-x,1/2-y,1/2-z
1/2+x,1/2+y,1/2-z
1/2-x,1/2+y,1/2+z
1/2+x,1/2-y,1/2+z
loop_
_atom_site_type_symbol
_atom_site_label
_atom_site_fract_x
_atom_site_fract_y
_atom_site_fract_z
Si Si1 0.721372 0.556773 0.418930
Si Si2 0.283900 0.649970 0.172767
Si Si3 0.277216 0.345872 0.332325
Si Si4 0.221842 0.942831 0.419335
Si Si5 0.781905 0.748795 0.920083
O O1 0.775452 0.565929 0.500000
O O2 0.500000 0.556817 0.418277
O O3 0.778822 0.500000 0.398897
O O4 0.780022 0.601768 0.368462
O O5 0.500000 0.642543 0.179701
O O6 0.215090 0.657686 0.251789
O O7 0.212956 0.600284 0.133183
O O8 0.256573 0.698710 0.124319
O O9 0.500000 0.345136 0.332645
O O10 0.216499 0.298149 0.378397
O O11 0.276331 0.932310 0.500000
O O12 0.000000 0.942262 0.418864
O O13 0.277107 0.000000 0.401201
O O14 0.000000 0.753274 0.924214
O O15 0.713052 0.745718 0.000000
#
# Coordination Sequence:
#
# PCOD9518872 Si02
#       5
#    16  16  16  16  16
#     4   8  13  22  38  61  90 123 155 185 218 261
#     4  10  19  30  47  70  93 116 146 188 230 265
#     4   9  17  28  42  63  91 120 149 183 226 271
#     4   8  14  25  41  62  88 115 141 172 215 264
#     4  10  20  33  48  64  87 122 156 183 218 268
#
# _framework density 21.611656
#
# number of rings (size 3 to 8) (size 9 to 14) (size 15 to 20)
#    0.000    3.000    0.000    3.000    0.000    4.400 
#    0.000    4.000    0.000    0.600    0.000    2.800 
#    0.000    2.400    0.000   11.000    0.000   10.000 
#
# Total GULP energy -223416.702031 kJ/mol
# GULP energy per Si atom -5585.417551 kJ/mol
# Density = 2.156247 g / cm^3
# Si number density = 21.611656 Si / 1000 Ang^3
#
#
#
# Elastic Constant Matrix: (Units=GPa)
#
#
# Indices 1 2 3 4 5 6 
#
# 1 79.6104 -3.8871 2.0483 0.0000 0.0000 0.0000
# 2 -3.8871 197.6901 150.0266 0.0000 0.0000 0.0000
# 3 2.0483 150.0266 213.3390 -0.0001 0.0000 0.0000
# 4 0.0000 0.0000 -0.0001 264.0937 0.0000 0.0000
# 5 0.0000 0.0000 0.0000 0.0000 0.8622 0.0000
# 6 0.0000 0.0000 0.0000 0.0000 0.0000 8.6436
#
#
#
# Elastic Compliance Matrix: (Units=1/GPa)
#
#
# Indices 1 2 3 4 5 6 
#
# 1 0.012613 0.000729 -0.000634 0.000000 0.000000 0.000000
# 2 0.000729 0.010890 -0.007665 0.000000 0.000000 0.000000
# 3 -0.000634 -0.007665 0.010084 0.000000 0.000000 0.000000
# 4 0.000000 0.000000 0.000000 0.003787 0.000000 0.000000
# 5 0.000000 0.000000 0.000000 0.000000 1.159800 0.000000
# 6 0.000000 0.000000 0.000000 0.000000 0.000000 0.115693
#
#
# Mechanical properties :
#
#
# Convention : Reuss Voigt Hill
#
# Bulk Modulus (GPa) = 54.20948 87.44613 70.82781
# Shear Modulus (GPa) = 3.74769 77.55001 40.64885
#
# Velocity S-wave (km/s) = 1.31828 5.99678 4.34161
# Velocity P-wave (km/s) = 5.23976 9.40738 7.61426
#
# Compressibility (1/GPa) = 0.01844696
#
# Stress axis : x y z
#
# Youngs Moduli (GPa) = 79.28288 91.83018 99.17006
#
# Poissons Ratio (x) = -0.06694 0.06284
# Poissons Ratio (y) = -0.05779 0.76013
# Poissons Ratio (z) = 0.05024 0.70387
#
# Static dielectric constant tensor:
#      x y z
#    x 1.896170 0.000000 0.000000 
#    y 0.000000 1.735710 0.000000 
#    z 0.000000 0.000000 1.749960 
# 
# From -- ./inp_files/8348.got.cif
#   From: 2010.05.17/outbox.cif.g08.bks.cpg/sg71_5_cif.got.tgz:8348.got - 2010.06.03 16:22:01.
