data_PCOD9518206
_publ_section_title
;
Structure prediction by ZEFSAII (Michael W. Deem and Ramdas Pophale) SiO2 
 PCOD9518206
Probable space group: I M M M
;
_chemical_formula_sum "Si O2"
_cell_formula_units_Z 88
_cell_length_a 21.608697
_cell_length_b 15.895324
_cell_length_c 12.470756
_cell_angle_alpha 90.000000
_cell_angle_beta 90.000000
_cell_angle_gamma 90.000000
_cell_volume 4283.420852
_symmetry_space_group_name_H-M "I M M M"
_symmetry_group_IT_number 71
_symmetry_cell_setting 'orthorhombic'
loop_
_space_group_symop_operation_xyz
x,y,z
-x,-y,z
x,-y,-z
-x,y,-z
-x,-y,-z
x,y,-z
-x,y,z
x,-y,z
1/2+x,1/2+y,1/2+z
1/2-x,1/2-y,1/2+z
1/2+x,1/2-y,1/2-z
1/2-x,1/2+y,1/2-z
1/2-x,1/2-y,1/2-z
1/2+x,1/2+y,1/2-z
1/2-x,1/2+y,1/2+z
1/2+x,1/2-y,1/2+z
loop_
_atom_site_type_symbol
_atom_site_label
_atom_site_fract_x
_atom_site_fract_y
_atom_site_fract_z
Si Si1 0.404924 0.599278 0.500000
Si Si2 0.571306 0.000000 0.869909
Si Si3 0.754102 0.097092 0.000000
Si Si4 0.905384 0.000000 0.376941
Si Si5 0.746242 0.500000 0.123005
Si Si6 0.925086 0.684405 0.376338
Si Si7 0.097685 0.845820 0.767528
Si Si8 0.743974 0.347786 0.272568
O O1 0.421553 0.500000 0.500000
O O2 0.329339 0.601929 0.500000
O O3 0.426103 0.642757 0.389131
O O4 0.597459 0.091400 0.840710
O O5 0.500000 0.000000 0.832321
O O6 0.570489 0.000000 0.000000
O O7 0.730681 0.137279 0.108771
O O8 0.736561 0.000000 0.000000
O O9 0.829486 0.000000 0.379430
O O10 0.926562 0.918060 0.311850
O O11 0.925620 0.000000 0.500000
O O12 0.767097 0.416183 0.186720
O O13 0.767155 0.500000 0.000000
O O14 0.904889 0.702775 0.500000
O O15 0.909431 0.756762 0.291453
O O16 0.000000 0.679869 0.380852
O O17 0.170616 0.864116 0.776738
O O18 0.750000 0.250000 0.250000
#
# Coordination Sequence:
#
# PCOD9518206 Si02
#       8
#     8   8   8   8   8  16  16  16
#     4   9  16  30  51  69  87 130 178 200 224 275
#     4   7  12  26  49  71  93 125 158 184 223 288
#     4   9  16  32  52  66  89 127 171 205 235 286
#     4   9  16  27  46  70  96 126 158 194 241 295
#     4   9  18  31  46  67  96 127 162 199 235 289
#     4   9  17  31  52  77 101 125 156 196 245 295
#     4  10  18  31  50  71  97 128 164 202 239 285
#     4  10  20  32  49  72  96 127 165 204 245 287
#
# _framework density 20.544326999999999
#
# number of rings (size 3 to 8) (size 9 to 14) (size 15 to 20)
#    0.000    2.818    1.818    1.636    1.273    0.727 
#    0.000    1.818    0.000    2.727    0.000    1.909 
#    0.000    0.000    0.000    0.000    0.000    0.000 
#
# Total GULP energy -245388.854000 kJ/mol
# GULP energy per Si atom -5577.019409 kJ/mol
# Density = 2.049757 g / cm^3
# Si number density = 20.544327 Si / 1000 Ang^3
#
#
#
# Elastic Constant Matrix: (Units=GPa)
#
#
# Indices 1 2 3 4 5 6 
#
# 1 49.4673 -11.9392 8.2177 0.0000 0.0000 0.0000
# 2 -11.9392 199.2791 133.9592 0.0000 0.0000 0.0000
# 3 8.2177 133.9592 222.3086 0.0000 0.0000 0.0000
# 4 0.0000 0.0000 0.0000 35.8222 0.0000 0.0000
# 5 0.0000 0.0000 0.0000 0.0000 -0.6016 0.0000
# 6 0.0000 0.0000 0.0000 0.0000 0.0000 21.1793
#
#
#
# Elastic Compliance Matrix: (Units=1/GPa)
#
#
# Indices 1 2 3 4 5 6 
#
# 1 0.021387 0.003047 -0.002627 0.000000 0.000000 0.000000
# 2 0.003047 0.008869 -0.005457 0.000000 0.000000 0.000000
# 3 -0.002627 -0.005457 0.007884 0.000000 0.000000 0.000000
# 4 0.000000 0.000000 0.000000 0.027916 0.000000 0.000000
# 5 0.000000 0.000000 0.000000 0.000000 -1.662203 0.000000
# 6 0.000000 0.000000 0.000000 0.000000 0.000000 0.047216
#
#
# Mechanical properties :
#
#
# Convention : Reuss Voigt Hill
#
# Bulk Modulus (GPa) = 35.62955 81.28117 58.45536
# Shear Modulus (GPa) = -3.26903 34.00114 15.36605
#
# Velocity S-wave (km/s) = -1.26280 4.07260 2.73783
# Velocity P-wave (km/s) = 3.90566 7.85904 6.20559
#
# Compressibility (1/GPa) = 0.02806659
#
# Stress axis : x y z
#
# Youngs Moduli (GPa) = 46.75703 112.75450 126.84667
#
# Poissons Ratio (x) = -0.34357 0.33319
# Poissons Ratio (y) = -0.14247 0.69218
# Poissons Ratio (z) = 0.12282 0.61528
#
# Static dielectric constant tensor:
#      x y z
#    x 1.807790 0.000000 0.000000 
#    y 0.000000 1.764320 0.000000 
#    z 0.000000 0.000000 1.718370 
# 
# From -- ./inp_files/29951.got.cif
#   From: 2010.05.17/outbox.cif.g08.bks.cpg/sg71_15_cif.got.tgz:29951.got - 2010.06.03 16:22:01.
