data_PCOD9518152
_publ_section_title
;
Structure prediction by ZEFSAII (Michael W. Deem and Ramdas Pophale) SiO2 
 PCOD9518152
Probable space group: I M M M
;
_chemical_formula_sum "Si O2"
_cell_formula_units_Z 92
_cell_length_a 16.517487
_cell_length_b 26.809354
_cell_length_c 12.123500
_cell_angle_alpha 90.000000
_cell_angle_beta 90.000000
_cell_angle_gamma 90.000000
_cell_volume 5368.566534
_symmetry_space_group_name_H-M "I M M M"
_symmetry_group_IT_number 71
_symmetry_cell_setting 'orthorhombic'
loop_
_space_group_symop_operation_xyz
x,y,z
-x,-y,z
x,-y,-z
-x,y,-z
-x,-y,-z
x,y,-z
-x,y,z
x,-y,z
1/2+x,1/2+y,1/2+z
1/2-x,1/2-y,1/2+z
1/2+x,1/2-y,1/2-z
1/2-x,1/2+y,1/2-z
1/2-x,1/2-y,1/2-z
1/2+x,1/2+y,1/2-z
1/2-x,1/2+y,1/2+z
1/2+x,1/2-y,1/2+z
loop_
_atom_site_type_symbol
_atom_site_label
_atom_site_fract_x
_atom_site_fract_y
_atom_site_fract_z
Si Si1 0.409761 0.291551 0.500000
Si Si2 0.743664 0.808971 0.274818
Si Si3 0.171401 0.057390 0.129316
Si Si4 0.154518 0.316819 0.000000
Si Si5 0.909012 0.148051 0.226293
Si Si6 0.000000 0.438643 0.243348
Si Si7 0.000000 0.389560 0.000000
Si Si8 0.343403 0.890802 0.868800
O O1 0.500000 0.270438 0.500000
O O2 0.356209 0.243108 0.500000
O O3 0.401199 0.324986 0.392674
O O4 0.750000 0.750000 0.250000
O O5 0.699826 0.824909 0.386234
O O6 0.835328 0.827813 0.290312
O O7 0.693039 0.838729 0.180006
O O8 0.113706 0.091169 0.203129
O O9 0.265025 0.073324 0.143754
O O10 0.161488 0.000000 0.154544
O O11 0.152036 0.065753 0.000000
O O12 0.076536 0.352219 0.000000
O O13 0.000000 0.155026 0.267368
O O14 0.079489 0.413857 0.303327
O O15 0.000000 0.500000 0.253354
O O16 0.000000 0.421972 0.113743
O O17 0.361592 0.886388 0.000000
#
# Coordination Sequence:
#
# PCOD9518152 Si02
#       8
#     8  16  16   8  16   8   4  16
#     4  10  18  30  54  83 111 148 184 229 290 353
#     4  11  23  37  60  86 117 158 200 245 300 355
#     4   9  17  30  50  79 114 150 184 227 285 347
#     4  12  22  39  63  83 115 160 201 243 298 358
#     4  10  20  34  51  80 114 145 189 237 285 347
#     4  12  24  42  65  89 124 166 208 258 315 368
#     4  12  25  44  58  98 124 156 215 268 294 362
#     4  10  22  38  59  88 124 157 200 247 300 372
#
# _framework density 17.136790999999999
#
# number of rings (size 3 to 8) (size 9 to 14) (size 15 to 20)
#    0.000    1.565    4.783    0.913    2.435    1.739 
#    1.565    1.304    0.000    0.000    0.000    0.000 
#    0.000    3.130    0.000    0.000    0.000    0.000 
#
# Total GULP energy -256232.838382 kJ/mol
# GULP energy per Si atom -5570.279095 kJ/mol
# Density = 1.709779 g / cm^3
# Si number density = 17.136791 Si / 1000 Ang^3
#
#
#
# Elastic Constant Matrix: (Units=GPa)
#
#
# Indices 1 2 3 4 5 6 
#
# 1 120.2659 55.4149 50.3030 0.0000 0.0000 0.0000
# 2 55.4149 119.7063 25.0981 0.0001 0.0000 0.0000
# 3 50.3030 25.0981 84.1972 0.0007 -0.0002 0.0000
# 4 0.0000 0.0001 0.0007 32.5512 0.0000 0.0000
# 5 0.0000 0.0000 -0.0002 0.0000 21.6281 0.0000
# 6 0.0000 0.0000 0.0000 0.0000 0.0000 17.2879
#
#
#
# Elastic Compliance Matrix: (Units=1/GPa)
#
#
# Indices 1 2 3 4 5 6 
#
# 1 0.013218 -0.004761 -0.006478 0.000000 0.000000 0.000000
# 2 -0.004761 0.010625 -0.000323 0.000000 0.000000 0.000000
# 3 -0.006478 -0.000323 0.015843 0.000000 0.000000 0.000000
# 4 0.000000 0.000000 0.000000 0.030721 0.000000 0.000000
# 5 0.000000 0.000000 0.000000 0.000000 0.046236 0.000000
# 6 0.000000 0.000000 0.000000 0.000000 0.000000 0.057844
#
#
# Mechanical properties :
#
#
# Convention : Reuss Voigt Hill
#
# Bulk Modulus (GPa) = 60.37403 65.08904 62.73153
# Shear Modulus (GPa) = 24.61456 27.18368 25.89912
#
# Velocity S-wave (km/s) = 3.79404 3.98713 3.89178
# Velocity P-wave (km/s) = 7.38242 7.69810 7.54191
#
# Compressibility (1/GPa) = 0.01656341
#
# Stress axis : x y z
#
# Youngs Moduli (GPa) = 75.65452 94.11446 63.11808
#
# Poissons Ratio (x) = 0.44805 0.40887
# Poissons Ratio (y) = 0.36017 0.02039
# Poissons Ratio (z) = 0.49008 0.03040
#
# Static dielectric constant tensor:
#      x y z
#    x 1.592660 0.000000 0.000000 
#    y 0.000000 1.597570 0.000000 
#    z 0.000000 0.000000 1.599200 
# 
# From -- ./inp_files/24518.got.cif
#   From: 2010.05.17/outbox.cif.g08.bks.cpg/sg71_13_cif.got.tgz:24518.got - 2010.06.03 16:22:01.
