data_PCOD9518448
_publ_section_title
;
Structure prediction by ZEFSAII (Michael W. Deem and Ramdas Pophale) SiO2 
 PCOD9518448
Probable space group: I M M M
;
_chemical_formula_sum "Si O2"
_cell_formula_units_Z 104
_cell_length_a 21.603593
_cell_length_b 14.648457
_cell_length_c 20.940423
_cell_angle_alpha 90.000000
_cell_angle_beta 90.000000
_cell_angle_gamma 90.000000
_cell_volume 6626.791669
_symmetry_space_group_name_H-M "I M M M"
_symmetry_group_IT_number 71
_symmetry_cell_setting 'orthorhombic'
loop_
_space_group_symop_operation_xyz
x,y,z
-x,-y,z
x,-y,-z
-x,y,-z
-x,-y,-z
x,y,-z
-x,y,z
x,-y,z
1/2+x,1/2+y,1/2+z
1/2-x,1/2-y,1/2+z
1/2+x,1/2-y,1/2-z
1/2-x,1/2+y,1/2-z
1/2-x,1/2-y,1/2-z
1/2+x,1/2+y,1/2-z
1/2-x,1/2+y,1/2+z
1/2+x,1/2-y,1/2+z
loop_
_atom_site_type_symbol
_atom_site_label
_atom_site_fract_x
_atom_site_fract_y
_atom_site_fract_z
Si Si1 0.689185 0.738283 0.835124
Si Si2 0.282460 0.895701 0.265594
Si Si3 0.333584 0.500000 0.574238
Si Si4 0.571477 0.314624 0.230172
Si Si5 0.000000 0.609458 0.925890
Si Si6 0.573885 0.500000 0.306445
Si Si7 0.113220 0.685568 0.155503
Si Si8 0.787612 0.201284 0.926049
O O1 0.702185 0.829780 0.793728
O O2 0.726557 0.655643 0.801383
O O3 0.617942 0.711771 0.826701
O O4 0.722252 0.759262 0.901734
O O5 0.341707 0.888889 0.312455
O O6 0.268666 0.000000 0.248885
O O7 0.357005 0.500000 0.500000
O O8 0.386827 0.500000 0.628231
O O9 0.294086 0.407673 0.582112
O O10 0.500000 0.316272 0.210935
O O11 0.587349 0.410961 0.263740
O O12 0.582309 0.241109 0.286502
O O13 0.939340 0.646490 0.890093
O O14 0.000000 0.500000 0.923265
O O15 0.000000 0.638047 0.000000
O O16 0.500000 0.500000 0.320947
O O17 0.159059 0.752790 0.116958
O O18 0.797910 0.222966 0.000000
#
# Coordination Sequence:
#
# PCOD9518448 Si02
#       8
#    16  16   8  16   8   8  16  16
#     4   9  20  31  49  75  93 128 163 199 260 295
#     4   9  18  30  48  71  95 122 159 207 248 290
#     4  10  20  31  48  74 105 141 171 202 242 294
#     4  10  19  33  51  73 103 127 161 205 244 301
#     4  11  22  32  46  65  91 135 178 207 238 277
#     4  10  20  31  48  74 105 141 165 198 244 292
#     4  10  18  33  48  68  95 131 166 203 242 284
#     4  10  20  34  50  71 101 132 168 207 246 300
#
# _framework density 15.693868999999999
#
# number of rings (size 3 to 8) (size 9 to 14) (size 15 to 20)
#    0.000    2.231    2.308    1.846    2.154    0.154 
#    0.000    0.000    0.000    4.615    0.000    0.000 
#    0.000    3.692    0.000    0.000    0.000    0.000 
#
# Total GULP energy -289833.766085 kJ/mol
# GULP energy per Si atom -5573.726271 kJ/mol
# Density = 1.565815 g / cm^3
# Si number density = 15.693869 Si / 1000 Ang^3
#
#
#
# Elastic Constant Matrix: (Units=GPa)
#
#
# Indices 1 2 3 4 5 6 
#
# 1 79.4397 17.8681 21.1204 0.0000 0.0000 0.0000
# 2 17.8681 84.0184 -1.1298 0.0000 0.0000 0.0000
# 3 21.1204 -1.1298 19.8360 0.0000 0.0000 0.0000
# 4 0.0000 0.0000 0.0000 16.7328 0.0000 0.0000
# 5 0.0000 0.0000 0.0000 0.0000 24.3464 0.0000
# 6 0.0000 0.0000 0.0000 0.0000 0.0000 16.8281
#
#
#
# Elastic Compliance Matrix: (Units=1/GPa)
#
#
# Indices 1 2 3 4 5 6 
#
# 1 0.019004 -0.004317 -0.020481 0.000000 0.000000 0.000000
# 2 -0.004317 0.012892 0.005331 0.000000 0.000000 0.000000
# 3 -0.020481 0.005331 0.072524 0.000000 0.000000 0.000000
# 4 0.000000 0.000000 0.000000 0.059763 0.000000 0.000000
# 5 0.000000 0.000000 0.000000 0.000000 0.041074 0.000000
# 6 0.000000 0.000000 0.000000 0.000000 0.000000 0.059424
#
#
# Mechanical properties :
#
#
# Convention : Reuss Voigt Hill
#
# Bulk Modulus (GPa) = 15.27036 28.77906 22.02471
# Shear Modulus (GPa) = 15.36361 21.27714 18.32038
#
# Velocity S-wave (km/s) = 3.13222 3.68606 3.42037
# Velocity P-wave (km/s) = 4.77832 6.04100 5.44637
#
# Compressibility (1/GPa) = 0.06548633
#
# Stress axis : x y z
#
# Youngs Moduli (GPa) = 52.61954 77.56784 13.78854
#
# Poissons Ratio (x) = 0.33486 0.28240
# Poissons Ratio (y) = 0.22716 -0.07350
# Poissons Ratio (z) = 1.07769 -0.41350
#
# Static dielectric constant tensor:
#      x y z
#    x 1.526890 0.000000 0.000000 
#    y 0.000000 1.522660 0.000000 
#    z 0.000000 0.000000 1.508190 
# 
# From -- ./inp_files/48272.got.cif
#   From: 2010.05.17/outbox.cif.g08.bks.cpg/sg71_25_cif.got.tgz:48272.got - 2010.06.03 16:22:01.
