data_PCOD9518132
_publ_section_title
;
Structure prediction by ZEFSAII (Michael W. Deem and Ramdas Pophale) SiO2 
 PCOD9518132
Probable space group: I M M M
;
_chemical_formula_sum "Si O2"
_cell_formula_units_Z 104
_cell_length_a 31.191076
_cell_length_b 8.320908
_cell_length_c 21.316002
_cell_angle_alpha 90.000000
_cell_angle_beta 90.000000
_cell_angle_gamma 90.000000
_cell_volume 5532.314101
_symmetry_space_group_name_H-M "I M M M"
_symmetry_group_IT_number 71
_symmetry_cell_setting 'orthorhombic'
loop_
_space_group_symop_operation_xyz
x,y,z
-x,-y,z
x,-y,-z
-x,y,-z
-x,-y,-z
x,y,-z
-x,y,z
x,-y,z
1/2+x,1/2+y,1/2+z
1/2-x,1/2-y,1/2+z
1/2+x,1/2-y,1/2-z
1/2-x,1/2+y,1/2-z
1/2-x,1/2-y,1/2-z
1/2+x,1/2+y,1/2-z
1/2-x,1/2+y,1/2+z
1/2+x,1/2-y,1/2+z
loop_
_atom_site_type_symbol
_atom_site_label
_atom_site_fract_x
_atom_site_fract_y
_atom_site_fract_z
Si Si1 0.551805 0.182337 0.500000
Si Si2 0.283098 0.696001 0.928604
Si Si3 0.450776 0.309199 0.636769
Si Si4 0.630872 0.305019 0.857222
Si Si5 0.869889 0.691112 0.215096
Si Si6 0.546819 0.304123 0.927461
Si Si7 0.224840 0.305134 0.812832
O O1 0.500000 0.180212 0.500000
O O2 0.563128 0.263877 0.434182
O O3 0.567919 0.000000 0.500000
O O4 0.282021 0.500000 0.930130
O O5 0.329625 0.742126 0.901550
O O6 0.249265 0.748224 0.875797
O O7 0.276207 0.751654 0.000000
O O8 0.500000 0.245827 0.647421
O O9 0.453453 0.500000 0.641269
O O10 0.413684 0.253214 0.683877
O O11 0.630980 0.500000 0.853997
O O12 0.633931 0.238788 0.787617
O O13 0.586454 0.248528 0.887125
O O14 0.870738 0.500000 0.208853
O O15 0.824637 0.749805 0.186174
O O16 0.500000 0.252483 0.904517
O O17 0.547364 0.500000 0.926683
O O18 0.551409 0.256652 0.000000
O O19 0.225368 0.500000 0.811503
O O20 0.250000 0.250000 0.750000
#
# Coordination Sequence:
#
# PCOD9518132 Si02
#       7
#     8  16  16  16  16  16  16
#     4   9  17  33  59  87 115 147 181 223 279 335
#     4   9  17  31  54  81 104 132 180 236 282 327
#     4  10  21  38  60  84 111 146 189 232 274 329
#     4  10  18  30  52  77 101 138 183 225 270 326
#     4  11  23  36  52  79 112 147 185 226 277 335
#     4   8  14  25  43  71 104 131 162 213 269 316
#     4  10  20  36  57  80 108 146 186 227 280 339
#
# _framework density 18.798642999999998
#
# number of rings (size 3 to 8) (size 9 to 14) (size 15 to 20)
#    0.000    2.385    1.538    2.077    0.000    4.923 
#    1.385    1.538    0.000    3.231    0.000    1.077 
#    0.000    0.000    0.000    0.000    0.000    0.000 
#
# Total GULP energy -289919.706371 kJ/mol
# GULP energy per Si atom -5575.378969 kJ/mol
# Density = 1.875586 g / cm^3
# Si number density = 18.798643 Si / 1000 Ang^3
#
#
#
# Elastic Constant Matrix: (Units=GPa)
#
#
# Indices 1 2 3 4 5 6 
#
# 1 158.1089 20.8167 88.5192 0.0000 0.0000 0.0000
# 2 20.8167 18.3219 12.7128 0.0000 0.0000 0.0000
# 3 88.5192 12.7128 144.0443 0.0000 0.0000 0.0000
# 4 0.0000 0.0000 0.0000 8.4822 0.0000 0.0000
# 5 0.0000 0.0000 0.0000 0.0000 41.0094 0.0000
# 6 0.0000 0.0000 0.0000 0.0000 0.0000 14.7566
#
#
#
# Elastic Compliance Matrix: (Units=1/GPa)
#
#
# Indices 1 2 3 4 5 6 
#
# 1 0.010652 -0.008054 -0.005835 0.000000 0.000000 0.000000
# 2 -0.008054 0.064229 -0.000719 0.000000 0.000000 0.000000
# 3 -0.005835 -0.000719 0.010592 0.000000 0.000000 0.000000
# 4 0.000000 0.000000 0.000000 0.117894 0.000000 0.000000
# 5 0.000000 0.000000 0.000000 0.000000 0.024385 0.000000
# 6 0.000000 0.000000 0.000000 0.000000 0.000000 0.067766
#
#
# Mechanical properties :
#
#
# Convention : Reuss Voigt Hill
#
# Bulk Modulus (GPa) = 17.77578 62.73026 40.25302
# Shear Modulus (GPa) = 14.55664 26.07808 20.31736
#
# Velocity S-wave (km/s) = 2.78572 3.72860 3.29110
# Velocity P-wave (km/s) = 4.45235 7.20962 5.99175
#
# Compressibility (1/GPa) = 0.05625632
#
# Stress axis : x y z
#
# Youngs Moduli (GPa) = 93.87922 15.56926 94.41390
#
# Poissons Ratio (x) = 0.12539 0.55092
# Poissons Ratio (y) = 0.75607 0.06792
# Poissons Ratio (z) = 0.54780 0.01120
#
# Static dielectric constant tensor:
#      x y z
#    x 1.670130 0.000000 0.000000 
#    y 0.000000 1.661860 0.000000 
#    z 0.000000 0.000000 1.630150 
# 
# From -- ./inp_files/56730.got.cif
#   From: 2010.05.17/outbox.cif.g08.bks.cpg/sg71_29_cif.got.tgz:56730.got - 2010.06.03 16:22:01.
