data_PCOD9518041
_publ_section_title
;
Structure prediction by ZEFSAII (Michael W. Deem and Ramdas Pophale) SiO2 
 PCOD9518041
Probable space group: I M M M
;
_chemical_formula_sum "Si O2"
_cell_formula_units_Z 96
_cell_length_a 13.803454
_cell_length_b 14.647715
_cell_length_c 28.441082
_cell_angle_alpha 90.000000
_cell_angle_beta 90.000000
_cell_angle_gamma 90.000000
_cell_volume 5750.475641
_symmetry_space_group_name_H-M "I M M M"
_symmetry_group_IT_number 71
_symmetry_cell_setting 'orthorhombic'
loop_
_space_group_symop_operation_xyz
x,y,z
-x,-y,z
x,-y,-z
-x,y,-z
-x,-y,-z
x,y,-z
-x,y,z
x,-y,z
1/2+x,1/2+y,1/2+z
1/2-x,1/2-y,1/2+z
1/2+x,1/2-y,1/2-z
1/2-x,1/2+y,1/2-z
1/2-x,1/2-y,1/2-z
1/2+x,1/2+y,1/2-z
1/2-x,1/2+y,1/2+z
1/2+x,1/2-y,1/2+z
loop_
_atom_site_type_symbol
_atom_site_label
_atom_site_fract_x
_atom_site_fract_y
_atom_site_fract_z
Si Si1 0.791290 0.500000 0.444805
Si Si2 0.393162 0.500000 0.621838
Si Si3 0.891406 0.812692 0.820200
Si Si4 0.803794 0.236769 0.352760
Si Si5 0.112630 0.605611 0.286393
Si Si6 0.884563 0.696309 0.554255
Si Si7 0.195749 0.106277 0.271522
O O1 0.766328 0.500000 0.500000
O O2 0.694961 0.500000 0.413971
O O3 0.851440 0.407864 0.435861
O O4 0.500000 0.500000 0.598930
O O5 0.387223 0.588902 0.654422
O O6 0.810330 0.753525 0.845678
O O7 0.861265 0.833056 0.766616
O O8 0.000000 0.776615 0.823137
O O9 0.855897 0.322049 0.326003
O O10 0.835559 0.240699 0.406477
O O11 0.825584 0.147029 0.322478
O O12 0.122871 0.500000 0.303260
O O13 0.191173 0.615365 0.244426
O O14 0.000000 0.619138 0.273377
O O15 0.858124 0.717078 0.500000
O O16 0.000000 0.702107 0.558548
O O17 0.169784 0.000000 0.267521
#
# Coordination Sequence:
#
# PCOD9518041 Si02
#       7
#     8   8  16  16  16  16  16
#     4  10  19  33  52  73 101 132 167 200 233 288
#     4  10  18  30  49  72 104 143 164 185 231 281
#     4  10  19  32  49  70 101 137 165 192 235 289
#     4  11  21  32  51  73  96 130 167 205 242 290
#     4   9  18  31  49  75 105 131 157 196 242 289
#     4  10  21  35  51  72  97 125 159 204 253 294
#     4  10  21  34  48  70 100 131 167 205 241 286
#
# _framework density 16.694269999999999
#
# number of rings (size 3 to 8) (size 9 to 14) (size 15 to 20)
#    0.000    2.000    2.500    2.750    2.333    4.500 
#    0.000    0.000    0.000    1.000    0.000    1.167 
#    0.000    0.000    0.000    5.667    0.000    0.000 
#
# Total GULP energy -267884.335138 kJ/mol
# GULP energy per Si atom -5580.923649 kJ/mol
# Density = 1.665627 g / cm^3
# Si number density = 16.694270 Si / 1000 Ang^3
#
#
#
# Elastic Constant Matrix: (Units=GPa)
#
#
# Indices 1 2 3 4 5 6 
#
# 1 78.8511 7.1986 40.0987 0.0000 0.0000 0.0000
# 2 7.1986 30.3192 19.4720 0.0000 0.0000 0.0000
# 3 40.0987 19.4720 98.5587 0.0000 0.0000 0.0000
# 4 0.0000 0.0000 0.0000 26.1278 0.0000 0.0000
# 5 0.0000 0.0000 0.0000 0.0000 12.2113 0.0000
# 6 0.0000 0.0000 0.0000 0.0000 0.0000 4.6605
#
#
#
# Elastic Compliance Matrix: (Units=1/GPa)
#
#
# Indices 1 2 3 4 5 6 
#
# 1 0.015996 0.000437 -0.006594 0.000000 0.000000 0.000000
# 2 0.000437 0.037787 -0.007643 0.000000 0.000000 0.000000
# 3 -0.006594 -0.007643 0.014339 0.000000 0.000000 0.000000
# 4 0.000000 0.000000 0.000000 0.038273 0.000000 0.000000
# 5 0.000000 0.000000 0.000000 0.000000 0.081891 0.000000
# 6 0.000000 0.000000 0.000000 0.000000 0.000000 0.214569
#
#
# Mechanical properties :
#
#
# Convention : Reuss Voigt Hill
#
# Bulk Modulus (GPa) = 24.67834 37.91864 31.29849
# Shear Modulus (GPa) = 11.26218 17.99723 14.62970
#
# Velocity S-wave (km/s) = 2.60015 3.28693 2.96350
# Velocity P-wave (km/s) = 4.88149 6.09656 5.52255
#
# Compressibility (1/GPa) = 0.04052136
#
# Stress axis : x y z
#
# Youngs Moduli (GPa) = 62.51706 26.46382 69.73885
#
# Poissons Ratio (x) = -0.01157 0.45987
# Poissons Ratio (y) = -0.02733 0.53305
# Poissons Ratio (z) = 0.41225 0.20228
#
# Static dielectric constant tensor:
#      x y z
#    x 1.584220 0.000000 0.000000 
#    y 0.000000 1.560860 0.000000 
#    z 0.000000 0.000000 1.559070 
# 
# From -- ./inp_files/35060.got.cif
#   From: 2010.05.17/outbox.cif.g08.bks.cpg/sg71_18_cif.got.tgz:35060.got - 2010.06.03 16:22:01.
