data_PCOD9518737
_publ_section_title
;
Structure prediction by ZEFSAII (Michael W. Deem and Ramdas Pophale) SiO2 
 PCOD9518737
Probable space group: I M M M
;
_chemical_formula_sum "Si O2"
_cell_formula_units_Z 72
_cell_length_a 15.990447
_cell_length_b 7.640159
_cell_length_c 30.048404
_cell_angle_alpha 90.000000
_cell_angle_beta 90.000000
_cell_angle_gamma 90.000000
_cell_volume 3671.000222
_symmetry_space_group_name_H-M "I M M M"
_symmetry_group_IT_number 71
_symmetry_cell_setting 'orthorhombic'
loop_
_space_group_symop_operation_xyz
x,y,z
-x,-y,z
x,-y,-z
-x,y,-z
-x,-y,-z
x,y,-z
-x,y,z
x,-y,z
1/2+x,1/2+y,1/2+z
1/2-x,1/2-y,1/2+z
1/2+x,1/2-y,1/2-z
1/2-x,1/2+y,1/2-z
1/2-x,1/2-y,1/2-z
1/2+x,1/2+y,1/2-z
1/2-x,1/2+y,1/2+z
1/2+x,1/2-y,1/2+z
loop_
_atom_site_type_symbol
_atom_site_label
_atom_site_fract_x
_atom_site_fract_y
_atom_site_fract_z
Si Si1 0.183850 0.205814 0.449781
Si Si2 0.905712 0.786215 0.699167
Si Si3 0.500000 0.791356 0.947787
Si Si4 0.906836 0.210517 0.198621
Si Si5 0.752154 0.209373 0.360459
O O1 0.188047 0.282330 0.500000
O O2 0.242460 0.278976 0.410935
O O3 0.088772 0.222986 0.431273
O O4 0.200973 0.000000 0.454419
O O5 0.891110 0.731314 0.750441
O O6 0.830635 0.722627 0.668304
O O7 0.000000 0.732302 0.685876
O O8 0.905109 0.000000 0.698590
O O9 0.500000 0.000000 0.944281
O O10 0.500000 0.740167 0.000000
O O11 0.833541 0.260309 0.165389
O O12 0.000000 0.271824 0.185686
O O13 0.908918 0.000000 0.199985
O O14 0.763155 0.000000 0.363403
#
# Coordination Sequence:
#
# PCOD9518737 Si02
#       5
#    16  16   8  16  16
#     4   9  18  31  46  67  96 127 158 192 233 279
#     4   8  15  28  46  69  97 126 154 184 226 282
#     4   9  17  29  45  65  91 125 161 193 227 269
#     4   9  18  33  50  67  92 125 155 191 241 287
#     4  10  19  29  49  74  93 122 160 197 231 272
#
# _framework density 19.613184
#
# number of rings (size 3 to 8) (size 9 to 14) (size 15 to 20)
#    0.000    3.000    0.000    2.333    1.556    2.667 
#    0.000    0.000    0.000    2.000    0.000    4.667 
#    0.000    0.000    0.000    0.000    0.000    0.000 
#
# Total GULP energy -200709.838811 kJ/mol
# GULP energy per Si atom -5575.273300 kJ/mol
# Density = 1.956854 g / cm^3
# Si number density = 19.613184 Si / 1000 Ang^3
#
#
#
# Elastic Constant Matrix: (Units=GPa)
#
#
# Indices 1 2 3 4 5 6 
#
# 1 124.7831 1.4170 103.3971 0.0000 0.0000 0.0000
# 2 1.4170 32.3969 7.6064 0.0000 0.0000 0.0000
# 3 103.3971 7.6064 132.8518 0.0000 0.0000 0.0000
# 4 0.0000 0.0000 0.0000 8.5858 0.0000 0.0000
# 5 0.0000 0.0000 0.0000 0.0000 35.9683 0.0000
# 6 0.0000 0.0000 0.0000 0.0000 0.0000 17.3293
#
#
#
# Elastic Compliance Matrix: (Units=1/GPa)
#
#
# Indices 1 2 3 4 5 6 
#
# 1 0.022896 0.003226 -0.018004 0.000000 0.000000 0.000000
# 2 0.003226 0.031742 -0.004328 0.000000 0.000000 0.000000
# 3 -0.018004 -0.004328 0.021788 0.000000 0.000000 0.000000
# 4 0.000000 0.000000 0.000000 0.116471 0.000000 0.000000
# 5 0.000000 0.000000 0.000000 0.000000 0.027802 0.000000
# 6 0.000000 0.000000 0.000000 0.000000 0.000000 0.057706
#
#
# Mechanical properties :
#
#
# Convention : Reuss Voigt Hill
#
# Bulk Modulus (GPa) = 26.16941 57.20811 41.68876
# Shear Modulus (GPa) = 15.18115 24.21743 19.69929
#
# Velocity S-wave (km/s) = 2.78515 3.51772 3.17265
# Velocity P-wave (km/s) = 4.86975 6.76244 5.89259
#
# Compressibility (1/GPa) = 0.03821256
#
# Stress axis : x y z
#
# Youngs Moduli (GPa) = 43.67588 31.50383 45.89776
#
# Poissons Ratio (x) = -0.10162 0.82636
# Poissons Ratio (y) = -0.14089 0.19864
# Poissons Ratio (z) = 0.78636 0.13635
#
# Static dielectric constant tensor:
#      x y z
#    x 1.677380 0.000000 0.000000 
#    y 0.000000 1.738110 0.000000 
#    z 0.000000 0.000000 1.732360 
# 
# From -- ./inp_files/6414.got.cif
#   From: 2010.05.17/outbox.cif.g08.bks.cpg/sg71_4_cif.got.tgz:6414.got - 2010.06.03 16:22:01.
