data_PCOD9518931
_publ_section_title
;
Structure prediction by ZEFSAII (Michael W. Deem and Ramdas Pophale) SiO2 
 PCOD9518931
Probable space group: I M M M
;
_chemical_formula_sum "Si O2"
_cell_formula_units_Z 104
_cell_length_a 7.457418
_cell_length_b 19.862780
_cell_length_c 27.106387
_cell_angle_alpha 90.000000
_cell_angle_beta 90.000000
_cell_angle_gamma 90.000000
_cell_volume 4015.135014
_symmetry_space_group_name_H-M "I M M M"
_symmetry_group_IT_number 71
_symmetry_cell_setting 'orthorhombic'
loop_
_space_group_symop_operation_xyz
x,y,z
-x,-y,z
x,-y,-z
-x,y,-z
-x,-y,-z
x,y,-z
-x,y,z
x,-y,z
1/2+x,1/2+y,1/2+z
1/2-x,1/2-y,1/2+z
1/2+x,1/2-y,1/2-z
1/2-x,1/2+y,1/2-z
1/2-x,1/2-y,1/2-z
1/2+x,1/2+y,1/2-z
1/2-x,1/2+y,1/2+z
1/2+x,1/2-y,1/2+z
loop_
_atom_site_type_symbol
_atom_site_label
_atom_site_fract_x
_atom_site_fract_y
_atom_site_fract_z
Si Si1 0.716758 0.896524 0.813684
Si Si2 0.290917 0.772857 0.054165
Si Si3 0.706220 0.892628 0.707363
Si Si4 0.705600 0.920002 0.397308
Si Si5 0.279597 0.078563 0.500000
Si Si6 0.706433 0.427309 0.576202
Si Si7 0.283767 0.743587 0.836258
O O1 0.500000 0.904270 0.814530
O O2 0.781303 0.916937 0.759345
O O3 0.785735 0.927594 0.864084
O O4 0.759823 0.817764 0.817991
O O5 0.500000 0.755687 0.052892
O O6 0.283703 0.854988 0.060251
O O7 0.220712 0.742037 0.106097
O O8 0.211693 0.755980 0.000000
O O9 0.500000 0.917285 0.706383
O O10 0.794963 0.911267 0.655419
O O11 0.706211 0.812032 0.700370
O O12 0.500000 0.895396 0.393376
O O13 0.783095 0.891510 0.448175
O O14 0.695381 0.000000 0.404569
O O15 0.500000 0.079825 0.500000
O O16 0.224552 0.000000 0.500000
O O17 0.500000 0.425650 0.560622
O O18 0.783514 0.500000 0.559894
O O19 0.500000 0.736829 0.836409
#
# Coordination Sequence:
#
# PCOD9518931 Si02
#       7
#    16  16  16  16   8  16  16
#     4   9  19  34  51  70  96 134 174 209 247 299
#     4   9  19  37  58  77 101 137 178 214 249 299
#     4  10  19  30  48  76 100 122 164 216 257 295
#     4   8  14  25  41  63  92 123 154 192 240 290
#     4   7  10  20  38  56  81 119 149 171 216 279
#     4  10  21  35  52  78 109 137 168 210 261 312
#     4   9  18  33  50  69  96 131 167 202 249 304
#
# _framework density 25.901993000000001
#
# number of rings (size 3 to 8) (size 9 to 14) (size 15 to 20)
#    0.000    3.000    0.000    2.769    0.000    5.538 
#    1.385    3.077    0.000    0.462    0.000    0.000 
#    0.000    1.846    0.000    0.000    0.000    0.000 
#
# Total GULP energy -290245.751448 kJ/mol
# GULP energy per Si atom -5581.649066 kJ/mol
# Density = 2.584304 g / cm^3
# Si number density = 25.901993 Si / 1000 Ang^3
#
#
#
# Elastic Constant Matrix: (Units=GPa)
#
#
# Indices 1 2 3 4 5 6 
#
# 1 81.1173 4.8493 11.7590 0.0000 0.0000 0.0000
# 2 4.8493 85.6674 -1.0478 0.0000 0.0000 0.0000
# 3 11.7590 -1.0478 224.7056 0.0000 0.0000 0.0000
# 4 0.0000 0.0000 0.0000 170.6791 0.0000 0.0000
# 5 0.0000 0.0000 0.0000 0.0000 -6.3567 0.0000
# 6 0.0000 0.0000 0.0000 0.0000 0.0000 14.6706
#
#
#
# Elastic Compliance Matrix: (Units=1/GPa)
#
#
# Indices 1 2 3 4 5 6 
#
# 1 0.012466 -0.000714 -0.000656 0.000000 0.000000 0.000000
# 2 -0.000714 0.011715 0.000092 0.000000 0.000000 0.000000
# 3 -0.000656 0.000092 0.004485 0.000000 0.000000 0.000000
# 4 0.000000 0.000000 0.000000 0.005859 0.000000 0.000000
# 5 0.000000 0.000000 0.000000 0.000000 -0.157315 0.000000
# 6 0.000000 0.000000 0.000000 0.000000 0.000000 0.068163
#
#
# Mechanical properties :
#
#
# Convention : Reuss Voigt Hill
#
# Bulk Modulus (GPa) = 38.29881 46.95679 42.62780
# Shear Modulus (GPa) = -115.28904 60.86061 -27.21422
#
# Velocity S-wave (km/s) = -6.67880 4.85258 -3.24491
# Velocity P-wave (km/s) = 6.68259 7.04022 1.56648
#
# Compressibility (1/GPa) = 0.02611047
#
# Stress axis : x y z
#
# Youngs Moduli (GPa) = 80.22114 85.36377 222.96509
#
# Poissons Ratio (x) = 0.06092 0.14619
# Poissons Ratio (y) = 0.05725 -0.02051
# Poissons Ratio (z) = 0.05260 -0.00785
#
# Static dielectric constant tensor:
#      x y z
#    x 1.976360 0.000000 0.000000 
#    y 0.000000 2.090100 0.000000 
#    z 0.000000 0.000000 2.103450 
# 
# From -- ./inp_files/63537.got.cif
#   From: 2010.05.17/outbox.cif.g08.bks.cpg/sg71_32_cif.got.tgz:63537.got - 2010.06.03 16:22:01.
