data_PCOD9518654
_publ_section_title
;
Structure prediction by ZEFSAII (Michael W. Deem and Ramdas Pophale) SiO2 
 PCOD9518654
Probable space group: I M M M
;
_chemical_formula_sum "Si O2"
_cell_formula_units_Z 96
_cell_length_a 10.376454
_cell_length_b 20.951112
_cell_length_c 20.891016
_cell_angle_alpha 90.000000
_cell_angle_beta 90.000000
_cell_angle_gamma 90.000000
_cell_volume 4541.670317
_symmetry_space_group_name_H-M "I M M M"
_symmetry_group_IT_number 71
_symmetry_cell_setting 'orthorhombic'
loop_
_space_group_symop_operation_xyz
x,y,z
-x,-y,z
x,-y,-z
-x,y,-z
-x,-y,-z
x,y,-z
-x,y,z
x,-y,z
1/2+x,1/2+y,1/2+z
1/2-x,1/2-y,1/2+z
1/2+x,1/2-y,1/2-z
1/2-x,1/2+y,1/2-z
1/2-x,1/2-y,1/2-z
1/2+x,1/2+y,1/2-z
1/2-x,1/2+y,1/2+z
1/2+x,1/2-y,1/2+z
loop_
_atom_site_type_symbol
_atom_site_label
_atom_site_fract_x
_atom_site_fract_y
_atom_site_fract_z
Si Si1 0.138403 0.246190 0.573272
Si Si2 0.645807 0.408045 0.073978
Si Si3 0.655267 0.425208 0.569601
Si Si4 0.849698 0.400782 0.817941
Si Si5 0.360029 0.252288 0.668408
Si Si6 0.150075 0.115870 0.787170
O O1 0.152297 0.265567 0.500000
O O2 0.140075 0.169089 0.573846
O O3 0.251271 0.266778 0.617937
O O4 0.000000 0.268154 0.597991
O O5 0.500000 0.428401 0.094090
O O6 0.765730 0.422982 0.120323
O O7 0.665226 0.427642 0.000000
O O8 0.702237 0.399725 0.500000
O O9 0.500000 0.421157 0.567424
O O10 0.690138 0.500000 0.571459
O O11 0.687383 0.397227 0.639135
O O12 0.856626 0.322847 0.817130
O O13 0.755392 0.415871 0.758596
O O14 0.000000 0.422180 0.816534
O O15 0.500000 0.264827 0.638322
O O16 0.349269 0.306570 0.722741
O O17 0.000000 0.095501 0.776523
#
# Coordination Sequence:
#
# PCOD9518654 Si02
#       6
#    16  16  16  16  16  16
#     4   8  14  24  37  53  75 107 146 185 223 261
#     4   8  14  26  43  60  81 115 157 193 222 254
#     4   8  15  30  52  75  95 115 147 199 258 303
#     4  10  19  29  41  61  93 128 159 192 228 269
#     4   9  18  28  38  57  85 119 155 189 226 269
#     4  10  19  30  46  67  89 116 152 191 234 287
#
# _framework density 21.137599000000002
#
# number of rings (size 3 to 8) (size 9 to 14) (size 15 to 20)
#    0.000    3.167    0.000    2.500    0.000    2.667 
#    0.000    5.000    0.000    1.000    0.000    1.167 
#    0.000    0.667    0.000    7.667    0.000    2.500 
#
# Total GULP energy -267223.505277 kJ/mol
# GULP energy per Si atom -5567.156360 kJ/mol
# Density = 2.108949 g / cm^3
# Si number density = 21.137599 Si / 1000 Ang^3
#
#
#
# Elastic Constant Matrix: (Units=GPa)
#
#
# Indices 1 2 3 4 5 6 
#
# 1 185.6442 16.5698 88.7147 0.0000 0.0000 0.0000
# 2 16.5698 63.4212 12.8455 0.0000 0.0000 0.0000
# 3 88.7147 12.8455 109.1654 0.0000 0.0000 0.0000
# 4 0.0000 0.0000 0.0000 -14.5186 0.0000 0.0000
# 5 0.0000 0.0000 0.0000 0.0000 37.2841 0.0000
# 6 0.0000 0.0000 0.0000 0.0000 0.0000 -26.6407
#
#
#
# Elastic Compliance Matrix: (Units=1/GPa)
#
#
# Indices 1 2 3 4 5 6 
#
# 1 0.008854 -0.000877 -0.007092 0.000000 0.000000 0.000000
# 2 -0.000877 0.016239 -0.001198 0.000000 0.000000 0.000000
# 3 -0.007092 -0.001198 0.015065 0.000000 0.000000 0.000000
# 4 0.000000 0.000000 0.000000 -0.068877 0.000000 0.000000
# 5 0.000000 0.000000 0.000000 0.000000 0.026821 0.000000
# 6 0.000000 0.000000 0.000000 0.000000 0.000000 -0.037536
#
#
# Mechanical properties :
#
#
# Convention : Reuss Voigt Hill
#
# Bulk Modulus (GPa) = 45.82165 66.05454 55.93810
# Shear Modulus (GPa) = -361.67370 15.23166 -173.22102
#
# Velocity S-wave (km/s) = -13.09488 2.68730 -9.06240
# Velocity P-wave (km/s) = 14.38436 6.39894 9.10942
#
# Compressibility (1/GPa) = 0.02182374
#
# Stress axis : x y z
#
# Youngs Moduli (GPa) = 112.94188 61.57870 66.37890
#
# Poissons Ratio (x) = 0.05399 0.47078
# Poissons Ratio (y) = 0.09903 0.07955
# Poissons Ratio (z) = 0.80101 0.07379
#
# Static dielectric constant tensor:
#      x y z
#    x 1.750430 0.000000 0.000000 
#    y 0.000000 1.802760 0.000000 
#    z 0.000000 0.000000 1.770830 
# 
# From -- ./inp_files/43554.got.cif
#   From: 2010.05.17/outbox.cif.g08.bks.cpg/sg71_22_cif.got.tgz:43554.got - 2010.06.03 16:22:01.
