data_PCOD9518831
_publ_section_title
;
Structure prediction by ZEFSAII (Michael W. Deem and Ramdas Pophale) SiO2 
 PCOD9518831
Probable space group: I M M M
;
_chemical_formula_sum "Si O2"
_cell_formula_units_Z 80
_cell_length_a 18.854099
_cell_length_b 27.419049
_cell_length_c 7.557220
_cell_angle_alpha 90.000000
_cell_angle_beta 90.000000
_cell_angle_gamma 90.000000
_cell_volume 3906.791517
_symmetry_space_group_name_H-M "I M M M"
_symmetry_group_IT_number 71
_symmetry_cell_setting 'orthorhombic'
loop_
_space_group_symop_operation_xyz
x,y,z
-x,-y,z
x,-y,-z
-x,y,-z
-x,-y,-z
x,y,-z
-x,y,z
x,-y,z
1/2+x,1/2+y,1/2+z
1/2-x,1/2-y,1/2+z
1/2+x,1/2-y,1/2-z
1/2-x,1/2+y,1/2-z
1/2-x,1/2-y,1/2-z
1/2+x,1/2+y,1/2-z
1/2-x,1/2+y,1/2+z
1/2+x,1/2-y,1/2+z
loop_
_atom_site_type_symbol
_atom_site_label
_atom_site_fract_x
_atom_site_fract_y
_atom_site_fract_z
Si Si1 0.767817 0.053120 0.214432
Si Si2 0.922469 0.292715 0.209560
Si Si3 0.124814 0.184589 0.286727
Si Si4 0.076374 0.078135 0.206698
Si Si5 0.719354 0.840999 0.707623
O O1 0.849410 0.058153 0.279578
O O2 0.725910 0.100727 0.275100
O O3 0.740003 0.000000 0.267039
O O4 0.769439 0.055212 0.000000
O O5 0.909584 0.235089 0.230976
O O6 0.853155 0.319733 0.284910
O O7 0.000000 0.305501 0.283738
O O8 0.924731 0.303640 0.000000
O O9 0.124544 0.181970 0.500000
O O10 0.084857 0.136614 0.219495
O O11 0.206541 0.180755 0.221119
O O12 0.000000 0.063820 0.283766
O O13 0.075221 0.064199 0.000000
O O14 0.719506 0.828385 0.500000
#
# Coordination Sequence:
#
# PCOD9518831 Si02
#       5
#    16  16  16  16  16
#     4   9  18  32  50  71  92 117 153 195 235 274
#     4  10  20  33  49  69  94 123 155 191 229 270
#     4  10  19  30  46  69  97 127 157 187 221 266
#     4   9  17  29  45  66  95 129 159 187 222 265
#     4   9  19  34  50  69  93 122 155 190 228 272
#
# _framework density 20.477160000000001
#
# number of rings (size 3 to 8) (size 9 to 14) (size 15 to 20)
#    0.000    2.600    0.000    1.800    0.000    5.600 
#    0.000    2.000    0.000    0.600    0.000    9.800 
#    0.000    0.000    0.000    0.000    0.000    0.000 
#
# Total GULP energy -223226.505007 kJ/mol
# GULP energy per Si atom -5580.662625 kJ/mol
# Density = 2.043055 g / cm^3
# Si number density = 20.477160 Si / 1000 Ang^3
#
#
#
# Elastic Constant Matrix: (Units=GPa)
#
#
# Indices 1 2 3 4 5 6 
#
# 1 109.8608 31.3868 4.5452 0.0000 0.0000 0.0000
# 2 31.3868 58.6640 -19.4701 0.0000 0.0000 0.0000
# 3 4.5452 -19.4701 52.1138 0.0000 0.0000 0.0000
# 4 0.0000 0.0000 0.0000 14.2908 0.0000 0.0000
# 5 0.0000 0.0000 0.0000 0.0000 7.7517 0.0000
# 6 0.0000 0.0000 0.0000 0.0000 0.0000 -0.9156
#
#
#
# Elastic Compliance Matrix: (Units=1/GPa)
#
#
# Indices 1 2 3 4 5 6 
#
# 1 0.011342 -0.007302 -0.003717 0.000000 0.000000 0.000000
# 2 -0.007302 0.024160 0.009663 0.000000 0.000000 0.000000
# 3 -0.003717 0.009663 0.023123 0.000000 0.000000 0.000000
# 4 0.000000 0.000000 0.000000 0.069975 0.000000 0.000000
# 5 0.000000 0.000000 0.000000 0.000000 0.129003 0.000000
# 6 0.000000 0.000000 0.000000 0.000000 0.000000 -1.092124
#
#
# Mechanical properties :
#
#
# Convention : Reuss Voigt Hill
#
# Bulk Modulus (GPa) = 17.88480 28.17359 23.02920
# Shear Modulus (GPa) = -6.14878 17.83715 5.84418
#
# Velocity S-wave (km/s) = -1.73473 2.95460 1.69121
# Velocity P-wave (km/s) = 2.17730 5.04261 3.88385
#
# Compressibility (1/GPa) = 0.05591341
#
# Stress axis : x y z
#
# Youngs Moduli (GPa) = 88.16414 41.39010 43.24634
#
# Poissons Ratio (x) = 0.30224 0.16077
# Poissons Ratio (y) = 0.64380 -0.41791
# Poissons Ratio (z) = 0.32775 -0.39997
#
# Static dielectric constant tensor:
#      x y z
#    x 1.767860 0.000000 0.000000 
#    y 0.000000 1.700790 0.000000 
#    z 0.000000 0.000000 1.777080 
# 
# From -- ./inp_files/8271.got.cif
#   From: 2010.05.17/outbox.cif.g08.bks.cpg/sg71_5_cif.got.tgz:8271.got - 2010.06.03 16:22:01.
