data_PCOD9518713
_publ_section_title
;
Structure prediction by ZEFSAII (Michael W. Deem and Ramdas Pophale) SiO2 
 PCOD9518713
Probable space group: I M M M
;
_chemical_formula_sum "Si O2"
_cell_formula_units_Z 128
_cell_length_a 18.328055
_cell_length_b 24.142129
_cell_length_c 18.468171
_cell_angle_alpha 90.000000
_cell_angle_beta 90.000000
_cell_angle_gamma 90.000000
_cell_volume 8171.764320
_symmetry_space_group_name_H-M "I M M M"
_symmetry_group_IT_number 71
_symmetry_cell_setting 'orthorhombic'
loop_
_space_group_symop_operation_xyz
x,y,z
-x,-y,z
x,-y,-z
-x,y,-z
-x,-y,-z
x,y,-z
-x,y,z
x,-y,z
1/2+x,1/2+y,1/2+z
1/2-x,1/2-y,1/2+z
1/2+x,1/2-y,1/2-z
1/2-x,1/2+y,1/2-z
1/2-x,1/2-y,1/2-z
1/2+x,1/2+y,1/2-z
1/2-x,1/2+y,1/2+z
1/2+x,1/2-y,1/2+z
loop_
_atom_site_type_symbol
_atom_site_label
_atom_site_fract_x
_atom_site_fract_y
_atom_site_fract_z
Si Si1 0.308424 0.368369 0.648235
Si Si2 0.827915 0.566407 0.415151
Si Si3 0.081784 0.221706 0.085515
Si Si4 0.585053 0.876676 0.787027
Si Si5 0.833791 0.667895 0.080907
Si Si6 0.582283 0.565591 0.579206
Si Si7 0.721382 0.188602 0.266689
Si Si8 0.414755 0.936573 0.633942
O O1 0.243849 0.396001 0.600646
O O2 0.352310 0.314893 0.617854
O O3 0.371048 0.413877 0.645354
O O4 0.274231 0.353141 0.724464
O O5 0.847913 0.571829 0.500000
O O6 0.815234 0.500000 0.401910
O O7 0.886772 0.591333 0.358658
O O8 0.103142 0.286056 0.092863
O O9 0.000000 0.212150 0.115364
O O10 0.079516 0.209792 0.000000
O O11 0.500000 0.860228 0.793704
O O12 0.641002 0.826724 0.766137
O O13 0.590939 0.917925 0.718063
O O14 0.780194 0.678086 0.147822
O O15 0.867981 0.607360 0.089543
O O16 0.804349 0.676381 0.000000
O O17 0.612759 0.582886 0.500000
O O18 0.500000 0.586676 0.582691
O O19 0.580254 0.500000 0.578490
O O20 0.750000 0.250000 0.250000
O O21 0.500000 0.932101 0.613707
O O22 0.391804 0.000000 0.625052
#
# Coordination Sequence:
#
# PCOD9518713 Si02
#       8
#    16  16  16  16  16  16  16  16
#     4  11  19  30  48  66  98 132 169 205 239 291
#     4  10  20  31  46  70  99 134 175 215 251 287
#     4  10  19  29  45  71 100 128 159 198 243 294
#     4   9  19  34  52  70  95 130 167 210 255 293
#     4  10  20  34  50  68  95 126 157 197 246 293
#     4   9  17  29  46  72 108 142 166 193 236 294
#     4  10  20  37  50  71  97 125 164 203 246 299
#     4   9  17  30  49  71  95 124 157 192 236 294
#
# _framework density 15.663693
#
# number of rings (size 3 to 8) (size 9 to 14) (size 15 to 20)
#    0.000    2.250    1.250    3.000    0.000    4.500 
#    0.000    1.875    0.000    0.000    0.000    0.000 
#    0.000    3.000    0.000    1.375    0.000    0.000 
#
# Total GULP energy -356321.248299 kJ/mol
# GULP energy per Si atom -5567.519505 kJ/mol
# Density = 1.562804 g / cm^3
# Si number density = 15.663693 Si / 1000 Ang^3
#
#
#
# Elastic Constant Matrix: (Units=GPa)
#
#
# Indices 1 2 3 4 5 6 
#
# 1 83.5594 34.2881 44.4473 0.0000 0.0000 0.0000
# 2 34.2881 95.9454 29.2910 0.0000 0.0000 0.0000
# 3 44.4473 29.2910 104.7928 0.0000 0.0000 0.0000
# 4 0.0000 0.0000 0.0000 20.0513 0.0000 0.0000
# 5 0.0000 0.0000 0.0000 0.0000 18.1489 0.0000
# 6 0.0000 0.0000 0.0000 0.0000 0.0000 24.7126
#
#
#
# Elastic Compliance Matrix: (Units=1/GPa)
#
#
# Indices 1 2 3 4 5 6 
#
# 1 0.016875 -0.004204 -0.005982 0.000000 0.000000 0.000000
# 2 -0.004204 0.012442 -0.001695 0.000000 0.000000 0.000000
# 3 -0.005982 -0.001695 0.012554 0.000000 0.000000 0.000000
# 4 0.000000 0.000000 0.000000 0.049872 0.000000 0.000000
# 5 0.000000 0.000000 0.000000 0.000000 0.055100 0.000000
# 6 0.000000 0.000000 0.000000 0.000000 0.000000 0.040465
#
#
# Mechanical properties :
#
#
# Convention : Reuss Voigt Hill
#
# Bulk Modulus (GPa) = 55.22208 55.59447 55.40828
# Shear Modulus (GPa) = 23.03020 24.33398 23.68209
#
# Velocity S-wave (km/s) = 3.83860 3.94576 3.89255
# Velocity P-wave (km/s) = 7.41470 7.50522 7.46010
#
# Compressibility (1/GPa) = 0.01810870
#
# Stress axis : x y z
#
# Youngs Moduli (GPa) = 59.25994 80.37022 79.65828
#
# Poissons Ratio (x) = 0.33790 0.47653
# Poissons Ratio (y) = 0.24914 0.13499
# Poissons Ratio (z) = 0.35451 0.13620
#
# Static dielectric constant tensor:
#      x y z
#    x 1.536790 0.000000 0.000000 
#    y 0.000000 1.557180 0.000000 
#    z 0.000000 0.000000 1.530660 
# 
# From -- ./inp_files/46647.got.cif
#   From: 2010.05.17/outbox.cif.g08.bks.cpg/sg71_24_cif.got.tgz:46647.got - 2010.06.03 16:22:01.
