data_PCOD9518985
_publ_section_title
;
Structure prediction by ZEFSAII (Michael W. Deem and Ramdas Pophale) SiO2 
 PCOD9518985
Probable space group: I M M M
;
_chemical_formula_sum "Si O2"
_cell_formula_units_Z 104
_cell_length_a 7.722895
_cell_length_b 34.741371
_cell_length_c 25.397278
_cell_angle_alpha 90.000000
_cell_angle_beta 90.000000
_cell_angle_gamma 90.000000
_cell_volume 6814.190271
_symmetry_space_group_name_H-M "I M M M"
_symmetry_group_IT_number 71
_symmetry_cell_setting 'orthorhombic'
loop_
_space_group_symop_operation_xyz
x,y,z
-x,-y,z
x,-y,-z
-x,y,-z
-x,-y,-z
x,y,-z
-x,y,z
x,-y,z
1/2+x,1/2+y,1/2+z
1/2-x,1/2-y,1/2+z
1/2+x,1/2-y,1/2-z
1/2-x,1/2+y,1/2-z
1/2-x,1/2-y,1/2-z
1/2+x,1/2+y,1/2-z
1/2-x,1/2+y,1/2+z
1/2+x,1/2-y,1/2+z
loop_
_atom_site_type_symbol
_atom_site_label
_atom_site_fract_x
_atom_site_fract_y
_atom_site_fract_z
Si Si1 0.200464 0.618379 0.334666
Si Si2 0.794613 0.543406 0.616983
Si Si3 0.706490 0.810300 0.772253
Si Si4 0.197736 0.046660 0.000000
Si Si5 0.709241 0.732324 0.829359
Si Si6 0.794833 0.158148 0.941418
Si Si7 0.790317 0.251392 0.442499
O O1 0.279279 0.576233 0.344817
O O2 0.278256 0.649601 0.294544
O O3 0.205424 0.638726 0.391836
O O4 0.000000 0.612483 0.319252
O O5 0.722246 0.500000 0.621744
O O6 0.774964 0.557198 0.556366
O O7 0.000000 0.540945 0.626377
O O8 0.500000 0.811209 0.781438
O O9 0.772770 0.773126 0.804866
O O10 0.737059 0.800632 0.711343
O O11 0.000000 0.059591 0.000000
O O12 0.204915 0.000000 0.000000
O O13 0.500000 0.733326 0.829057
O O14 0.768492 0.729896 0.889697
O O15 0.764591 0.204011 0.938127
O O16 0.000000 0.150620 0.937736
O O17 0.735363 0.145790 0.000000
O O18 0.731227 0.237183 0.500000
O O19 0.000000 0.250848 0.442445
#
# Coordination Sequence:
#
# PCOD9518985 Si02
#       7
#    16  16  16   8  16  16  16
#     4  10  19  31  44  56  72  95 126 157 191 233
#     4   9  18  31  45  58  71  91 122 158 192 229
#     4   9  17  28  40  56  74  97 126 154 185 221
#     4   9  17  29  43  57  75  97 119 149 193 241
#     4   9  16  27  41  57  76  98 124 152 185 219
#     4  10  20  29  37  54  77  97 122 158 196 230
#     4   9  16  28  44  58  75 100 128 155 186 226
#
# _framework density 15.262267
#
# number of rings (size 3 to 8) (size 9 to 14) (size 15 to 20)
#    0.000    2.692    1.538    0.692    1.077    3.692 
#    0.000    0.000    0.000    0.000    0.000    0.000 
#    0.000    0.000    0.000    0.000    0.000    0.769 
#
# Total GULP energy -289759.706713 kJ/mol
# GULP energy per Si atom -5572.302052 kJ/mol
# Density = 1.522753 g / cm^3
# Si number density = 15.262267 Si / 1000 Ang^3
#
#
#
# Elastic Constant Matrix: (Units=GPa)
#
#
# Indices 1 2 3 4 5 6 
#
# 1 24.1964 1.4701 -0.0185 0.0000 0.0000 0.0000
# 2 1.4701 87.8947 52.8473 0.0000 0.0000 0.0000
# 3 -0.0185 52.8473 90.0888 0.0000 0.0000 0.0000
# 4 0.0000 0.0000 0.0000 22.0671 0.0000 0.0000
# 5 0.0000 0.0000 0.0000 0.0000 11.2675 0.0000
# 6 0.0000 0.0000 0.0000 0.0000 0.0000 4.3521
#
#
#
# Elastic Compliance Matrix: (Units=1/GPa)
#
#
# Indices 1 2 3 4 5 6 
#
# 1 0.041394 -0.001078 0.000641 0.000000 0.000000 0.000000
# 2 -0.001078 0.017605 -0.010327 0.000000 0.000000 0.000000
# 3 0.000641 -0.010327 0.017158 0.000000 0.000000 0.000000
# 4 0.000000 0.000000 0.000000 0.045316 0.000000 0.000000
# 5 0.000000 0.000000 0.000000 0.000000 0.088750 0.000000
# 6 0.000000 0.000000 0.000000 0.000000 0.000000 0.229773
#
#
# Mechanical properties :
#
#
# Convention : Reuss Voigt Hill
#
# Bulk Modulus (GPa) = 18.30531 34.53086 26.41808
# Shear Modulus (GPa) = 10.42242 17.39609 13.90925
#
# Velocity S-wave (km/s) = 2.61605 3.37977 3.02213
# Velocity P-wave (km/s) = 4.59835 6.15667 5.43366
#
# Compressibility (1/GPa) = 0.05462897
#
# Stress axis : x y z
#
# Youngs Moduli (GPa) = 24.15785 56.80311 58.28029
#
# Poissons Ratio (x) = 0.06121 -0.03734
# Poissons Ratio (y) = 0.02603 0.60188
# Poissons Ratio (z) = -0.01548 0.58663
#
# Static dielectric constant tensor:
#      x y z
#    x 1.567660 0.000000 0.000000 
#    y 0.000000 1.541450 0.000000 
#    z 0.000000 0.000000 1.522770 
# 
# From -- ./inp_files/17433.got.cif
#   From: 2010.05.17/outbox.cif.g08.bks.cpg/sg71_9_cif.got.tgz:17433.got - 2010.06.03 16:22:01.
