data_PCOD9518324
_publ_section_title
;
Structure prediction by ZEFSAII (Michael W. Deem and Ramdas Pophale) SiO2 
 PCOD9518324
Probable space group: I M M M
;
_chemical_formula_sum "Si O2"
_cell_formula_units_Z 40
_cell_length_a 12.080220
_cell_length_b 18.662907
_cell_length_c 8.092019
_cell_angle_alpha 90.000000
_cell_angle_beta 90.000000
_cell_angle_gamma 90.000000
_cell_volume 1824.362049
_symmetry_space_group_name_H-M "I M M M"
_symmetry_group_IT_number 71
_symmetry_cell_setting 'orthorhombic'
loop_
_space_group_symop_operation_xyz
x,y,z
-x,-y,z
x,-y,-z
-x,y,-z
-x,-y,-z
x,y,-z
-x,y,z
x,-y,z
1/2+x,1/2+y,1/2+z
1/2-x,1/2-y,1/2+z
1/2+x,1/2-y,1/2-z
1/2-x,1/2+y,1/2-z
1/2-x,1/2-y,1/2-z
1/2+x,1/2+y,1/2-z
1/2-x,1/2+y,1/2+z
1/2+x,1/2-y,1/2+z
loop_
_atom_site_type_symbol
_atom_site_label
_atom_site_fract_x
_atom_site_fract_y
_atom_site_fract_z
Si Si1 0.628822 0.735100 0.000000
Si Si2 0.500000 0.000000 0.253678
Si Si3 0.235306 0.500000 0.305139
Si Si4 0.000000 0.627311 0.500000
Si Si5 0.633273 0.352694 0.687118
O O1 0.606164 0.820303 0.000000
O O2 0.672037 0.700436 0.168187
O O3 0.500000 0.709802 0.000000
O O4 0.372530 0.000000 0.312113
O O5 0.500000 0.075280 0.154979
O O6 0.196849 0.500000 0.500000
O O7 0.308264 0.429019 0.286273
O O8 0.656672 0.325996 0.500000
O O9 0.500000 0.362102 0.693195
#
# Coordination Sequence:
#
# PCOD9518324 Si02
#       5
#     8   4   8   4  16
#     4   8  17  33  56  88 115 142 188 241 301 340
#     4  11  20  38  62  79 115 166 213 229 260 365
#     4  10  18  31  55  86 113 161 198 228 284 343
#     4   9  18  36  60  81 112 158 210 235 274 346
#     4   9  17  31  56  91 121 143 183 246 303 341
#
# _framework density 21.925473
#
# number of rings (size 3 to 8) (size 9 to 14) (size 15 to 20)
#    0.600    2.200    2.000    0.600    0.000    3.200 
#    0.000    5.000    0.000    2.400   10.400    8.400 
#    0.000    0.000    0.000    0.000    0.000    0.000 
#
# Total GULP energy -111378.587616 kJ/mol
# GULP energy per Si atom -5568.929381 kJ/mol
# Density = 2.187557 g / cm^3
# Si number density = 21.925473 Si / 1000 Ang^3
#
#
#
# Elastic Constant Matrix: (Units=GPa)
#
#
# Indices 1 2 3 4 5 6 
#
# 1 116.5286 31.0506 44.7113 0.0000 0.0000 0.0000
# 2 31.0506 154.2659 92.0098 0.0001 0.0000 0.0000
# 3 44.7113 92.0098 131.9817 0.0003 0.0000 0.0000
# 4 0.0000 0.0001 0.0003 -10.7845 0.0000 0.0000
# 5 0.0000 0.0000 0.0000 0.0000 -4.0185 0.0000
# 6 0.0000 0.0000 0.0000 0.0000 0.0000 16.5016
#
#
#
# Elastic Compliance Matrix: (Units=1/GPa)
#
#
# Indices 1 2 3 4 5 6 
#
# 1 0.009864 0.000013 -0.003351 0.000000 0.000000 0.000000
# 2 0.000013 0.011096 -0.007740 0.000000 0.000000 0.000000
# 3 -0.003351 -0.007740 0.014108 0.000000 0.000000 0.000000
# 4 0.000000 0.000000 0.000000 -0.092726 0.000000 0.000000
# 5 0.000000 0.000000 0.000000 0.000000 -0.248849 0.000000
# 6 0.000000 0.000000 0.000000 0.000000 0.000000 0.060600
#
#
# Mechanical properties :
#
#
# Convention : Reuss Voigt Hill
#
# Bulk Modulus (GPa) = 77.44437 82.03552 79.73995
# Shear Modulus (GPa) = -22.78445 16.00669 -3.38888
#
# Velocity S-wave (km/s) = -3.22712 2.70487 -1.24459
# Velocity P-wave (km/s) = 4.63816 6.87401 5.86364
#
# Compressibility (1/GPa) = 0.01291249
#
# Stress axis : x y z
#
# Youngs Moduli (GPa) = 101.38168 90.12206 70.88319
#
# Poissons Ratio (x) = -0.00118 0.23750
# Poissons Ratio (y) = -0.00133 0.54863
# Poissons Ratio (z) = 0.33969 0.69754
#
# Static dielectric constant tensor:
#      x y z
#    x 1.875060 0.000000 0.000000 
#    y 0.000000 1.735120 0.000000 
#    z 0.000000 0.000000 1.871870 
# 
# From -- ./inp_files/2898.got.cif
#   From: 2010.05.17/outbox.cif.g08.bks.cpg/sg71_2_cif.got.tgz:2898.got - 2010.06.03 16:22:01.
