data_PCOD9518939
_publ_section_title
;
Structure prediction by ZEFSAII (Michael W. Deem and Ramdas Pophale) SiO2 
 PCOD9518939
Probable space group: I M M M
;
_chemical_formula_sum "Si O2"
_cell_formula_units_Z 88
_cell_length_a 27.292003
_cell_length_b 8.290307
_cell_length_c 21.639707
_cell_angle_alpha 90.000000
_cell_angle_beta 90.000000
_cell_angle_gamma 90.000000
_cell_volume 4896.180273
_symmetry_space_group_name_H-M "I M M M"
_symmetry_group_IT_number 71
_symmetry_cell_setting 'orthorhombic'
loop_
_space_group_symop_operation_xyz
x,y,z
-x,-y,z
x,-y,-z
-x,y,-z
-x,-y,-z
x,y,-z
-x,y,z
x,-y,z
1/2+x,1/2+y,1/2+z
1/2-x,1/2-y,1/2+z
1/2+x,1/2-y,1/2-z
1/2-x,1/2+y,1/2-z
1/2-x,1/2-y,1/2-z
1/2+x,1/2+y,1/2-z
1/2-x,1/2+y,1/2+z
1/2+x,1/2-y,1/2+z
loop_
_atom_site_type_symbol
_atom_site_label
_atom_site_fract_x
_atom_site_fract_y
_atom_site_fract_z
Si Si1 0.559640 0.000000 0.930124
Si Si2 0.441362 0.684518 0.851500
Si Si3 0.679564 0.690984 0.500000
Si Si4 0.860310 0.809146 0.256426
Si Si5 0.292907 0.192795 0.000000
Si Si6 0.820968 0.690420 0.129629
Si Si7 0.208702 0.805319 0.632254
O O1 0.572976 0.833546 0.895623
O O2 0.500000 0.000000 0.932465
O O3 0.578746 0.000000 0.000000
O O4 0.500000 0.688134 0.845081
O O5 0.427945 0.500000 0.872433
O O6 0.413484 0.711219 0.787031
O O7 0.681719 0.500000 0.500000
O O8 0.736008 0.753494 0.500000
O O9 0.657672 0.745804 0.565058
O O10 0.851102 0.731275 0.190566
O O11 0.822570 0.748174 0.309124
O O12 0.851656 0.000000 0.248818
O O13 0.312616 0.253074 0.934233
O O14 0.293521 0.000000 0.000000
O O15 0.816872 0.500000 0.123711
O O16 0.764947 0.754759 0.137113
O O17 0.208535 0.000000 0.633610
#
# Coordination Sequence:
#
# PCOD9518939 Si02
#       7
#     8  16   8  16   8  16  16
#     4   9  18  34  56  78 100 131 171 215 263 308
#     4   9  19  36  55  75 102 134 170 214 258 304
#     4   9  17  31  49  67  94 129 162 197 238 290
#     4  10  20  33  49  71  97 129 166 203 249 301
#     4   9  17  29  45  65  90 127 168 204 243 284
#     4  10  19  30  49  73  98 127 162 202 244 291
#     4   9  18  32  46  65  96 132 165 201 244 291
#
# _framework density 17.973195
#
# number of rings (size 3 to 8) (size 9 to 14) (size 15 to 20)
#    0.000    2.636    0.000    1.636    1.273    4.000 
#    1.636    1.818    0.000    0.000    0.000    0.636 
#    0.000    5.091    0.000    0.000    0.000    0.000 
#
# Total GULP energy -245275.580387 kJ/mol
# GULP energy per Si atom -5574.445009 kJ/mol
# Density = 1.793229 g / cm^3
# Si number density = 17.973195 Si / 1000 Ang^3
#
#
#
# Elastic Constant Matrix: (Units=GPa)
#
#
# Indices 1 2 3 4 5 6 
#
# 1 32.2009 25.0281 28.3290 0.0000 0.0000 0.0000
# 2 25.0281 65.1130 59.1340 0.0000 0.0000 0.0000
# 3 28.3290 59.1340 166.1449 0.0000 0.0000 0.0000
# 4 0.0000 0.0000 0.0000 22.8025 0.0000 0.0000
# 5 0.0000 0.0000 0.0000 0.0000 7.8899 0.0000
# 6 0.0000 0.0000 0.0000 0.0000 0.0000 11.3201
#
#
#
# Elastic Compliance Matrix: (Units=1/GPa)
#
#
# Indices 1 2 3 4 5 6 
#
# 1 0.044839 -0.015208 -0.002233 0.000000 0.000000 0.000000
# 2 -0.015208 0.027851 -0.007320 0.000000 0.000000 0.000000
# 3 -0.002233 -0.007320 0.009005 0.000000 0.000000 0.000000
# 4 0.000000 0.000000 0.000000 0.043855 0.000000 0.000000
# 5 0.000000 0.000000 0.000000 0.000000 0.126744 0.000000
# 6 0.000000 0.000000 0.000000 0.000000 0.000000 0.088338
#
#
# Mechanical properties :
#
#
# Convention : Reuss Voigt Hill
#
# Bulk Modulus (GPa) = 31.07996 54.27122 42.67559
# Shear Modulus (GPa) = 12.47267 18.46703 15.46985
#
# Velocity S-wave (km/s) = 2.63717 3.20890 2.93698
# Velocity P-wave (km/s) = 5.15779 6.63254 5.94110
#
# Compressibility (1/GPa) = 0.03217507
#
# Stress axis : x y z
#
# Youngs Moduli (GPa) = 22.30179 35.90555 111.05255
#
# Poissons Ratio (x) = 0.54603 0.24796
# Poissons Ratio (y) = 0.33915 0.81286
# Poissons Ratio (z) = 0.04980 0.26282
#
# Static dielectric constant tensor:
#      x y z
#    x 1.628950 0.000000 0.000000 
#    y 0.000000 1.626640 0.000000 
#    z 0.000000 0.000000 1.618850 
# 
# From -- ./inp_files/42517.got.cif
#   From: 2010.05.17/outbox.cif.g08.bks.cpg/sg71_22_cif.got.tgz:42517.got - 2010.06.03 16:22:01.
