data_PCOD9518597
_publ_section_title
;
Structure prediction by ZEFSAII (Michael W. Deem and Ramdas Pophale) SiO2 
 PCOD9518597
Probable space group: I M M M
;
_chemical_formula_sum "Si O2"
_cell_formula_units_Z 80
_cell_length_a 22.836736
_cell_length_b 30.030164
_cell_length_c 9.247322
_cell_angle_alpha 90.000000
_cell_angle_beta 90.000000
_cell_angle_gamma 90.000000
_cell_volume 6341.729529
_symmetry_space_group_name_H-M "I M M M"
_symmetry_group_IT_number 71
_symmetry_cell_setting 'orthorhombic'
loop_
_space_group_symop_operation_xyz
x,y,z
-x,-y,z
x,-y,-z
-x,y,-z
-x,-y,-z
x,y,-z
-x,y,z
x,-y,z
1/2+x,1/2+y,1/2+z
1/2-x,1/2-y,1/2+z
1/2+x,1/2-y,1/2-z
1/2-x,1/2+y,1/2-z
1/2-x,1/2-y,1/2-z
1/2+x,1/2+y,1/2-z
1/2-x,1/2+y,1/2+z
1/2+x,1/2-y,1/2+z
loop_
_atom_site_type_symbol
_atom_site_label
_atom_site_fract_x
_atom_site_fract_y
_atom_site_fract_z
Si Si1 0.870240 0.368003 0.173719
Si Si2 0.069299 0.284733 0.671089
Si Si3 0.161896 0.769962 0.834262
Si Si4 0.743614 0.818881 0.665607
Si Si5 0.930906 0.447788 0.328677
O O1 0.908937 0.329427 0.248613
O O2 0.802399 0.356974 0.209541
O O3 0.892353 0.414763 0.234123
O O4 0.876059 0.364875 0.000000
O O5 0.081741 0.288585 0.500000
O O6 0.106463 0.244375 0.739114
O O7 0.000000 0.279265 0.690768
O O8 0.201293 0.808892 0.766312
O O9 0.203595 0.725956 0.833375
O O10 0.145801 0.778725 0.000000
O O11 0.762481 0.825985 0.500000
O O12 0.921430 0.439593 0.500000
O O13 0.919589 0.500000 0.301009
O O14 0.000000 0.439643 0.300319
#
# Coordination Sequence:
#
# PCOD9518597 Si02
#       5
#    16  16  16  16  16
#     4  10  19  28  40  57  73  91 119 156 191 219
#     4  10  19  28  38  52  72  99 125 149 182 221
#     4   9  16  25  38  54  70  90 117 149 181 211
#     4   8  15  26  37  51  71  92 114 143 181 221
#     4   9  18  31  43  54  71  96 123 151 187 229
#
# _framework density 12.614855
#
# number of rings (size 3 to 8) (size 9 to 14) (size 15 to 20)
#    0.000    2.800    0.000    4.200    0.000   10.400 
#    0.000    1.000    0.000    0.000    0.000    0.000 
#    0.000    0.000    0.000    0.000    0.000    1.000 
#
# Total GULP energy -222778.331365 kJ/mol
# GULP energy per Si atom -5569.458284 kJ/mol
# Density = 1.258614 g / cm^3
# Si number density = 12.614855 Si / 1000 Ang^3
#
#
#
# Elastic Constant Matrix: (Units=GPa)
#
#
# Indices 1 2 3 4 5 6 
#
# 1 57.2756 39.4916 50.8969 0.0000 0.0000 0.0000
# 2 39.4916 52.7195 40.5469 0.0000 0.0000 0.0000
# 3 50.8969 40.5469 76.5909 0.0000 0.0000 0.0000
# 4 0.0000 0.0000 0.0000 18.9679 0.0000 0.0000
# 5 0.0000 0.0000 0.0000 0.0000 21.4224 0.0000
# 6 0.0000 0.0000 0.0000 0.0000 0.0000 24.0318
#
#
#
# Elastic Compliance Matrix: (Units=1/GPa)
#
#
# Indices 1 2 3 4 5 6 
#
# 1 0.054300 -0.021799 -0.024544 0.000000 0.000000 0.000000
# 2 -0.021799 0.040747 -0.007085 0.000000 0.000000 0.000000
# 3 -0.024544 -0.007085 0.033117 0.000000 0.000000 0.000000
# 4 0.000000 0.000000 0.000000 0.052721 0.000000 0.000000
# 5 0.000000 0.000000 0.000000 0.000000 0.046680 0.000000
# 6 0.000000 0.000000 0.000000 0.000000 0.000000 0.041612
#
#
# Mechanical properties :
#
#
# Convention : Reuss Voigt Hill
#
# Bulk Modulus (GPa) = 46.92948 49.82854 48.37901
# Shear Modulus (GPa) = 13.05022 16.59447 14.82234
#
# Velocity S-wave (km/s) = 3.21987 3.63088 3.43153
# Velocity P-wave (km/s) = 7.14884 7.56064 7.35762
#
# Compressibility (1/GPa) = 0.02130857
#
# Stress axis : x y z
#
# Youngs Moduli (GPa) = 18.41619 24.54180 30.19552
#
# Poissons Ratio (x) = 0.53498 0.74112
# Poissons Ratio (y) = 0.40145 0.21395
# Poissons Ratio (z) = 0.45200 0.17389
#
# Static dielectric constant tensor:
#      x y z
#    x 1.405450 0.000000 0.000000 
#    y 0.000000 1.396250 0.000000 
#    z 0.000000 0.000000 1.423670 
# 
# From -- ./inp_files/11235.got.cif
#   From: 2010.05.17/outbox.cif.g08.bks.cpg/sg71_6_cif.got.tgz:11235.got - 2010.06.03 16:22:01.
