data_PCOD9518753
_publ_section_title
;
Structure prediction by ZEFSAII (Michael W. Deem and Ramdas Pophale) SiO2 
 PCOD9518753
Probable space group: I M M M
;
_chemical_formula_sum "Si O2"
_cell_formula_units_Z 96
_cell_length_a 28.323409
_cell_length_b 29.959355
_cell_length_c 8.936161
_cell_angle_alpha 90.000000
_cell_angle_beta 90.000000
_cell_angle_gamma 90.000000
_cell_volume 7582.788934
_symmetry_space_group_name_H-M "I M M M"
_symmetry_group_IT_number 71
_symmetry_cell_setting 'orthorhombic'
loop_
_space_group_symop_operation_xyz
x,y,z
-x,-y,z
x,-y,-z
-x,y,-z
-x,-y,-z
x,y,-z
-x,y,z
x,-y,z
1/2+x,1/2+y,1/2+z
1/2-x,1/2-y,1/2+z
1/2+x,1/2-y,1/2-z
1/2-x,1/2+y,1/2-z
1/2-x,1/2-y,1/2-z
1/2+x,1/2+y,1/2-z
1/2-x,1/2+y,1/2+z
1/2+x,1/2-y,1/2+z
loop_
_atom_site_type_symbol
_atom_site_label
_atom_site_fract_x
_atom_site_fract_y
_atom_site_fract_z
Si Si1 0.322612 0.767816 0.828977
Si Si2 0.845479 0.130769 0.679839
Si Si3 0.599491 0.551979 0.320994
Si Si4 0.254833 0.319872 0.828076
Si Si5 0.000000 0.099383 0.177940
Si Si6 0.598423 0.713992 0.678243
Si Si7 0.000000 0.803134 0.321419
O O1 0.288022 0.724454 0.826347
O O2 0.290647 0.808270 0.769537
O O3 0.366651 0.753792 0.727363
O O4 0.337528 0.774428 0.000000
O O5 0.849393 0.135650 0.500000
O O6 0.864021 0.083304 0.734277
O O7 0.791126 0.141660 0.721170
O O8 0.877996 0.168549 0.757119
O O9 0.607186 0.556158 0.500000
O O10 0.602505 0.500000 0.280983
O O11 0.546973 0.570979 0.291014
O O12 0.240675 0.327402 0.000000
O O13 0.000000 0.144946 0.270602
O O14 0.000000 0.110635 0.000000
O O15 0.595041 0.710691 0.500000
O O16 0.547222 0.717904 0.752185
O O17 0.000000 0.800089 0.500000
#
# Coordination Sequence:
#
# PCOD9518753 Si02
#       7
#    16  16  16  16   8  16   8
#     4   9  16  26  40  59  78  96 119 149 182 219
#     4  10  19  30  43  59  77  97 122 157 194 232
#     4  10  20  32  45  59  76  98 126 162 204 249
#     4   8  15  26  39  56  77  98 119 144 183 228
#     4  10  19  32  46  58  71  95 126 160 204 249
#     4  11  20  30  43  57  76 101 125 152 191 234
#     4  12  22  31  43  59  77  97 128 166 197 232
#
# _framework density 12.66025
#
# number of rings (size 3 to 8) (size 9 to 14) (size 15 to 20)
#    0.000    2.167    1.667    4.500    0.000    6.000 
#    0.000    0.000    0.000    1.500    0.000    0.000 
#    0.000    0.000    0.000    0.000    0.000    0.000 
#
# Total GULP energy -267594.982590 kJ/mol
# GULP energy per Si atom -5574.895471 kJ/mol
# Density = 1.263143 g / cm^3
# Si number density = 12.660250 Si / 1000 Ang^3
#
#
#
# Elastic Constant Matrix: (Units=GPa)
#
#
# Indices 1 2 3 4 5 6 
#
# 1 78.6067 43.5813 47.9009 0.0000 0.0000 0.0000
# 2 43.5813 44.0783 29.9236 0.0000 0.0000 0.0000
# 3 47.9009 29.9236 74.5800 0.0000 0.0000 0.0000
# 4 0.0000 0.0000 0.0000 14.7460 0.0000 0.0000
# 5 0.0000 0.0000 0.0000 0.0000 21.3487 0.0000
# 6 0.0000 0.0000 0.0000 0.0000 0.0000 12.7295
#
#
#
# Elastic Compliance Matrix: (Units=1/GPa)
#
#
# Indices 1 2 3 4 5 6 
#
# 1 0.034088 -0.025894 -0.011505 0.000000 0.000000 0.000000
# 2 -0.025894 0.050849 -0.003771 0.000000 0.000000 0.000000
# 3 -0.011505 -0.003771 0.022311 0.000000 0.000000 0.000000
# 4 0.000000 0.000000 0.000000 0.067815 0.000000 0.000000
# 5 0.000000 0.000000 0.000000 0.000000 0.046841 0.000000
# 6 0.000000 0.000000 0.000000 0.000000 0.000000 0.078558
#
#
# Mechanical properties :
#
#
# Convention : Reuss Voigt Hill
#
# Bulk Modulus (GPa) = 40.14667 48.89740 44.52203
# Shear Modulus (GPa) = 12.78434 14.82213 13.80324
#
# Velocity S-wave (km/s) = 3.18118 3.42535 3.30552
# Velocity P-wave (km/s) = 6.72851 7.37229 7.05775
#
# Compressibility (1/GPa) = 0.02490867
#
# Stress axis : x y z
#
# Youngs Moduli (GPa) = 29.33551 19.66615 44.82147
#
# Poissons Ratio (x) = 0.50923 0.51566
# Poissons Ratio (y) = 0.75961 0.16902
# Poissons Ratio (z) = 0.33750 0.07416
#
# Static dielectric constant tensor:
#      x y z
#    x 1.417110 0.000000 0.000000 
#    y 0.000000 1.393080 0.000000 
#    z 0.000000 0.000000 1.425590 
# 
# From -- ./inp_files/17585.got.cif
#   From: 2010.05.17/outbox.cif.g08.bks.cpg/sg71_9_cif.got.tgz:17585.got - 2010.06.03 16:22:01.
