data_PCOD9518260
_publ_section_title
;
Structure prediction by ZEFSAII (Michael W. Deem and Ramdas Pophale) SiO2 
 PCOD9518260
Probable space group: I M M M
;
_chemical_formula_sum "Si O2"
_cell_formula_units_Z 104
_cell_length_a 27.915666
_cell_length_b 22.234490
_cell_length_c 9.506237
_cell_angle_alpha 90.000000
_cell_angle_beta 90.000000
_cell_angle_gamma 90.000000
_cell_volume 5900.431914
_symmetry_space_group_name_H-M "I M M M"
_symmetry_group_IT_number 71
_symmetry_cell_setting 'orthorhombic'
loop_
_space_group_symop_operation_xyz
x,y,z
-x,-y,z
x,-y,-z
-x,y,-z
-x,-y,-z
x,y,-z
-x,y,z
x,-y,z
1/2+x,1/2+y,1/2+z
1/2-x,1/2-y,1/2+z
1/2+x,1/2-y,1/2-z
1/2-x,1/2+y,1/2-z
1/2-x,1/2-y,1/2-z
1/2+x,1/2+y,1/2-z
1/2-x,1/2+y,1/2+z
1/2+x,1/2-y,1/2+z
loop_
_atom_site_type_symbol
_atom_site_label
_atom_site_fract_x
_atom_site_fract_y
_atom_site_fract_z
Si Si1 0.349252 0.428550 0.331365
Si Si2 0.280335 0.341544 0.833681
Si Si3 0.423997 0.776912 0.339010
Si Si4 0.310694 0.773739 0.660053
Si Si5 0.555748 0.889618 0.156051
Si Si6 0.446560 0.638263 0.329824
Si Si7 0.941231 0.500000 0.160230
O O1 0.344870 0.417599 0.500000
O O2 0.348405 0.500000 0.308102
O O3 0.306864 0.394121 0.250583
O O4 0.400663 0.400682 0.284376
O O5 0.300538 0.278897 0.770857
O O6 0.223245 0.331142 0.812793
O O7 0.289583 0.347360 0.000000
O O8 0.440992 0.786970 0.500000
O O9 0.366841 0.785086 0.338561
O O10 0.442991 0.825646 0.231502
O O11 0.437025 0.708596 0.299209
O O12 0.298339 0.752677 0.500000
O O13 0.500000 0.905776 0.140894
O O14 0.575960 0.941048 0.257124
O O15 0.577383 0.888295 0.000000
O O16 0.447463 0.633359 0.500000
O O17 0.500000 0.621010 0.278973
O O18 0.000000 0.500000 0.155429
O O19 0.924853 0.500000 0.000000
#
# Coordination Sequence:
#
# PCOD9518260 Si02
#       7
#    16  16  16  16  16  16   8
#     4  10  20  35  55  77 106 145 186 228 272 321
#     4  10  19  32  54  81 106 131 165 212 264 316
#     4  10  18  31  52  75 103 136 175 217 260 317
#     4   9  18  33  54  79 105 132 165 209 261 314
#     4  10  20  32  47  71 104 136 167 209 260 311
#     4   9  17  30  50  77 107 139 179 229 274 310
#     4   9  17  31  51  71  91 125 175 215 245 295
#
# _framework density 17.625829
#
# number of rings (size 3 to 8) (size 9 to 14) (size 15 to 20)
#    0.000    2.385    1.538    1.615    0.000    4.308 
#    0.000    1.538    1.692    0.462    0.000    1.077 
#    0.000    0.000    0.000    0.000    0.000    0.000 
#
# Total GULP energy -289651.307134 kJ/mol
# GULP energy per Si atom -5570.217445 kJ/mol
# Density = 1.758571 g / cm^3
# Si number density = 17.625829 Si / 1000 Ang^3
#
#
#
# Elastic Constant Matrix: (Units=GPa)
#
#
# Indices 1 2 3 4 5 6 
#
# 1 81.0884 28.9818 22.3684 0.0000 0.0000 0.0000
# 2 28.9818 95.0742 55.1477 0.0000 0.0000 0.0000
# 3 22.3684 55.1477 86.6721 0.0000 0.0000 0.0000
# 4 0.0000 0.0000 0.0000 19.6113 0.0000 0.0000
# 5 0.0000 0.0000 0.0000 0.0000 19.2726 0.0000
# 6 0.0000 0.0000 0.0000 0.0000 0.0000 18.1541
#
#
#
# Elastic Compliance Matrix: (Units=1/GPa)
#
#
# Indices 1 2 3 4 5 6 
#
# 1 0.013949 -0.003430 -0.001418 0.000000 0.000000 0.000000
# 2 -0.003430 0.017514 -0.010259 0.000000 0.000000 0.000000
# 3 -0.001418 -0.010259 0.018431 0.000000 0.000000 0.000000
# 4 0.000000 0.000000 0.000000 0.050991 0.000000 0.000000
# 5 0.000000 0.000000 0.000000 0.000000 0.051887 0.000000
# 6 0.000000 0.000000 0.000000 0.000000 0.000000 0.055084
#
#
# Mechanical properties :
#
#
# Convention : Reuss Voigt Hill
#
# Bulk Modulus (GPa) = 50.80818 52.87004 51.83911
# Shear Modulus (GPa) = 20.43905 21.83005 21.13455
#
# Velocity S-wave (km/s) = 3.40900 3.52309 3.46651
# Velocity P-wave (km/s) = 6.66210 6.82718 6.74515
#
# Compressibility (1/GPa) = 0.01968187
#
# Stress axis : x y z
#
# Youngs Moduli (GPa) = 71.68899 57.09650 54.25633
#
# Poissons Ratio (x) = 0.19583 0.07692
# Poissons Ratio (y) = 0.24588 0.55660
# Poissons Ratio (z) = 0.10163 0.58574
#
# Static dielectric constant tensor:
#      x y z
#    x 1.637880 0.000000 0.000000 
#    y 0.000000 1.578400 0.000000 
#    z 0.000000 0.000000 1.613180 
# 
# From -- ./inp_files/17012.got.cif
#   From: 2010.05.17/outbox.cif.g08.bks.cpg/sg71_9_cif.got.tgz:17012.got - 2010.06.03 16:22:01.
