data_PCOD9518854
_publ_section_title
;
Structure prediction by ZEFSAII (Michael W. Deem and Ramdas Pophale) SiO2 
 PCOD9518854
Probable space group: I M M M
;
_chemical_formula_sum "Si O2"
_cell_formula_units_Z 104
_cell_length_a 23.330707
_cell_length_b 28.137588
_cell_length_c 7.377973
_cell_angle_alpha 90.000000
_cell_angle_beta 90.000000
_cell_angle_gamma 90.000000
_cell_volume 4843.416617
_symmetry_space_group_name_H-M "I M M M"
_symmetry_group_IT_number 71
_symmetry_cell_setting 'orthorhombic'
loop_
_space_group_symop_operation_xyz
x,y,z
-x,-y,z
x,-y,-z
-x,y,-z
-x,-y,-z
x,y,-z
-x,y,z
x,-y,z
1/2+x,1/2+y,1/2+z
1/2-x,1/2-y,1/2+z
1/2+x,1/2-y,1/2-z
1/2-x,1/2+y,1/2-z
1/2-x,1/2-y,1/2-z
1/2+x,1/2+y,1/2-z
1/2-x,1/2+y,1/2+z
1/2+x,1/2-y,1/2+z
loop_
_atom_site_type_symbol
_atom_site_label
_atom_site_fract_x
_atom_site_fract_y
_atom_site_fract_z
Si Si1 0.750273 0.445978 0.782904
Si Si2 0.832696 0.868618 0.720498
Si Si3 0.565734 0.000000 0.778694
Si Si4 0.374345 0.904621 0.782879
Si Si5 0.934396 0.799846 0.278975
Si Si6 0.727844 0.197842 0.714011
Si Si7 0.401732 0.805338 0.797569
O O1 0.758246 0.500000 0.713607
O O2 0.691306 0.420228 0.721078
O O3 0.806307 0.413140 0.747549
O O4 0.746797 0.448840 0.000000
O O5 0.836254 0.869837 0.500000
O O6 0.889774 0.840697 0.781593
O O7 0.779363 0.835503 0.772919
O O8 0.596896 0.952671 0.715370
O O9 0.500000 0.000000 0.726913
O O10 0.568716 0.000000 0.000000
O O11 0.407092 0.857631 0.710664
O O12 0.381254 0.901848 0.000000
O O13 0.930139 0.798437 0.500000
O O14 0.919353 0.745768 0.217040
O O15 0.000000 0.810465 0.230808
O O16 0.718091 0.189717 0.500000
O O17 0.750000 0.250000 0.750000
O O18 0.667174 0.194624 0.808838
O O19 0.427498 0.806228 0.000000
#
# Coordination Sequence:
#
# PCOD9518854 Si02
#       7
#    16  16   8  16  16  16  16
#     4  10  19  31  49  72  98 126 157 197 247 299
#     4   9  17  29  46  70  96 123 157 194 238 290
#     4   9  18  32  47  65  95 135 168 201 248 286
#     4  10  19  30  48  72  99 125 159 206 241 280
#     4   9  17  30  48  69  96 129 163 198 235 284
#     4  11  19  29  47  71 100 128 156 194 239 288
#     4  10  19  30  46  74 101 124 161 201 240 286
#
# _framework density 21.472445
#
# number of rings (size 3 to 8) (size 9 to 14) (size 15 to 20)
#    0.000    2.231    3.846    0.462    0.000    0.615 
#    0.000    3.077    0.000    1.846    0.000    5.385 
#    0.000    0.000    0.000    1.385    0.000    1.538 
#
# Total GULP energy -289881.697993 kJ/mol
# GULP energy per Si atom -5574.648038 kJ/mol
# Density = 2.142357 g / cm^3
# Si number density = 21.472445 Si / 1000 Ang^3
#
#
#
# Elastic Constant Matrix: (Units=GPa)
#
#
# Indices 1 2 3 4 5 6 
#
# 1 125.9931 42.0877 -0.0432 0.0000 0.0000 0.0000
# 2 42.0877 101.9048 -4.0707 0.0000 0.0000 0.0000
# 3 -0.0432 -4.0707 80.3771 0.0000 0.0000 0.0000
# 4 0.0000 0.0000 0.0000 -8.2127 0.0000 0.0000
# 5 0.0000 0.0000 0.0000 0.0000 9.3466 0.0000
# 6 0.0000 0.0000 0.0000 0.0000 0.0000 19.3282
#
#
#
# Elastic Compliance Matrix: (Units=1/GPa)
#
#
# Indices 1 2 3 4 5 6 
#
# 1 0.009210 -0.003811 -0.000188 0.000000 0.000000 0.000000
# 2 -0.003811 0.011410 0.000576 0.000000 0.000000 0.000000
# 3 -0.000188 0.000576 0.012470 0.000000 0.000000 0.000000
# 4 0.000000 0.000000 0.000000 -0.121763 0.000000 0.000000
# 5 0.000000 0.000000 0.000000 0.000000 0.106991 0.000000
# 6 0.000000 0.000000 0.000000 0.000000 0.000000 0.051738
#
#
# Mechanical properties :
#
#
# Convention : Reuss Voigt Hill
#
# Bulk Modulus (GPa) = 38.10472 42.69138 40.39805
# Shear Modulus (GPa) = 58.37634 22.11252 40.24443
#
# Velocity S-wave (km/s) = 5.21974 3.21255 4.33394
# Velocity P-wave (km/s) = 7.35608 5.80394 6.62562
#
# Compressibility (1/GPa) = 0.02624347
#
# Stress axis : x y z
#
# Youngs Moduli (GPa) = 108.57699 87.64081 80.18980
#
# Poissons Ratio (x) = 0.33403 0.01508
# Poissons Ratio (y) = 0.41383 -0.04618
# Poissons Ratio (z) = 0.02042 -0.05047
#
# Static dielectric constant tensor:
#      x y z
#    x 1.757700 0.000000 0.000000 
#    y 0.000000 1.886360 0.000000 
#    z 0.000000 0.000000 1.852190 
# 
# From -- ./inp_files/13279.got.cif
#   From: 2010.05.17/outbox.cif.g08.bks.cpg/sg71_7_cif.got.tgz:13279.got - 2010.06.03 16:22:01.
