data_PCOD9518147
_publ_section_title
;
Structure prediction by ZEFSAII (Michael W. Deem and Ramdas Pophale) SiO2 
 PCOD9518147
Probable space group: I M M M
;
_chemical_formula_sum "Si O2"
_cell_formula_units_Z 88
_cell_length_a 22.796709
_cell_length_b 22.137030
_cell_length_c 9.974777
_cell_angle_alpha 90.000000
_cell_angle_beta 90.000000
_cell_angle_gamma 90.000000
_cell_volume 5033.785487
_symmetry_space_group_name_H-M "I M M M"
_symmetry_group_IT_number 71
_symmetry_cell_setting 'orthorhombic'
loop_
_space_group_symop_operation_xyz
x,y,z
-x,-y,z
x,-y,-z
-x,y,-z
-x,-y,-z
x,y,-z
-x,y,z
x,-y,z
1/2+x,1/2+y,1/2+z
1/2-x,1/2-y,1/2+z
1/2+x,1/2-y,1/2-z
1/2-x,1/2+y,1/2-z
1/2-x,1/2-y,1/2-z
1/2+x,1/2+y,1/2-z
1/2-x,1/2+y,1/2+z
1/2+x,1/2-y,1/2+z
loop_
_atom_site_type_symbol
_atom_site_label
_atom_site_fract_x
_atom_site_fract_y
_atom_site_fract_z
Si Si1 0.430074 0.070522 0.500000
Si Si2 0.751054 0.812668 0.335989
Si Si3 0.871591 0.362403 0.245380
Si Si4 0.375209 0.624915 0.838493
Si Si5 0.931133 0.000000 0.664188
Si Si6 0.931977 0.246743 0.342551
Si Si7 0.570596 0.927042 0.000000
O O1 0.500000 0.075787 0.500000
O O2 0.402944 0.103287 0.373778
O O3 0.414951 0.000000 0.500000
O O4 0.747923 0.802355 0.500000
O O5 0.750000 0.750000 0.250000
O O6 0.696841 0.853916 0.286711
O O7 0.810920 0.849285 0.306058
O O8 0.894897 0.294245 0.260246
O O9 0.894980 0.398264 0.374923
O O10 0.397185 0.560155 0.788633
O O11 0.419783 0.678340 0.800454
O O12 0.376633 0.620331 0.000000
O O13 0.930615 0.000000 0.500000
O O14 0.000000 0.000000 0.702335
O O15 0.914898 0.252080 0.500000
O O16 0.000000 0.261746 0.331820
O O17 0.500000 0.911398 0.000000
O O18 0.573773 0.000000 0.000000
#
# Coordination Sequence:
#
# PCOD9518147 Si02
#       7
#     8  16  16  16   8  16   8
#     4  11  24  42  59  82 120 159 196 251 319 373
#     4  11  23  40  60  85 122 162 202 252 310 372
#     4  12  22  38  59  88 117 155 205 253 307 371
#     4   9  18  32  51  79 113 156 191 232 297 355
#     4   9  16  30  52  82 119 153 188 237 295 357
#     4  10  18  30  53  83 111 143 196 253 301 353
#     4  11  24  42  63  88 118 159 210 255 309 377
#
# _framework density 17.481873
#
# number of rings (size 3 to 8) (size 9 to 14) (size 15 to 20)
#    0.000    1.545    3.636    2.727    1.273    3.636 
#    3.273    0.000    0.000    0.000    0.000    0.000 
#    0.000    0.727    0.000    0.000    0.000    0.000 
#
# Total GULP energy -245298.979186 kJ/mol
# GULP energy per Si atom -5574.976800 kJ/mol
# Density = 1.744208 g / cm^3
# Si number density = 17.481873 Si / 1000 Ang^3
#
#
#
# Elastic Constant Matrix: (Units=GPa)
#
#
# Indices 1 2 3 4 5 6 
#
# 1 89.0027 49.4828 27.9980 0.0000 0.0000 0.0000
# 2 49.4828 105.3079 18.4087 0.0000 0.0000 0.0000
# 3 27.9980 18.4087 79.5847 0.0000 0.0000 0.0000
# 4 0.0000 0.0000 0.0000 -2.9112 0.0000 0.0000
# 5 0.0000 0.0000 0.0000 0.0000 21.6266 0.0000
# 6 0.0000 0.0000 0.0000 0.0000 0.0000 14.9518
#
#
#
# Elastic Compliance Matrix: (Units=1/GPa)
#
#
# Indices 1 2 3 4 5 6 
#
# 1 0.016434 -0.006994 -0.004164 0.000000 0.000000 0.000000
# 2 -0.006994 0.012873 -0.000517 0.000000 0.000000 0.000000
# 3 -0.004164 -0.000517 0.014150 0.000000 0.000000 0.000000
# 4 0.000000 0.000000 0.000000 -0.343499 0.000000 0.000000
# 5 0.000000 0.000000 0.000000 0.000000 0.046239 0.000000
# 6 0.000000 0.000000 0.000000 0.000000 0.000000 0.066882
#
#
# Mechanical properties :
#
#
# Convention : Reuss Voigt Hill
#
# Bulk Modulus (GPa) = 49.73505 51.74160 50.73832
# Shear Modulus (GPa) = -31.87358 18.60049 -6.63654
#
# Velocity S-wave (km/s) = -4.27457 3.26542 -1.95051
# Velocity P-wave (km/s) = 2.03683 6.62411 4.90038
#
# Compressibility (1/GPa) = 0.02010654
#
# Stress axis : x y z
#
# Youngs Moduli (GPa) = 60.84951 77.68287 70.67339
#
# Poissons Ratio (x) = 0.54333 0.29426
# Poissons Ratio (y) = 0.42560 0.03654
# Poissons Ratio (z) = 0.25336 0.04016
#
# Static dielectric constant tensor:
#      x y z
#    x 1.600770 0.000000 0.000000 
#    y 0.000000 1.599520 0.000000 
#    z 0.000000 0.000000 1.561450 
# 
# From -- ./inp_files/10571.got.cif
#   From: 2010.05.17/outbox.cif.g08.bks.cpg/sg71_6_cif.got.tgz:10571.got - 2010.06.03 16:22:01.
