data_PCOD9518021
_publ_section_title
;
Structure prediction by ZEFSAII (Michael W. Deem and Ramdas Pophale) SiO2 
 PCOD9518021
Probable space group: I M M M
;
_chemical_formula_sum "Si O2"
_cell_formula_units_Z 104
_cell_length_a 12.946277
_cell_length_b 26.551748
_cell_length_c 19.262678
_cell_angle_alpha 90.000000
_cell_angle_beta 90.000000
_cell_angle_gamma 90.000000
_cell_volume 6621.473991
_symmetry_space_group_name_H-M "I M M M"
_symmetry_group_IT_number 71
_symmetry_cell_setting 'orthorhombic'
loop_
_space_group_symop_operation_xyz
x,y,z
-x,-y,z
x,-y,-z
-x,y,-z
-x,-y,-z
x,y,-z
-x,y,z
x,-y,z
1/2+x,1/2+y,1/2+z
1/2-x,1/2-y,1/2+z
1/2+x,1/2-y,1/2-z
1/2-x,1/2+y,1/2-z
1/2-x,1/2-y,1/2-z
1/2+x,1/2+y,1/2-z
1/2-x,1/2+y,1/2+z
1/2+x,1/2-y,1/2+z
loop_
_atom_site_type_symbol
_atom_site_label
_atom_site_fract_x
_atom_site_fract_y
_atom_site_fract_z
Si Si1 0.623019 0.940813 0.797348
Si Si2 0.880519 0.847102 0.582675
Si Si3 0.813456 0.610535 0.838239
Si Si4 0.875559 0.632173 0.422450
Si Si5 0.500000 0.941703 0.582935
Si Si6 0.677858 0.238521 0.142142
Si Si7 0.883913 0.723185 0.800317
O O1 0.500000 0.930780 0.782955
O O2 0.686926 0.923825 0.730204
O O3 0.655200 0.907499 0.863324
O O4 0.633134 0.000000 0.810807
O O5 0.864257 0.852244 0.500000
O O6 0.795792 0.879591 0.624469
O O7 0.861767 0.788804 0.604357
O O8 0.000000 0.860017 0.598243
O O9 0.855195 0.665006 0.813479
O O10 0.898246 0.586040 0.888825
O O11 0.838004 0.620174 0.500000
O O12 0.843987 0.688273 0.400333
O O13 0.000000 0.631012 0.423797
O O14 0.500000 0.941124 0.500000
O O15 0.500000 0.000000 0.607282
O O16 0.799084 0.245010 0.158445
O O17 0.626569 0.234003 0.218314
O O18 0.000000 0.733015 0.823143
#
# Coordination Sequence:
#
# PCOD9518021 Si02
#       7
#    16  16  16  16   8  16  16
#     4  10  19  32  52  76 102 132 167 210 261 307
#     4  10  21  35  51  74 105 139 173 210 252 302
#     4  11  19  33  54  75 101 136 171 209 257 307
#     4  10  19  31  49  73 103 136 170 208 249 302
#     4  11  22  34  52  78 103 131 171 217 259 307
#     4  10  19  29  49  74 102 138 174 206 246 302
#     4  10  18  30  48  74 103 134 169 210 252 300
#
# _framework density 15.706472
#
# number of rings (size 3 to 8) (size 9 to 14) (size 15 to 20)
#    0.000    1.769    3.077    2.769    0.000    1.538 
#    0.000    1.538    0.000    1.846    0.000    5.385 
#    0.000    0.000    0.000    2.769    0.000    0.308 
#
# Total GULP energy -290110.316114 kJ/mol
# GULP energy per Si atom -5579.044541 kJ/mol
# Density = 1.567072 g / cm^3
# Si number density = 15.706472 Si / 1000 Ang^3
#
#
#
# Elastic Constant Matrix: (Units=GPa)
#
#
# Indices 1 2 3 4 5 6 
#
# 1 96.2610 27.1011 37.9339 0.0000 0.0000 0.0000
# 2 27.1011 71.5876 37.1073 0.0000 0.0000 0.0000
# 3 37.9339 37.1073 87.3537 0.0000 0.0000 0.0000
# 4 0.0000 0.0000 0.0000 13.1164 0.0000 0.0000
# 5 0.0000 0.0000 0.0000 0.0000 17.4824 0.0000
# 6 0.0000 0.0000 0.0000 0.0000 0.0000 21.9574
#
#
#
# Elastic Compliance Matrix: (Units=1/GPa)
#
#
# Indices 1 2 3 4 5 6 
#
# 1 0.012882 -0.002535 -0.004517 0.000000 0.000000 0.000000
# 2 -0.002535 0.018412 -0.006720 0.000000 0.000000 0.000000
# 3 -0.004517 -0.006720 0.016264 0.000000 0.000000 0.000000
# 4 0.000000 0.000000 0.000000 0.076240 0.000000 0.000000
# 5 0.000000 0.000000 0.000000 0.000000 0.057200 0.000000
# 6 0.000000 0.000000 0.000000 0.000000 0.000000 0.045543
#
#
# Mechanical properties :
#
#
# Convention : Reuss Voigt Hill
#
# Bulk Modulus (GPa) = 49.96831 51.05409 50.51120
# Shear Modulus (GPa) = 19.17479 20.71524 19.94501
#
# Velocity S-wave (km/s) = 3.49781 3.63560 3.56737
# Velocity P-wave (km/s) = 6.94232 7.08514 7.01409
#
# Compressibility (1/GPa) = 0.02001269
#
# Stress axis : x y z
#
# Youngs Moduli (GPa) = 77.62563 54.31170 61.48499
#
# Poissons Ratio (x) = 0.13770 0.27774
# Poissons Ratio (y) = 0.19681 0.41320
# Poissons Ratio (z) = 0.35065 0.36500
#
# Static dielectric constant tensor:
#      x y z
#    x 1.515650 0.000000 0.000000 
#    y 0.000000 1.510050 0.000000 
#    z 0.000000 0.000000 1.532050 
# 
# From -- ./inp_files/24568.got.cif
#   From: 2010.05.17/outbox.cif.g08.bks.cpg/sg71_13_cif.got.tgz:24568.got - 2010.06.03 16:22:01.
