data_PCOD9518692
_publ_section_title
;
Structure prediction by ZEFSAII (Michael W. Deem and Ramdas Pophale) SiO2 
 PCOD9518692
Probable space group: I M M M
;
_chemical_formula_sum "Si O2"
_cell_formula_units_Z 104
_cell_length_a 28.445113
_cell_length_b 17.603194
_cell_length_c 12.858446
_cell_angle_alpha 90.000000
_cell_angle_beta 90.000000
_cell_angle_gamma 90.000000
_cell_volume 6438.543348
_symmetry_space_group_name_H-M "I M M M"
_symmetry_group_IT_number 71
_symmetry_cell_setting 'orthorhombic'
loop_
_space_group_symop_operation_xyz
x,y,z
-x,-y,z
x,-y,-z
-x,y,-z
-x,-y,-z
x,y,-z
-x,y,z
x,-y,z
1/2+x,1/2+y,1/2+z
1/2-x,1/2-y,1/2+z
1/2+x,1/2-y,1/2-z
1/2-x,1/2+y,1/2-z
1/2-x,1/2-y,1/2-z
1/2+x,1/2+y,1/2-z
1/2-x,1/2+y,1/2+z
1/2+x,1/2-y,1/2+z
loop_
_atom_site_type_symbol
_atom_site_label
_atom_site_fract_x
_atom_site_fract_y
_atom_site_fract_z
Si Si1 0.797358 0.917367 0.118061
Si Si2 0.723882 0.865965 0.725980
Si Si3 0.371665 0.303184 0.711245
Si Si4 0.126724 0.367710 0.874661
Si Si5 0.802555 0.227650 0.620740
Si Si6 0.555917 0.411735 0.620245
Si Si7 0.054416 0.500000 0.126111
O O1 0.755526 0.918010 0.200828
O O2 0.831040 0.847276 0.145943
O O3 0.821935 0.000000 0.123788
O O4 0.780224 0.908127 0.000000
O O5 0.676675 0.895282 0.672239
O O6 0.759488 0.830170 0.641367
O O7 0.709178 0.799219 0.806126
O O8 0.379446 0.218175 0.668309
O O9 0.350632 0.302738 0.827488
O O10 0.417205 0.354066 0.693869
O O11 0.084750 0.425274 0.844373
O O12 0.129270 0.365360 0.000000
O O13 0.806563 0.245436 0.500000
O O14 0.571114 0.398387 0.500000
O O15 0.500000 0.400678 0.624058
O O16 0.565101 0.500000 0.644600
O O17 0.000000 0.500000 0.162462
O O18 0.052874 0.500000 0.000000
#
# Coordination Sequence:
#
# PCOD9518692 Si02
#       7
#    16  16  16  16  16  16   8
#     4  10  19  29  44  68 101 133 158 192 232 280
#     4   9  18  28  46  69  91 126 161 195 233 282
#     4  10  19  30  48  72  95 128 162 194 238 292
#     4  10  19  31  49  70  93 124 157 194 237 287
#     4   9  17  30  46  67  97 126 159 202 239 276
#     4   9  17  29  47  72 100 126 154 195 244 291
#     4   9  20  36  50  68  95 125 155 195 247 290
#
# _framework density 16.152722000000001
#
# number of rings (size 3 to 8) (size 9 to 14) (size 15 to 20)
#    0.000    2.538    0.000    4.154    1.077    1.846 
#    0.000    1.538    0.000    8.769    0.000    1.077 
#    0.000   17.231    0.000    0.000    0.000    0.000 
#
# Total GULP energy -289626.565912 kJ/mol
# GULP energy per Si atom -5569.741652 kJ/mol
# Density = 1.611596 g / cm^3
# Si number density = 16.152722 Si / 1000 Ang^3
#
#
#
# Elastic Constant Matrix: (Units=GPa)
#
#
# Indices 1 2 3 4 5 6 
#
# 1 101.4179 48.0037 29.7088 0.0000 0.0000 0.0000
# 2 48.0037 85.1700 17.9050 0.0000 0.0000 0.0000
# 3 29.7088 17.9050 71.7246 0.0000 0.0000 0.0000
# 4 0.0000 0.0000 0.0000 15.4006 0.0000 0.0000
# 5 0.0000 0.0000 0.0000 0.0000 16.7402 0.0000
# 6 0.0000 0.0000 0.0000 0.0000 0.0000 42.9473
#
#
#
# Elastic Compliance Matrix: (Units=1/GPa)
#
#
# Indices 1 2 3 4 5 6 
#
# 1 0.014556 -0.007321 -0.004202 0.000000 0.000000 0.000000
# 2 -0.007321 0.016073 -0.000980 0.000000 0.000000 0.000000
# 3 -0.004202 -0.000980 0.015927 0.000000 0.000000 0.000000
# 4 0.000000 0.000000 0.000000 0.064933 0.000000 0.000000
# 5 0.000000 0.000000 0.000000 0.000000 0.059736 0.000000
# 6 0.000000 0.000000 0.000000 0.000000 0.000000 0.023284
#
#
# Mechanical properties :
#
#
# Convention : Reuss Voigt Hill
#
# Bulk Modulus (GPa) = 46.40060 49.94973 48.17516
# Shear Modulus (GPa) = 22.05562 25.86396 23.95979
#
# Velocity S-wave (km/s) = 3.69920 4.00586 3.85558
# Velocity P-wave (km/s) = 6.85813 7.23785 7.05055
#
# Compressibility (1/GPa) = 0.02155145
#
# Stress axis : x y z
#
# Youngs Moduli (GPa) = 68.69937 62.21430 62.78535
#
# Poissons Ratio (x) = 0.45546 0.26381
# Poissons Ratio (y) = 0.50294 0.06154
# Poissons Ratio (z) = 0.28866 0.06098
#
# Static dielectric constant tensor:
#      x y z
#    x 1.565950 0.000000 0.000000 
#    y 0.000000 1.583510 0.000000 
#    z 0.000000 0.000000 1.515050 
# 
# From -- ./inp_files/30179.got.cif
#   From: 2010.05.17/outbox.cif.g08.bks.cpg/sg71_16_cif.got.tgz:30179.got - 2010.06.03 16:22:01.
