data_PCOD9518841
_publ_section_title
;
Structure prediction by ZEFSAII (Michael W. Deem and Ramdas Pophale) SiO2 
 PCOD9518841
Probable space group: I M M M
;
_chemical_formula_sum "Si O2"
_cell_formula_units_Z 80
_cell_length_a 7.639314
_cell_length_b 27.489018
_cell_length_c 19.413735
_cell_angle_alpha 90.000000
_cell_angle_beta 90.000000
_cell_angle_gamma 90.000000
_cell_volume 4076.830769
_symmetry_space_group_name_H-M "I M M M"
_symmetry_group_IT_number 71
_symmetry_cell_setting 'orthorhombic'
loop_
_space_group_symop_operation_xyz
x,y,z
-x,-y,z
x,-y,-z
-x,y,-z
-x,-y,-z
x,y,-z
-x,y,z
x,-y,z
1/2+x,1/2+y,1/2+z
1/2-x,1/2-y,1/2+z
1/2+x,1/2-y,1/2-z
1/2-x,1/2+y,1/2-z
1/2-x,1/2-y,1/2-z
1/2+x,1/2+y,1/2-z
1/2-x,1/2+y,1/2+z
1/2+x,1/2-y,1/2+z
loop_
_atom_site_type_symbol
_atom_site_label
_atom_site_fract_x
_atom_site_fract_y
_atom_site_fract_z
Si Si1 0.710926 0.054619 0.421307
Si Si2 0.213718 0.446278 0.580208
Si Si3 0.292566 0.644067 0.177399
Si Si4 0.705874 0.854446 0.836865
Si Si5 0.290165 0.250929 0.831567
O O1 0.770915 0.063690 0.500000
O O2 0.500000 0.053381 0.422656
O O3 0.760582 0.097634 0.370058
O O4 0.770422 0.000000 0.401101
O O5 0.259987 0.440604 0.500000
O O6 0.271512 0.500000 0.603630
O O7 0.280454 0.401225 0.624614
O O8 0.000000 0.446563 0.583587
O O9 0.500000 0.649301 0.186392
O O10 0.218774 0.638904 0.254474
O O11 0.226943 0.695641 0.145437
O O12 0.500000 0.852927 0.854185
O O13 0.779933 0.801200 0.857062
O O14 0.500000 0.249659 0.841612
O O15 0.250000 0.250000 0.750000
#
# Coordination Sequence:
#
# PCOD9518841 Si02
#       5
#    16  16  16  16  16
#     4   9  19  36  54  69  88 118 155 191 228 276
#     4   8  14  25  42  65  90 114 145 188 231 263
#     4  10  19  30  46  70  97 121 148 187 233 277
#     4   9  16  28  47  68  91 123 160 193 224 264
#     4   8  15  27  42  63  91 122 153 183 221 267
#
# _framework density 19.623086000000001
#
# number of rings (size 3 to 8) (size 9 to 14) (size 15 to 20)
#    0.000    3.200    0.000    1.800    0.000    2.400 
#    0.000    4.000    0.000    4.200    0.000    1.400 
#    0.000    0.000    0.000    0.000    0.000    0.000 
#
# Total GULP energy -222685.117176 kJ/mol
# GULP energy per Si atom -5567.127929 kJ/mol
# Density = 1.957842 g / cm^3
# Si number density = 19.623086 Si / 1000 Ang^3
#
#
#
# Elastic Constant Matrix: (Units=GPa)
#
#
# Indices 1 2 3 4 5 6 
#
# 1 36.6421 1.6345 -7.0917 0.0000 0.0000 0.0000
# 2 1.6345 249.0656 81.9538 0.0000 0.0000 0.0000
# 3 -7.0917 81.9538 40.4580 0.0000 0.0000 0.0000
# 4 0.0000 0.0000 0.0000 -42.7258 0.0000 0.0000
# 5 0.0000 0.0000 0.0000 0.0000 -9.0338 0.0000
# 6 0.0000 0.0000 0.0000 0.0000 0.0000 10.0813
#
#
#
# Elastic Compliance Matrix: (Units=1/GPa)
#
#
# Indices 1 2 3 4 5 6 
#
# 1 0.030944 -0.005961 0.017499 0.000000 0.000000 0.000000
# 2 -0.005961 0.013188 -0.027760 0.000000 0.000000 0.000000
# 3 0.017499 -0.027760 0.084016 0.000000 0.000000 0.000000
# 4 0.000000 0.000000 0.000000 -0.023405 0.000000 0.000000
# 5 0.000000 0.000000 0.000000 0.000000 -0.110696 0.000000
# 6 0.000000 0.000000 0.000000 0.000000 0.000000 0.099193
#
#
# Mechanical properties :
#
#
# Convention : Reuss Voigt Hill
#
# Bulk Modulus (GPa) = 10.44887 53.23987 31.84437
# Shear Modulus (GPa) = 31.72856 8.30895 20.01875
#
# Velocity S-wave (km/s) = 4.02543 2.05997 3.19746
# Velocity P-wave (km/s) = 5.19055 5.73133 5.46763
#
# Compressibility (1/GPa) = 0.09570416
#
# Stress axis : x y z
#
# Youngs Moduli (GPa) = 32.31679 75.82416 11.90245
#
# Poissons Ratio (x) = 0.45199 -0.20828
# Poissons Ratio (y) = 0.19264 0.33041
# Poissons Ratio (z) = -0.56551 2.10488
#
# Static dielectric constant tensor:
#      x y z
#    x 1.738860 0.000000 0.000000 
#    y 0.000000 1.763860 0.000000 
#    z 0.000000 0.000000 1.633690 
# 
# From -- ./inp_files/8346.got.cif
#   From: 2010.05.17/outbox.cif.g08.bks.cpg/sg71_5_cif.got.tgz:8346.got - 2010.06.03 16:22:01.
