data_PCOD9518345
_publ_section_title
;
Structure prediction by ZEFSAII (Michael W. Deem and Ramdas Pophale) SiO2 
 PCOD9518345
Probable space group: I M M M
;
_chemical_formula_sum "Si O2"
_cell_formula_units_Z 104
_cell_length_a 17.958352
_cell_length_b 14.479648
_cell_length_c 17.327259
_cell_angle_alpha 90.000000
_cell_angle_beta 90.000000
_cell_angle_gamma 90.000000
_cell_volume 4505.617825
_symmetry_space_group_name_H-M "I M M M"
_symmetry_group_IT_number 71
_symmetry_cell_setting 'orthorhombic'
loop_
_space_group_symop_operation_xyz
x,y,z
-x,-y,z
x,-y,-z
-x,y,-z
-x,-y,-z
x,y,-z
-x,y,z
x,-y,z
1/2+x,1/2+y,1/2+z
1/2-x,1/2-y,1/2+z
1/2+x,1/2-y,1/2-z
1/2-x,1/2+y,1/2-z
1/2-x,1/2-y,1/2-z
1/2+x,1/2+y,1/2-z
1/2-x,1/2+y,1/2+z
1/2+x,1/2-y,1/2+z
loop_
_atom_site_type_symbol
_atom_site_label
_atom_site_fract_x
_atom_site_fract_y
_atom_site_fract_z
Si Si1 0.415029 0.363824 0.295957
Si Si2 0.303987 0.860977 0.362027
Si Si3 0.636855 0.400669 0.877553
Si Si4 0.082626 0.609411 0.000000
Si Si5 0.788650 0.841272 0.909290
Si Si6 0.078643 0.353095 0.246812
Si Si7 0.381320 0.816142 0.084130
O O1 0.500000 0.393496 0.312122
O O2 0.387982 0.396623 0.211910
O O3 0.354527 0.390157 0.361437
O O4 0.419108 0.252214 0.285249
O O5 0.226338 0.906094 0.382581
O O6 0.367525 0.867653 0.426499
O O7 0.282869 0.753949 0.361390
O O8 0.345016 0.894348 0.285457
O O9 0.607466 0.500000 0.908757
O O10 0.619225 0.297945 0.911060
O O11 0.074589 0.500000 0.000000
O O12 0.000000 0.652279 0.000000
O O13 0.701053 0.863736 0.912237
O O14 0.810473 0.829877 0.000000
O O15 0.079741 0.348770 0.338528
O O16 0.000000 0.394030 0.219447
O O17 0.412247 0.839055 0.000000
#
# Coordination Sequence:
#
# PCOD9518345 Si02
#       7
#    16  16  16   8  16  16  16
#     4   9  18  31  47  70  96 124 165 215 256 295
#     4  10  18  32  48  72  98 133 170 205 237 292
#     4  10  20  32  49  69  95 137 178 205 236 292
#     4  11  22  32  44  70 111 145 166 198 241 288
#     4   9  16  29  48  73  97 124 155 201 260 302
#     4   9  17  30  49  70  96 130 164 205 257 302
#     4   9  18  31  48  73 104 130 163 209 253 295
#
# _framework density 23.082294999999998
#
# number of rings (size 3 to 8) (size 9 to 14) (size 15 to 20)
#    0.000    2.538    0.769    1.846    1.077    5.538 
#    0.000    0.000    0.000    0.462    0.000    5.385 
#    0.000    1.846    0.000   12.462    0.000    1.538 
#
# Total GULP energy -289542.591614 kJ/mol
# GULP energy per Si atom -5568.126762 kJ/mol
# Density = 2.302976 g / cm^3
# Si number density = 23.082295 Si / 1000 Ang^3
#
#
#
# Elastic Constant Matrix: (Units=GPa)
#
#
# Indices 1 2 3 4 5 6 
#
# 1 93.3339 -7.2355 23.0938 0.0000 0.0000 0.0000
# 2 -7.2355 44.2603 -14.1772 0.0000 0.0000 0.0000
# 3 23.0938 -14.1772 110.7497 0.0000 0.0000 0.0000
# 4 0.0000 0.0000 0.0000 7.2519 0.0000 0.0000
# 5 0.0000 0.0000 0.0000 0.0000 21.7359 0.0000
# 6 0.0000 0.0000 0.0000 0.0000 0.0000 1.9355
#
#
#
# Elastic Compliance Matrix: (Units=1/GPa)
#
#
# Indices 1 2 3 4 5 6 
#
# 1 0.011352 0.001145 -0.002221 0.000000 0.000000 0.000000
# 2 0.001145 0.023675 0.002792 0.000000 0.000000 0.000000
# 3 -0.002221 0.002792 0.009850 0.000000 0.000000 0.000000
# 4 0.000000 0.000000 0.000000 0.137896 0.000000 0.000000
# 5 0.000000 0.000000 0.000000 0.000000 0.046007 0.000000
# 6 0.000000 0.000000 0.000000 0.000000 0.000000 0.516651
#
#
# Mechanical properties :
#
#
# Convention : Reuss Voigt Hill
#
# Bulk Modulus (GPa) = 20.70010 27.96732 24.33371
# Shear Modulus (GPa) = 6.59541 22.62885 14.61213
#
# Velocity S-wave (km/s) = 1.69220 3.13446 2.51877
# Velocity P-wave (km/s) = 3.57848 5.02419 4.36165
#
# Compressibility (1/GPa) = 0.04830895
#
# Stress axis : x y z
#
# Youngs Moduli (GPa) = 88.08691 42.23861 101.52443
#
# Poissons Ratio (x) = -0.04834 0.22546
# Poissons Ratio (y) = -0.10082 -0.28346
# Poissons Ratio (z) = 0.19562 -0.11793
#
# Static dielectric constant tensor:
#      x y z
#    x 1.922040 0.000000 0.000000 
#    y 0.000000 1.838980 0.000000 
#    z 0.000000 0.000000 1.852190 
# 
# From -- ./inp_files/46157.got.cif
#   From: 2010.05.17/outbox.cif.g08.bks.cpg/sg71_24_cif.got.tgz:46157.got - 2010.06.03 16:22:01.
