data_PCOD9518310
_publ_section_title
;
Structure prediction by ZEFSAII (Michael W. Deem and Ramdas Pophale) SiO2 
 PCOD9518310
Probable space group: I M M M
;
_chemical_formula_sum "Si O2"
_cell_formula_units_Z 80
_cell_length_a 25.750259
_cell_length_b 19.088946
_cell_length_c 7.859408
_cell_angle_alpha 90.000000
_cell_angle_beta 90.000000
_cell_angle_gamma 90.000000
_cell_volume 3863.255091
_symmetry_space_group_name_H-M "I M M M"
_symmetry_group_IT_number 71
_symmetry_cell_setting 'orthorhombic'
loop_
_space_group_symop_operation_xyz
x,y,z
-x,-y,z
x,-y,-z
-x,y,-z
-x,-y,-z
x,y,-z
-x,y,z
x,-y,z
1/2+x,1/2+y,1/2+z
1/2-x,1/2-y,1/2+z
1/2+x,1/2-y,1/2-z
1/2-x,1/2+y,1/2-z
1/2-x,1/2-y,1/2-z
1/2+x,1/2+y,1/2-z
1/2-x,1/2+y,1/2+z
1/2+x,1/2-y,1/2+z
loop_
_atom_site_type_symbol
_atom_site_label
_atom_site_fract_x
_atom_site_fract_y
_atom_site_fract_z
Si Si1 0.903908 0.327888 0.206343
Si Si2 0.717607 0.320569 0.794752
Si Si3 0.900058 0.170859 0.697139
Si Si4 0.693132 0.920241 0.707653
Si Si5 0.500000 0.921686 0.707500
Si Si6 0.000000 0.079149 0.200829
O O1 0.914909 0.251979 0.280391
O O2 0.850485 0.364464 0.261615
O O3 0.949197 0.380166 0.257476
O O4 0.903085 0.321395 0.000000
O O5 0.750000 0.250000 0.750000
O O6 0.658783 0.329067 0.726693
O O7 0.752069 0.387102 0.741881
O O8 0.714749 0.319605 0.000000
O O9 0.894162 0.153067 0.500000
O O10 0.947216 0.122083 0.758408
O O11 0.691035 0.921885 0.500000
O O12 0.684669 0.000000 0.765655
O O13 0.500000 0.924147 0.500000
O O14 0.500000 0.000000 0.772031
O O15 0.000000 0.000000 0.276091
O O16 0.000000 0.072108 0.000000
#
# Coordination Sequence:
#
# PCOD9518310 Si02
#       6
#    16  16  16  16   8   8
#     4  10  18  31  54  80 111 152 194 240 287 344
#     4  10  20  35  57  85 118 158 200 248 297 354
#     4  11  23  38  61  90 120 157 196 243 303 362
#     4   9  17  30  51  80 112 150 197 246 293 342
#     4   9  17  28  46  76 106 135 182 237 284 330
#     4  11  26  47  68  90 118 155 202 257 314 372
#
# _framework density 20.707927000000002
#
# number of rings (size 3 to 8) (size 9 to 14) (size 15 to 20)
#    0.000    2.000    2.000    2.100    0.000    5.600 
#    0.000    2.000    0.000    4.800    0.000    0.000 
#    0.000    0.000    0.000    0.000    0.000    0.000 
#
# Total GULP energy -223156.005051 kJ/mol
# GULP energy per Si atom -5578.900126 kJ/mol
# Density = 2.066080 g / cm^3
# Si number density = 20.707927 Si / 1000 Ang^3
#
#
#
# Elastic Constant Matrix: (Units=GPa)
#
#
# Indices 1 2 3 4 5 6 
#
# 1 176.9697 87.5575 18.2629 0.0000 0.0000 0.0000
# 2 87.5575 158.0077 4.6357 0.0000 0.0000 0.0000
# 3 18.2629 4.6357 28.2091 0.0000 0.0000 0.0000
# 4 0.0000 0.0000 0.0000 0.5789 0.0000 0.0000
# 5 0.0000 0.0000 0.0000 0.0000 56.7551 0.0000
# 6 0.0000 0.0000 0.0000 0.0000 0.0000 50.4340
#
#
#
# Elastic Compliance Matrix: (Units=1/GPa)
#
#
# Indices 1 2 3 4 5 6 
#
# 1 0.008356 -0.004493 -0.004671 0.000000 0.000000 0.000000
# 2 -0.004493 0.008776 0.001467 0.000000 0.000000 0.000000
# 3 -0.004671 0.001467 0.038233 0.000000 0.000000 0.000000
# 4 0.000000 0.000000 0.000000 1.727391 0.000000 0.000000
# 5 0.000000 0.000000 0.000000 0.000000 0.017620 0.000000
# 6 0.000000 0.000000 0.000000 0.000000 0.000000 0.019828
#
#
# Mechanical properties :
#
#
# Convention : Reuss Voigt Hill
#
# Bulk Modulus (GPa) = 25.01944 64.89986 44.95965
# Shear Modulus (GPa) = 2.70428 38.40228 20.55328
#
# Velocity S-wave (km/s) = 1.14401 4.31103 3.15387
# Velocity P-wave (km/s) = 3.72200 7.49591 5.91785
#
# Compressibility (1/GPa) = 0.03996893
#
# Stress axis : x y z
#
# Youngs Moduli (GPa) = 119.67730 113.95232 26.15554
#
# Poissons Ratio (x) = 0.51201 0.12218
# Poissons Ratio (y) = 0.53773 -0.03837
# Poissons Ratio (z) = 0.55905 -0.16715
#
# Static dielectric constant tensor:
#      x y z
#    x 1.777140 0.000000 0.000000 
#    y 0.000000 1.714500 0.000000 
#    z 0.000000 0.000000 1.757920 
# 
# From -- ./inp_files/14591.got.cif
#   From: 2010.05.17/outbox.cif.g08.bks.cpg/sg71_8_cif.got.tgz:14591.got - 2010.06.03 16:22:01.
