data_PCOD9518547
_publ_section_title
;
Structure prediction by ZEFSAII (Michael W. Deem and Ramdas Pophale) SiO2 
 PCOD9518547
Probable space group: I M M M
;
_chemical_formula_sum "Si O2"
_cell_formula_units_Z 88
_cell_length_a 15.941046
_cell_length_b 27.877320
_cell_length_c 11.866811
_cell_angle_alpha 90.000000
_cell_angle_beta 90.000000
_cell_angle_gamma 90.000000
_cell_volume 5273.535341
_symmetry_space_group_name_H-M "I M M M"
_symmetry_group_IT_number 71
_symmetry_cell_setting 'orthorhombic'
loop_
_space_group_symop_operation_xyz
x,y,z
-x,-y,z
x,-y,-z
-x,y,-z
-x,-y,-z
x,y,-z
-x,y,z
x,-y,z
1/2+x,1/2+y,1/2+z
1/2-x,1/2-y,1/2+z
1/2+x,1/2-y,1/2-z
1/2-x,1/2+y,1/2-z
1/2-x,1/2-y,1/2-z
1/2+x,1/2+y,1/2-z
1/2-x,1/2+y,1/2+z
1/2+x,1/2-y,1/2+z
loop_
_atom_site_type_symbol
_atom_site_label
_atom_site_fract_x
_atom_site_fract_y
_atom_site_fract_z
Si Si1 0.174777 0.890752 0.363551
Si Si2 0.595980 0.071618 0.500000
Si Si3 0.404045 0.860435 0.865543
Si Si4 0.000000 0.943402 0.635375
Si Si5 0.098645 0.312411 0.000000
Si Si6 0.282238 0.198914 0.709570
Si Si7 0.674927 0.053225 0.261016
O O1 0.188024 0.896234 0.500000
O O2 0.207162 0.837064 0.331167
O O3 0.235405 0.923741 0.288276
O O4 0.081991 0.911041 0.337785
O O5 0.500000 0.058507 0.500000
O O6 0.603064 0.129496 0.500000
O O7 0.635281 0.053196 0.385487
O O8 0.500000 0.848580 0.831236
O O9 0.335818 0.825998 0.808672
O O10 0.380173 0.912512 0.817169
O O11 0.399145 0.859124 0.000000
O O12 0.000000 0.947852 0.500000
O O13 0.000000 0.000000 0.676613
O O14 0.151033 0.295932 0.108207
O O15 0.000000 0.299178 0.000000
O O16 0.250000 0.250000 0.750000
O O17 0.680915 0.000000 0.215286
#
# Coordination Sequence:
#
# PCOD9518547 Si02
#       7
#    16   8  16   8   8  16  16
#     4  10  18  35  52  78 112 144 181 228 278 331
#     4  11  19  30  51  78 112 140 172 222 269 319
#     4  10  22  39  55  76 110 148 184 221 266 330
#     4   9  18  30  52  80 113 149 179 221 283 343
#     4  11  20  39  62  83 110 144 186 233 285 339
#     4  11  22  37  61  82 111 143 187 234 289 335
#     4  11  20  31  52  80 110 145 183 222 270 321
#
# _framework density 16.687097999999999
#
# number of rings (size 3 to 8) (size 9 to 14) (size 15 to 20)
#    0.000    1.545    5.455    1.909    1.273    2.909 
#    3.273    0.909    0.000    0.000    0.000    5.727 
#    0.000   17.455    0.000    0.000    0.000    0.000 
#
# Total GULP energy -245193.125454 kJ/mol
# GULP energy per Si atom -5572.571033 kJ/mol
# Density = 1.664912 g / cm^3
# Si number density = 16.687098 Si / 1000 Ang^3
#
#
#
# Elastic Constant Matrix: (Units=GPa)
#
#
# Indices 1 2 3 4 5 6 
#
# 1 130.6059 57.8734 32.1615 -0.0001 0.0001 -0.0001
# 2 57.8734 129.8748 32.2495 0.0000 0.0000 -0.0001
# 3 32.1615 32.2495 61.5213 0.0006 -0.0008 -0.0004
# 4 -0.0001 0.0000 0.0006 15.9632 -0.0004 -0.0002
# 5 0.0001 0.0000 -0.0008 -0.0004 9.6485 0.0001
# 6 -0.0001 -0.0001 -0.0004 -0.0002 0.0001 -20.5830
#
#
#
# Elastic Compliance Matrix: (Units=1/GPa)
#
#
# Indices 1 2 3 4 5 6 
#
# 1 0.010111 -0.003671 -0.003361 0.000000 0.000000 0.000000
# 2 -0.003671 0.010185 -0.003420 0.000000 0.000000 0.000000
# 3 -0.003361 -0.003420 0.019804 -0.000001 0.000002 0.000000
# 4 0.000000 0.000000 -0.000001 0.062644 0.000002 -0.000001
# 5 0.000000 0.000000 0.000002 0.000002 0.103644 0.000000
# 6 0.000000 0.000000 0.000000 -0.000001 0.000000 -0.048584
#
#
# Mechanical properties :
#
#
# Convention : Reuss Voigt Hill
#
# Bulk Modulus (GPa) = 52.09445 62.95231 57.52338
# Shear Modulus (GPa) = 27.01143 14.32023 20.66583
#
# Velocity S-wave (km/s) = 4.02767 2.93262 3.52295
# Velocity P-wave (km/s) = 7.27432 7.01955 7.14807
#
# Compressibility (1/GPa) = 0.01919590
#
# Stress axis : x y z
#
# Youngs Moduli (GPa) = 98.90234 98.18676 50.49363
#
# Poissons Ratio (x) = 0.36043 0.16973
# Poissons Ratio (y) = 0.36306 0.17268
# Poissons Ratio (z) = 0.33246 0.33578
#
# Static dielectric constant tensor:
#      x y z
#    x 1.578940 0.000000 0.000000 
#    y 0.000000 1.584740 0.000000 
#    z 0.000000 0.000000 1.538700 
# 
# From -- ./inp_files/22333.got.cif
#   From: 2010.05.17/outbox.cif.g08.bks.cpg/sg71_12_cif.got.tgz:22333.got - 2010.06.03 16:22:01.
