data_PCOD9518211
_publ_section_title
;
Structure prediction by ZEFSAII (Michael W. Deem and Ramdas Pophale) SiO2 
 PCOD9518211
Probable space group: I M M M
;
_chemical_formula_sum "Si O2"
_cell_formula_units_Z 104
_cell_length_a 13.039401
_cell_length_b 23.433647
_cell_length_c 21.241922
_cell_angle_alpha 90.000000
_cell_angle_beta 90.000000
_cell_angle_gamma 90.000000
_cell_volume 6490.696983
_symmetry_space_group_name_H-M "I M M M"
_symmetry_group_IT_number 71
_symmetry_cell_setting 'orthorhombic'
loop_
_space_group_symop_operation_xyz
x,y,z
-x,-y,z
x,-y,-z
-x,y,-z
-x,-y,-z
x,y,-z
-x,y,z
x,-y,z
1/2+x,1/2+y,1/2+z
1/2-x,1/2-y,1/2+z
1/2+x,1/2-y,1/2-z
1/2-x,1/2+y,1/2-z
1/2-x,1/2-y,1/2-z
1/2+x,1/2+y,1/2-z
1/2-x,1/2+y,1/2+z
1/2+x,1/2-y,1/2+z
loop_
_atom_site_type_symbol
_atom_site_label
_atom_site_fract_x
_atom_site_fract_y
_atom_site_fract_z
Si Si1 0.883301 0.796747 0.730422
Si Si2 0.675549 0.649941 0.635310
Si Si3 0.304530 0.145909 0.333639
Si Si4 0.116250 0.432122 0.928829
Si Si5 0.500000 0.569382 0.423320
Si Si6 0.382575 0.162157 0.797854
Si Si7 0.620961 0.758639 0.570238
O O1 0.871094 0.818351 0.802412
O O2 0.805159 0.833545 0.689965
O O3 0.860690 0.729563 0.718102
O O4 0.000000 0.805670 0.711527
O O5 0.599867 0.600142 0.609493
O O6 0.792787 0.637893 0.657258
O O7 0.677637 0.699387 0.583191
O O8 0.306321 0.091938 0.378456
O O9 0.370246 0.134573 0.271053
O O10 0.351086 0.196137 0.376480
O O11 0.113318 0.500000 0.927259
O O12 0.000000 0.410968 0.914973
O O13 0.140731 0.414723 0.000000
O O14 0.500000 0.500000 0.414238
O O15 0.500000 0.579643 0.500000
O O16 0.500000 0.157180 0.820322
O O17 0.643707 0.779912 0.500000
O O18 0.500000 0.746514 0.573992
#
# Coordination Sequence:
#
# PCOD9518211 Si02
#       7
#    16  16  16  16   8  16  16
#     4  10  18  31  50  73 107 141 166 205 260 315
#     4  11  18  34  53  76 106 137 170 213 265 315
#     4  11  18  29  48  75 100 133 173 207 252 311
#     4   9  18  32  48  67  96 132 165 206 258 305
#     4  11  24  40  60  82 106 140 180 228 276 313
#     4  10  19  31  51  79 111 142 168 202 258 324
#     4  11  19  26  44  75 103 127 163 217 265 304
#
# _framework density 16.022932999999998
#
# number of rings (size 3 to 8) (size 9 to 14) (size 15 to 20)
#    0.000    1.615    4.615    3.692    0.000    1.231 
#    0.000    3.077    0.000    6.000    0.000    2.154 
#    0.000    0.000    0.000    0.000    0.000    0.000 
#
# Total GULP energy -289700.641725 kJ/mol
# GULP energy per Si atom -5571.166187 kJ/mol
# Density = 1.598646 g / cm^3
# Si number density = 16.022933 Si / 1000 Ang^3
#
#
#
# Elastic Constant Matrix: (Units=GPa)
#
#
# Indices 1 2 3 4 5 6 
#
# 1 98.5468 24.4092 44.7162 0.0000 0.0000 0.0000
# 2 24.4092 60.7438 31.7812 0.0000 0.0000 0.0000
# 3 44.7162 31.7812 85.8334 0.0000 0.0000 0.0000
# 4 0.0000 0.0000 0.0000 27.8800 0.0000 0.0000
# 5 0.0000 0.0000 0.0000 0.0000 21.1435 0.0000
# 6 0.0000 0.0000 0.0000 0.0000 0.0000 17.7050
#
#
#
# Elastic Compliance Matrix: (Units=1/GPa)
#
#
# Indices 1 2 3 4 5 6 
#
# 1 0.013515 -0.002167 -0.006238 0.000000 0.000000 0.000000
# 2 -0.002167 0.020765 -0.006560 0.000000 0.000000 0.000000
# 3 -0.006238 -0.006560 0.017329 0.000000 0.000000 0.000000
# 4 0.000000 0.000000 0.000000 0.035868 0.000000 0.000000
# 5 0.000000 0.000000 0.000000 0.000000 0.047296 0.000000
# 6 0.000000 0.000000 0.000000 0.000000 0.000000 0.056481
#
#
# Mechanical properties :
#
#
# Convention : Reuss Voigt Hill
#
# Bulk Modulus (GPa) = 46.12688 49.65969 47.89329
# Shear Modulus (GPa) = 21.89027 22.96017 22.42522
#
# Velocity S-wave (km/s) = 3.70020 3.78955 3.74514
# Velocity P-wave (km/s) = 6.86337 7.08574 6.97544
#
# Compressibility (1/GPa) = 0.02167933
#
# Stress axis : x y z
#
# Youngs Moduli (GPa) = 73.99225 48.15696 57.70533
#
# Poissons Ratio (x) = 0.10435 0.35999
# Poissons Ratio (y) = 0.16033 0.37854
# Poissons Ratio (z) = 0.46160 0.31590
#
# Static dielectric constant tensor:
#      x y z
#    x 1.550060 0.000000 0.000000 
#    y 0.000000 1.556040 0.000000 
#    z 0.000000 0.000000 1.546910 
# 
# From -- ./inp_files/53461.got.cif
#   From: 2010.05.17/outbox.cif.g08.bks.cpg/sg71_27_cif.got.tgz:53461.got - 2010.06.03 16:22:01.
