data_PCOD9518199
_publ_section_title
;
Structure prediction by ZEFSAII (Michael W. Deem and Ramdas Pophale) SiO2 
 PCOD9518199
Probable space group: I M M M
;
_chemical_formula_sum "Si O2"
_cell_formula_units_Z 72
_cell_length_a 21.824239
_cell_length_b 9.591409
_cell_length_c 20.855606
_cell_angle_alpha 90.000000
_cell_angle_beta 90.000000
_cell_angle_gamma 90.000000
_cell_volume 4365.603946
_symmetry_space_group_name_H-M "I M M M"
_symmetry_group_IT_number 71
_symmetry_cell_setting 'orthorhombic'
loop_
_space_group_symop_operation_xyz
x,y,z
-x,-y,z
x,-y,-z
-x,y,-z
-x,-y,-z
x,y,-z
-x,y,z
x,-y,z
1/2+x,1/2+y,1/2+z
1/2-x,1/2-y,1/2+z
1/2+x,1/2-y,1/2-z
1/2-x,1/2+y,1/2-z
1/2-x,1/2-y,1/2-z
1/2+x,1/2+y,1/2-z
1/2-x,1/2+y,1/2+z
1/2+x,1/2-y,1/2+z
loop_
_atom_site_type_symbol
_atom_site_label
_atom_site_fract_x
_atom_site_fract_y
_atom_site_fract_z
Si Si1 0.571967 0.664236 0.251353
Si Si2 0.428214 0.833642 0.123116
Si Si3 0.500000 0.844877 0.575707
Si Si4 0.150138 0.329852 0.500000
Si Si5 0.790002 0.831452 0.000000
Si Si6 0.117459 0.833493 0.887510
O O1 0.500000 0.692860 0.270039
O O2 0.574618 0.500000 0.235955
O O3 0.585978 0.754872 0.189050
O O4 0.617897 0.689462 0.310783
O O5 0.500000 0.808756 0.107905
O O6 0.386207 0.787672 0.063920
O O7 0.420638 0.000000 0.131913
O O8 0.500000 0.861106 0.500000
O O9 0.559510 0.756259 0.591911
O O10 0.500000 0.000000 0.605742
O O11 0.150146 0.500000 0.500000
O O12 0.220277 0.280660 0.500000
O O13 0.827091 0.793680 0.935087
O O14 0.787486 0.000000 0.000000
O O15 0.106486 0.000000 0.896490
#
# Coordination Sequence:
#
# PCOD9518199 Si02
#       6
#    16  16   8   8   8  16
#     4   9  17  29  46  71 100 124 152 197 243 286
#     4   9  17  30  51  75  97 123 155 197 249 300
#     4  11  21  29  43  71 103 130 159 202 249 283
#     4   9  17  32  51  73  96 120 163 212 244 280
#     4   9  18  30  50  72  91 126 173 212 234 269
#     4  10  18  31  50  70  95 130 170 202 234 281
#
# _framework density 16.492564000000002
#
# number of rings (size 3 to 8) (size 9 to 14) (size 15 to 20)
#    0.000    2.556    2.222    0.667    0.000    2.667 
#    0.000    1.667    0.000    5.333    0.000    0.000 
#    0.000    0.000    0.000    0.000    0.000    0.000 
#
# Total GULP energy -200401.631400 kJ/mol
# GULP energy per Si atom -5566.711983 kJ/mol
# Density = 1.645503 g / cm^3
# Si number density = 16.492564 Si / 1000 Ang^3
#
#
#
# Elastic Constant Matrix: (Units=GPa)
#
#
# Indices 1 2 3 4 5 6 
#
# 1 107.1873 40.4152 89.7614 0.0000 0.0000 0.0000
# 2 40.4152 24.8997 50.3582 0.0000 0.0000 0.0000
# 3 89.7614 50.3582 152.8171 0.0000 0.0000 0.0000
# 4 0.0000 0.0000 0.0000 28.7044 0.0000 0.0000
# 5 0.0000 0.0000 0.0000 0.0000 5.2549 0.0000
# 6 0.0000 0.0000 0.0000 0.0000 0.0000 7.6022
#
#
#
# Elastic Compliance Matrix: (Units=1/GPa)
#
#
# Indices 1 2 3 4 5 6 
#
# 1 0.024798 -0.032355 -0.003904 0.000000 0.000000 0.000000
# 2 -0.032355 0.162625 -0.034585 0.000000 0.000000 0.000000
# 3 -0.003904 -0.034585 0.020234 0.000000 0.000000 0.000000
# 4 0.000000 0.000000 0.000000 0.034838 0.000000 0.000000
# 5 0.000000 0.000000 0.000000 0.000000 0.190298 0.000000
# 6 0.000000 0.000000 0.000000 0.000000 0.000000 0.131542
#
#
# Mechanical properties :
#
#
# Convention : Reuss Voigt Hill
#
# Bulk Modulus (GPa) = 15.15891 71.77486 43.46688
# Shear Modulus (GPa) = 6.86802 15.27024 11.06913
#
# Velocity S-wave (km/s) = 2.04288 3.04614 2.59348
# Velocity P-wave (km/s) = 3.84393 7.48238 5.94818
#
# Compressibility (1/GPa) = 0.06596782
#
# Stress axis : x y z
#
# Youngs Moduli (GPa) = 40.32539 6.14913 49.42219
#
# Poissons Ratio (x) = 0.19896 0.19294
# Poissons Ratio (y) = 1.30474 1.70929
# Poissons Ratio (z) = 0.15742 0.21267
#
# Static dielectric constant tensor:
#      x y z
#    x 1.546230 0.000000 0.000000 
#    y 0.000000 1.562790 0.000000 
#    z 0.000000 0.000000 1.573390 
# 
# From -- ./inp_files/9981.got.cif
#   From: 2010.05.17/outbox.cif.g08.bks.cpg/sg71_5_cif.got.tgz:9981.got - 2010.06.03 16:22:01.
