data_PCOD9518664
_publ_section_title
;
Structure prediction by ZEFSAII (Michael W. Deem and Ramdas Pophale) SiO2 
 PCOD9518664
Probable space group: I M M M
;
_chemical_formula_sum "Si O2"
_cell_formula_units_Z 120
_cell_length_a 30.619189
_cell_length_b 7.259424
_cell_length_c 23.415084
_cell_angle_alpha 90.000000
_cell_angle_beta 90.000000
_cell_angle_gamma 90.000000
_cell_volume 5204.650443
_symmetry_space_group_name_H-M "I M M M"
_symmetry_group_IT_number 71
_symmetry_cell_setting 'orthorhombic'
loop_
_space_group_symop_operation_xyz
x,y,z
-x,-y,z
x,-y,-z
-x,y,-z
-x,-y,-z
x,y,-z
-x,y,z
x,-y,z
1/2+x,1/2+y,1/2+z
1/2-x,1/2-y,1/2+z
1/2+x,1/2-y,1/2-z
1/2-x,1/2+y,1/2-z
1/2-x,1/2-y,1/2-z
1/2+x,1/2+y,1/2-z
1/2-x,1/2+y,1/2+z
1/2+x,1/2-y,1/2+z
loop_
_atom_site_type_symbol
_atom_site_label
_atom_site_fract_x
_atom_site_fract_y
_atom_site_fract_z
Si Si1 0.142232 0.275207 0.143349
Si Si2 0.722668 0.224897 0.565808
Si Si3 0.452877 0.778681 0.782574
Si Si4 0.185716 0.212558 0.614400
Si Si5 0.642698 0.778021 0.225038
Si Si6 0.405485 0.277498 0.932499
Si Si7 0.453218 0.221708 0.645770
Si Si8 0.000000 0.222348 0.568340
O O1 0.142010 0.500000 0.143322
O O2 0.181773 0.214805 0.103760
O O3 0.148124 0.219390 0.209533
O O4 0.093803 0.215007 0.123688
O O5 0.718606 0.278627 0.500000
O O6 0.769047 0.288501 0.591166
O O7 0.722612 0.000000 0.567731
O O8 0.500000 0.707948 0.804247
O O9 0.404568 0.711757 0.799409
O O10 0.452876 0.742947 0.714001
O O11 0.453378 0.000000 0.788708
O O12 0.180779 0.219713 0.682564
O O13 0.140053 0.294481 0.592102
O O14 0.185143 0.000000 0.595352
O O15 0.641132 0.000000 0.225303
O O16 0.406065 0.500000 0.926287
O O17 0.452765 0.211194 0.909359
O O18 0.405073 0.238820 0.000000
O O19 0.500000 0.289429 0.623111
O O20 0.453561 0.000000 0.639534
O O21 0.000000 0.263932 0.500000
O O22 0.000000 0.000000 0.571981
#
# Coordination Sequence:
#
# PCOD9518664 Si02
#       8
#    16  16  16  16  16  16  16   8
#     4   8  14  25  42  63  85 111 145 181 212 252
#     4   9  17  29  45  63  82 108 144 184 223 259
#     4   7  10  19  36  56  78 107 143 175 199 237
#     4  10  19  29  42  63  89 114 143 181 220 260
#     4   9  17  29  44  63  88 116 146 177 214 259
#     4   8  13  23  39  56  75 103 140 179 216 255
#     4   7   9  15  31  55  80 106 136 169 204 242
#     4   7  10  18  34  54  73  97 133 175 218 259
#
# _framework density 23.056301999999999
#
# number of rings (size 3 to 8) (size 9 to 14) (size 15 to 20)
#    0.000    3.800    0.000    3.600    0.000    2.133 
#    1.200    0.000    0.000    2.000    0.000    2.800 
#    0.000    1.600    0.000    0.000    0.000    0.000 
#
# Total GULP energy -334764.237567 kJ/mol
# GULP energy per Si atom -5579.403959 kJ/mol
# Density = 2.300383 g / cm^3
# Si number density = 23.056302 Si / 1000 Ang^3
#
#
#
# Elastic Constant Matrix: (Units=GPa)
#
#
# Indices 1 2 3 4 5 6 
#
# 1 257.3359 10.3069 116.1524 0.0000 0.0000 0.0000
# 2 10.3069 102.1999 1.4437 0.0000 0.0000 0.0000
# 3 116.1524 1.4437 96.4718 0.0000 0.0000 0.0000
# 4 0.0000 0.0000 0.0000 2.6996 0.0000 0.0000
# 5 0.0000 0.0000 0.0000 0.0000 40.2113 0.0000
# 6 0.0000 0.0000 0.0000 0.0000 0.0000 4.7821
#
#
#
# Elastic Compliance Matrix: (Units=1/GPa)
#
#
# Indices 1 2 3 4 5 6 
#
# 1 0.008564 -0.000718 -0.010300 0.000000 0.000000 0.000000
# 2 -0.000718 0.009847 0.000717 0.000000 0.000000 0.000000
# 3 -0.010300 0.000717 0.022756 0.000000 0.000000 0.000000
# 4 0.000000 0.000000 0.000000 0.370431 0.000000 0.000000
# 5 0.000000 0.000000 0.000000 0.000000 0.024869 0.000000
# 6 0.000000 0.000000 0.000000 0.000000 0.000000 0.209112
#
#
# Mechanical properties :
#
#
# Convention : Reuss Voigt Hill
#
# Bulk Modulus (GPa) = 48.62563 79.09040 63.85801
# Shear Modulus (GPa) = 7.42901 31.41224 19.42062
#
# Velocity S-wave (km/s) = 1.79697 3.69509 2.90541
# Velocity P-wave (km/s) = 5.04393 7.25139 6.24595
#
# Compressibility (1/GPa) = 0.02056529
#
# Stress axis : x y z
#
# Youngs Moduli (GPa) = 116.76944 101.55340 43.94357
#
# Poissons Ratio (x) = 0.07293 0.45263
# Poissons Ratio (y) = 0.08386 -0.03152
# Poissons Ratio (z) = 1.20275 -0.07285
#
# Static dielectric constant tensor:
#      x y z
#    x 1.885900 0.000000 0.000000 
#    y 0.000000 1.944880 0.000000 
#    z 0.000000 0.000000 1.844370 
# 
# From -- ./inp_files/62429.got.cif
#   From: 2010.05.17/outbox.cif.g08.bks.cpg/sg71_32_cif.got.tgz:62429.got - 2010.06.03 16:22:01.
