data_PCOD9518992
_publ_section_title
;
Structure prediction by ZEFSAII (Michael W. Deem and Ramdas Pophale) SiO2 
 PCOD9518992
Probable space group: I M M M
;
_chemical_formula_sum "Si O2"
_cell_formula_units_Z 112
_cell_length_a 18.081612
_cell_length_b 14.173639
_cell_length_c 28.479330
_cell_angle_alpha 90.000000
_cell_angle_beta 90.000000
_cell_angle_gamma 90.000000
_cell_volume 7298.746515
_symmetry_space_group_name_H-M "I M M M"
_symmetry_group_IT_number 71
_symmetry_cell_setting 'orthorhombic'
loop_
_space_group_symop_operation_xyz
x,y,z
-x,-y,z
x,-y,-z
-x,y,-z
-x,-y,-z
x,y,-z
-x,y,z
x,-y,z
1/2+x,1/2+y,1/2+z
1/2-x,1/2-y,1/2+z
1/2+x,1/2-y,1/2-z
1/2-x,1/2+y,1/2-z
1/2-x,1/2-y,1/2-z
1/2+x,1/2+y,1/2-z
1/2-x,1/2+y,1/2+z
1/2+x,1/2-y,1/2+z
loop_
_atom_site_type_symbol
_atom_site_label
_atom_site_fract_x
_atom_site_fract_y
_atom_site_fract_z
Si Si1 0.870153 0.791160 0.264631
Si Si2 0.000000 0.114262 0.794602
Si Si3 0.910256 0.107411 0.552002
Si Si4 0.279100 0.888847 0.871242
Si Si5 0.000000 0.113931 0.094254
Si Si6 0.657257 0.384788 0.553740
Si Si7 0.085861 0.254705 0.369283
Si Si8 0.223979 0.610795 0.261155
O O1 0.928495 0.838787 0.229688
O O2 0.905151 0.781579 0.316145
O O3 0.841232 0.685963 0.250687
O O4 0.796668 0.855591 0.266299
O O5 0.000000 0.133774 0.850243
O O6 0.000000 0.000000 0.788008
O O7 0.886922 0.140033 0.500000
O O8 0.889477 0.174827 0.594137
O O9 0.000000 0.105138 0.551810
O O10 0.884948 0.000000 0.558654
O O11 0.218245 0.853283 0.908268
O O12 0.358193 0.840331 0.876466
O O13 0.256922 0.875342 0.816656
O O14 0.286446 0.000000 0.878718
O O15 0.924435 0.146858 0.069800
O O16 0.000000 0.000000 0.089942
O O17 0.672938 0.356788 0.500000
O O18 0.656967 0.500000 0.554846
O O19 0.000000 0.278611 0.377622
O O20 0.206682 0.500000 0.254042
#
# Coordination Sequence:
#
# PCOD9518992 Si02
#       8
#    16   8  16  16   8  16  16  16
#     4  10  19  31  46  69  95 118 159 203 242 286
#     4  11  20  29  45  70  98 123 154 200 246 290
#     4   8  15  28  44  60  80 110 145 183 232 281
#     4   9  18  31  46  64  90 127 162 189 226 277
#     4   9  17  28  45  67  91 122 150 182 239 298
#     4   9  16  27  44  67  93 118 151 192 231 277
#     4  10  19  31  45  66  93 119 155 199 237 273
#     4   9  18  33  49  63  89 130 164 194 235 291
#
# _framework density 15.345101
#
# number of rings (size 3 to 8) (size 9 to 14) (size 15 to 20)
#    0.000    2.714    0.714    1.929    0.000    5.143 
#    0.000    0.357    0.000    0.000    0.000    4.000 
#    0.000    0.000    0.000    0.429    0.000   25.714 
#
# Total GULP energy -311774.911392 kJ/mol
# GULP energy per Si atom -5567.409132 kJ/mol
# Density = 1.531017 g / cm^3
# Si number density = 15.345101 Si / 1000 Ang^3
#
#
#
# Elastic Constant Matrix: (Units=GPa)
#
#
# Indices 1 2 3 4 5 6 
#
# 1 75.7996 23.1363 34.0339 0.0000 0.0000 0.0000
# 2 23.1363 51.1812 19.2085 0.0000 0.0000 0.0000
# 3 34.0339 19.2085 47.3700 0.0000 0.0000 0.0000
# 4 0.0000 0.0000 0.0000 15.1463 0.0000 0.0000
# 5 0.0000 0.0000 0.0000 0.0000 11.8113 0.0000
# 6 0.0000 0.0000 0.0000 0.0000 0.0000 17.2791
#
#
#
# Elastic Compliance Matrix: (Units=1/GPa)
#
#
# Indices 1 2 3 4 5 6 
#
# 1 0.020268 -0.004361 -0.012794 0.000000 0.000000 0.000000
# 2 -0.004361 0.023984 -0.006593 0.000000 0.000000 0.000000
# 3 -0.012794 -0.006593 0.032976 0.000000 0.000000 0.000000
# 4 0.000000 0.000000 0.000000 0.066023 0.000000 0.000000
# 5 0.000000 0.000000 0.000000 0.000000 0.084664 0.000000
# 6 0.000000 0.000000 0.000000 0.000000 0.000000 0.057874
#
#
# Mechanical properties :
#
#
# Convention : Reuss Voigt Hill
#
# Bulk Modulus (GPa) = 33.63178 36.34537 34.98858
# Shear Modulus (GPa) = 14.56907 15.37882 14.97395
#
# Velocity S-wave (km/s) = 3.08462 3.16918 3.12719
# Velocity P-wave (km/s) = 5.88651 6.09331 5.99080
#
# Compressibility (1/GPa) = 0.02973378
#
# Stress axis : x y z
#
# Youngs Moduli (GPa) = 49.33886 41.69478 30.32551
#
# Poissons Ratio (x) = 0.18181 0.38798
# Poissons Ratio (y) = 0.21514 0.19992
# Poissons Ratio (z) = 0.63123 0.27487
#
# Static dielectric constant tensor:
#      x y z
#    x 1.508660 0.000000 0.000000 
#    y 0.000000 1.499260 0.000000 
#    z 0.000000 0.000000 1.524560 
# 
# From -- ./inp_files/70591.got.cif
#   From: 2010.05.17/outbox.cif.g08.bks.cpg/sg71_36_cif.got.tgz:70591.got - 2010.06.03 16:22:01.
