data_PCOD9518945
_publ_section_title
;
Structure prediction by ZEFSAII (Michael W. Deem and Ramdas Pophale) SiO2 
 PCOD9518945
Probable space group: I M M M
;
_chemical_formula_sum "Si O2"
_cell_formula_units_Z 120
_cell_length_a 18.158127
_cell_length_b 19.506554
_cell_length_c 21.422580
_cell_angle_alpha 90.000000
_cell_angle_beta 90.000000
_cell_angle_gamma 90.000000
_cell_volume 7587.931068
_symmetry_space_group_name_H-M "I M M M"
_symmetry_group_IT_number 71
_symmetry_cell_setting 'orthorhombic'
loop_
_space_group_symop_operation_xyz
x,y,z
-x,-y,z
x,-y,-z
-x,y,-z
-x,-y,-z
x,y,-z
-x,y,z
x,-y,z
1/2+x,1/2+y,1/2+z
1/2-x,1/2-y,1/2+z
1/2+x,1/2-y,1/2-z
1/2-x,1/2+y,1/2-z
1/2-x,1/2-y,1/2-z
1/2+x,1/2+y,1/2-z
1/2-x,1/2+y,1/2+z
1/2+x,1/2-y,1/2+z
loop_
_atom_site_type_symbol
_atom_site_label
_atom_site_fract_x
_atom_site_fract_y
_atom_site_fract_z
Si Si1 0.500000 0.417849 0.074419
Si Si2 0.415654 0.325389 0.294153
Si Si3 0.869779 0.155675 0.649492
Si Si4 0.584905 0.835174 0.284377
Si Si5 0.273903 0.919626 0.690824
Si Si6 0.709913 0.421649 0.668958
Si Si7 0.341419 0.077737 0.927092
Si Si8 0.915321 0.303005 0.639233
O O1 0.500000 0.500000 0.084255
O O2 0.571938 0.384755 0.106930
O O3 0.500000 0.404690 0.000000
O O4 0.500000 0.343012 0.308112
O O5 0.400874 0.340851 0.220680
O O6 0.405534 0.244167 0.303960
O O7 0.356920 0.369025 0.332093
O O8 0.790794 0.118878 0.653166
O O9 0.866294 0.235409 0.629554
O O10 0.500000 0.855601 0.296787
O O11 0.647193 0.882887 0.313757
O O12 0.595026 0.832411 0.209137
O O13 0.249576 0.914526 0.763740
O O14 0.277181 0.000000 0.674814
O O15 0.682949 0.500000 0.664905
O O16 0.769546 0.410454 0.615201
O O17 0.398361 0.136176 0.907935
O O18 0.367948 0.000000 0.913331
O O19 0.324232 0.081450 0.000000
O O20 0.000000 0.279678 0.634942
#
# Coordination Sequence:
#
# PCOD9518945 Si02
#       8
#     8  16  16  16  16  16  16  16
#     4  11  22  36  52  70 103 143 166 196 251 297
#     4   9  17  30  49  73  97 126 157 200 250 298
#     4  10  19  34  50  72 101 128 167 208 241 292
#     4   9  18  30  47  72 102 130 158 196 253 304
#     4  10  19  30  49  74  98 130 166 202 245 299
#     4   9  18  30  46  70  95 125 165 204 248 295
#     4  10  21  35  48  66  97 134 173 214 250 287
#     4  10  19  32  50  70  94 131 172 206 244 293
#
# _framework density 15.814587
#
# number of rings (size 3 to 8) (size 9 to 14) (size 15 to 20)
#    0.000    2.333    2.667    1.200    1.867    3.733 
#    0.000    2.000    0.000    0.400    0.000    1.867 
#    0.000    0.533    0.000    2.800    0.000    0.000 
#
# Total GULP energy -334443.343195 kJ/mol
# GULP energy per Si atom -5574.055720 kJ/mol
# Density = 1.577859 g / cm^3
# Si number density = 15.814587 Si / 1000 Ang^3
#
#
#
# Elastic Constant Matrix: (Units=GPa)
#
#
# Indices 1 2 3 4 5 6 
#
# 1 107.0730 71.7183 19.2009 0.0000 0.0000 0.0000
# 2 71.7183 88.8976 26.3035 0.0000 0.0000 0.0000
# 3 19.2009 26.3035 34.7864 0.0000 0.0000 0.0000
# 4 0.0000 0.0000 0.0000 18.3683 0.0000 0.0000
# 5 0.0000 0.0000 0.0000 0.0000 12.4958 0.0000
# 6 0.0000 0.0000 0.0000 0.0000 0.0000 30.9121
#
#
#
# Elastic Compliance Matrix: (Units=1/GPa)
#
#
# Indices 1 2 3 4 5 6 
#
# 1 0.020382 -0.016894 0.001524 0.000000 0.000000 0.000000
# 2 -0.016894 0.028494 -0.012221 0.000000 0.000000 0.000000
# 3 0.001524 -0.012221 0.037146 0.000000 0.000000 0.000000
# 4 0.000000 0.000000 0.000000 0.054442 0.000000 0.000000
# 5 0.000000 0.000000 0.000000 0.000000 0.080027 0.000000
# 6 0.000000 0.000000 0.000000 0.000000 0.000000 0.032350
#
#
# Mechanical properties :
#
#
# Convention : Reuss Voigt Hill
#
# Bulk Modulus (GPa) = 32.42426 51.68917 42.05672
# Shear Modulus (GPa) = 15.70832 19.92417 17.81625
#
# Velocity S-wave (km/s) = 3.15505 3.55330 3.36008
# Velocity P-wave (km/s) = 5.81548 7.04202 6.45793
#
# Compressibility (1/GPa) = 0.03084110
#
# Stress axis : x y z
#
# Youngs Moduli (GPa) = 49.06314 35.09481 26.92064
#
# Poissons Ratio (x) = 0.59290 -0.04104
# Poissons Ratio (y) = 0.82888 0.32899
# Poissons Ratio (z) = -0.07479 0.42889
#
# Static dielectric constant tensor:
#      x y z
#    x 1.520240 0.000000 0.000000 
#    y 0.000000 1.542380 0.000000 
#    z 0.000000 0.000000 1.504730 
# 
# From -- ./inp_files/47579.got.cif
#   From: 2010.05.17/outbox.cif.g08.bks.cpg/sg71_24_cif.got.tgz:47579.got - 2010.06.03 16:22:01.
