data_PCOD9518732
_publ_section_title
;
Structure prediction by ZEFSAII (Michael W. Deem and Ramdas Pophale) SiO2 
 PCOD9518732
Probable space group: I M M M
;
_chemical_formula_sum "Si O2"
_cell_formula_units_Z 80
_cell_length_a 16.729807
_cell_length_b 7.580208
_cell_length_c 31.153787
_cell_angle_alpha 90.000000
_cell_angle_beta 90.000000
_cell_angle_gamma 90.000000
_cell_volume 3950.780485
_symmetry_space_group_name_H-M "I M M M"
_symmetry_group_IT_number 71
_symmetry_cell_setting 'orthorhombic'
loop_
_space_group_symop_operation_xyz
x,y,z
-x,-y,z
x,-y,-z
-x,y,-z
-x,-y,-z
x,y,-z
-x,y,z
x,-y,z
1/2+x,1/2+y,1/2+z
1/2-x,1/2-y,1/2+z
1/2+x,1/2-y,1/2-z
1/2-x,1/2+y,1/2-z
1/2-x,1/2-y,1/2-z
1/2+x,1/2+y,1/2-z
1/2-x,1/2+y,1/2+z
1/2+x,1/2-y,1/2+z
loop_
_atom_site_type_symbol
_atom_site_label
_atom_site_fract_x
_atom_site_fract_y
_atom_site_fract_z
Si Si1 0.094687 0.300521 0.906193
Si Si2 0.869936 0.701773 0.000000
Si Si3 0.597603 0.500000 0.244698
Si Si4 0.401634 0.500000 0.343189
Si Si5 0.902270 0.702352 0.320928
Si Si6 0.408185 0.215110 0.084451
Si Si7 0.312848 0.215054 0.000000
O O1 0.128443 0.500000 0.905122
O O2 0.104509 0.222850 0.954137
O O3 0.000000 0.314342 0.898845
O O4 0.126585 0.170364 0.869889
O O5 0.775020 0.708532 0.000000
O O6 0.901034 0.500000 0.000000
O O7 0.500000 0.500000 0.245420
O O8 0.624122 0.500000 0.293898
O O9 0.622711 0.329564 0.217348
O O10 0.500000 0.500000 0.343644
O O11 0.876946 0.500000 0.314723
O O12 0.877542 0.767288 0.368404
O O13 0.000000 0.702382 0.322221
O O14 0.500000 0.272911 0.079607
O O15 0.408937 0.000000 0.085053
O O16 0.358118 0.269810 0.043277
O O17 0.308270 0.000000 0.000000
#
# Coordination Sequence:
#
# PCOD9518732 Si02
#       7
#    16   8   8   8  16  16   8
#     4   9  18  33  52  72  97 131 163 194 239 292
#     4  10  21  35  48  68 101 127 159 198 239 292
#     4   9  16  26  41  69 101 123 152 196 244 288
#     4   9  18  29  46  75 103 124 155 198 241 290
#     4   8  14  25  42  63  91 127 161 194 236 282
#     4   8  14  27  46  68  97 132 168 202 238 285
#     4  10  19  29  47  73  98 125 166 202 246 288
#
# _framework density 20.249164
#
# number of rings (size 3 to 8) (size 9 to 14) (size 15 to 20)
#    0.000    3.200    0.000    1.800    1.400    3.200 
#    1.800    5.500    0.000    0.600    0.000    1.400 
#    0.000    0.000    0.000    0.000    0.000    0.000 
#
# Total GULP energy -223005.302901 kJ/mol
# GULP energy per Si atom -5575.132573 kJ/mol
# Density = 2.020308 g / cm^3
# Si number density = 20.249164 Si / 1000 Ang^3
#
#
#
# Elastic Constant Matrix: (Units=GPa)
#
#
# Indices 1 2 3 4 5 6 
#
# 1 12.8941 8.4733 11.8866 0.0000 0.0000 0.0000
# 2 8.4733 92.9106 80.5642 0.0000 0.0000 0.0000
# 3 11.8866 80.5642 204.6130 0.0000 0.0000 0.0000
# 4 0.0000 0.0000 0.0000 52.6069 0.0000 0.0000
# 5 0.0000 0.0000 0.0000 0.0000 -12.5826 0.0000
# 6 0.0000 0.0000 0.0000 0.0000 0.0000 8.2867
#
#
#
# Elastic Compliance Matrix: (Units=1/GPa)
#
#
# Indices 1 2 3 4 5 6 
#
# 1 0.083553 -0.005179 -0.002815 0.000000 0.000000 0.000000
# 2 -0.005179 0.016664 -0.006260 0.000000 0.000000 0.000000
# 3 -0.002815 -0.006260 0.007516 0.000000 0.000000 0.000000
# 4 0.000000 0.000000 0.000000 0.019009 0.000000 0.000000
# 5 0.000000 0.000000 0.000000 0.000000 -0.079475 0.000000
# 6 0.000000 0.000000 0.000000 0.000000 0.000000 0.120676
#
#
# Mechanical properties :
#
#
# Convention : Reuss Voigt Hill
#
# Bulk Modulus (GPa) = 12.62239 56.91845 34.77042
# Shear Modulus (GPa) = 22.43570 23.62844 23.03207
#
# Velocity S-wave (km/s) = 3.33225 3.41967 3.37624
# Velocity P-wave (km/s) = 4.58827 6.61531 5.69274
#
# Compressibility (1/GPa) = 0.07922428
#
# Stress axis : x y z
#
# Youngs Moduli (GPa) = 11.96840 60.01034 133.05462
#
# Poissons Ratio (x) = 0.31082 0.37449
# Poissons Ratio (y) = 0.06199 0.83296
# Poissons Ratio (z) = 0.03369 0.37568
#
# Static dielectric constant tensor:
#      x y z
#    x 1.681500 0.000000 0.000000 
#    y 0.000000 1.765390 0.000000 
#    z 0.000000 0.000000 1.711040 
# 
# From -- ./inp_files/66314.got.cif
#   From: 2010.05.17/outbox.cif.g08.bks.cpg/sg71_34_cif.got.tgz:66314.got - 2010.06.03 16:22:01.
