data_PCOD9518791
_publ_section_title
;
Structure prediction by ZEFSAII (Michael W. Deem and Ramdas Pophale) SiO2 
 PCOD9518791
Probable space group: I M M M
;
_chemical_formula_sum "Si O2"
_cell_formula_units_Z 104
_cell_length_a 8.795801
_cell_length_b 24.969957
_cell_length_c 33.701192
_cell_angle_alpha 90.000000
_cell_angle_beta 90.000000
_cell_angle_gamma 90.000000
_cell_volume 7401.818842
_symmetry_space_group_name_H-M "I M M M"
_symmetry_group_IT_number 71
_symmetry_cell_setting 'orthorhombic'
loop_
_space_group_symop_operation_xyz
x,y,z
-x,-y,z
x,-y,-z
-x,y,-z
-x,-y,-z
x,y,-z
-x,y,z
x,-y,z
1/2+x,1/2+y,1/2+z
1/2-x,1/2-y,1/2+z
1/2+x,1/2-y,1/2-z
1/2-x,1/2+y,1/2-z
1/2-x,1/2-y,1/2-z
1/2+x,1/2+y,1/2-z
1/2-x,1/2+y,1/2+z
1/2+x,1/2-y,1/2+z
loop_
_atom_site_type_symbol
_atom_site_label
_atom_site_fract_x
_atom_site_fract_y
_atom_site_fract_z
Si Si1 0.318300 0.167893 0.269402
Si Si2 0.180553 0.439461 0.337471
Si Si3 0.820083 0.837818 0.120003
Si Si4 0.180649 0.940224 0.749702
Si Si5 0.826920 0.000000 0.951860
Si Si6 0.818687 0.385890 0.453592
Si Si7 0.681842 0.230983 0.188556
O O1 0.500000 0.164092 0.272258
O O2 0.242085 0.110159 0.274622
O O3 0.280752 0.190293 0.225025
O O4 0.255028 0.212623 0.299197
O O5 0.209269 0.500000 0.352160
O O6 0.272643 0.394082 0.359864
O O7 0.231483 0.438356 0.291643
O O8 0.000000 0.428545 0.340487
O O9 0.755368 0.842864 0.075636
O O10 0.745306 0.792971 0.147882
O O11 0.000000 0.831731 0.119720
O O12 0.000000 0.934384 0.756703
O O13 0.206230 0.000000 0.732744
O O14 0.741481 0.054936 0.941897
O O15 0.000000 0.000000 0.936586
O O16 0.833872 0.000000 0.000000
O O17 0.781220 0.377385 0.500000
O O18 0.000000 0.385358 0.449173
O O19 0.500000 0.235471 0.187015
#
# Coordination Sequence:
#
# PCOD9518791 Si02
#       7
#    16  16  16  16   8  16  16
#     4  10  19  31  48  66  88 116 145 180 220 259
#     4  10  20  32  44  59  82 111 143 180 223 267
#     4  12  23  33  48  66  87 109 141 182 223 269
#     4  10  19  30  45  65  89 116 146 180 219 262
#     4   9  17  31  49  67  85 105 135 175 221 271
#     4  10  21  36  51  64  82 109 140 176 220 270
#     4  10  20  33  48  65  87 114 145 181 219 263
#
# _framework density 14.050599999999999
#
# number of rings (size 3 to 8) (size 9 to 14) (size 15 to 20)
#    0.000    1.769    1.538    3.923    1.077    4.923 
#    0.000    0.000    0.000    0.000    0.000    0.000 
#    0.000    0.000    0.000    0.000    0.000    0.769 
#
# Total GULP energy -290334.714924 kJ/mol
# GULP energy per Si atom -5583.359902 kJ/mol
# Density = 1.401862 g / cm^3
# Si number density = 14.050600 Si / 1000 Ang^3
#
#
#
# Elastic Constant Matrix: (Units=GPa)
#
#
# Indices 1 2 3 4 5 6 
#
# 1 52.3401 30.8436 25.4053 0.0000 0.0000 0.0000
# 2 30.8436 85.8901 37.4491 0.0000 0.0000 0.0000
# 3 25.4053 37.4491 61.9628 0.0000 0.0000 0.0000
# 4 0.0000 0.0000 0.0000 22.9604 0.0000 0.0000
# 5 0.0000 0.0000 0.0000 0.0000 19.1901 0.0000
# 6 0.0000 0.0000 0.0000 0.0000 0.0000 23.3956
#
#
#
# Elastic Compliance Matrix: (Units=1/GPa)
#
#
# Indices 1 2 3 4 5 6 
#
# 1 0.026225 -0.006422 -0.006872 0.000000 0.000000 0.000000
# 2 -0.006422 0.017381 -0.007872 0.000000 0.000000 0.000000
# 3 -0.006872 -0.007872 0.023714 0.000000 0.000000 0.000000
# 4 0.000000 0.000000 0.000000 0.043553 0.000000 0.000000
# 5 0.000000 0.000000 0.000000 0.000000 0.052110 0.000000
# 6 0.000000 0.000000 0.000000 0.000000 0.000000 0.042743
#
#
# Mechanical properties :
#
#
# Convention : Reuss Voigt Hill
#
# Bulk Modulus (GPa) = 40.01580 43.06545 41.54062
# Shear Modulus (GPa) = 19.50180 20.20889 19.85535
#
# Velocity S-wave (km/s) = 3.72959 3.79660 3.76324
# Velocity P-wave (km/s) = 6.86207 7.06652 6.96505
#
# Compressibility (1/GPa) = 0.02499013
#
# Stress axis : x y z
#
# Youngs Moduli (GPa) = 38.13101 57.53389 42.16971
#
# Poissons Ratio (x) = 0.36946 0.28977
# Poissons Ratio (y) = 0.24486 0.33195
# Poissons Ratio (z) = 0.26202 0.45290
#
# Static dielectric constant tensor:
#      x y z
#    x 1.466260 0.000000 0.000000 
#    y 0.000000 1.463250 0.000000 
#    z 0.000000 0.000000 1.469990 
# 
# From -- ./inp_files/68422.got.cif
#   From: 2010.05.17/outbox.cif.g08.bks.cpg/sg71_35_cif.got.tgz:68422.got - 2010.06.03 16:22:01.
