data_PCOD9518889
_publ_section_title
;
Structure prediction by ZEFSAII (Michael W. Deem and Ramdas Pophale) SiO2 
 PCOD9518889
Probable space group: I M M M
;
_chemical_formula_sum "Si O2"
_cell_formula_units_Z 88
_cell_length_a 20.102424
_cell_length_b 28.751450
_cell_length_c 7.424360
_cell_angle_alpha 90.000000
_cell_angle_beta 90.000000
_cell_angle_gamma 90.000000
_cell_volume 4291.085848
_symmetry_space_group_name_H-M "I M M M"
_symmetry_group_IT_number 71
_symmetry_cell_setting 'orthorhombic'
loop_
_space_group_symop_operation_xyz
x,y,z
-x,-y,z
x,-y,-z
-x,y,-z
-x,-y,-z
x,y,-z
-x,y,z
x,-y,z
1/2+x,1/2+y,1/2+z
1/2-x,1/2-y,1/2+z
1/2+x,1/2-y,1/2-z
1/2-x,1/2+y,1/2-z
1/2-x,1/2-y,1/2-z
1/2+x,1/2+y,1/2-z
1/2-x,1/2+y,1/2+z
1/2+x,1/2-y,1/2+z
loop_
_atom_site_type_symbol
_atom_site_label
_atom_site_fract_x
_atom_site_fract_y
_atom_site_fract_z
Si Si1 0.829908 0.415372 0.220562
Si Si2 0.182020 0.686678 0.793402
Si Si3 0.074973 0.872185 0.716055
Si Si4 0.923564 0.500000 0.219864
Si Si5 0.329825 0.710558 0.713631
Si Si6 0.817690 0.052957 0.719748
O O1 0.841087 0.362509 0.284316
O O2 0.883279 0.453934 0.276133
O O3 0.755995 0.431280 0.275412
O O4 0.829911 0.414432 0.000000
O O5 0.262755 0.687707 0.792031
O O6 0.162407 0.736846 0.714599
O O7 0.158683 0.687116 0.000000
O O8 0.072355 0.877065 0.500000
O O9 0.107988 0.822443 0.754568
O O10 0.125920 0.911492 0.782824
O O11 0.000000 0.876285 0.785020
O O12 0.000000 0.500000 0.278079
O O13 0.923176 0.500000 0.000000
O O14 0.317599 0.713953 0.500000
O O15 0.817736 0.053774 0.500000
O O16 0.830127 0.000000 0.775127
#
# Coordination Sequence:
#
# PCOD9518889 Si02
#       6
#    16  16  16   8  16  16
#     4   9  14  24  43  66  93 125 155 188 235 284
#     4   9  17  30  49  71  95 125 162 202 242 286
#     4  10  20  33  49  69  97 133 166 201 246 293
#     4   9  16  24  38  68 104 128 147 182 241 300
#     4  10  19  30  47  72  98 126 161 203 248 288
#     4   9  15  25  45  71  93 118 158 205 244 281
#
# _framework density 20.507629000000001
#
# number of rings (size 3 to 8) (size 9 to 14) (size 15 to 20)
#    0.000    2.636    2.727    0.545    0.000    1.455 
#    0.000    2.727    0.000    3.818    0.000    1.273 
#    0.000    0.727    0.000    0.000    0.000    0.000 
#
# Total GULP energy -245561.925131 kJ/mol
# GULP energy per Si atom -5580.952844 kJ/mol
# Density = 2.046095 g / cm^3
# Si number density = 20.507629 Si / 1000 Ang^3
#
#
#
# Elastic Constant Matrix: (Units=GPa)
#
#
# Indices 1 2 3 4 5 6 
#
# 1 145.3574 101.7474 -0.6254 0.0000 0.0000 0.0000
# 2 101.7474 207.2502 2.5048 0.0000 0.0000 0.0000
# 3 -0.6254 2.5048 68.5303 0.0000 0.0000 0.0000
# 4 0.0000 0.0000 0.0000 4.2048 0.0000 0.0000
# 5 0.0000 0.0000 0.0000 0.0000 3.2246 0.0000
# 6 0.0000 0.0000 0.0000 0.0000 0.0000 29.3002
#
#
#
# Elastic Compliance Matrix: (Units=1/GPa)
#
#
# Indices 1 2 3 4 5 6 
#
# 1 0.010487 -0.005152 0.000284 0.000000 0.000000 0.000000
# 2 -0.005152 0.007358 -0.000316 0.000000 0.000000 0.000000
# 3 0.000284 -0.000316 0.014606 0.000000 0.000000 0.000000
# 4 0.000000 0.000000 0.000000 0.237826 0.000000 0.000000
# 5 0.000000 0.000000 0.000000 0.000000 0.310115 0.000000
# 6 0.000000 0.000000 0.000000 0.000000 0.000000 0.034129
#
#
# Mechanical properties :
#
#
# Convention : Reuss Voigt Hill
#
# Bulk Modulus (GPa) = 45.28227 69.82129 57.55178
# Shear Modulus (GPa) = 7.90825 28.51334 18.21079
#
# Velocity S-wave (km/s) = 1.96586 3.73282 2.98317
# Velocity P-wave (km/s) = 5.22317 7.25941 6.32378
#
# Compressibility (1/GPa) = 0.02208370
#
# Stress axis : x y z
#
# Youngs Moduli (GPa) = 95.35531 135.90262 68.46397
#
# Poissons Ratio (x) = 0.70017 -0.01944
# Poissons Ratio (y) = 0.49127 0.02163
# Poissons Ratio (z) = -0.02708 0.04294
#
# Static dielectric constant tensor:
#      x y z
#    x 1.675430 0.000000 0.000000 
#    y 0.000000 1.741200 0.000000 
#    z 0.000000 0.000000 1.827240 
# 
# From -- ./inp_files/8862.got.cif
#   From: 2010.05.17/outbox.cif.g08.bks.cpg/sg71_5_cif.got.tgz:8862.got - 2010.06.03 16:22:01.
