data_PCOD9518207
_publ_section_title
;
Structure prediction by ZEFSAII (Michael W. Deem and Ramdas Pophale) SiO2 
 PCOD9518207
Probable space group: I M M M
;
_chemical_formula_sum "Si O2"
_cell_formula_units_Z 116
_cell_length_a 27.846850
_cell_length_b 8.040007
_cell_length_c 28.313004
_cell_angle_alpha 90.000000
_cell_angle_beta 90.000000
_cell_angle_gamma 90.000000
_cell_volume 6338.966442
_symmetry_space_group_name_H-M "I M M M"
_symmetry_group_IT_number 71
_symmetry_cell_setting 'orthorhombic'
loop_
_space_group_symop_operation_xyz
x,y,z
-x,-y,z
x,-y,-z
-x,y,-z
-x,-y,-z
x,y,-z
-x,y,z
x,-y,z
1/2+x,1/2+y,1/2+z
1/2-x,1/2-y,1/2+z
1/2+x,1/2-y,1/2-z
1/2-x,1/2+y,1/2-z
1/2-x,1/2-y,1/2-z
1/2+x,1/2+y,1/2-z
1/2-x,1/2+y,1/2+z
1/2+x,1/2-y,1/2+z
loop_
_atom_site_type_symbol
_atom_site_label
_atom_site_fract_x
_atom_site_fract_y
_atom_site_fract_z
Si Si1 0.424442 0.300667 0.421375
Si Si2 0.758050 0.192506 0.368918
Si Si3 0.844124 0.200433 0.312978
Si Si4 0.316854 0.301416 0.446882
Si Si5 0.812016 0.196184 0.790163
Si Si6 0.084169 0.700332 0.180712
Si Si7 0.447693 0.799724 0.214967
Si Si8 0.500000 0.205655 0.500000
O O1 0.428026 0.500000 0.430058
O O2 0.369200 0.243717 0.428894
O O3 0.438663 0.262530 0.367638
O O4 0.458481 0.214402 0.458915
O O5 0.810510 0.262964 0.355465
O O6 0.725671 0.266981 0.410226
O O7 0.727827 0.210895 0.320401
O O8 0.763696 0.000000 0.380760
O O9 0.821908 0.259922 0.262816
O O10 0.900225 0.243363 0.312563
O O11 0.840530 0.000000 0.311962
O O12 0.307863 0.237250 0.500000
O O13 0.321088 0.500000 0.449598
O O14 0.862668 0.222277 0.816364
O O15 0.800465 0.000000 0.789124
O O16 0.087421 0.500000 0.179678
O O17 0.059059 0.749104 0.229901
O O18 0.500000 0.740431 0.198237
O O19 0.447685 0.000000 0.213911
#
# Coordination Sequence:
#
# PCOD9518207 Si02
#       8
#    16  16  16  16  16  16  16   4
#     4  11  21  36  54  70  91 124 170 221 270 317
#     4  11  21  33  51  76 104 133 165 207 261 310
#     4   9  20  34  49  74 105 134 170 210 246 299
#     4  10  21  37  55  73  97 131 172 215 261 315
#     4  10  18  31  50  72 100 133 169 206 249 306
#     4  10  20  33  50  71  97 128 165 212 262 310
#     4   9  19  35  52  72 102 138 170 203 248 298
#     4  12  25  40  57  74  93 128 177 234 283 312
#
# _framework density 18.299512
#
# number of rings (size 3 to 8) (size 9 to 14) (size 15 to 20)
#    0.000    1.931    2.069    2.276    0.966    2.759 
#    0.000    0.690    0.000    0.000    0.000    0.000 
#    0.000    0.552    0.000    6.069    0.000    4.414 
#
# Total GULP energy -323218.151843 kJ/mol
# GULP energy per Si atom -5572.726756 kJ/mol
# Density = 1.825786 g / cm^3
# Si number density = 18.299512 Si / 1000 Ang^3
#
#
#
# Elastic Constant Matrix: (Units=GPa)
#
#
# Indices 1 2 3 4 5 6 
#
# 1 132.6942 3.7172 64.5350 0.0000 0.0000 0.0000
# 2 3.7172 20.1608 8.5993 0.0000 0.0000 0.0000
# 3 64.5350 8.5993 67.5132 0.0000 0.0000 0.0000
# 4 0.0000 0.0000 0.0000 -49.7314 0.0000 0.0000
# 5 0.0000 0.0000 0.0000 0.0000 216.1554 0.0000
# 6 0.0000 0.0000 0.0000 0.0000 0.0000 112.0372
#
#
#
# Elastic Compliance Matrix: (Units=1/GPa)
#
#
# Indices 1 2 3 4 5 6 
#
# 1 0.014297 0.003377 -0.014097 0.000000 0.000000 0.000000
# 2 0.003377 0.053248 -0.010010 0.000000 0.000000 0.000000
# 3 -0.014097 -0.010010 0.029562 0.000000 0.000000 0.000000
# 4 0.000000 0.000000 0.000000 -0.020108 0.000000 0.000000
# 5 0.000000 0.000000 0.000000 0.000000 0.004626 0.000000
# 6 0.000000 0.000000 0.000000 0.000000 0.000000 0.008926
#
#
# Mechanical properties :
#
#
# Convention : Reuss Voigt Hill
#
# Bulk Modulus (GPa) = 17.97035 41.56347 29.76691
# Shear Modulus (GPa) = 33.20907 65.26002 49.23455
#
# Velocity S-wave (km/s) = 4.26461 5.97826 5.19261
# Velocity P-wave (km/s) = 5.83872 8.39136 7.22861
#
# Compressibility (1/GPa) = 0.05564722
#
# Stress axis : x y z
#
# Youngs Moduli (GPa) = 69.94253 18.77991 33.82729
#
# Poissons Ratio (x) = -0.06341 0.47686
# Poissons Ratio (y) = -0.23618 0.33862
# Poissons Ratio (z) = 0.98597 0.18799
#
# Static dielectric constant tensor:
#      x y z
#    x 1.670640 0.000000 0.000000 
#    y 0.000000 1.666230 0.000000 
#    z 0.000000 0.000000 1.623810 
# 
# From -- ./inp_files/71017.got.cif
#   From: 2010.05.17/outbox.cif.g08.bks.cpg/sg71_36_cif.got.tgz:71017.got - 2010.06.03 16:22:01.
