data_PCOD9518026
_publ_section_title
;
Structure prediction by ZEFSAII (Michael W. Deem and Ramdas Pophale) SiO2 
 PCOD9518026
Probable space group: I M M M
;
_chemical_formula_sum "Si O2"
_cell_formula_units_Z 50
_cell_length_a 18.613707
_cell_length_b 12.590713
_cell_length_c 12.186467
_cell_angle_alpha 90.000000
_cell_angle_beta 90.000000
_cell_angle_gamma 90.000000
_cell_volume 2856.018489
_symmetry_space_group_name_H-M "I M M M"
_symmetry_group_IT_number 71
_symmetry_cell_setting 'orthorhombic'
loop_
_space_group_symop_operation_xyz
x,y,z
-x,-y,z
x,-y,-z
-x,y,-z
-x,-y,-z
x,y,-z
-x,y,z
x,-y,z
1/2+x,1/2+y,1/2+z
1/2-x,1/2-y,1/2+z
1/2+x,1/2-y,1/2-z
1/2-x,1/2+y,1/2-z
1/2-x,1/2-y,1/2-z
1/2+x,1/2+y,1/2-z
1/2-x,1/2+y,1/2+z
1/2+x,1/2-y,1/2+z
loop_
_atom_site_type_symbol
_atom_site_label
_atom_site_fract_x
_atom_site_fract_y
_atom_site_fract_z
Si Si1 0.709554 0.620205 0.131272
Si Si2 0.500000 0.500000 0.500000
Si Si3 0.148938 0.883668 0.000000
Si Si4 0.149459 0.272288 0.798939
Si Si5 0.000000 0.626126 0.868043
O O1 0.685356 0.500000 0.156695
O O2 0.788147 0.641108 0.183220
O O3 0.659291 0.709259 0.185590
O O4 0.714241 0.630573 0.000000
O O5 0.563958 0.409786 0.500000
O O6 0.165151 0.815434 0.892986
O O7 0.184971 0.000000 0.000000
O O8 0.071681 0.321193 0.819437
O O9 0.000000 0.500000 0.846858
O O10 0.000000 0.640479 0.000000
#
# Coordination Sequence:
#
# PCOD9518026 Si02
#       5
#    16   2   8  16   8
#     4  10  21  38  57  79 111 152 189 225 272 333
#     4   8  20  28  48  72 128 124 168 218 292 326
#     4  10  18  30  48  83 111 141 169 225 280 324
#     4  11  20  35  58  83 113 143 185 232 280 329
#     4  11  21  35  59  89 115 142 179 230 288 336
#
# _framework density 17.506889000000001
#
# number of rings (size 3 to 8) (size 9 to 14) (size 15 to 20)
#    0.480    1.120    3.200    2.880    0.000    2.560 
#    0.000    0.800    0.000    2.880    0.000    0.000 
#    0.000    0.000    0.000    0.000    0.000    0.000 
#
# Total GULP energy -139177.353131 kJ/mol
# GULP energy per Si atom -5567.094125 kJ/mol
# Density = 1.746704 g / cm^3
# Si number density = 17.506889 Si / 1000 Ang^3
#
#
#
# Elastic Constant Matrix: (Units=GPa)
#
#
# Indices 1 2 3 4 5 6 
#
# 1 95.9565 40.0924 23.5507 0.0000 0.0000 0.0000
# 2 40.0924 107.0296 41.0280 0.0000 0.0000 0.0000
# 3 23.5507 41.0280 62.6035 0.0000 0.0000 0.0000
# 4 0.0000 0.0000 0.0000 27.3336 0.0000 0.0000
# 5 0.0000 0.0000 0.0000 0.0000 15.9102 0.0000
# 6 0.0000 0.0000 0.0000 0.0000 0.0000 25.4506
#
#
#
# Elastic Compliance Matrix: (Units=1/GPa)
#
#
# Indices 1 2 3 4 5 6 
#
# 1 0.012577 -0.003870 -0.002195 0.000000 0.000000 0.000000
# 2 -0.003870 0.013669 -0.007502 0.000000 0.000000 0.000000
# 3 -0.002195 -0.007502 0.021716 0.000000 0.000000 0.000000
# 4 0.000000 0.000000 0.000000 0.036585 0.000000 0.000000
# 5 0.000000 0.000000 0.000000 0.000000 0.062853 0.000000
# 6 0.000000 0.000000 0.000000 0.000000 0.000000 0.039292
#
#
# Mechanical properties :
#
#
# Convention : Reuss Voigt Hill
#
# Bulk Modulus (GPa) = 48.01374 52.77019 50.39197
# Shear Modulus (GPa) = 22.64823 24.46678 23.55751
#
# Velocity S-wave (km/s) = 3.60067 3.74244 3.67224
# Velocity P-wave (km/s) = 6.69116 6.99160 6.84303
#
# Compressibility (1/GPa) = 0.02082737
#
# Stress axis : x y z
#
# Youngs Moduli (GPa) = 79.51015 73.16040 46.04906
#
# Poissons Ratio (x) = 0.28311 0.10109
# Poissons Ratio (y) = 0.30768 0.34547
# Poissons Ratio (z) = 0.17454 0.54886
#
# Static dielectric constant tensor:
#      x y z
#    x 1.566850 0.000000 0.000000 
#    y 0.000000 1.636130 0.000000 
#    z 0.000000 0.000000 1.597000 
# 
# From -- ./inp_files/23063.got.cif
#   From: 2010.05.17/outbox.cif.g08.bks.cpg/sg71_12_cif.got.tgz:23063.got - 2010.06.03 16:22:01.
