data_PCOD9518033
_publ_section_title
;
Structure prediction by ZEFSAII (Michael W. Deem and Ramdas Pophale) SiO2 
 PCOD9518033
Probable space group: I M M M
;
_chemical_formula_sum "Si O2"
_cell_formula_units_Z 88
_cell_length_a 19.913239
_cell_length_b 28.907393
_cell_length_c 7.384501
_cell_angle_alpha 90.000000
_cell_angle_beta 90.000000
_cell_angle_gamma 90.000000
_cell_volume 4250.812868
_symmetry_space_group_name_H-M "I M M M"
_symmetry_group_IT_number 71
_symmetry_cell_setting 'orthorhombic'
loop_
_space_group_symop_operation_xyz
x,y,z
-x,-y,z
x,-y,-z
-x,y,-z
-x,-y,-z
x,y,-z
-x,y,z
x,-y,z
1/2+x,1/2+y,1/2+z
1/2-x,1/2-y,1/2+z
1/2+x,1/2-y,1/2-z
1/2-x,1/2+y,1/2-z
1/2-x,1/2-y,1/2-z
1/2+x,1/2+y,1/2-z
1/2-x,1/2+y,1/2+z
1/2+x,1/2-y,1/2+z
loop_
_atom_site_type_symbol
_atom_site_label
_atom_site_fract_x
_atom_site_fract_y
_atom_site_fract_z
Si Si1 0.690962 0.187894 0.219498
Si Si2 0.155041 0.212148 0.713225
Si Si3 0.577948 0.000000 0.221709
Si Si4 0.160789 0.587913 0.290144
Si Si5 0.076104 0.124555 0.721630
Si Si6 0.690056 0.447008 0.780767
O O1 0.769824 0.191555 0.266824
O O2 0.657533 0.235585 0.286078
O O3 0.659731 0.139868 0.286828
O O4 0.688207 0.187639 0.000000
O O5 0.141286 0.216508 0.500000
O O6 0.103109 0.174479 0.784523
O O7 0.615902 0.953663 0.286085
O O8 0.500000 0.000000 0.270731
O O9 0.582293 0.000000 0.000000
O O10 0.140610 0.592309 0.500000
O O11 0.238118 0.571782 0.281935
O O12 0.077002 0.124783 0.500000
O O13 0.129429 0.085821 0.778813
O O14 0.000000 0.115638 0.777934
O O15 0.681411 0.500000 0.723214
O O16 0.691514 0.446150 0.000000
#
# Coordination Sequence:
#
# PCOD9518033 Si02
#       6
#    16  16   8  16  16  16
#     4   9  17  27  44  70  93 114 149 193 230 266
#     4   9  16  28  45  66  92 120 151 187 229 272
#     4   9  18  32  49  69  94 125 154 182 229 287
#     4  10  18  30  49  71  94 121 153 191 231 274
#     4   9  17  29  45  66  95 128 157 189 232 277
#     4  10  19  30  47  71  94 119 157 197 230 270
#
# _framework density 20.701924000000002
#
# number of rings (size 3 to 8) (size 9 to 14) (size 15 to 20)
#    0.000    2.636    2.727    0.000    0.000    0.364 
#    0.000    2.727    0.000    8.727    0.000    1.273 
#    0.000    4.364    0.000    0.000    0.000    0.000 
#
# Total GULP energy -245552.790663 kJ/mol
# GULP energy per Si atom -5580.745242 kJ/mol
# Density = 2.065481 g / cm^3
# Si number density = 20.701924 Si / 1000 Ang^3
#
#
#
# Elastic Constant Matrix: (Units=GPa)
#
#
# Indices 1 2 3 4 5 6 
#
# 1 94.8716 64.5055 -8.1848 0.0000 0.0000 0.0000
# 2 64.5055 188.9255 -1.6224 0.0000 0.0000 0.0000
# 3 -8.1848 -1.6224 68.0471 0.0000 0.0000 0.0000
# 4 0.0000 0.0000 0.0000 2.0442 0.0000 0.0000
# 5 0.0000 0.0000 0.0000 0.0000 14.7051 0.0000
# 6 0.0000 0.0000 0.0000 0.0000 0.0000 31.6044
#
#
#
# Elastic Compliance Matrix: (Units=1/GPa)
#
#
# Indices 1 2 3 4 5 6 
#
# 1 0.013891 -0.004729 0.001558 0.000000 0.000000 0.000000
# 2 -0.004729 0.006904 -0.000404 0.000000 0.000000 0.000000
# 3 0.001558 -0.000404 0.014873 0.000000 0.000000 0.000000
# 4 0.000000 0.000000 0.000000 0.489178 0.000000 0.000000
# 5 0.000000 0.000000 0.000000 0.000000 0.068004 0.000000
# 6 0.000000 0.000000 0.000000 0.000000 0.000000 0.031641
#
#
# Mechanical properties :
#
#
# Convention : Reuss Voigt Hill
#
# Bulk Modulus (GPa) = 35.06644 51.24898 43.15771
# Shear Modulus (GPa) = 7.79851 29.48048 18.63949
#
# Velocity S-wave (km/s) = 1.94299 3.77775 3.00388
# Velocity P-wave (km/s) = 4.69139 6.62102 5.73790
#
# Compressibility (1/GPa) = 0.02851730
#
# Stress axis : x y z
#
# Youngs Moduli (GPa) = 71.99141 144.83589 67.23385
#
# Poissons Ratio (x) = 0.68497 -0.10475
# Poissons Ratio (y) = 0.34047 0.02718
# Poissons Ratio (z) = -0.11216 0.05855
#
# Static dielectric constant tensor:
#      x y z
#    x 1.671110 0.000000 0.000000 
#    y 0.000000 1.762670 0.000000 
#    z 0.000000 0.000000 1.539920 
# 
# From -- ./inp_files/8861.got.cif
#   From: 2010.05.17/outbox.cif.g08.bks.cpg/sg71_5_cif.got.tgz:8861.got - 2010.06.03 16:22:01.
