data_PCOD9518258
_publ_section_title
;
Structure prediction by ZEFSAII (Michael W. Deem and Ramdas Pophale) SiO2 
 PCOD9518258
Probable space group: I M M M
;
_chemical_formula_sum "Si O2"
_cell_formula_units_Z 80
_cell_length_a 28.994881
_cell_length_b 8.595343
_cell_length_c 18.188865
_cell_angle_alpha 90.000000
_cell_angle_beta 90.000000
_cell_angle_gamma 90.000000
_cell_volume 4533.046168
_symmetry_space_group_name_H-M "I M M M"
_symmetry_group_IT_number 71
_symmetry_cell_setting 'orthorhombic'
loop_
_space_group_symop_operation_xyz
x,y,z
-x,-y,z
x,-y,-z
-x,y,-z
-x,-y,-z
x,y,-z
-x,y,z
x,-y,z
1/2+x,1/2+y,1/2+z
1/2-x,1/2-y,1/2+z
1/2+x,1/2-y,1/2-z
1/2-x,1/2+y,1/2-z
1/2-x,1/2-y,1/2-z
1/2+x,1/2+y,1/2-z
1/2-x,1/2+y,1/2+z
1/2+x,1/2-y,1/2+z
loop_
_atom_site_type_symbol
_atom_site_label
_atom_site_fract_x
_atom_site_fract_y
_atom_site_fract_z
Si Si1 0.643394 0.185020 0.704411
Si Si2 0.553425 0.311224 0.758432
Si Si3 0.055889 0.818571 0.578729
Si Si4 0.214142 0.185583 0.689357
Si Si5 0.715046 0.686195 0.585090
O O1 0.591006 0.244004 0.703118
O O2 0.666156 0.251486 0.779601
O O3 0.674630 0.247638 0.637274
O O4 0.645978 0.000000 0.705031
O O5 0.500000 0.269782 0.743798
O O6 0.555839 0.500000 0.759023
O O7 0.566490 0.252697 0.840983
O O8 0.071415 0.749554 0.500000
O O9 0.000000 0.819917 0.577296
O O10 0.070667 0.000000 0.579083
O O11 0.250000 0.250000 0.750000
O O12 0.236058 0.247751 0.614179
O O13 0.213802 0.000000 0.689508
O O14 0.707654 0.725766 0.500000
O O15 0.715652 0.500000 0.593417
#
# Coordination Sequence:
#
# PCOD9518258 Si02
#       5
#    16  16  16  16  16
#     4  11  21  33  51  74 104 139 174 211 252 302
#     4   9  17  30  49  72  99 134 177 222 264 306
#     4   7  10  19  38  63  87 112 148 196 245 288
#     4  10  18  31  52  75 101 130 163 201 244 298
#     4  10  20  35  56  80 105 131 162 205 258 313
#
# _framework density 17.648177
#
# number of rings (size 3 to 8) (size 9 to 14) (size 15 to 20)
#    0.000    2.600    0.000    8.400    0.000    2.000 
#    0.000    1.000    0.000    4.800    0.000    7.000 
#    0.000    0.000    0.000    0.000    0.000    0.000 
#
# Total GULP energy -222707.737512 kJ/mol
# GULP energy per Si atom -5567.693438 kJ/mol
# Density = 1.760801 g / cm^3
# Si number density = 17.648177 Si / 1000 Ang^3
#
#
#
# Elastic Constant Matrix: (Units=GPa)
#
#
# Indices 1 2 3 4 5 6 
#
# 1 99.9654 40.4998 50.3729 0.0000 0.0000 0.0000
# 2 40.4998 83.5653 43.6566 0.0000 0.0000 0.0000
# 3 50.3729 43.6566 95.8521 0.0000 0.0000 0.0000
# 4 0.0000 0.0000 0.0000 16.2974 0.0000 0.0000
# 5 0.0000 0.0000 0.0000 0.0000 20.3873 0.0000
# 6 0.0000 0.0000 0.0000 0.0000 0.0000 18.8497
#
#
#
# Elastic Compliance Matrix: (Units=1/GPa)
#
#
# Indices 1 2 3 4 5 6 
#
# 1 0.014566 -0.004016 -0.005826 0.000000 0.000000 0.000000
# 2 -0.004016 0.016810 -0.005546 0.000000 0.000000 0.000000
# 3 -0.005826 -0.005546 0.016020 0.000000 0.000000 0.000000
# 4 0.000000 0.000000 0.000000 0.061360 0.000000 0.000000
# 5 0.000000 0.000000 0.000000 0.000000 0.049050 0.000000
# 6 0.000000 0.000000 0.000000 0.000000 0.000000 0.053051
#
#
# Mechanical properties :
#
#
# Convention : Reuss Voigt Hill
#
# Bulk Modulus (GPa) = 60.16322 60.93792 60.55057
# Shear Modulus (GPa) = 20.22871 20.76377 20.49624
#
# Velocity S-wave (km/s) = 3.38926 3.43379 3.41160
# Velocity P-wave (km/s) = 7.03423 7.09405 7.06420
#
# Compressibility (1/GPa) = 0.01662145
#
# Stress axis : x y z
#
# Youngs Moduli (GPa) = 68.65254 59.48729 62.42076
#
# Poissons Ratio (x) = 0.23889 0.36365
# Poissons Ratio (y) = 0.27570 0.34618
# Poissons Ratio (z) = 0.39996 0.32991
#
# Static dielectric constant tensor:
#      x y z
#    x 1.608490 0.000000 0.000000 
#    y 0.000000 1.592870 0.000000 
#    z 0.000000 0.000000 1.637020 
# 
# From -- ./inp_files/16784.got.cif
#   From: 2010.05.17/outbox.cif.g08.bks.cpg/sg71_9_cif.got.tgz:16784.got - 2010.06.03 16:22:01.
