data_PCOD9518481
_publ_section_title
;
Structure prediction by ZEFSAII (Michael W. Deem and Ramdas Pophale) SiO2 
 PCOD9518481
Probable space group: I M M M
;
_chemical_formula_sum "Si O2"
_cell_formula_units_Z 80
_cell_length_a 23.988671
_cell_length_b 11.897692
_cell_length_c 14.020351
_cell_angle_alpha 90.000000
_cell_angle_beta 90.000000
_cell_angle_gamma 90.000000
_cell_volume 4001.545842
_symmetry_space_group_name_H-M "I M M M"
_symmetry_group_IT_number 71
_symmetry_cell_setting 'orthorhombic'
loop_
_space_group_symop_operation_xyz
x,y,z
-x,-y,z
x,-y,-z
-x,y,-z
-x,-y,-z
x,y,-z
-x,y,z
x,-y,z
1/2+x,1/2+y,1/2+z
1/2-x,1/2-y,1/2+z
1/2+x,1/2-y,1/2-z
1/2-x,1/2+y,1/2-z
1/2-x,1/2-y,1/2-z
1/2+x,1/2+y,1/2-z
1/2-x,1/2+y,1/2+z
1/2+x,1/2-y,1/2+z
loop_
_atom_site_type_symbol
_atom_site_label
_atom_site_fract_x
_atom_site_fract_y
_atom_site_fract_z
Si Si1 0.439595 0.000000 0.348530
Si Si2 0.392415 0.633969 0.390712
Si Si3 0.163872 0.632200 0.384736
Si Si4 0.723458 0.756867 0.384896
Si Si5 0.810939 0.500000 0.109027
Si Si6 0.060658 0.274941 0.724266
O O1 0.378414 0.000000 0.394947
O O2 0.440163 0.109892 0.283793
O O3 0.500000 0.000000 0.399971
O O4 0.407251 0.671933 0.500000
O O5 0.392554 0.500000 0.391210
O O6 0.330941 0.681352 0.368194
O O7 0.429734 0.681540 0.305555
O O8 0.163016 0.629902 0.500000
O O9 0.161791 0.500000 0.353532
O O10 0.220298 0.695735 0.353349
O O11 0.111784 0.704548 0.346852
O O12 0.727561 0.764300 0.500000
O O13 0.711068 0.882991 0.348636
O O14 0.791115 0.500000 0.000000
O O15 0.000000 0.259112 0.677871
#
# Coordination Sequence:
#
# PCOD9518481 Si02
#       6
#     8  16  16  16   8  16
#     4  10  20  35  53  80 120 156 190 239 288 344
#     4  10  21  39  62  88 120 157 195 237 291 355
#     4  10  21  39  63  88 117 155 196 244 303 357
#     4   9  18  34  57  87 120 152 192 242 294 355
#     4  10  18  33  56  85 122 158 192 238 294 354
#     4  11  23  39  59  86 119 153 199 250 291 346
#
# _framework density 19.992274999999999
#
# number of rings (size 3 to 8) (size 9 to 14) (size 15 to 20)
#    0.000    2.000    3.000    0.600    0.000    4.600 
#    1.800    4.000    0.000    0.000    0.000    1.400 
#    0.000    0.000    0.000    0.000    0.000    0.000 
#
# Total GULP energy -223105.095027 kJ/mol
# GULP energy per Si atom -5577.627376 kJ/mol
# Density = 1.994677 g / cm^3
# Si number density = 19.992275 Si / 1000 Ang^3
#
#
#
# Elastic Constant Matrix: (Units=GPa)
#
#
# Indices 1 2 3 4 5 6 
#
# 1 126.8974 38.6640 26.6437 0.0000 0.0000 0.0000
# 2 38.6640 103.3506 27.6947 0.0000 0.0000 0.0000
# 3 26.6437 27.6947 53.5004 0.0000 0.0000 0.0000
# 4 0.0000 0.0000 0.0000 53.8673 0.0000 0.0000
# 5 0.0000 0.0000 0.0000 0.0000 33.3912 0.0000
# 6 0.0000 0.0000 0.0000 0.0000 0.0000 28.2359
#
#
#
# Elastic Compliance Matrix: (Units=1/GPa)
#
#
# Indices 1 2 3 4 5 6 
#
# 1 0.009374 -0.002619 -0.003312 0.000000 0.000000 0.000000
# 2 -0.002619 0.011966 -0.004890 0.000000 0.000000 0.000000
# 3 -0.003312 -0.004890 0.022872 0.000000 0.000000 0.000000
# 4 0.000000 0.000000 0.000000 0.018564 0.000000 0.000000
# 5 0.000000 0.000000 0.000000 0.000000 0.029948 0.000000
# 6 0.000000 0.000000 0.000000 0.000000 0.000000 0.035416
#
#
# Mechanical properties :
#
#
# Convention : Reuss Voigt Hill
#
# Bulk Modulus (GPa) = 44.30812 52.19478 48.25145
# Shear Modulus (GPa) = 31.78509 35.81527 33.80018
#
# Velocity S-wave (km/s) = 3.99164 4.23715 4.11623
# Velocity P-wave (km/s) = 6.59204 7.07828 6.83948
#
# Compressibility (1/GPa) = 0.02256923
#
# Stress axis : x y z
#
# Youngs Moduli (GPa) = 106.67912 83.57022 43.72093
#
# Poissons Ratio (x) = 0.21889 0.14482
# Poissons Ratio (y) = 0.27941 0.21379
# Poissons Ratio (z) = 0.35337 0.40865
#
# Static dielectric constant tensor:
#      x y z
#    x 1.725950 0.000000 0.000000 
#    y 0.000000 1.674510 0.000000 
#    z 0.000000 0.000000 1.752870 
# 
# From -- ./inp_files/48026.got.cif
#   From: 2010.05.17/outbox.cif.g08.bks.cpg/sg71_25_cif.got.tgz:48026.got - 2010.06.03 16:22:01.
