data_PCOD9518359
_publ_section_title
;
Structure prediction by ZEFSAII (Michael W. Deem and Ramdas Pophale) SiO2 
 PCOD9518359
Probable space group: I M M M
;
_chemical_formula_sum "Si O2"
_cell_formula_units_Z 128
_cell_length_a 22.304724
_cell_length_b 25.429401
_cell_length_c 12.821456
_cell_angle_alpha 90.000000
_cell_angle_beta 90.000000
_cell_angle_gamma 90.000000
_cell_volume 7272.275619
_symmetry_space_group_name_H-M "I M M M"
_symmetry_group_IT_number 71
_symmetry_cell_setting 'orthorhombic'
loop_
_space_group_symop_operation_xyz
x,y,z
-x,-y,z
x,-y,-z
-x,y,-z
-x,-y,-z
x,y,-z
-x,y,z
x,-y,z
1/2+x,1/2+y,1/2+z
1/2-x,1/2-y,1/2+z
1/2+x,1/2-y,1/2-z
1/2-x,1/2+y,1/2-z
1/2-x,1/2-y,1/2-z
1/2+x,1/2+y,1/2-z
1/2-x,1/2+y,1/2+z
1/2+x,1/2-y,1/2+z
loop_
_atom_site_type_symbol
_atom_site_label
_atom_site_fract_x
_atom_site_fract_y
_atom_site_fract_z
Si Si1 0.762831 0.800484 0.378499
Si Si2 0.930392 0.561227 0.310756
Si Si3 0.351791 0.239795 0.730435
Si Si4 0.355098 0.845440 0.882969
Si Si5 0.141058 0.059452 0.875304
Si Si6 0.359868 0.937666 0.616504
Si Si7 0.752519 0.396223 0.257787
Si Si8 0.571029 0.332513 0.625231
O O1 0.773485 0.801607 0.500000
O O2 0.693627 0.784637 0.355067
O O3 0.806589 0.761165 0.318991
O O4 0.776203 0.855659 0.323102
O O5 0.912960 0.500000 0.325040
O O6 0.891726 0.600414 0.379355
O O7 0.915944 0.576056 0.190106
O O8 0.000000 0.566172 0.333410
O O9 0.382982 0.192805 0.794731
O O10 0.392664 0.285983 0.683810
O O11 0.288555 0.861381 0.843202
O O12 0.354561 0.823991 0.000000
O O13 0.203102 0.068850 0.813944
O O14 0.098366 0.109458 0.850232
O O15 0.118135 0.000000 0.852696
O O16 0.151847 0.061857 0.000000
O O17 0.357761 0.913862 0.500000
O O18 0.302651 0.924886 0.688383
O O19 0.361710 0.000000 0.604225
O O20 0.577980 0.325051 0.500000
O O21 0.500000 0.330808 0.649123
#
# Coordination Sequence:
#
# PCOD9518359 Si02
#       8
#    16  16  16  16  16  16  16  16
#     4  10  19  31  53  80 107 140 176 216 264 318
#     4   9  19  35  52  71  99 138 183 226 269 319
#     4  10  20  35  53  81 110 142 177 221 267 324
#     4  10  21  34  52  77 108 142 179 223 271 322
#     4  10  20  34  55  83 112 143 182 225 273 331
#     4   9  17  29  47  72 102 135 171 214 263 313
#     4  10  18  32  50  77 111 140 172 214 267 323
#     4  10  21  38  59  82 112 148 183 224 275 327
#
# _framework density 17.601092999999999
#
# number of rings (size 3 to 8) (size 9 to 14) (size 15 to 20)
#    0.000    2.250    1.250    1.875    0.000    2.000 
#    0.000    3.750    0.000    1.125    0.000    0.000 
#    0.000    1.000    0.000    0.000    0.000    0.000 
#
# Total GULP energy -356497.550011 kJ/mol
# GULP energy per Si atom -5570.274219 kJ/mol
# Density = 1.756103 g / cm^3
# Si number density = 17.601093 Si / 1000 Ang^3
#
#
#
# Elastic Constant Matrix: (Units=GPa)
#
#
# Indices 1 2 3 4 5 6 
#
# 1 46.6619 28.3435 22.1688 0.0000 0.0000 0.0000
# 2 28.3435 77.8080 39.9933 0.0000 0.0000 0.0000
# 3 22.1688 39.9933 77.5717 0.0000 0.0000 0.0000
# 4 0.0000 0.0000 0.0000 22.9994 0.0000 0.0000
# 5 0.0000 0.0000 0.0000 0.0000 12.6124 0.0000
# 6 0.0000 0.0000 0.0000 0.0000 0.0000 22.0361
#
#
#
# Elastic Compliance Matrix: (Units=1/GPa)
#
#
# Indices 1 2 3 4 5 6 
#
# 1 0.028309 -0.008373 -0.003774 0.000000 0.000000 0.000000
# 2 -0.008373 0.019962 -0.007899 0.000000 0.000000 0.000000
# 3 -0.003774 -0.007899 0.018042 0.000000 0.000000 0.000000
# 4 0.000000 0.000000 0.000000 0.043479 0.000000 0.000000
# 5 0.000000 0.000000 0.000000 0.000000 0.079287 0.000000
# 6 0.000000 0.000000 0.000000 0.000000 0.000000 0.045380
#
#
# Mechanical properties :
#
#
# Convention : Reuss Voigt Hill
#
# Bulk Modulus (GPa) = 38.13458 42.56144 40.34801
# Shear Modulus (GPa) = 17.64963 18.96533 18.30748
#
# Velocity S-wave (km/s) = 3.17007 3.28610 3.22861
# Velocity P-wave (km/s) = 5.92555 6.21543 6.07222
#
# Compressibility (1/GPa) = 0.02622292
#
# Stress axis : x y z
#
# Youngs Moduli (GPa) = 35.32398 50.09461 55.42550
#
# Poissons Ratio (x) = 0.41943 0.20916
# Poissons Ratio (y) = 0.29576 0.43781
# Poissons Ratio (z) = 0.13330 0.39570
#
# Static dielectric constant tensor:
#      x y z
#    x 1.613860 0.000000 0.000000 
#    y 0.000000 1.658770 0.000000 
#    z 0.000000 0.000000 1.599000 
# 
# From -- ./inp_files/27858.got.cif
#   From: 2010.05.17/outbox.cif.g08.bks.cpg/sg71_14_cif.got.tgz:27858.got - 2010.06.03 16:22:01.
