data_PCOD9518626
_publ_section_title
;
Structure prediction by ZEFSAII (Michael W. Deem and Ramdas Pophale) SiO2 
 PCOD9518626
Probable space group: I M M M
;
_chemical_formula_sum "Si O2"
_cell_formula_units_Z 96
_cell_length_a 17.254469
_cell_length_b 14.219089
_cell_length_c 25.665855
_cell_angle_alpha 90.000000
_cell_angle_beta 90.000000
_cell_angle_gamma 90.000000
_cell_volume 6296.933509
_symmetry_space_group_name_H-M "I M M M"
_symmetry_group_IT_number 71
_symmetry_cell_setting 'orthorhombic'
loop_
_space_group_symop_operation_xyz
x,y,z
-x,-y,z
x,-y,-z
-x,y,-z
-x,-y,-z
x,y,-z
-x,y,z
x,-y,z
1/2+x,1/2+y,1/2+z
1/2-x,1/2-y,1/2+z
1/2+x,1/2-y,1/2-z
1/2-x,1/2+y,1/2-z
1/2-x,1/2-y,1/2-z
1/2+x,1/2+y,1/2-z
1/2-x,1/2+y,1/2+z
1/2+x,1/2-y,1/2+z
loop_
_atom_site_type_symbol
_atom_site_label
_atom_site_fract_x
_atom_site_fract_y
_atom_site_fract_z
Si Si1 0.594002 0.890417 0.442230
Si Si2 0.906678 0.270384 0.158219
Si Si3 0.000000 0.385128 0.439876
Si Si4 0.906839 0.389691 0.739670
Si Si5 0.411986 0.386120 0.500000
Si Si6 0.351841 0.113996 0.126430
Si Si7 0.823482 0.887199 0.106458
O O1 0.618943 0.857276 0.500000
O O2 0.500000 0.888359 0.442075
O O3 0.618705 0.830904 0.392372
O O4 0.616292 0.000000 0.436732
O O5 0.887128 0.326490 0.210655
O O6 0.866436 0.169952 0.151691
O O7 0.000000 0.260333 0.156338
O O8 0.077170 0.353684 0.409592
O O9 0.000000 0.500000 0.439160
O O10 0.000000 0.356121 0.500000
O O11 0.888907 0.500000 0.749628
O O12 0.866083 0.358356 0.686335
O O13 0.000000 0.384739 0.731391
O O14 0.417146 0.500000 0.500000
O O15 0.500000 0.348033 0.500000
O O16 0.366462 0.361953 0.552475
O O17 0.266946 0.139651 0.106112
O O18 0.355287 0.000000 0.126213
O O19 0.828928 0.000000 0.113169
#
# Coordination Sequence:
#
# PCOD9518626 Si02
#       7
#    16  16   8  16   8  16  16
#     4   8  14  25  40  59  83 108 140 187 233 266
#     4  10  19  28  43  64  85 120 160 187 218 264
#     4   9  16  26  46  70  90 114 142 176 229 288
#     4   9  16  29  48  68  90 114 146 185 230 283
#     4   9  18  32  46  57  80 122 160 187 211 240
#     4   9  17  30  46  66  90 116 144 184 232 275
#     4  10  21  32  43  62  89 121 159 194 221 256
#
# _framework density 15.245516
#
# number of rings (size 3 to 8) (size 9 to 14) (size 15 to 20)
#    0.000    2.833    0.833    1.500    2.333    3.667 
#    0.000    0.000    0.000    0.000    0.000    0.000 
#    0.000    0.000    0.000    0.500    0.000    8.000 
#
# Total GULP energy -267383.471113 kJ/mol
# GULP energy per Si atom -5570.488982 kJ/mol
# Density = 1.521082 g / cm^3
# Si number density = 15.245516 Si / 1000 Ang^3
#
#
#
# Elastic Constant Matrix: (Units=GPa)
#
#
# Indices 1 2 3 4 5 6 
#
# 1 87.7985 29.2009 69.2673 0.0000 0.0000 0.0000
# 2 29.2009 42.3290 36.9601 0.0000 0.0000 0.0000
# 3 69.2673 36.9601 121.3082 0.0000 0.0000 0.0000
# 4 0.0000 0.0000 0.0000 9.5800 0.0000 0.0000
# 5 0.0000 0.0000 0.0000 0.0000 17.8927 0.0000
# 6 0.0000 0.0000 0.0000 0.0000 0.0000 10.5138
#
#
#
# Elastic Compliance Matrix: (Units=1/GPa)
#
#
# Indices 1 2 3 4 5 6 
#
# 1 0.021675 -0.005649 -0.010655 0.000000 0.000000 0.000000
# 2 -0.005649 0.033659 -0.007030 0.000000 0.000000 0.000000
# 3 -0.010655 -0.007030 0.016470 0.000000 0.000000 0.000000
# 4 0.000000 0.000000 0.000000 0.104384 0.000000 0.000000
# 5 0.000000 0.000000 0.000000 0.000000 0.055889 0.000000
# 6 0.000000 0.000000 0.000000 0.000000 0.000000 0.095113
#
#
# Mechanical properties :
#
#
# Convention : Reuss Voigt Hill
#
# Bulk Modulus (GPa) = 39.78361 58.03249 48.90805
# Shear Modulus (GPa) = 13.08091 15.33112 14.20602
#
# Velocity S-wave (km/s) = 2.93237 3.17458 3.05588
# Velocity P-wave (km/s) = 6.13327 7.18229 6.67841
#
# Compressibility (1/GPa) = 0.02513598
#
# Stress axis : x y z
#
# Youngs Moduli (GPa) = 46.13666 29.70933 60.71795
#
# Poissons Ratio (x) = 0.16782 0.64697
# Poissons Ratio (y) = 0.26061 0.42685
# Poissons Ratio (z) = 0.49160 0.20886
#
# Static dielectric constant tensor:
#      x y z
#    x 1.499240 0.000000 0.000000 
#    y 0.000000 1.511210 0.000000 
#    z 0.000000 0.000000 1.513640 
# 
# From -- ./inp_files/59841.got.cif
#   From: 2010.05.17/outbox.cif.g08.bks.cpg/sg71_30_cif.got.tgz:59841.got - 2010.06.03 16:22:01.
