data_PCOD9518700
_publ_section_title
;
Structure prediction by ZEFSAII (Michael W. Deem and Ramdas Pophale) SiO2 
 PCOD9518700
Probable space group: I M M M
;
_chemical_formula_sum "Si O2"
_cell_formula_units_Z 54
_cell_length_a 18.981972
_cell_length_b 12.584528
_cell_length_c 11.662761
_cell_angle_alpha 90.000000
_cell_angle_beta 90.000000
_cell_angle_gamma 90.000000
_cell_volume 2785.990529
_symmetry_space_group_name_H-M "I M M M"
_symmetry_group_IT_number 71
_symmetry_cell_setting 'orthorhombic'
loop_
_space_group_symop_operation_xyz
x,y,z
-x,-y,z
x,-y,-z
-x,y,-z
-x,-y,-z
x,y,-z
-x,y,z
x,-y,z
1/2+x,1/2+y,1/2+z
1/2-x,1/2-y,1/2+z
1/2+x,1/2-y,1/2-z
1/2-x,1/2+y,1/2-z
1/2-x,1/2-y,1/2-z
1/2+x,1/2+y,1/2-z
1/2-x,1/2+y,1/2+z
1/2+x,1/2-y,1/2+z
loop_
_atom_site_type_symbol
_atom_site_label
_atom_site_fract_x
_atom_site_fract_y
_atom_site_fract_z
Si Si1 0.879213 0.177730 0.000000
Si Si2 0.707876 0.619432 0.136973
Si Si3 0.641235 0.804838 0.727712
Si Si4 0.257687 0.500000 0.500000
Si Si5 0.115693 0.500000 0.630255
Si Si6 0.500000 0.500000 0.500000
O O1 0.886049 0.251307 0.111791
O O2 0.805799 0.107000 0.000000
O O3 0.939131 0.091328 0.000000
O O4 0.685343 0.500000 0.168538
O O5 0.656625 0.708610 0.185597
O O6 0.784252 0.643938 0.189276
O O7 0.712846 0.626505 0.000000
O O8 0.599554 0.896137 0.794869
O O9 0.201097 0.500000 0.603986
O O10 0.086391 0.500000 0.500000
#
# Coordination Sequence:
#
# PCOD9518700 Si02
#       6
#     8  16  16   4   8   2
#     4  11  23  37  60  79 108 160 192 255 281 324
#     4  10  19  29  44  78 120 159 188 215 259 358
#     4  11  20  31  50  78 116 162 188 220 281 332
#     4   9  18  33  50  84 128 151 182 209 280 328
#     4  10  21  33  50  87 130 157 181 213 270 382
#     4  10  28  48  60  82 106 136 224 242 294 328
#
# _framework density 19.382694000000001
#
# number of rings (size 3 to 8) (size 9 to 14) (size 15 to 20)
#    0.444    1.185    2.963    4.444    4.148    0.593 
#    0.000    0.000    0.000    1.778    0.000    9.333 
#    0.000    0.000    0.000    0.000    0.000    0.000 
#
# Total GULP energy -150392.442328 kJ/mol
# GULP energy per Si atom -5570.090457 kJ/mol
# Density = 1.933858 g / cm^3
# Si number density = 19.382694 Si / 1000 Ang^3
#
#
#
# Elastic Constant Matrix: (Units=GPa)
#
#
# Indices 1 2 3 4 5 6 
#
# 1 26.8928 10.0672 -1.0798 0.0000 0.0000 0.0000
# 2 10.0672 179.0745 78.5591 0.0000 0.0000 0.0000
# 3 -1.0798 78.5591 113.3973 0.0000 0.0000 0.0000
# 4 0.0000 0.0000 0.0000 60.1087 0.0000 0.0000
# 5 0.0000 0.0000 0.0000 0.0000 -7.5701 0.0000
# 6 0.0000 0.0000 0.0000 0.0000 0.0000 -3.6526
#
#
#
# Elastic Compliance Matrix: (Units=1/GPa)
#
#
# Indices 1 2 3 4 5 6 
#
# 1 0.038544 -0.003344 0.002684 0.000000 0.000000 0.000000
# 2 -0.003344 0.008313 -0.005791 0.000000 0.000000 0.000000
# 3 0.002684 -0.005791 0.012856 0.000000 0.000000 0.000000
# 4 0.000000 0.000000 0.000000 0.016637 0.000000 0.000000
# 5 0.000000 0.000000 0.000000 0.000000 -0.132099 0.000000
# 6 0.000000 0.000000 0.000000 0.000000 0.000000 -0.273777
#
#
# Mechanical properties :
#
#
# Convention : Reuss Voigt Hill
#
# Bulk Modulus (GPa) = 21.36268 54.93974 38.15121
# Shear Modulus (GPa) = -16.61012 25.23175 4.31081
#
# Velocity S-wave (km/s) = -2.93056 3.61191 1.49294
# Velocity P-wave (km/s) = 0.63674 6.76763 4.76421
#
# Compressibility (1/GPa) = 0.04681061
#
# Stress axis : x y z
#
# Youngs Moduli (GPa) = 25.94412 120.29931 77.78638
#
# Poissons Ratio (x) = 0.40232 -0.20877
# Poissons Ratio (y) = 0.08676 0.45043
# Poissons Ratio (z) = -0.06963 0.69661
#
# Static dielectric constant tensor:
#      x y z
#    x 1.638860 0.000000 0.000000 
#    y 0.000000 1.680100 0.000000 
#    z 0.000000 0.000000 1.612140 
# 
# From -- ./inp_files/25106.got.cif
#   From: 2010.05.17/outbox.cif.g08.bks.cpg/sg71_13_cif.got.tgz:25106.got - 2010.06.03 16:22:01.
