data_PCOD9518313
_publ_section_title
;
Structure prediction by ZEFSAII (Michael W. Deem and Ramdas Pophale) SiO2 
 PCOD9518313
Probable space group: I M M M
;
_chemical_formula_sum "Si O2"
_cell_formula_units_Z 112
_cell_length_a 24.462608
_cell_length_b 16.100981
_cell_length_c 14.168930
_cell_angle_alpha 90.000000
_cell_angle_beta 90.000000
_cell_angle_gamma 90.000000
_cell_volume 5580.744607
_symmetry_space_group_name_H-M "I M M M"
_symmetry_group_IT_number 71
_symmetry_cell_setting 'orthorhombic'
loop_
_space_group_symop_operation_xyz
x,y,z
-x,-y,z
x,-y,-z
-x,y,-z
-x,-y,-z
x,y,-z
-x,y,z
x,-y,z
1/2+x,1/2+y,1/2+z
1/2-x,1/2-y,1/2+z
1/2+x,1/2-y,1/2-z
1/2-x,1/2+y,1/2-z
1/2-x,1/2-y,1/2-z
1/2+x,1/2+y,1/2-z
1/2-x,1/2+y,1/2+z
1/2+x,1/2-y,1/2+z
loop_
_atom_site_type_symbol
_atom_site_label
_atom_site_fract_x
_atom_site_fract_y
_atom_site_fract_z
Si Si1 0.935578 0.194281 0.894966
Si Si2 0.155461 0.671226 0.106175
Si Si3 0.732128 0.757304 0.888802
Si Si4 0.937412 0.139645 0.307578
Si Si5 0.668003 0.906935 0.199912
Si Si6 0.061746 0.672832 0.612636
Si Si7 0.825687 0.911168 0.387179
O O1 0.900562 0.277902 0.885102
O O2 0.924773 0.137212 0.804307
O O3 0.000000 0.213358 0.890624
O O4 0.923632 0.159738 0.000000
O O5 0.203789 0.738893 0.118723
O O6 0.161528 0.604963 0.188075
O O7 0.161119 0.637476 0.000000
O O8 0.710040 0.837366 0.836040
O O9 0.702645 0.673160 0.852267
O O10 0.718585 0.766724 0.000000
O O11 0.934446 0.236242 0.339790
O O12 0.889685 0.094494 0.363317
O O13 0.000000 0.111841 0.324187
O O14 0.609692 0.883645 0.153259
O O15 0.684047 0.000000 0.175023
O O16 0.068710 0.682903 0.500000
O O17 0.000000 0.641256 0.629821
O O18 0.818236 0.910525 0.500000
O O19 0.803832 0.000000 0.351157
#
# Coordination Sequence:
#
# PCOD9518313 Si02
#       7
#    16  16  16  16  16  16  16
#     4   9  17  32  58  87 110 141 189 237 286 345
#     4  10  21  38  60  82 111 152 195 245 297 340
#     4  10  21  39  60  84 118 155 193 238 289 347
#     4  10  18  31  54  82 113 148 188 237 291 343
#     4  12  24  37  58  87 120 158 198 241 288 342
#     4  10  20  35  56  82 115 156 196 234 282 343
#     4  10  20  34  55  83 115 153 194 236 287 347
#
# _framework density 20.069006000000002
#
# number of rings (size 3 to 8) (size 9 to 14) (size 15 to 20)
#    0.000    1.857    2.857    1.286    0.000    3.429 
#    0.000    2.857    0.000    0.429    0.000    7.000 
#    0.000    0.000    0.000    0.000    0.000    0.000 
#
# Total GULP energy -312676.902073 kJ/mol
# GULP energy per Si atom -5583.516108 kJ/mol
# Density = 2.002333 g / cm^3
# Si number density = 20.069006 Si / 1000 Ang^3
#
#
#
# Elastic Constant Matrix: (Units=GPa)
#
#
# Indices 1 2 3 4 5 6 
#
# 1 34.7366 16.7758 14.7539 0.0000 0.0000 0.0000
# 2 16.7758 89.5483 22.2098 0.0000 0.0000 0.0000
# 3 14.7539 22.2098 78.3129 0.0000 0.0000 0.0000
# 4 0.0000 0.0000 0.0000 13.2006 0.0000 0.0000
# 5 0.0000 0.0000 0.0000 0.0000 22.5395 0.0000
# 6 0.0000 0.0000 0.0000 0.0000 0.0000 -4.6486
#
#
#
# Elastic Compliance Matrix: (Units=1/GPa)
#
#
# Indices 1 2 3 4 5 6 
#
# 1 0.033275 -0.005033 -0.004842 0.000000 0.000000 0.000000
# 2 -0.005033 0.012773 -0.002674 0.000000 0.000000 0.000000
# 3 -0.004842 -0.002674 0.014440 0.000000 0.000000 0.000000
# 4 0.000000 0.000000 0.000000 0.075754 0.000000 0.000000
# 5 0.000000 0.000000 0.000000 0.000000 0.044366 0.000000
# 6 0.000000 0.000000 0.000000 0.000000 0.000000 -0.215118
#
#
# Mechanical properties :
#
#
# Convention : Reuss Voigt Hill
#
# Bulk Modulus (GPa) = 28.25607 34.45296 31.35451
# Shear Modulus (GPa) = 2095.99203 16.14220 1056.06711
#
# Velocity S-wave (km/s) = 32.35212 2.83916 22.96433
# Velocity P-wave (km/s) = 37.54539 5.28699 26.81053
#
# Compressibility (1/GPa) = 0.03539063
#
# Stress axis : x y z
#
# Youngs Moduli (GPa) = 30.05252 78.28834 69.25264
#
# Poissons Ratio (x) = 0.39401 0.33529
# Poissons Ratio (y) = 0.15125 0.18521
# Poissons Ratio (z) = 0.14550 0.20937
#
# Static dielectric constant tensor:
#      x y z
#    x 1.717460 0.000000 0.000000 
#    y 0.000000 1.691950 0.000000 
#    z 0.000000 0.000000 1.745550 
# 
# From -- ./inp_files/34890.got.cif
#   From: 2010.05.17/outbox.cif.g08.bks.cpg/sg71_18_cif.got.tgz:34890.got - 2010.06.03 16:22:01.
