data_PCOD9518297
_publ_section_title
;
Structure prediction by ZEFSAII (Michael W. Deem and Ramdas Pophale) SiO2 
 PCOD9518297
Probable space group: I M M M
;
_chemical_formula_sum "Si O2"
_cell_formula_units_Z 96
_cell_length_a 7.534321
_cell_length_b 30.388680
_cell_length_c 20.448784
_cell_angle_alpha 90.000000
_cell_angle_beta 90.000000
_cell_angle_gamma 90.000000
_cell_volume 4681.914116
_symmetry_space_group_name_H-M "I M M M"
_symmetry_group_IT_number 71
_symmetry_cell_setting 'orthorhombic'
loop_
_space_group_symop_operation_xyz
x,y,z
-x,-y,z
x,-y,-z
-x,y,-z
-x,-y,-z
x,y,-z
-x,y,z
x,-y,z
1/2+x,1/2+y,1/2+z
1/2-x,1/2-y,1/2+z
1/2+x,1/2-y,1/2-z
1/2-x,1/2+y,1/2-z
1/2-x,1/2-y,1/2-z
1/2+x,1/2+y,1/2-z
1/2-x,1/2+y,1/2+z
1/2+x,1/2-y,1/2+z
loop_
_atom_site_type_symbol
_atom_site_label
_atom_site_fract_x
_atom_site_fract_y
_atom_site_fract_z
Si Si1 0.786922 0.448192 0.429612
Si Si2 0.298167 0.693477 0.684387
Si Si3 0.213470 0.870395 0.574675
Si Si4 0.712082 0.212360 0.667509
Si Si5 0.282715 0.449199 0.831064
Si Si6 0.203980 0.099220 0.799560
O O1 0.727930 0.429710 0.500000
O O2 0.750654 0.500000 0.430146
O O3 0.705016 0.428496 0.365127
O O4 0.000000 0.442742 0.425602
O O5 0.500000 0.689295 0.659274
O O6 0.224765 0.737909 0.651446
O O7 0.297516 0.701671 0.762552
O O8 0.209537 0.645786 0.681305
O O9 0.279111 0.868341 0.500000
O O10 0.255766 0.826391 0.615968
O O11 0.273507 0.914242 0.613443
O O12 0.000000 0.872971 0.572401
O O13 0.500000 0.215023 0.678211
O O14 0.500000 0.450437 0.831168
O O15 0.224805 0.500000 0.838908
O O16 0.222958 0.428155 0.761740
O O17 0.000000 0.109187 0.779940
#
# Coordination Sequence:
#
# PCOD9518297 Si02
#       6
#    16  16  16  16  16  16
#     4   9  19  35  51  69 100 139 172 205 250 305
#     4   9  18  33  53  77 105 132 162 206 258 308
#     4  10  20  35  54  74 104 145 181 218 264 312
#     4  10  19  32  53  78 102 132 169 211 256 304
#     4   9  17  30  50  77 105 132 170 221 267 304
#     4  10  18  31  53  78 104 132 166 213 259 303
#
# _framework density 20.504434
#
# number of rings (size 3 to 8) (size 9 to 14) (size 15 to 20)
#    0.000    2.500    1.667    1.500    0.000    3.333 
#    0.000    3.333    0.000    5.500    0.000    1.167 
#    0.000    0.000    0.000    0.000    0.000    0.000 
#
# Total GULP energy -267497.814754 kJ/mol
# GULP energy per Si atom -5572.871141 kJ/mol
# Density = 2.045777 g / cm^3
# Si number density = 20.504434 Si / 1000 Ang^3
#
#
#
# Elastic Constant Matrix: (Units=GPa)
#
#
# Indices 1 2 3 4 5 6 
#
# 1 53.9093 10.7623 0.9089 0.0000 0.0000 0.0000
# 2 10.7623 182.1422 78.8908 0.0000 0.0000 0.0000
# 3 0.9089 78.8908 116.3519 0.0000 -0.0001 0.0000
# 4 0.0000 0.0000 0.0000 27.2259 0.0000 0.0000
# 5 0.0000 0.0000 -0.0001 0.0000 77.2563 0.0000
# 6 0.0000 0.0000 0.0000 0.0000 0.0000 10.9586
#
#
#
# Elastic Compliance Matrix: (Units=1/GPa)
#
#
# Indices 1 2 3 4 5 6 
#
# 1 0.018832 -0.001485 0.000860 0.000000 0.000000 0.000000
# 2 -0.001485 0.007890 -0.005338 0.000000 0.000000 0.000000
# 3 0.000860 -0.005338 0.012207 0.000000 0.000000 0.000000
# 4 0.000000 0.000000 0.000000 0.036730 0.000000 0.000000
# 5 0.000000 0.000000 0.000000 0.000000 0.012944 0.000000
# 6 0.000000 0.000000 0.000000 0.000000 0.000000 0.091252
#
#
# Mechanical properties :
#
#
# Convention : Reuss Voigt Hill
#
# Bulk Modulus (GPa) = 37.03395 59.28083 48.15739
# Shear Modulus (GPa) = 24.90255 40.54427 32.72341
#
# Velocity S-wave (km/s) = 3.48874 4.45156 3.99923
# Velocity P-wave (km/s) = 5.85910 7.44283 6.69794
#
# Compressibility (1/GPa) = 0.02700225
#
# Stress axis : x y z
#
# Youngs Moduli (GPa) = 53.10205 126.74153 81.91777
#
# Poissons Ratio (x) = 0.18823 -0.07044
# Poissons Ratio (y) = 0.07886 0.43729
# Poissons Ratio (z) = -0.04566 0.67657
#
# Static dielectric constant tensor:
#      x y z
#    x 1.780470 0.000000 0.000000 
#    y 0.000000 1.780000 0.000000 
#    z 0.000000 0.000000 1.685630 
# 
# From -- ./inp_files/10907.got.cif
#   From: 2010.05.17/outbox.cif.g08.bks.cpg/sg71_6_cif.got.tgz:10907.got - 2010.06.03 16:22:01.
