data_PCOD9518811
_publ_section_title
;
Structure prediction by ZEFSAII (Michael W. Deem and Ramdas Pophale) SiO2 
 PCOD9518811
Probable space group: I M M M
;
_chemical_formula_sum "Si O2"
_cell_formula_units_Z 104
_cell_length_a 8.146402
_cell_length_b 27.176478
_cell_length_c 28.070617
_cell_angle_alpha 90.000000
_cell_angle_beta 90.000000
_cell_angle_gamma 90.000000
_cell_volume 6214.568346
_symmetry_space_group_name_H-M "I M M M"
_symmetry_group_IT_number 71
_symmetry_cell_setting 'orthorhombic'
loop_
_space_group_symop_operation_xyz
x,y,z
-x,-y,z
x,-y,-z
-x,y,-z
-x,-y,-z
x,y,-z
-x,y,z
x,-y,z
1/2+x,1/2+y,1/2+z
1/2-x,1/2-y,1/2+z
1/2+x,1/2-y,1/2-z
1/2-x,1/2+y,1/2-z
1/2-x,1/2-y,1/2-z
1/2+x,1/2+y,1/2-z
1/2-x,1/2+y,1/2+z
1/2+x,1/2-y,1/2+z
loop_
_atom_site_type_symbol
_atom_site_label
_atom_site_fract_x
_atom_site_fract_y
_atom_site_fract_z
Si Si1 0.500000 0.190261 0.945635
Si Si2 0.692952 0.144321 0.806470
Si Si3 0.818031 0.306599 0.886817
Si Si4 0.500000 0.689539 0.944092
Si Si5 0.694942 0.298915 0.220893
Si Si6 0.674519 0.691061 0.396084
Si Si7 0.310504 0.058085 0.121468
Si Si8 0.500000 0.559771 0.554634
O O1 0.500000 0.250161 0.941845
O O2 0.336358 0.171466 0.920974
O O3 0.500000 0.176525 0.000000
O O4 0.500000 0.157919 0.809035
O O5 0.755302 0.154756 0.753743
O O6 0.798604 0.179559 0.840758
O O7 0.710805 0.091152 0.831086
O O8 0.664368 0.327560 0.916541
O O9 0.777340 0.304276 0.830696
O O10 0.827683 0.249475 0.902631
O O11 0.000000 0.328333 0.894704
O O12 0.500000 0.676630 0.000000
O O13 0.500000 0.296029 0.214134
O O14 0.750000 0.250000 0.250000
O O15 0.500000 0.671412 0.413102
O O16 0.500000 0.065617 0.104641
O O17 0.166234 0.071433 0.084312
O O18 0.293756 0.000000 0.131841
O O19 0.500000 0.500000 0.551624
O O20 0.500000 0.578459 0.500000
#
# Coordination Sequence:
#
# PCOD9518811 Si02
#       8
#     8  16  16   8  16  16  16   8
#     4   9  18  32  46  59  82 115 154 194 235 282
#     4  11  21  33  51  70  95 124 156 194 244 301
#     4  10  19  32  46  68  95 119 157 199 235 281
#     4   9  18  32  49  65  87 124 161 199 238 274
#     4  12  22  31  47  74 100 129 161 199 247 297
#     4  10  19  30  46  63  86 116 148 190 235 286
#     4   9  20  37  55  74  96 124 160 203 251 311
#     4   9  18  34  57  78  94 116 153 207 267 319
#
# _framework density 16.734871999999999
#
# number of rings (size 3 to 8) (size 9 to 14) (size 15 to 20)
#    0.000    1.923    3.077    1.846    2.154    0.923 
#    0.000    5.385    0.000    0.000    0.000    0.000 
#    0.000    0.000    0.000    0.000    0.000    1.538 
#
# Total GULP energy -289976.074117 kJ/mol
# GULP energy per Si atom -5576.462964 kJ/mol
# Density = 1.669678 g / cm^3
# Si number density = 16.734872 Si / 1000 Ang^3
#
#
#
# Elastic Constant Matrix: (Units=GPa)
#
#
# Indices 1 2 3 4 5 6 
#
# 1 162.0657 20.5142 67.6937 0.0000 0.0000 0.0000
# 2 20.5142 30.3913 14.0826 0.0000 0.0000 0.0000
# 3 67.6937 14.0826 99.4772 0.0000 0.0000 0.0000
# 4 0.0000 0.0000 0.0000 14.1526 0.0000 0.0000
# 5 0.0000 0.0000 0.0000 0.0000 13.3361 0.0000
# 6 0.0000 0.0000 0.0000 0.0000 0.0000 19.8717
#
#
#
# Elastic Compliance Matrix: (Units=1/GPa)
#
#
# Indices 1 2 3 4 5 6 
#
# 1 0.008945 -0.003443 -0.005600 0.000000 0.000000 0.000000
# 2 -0.003443 0.036540 -0.002830 0.000000 0.000000 0.000000
# 3 -0.005600 -0.002830 0.014264 0.000000 0.000000 0.000000
# 4 0.000000 0.000000 0.000000 0.070659 0.000000 0.000000
# 5 0.000000 0.000000 0.000000 0.000000 0.074985 0.000000
# 6 0.000000 0.000000 0.000000 0.000000 0.000000 0.050323
#
#
# Mechanical properties :
#
#
# Convention : Reuss Voigt Hill
#
# Bulk Modulus (GPa) = 27.77528 55.16835 41.47181
# Shear Modulus (GPa) = 17.15498 22.11497 19.63497
#
# Velocity S-wave (km/s) = 3.20520 3.63917 3.42906
# Velocity P-wave (km/s) = 5.50736 7.12010 6.36501
#
# Compressibility (1/GPa) = 0.03600324
#
# Stress axis : x y z
#
# Youngs Moduli (GPa) = 111.79283 27.36760 70.10818
#
# Poissons Ratio (x) = 0.09423 0.39258
# Poissons Ratio (y) = 0.38493 0.19838
# Poissons Ratio (z) = 0.62600 0.07744
#
# Static dielectric constant tensor:
#      x y z
#    x 1.612580 0.000000 0.000000 
#    y 0.000000 1.564440 0.000000 
#    z 0.000000 0.000000 1.560230 
# 
# From -- ./inp_files/58239.got.cif
#   From: 2010.05.17/outbox.cif.g08.bks.cpg/sg71_30_cif.got.tgz:58239.got - 2010.06.03 16:22:01.
