data_PCOD9518134
_publ_section_title
;
Structure prediction by ZEFSAII (Michael W. Deem and Ramdas Pophale) SiO2 
 PCOD9518134
Probable space group: I M M M
;
_chemical_formula_sum "Si O2"
_cell_formula_units_Z 96
_cell_length_a 14.870851
_cell_length_b 12.182806
_cell_length_c 30.602649
_cell_angle_alpha 90.000000
_cell_angle_beta 90.000000
_cell_angle_gamma 90.000000
_cell_volume 5544.241915
_symmetry_space_group_name_H-M "I M M M"
_symmetry_group_IT_number 71
_symmetry_cell_setting 'orthorhombic'
loop_
_space_group_symop_operation_xyz
x,y,z
-x,-y,z
x,-y,-z
-x,y,-z
-x,-y,-z
x,y,-z
-x,y,z
x,-y,z
1/2+x,1/2+y,1/2+z
1/2-x,1/2-y,1/2+z
1/2+x,1/2-y,1/2-z
1/2-x,1/2+y,1/2-z
1/2-x,1/2-y,1/2-z
1/2+x,1/2+y,1/2-z
1/2-x,1/2+y,1/2+z
1/2+x,1/2-y,1/2+z
loop_
_atom_site_type_symbol
_atom_site_label
_atom_site_fract_x
_atom_site_fract_y
_atom_site_fract_z
Si Si1 0.393399 0.868753 0.700588
Si Si2 0.601324 0.500000 0.561210
Si Si3 0.892220 0.768379 0.287530
Si Si4 0.894919 0.000000 0.252178
Si Si5 0.663412 0.500000 0.345533
Si Si6 0.000000 0.375762 0.052686
Si Si7 0.820742 0.759938 0.049719
Si Si8 0.748343 0.264248 0.642013
O O1 0.500000 0.844857 0.691568
O O2 0.373057 0.818396 0.748685
O O3 0.327830 0.809776 0.666060
O O4 0.381740 0.000000 0.700242
O O5 0.500000 0.500000 0.544808
O O6 0.597954 0.500000 0.613506
O O7 0.651703 0.611670 0.548516
O O8 0.857771 0.886873 0.270736
O O9 0.841326 0.749515 0.332597
O O10 0.000000 0.769418 0.292880
O O11 0.884640 0.000000 0.200551
O O12 0.000000 0.000000 0.263224
O O13 0.720448 0.609993 0.350271
O O14 0.910497 0.307689 0.063062
O O15 0.000000 0.500000 0.070828
O O16 0.000000 0.383715 0.000000
O O17 0.752877 0.742742 0.089989
O O18 0.794353 0.727932 0.000000
#
# Coordination Sequence:
#
# PCOD9518134 Si02
#       8
#    16   8  16   8   8   8  16  16
#     4  10  22  36  54  81 113 144 174 209 257 317
#     4  10  18  30  52  78 104 137 174 214 259 308
#     4  10  22  38  56  78 105 139 179 221 265 312
#     4  10  19  34  55  77 106 138 171 217 262 308
#     4  10  21  31  51  80 108 137 177 212 258 315
#     4   9  18  33  51  71  99 138 175 205 245 311
#     4  10  21  35  52  75 104 137 176 219 263 308
#     4  11  23  35  55  78 107 141 179 220 265 308
#
# _framework density 17.315261
#
# number of rings (size 3 to 8) (size 9 to 14) (size 15 to 20)
#    0.000    1.917    2.500    1.000    3.500    1.667 
#    0.000    0.000    0.000    0.500    0.000    0.000 
#    0.000    6.000    0.000    0.000    0.000    0.000 
#
# Total GULP energy -267737.599979 kJ/mol
# GULP energy per Si atom -5577.866666 kJ/mol
# Density = 1.727585 g / cm^3
# Si number density = 17.315261 Si / 1000 Ang^3
#
#
#
# Elastic Constant Matrix: (Units=GPa)
#
#
# Indices 1 2 3 4 5 6 
#
# 1 45.7511 23.1289 45.9247 0.0000 0.0000 0.0000
# 2 23.1289 101.0710 31.1966 0.0000 0.0000 0.0000
# 3 45.9247 31.1966 134.3919 0.0000 0.0000 0.0000
# 4 0.0000 0.0000 0.0000 -235.9694 0.0000 0.0000
# 5 0.0000 0.0000 0.0000 0.0000 8.9357 0.0000
# 6 0.0000 0.0000 0.0000 0.0000 0.0000 -9.1451
#
#
#
# Elastic Compliance Matrix: (Units=1/GPa)
#
#
# Indices 1 2 3 4 5 6 
#
# 1 0.035210 -0.004679 -0.010946 0.000000 0.000000 0.000000
# 2 -0.004679 0.011279 -0.001019 0.000000 0.000000 0.000000
# 3 -0.010946 -0.001019 0.011418 0.000000 0.000000 0.000000
# 4 0.000000 0.000000 0.000000 -0.004238 0.000000 0.000000
# 5 0.000000 0.000000 0.000000 0.000000 0.111910 0.000000
# 6 0.000000 0.000000 0.000000 0.000000 0.000000 -0.109349
#
#
# Mechanical properties :
#
#
# Convention : Reuss Voigt Hill
#
# Bulk Modulus (GPa) = 40.61885 53.52382 47.07133
# Shear Modulus (GPa) = 51.16303 -35.17150 7.99577
#
# Velocity S-wave (km/s) = 5.44170 -4.51182 2.15123
# Velocity P-wave (km/s) = 7.93676 1.95868 5.78051
#
# Compressibility (1/GPa) = 0.02461911
#
# Stress axis : x y z
#
# Youngs Moduli (GPa) = 28.40080 88.65724 87.58051
#
# Poissons Ratio (x) = 0.41481 0.95866
# Poissons Ratio (y) = 0.13288 0.08928
# Poissons Ratio (z) = 0.31088 0.09038
#
# Static dielectric constant tensor:
#      x y z
#    x 1.582740 0.000000 0.000000 
#    y 0.000000 1.600990 0.000000 
#    z 0.000000 0.000000 1.606070 
# 
# From -- ./inp_files/69926.got.cif
#   From: 2010.05.17/outbox.cif.g08.bks.cpg/sg71_35_cif.got.tgz:69926.got - 2010.06.03 16:22:01.
