data_PCOD9518980
_publ_section_title
;
Structure prediction by ZEFSAII (Michael W. Deem and Ramdas Pophale) SiO2 
 PCOD9518980
Probable space group: I M M M
;
_chemical_formula_sum "Si O2"
_cell_formula_units_Z 82
_cell_length_a 22.609308
_cell_length_b 7.395651
_cell_length_c 23.361047
_cell_angle_alpha 90.000000
_cell_angle_beta 90.000000
_cell_angle_gamma 90.000000
_cell_volume 3906.213548
_symmetry_space_group_name_H-M "I M M M"
_symmetry_group_IT_number 71
_symmetry_cell_setting 'orthorhombic'
loop_
_space_group_symop_operation_xyz
x,y,z
-x,-y,z
x,-y,-z
-x,y,-z
-x,-y,-z
x,y,-z
-x,y,z
x,-y,z
1/2+x,1/2+y,1/2+z
1/2-x,1/2-y,1/2+z
1/2+x,1/2-y,1/2-z
1/2-x,1/2+y,1/2-z
1/2-x,1/2-y,1/2-z
1/2+x,1/2+y,1/2-z
1/2-x,1/2+y,1/2+z
1/2+x,1/2-y,1/2+z
loop_
_atom_site_type_symbol
_atom_site_label
_atom_site_fract_x
_atom_site_fract_y
_atom_site_fract_z
Si Si1 0.337593 0.779578 0.595896
Si Si2 0.684074 0.782915 0.274372
Si Si3 0.000000 0.000000 0.500000
Si Si4 0.118953 0.289562 0.665669
Si Si5 0.500000 0.221918 0.894833
Si Si6 0.706390 0.718078 0.062116
Si Si7 0.931021 0.279291 0.000000
O O1 0.332263 0.717835 0.661952
O O2 0.274701 0.727415 0.568177
O O3 0.392688 0.723100 0.556083
O O4 0.339098 0.000000 0.596092
O O5 0.750000 0.750000 0.250000
O O6 0.641610 0.709105 0.224871
O O7 0.679087 0.000000 0.277742
O O8 0.000000 0.840197 0.451179
O O9 0.109274 0.500000 0.677480
O O10 0.168635 0.276793 0.616415
O O11 0.058114 0.223478 0.640138
O O12 0.500000 0.000000 0.904046
O O13 0.704739 0.500000 0.062662
O O14 0.682735 0.777944 0.000000
O O15 0.931543 0.500000 0.000000
O O16 0.000000 0.221945 0.000000
#
# Coordination Sequence:
#
# PCOD9518980 Si02
#       7
#    16  16   2  16   8  16   8
#     4   9  16  29  47  74 109 142 180 232 291 342
#     4  10  19  33  54  80 108 148 189 233 292 355
#     4  12  26  44  72  90 108 160 226 234 314 390
#     4  10  22  38  54  76 114 152 191 239 302 354
#     4  10  25  45  61  88 127 162 200 265 304 362
#     4  10  19  30  52  79 106 139 181 234 288 341
#     4   9  16  28  47  76 111 143 178 230 285 337
#
# _framework density 20.992196
#
# number of rings (size 3 to 8) (size 9 to 14) (size 15 to 20)
#    0.000    2.244    2.927    0.146    2.732    0.390 
#    1.756    0.000    0.000    0.000    0.000    0.000 
#    0.000    5.463    0.000    0.000    0.000    0.000 
#
# Total GULP energy -228512.922508 kJ/mol
# GULP energy per Si atom -5573.485915 kJ/mol
# Density = 2.094442 g / cm^3
# Si number density = 20.992196 Si / 1000 Ang^3
#
#
#
# Elastic Constant Matrix: (Units=GPa)
#
#
# Indices 1 2 3 4 5 6 
#
# 1 151.9369 3.5936 85.8259 0.0000 0.0000 0.0000
# 2 3.5936 79.6012 11.6366 0.0000 0.0000 0.0000
# 3 85.8259 11.6366 211.1739 0.0000 0.0000 0.0000
# 4 0.0000 0.0000 0.0000 -5.6041 0.0000 0.0000
# 5 0.0000 0.0000 0.0000 0.0000 66.8979 0.0000
# 6 0.0000 0.0000 0.0000 0.0000 0.0000 18.6671
#
#
#
# Elastic Compliance Matrix: (Units=1/GPa)
#
#
# Indices 1 2 3 4 5 6 
#
# 1 0.008544 0.000123 -0.003479 0.000000 0.000000 0.000000
# 2 0.000123 0.012666 -0.000748 0.000000 0.000000 0.000000
# 3 -0.003479 -0.000748 0.006191 0.000000 0.000000 0.000000
# 4 0.000000 0.000000 0.000000 -0.178440 0.000000 0.000000
# 5 0.000000 0.000000 0.000000 0.000000 0.014948 0.000000
# 6 0.000000 0.000000 0.000000 0.000000 0.000000 0.053570
#
#
# Mechanical properties :
#
#
# Convention : Reuss Voigt Hill
#
# Bulk Modulus (GPa) = 52.10336 71.64713 61.87525
# Shear Modulus (GPa) = -73.62197 38.76924 -17.42636
#
# Velocity S-wave (km/s) = -5.92851 4.30215 -2.88433
# Velocity P-wave (km/s) = 4.68922 7.67349 4.29498
#
# Compressibility (1/GPa) = 0.01919262
#
# Stress axis : x y z
#
# Youngs Moduli (GPa) = 117.03896 78.94895 161.53210
#
# Poissons Ratio (x) = -0.00970 0.56202
# Poissons Ratio (y) = -0.01438 0.12081
# Poissons Ratio (z) = 0.40722 0.05905
#
# Static dielectric constant tensor:
#      x y z
#    x 1.729910 0.000000 0.000000 
#    y 0.000000 1.835310 0.000000 
#    z 0.000000 0.000000 1.799170 
# 
# From -- ./inp_files/61052.got.cif
#   From: 2010.05.17/outbox.cif.g08.bks.cpg/sg71_31_cif.got.tgz:61052.got - 2010.06.03 16:22:01.
