data_PCOD9518405
_publ_section_title
;
Structure prediction by ZEFSAII (Michael W. Deem and Ramdas Pophale) SiO2 
 PCOD9518405
Probable space group: I M M M
;
_chemical_formula_sum "Si O2"
_cell_formula_units_Z 88
_cell_length_a 7.684746
_cell_length_b 26.342427
_cell_length_c 21.319544
_cell_angle_alpha 90.000000
_cell_angle_beta 90.000000
_cell_angle_gamma 90.000000
_cell_volume 4315.818916
_symmetry_space_group_name_H-M "I M M M"
_symmetry_group_IT_number 71
_symmetry_cell_setting 'orthorhombic'
loop_
_space_group_symop_operation_xyz
x,y,z
-x,-y,z
x,-y,-z
-x,y,-z
-x,-y,-z
x,y,-z
-x,y,z
x,-y,z
1/2+x,1/2+y,1/2+z
1/2-x,1/2-y,1/2+z
1/2+x,1/2-y,1/2-z
1/2-x,1/2+y,1/2-z
1/2-x,1/2-y,1/2-z
1/2+x,1/2+y,1/2-z
1/2-x,1/2+y,1/2+z
1/2+x,1/2-y,1/2+z
loop_
_atom_site_type_symbol
_atom_site_label
_atom_site_fract_x
_atom_site_fract_y
_atom_site_fract_z
Si Si1 0.795240 0.701057 0.312074
Si Si2 0.791933 0.608291 0.928706
Si Si3 0.297195 0.190441 0.329002
Si Si4 0.291677 0.500000 0.132641
Si Si5 0.287156 0.500000 0.277065
Si Si6 0.787990 0.941367 0.000000
Si Si7 0.710597 0.593017 0.635027
O O1 0.715293 0.750098 0.346145
O O2 0.721323 0.691581 0.241653
O O3 0.767308 0.648748 0.346707
O O4 0.000000 0.711805 0.306438
O O5 0.723117 0.650529 0.879199
O O6 0.762984 0.551614 0.902300
O O7 0.000000 0.615984 0.932445
O O8 0.723156 0.613012 0.000000
O O9 0.500000 0.176439 0.321918
O O10 0.500000 0.500000 0.134388
O O11 0.228019 0.500000 0.204914
O O12 0.500000 0.500000 0.276329
O O13 0.231360 0.549975 0.315523
O O14 0.726778 0.918366 0.065062
O O15 0.000000 0.938178 0.000000
O O16 0.741738 0.000000 0.000000
O O17 0.500000 0.590810 0.635143
#
# Coordination Sequence:
#
# PCOD9518405 Si02
#       7
#    16  16  16   8   8   8  16
#     4  10  20  34  54  80 108 137 170 214 268 316
#     4  10  21  38  58  78 103 137 177 218 256 300
#     4   9  19  37  58  78 102 136 178 220 259 304
#     4  11  22  34  52  82 113 140 169 206 260 318
#     4   9  18  31  52  80 107 136 175 220 258 299
#     4   9  16  30  53  77 101 135 181 222 255 296
#     4  10  18  32  54  78 104 137 178 220 258 304
#
# _framework density 20.390104999999998
#
# number of rings (size 3 to 8) (size 9 to 14) (size 15 to 20)
#    0.000    2.273    0.909    2.182    0.000    2.909 
#    1.636    1.818    0.000    0.545    0.000    0.000 
#    0.000    0.000    0.000    0.000    0.000    0.000 
#
# Total GULP energy -245512.576998 kJ/mol
# GULP energy per Si atom -5579.831295 kJ/mol
# Density = 2.034370 g / cm^3
# Si number density = 20.390105 Si / 1000 Ang^3
#
#
#
# Elastic Constant Matrix: (Units=GPa)
#
#
# Indices 1 2 3 4 5 6 
#
# 1 36.1697 -10.7699 7.4937 0.0000 0.0000 0.0000
# 2 -10.7699 173.5687 98.4944 0.0000 0.0000 0.0000
# 3 7.4937 98.4944 150.7662 0.0001 0.0000 0.0000
# 4 0.0000 0.0000 0.0001 -55.8804 0.0000 0.0000
# 5 0.0000 0.0000 0.0000 0.0000 8.0874 0.0000
# 6 0.0000 0.0000 0.0000 0.0000 0.0000 15.9317
#
#
#
# Elastic Compliance Matrix: (Units=1/GPa)
#
#
# Indices 1 2 3 4 5 6 
#
# 1 0.029806 0.004275 -0.004274 0.000000 0.000000 0.000000
# 2 0.004275 0.009769 -0.006594 0.000000 0.000000 0.000000
# 3 -0.004274 -0.006594 0.011153 0.000000 0.000000 0.000000
# 4 0.000000 0.000000 0.000000 -0.017895 0.000000 0.000000
# 5 0.000000 0.000000 0.000000 0.000000 0.123650 0.000000
# 6 0.000000 0.000000 0.000000 0.000000 0.000000 0.062768
#
#
# Mechanical properties :
#
#
# Convention : Reuss Voigt Hill
#
# Bulk Modulus (GPa) = 26.63777 61.21565 43.92671
# Shear Modulus (GPa) = 20.41222 11.31349 15.86285
#
# Velocity S-wave (km/s) = 3.16742 2.35808 2.79223
# Velocity P-wave (km/s) = 5.14482 6.12385 5.65556
#
# Compressibility (1/GPa) = 0.03754068
#
# Stress axis : x y z
#
# Youngs Moduli (GPa) = 33.55034 102.36752 89.65997
#
# Poissons Ratio (x) = -0.43762 0.38323
# Poissons Ratio (y) = -0.14343 0.59125
# Poissons Ratio (z) = 0.14340 0.67504
#
# Static dielectric constant tensor:
#      x y z
#    x 1.774790 0.000000 0.000000 
#    y 0.000000 1.702790 0.000000 
#    z 0.000000 0.000000 1.704880 
# 
# From -- ./inp_files/12650.got.cif
#   From: 2010.05.17/outbox.cif.g08.bks.cpg/sg71_7_cif.got.tgz:12650.got - 2010.06.03 16:22:01.
