data_PCOD9518778
_publ_section_title
;
Structure prediction by ZEFSAII (Michael W. Deem and Ramdas Pophale) SiO2 
 PCOD9518778
Probable space group: I M M M
;
_chemical_formula_sum "Si O2"
_cell_formula_units_Z 104
_cell_length_a 27.257042
_cell_length_b 8.737770
_cell_length_c 21.318975
_cell_angle_alpha 90.000000
_cell_angle_beta 90.000000
_cell_angle_gamma 90.000000
_cell_volume 5077.449966
_symmetry_space_group_name_H-M "I M M M"
_symmetry_group_IT_number 71
_symmetry_cell_setting 'orthorhombic'
loop_
_space_group_symop_operation_xyz
x,y,z
-x,-y,z
x,-y,-z
-x,y,-z
-x,-y,-z
x,y,-z
-x,y,z
x,-y,z
1/2+x,1/2+y,1/2+z
1/2-x,1/2-y,1/2+z
1/2+x,1/2-y,1/2-z
1/2-x,1/2+y,1/2-z
1/2-x,1/2-y,1/2-z
1/2+x,1/2+y,1/2-z
1/2-x,1/2+y,1/2+z
1/2+x,1/2-y,1/2+z
loop_
_atom_site_type_symbol
_atom_site_label
_atom_site_fract_x
_atom_site_fract_y
_atom_site_fract_z
Si Si1 0.000000 0.316112 0.573231
Si Si2 0.825992 0.183750 0.430286
Si Si3 0.414293 0.316297 0.158099
Si Si4 0.781509 0.172499 0.916427
Si Si5 0.901793 0.680936 0.788591
Si Si6 0.886809 0.316241 0.068552
Si Si7 0.799171 0.829313 0.770976
O O1 0.046652 0.248758 0.609246
O O2 0.000000 0.500000 0.577637
O O3 0.000000 0.273116 0.500000
O O4 0.846292 0.224479 0.500000
O O5 0.861448 0.231400 0.372861
O O6 0.771118 0.250879 0.427319
O O7 0.822276 0.000000 0.427648
O O8 0.415329 0.500000 0.158964
O O9 0.427559 0.258460 0.228467
O O10 0.829581 0.268816 0.934656
O O11 0.789117 0.154003 0.843489
O O12 0.782542 0.000000 0.940629
O O13 0.911250 0.500000 0.788103
O O14 0.907060 0.735932 0.862070
O O15 0.845957 0.720180 0.768864
O O16 0.890357 0.500000 0.070404
O O17 0.908354 0.265628 0.000000
O O18 0.750000 0.750000 0.750000
O O19 0.808132 0.000000 0.743173
#
# Coordination Sequence:
#
# PCOD9518778 Si02
#       7
#     8  16  16  16  16  16  16
#     4  11  25  45  69  95 120 145 176 219 271 324
#     4  10  21  35  50  70  99 138 182 225 269 320
#     4  11  23  40  62  85 111 143 180 222 272 335
#     4  10  20  30  43  68 101 138 182 232 279 319
#     4  10  20  34  53  78 108 140 179 228 276 324
#     4   9  18  33  52  74 105 148 192 230 271 322
#     4  10  19  30  44  65  97 138 183 228 276 329
#
# _framework density 20.482721999999999
#
# number of rings (size 3 to 8) (size 9 to 14) (size 15 to 20)
#    0.000    1.923    0.000    3.923    0.000    9.846 
#    0.000    0.000    0.000    0.000    0.000    0.538 
#    0.000    4.308    0.000    0.000    0.000    0.000 
#
# Total GULP energy -289515.137575 kJ/mol
# GULP energy per Si atom -5567.598800 kJ/mol
# Density = 2.043610 g / cm^3
# Si number density = 20.482722 Si / 1000 Ang^3
#
#
#
# Elastic Constant Matrix: (Units=GPa)
#
#
# Indices 1 2 3 4 5 6 
#
# 1 23.5004 4.2409 31.1722 0.0000 0.0000 0.0000
# 2 4.2409 41.8039 37.6011 0.0000 0.0000 0.0000
# 3 31.1722 37.6011 190.8401 0.0000 0.0000 0.0000
# 4 0.0000 0.0000 0.0000 59.7807 0.0000 0.0000
# 5 0.0000 0.0000 0.0000 0.0000 26.6586 0.0000
# 6 0.0000 0.0000 0.0000 0.0000 0.0000 18.6945
#
#
#
# Elastic Compliance Matrix: (Units=1/GPa)
#
#
# Indices 1 2 3 4 5 6 
#
# 1 0.054634 0.003020 -0.009519 0.000000 0.000000 0.000000
# 2 0.003020 0.029241 -0.006254 0.000000 0.000000 0.000000
# 3 -0.009519 -0.006254 0.008027 0.000000 0.000000 0.000000
# 4 0.000000 0.000000 0.000000 0.016728 0.000000 0.000000
# 5 0.000000 0.000000 0.000000 0.000000 0.037511 0.000000
# 6 0.000000 0.000000 0.000000 0.000000 0.000000 0.053492
#
#
# Mechanical properties :
#
#
# Convention : Reuss Voigt Hill
#
# Bulk Modulus (GPa) = 15.06161 44.68586 29.87374
# Shear Modulus (GPa) = 20.22068 33.23546 26.72807
#
# Velocity S-wave (km/s) = 3.14539 4.03253 3.61627
# Velocity P-wave (km/s) = 4.53438 6.59890 5.66154
#
# Compressibility (1/GPa) = 0.06639395
#
# Stress axis : x y z
#
# Youngs Moduli (GPa) = 18.30361 34.19907 124.57721
#
# Poissons Ratio (x) = -0.10327 1.18585
# Poissons Ratio (y) = -0.05527 0.77916
# Poissons Ratio (z) = 0.17423 0.21390
#
# Static dielectric constant tensor:
#      x y z
#    x 1.624700 0.000000 0.000000 
#    y 0.000000 1.710730 0.000000 
#    z 0.000000 0.000000 1.818250 
# 
# From -- ./inp_files/56198.got.cif
#   From: 2010.05.17/outbox.cif.g08.bks.cpg/sg71_29_cif.got.tgz:56198.got - 2010.06.03 16:22:01.
