data_PCOD9518825
_publ_section_title
;
Structure prediction by ZEFSAII (Michael W. Deem and Ramdas Pophale) SiO2 
 PCOD9518825
Probable space group: I M M M
;
_chemical_formula_sum "Si O2"
_cell_formula_units_Z 120
_cell_length_a 7.730028
_cell_length_b 28.045396
_cell_length_c 29.284188
_cell_angle_alpha 90.000000
_cell_angle_beta 90.000000
_cell_angle_gamma 90.000000
_cell_volume 6348.568793
_symmetry_space_group_name_H-M "I M M M"
_symmetry_group_IT_number 71
_symmetry_cell_setting 'orthorhombic'
loop_
_space_group_symop_operation_xyz
x,y,z
-x,-y,z
x,-y,-z
-x,y,-z
-x,-y,-z
x,y,-z
-x,y,z
x,-y,z
1/2+x,1/2+y,1/2+z
1/2-x,1/2-y,1/2+z
1/2+x,1/2-y,1/2-z
1/2-x,1/2+y,1/2-z
1/2-x,1/2-y,1/2-z
1/2+x,1/2+y,1/2-z
1/2-x,1/2+y,1/2+z
1/2+x,1/2-y,1/2+z
loop_
_atom_site_type_symbol
_atom_site_label
_atom_site_fract_x
_atom_site_fract_y
_atom_site_fract_z
Si Si1 0.208967 0.349599 0.551080
Si Si2 0.796880 0.552012 0.593755
Si Si3 0.293411 0.699060 0.642492
Si Si4 0.297856 0.057293 0.378274
Si Si5 0.708530 0.111165 0.286432
Si Si6 0.795119 0.900217 0.184404
Si Si7 0.708025 0.219307 0.705268
Si Si8 0.000000 0.057991 0.447746
O O1 0.269182 0.339032 0.500000
O O2 0.275035 0.401573 0.567861
O O3 0.257356 0.311878 0.589880
O O4 0.000000 0.351765 0.550606
O O5 0.721066 0.500000 0.583496
O O6 0.782387 0.563603 0.647600
O O7 0.000000 0.550140 0.582084
O O8 0.500000 0.699624 0.648831
O O9 0.227496 0.652870 0.670880
O O10 0.226830 0.748501 0.663144
O O11 0.500000 0.069677 0.386793
O O12 0.240282 0.081000 0.330699
O O13 0.170086 0.072043 0.419042
O O14 0.288404 0.000000 0.373827
O O15 0.500000 0.112005 0.286238
O O16 0.762038 0.090686 0.237395
O O17 0.775164 0.165541 0.290753
O O18 0.000000 0.900647 0.176534
O O19 0.500000 0.215284 0.701790
O O20 0.750000 0.250000 0.750000
O O21 0.000000 0.074968 0.500000
O O22 0.000000 0.000000 0.449168
#
# Coordination Sequence:
#
# PCOD9518825 Si02
#       8
#    16  16  16  16  16  16  16   8
#     4   9  18  32  51  73  94 123 167 215 261 306
#     4   9  18  32  48  67  95 129 166 211 260 307
#     4   9  18  32  48  70  99 127 161 206 254 305
#     4   9  19  35  53  78 112 144 176 215 259 311
#     4  10  20  32  50  75 105 138 171 206 251 308
#     4  10  19  30  46  68  96 131 168 205 247 302
#     4  10  19  32  50  75 104 131 167 210 252 298
#     4   9  18  34  58  84 106 134 176 220 259 305
#
# _framework density 18.901897999999999
#
# number of rings (size 3 to 8) (size 9 to 14) (size 15 to 20)
#    0.000    2.600    1.333    0.400    0.933    2.667 
#    0.000    4.000    0.000    0.800    0.000    7.467 
#    0.000    0.000    0.000    0.000    0.000    0.000 
#
# Total GULP energy -334562.518846 kJ/mol
# GULP energy per Si atom -5576.041981 kJ/mol
# Density = 1.885888 g / cm^3
# Si number density = 18.901898 Si / 1000 Ang^3
#
#
#
# Elastic Constant Matrix: (Units=GPa)
#
#
# Indices 1 2 3 4 5 6 
#
# 1 37.2798 0.4879 6.0592 0.0000 0.0000 0.0000
# 2 0.4879 28.2258 12.8983 0.0000 0.0000 0.0000
# 3 6.0592 12.8983 125.2832 0.0000 0.0000 0.0000
# 4 0.0000 0.0000 0.0000 16.7802 0.0000 0.0000
# 5 0.0000 0.0000 0.0000 0.0000 25.1268 0.0000
# 6 0.0000 0.0000 0.0000 0.0000 0.0000 11.5758
#
#
#
# Elastic Compliance Matrix: (Units=1/GPa)
#
#
# Indices 1 2 3 4 5 6 
#
# 1 0.027037 0.000137 -0.001322 0.000000 0.000000 0.000000
# 2 0.000137 0.037178 -0.003834 0.000000 0.000000 0.000000
# 3 -0.001322 -0.003834 0.008441 0.000000 0.000000 0.000000
# 4 0.000000 0.000000 0.000000 0.059594 0.000000 0.000000
# 5 0.000000 0.000000 0.000000 0.000000 0.039798 0.000000
# 6 0.000000 0.000000 0.000000 0.000000 0.000000 0.086387
#
#
# Mechanical properties :
#
#
# Convention : Reuss Voigt Hill
#
# Bulk Modulus (GPa) = 15.96997 25.51997 20.74497
# Shear Modulus (GPa) = 17.28032 22.11946 19.69989
#
# Velocity S-wave (km/s) = 3.02687 3.42457 3.23184
# Velocity P-wave (km/s) = 4.54787 5.40069 4.99252
#
# Compressibility (1/GPa) = 0.06261751
#
# Stress axis : x y z
#
# Youngs Moduli (GPa) = 36.98609 26.89740 118.47519
#
# Poissons Ratio (x) = -0.00368 0.15659
# Poissons Ratio (y) = -0.00505 0.45426
# Poissons Ratio (z) = 0.04888 0.10313
#
# Static dielectric constant tensor:
#      x y z
#    x 1.699370 0.000000 0.000000 
#    y 0.000000 1.672040 0.000000 
#    z 0.000000 0.000000 1.645140 
# 
# From -- ./inp_files/63784.got.cif
#   From: 2010.05.17/outbox.cif.g08.bks.cpg/sg71_32_cif.got.tgz:63784.got - 2010.06.03 16:22:01.
