data_PCOD9518862
_publ_section_title
;
Structure prediction by ZEFSAII (Michael W. Deem and Ramdas Pophale) SiO2 
 PCOD9518862
Probable space group: I M M M
;
_chemical_formula_sum "Si O2"
_cell_formula_units_Z 104
_cell_length_a 9.819652
_cell_length_b 28.263263
_cell_length_c 26.203456
_cell_angle_alpha 90.000000
_cell_angle_beta 90.000000
_cell_angle_gamma 90.000000
_cell_volume 7272.386827
_symmetry_space_group_name_H-M "I M M M"
_symmetry_group_IT_number 71
_symmetry_cell_setting 'orthorhombic'
loop_
_space_group_symop_operation_xyz
x,y,z
-x,-y,z
x,-y,-z
-x,y,-z
-x,-y,-z
x,y,-z
-x,y,z
x,-y,z
1/2+x,1/2+y,1/2+z
1/2-x,1/2-y,1/2+z
1/2+x,1/2-y,1/2-z
1/2-x,1/2+y,1/2-z
1/2-x,1/2-y,1/2-z
1/2+x,1/2+y,1/2-z
1/2-x,1/2+y,1/2+z
1/2+x,1/2-y,1/2+z
loop_
_atom_site_type_symbol
_atom_site_label
_atom_site_fract_x
_atom_site_fract_y
_atom_site_fract_z
Si Si1 0.654938 0.944573 0.779812
Si Si2 0.154555 0.192595 0.142962
Si Si3 0.338815 0.361251 0.247996
Si Si4 0.500000 0.556505 0.442058
Si Si5 0.836858 0.280338 0.791094
Si Si6 0.652662 0.152288 0.056631
Si Si7 0.708169 0.945148 0.099530
O O1 0.500000 0.929760 0.766640
O O2 0.768645 0.912133 0.754111
O O3 0.669408 0.940501 0.841326
O O4 0.671018 0.000000 0.767579
O O5 0.171175 0.163115 0.195714
O O6 0.171344 0.247635 0.158675
O O7 0.257948 0.174732 0.100927
O O8 0.000000 0.185097 0.125310
O O9 0.500000 0.361813 0.234846
O O10 0.243957 0.329733 0.210598
O O11 0.500000 0.500000 0.448336
O O12 0.500000 0.576637 0.500000
O O13 0.366825 0.566452 0.409480
O O14 0.750000 0.250000 0.750000
O O15 0.000000 0.284438 0.778502
O O16 0.500000 0.171751 0.059163
O O17 0.642579 0.095963 0.066480
O O18 0.709062 0.160239 0.000000
O O19 0.682175 0.000000 0.084379
#
# Coordination Sequence:
#
# PCOD9518862 Si02
#       7
#    16  16  16   8  16  16  16
#     4  10  20  31  44  62  85 115 146 177 218 259
#     4   9  19  33  47  63  81 106 137 171 213 262
#     4  10  19  30  47  69  87 107 138 172 216 264
#     4   9  18  30  42  56  70  90 128 178 226 264
#     4   9  17  30  48  68  87 104 131 169 213 262
#     4  11  23  33  43  61  82 107 139 179 227 267
#     4  10  20  32  45  57  74 104 144 185 225 266
#
# _framework density 14.30067
#
# number of rings (size 3 to 8) (size 9 to 14) (size 15 to 20)
#    0.000    2.231    1.538    2.769    2.154    5.538 
#    0.000    0.769    0.000    0.000    0.000    0.000 
#    0.000    0.000    0.000    0.000    0.000    0.769 
#
# Total GULP energy -289577.305443 kJ/mol
# GULP energy per Si atom -5568.794335 kJ/mol
# Density = 1.426812 g / cm^3
# Si number density = 14.300670 Si / 1000 Ang^3
#
#
#
# Elastic Constant Matrix: (Units=GPa)
#
#
# Indices 1 2 3 4 5 6 
#
# 1 115.7135 43.5342 30.1501 0.0000 0.0000 0.0000
# 2 43.5342 57.1238 23.6048 0.0000 0.0000 0.0000
# 3 30.1501 23.6048 30.4138 0.0000 0.0000 0.0000
# 4 0.0000 0.0000 0.0000 9.0228 0.0000 0.0000
# 5 0.0000 0.0000 0.0000 0.0000 -7.3218 0.0000
# 6 0.0000 0.0000 0.0000 0.0000 0.0000 20.3781
#
#
#
# Elastic Compliance Matrix: (Units=1/GPa)
#
#
# Indices 1 2 3 4 5 6 
#
# 1 0.013266 -0.006884 -0.007809 0.000000 0.000000 0.000000
# 2 -0.006884 0.029342 -0.015949 0.000000 0.000000 0.000000
# 3 -0.007809 -0.015949 0.053000 0.000000 0.000000 0.000000
# 4 0.000000 0.000000 0.000000 0.110830 0.000000 0.000000
# 5 0.000000 0.000000 0.000000 0.000000 -0.136578 0.000000
# 6 0.000000 0.000000 0.000000 0.000000 0.000000 0.049072
#
#
# Mechanical properties :
#
#
# Convention : Reuss Voigt Hill
#
# Bulk Modulus (GPa) = 29.13346 44.20325 36.66836
# Shear Modulus (GPa) = 26.08798 11.47995 18.78397
#
# Velocity S-wave (km/s) = 4.27576 2.83637 3.62816
# Velocity P-wave (km/s) = 6.69272 6.45784 6.57633
#
# Compressibility (1/GPa) = 0.03432479
#
# Stress axis : x y z
#
# Youngs Moduli (GPa) = 75.37787 34.08030 18.86803
#
# Poissons Ratio (x) = 0.23459 0.14734
# Poissons Ratio (y) = 0.51887 0.30093
# Poissons Ratio (z) = 0.58862 0.54356
#
# Static dielectric constant tensor:
#      x y z
#    x 1.562050 0.000000 0.000000 
#    y 0.000000 1.503110 0.000000 
#    z 0.000000 0.000000 1.446790 
# 
# From -- ./inp_files/58186.got.cif
#   From: 2010.05.17/outbox.cif.g08.bks.cpg/sg71_30_cif.got.tgz:58186.got - 2010.06.03 16:22:01.
