data_PCOD9518398
_publ_section_title
;
Structure prediction by ZEFSAII (Michael W. Deem and Ramdas Pophale) SiO2 
 PCOD9518398
Probable space group: I M M M
;
_chemical_formula_sum "Si O2"
_cell_formula_units_Z 104
_cell_length_a 28.149131
_cell_length_b 8.736256
_cell_length_c 24.127089
_cell_angle_alpha 90.000000
_cell_angle_beta 90.000000
_cell_angle_gamma 90.000000
_cell_volume 5933.285825
_symmetry_space_group_name_H-M "I M M M"
_symmetry_group_IT_number 71
_symmetry_cell_setting 'orthorhombic'
loop_
_space_group_symop_operation_xyz
x,y,z
-x,-y,z
x,-y,-z
-x,y,-z
-x,-y,-z
x,y,-z
-x,y,z
x,-y,z
1/2+x,1/2+y,1/2+z
1/2-x,1/2-y,1/2+z
1/2+x,1/2-y,1/2-z
1/2-x,1/2+y,1/2-z
1/2-x,1/2-y,1/2-z
1/2+x,1/2+y,1/2-z
1/2-x,1/2+y,1/2+z
1/2+x,1/2-y,1/2+z
loop_
_atom_site_type_symbol
_atom_site_label
_atom_site_fract_x
_atom_site_fract_y
_atom_site_fract_z
Si Si1 0.679337 0.681773 0.351600
Si Si2 0.104306 0.317081 0.933534
Si Si3 0.359244 0.819098 0.763015
Si Si4 0.769969 0.182955 0.308142
Si Si5 0.443773 0.320423 0.176937
Si Si6 0.057608 0.677730 0.438709
Si Si7 0.000000 0.685556 0.065199
O O1 0.684333 0.500000 0.348139
O O2 0.646175 0.731584 0.402195
O O3 0.653837 0.743218 0.295718
O O4 0.731677 0.757692 0.352358
O O5 0.108327 0.500000 0.923289
O O6 0.051597 0.265126 0.912964
O O7 0.106248 0.295355 0.000000
O O8 0.322980 0.749504 0.808696
O O9 0.412042 0.777404 0.781557
O O10 0.351951 0.000000 0.758847
O O11 0.750000 0.250000 0.250000
O O12 0.770703 0.000000 0.306513
O O13 0.500000 0.288348 0.182404
O O14 0.436033 0.500000 0.186828
O O15 0.428911 0.277224 0.114150
O O16 0.074037 0.727738 0.500000
O O17 0.071562 0.500000 0.430452
O O18 0.000000 0.680188 0.440232
O O19 0.000000 0.500000 0.067900
O O20 0.000000 0.725518 0.000000
#
# Coordination Sequence:
#
# PCOD9518398 Si02
#       7
#    16  16  16  16  16  16   8
#     4  11  21  34  52  77 106 134 170 213 260 311
#     4   9  17  32  54  78 104 137 178 222 266 314
#     4  11  21  35  54  75 101 135 175 213 258 311
#     4  10  18  32  54  77 100 125 160 205 251 297
#     4  10  20  33  49  72 104 137 169 208 254 302
#     4   8  14  26  45  68  93 124 164 204 238 279
#     4   7  12  26  49  73  97 129 171 215 254 299
#
# _framework density 17.528229
#
# number of rings (size 3 to 8) (size 9 to 14) (size 15 to 20)
#    0.000    2.385    0.000    7.846    0.000    1.538 
#    1.385    1.923    0.000    2.308    0.000    0.000 
#    0.000    0.000    0.000    0.000    0.000    0.000 
#
# Total GULP energy -289774.392618 kJ/mol
# GULP energy per Si atom -5572.584473 kJ/mol
# Density = 1.748833 g / cm^3
# Si number density = 17.528229 Si / 1000 Ang^3
#
#
#
# Elastic Constant Matrix: (Units=GPa)
#
#
# Indices 1 2 3 4 5 6 
#
# 1 62.6034 41.1626 13.7018 0.0000 0.0000 0.0000
# 2 41.1626 109.7253 24.9700 0.0000 0.0000 0.0000
# 3 13.7018 24.9700 25.3667 0.0000 0.0000 0.0000
# 4 0.0000 0.0000 0.0000 25.6905 0.0000 0.0000
# 5 0.0000 0.0000 0.0000 0.0000 26.3296 0.0000
# 6 0.0000 0.0000 0.0000 0.0000 0.0000 26.2126
#
#
#
# Elastic Compliance Matrix: (Units=1/GPa)
#
#
# Indices 1 2 3 4 5 6 
#
# 1 0.021642 -0.007034 -0.004766 0.000000 0.000000 0.000000
# 2 -0.007034 0.014031 -0.010012 0.000000 0.000000 0.000000
# 3 -0.004766 -0.010012 0.051851 0.000000 0.000000 0.000000
# 4 0.000000 0.000000 0.000000 0.038925 0.000000 0.000000
# 5 0.000000 0.000000 0.000000 0.000000 0.037980 0.000000
# 6 0.000000 0.000000 0.000000 0.000000 0.000000 0.038150
#
#
# Mechanical properties :
#
#
# Convention : Reuss Voigt Hill
#
# Bulk Modulus (GPa) = 22.77883 39.70713 31.24298
# Shear Modulus (GPa) = 19.16919 23.50395 21.33657
#
# Velocity S-wave (km/s) = 3.31058 3.66583 3.49272
# Velocity P-wave (km/s) = 5.25709 6.37340 5.84197
#
# Compressibility (1/GPa) = 0.04390041
#
# Stress axis : x y z
#
# Youngs Moduli (GPa) = 46.20715 71.27125 19.28594
#
# Poissons Ratio (x) = 0.50134 0.09191
# Poissons Ratio (y) = 0.32503 0.19309
# Poissons Ratio (z) = 0.22020 0.71356
#
# Static dielectric constant tensor:
#      x y z
#    x 1.648730 0.000000 0.000000 
#    y 0.000000 1.587970 0.000000 
#    z 0.000000 0.000000 1.603320 
# 
# From -- ./inp_files/56740.got.cif
#   From: 2010.05.17/outbox.cif.g08.bks.cpg/sg71_29_cif.got.tgz:56740.got - 2010.06.03 16:22:01.
