data_PCOD9518472
_publ_section_title
;
Structure prediction by ZEFSAII (Michael W. Deem and Ramdas Pophale) SiO2 
 PCOD9518472
Probable space group: I M M M
;
_chemical_formula_sum "Si O2"
_cell_formula_units_Z 88
_cell_length_a 7.440163
_cell_length_b 23.546496
_cell_length_c 21.375546
_cell_angle_alpha 90.000000
_cell_angle_beta 90.000000
_cell_angle_gamma 90.000000
_cell_volume 3744.776951
_symmetry_space_group_name_H-M "I M M M"
_symmetry_group_IT_number 71
_symmetry_cell_setting 'orthorhombic'
loop_
_space_group_symop_operation_xyz
x,y,z
-x,-y,z
x,-y,-z
-x,y,-z
-x,-y,-z
x,y,-z
-x,y,z
x,-y,z
1/2+x,1/2+y,1/2+z
1/2-x,1/2-y,1/2+z
1/2+x,1/2-y,1/2-z
1/2-x,1/2+y,1/2-z
1/2-x,1/2-y,1/2-z
1/2+x,1/2+y,1/2-z
1/2-x,1/2+y,1/2+z
1/2+x,1/2-y,1/2+z
loop_
_atom_site_type_symbol
_atom_site_label
_atom_site_fract_x
_atom_site_fract_y
_atom_site_fract_z
Si Si1 0.207275 0.884384 0.145209
Si Si2 0.798145 0.286232 0.000000
Si Si3 0.202694 0.660658 0.777561
Si Si4 0.783173 0.059775 0.362189
Si Si5 0.216932 0.914253 0.500000
Si Si6 0.219587 0.000000 0.074899
Si Si7 0.221750 0.757033 0.131381
O O1 0.210978 0.875282 0.220629
O O2 0.279008 0.942466 0.113043
O O3 0.282109 0.822347 0.127655
O O4 0.000000 0.883853 0.125193
O O5 0.716808 0.269291 0.933894
O O6 0.802785 0.353099 0.000000
O O7 0.000000 0.261261 0.000000
O O8 0.201248 0.615563 0.833303
O O9 0.281043 0.717935 0.809686
O O10 0.000000 0.673288 0.757285
O O11 0.735871 0.057812 0.434889
O O12 0.000000 0.064400 0.356976
O O13 0.728826 0.000000 0.331706
O O14 0.000000 0.908660 0.500000
O O15 0.000000 0.000000 0.076168
O O16 0.269774 0.000000 0.000000
O O17 0.000000 0.755845 0.135391
#
# Coordination Sequence:
#
# PCOD9518472 Si02
#       7
#    16   8  16  16   8   8  16
#     4  10  21  38  60  86 115 149 187 234 290 343
#     4  10  18  33  55  80 112 148 189 234 286 341
#     4  11  22  37  56  84 116 151 192 234 283 341
#     4  10  21  36  55  78 110 151 192 232 278 333
#     4  10  19  34  54  80 109 145 188 236 282 329
#     4   9  20  38  63  93 117 140 187 246 291 341
#     4   9  19  34  57  84 113 150 191 234 282 339
#
# _framework density 23.499396000000001
#
# number of rings (size 3 to 8) (size 9 to 14) (size 15 to 20)
#    0.000    2.091    1.818    1.364    2.545    1.455 
#    0.000    1.818    0.000    2.727    0.000    0.000 
#    0.000    0.000    0.000    0.000    0.000    0.000 
#
# Total GULP energy -245198.378440 kJ/mol
# GULP energy per Si atom -5572.690419 kJ/mol
# Density = 2.344591 g / cm^3
# Si number density = 23.499396 Si / 1000 Ang^3
#
#
#
# Elastic Constant Matrix: (Units=GPa)
#
#
# Indices 1 2 3 4 5 6 
#
# 1 60.5186 20.0087 4.7853 0.0000 0.0000 0.0000
# 2 20.0087 211.9275 88.8097 0.0000 0.0000 0.0000
# 3 4.7853 88.8097 139.7102 0.0000 0.0000 0.0000
# 4 0.0000 0.0000 0.0000 37.1374 0.0000 0.0000
# 5 0.0000 0.0000 0.0000 0.0000 -471.2565 0.0000
# 6 0.0000 0.0000 0.0000 0.0000 0.0000 -0.0350
#
#
#
# Elastic Compliance Matrix: (Units=1/GPa)
#
#
# Indices 1 2 3 4 5 6 
#
# 1 0.017093 -0.001865 0.000600 0.000000 0.000000 0.000000
# 2 -0.001865 0.006636 -0.004154 0.000000 0.000000 0.000001
# 3 0.000600 -0.004154 0.009778 0.000000 0.000000 -0.000003
# 4 0.000000 0.000000 0.000000 0.026927 0.000000 -0.000002
# 5 0.000000 0.000000 0.000000 0.000000 -0.002122 -0.000001
# 6 0.000000 0.000001 -0.000003 -0.000002 -0.000001-28.537769
#
#
# Mechanical properties :
#
#
# Convention : Reuss Voigt Hill
#
# Bulk Modulus (GPa) = 44.11502 71.04041 57.57772
# Shear Modulus (GPa) = -0.17568 -66.92732 -33.55150
#
# Velocity S-wave (km/s) = -0.27372 -5.34250 -3.78267
# Velocity P-wave (km/s) = 4.32593 2.78568 2.34027
#
# Compressibility (1/GPa) = 0.02266801
#
# Stress axis : x y z
#
# Youngs Moduli (GPa) = 58.50310 150.70405 102.27290
#
# Poissons Ratio (x) = 0.28112 -0.06139
# Poissons Ratio (y) = 0.10913 0.42485
# Poissons Ratio (z) = -0.03512 0.62604
#
# Static dielectric constant tensor:
#      x y z
#    x 2.009300 0.000000 0.000000 
#    y 0.000000 1.872520 0.000000 
#    z 0.000000 0.000000 1.929500 
# 
# From -- ./inp_files/57597.got.cif
#   From: 2010.05.17/outbox.cif.g08.bks.cpg/sg71_29_cif.got.tgz:57597.got - 2010.06.03 16:22:01.
