data_PCOD9518614
_publ_section_title
;
Structure prediction by ZEFSAII (Michael W. Deem and Ramdas Pophale) SiO2 
 PCOD9518614
Probable space group: I M M M
;
_chemical_formula_sum "Si O2"
_cell_formula_units_Z 128
_cell_length_a 29.025757
_cell_length_b 18.489804
_cell_length_c 15.098595
_cell_angle_alpha 90.000000
_cell_angle_beta 90.000000
_cell_angle_gamma 90.000000
_cell_volume 8103.122388
_symmetry_space_group_name_H-M "I M M M"
_symmetry_group_IT_number 71
_symmetry_cell_setting 'orthorhombic'
loop_
_space_group_symop_operation_xyz
x,y,z
-x,-y,z
x,-y,-z
-x,y,-z
-x,-y,-z
x,y,-z
-x,y,z
x,-y,z
1/2+x,1/2+y,1/2+z
1/2-x,1/2-y,1/2+z
1/2+x,1/2-y,1/2-z
1/2-x,1/2+y,1/2-z
1/2-x,1/2-y,1/2-z
1/2+x,1/2+y,1/2-z
1/2-x,1/2+y,1/2+z
1/2+x,1/2-y,1/2+z
loop_
_atom_site_type_symbol
_atom_site_label
_atom_site_fract_x
_atom_site_fract_y
_atom_site_fract_z
Si Si1 0.362264 0.267534 0.777836
Si Si2 0.223215 0.723632 0.395358
Si Si3 0.447029 0.199104 0.291052
Si Si4 0.111183 0.415989 0.104377
Si Si5 0.628781 0.580732 0.278053
Si Si6 0.181492 0.292782 0.896813
Si Si7 0.220824 0.080506 0.104188
Si Si8 0.553024 0.348763 0.398023
O O1 0.321872 0.238847 0.839304
O O2 0.410267 0.224176 0.783243
O O3 0.368939 0.352929 0.790145
O O4 0.345093 0.254977 0.675878
O O5 0.213152 0.724078 0.500000
O O6 0.264376 0.781579 0.379372
O O7 0.245384 0.645884 0.372235
O O8 0.500000 0.188907 0.263436
O O9 0.426089 0.129022 0.339598
O O10 0.446019 0.267341 0.358883
O O11 0.114490 0.500000 0.129424
O O12 0.159403 0.372193 0.114018
O O13 0.099107 0.412140 0.000000
O O14 0.624171 0.500000 0.241401
O O15 0.675208 0.583049 0.336738
O O16 0.586230 0.600678 0.341555
O O17 0.173610 0.270776 0.000000
O O18 0.241395 0.000000 0.114379
O O19 0.208788 0.089521 0.000000
O O20 0.567441 0.347423 0.500000
O O21 0.500000 0.373263 0.392625
#
# Coordination Sequence:
#
# PCOD9518614 Si02
#       8
#    16  16  16  16  16  16  16  16
#     4  10  19  32  51  67  92 121 158 198 234 280
#     4  10  19  32  51  71  90 122 163 198 238 286
#     4   9  18  31  46  64  87 120 160 201 244 286
#     4   9  17  28  42  64  96 132 168 202 232 268
#     4  10  19  28  41  63  91 122 153 185 225 272
#     4   9  17  29  46  67  93 125 157 187 227 280
#     4   9  17  28  43  67  96 120 146 186 232 277
#     4   9  17  28  42  62  89 122 158 191 224 272
#
# _framework density 15.796381
#
# number of rings (size 3 to 8) (size 9 to 14) (size 15 to 20)
#    0.000    2.625    1.250    1.125    0.000    5.000 
#    0.000    4.375    0.000    1.500    0.000    0.000 
#    0.000    0.000    0.000   13.875    0.000    0.000 
#
# Total GULP energy -356474.771786 kJ/mol
# GULP energy per Si atom -5569.918309 kJ/mol
# Density = 1.576043 g / cm^3
# Si number density = 15.796381 Si / 1000 Ang^3
#
#
#
# Elastic Constant Matrix: (Units=GPa)
#
#
# Indices 1 2 3 4 5 6 
#
# 1 120.7669 55.5883 32.6378 0.0000 0.0000 0.0000
# 2 55.5883 121.6406 17.3987 0.0000 0.0000 0.0000
# 3 32.6378 17.3987 18.8223 0.0000 0.0000 0.0000
# 4 0.0000 0.0000 0.0000 8.0809 0.0000 0.0000
# 5 0.0000 0.0000 0.0000 0.0000 21.3069 0.0000
# 6 0.0000 0.0000 0.0000 0.0000 0.0000 13.0876
#
#
#
# Elastic Compliance Matrix: (Units=1/GPa)
#
#
# Indices 1 2 3 4 5 6 
#
# 1 0.017226 -0.004148 -0.026035 0.000000 0.000000 0.000000
# 2 -0.004148 0.010472 -0.002488 0.000000 0.000000 0.000000
# 3 -0.026035 -0.002488 0.100573 0.000000 0.000000 0.000000
# 4 0.000000 0.000000 0.000000 0.123748 0.000000 0.000000
# 5 0.000000 0.000000 0.000000 0.000000 0.046933 0.000000
# 6 0.000000 0.000000 0.000000 0.000000 0.000000 0.076408
#
#
# Mechanical properties :
#
#
# Convention : Reuss Voigt Hill
#
# Bulk Modulus (GPa) = 15.89084 52.49771 34.19427
# Shear Modulus (GPa) = 10.83004 18.86874 14.84939
#
# Velocity S-wave (km/s) = 2.62124 3.45990 3.06935
# Velocity P-wave (km/s) = 4.38667 7.01907 5.85279
#
# Compressibility (1/GPa) = 0.06292934
#
# Stress axis : x y z
#
# Youngs Moduli (GPa) = 58.05210 95.48931 9.94304
#
# Poissons Ratio (x) = 0.39610 0.25887
# Poissons Ratio (y) = 0.24081 0.02473
# Poissons Ratio (z) = 1.51140 0.23753
#
# Static dielectric constant tensor:
#      x y z
#    x 1.538820 0.000000 0.000000 
#    y 0.000000 1.553740 0.000000 
#    z 0.000000 0.000000 1.513360 
# 
# From -- ./inp_files/48426.got.cif
#   From: 2010.05.17/outbox.cif.g08.bks.cpg/sg71_25_cif.got.tgz:48426.got - 2010.06.03 16:22:01.
