data_PCOD9518537
_publ_section_title
;
Structure prediction by ZEFSAII (Michael W. Deem and Ramdas Pophale) SiO2 
 PCOD9518537
Probable space group: I M M M
;
_chemical_formula_sum "Si O2"
_cell_formula_units_Z 68
_cell_length_a 23.834665
_cell_length_b 7.640485
_cell_length_c 16.798009
_cell_angle_alpha 90.000000
_cell_angle_beta 90.000000
_cell_angle_gamma 90.000000
_cell_volume 3059.058549
_symmetry_space_group_name_H-M "I M M M"
_symmetry_group_IT_number 71
_symmetry_cell_setting 'orthorhombic'
loop_
_space_group_symop_operation_xyz
x,y,z
-x,-y,z
x,-y,-z
-x,y,-z
-x,-y,-z
x,y,-z
-x,y,z
x,-y,z
1/2+x,1/2+y,1/2+z
1/2-x,1/2-y,1/2+z
1/2+x,1/2-y,1/2-z
1/2-x,1/2+y,1/2-z
1/2-x,1/2-y,1/2-z
1/2+x,1/2+y,1/2-z
1/2-x,1/2+y,1/2+z
1/2+x,1/2-y,1/2+z
loop_
_atom_site_type_symbol
_atom_site_label
_atom_site_fract_x
_atom_site_fract_y
_atom_site_fract_z
Si Si1 0.588645 0.806002 0.870671
Si Si2 0.430128 0.500000 0.000000
Si Si3 0.290683 0.707642 0.092760
Si Si4 0.561035 0.287966 0.307568
Si Si5 0.333026 0.288954 0.591433
O O1 0.570884 0.653874 0.930901
O O2 0.656660 0.793874 0.865226
O O3 0.565541 0.774133 0.782875
O O4 0.573248 0.000000 0.898475
O O5 0.301314 0.500000 0.092079
O O6 0.228395 0.740605 0.124332
O O7 0.291501 0.767013 0.000000
O O8 0.500000 0.236924 0.340681
O O9 0.563426 0.500000 0.306798
O O10 0.614342 0.225211 0.357921
O O11 0.335795 0.225247 0.500000
O O12 0.335227 0.500000 0.589487
#
# Coordination Sequence:
#
# PCOD9518537 Si02
#       5
#    16   4  16  16  16
#     4  12  23  39  67  96 129 171 210 256 319 381
#     4  12  22  44  65 100 130 164 211 258 314 384
#     4  10  18  34  58  89 129 164 203 257 315 377
#     4  10  22  42  62  85 127 172 214 274 325 367
#     4   9  19  35  60  94 125 165 218 262 317 385
#
# _framework density 22.22906
#
# number of rings (size 3 to 8) (size 9 to 14) (size 15 to 20)
#    0.000    1.647    3.529    1.059    0.000    3.765 
#    0.000    3.529    0.000    1.412    0.000    4.941 
#    0.000    0.000    0.000    0.000    0.000    0.000 
#
# Total GULP energy -189573.498866 kJ/mol
# GULP energy per Si atom -5575.691143 kJ/mol
# Density = 2.217847 g / cm^3
# Si number density = 22.229060 Si / 1000 Ang^3
#
#
#
# Elastic Constant Matrix: (Units=GPa)
#
#
# Indices 1 2 3 4 5 6 
#
# 1 157.0261 13.2637 31.7217 0.0000 0.0000 0.0000
# 2 13.2637 115.6441 14.5297 0.0000 0.0000 0.0000
# 3 31.7217 14.5297 48.2569 0.0000 0.0000 0.0000
# 4 0.0000 0.0000 0.0000 4.0501 0.0000 0.0000
# 5 0.0000 0.0000 0.0000 0.0000 59.0753 0.0000
# 6 0.0000 0.0000 0.0000 0.0000 0.0000 0.8835
#
#
#
# Elastic Compliance Matrix: (Units=1/GPa)
#
#
# Indices 1 2 3 4 5 6 
#
# 1 0.007350 -0.000245 -0.004758 0.000000 0.000000 0.000000
# 2 -0.000245 0.008995 -0.002547 0.000000 0.000000 0.000000
# 3 -0.004758 -0.002547 0.024617 0.000000 0.000000 0.000000
# 4 0.000000 0.000000 0.000000 0.246910 0.000000 0.000000
# 5 0.000000 0.000000 0.000000 0.000000 0.016928 0.000000
# 6 0.000000 0.000000 0.000000 0.000000 0.000000 1.131907
#
#
# Mechanical properties :
#
#
# Convention : Reuss Voigt Hill
#
# Bulk Modulus (GPa) = 38.66684 48.88415 43.77549
# Shear Modulus (GPa) = 3.42365 30.22923 16.82644
#
# Velocity S-wave (km/s) = 1.24238 3.69168 2.75427
# Velocity P-wave (km/s) = 4.41481 6.34115 5.46355
#
# Compressibility (1/GPa) = 0.02586195
#
# Stress axis : x y z
#
# Youngs Moduli (GPa) = 136.04987 111.16815 40.62245
#
# Poissons Ratio (x) = 0.02726 0.19328
# Poissons Ratio (y) = 0.03337 0.10347
# Poissons Ratio (z) = 0.64731 0.28317
#
# Static dielectric constant tensor:
#      x y z
#    x 1.887000 0.000000 0.000000 
#    y 0.000000 1.812760 0.000000 
#    z 0.000000 0.000000 1.765610 
# 
# From -- ./inp_files/46854.got.cif
#   From: 2010.05.17/outbox.cif.g08.bks.cpg/sg71_24_cif.got.tgz:46854.got - 2010.06.03 16:22:01.
