data_PCOD9518685
_publ_section_title
;
Structure prediction by ZEFSAII (Michael W. Deem and Ramdas Pophale) SiO2 
 PCOD9518685
Probable space group: I M M M
;
_chemical_formula_sum "Si O2"
_cell_formula_units_Z 88
_cell_length_a 14.622149
_cell_length_b 15.168762
_cell_length_c 19.132438
_cell_angle_alpha 90.000000
_cell_angle_beta 90.000000
_cell_angle_gamma 90.000000
_cell_volume 4243.572799
_symmetry_space_group_name_H-M "I M M M"
_symmetry_group_IT_number 71
_symmetry_cell_setting 'orthorhombic'
loop_
_space_group_symop_operation_xyz
x,y,z
-x,-y,z
x,-y,-z
-x,y,-z
-x,-y,-z
x,y,-z
-x,y,z
x,-y,z
1/2+x,1/2+y,1/2+z
1/2-x,1/2-y,1/2+z
1/2+x,1/2-y,1/2-z
1/2-x,1/2+y,1/2-z
1/2-x,1/2-y,1/2-z
1/2+x,1/2+y,1/2-z
1/2-x,1/2+y,1/2+z
1/2+x,1/2-y,1/2+z
loop_
_atom_site_type_symbol
_atom_site_label
_atom_site_fract_x
_atom_site_fract_y
_atom_site_fract_z
Si Si1 0.392953 0.107690 0.848307
Si Si2 0.605381 0.844241 0.577837
Si Si3 0.893111 0.867647 0.925354
Si Si4 0.388125 0.896297 0.000000
Si Si5 0.397965 0.397399 0.270824
Si Si6 0.718073 0.893768 0.712625
O O1 0.500000 0.130906 0.841920
O O2 0.357698 0.140238 0.924487
O O3 0.339705 0.137493 0.779669
O O4 0.389017 0.000000 0.850392
O O5 0.631028 0.876198 0.500000
O O6 0.500000 0.871381 0.591215
O O7 0.606900 0.738056 0.575405
O O8 0.669702 0.872253 0.640424
O O9 0.858075 0.896452 0.850012
O O10 0.000000 0.895995 0.925618
O O11 0.852247 0.896729 0.000000
O O12 0.500000 0.891222 0.000000
O O13 0.365617 0.000000 0.000000
O O14 0.500000 0.356912 0.270415
O O15 0.408291 0.500000 0.252515
O O16 0.321142 0.358273 0.220856
O O17 0.721900 0.000000 0.717813
#
# Coordination Sequence:
#
# PCOD9518685 Si02
#       6
#    16  16  16   8  16  16
#     4   8  13  22  36  55  82 116 150 183 220 268
#     4   9  18  32  50  72  97 124 154 193 242 292
#     4   8  15  30  50  70  94 124 158 195 236 285
#     4   7  10  18  32  48  71 109 149 177 209 255
#     4   9  18  32  48  68  95 125 158 198 242 281
#     4  10  19  29  43  68  97 125 159 196 234 279
#
# _framework density 20.737244
#
# number of rings (size 3 to 8) (size 9 to 14) (size 15 to 20)
#    0.000    3.364    0.000    2.727    0.000    2.545 
#    1.636    2.727    0.000    0.545    0.000    2.545 
#    0.000    1.455    0.000    0.000    0.000    0.000 
#
# Total GULP energy -245245.353866 kJ/mol
# GULP energy per Si atom -5573.758042 kJ/mol
# Density = 2.069004 g / cm^3
# Si number density = 20.737244 Si / 1000 Ang^3
#
#
#
# Elastic Constant Matrix: (Units=GPa)
#
#
# Indices 1 2 3 4 5 6 
#
# 1 100.1008 11.7374 101.0621 0.0000 0.0000 0.0000
# 2 11.7374 26.8982 6.8678 0.0000 0.0000 0.0000
# 3 101.0621 6.8678 177.3963 0.0000 0.0000 0.0000
# 4 0.0000 0.0000 0.0000 -23.7246 0.0000 0.0000
# 5 0.0000 0.0000 0.0000 0.0000 28.9026 0.0000
# 6 0.0000 0.0000 0.0000 0.0000 0.0000 2.7176
#
#
#
# Elastic Compliance Matrix: (Units=1/GPa)
#
#
# Indices 1 2 3 4 5 6 
#
# 1 0.024859 -0.007304 -0.013879 0.000000 0.000000 0.000000
# 2 -0.007304 0.039694 0.002624 0.000000 0.000000 0.000000
# 3 -0.013879 0.002624 0.013442 0.000000 0.000000 0.000000
# 4 0.000000 0.000000 0.000000 -0.042150 0.000000 0.000000
# 5 0.000000 0.000000 0.000000 0.000000 0.034599 0.000000
# 6 0.000000 0.000000 0.000000 0.000000 0.000000 0.367967
#
#
# Mechanical properties :
#
#
# Convention : Reuss Voigt Hill
#
# Bulk Modulus (GPa) = 24.46305 60.41443 42.43874
# Shear Modulus (GPa) = 10.22171 13.89434 12.05802
#
# Velocity S-wave (km/s) = 2.22258 2.59128 2.41398
# Velocity P-wave (km/s) = 4.29054 6.17653 5.31781
#
# Compressibility (1/GPa) = 0.04087798
#
# Stress axis : x y z
#
# Youngs Moduli (GPa) = 40.22712 25.19252 74.39115
#
# Poissons Ratio (x) = 0.18400 1.03249
# Poissons Ratio (y) = 0.29381 -0.19522
# Poissons Ratio (z) = 0.55832 -0.06611
#
# Static dielectric constant tensor:
#      x y z
#    x 1.795440 0.000000 0.000000 
#    y 0.000000 1.735740 0.000000 
#    z 0.000000 0.000000 1.772950 
# 
# From -- ./inp_files/34421.got.cif
#   From: 2010.05.17/outbox.cif.g08.bks.cpg/sg71_18_cif.got.tgz:34421.got - 2010.06.03 16:22:01.
