data_PCOD9518925
_publ_section_title
;
Structure prediction by ZEFSAII (Michael W. Deem and Ramdas Pophale) SiO2 
 PCOD9518925
Probable space group: I M M M
;
_chemical_formula_sum "Si O2"
_cell_formula_units_Z 96
_cell_length_a 32.833117
_cell_length_b 17.357732
_cell_length_c 9.056235
_cell_angle_alpha 90.000000
_cell_angle_beta 90.000000
_cell_angle_gamma 90.000000
_cell_volume 5161.224812
_symmetry_space_group_name_H-M "I M M M"
_symmetry_group_IT_number 71
_symmetry_cell_setting 'orthorhombic'
loop_
_space_group_symop_operation_xyz
x,y,z
-x,-y,z
x,-y,-z
-x,y,-z
-x,-y,-z
x,y,-z
-x,y,z
x,-y,z
1/2+x,1/2+y,1/2+z
1/2-x,1/2-y,1/2+z
1/2+x,1/2-y,1/2-z
1/2-x,1/2+y,1/2-z
1/2-x,1/2-y,1/2-z
1/2+x,1/2+y,1/2-z
1/2-x,1/2+y,1/2+z
1/2+x,1/2-y,1/2+z
loop_
_atom_site_type_symbol
_atom_site_label
_atom_site_fract_x
_atom_site_fract_y
_atom_site_fract_z
Si Si1 0.787657 0.408080 0.334447
Si Si2 0.543893 0.126991 0.674115
Si Si3 0.626440 0.311605 0.176267
Si Si4 0.368387 0.144084 0.677919
Si Si5 0.954923 0.814390 0.826647
Si Si6 0.793660 0.091389 0.325013
O O1 0.793382 0.376677 0.500000
O O2 0.782946 0.500000 0.343642
O O3 0.827424 0.393458 0.237344
O O4 0.745846 0.378704 0.262064
O O5 0.543048 0.107077 0.500000
O O6 0.500000 0.100877 0.737654
O O7 0.588871 0.104607 0.729630
O O8 0.544256 0.220579 0.684074
O O9 0.631942 0.230407 0.258326
O O10 0.583043 0.343280 0.232533
O O11 0.664757 0.365225 0.213190
O O12 0.625198 0.300479 0.000000
O O13 0.368990 0.145541 0.500000
O O14 0.000000 0.841364 0.781221
O O15 0.949124 0.831820 0.000000
O O16 0.786272 0.101268 0.500000
O O17 0.798444 0.000000 0.297717
#
# Coordination Sequence:
#
# PCOD9518925 Si02
#       6
#    16  16  16  16  16  16
#     4  10  21  36  53  72  94 122 159 203 246 288
#     4   7  11  22  41  65  91 119 153 189 222 262
#     4  10  19  30  48  75 102 125 156 203 249 284
#     4  10  19  31  50  74 100 130 160 193 238 290
#     4   8  14  26  44  66  95 130 163 194 232 283
#     4   9  19  36  54  70  92 126 165 200 240 295
#
# _framework density 18.600237
#
# number of rings (size 3 to 8) (size 9 to 14) (size 15 to 20)
#    0.000    3.000    0.000    3.500    0.000    3.333 
#    0.000    0.000    0.000    2.500    0.000    7.000 
#    0.000    0.000    0.000    0.000    0.000    0.000 
#
# Total GULP energy -267281.717647 kJ/mol
# GULP energy per Si atom -5568.369118 kJ/mol
# Density = 1.855790 g / cm^3
# Si number density = 18.600237 Si / 1000 Ang^3
#
#
#
# Elastic Constant Matrix: (Units=GPa)
#
#
# Indices 1 2 3 4 5 6 
#
# 1 195.9964 28.3085 68.7550 0.0000 0.0000 0.0000
# 2 28.3085 12.5858 17.5097 0.0000 0.0000 0.0000
# 3 68.7550 17.5097 58.0096 0.0000 0.0000 0.0000
# 4 0.0000 0.0000 0.0000 10.5811 0.0000 0.0000
# 5 0.0000 0.0000 0.0000 0.0000 32.4653 0.0000
# 6 0.0000 0.0000 0.0000 0.0000 0.0000 115.1203
#
#
#
# Elastic Compliance Matrix: (Units=1/GPa)
#
#
# Indices 1 2 3 4 5 6 
#
# 1 0.009373 -0.009700 -0.008182 0.000000 0.000000 0.000000
# 2 -0.009700 0.147014 -0.032878 0.000000 0.000000 0.000000
# 3 -0.008182 -0.032878 0.036859 0.000000 0.000000 0.000000
# 4 0.000000 0.000000 0.000000 0.094508 0.000000 0.000000
# 5 0.000000 0.000000 0.000000 0.000000 0.030802 0.000000
# 6 0.000000 0.000000 0.000000 0.000000 0.000000 0.008687
#
#
# Mechanical properties :
#
#
# Convention : Reuss Voigt Hill
#
# Bulk Modulus (GPa) = 10.90186 55.08202 32.99194
# Shear Modulus (GPa) = 10.88520 41.76792 26.32656
#
# Velocity S-wave (km/s) = 2.42175 4.74387 3.76625
# Velocity P-wave (km/s) = 3.70050 7.72552 6.05712
#
# Compressibility (1/GPa) = 0.09172748
#
# Stress axis : x y z
#
# Youngs Moduli (GPa) = 106.68671 6.80206 27.13012
#
# Poissons Ratio (x) = 0.06598 0.22197
# Poissons Ratio (y) = 1.03490 0.89198
# Poissons Ratio (z) = 0.87286 0.22364
#
# Static dielectric constant tensor:
#      x y z
#    x 1.691240 0.000000 0.000000 
#    y 0.000000 1.639640 0.000000 
#    z 0.000000 0.000000 1.635510 
# 
# From -- ./inp_files/10830.got.cif
#   From: 2010.05.17/outbox.cif.g08.bks.cpg/sg71_6_cif.got.tgz:10830.got - 2010.06.03 16:22:01.
