data_PCOD9518745
_publ_section_title
;
Structure prediction by ZEFSAII (Michael W. Deem and Ramdas Pophale) SiO2 
 PCOD9518745
Probable space group: I M M M
;
_chemical_formula_sum "Si O2"
_cell_formula_units_Z 88
_cell_length_a 27.993738
_cell_length_b 13.726865
_cell_length_c 15.323801
_cell_angle_alpha 90.000000
_cell_angle_beta 90.000000
_cell_angle_gamma 90.000000
_cell_volume 5888.419736
_symmetry_space_group_name_H-M "I M M M"
_symmetry_group_IT_number 71
_symmetry_cell_setting 'orthorhombic'
loop_
_space_group_symop_operation_xyz
x,y,z
-x,-y,z
x,-y,-z
-x,y,-z
-x,-y,-z
x,y,-z
-x,y,z
x,-y,z
1/2+x,1/2+y,1/2+z
1/2-x,1/2-y,1/2+z
1/2+x,1/2-y,1/2-z
1/2-x,1/2+y,1/2-z
1/2-x,1/2-y,1/2-z
1/2+x,1/2+y,1/2-z
1/2-x,1/2+y,1/2+z
1/2+x,1/2-y,1/2+z
loop_
_atom_site_type_symbol
_atom_site_label
_atom_site_fract_x
_atom_site_fract_y
_atom_site_fract_z
Si Si1 0.908769 0.614078 0.101062
Si Si2 0.779243 0.112986 0.398209
Si Si3 0.646670 0.615403 0.255180
Si Si4 0.054822 0.206583 0.183983
Si Si5 0.557657 0.390713 0.500000
Si Si6 0.186349 0.741167 0.100767
O O1 0.908373 0.500000 0.120204
O O2 0.939924 0.678450 0.167006
O O3 0.855946 0.660834 0.106409
O O4 0.925441 0.625986 0.000000
O O5 0.792543 0.124642 0.500000
O O6 0.823059 0.128813 0.332930
O O7 0.735878 0.186445 0.379572
O O8 0.763252 0.000000 0.387097
O O9 0.642874 0.500000 0.273201
O O10 0.593890 0.662760 0.251216
O O11 0.674128 0.673282 0.332023
O O12 0.000000 0.179973 0.201965
O O13 0.070203 0.162632 0.089255
O O14 0.576810 0.500000 0.500000
O O15 0.500000 0.394682 0.500000
O O16 0.187258 0.775502 0.000000
#
# Coordination Sequence:
#
# PCOD9518745 Si02
#       6
#    16  16  16  16   8  16
#     4   9  16  26  41  62  88 116 146 178 211 252
#     4   9  17  31  50  68  86 112 147 184 223 264
#     4  10  20  30  44  66  90 118 150 184 216 252
#     4  10  19  30  41  59  86 117 152 182 216 261
#     4   9  16  26  39  53  75 113 150 172 199 251
#     4   9  17  29  45  66  93 120 143 170 213 267
#
# _framework density 14.944587
#
# number of rings (size 3 to 8) (size 9 to 14) (size 15 to 20)
#    0.000    2.636    0.909    1.636    1.273    4.000 
#    0.000    0.909    0.000    0.545    0.000    2.545 
#    0.000    0.000    0.000    6.545    0.000    0.000 
#
# Total GULP energy -245148.259718 kJ/mol
# GULP energy per Si atom -5571.551357 kJ/mol
# Density = 1.491057 g / cm^3
# Si number density = 14.944587 Si / 1000 Ang^3
#
#
#
# Elastic Constant Matrix: (Units=GPa)
#
#
# Indices 1 2 3 4 5 6 
#
# 1 96.7342 38.7790 44.2774 0.0000 0.0000 0.0000
# 2 38.7790 94.7950 35.7372 0.0000 0.0000 0.0000
# 3 44.2774 35.7372 45.0123 0.0000 0.0000 0.0000
# 4 0.0000 0.0000 0.0000 19.4056 0.0000 0.0000
# 5 0.0000 0.0000 0.0000 0.0000 18.8120 0.0000
# 6 0.0000 0.0000 0.0000 0.0000 0.0000 15.3558
#
#
#
# Elastic Compliance Matrix: (Units=1/GPa)
#
#
# Indices 1 2 3 4 5 6 
#
# 1 0.018874 -0.001030 -0.017748 0.000000 0.000000 0.000000
# 2 -0.001030 0.015112 -0.010984 0.000000 0.000000 0.000000
# 3 -0.017748 -0.010984 0.048396 0.000000 0.000000 0.000000
# 4 0.000000 0.000000 0.000000 0.051531 0.000000 0.000000
# 5 0.000000 0.000000 0.000000 0.000000 0.053158 0.000000
# 6 0.000000 0.000000 0.000000 0.000000 0.000000 0.065122
#
#
# Mechanical properties :
#
#
# Convention : Reuss Voigt Hill
#
# Bulk Modulus (GPa) = 43.75244 52.68098 48.21671
# Shear Modulus (GPa) = 15.65746 18.56455 17.11101
#
# Velocity S-wave (km/s) = 3.24033 3.52835 3.38740
# Velocity P-wave (km/s) = 6.58329 7.20600 6.90167
#
# Compressibility (1/GPa) = 0.02285587
#
# Stress axis : x y z
#
# Youngs Moduli (GPa) = 52.98193 66.17464 20.66306
#
# Poissons Ratio (x) = 0.06817 0.36673
# Poissons Ratio (y) = 0.05458 0.22697
# Poissons Ratio (z) = 0.94034 0.72688
#
# Static dielectric constant tensor:
#      x y z
#    x 1.508170 0.000000 0.000000 
#    y 0.000000 1.515650 0.000000 
#    z 0.000000 0.000000 1.477920 
# 
# From -- ./inp_files/22290.got.cif
#   From: 2010.05.17/outbox.cif.g08.bks.cpg/sg71_12_cif.got.tgz:22290.got - 2010.06.03 16:22:01.
