data_PCOD9518290
_publ_section_title
;
Structure prediction by ZEFSAII (Michael W. Deem and Ramdas Pophale) SiO2 
 PCOD9518290
Probable space group: I M M M
;
_chemical_formula_sum "Si O2"
_cell_formula_units_Z 104
_cell_length_a 16.265947
_cell_length_b 14.857806
_cell_length_c 24.142624
_cell_angle_alpha 90.000000
_cell_angle_beta 90.000000
_cell_angle_gamma 90.000000
_cell_volume 5834.699677
_symmetry_space_group_name_H-M "I M M M"
_symmetry_group_IT_number 71
_symmetry_cell_setting 'orthorhombic'
loop_
_space_group_symop_operation_xyz
x,y,z
-x,-y,z
x,-y,-z
-x,y,-z
-x,-y,-z
x,y,-z
-x,y,z
x,-y,z
1/2+x,1/2+y,1/2+z
1/2-x,1/2-y,1/2+z
1/2+x,1/2-y,1/2-z
1/2-x,1/2+y,1/2-z
1/2-x,1/2-y,1/2-z
1/2+x,1/2+y,1/2-z
1/2-x,1/2+y,1/2+z
1/2+x,1/2-y,1/2+z
loop_
_atom_site_type_symbol
_atom_site_label
_atom_site_fract_x
_atom_site_fract_y
_atom_site_fract_z
Si Si1 0.903057 0.212334 0.939003
Si Si2 0.134344 0.600843 0.113245
Si Si3 0.096912 0.401287 0.757724
Si Si4 0.404809 0.390802 0.000000
Si Si5 0.668834 0.604366 0.116449
Si Si6 0.399636 0.395746 0.668141
Si Si7 0.899936 0.210435 0.279276
O O1 0.895190 0.317615 0.924373
O O2 0.869587 0.155501 0.887044
O O3 0.000000 0.191247 0.941491
O O4 0.867475 0.193596 0.000000
O O5 0.109769 0.500000 0.095055
O O6 0.103509 0.613610 0.176162
O O7 0.232879 0.604462 0.115666
O O8 0.133784 0.500000 0.745638
O O9 0.130090 0.313266 0.727375
O O10 0.000000 0.405394 0.744731
O O11 0.362633 0.361601 0.943054
O O12 0.399509 0.500000 0.000000
O O13 0.500000 0.365277 0.000000
O O14 0.641369 0.500000 0.123548
O O15 0.634679 0.662494 0.166705
O O16 0.500000 0.393371 0.667435
O O17 0.374832 0.500000 0.669010
O O18 0.375023 0.343910 0.723965
O O19 0.000000 0.210082 0.281386
#
# Coordination Sequence:
#
# PCOD9518290 Si02
#       7
#    16  16  16   8  16  16  16
#     4  10  20  33  49  70  96 131 174 209 240 285
#     4  10  20  33  49  69 100 134 164 205 249 293
#     4   9  17  31  51  73 100 133 165 201 244 287
#     4   9  18  34  52  70  98 130 160 195 240 298
#     4  10  21  33  49  75 102 130 159 197 251 301
#     4   9  17  30  48  71  98 127 162 206 248 283
#     4  10  18  31  53  76  97 125 164 205 243 290
#
# _framework density 17.824396
#
# number of rings (size 3 to 8) (size 9 to 14) (size 15 to 20)
#    0.000    2.385    1.538    1.385    1.077    3.692 
#    0.000    2.308    0.000    0.000    0.000    0.538 
#    0.000    3.077    0.000    0.000    0.000    0.000 
#
# Total GULP energy -289970.240451 kJ/mol
# GULP energy per Si atom -5576.350778 kJ/mol
# Density = 1.778383 g / cm^3
# Si number density = 17.824396 Si / 1000 Ang^3
#
#
#
# Elastic Constant Matrix: (Units=GPa)
#
#
# Indices 1 2 3 4 5 6 
#
# 1 14.9237 9.4993 15.0063 0.0000 0.0000 0.0000
# 2 9.4993 105.8703 73.5230 0.0000 0.0000 0.0000
# 3 15.0063 73.5230 143.1392 0.0000 0.0000 0.0000
# 4 0.0000 0.0000 0.0000 21.2978 0.0000 0.0000
# 5 0.0000 0.0000 0.0000 0.0000 -30.7701 0.0000
# 6 0.0000 0.0000 0.0000 0.0000 0.0000 13.3943
#
#
#
# Elastic Compliance Matrix: (Units=1/GPa)
#
#
# Indices 1 2 3 4 5 6 
#
# 1 0.075169 -0.001977 -0.006865 0.000000 0.000000 0.000000
# 2 -0.001977 0.014735 -0.007361 0.000000 0.000000 0.000000
# 3 -0.006865 -0.007361 0.011487 0.000000 0.000000 0.000000
# 4 0.000000 0.000000 0.000000 0.046953 0.000000 0.000000
# 5 0.000000 0.000000 0.000000 0.000000 -0.032499 0.000000
# 6 0.000000 0.000000 0.000000 0.000000 0.000000 0.074659
#
#
# Mechanical properties :
#
#
# Convention : Reuss Voigt Hill
#
# Bulk Modulus (GPa) = 14.49611 51.11006 32.80309
# Shear Modulus (GPa) = 20.33305 11.84473 16.08889
#
# Velocity S-wave (km/s) = 3.38115 2.58063 3.00764
# Velocity P-wave (km/s) = 4.83666 6.13319 5.52310
#
# Compressibility (1/GPa) = 0.06898402
#
# Stress axis : x y z
#
# Youngs Moduli (GPa) = 13.30340 67.86513 87.05457
#
# Poissons Ratio (x) = 0.13418 0.59762
# Poissons Ratio (y) = 0.02630 0.64084
# Poissons Ratio (z) = 0.09133 0.49958
#
# Static dielectric constant tensor:
#      x y z
#    x 1.638030 0.000000 0.000000 
#    y 0.000000 1.630180 0.000000 
#    z 0.000000 0.000000 1.601390 
# 
# From -- ./inp_files/36711.got.cif
#   From: 2010.05.17/outbox.cif.g08.bks.cpg/sg71_19_cif.got.tgz:36711.got - 2010.06.03 16:22:01.
