data_PCOD9518163
_publ_section_title
;
Structure prediction by ZEFSAII (Michael W. Deem and Ramdas Pophale) SiO2 
 PCOD9518163
Probable space group: I M M M
;
_chemical_formula_sum "Si O2"
_cell_formula_units_Z 96
_cell_length_a 13.642626
_cell_length_b 30.976919
_cell_length_c 15.170883
_cell_angle_alpha 90.000000
_cell_angle_beta 90.000000
_cell_angle_gamma 90.000000
_cell_volume 6411.314078
_symmetry_space_group_name_H-M "I M M M"
_symmetry_group_IT_number 71
_symmetry_cell_setting 'orthorhombic'
loop_
_space_group_symop_operation_xyz
x,y,z
-x,-y,z
x,-y,-z
-x,y,-z
-x,-y,-z
x,y,-z
-x,y,z
x,-y,z
1/2+x,1/2+y,1/2+z
1/2-x,1/2-y,1/2+z
1/2+x,1/2-y,1/2-z
1/2-x,1/2+y,1/2-z
1/2-x,1/2-y,1/2-z
1/2+x,1/2+y,1/2-z
1/2-x,1/2+y,1/2+z
1/2+x,1/2-y,1/2+z
loop_
_atom_site_type_symbol
_atom_site_label
_atom_site_fract_x
_atom_site_fract_y
_atom_site_fract_z
Si Si1 0.311482 0.194962 0.094511
Si Si2 0.691958 0.169280 0.602549
Si Si3 0.389999 0.285889 0.147076
Si Si4 0.882172 0.624682 0.731690
Si Si5 0.611110 0.735662 0.355007
Si Si6 0.380974 0.950274 0.100098
O O1 0.367895 0.240334 0.100895
O O2 0.344827 0.164903 0.173603
O O3 0.197217 0.207745 0.101695
O O4 0.332727 0.174280 0.000000
O O5 0.674968 0.159620 0.500000
O O6 0.805720 0.181202 0.618934
O O7 0.658292 0.132585 0.670434
O O8 0.635400 0.214058 0.626890
O O9 0.500000 0.300625 0.128292
O O10 0.381608 0.274753 0.250995
O O11 0.849701 0.582396 0.676909
O O12 0.000000 0.625382 0.734828
O O13 0.500000 0.726546 0.383813
O O14 0.500000 0.949292 0.099515
O O15 0.351706 0.000000 0.115873
O O16 0.349773 0.938281 0.000000
#
# Coordination Sequence:
#
# PCOD9518163 Si02
#       6
#    16  16  16  16  16  16
#     4  11  20  29  43  64  88 114 150 190 228 265
#     4  11  21  32  45  62  87 120 159 191 221 264
#     4  10  18  31  47  60  84 120 154 193 232 260
#     4  11  20  31  45  65  93 117 146 186 221 256
#     4  10  18  31  46  58  84 124 157 189 226 261
#     4   8  15  29  49  71  92 115 141 170 215 272
#
# _framework density 14.97353
#
# number of rings (size 3 to 8) (size 9 to 14) (size 15 to 20)
#    0.000    1.833    3.333    5.000    0.000    5.333 
#    0.000    0.000    0.000    0.500    0.000    2.333 
#    0.000    2.667    0.000   10.667    0.000    0.667 
#
# Total GULP energy -267684.918921 kJ/mol
# GULP energy per Si atom -5576.769144 kJ/mol
# Density = 1.493945 g / cm^3
# Si number density = 14.973530 Si / 1000 Ang^3
#
#
#
# Elastic Constant Matrix: (Units=GPa)
#
#
# Indices 1 2 3 4 5 6 
#
# 1 65.8373 17.2215 23.9947 0.0000 0.0000 0.0000
# 2 17.2215 65.8004 42.8748 -0.0001 0.0001 0.0000
# 3 23.9947 42.8748 125.4834 -0.0005 0.0004 0.0000
# 4 0.0000 -0.0001 -0.0005 19.8731 0.0002 0.0000
# 5 0.0000 0.0001 0.0004 0.0002 -2.2908 0.0000
# 6 0.0000 0.0000 0.0000 0.0000 0.0000 11.1797
#
#
#
# Elastic Compliance Matrix: (Units=1/GPa)
#
#
# Indices 1 2 3 4 5 6 
#
# 1 0.016762 -0.002957 -0.002195 0.000000 0.000000 0.000000
# 2 -0.002957 0.020072 -0.006293 0.000000 0.000000 0.000000
# 3 -0.002195 -0.006293 0.010539 0.000000 0.000002 0.000000
# 4 0.000000 0.000000 0.000000 0.050319 0.000004 0.000000
# 5 0.000000 0.000000 0.000002 0.000004 -0.436523 -0.000002
# 6 0.000000 0.000000 0.000000 0.000000 -0.000002 0.089447
#
#
# Mechanical properties :
#
#
# Convention : Reuss Voigt Hill
#
# Bulk Modulus (GPa) = 40.84306 47.25591 44.04948
# Shear Modulus (GPa) = -22.90075 17.28773 -2.80651
#
# Velocity S-wave (km/s) = -3.91502 3.40156 -1.37054
# Velocity P-wave (km/s) = 2.62670 6.85971 5.19400
#
# Compressibility (1/GPa) = 0.02448397
#
# Stress axis : x y z
#
# Youngs Moduli (GPa) = 59.65743 49.82174 94.88625
#
# Poissons Ratio (x) = 0.14732 0.20827
# Poissons Ratio (y) = 0.17640 0.59708
# Poissons Ratio (z) = 0.13095 0.31351
#
# Static dielectric constant tensor:
#      x y z
#    x 1.504300 0.000000 0.000000 
#    y 0.000000 1.469060 0.000000 
#    z 0.000000 0.000000 1.548200 
# 
# From -- ./inp_files/35251.got.cif
#   From: 2010.05.17/outbox.cif.g08.bks.cpg/sg71_18_cif.got.tgz:35251.got - 2010.06.03 16:22:01.
