data_PCOD9518136
_publ_section_title
;
Structure prediction by ZEFSAII (Michael W. Deem and Ramdas Pophale) SiO2 
 PCOD9518136
Probable space group: I M M M
;
_chemical_formula_sum "Si O2"
_cell_formula_units_Z 104
_cell_length_a 26.575111
_cell_length_b 24.256262
_cell_length_c 7.498139
_cell_angle_alpha 90.000000
_cell_angle_beta 90.000000
_cell_angle_gamma 90.000000
_cell_volume 4833.396789
_symmetry_space_group_name_H-M "I M M M"
_symmetry_group_IT_number 71
_symmetry_cell_setting 'orthorhombic'
loop_
_space_group_symop_operation_xyz
x,y,z
-x,-y,z
x,-y,-z
-x,y,-z
-x,-y,-z
x,y,-z
-x,y,z
x,-y,z
1/2+x,1/2+y,1/2+z
1/2-x,1/2-y,1/2+z
1/2+x,1/2-y,1/2-z
1/2-x,1/2+y,1/2-z
1/2-x,1/2-y,1/2-z
1/2+x,1/2+y,1/2-z
1/2-x,1/2+y,1/2+z
1/2+x,1/2-y,1/2+z
loop_
_atom_site_type_symbol
_atom_site_label
_atom_site_fract_x
_atom_site_fract_y
_atom_site_fract_z
Si Si1 0.441733 0.436386 0.782409
Si Si2 0.148630 0.727403 0.788540
Si Si3 0.206750 0.441507 0.794638
Si Si4 0.500000 0.063533 0.782041
Si Si5 0.105435 0.392396 0.287890
Si Si6 0.250069 0.173830 0.280974
Si Si7 0.863723 0.843086 0.705576
O O1 0.500000 0.425636 0.727794
O O2 0.429103 0.500000 0.731310
O O3 0.401805 0.389493 0.721197
O O4 0.441750 0.435070 0.000000
O O5 0.121130 0.670035 0.751806
O O6 0.206744 0.717682 0.720716
O O7 0.118450 0.779564 0.712115
O O8 0.151263 0.734449 0.000000
O O9 0.220749 0.500000 0.712022
O O10 0.147073 0.432957 0.791563
O O11 0.227913 0.385112 0.719453
O O12 0.223842 0.442551 0.000000
O O13 0.449668 0.093398 0.722011
O O14 0.500000 0.000000 0.728292
O O15 0.500000 0.064603 0.000000
O O16 0.107304 0.400545 0.500000
O O17 0.250505 0.176797 0.500000
O O18 0.192400 0.167973 0.218362
O O19 0.855809 0.859407 0.500000
#
# Coordination Sequence:
#
# PCOD9518136 Si02
#       7
#    16  16  16   8  16  16  16
#     4   8  15  29  49  75 105 130 155 199 254 298
#     4  10  20  35  50  68 101 135 163 202 254 303
#     4   9  17  30  47  69 101 135 163 198 250 303
#     4   9  18  32  51  75  99 123 158 207 252 285
#     4  10  19  33  52  72  95 127 168 210 248 290
#     4   8  16  29  46  70  99 131 166 204 243 289
#     4  10  18  30  52  78  98 126 171 208 241 294
#
# _framework density 21.516959
#
# number of rings (size 3 to 8) (size 9 to 14) (size 15 to 20)
#    0.000    2.846    0.000    3.231    0.000    1.538 
#    1.385    7.692    0.000    3.231    0.000    1.077 
#    0.000    0.000    0.000    0.000    0.000    0.000 
#
# Total GULP energy -289706.964579 kJ/mol
# GULP energy per Si atom -5571.287780 kJ/mol
# Density = 2.146799 g / cm^3
# Si number density = 21.516959 Si / 1000 Ang^3
#
#
#
# Elastic Constant Matrix: (Units=GPa)
#
#
# Indices 1 2 3 4 5 6 
#
# 1 108.8020 69.5682 -5.4785 0.0000 0.0000 0.0000
# 2 69.5682 147.5511 -6.8784 0.0000 0.0000 0.0000
# 3 -5.4785 -6.8784 62.8413 0.0000 0.0000 0.0000
# 4 0.0000 0.0000 0.0000 12.1381 0.0000 0.0000
# 5 0.0000 0.0000 0.0000 0.0000 9.9752 0.0000
# 6 0.0000 0.0000 0.0000 0.0000 0.0000 38.8554
#
#
#
# Elastic Compliance Matrix: (Units=1/GPa)
#
#
# Indices 1 2 3 4 5 6 
#
# 1 0.013171 -0.006188 0.000471 0.000000 0.000000 0.000000
# 2 -0.006188 0.009719 0.000524 0.000000 0.000000 0.000000
# 3 0.000471 0.000524 0.016012 0.000000 0.000000 0.000000
# 4 0.000000 0.000000 0.000000 0.082385 0.000000 0.000000
# 5 0.000000 0.000000 0.000000 0.000000 0.100249 0.000000
# 6 0.000000 0.000000 0.000000 0.000000 0.000000 0.025736
#
#
# Mechanical properties :
#
#
# Convention : Reuss Voigt Hill
#
# Bulk Modulus (GPa) = 35.06722 48.17967 41.62345
# Shear Modulus (GPa) = 18.71512 29.65929 24.18720
#
# Velocity S-wave (km/s) = 2.95241 3.71673 3.35640
# Velocity P-wave (km/s) = 5.28726 6.39209 5.86575
#
# Compressibility (1/GPa) = 0.02851666
#
# Stress axis : x y z
#
# Youngs Moduli (GPa) = 75.92167 102.88701 62.45487
#
# Poissons Ratio (x) = 0.63669 -0.02941
# Poissons Ratio (y) = 0.46982 -0.03275
# Poissons Ratio (z) = -0.03575 -0.05395
#
# Static dielectric constant tensor:
#      x y z
#    x 1.796970 0.000000 0.000000 
#    y 0.000000 1.823420 0.000000 
#    z 0.000000 0.000000 1.853440 
# 
# From -- ./inp_files/15265.got.cif
#   From: 2010.05.17/outbox.cif.g08.bks.cpg/sg71_8_cif.got.tgz:15265.got - 2010.06.03 16:22:01.
