data_PCOD9518639
_publ_section_title
;
Structure prediction by ZEFSAII (Michael W. Deem and Ramdas Pophale) SiO2 
 PCOD9518639
Probable space group: I M M M
;
_chemical_formula_sum "Si O2"
_cell_formula_units_Z 80
_cell_length_a 10.607618
_cell_length_b 14.351068
_cell_length_c 32.162572
_cell_angle_alpha 90.000000
_cell_angle_beta 90.000000
_cell_angle_gamma 90.000000
_cell_volume 4896.129152
_symmetry_space_group_name_H-M "I M M M"
_symmetry_group_IT_number 71
_symmetry_cell_setting 'orthorhombic'
loop_
_space_group_symop_operation_xyz
x,y,z
-x,-y,z
x,-y,-z
-x,y,-z
-x,-y,-z
x,y,-z
-x,y,z
x,-y,z
1/2+x,1/2+y,1/2+z
1/2-x,1/2-y,1/2+z
1/2+x,1/2-y,1/2-z
1/2-x,1/2+y,1/2-z
1/2-x,1/2-y,1/2-z
1/2+x,1/2+y,1/2-z
1/2-x,1/2+y,1/2+z
1/2+x,1/2-y,1/2+z
loop_
_atom_site_type_symbol
_atom_site_label
_atom_site_fract_x
_atom_site_fract_y
_atom_site_fract_z
Si Si1 0.149353 0.500000 0.144068
Si Si2 0.711274 0.500000 0.231904
Si Si3 0.353605 0.196181 0.863578
Si Si4 0.152390 0.684841 0.909874
Si Si5 0.634954 0.292557 0.224862
Si Si6 0.649406 0.000000 0.820390
Si Si7 0.652032 0.106270 0.500000
O O1 0.206230 0.500000 0.189925
O O2 0.180650 0.407354 0.117766
O O3 0.000000 0.500000 0.148434
O O4 0.637628 0.403158 0.229868
O O5 0.784831 0.500000 0.275626
O O6 0.500000 0.196255 0.879249
O O7 0.245571 0.234618 0.893876
O O8 0.352576 0.262330 0.822885
O O9 0.322166 0.093143 0.846444
O O10 0.000000 0.703859 0.906451
O O11 0.183440 0.658814 0.957482
O O12 0.500000 0.254737 0.240136
O O13 0.750000 0.250000 0.250000
O O14 0.500000 0.000000 0.812726
O O15 0.500000 0.099102 0.500000
O O16 0.701386 0.000000 0.500000
#
# Coordination Sequence:
#
# PCOD9518639 Si02
#       7
#     8   8  16  16  16   8   8
#     4  10  19  28  49  82 112 143 180 215 252 311
#     4  12  20  34  51  80 111 142 182 226 277 309
#     4  10  21  38  55  75 104 144 185 227 272 319
#     4  10  19  34  55  84 112 142 176 214 263 322
#     4  11  23  36  52  75 105 141 183 226 272 317
#     4  10  21  37  55  74 102 146 192 229 269 316
#     4   9  16  30  57  86 117 144 170 207 261 332
#
# _framework density 16.339438999999999
#
# number of rings (size 3 to 8) (size 9 to 14) (size 15 to 20)
#    0.000    1.700    5.000    0.600    0.000    1.600 
#    0.000    1.500    0.000    1.200    0.000    4.200 
#    0.000    0.000    0.000    0.000    0.000    0.000 
#
# Total GULP energy -222947.501496 kJ/mol
# GULP energy per Si atom -5573.687537 kJ/mol
# Density = 1.630225 g / cm^3
# Si number density = 16.339439 Si / 1000 Ang^3
#
#
#
# Elastic Constant Matrix: (Units=GPa)
#
#
# Indices 1 2 3 4 5 6 
#
# 1 81.6702 60.2460 66.5195 0.0000 0.0000 0.0000
# 2 60.2460 109.7061 58.2604 0.0000 0.0000 0.0000
# 3 66.5195 58.2604 110.0559 0.0000 0.0000 0.0000
# 4 0.0000 0.0000 0.0000 18.5938 0.0000 0.0000
# 5 0.0000 0.0000 0.0000 0.0000 19.4905 0.0000
# 6 0.0000 0.0000 0.0000 0.0000 0.0000 26.6028
#
#
#
# Elastic Compliance Matrix: (Units=1/GPa)
#
#
# Indices 1 2 3 4 5 6 
#
# 1 0.029834 -0.009470 -0.013019 0.000000 0.000000 0.000000
# 2 -0.009470 0.015686 -0.002580 0.000000 0.000000 0.000000
# 3 -0.013019 -0.002580 0.018321 0.000000 0.000000 0.000000
# 4 0.000000 0.000000 0.000000 0.053781 0.000000 0.000000
# 5 0.000000 0.000000 0.000000 0.000000 0.051307 0.000000
# 6 0.000000 0.000000 0.000000 0.000000 0.000000 0.037590
#
#
# Mechanical properties :
#
#
# Convention : Reuss Voigt Hill
#
# Bulk Modulus (GPa) = 72.97584 74.60934 73.79259
# Shear Modulus (GPa) = 19.14070 20.69786 19.91928
#
# Velocity S-wave (km/s) = 3.42635 3.56299 3.49534
# Velocity P-wave (km/s) = 7.77255 7.91756 7.84539
#
# Compressibility (1/GPa) = 0.01370317
#
# Stress axis : x y z
#
# Youngs Moduli (GPa) = 33.51917 63.75251 54.58223
#
# Poissons Ratio (x) = 0.60371 0.71061
# Poissons Ratio (y) = 0.31741 0.14082
# Poissons Ratio (z) = 0.43639 0.16448
#
# Static dielectric constant tensor:
#      x y z
#    x 1.564230 0.000000 0.000000 
#    y 0.000000 1.566670 0.000000 
#    z 0.000000 0.000000 1.531690 
# 
# From -- ./inp_files/64403.got.cif
#   From: 2010.05.17/outbox.cif.g08.bks.cpg/sg71_33_cif.got.tgz:64403.got - 2010.06.03 16:22:01.
