data_PCOD9518666
_publ_section_title
;
Structure prediction by ZEFSAII (Michael W. Deem and Ramdas Pophale) SiO2 
 PCOD9518666
Probable space group: I M M M
;
_chemical_formula_sum "Si O2"
_cell_formula_units_Z 104
_cell_length_a 20.674494
_cell_length_b 7.439681
_cell_length_c 25.628972
_cell_angle_alpha 90.000000
_cell_angle_beta 90.000000
_cell_angle_gamma 90.000000
_cell_volume 3942.034220
_symmetry_space_group_name_H-M "I M M M"
_symmetry_group_IT_number 71
_symmetry_cell_setting 'orthorhombic'
loop_
_space_group_symop_operation_xyz
x,y,z
-x,-y,z
x,-y,-z
-x,y,-z
-x,-y,-z
x,y,-z
-x,y,z
x,-y,z
1/2+x,1/2+y,1/2+z
1/2-x,1/2-y,1/2+z
1/2+x,1/2-y,1/2-z
1/2-x,1/2+y,1/2-z
1/2-x,1/2-y,1/2-z
1/2+x,1/2+y,1/2-z
1/2-x,1/2+y,1/2+z
1/2+x,1/2-y,1/2+z
loop_
_atom_site_type_symbol
_atom_site_label
_atom_site_fract_x
_atom_site_fract_y
_atom_site_fract_z
Si Si1 0.902050 0.709797 0.556353
Si Si2 0.609507 0.213598 0.833121
Si Si3 0.254288 0.711177 0.326336
Si Si4 0.381982 0.283194 0.278794
Si Si5 0.251988 0.784656 0.442991
Si Si6 0.576408 0.719993 0.500000
Si Si7 0.577150 0.290792 0.389974
O O1 0.921537 0.788729 0.500000
O O2 0.920864 0.500000 0.554603
O O3 0.921747 0.784164 0.613307
O O4 0.823531 0.721897 0.558204
O O5 0.682469 0.291120 0.827083
O O6 0.583136 0.234464 0.774872
O O7 0.614576 0.000000 0.841900
O O8 0.248071 0.500000 0.316280
O O9 0.307462 0.781214 0.285836
O O10 0.279200 0.728464 0.386422
O O11 0.382697 0.500000 0.279905
O O12 0.411002 0.213947 0.332923
O O13 0.276755 0.719123 0.500000
O O14 0.251888 0.000000 0.443681
O O15 0.579695 0.500000 0.500000
O O16 0.500000 0.766066 0.500000
O O17 0.602962 0.788079 0.555413
O O18 0.500000 0.291952 0.395848
O O19 0.597605 0.500000 0.388559
#
# Coordination Sequence:
#
# PCOD9518666 Si02
#       7
#    16  16  16  16  16   8  16
#     4   8  14  26  43  60  79 106 141 177 208 241
#     4   9  17  28  42  59  84 118 146 169 207 252
#     4   9  18  30  40  55  81 114 149 178 208 249
#     4  10  19  29  42  64  87 108 142 179 212 254
#     4   9  16  25  38  56  77 104 140 178 216 252
#     4   7  10  20  40  62  83 107 133 167 217 267
#     4   8  14  26  44  65  88 110 135 176 227 269
#
# _framework density 26.38232
#
# number of rings (size 3 to 8) (size 9 to 14) (size 15 to 20)
#    0.000    3.308    0.000    2.769    0.000    4.000 
#    1.385    0.000    0.000    0.462    0.000    0.000 
#    0.000    2.462    0.000    7.692    0.000    0.154 
#
# Total GULP energy -290105.272735 kJ/mol
# GULP energy per Si atom -5578.947553 kJ/mol
# Density = 2.632227 g / cm^3
# Si number density = 26.382320 Si / 1000 Ang^3
#
#
#
# Elastic Constant Matrix: (Units=GPa)
#
#
# Indices 1 2 3 4 5 6 
#
# 1 53.1940 3.0269 33.0046 0.0000 0.0000 0.0000
# 2 3.0269 103.4294 5.9718 0.0000 0.0000 0.0000
# 3 33.0046 5.9718 316.7441 0.0000 0.0000 0.0000
# 4 0.0000 0.0000 0.0000 23.0145 0.0000 0.0000
# 5 0.0000 0.0000 0.0000 0.0000 17.8899 0.0000
# 6 0.0000 0.0000 0.0000 0.0000 0.0000 -12.3812
#
#
#
# Elastic Compliance Matrix: (Units=1/GPa)
#
#
# Indices 1 2 3 4 5 6 
#
# 1 0.020121 -0.000468 -0.002088 0.000000 0.000000 0.000000
# 2 -0.000468 0.009690 -0.000134 0.000000 0.000000 0.000000
# 3 -0.002088 -0.000134 0.003377 0.000000 0.000000 0.000000
# 4 0.000000 0.000000 0.000000 0.043451 0.000000 0.000000
# 5 0.000000 0.000000 0.000000 0.000000 0.055898 0.000000
# 6 0.000000 0.000000 0.000000 0.000000 0.000000 -0.080768
#
#
# Mechanical properties :
#
#
# Convention : Reuss Voigt Hill
#
# Bulk Modulus (GPa) = 35.96057 61.93046 48.94552
# Shear Modulus (GPa) = 75.28055 34.46225 54.87140
#
# Velocity S-wave (km/s) = 5.34756 3.61815 4.56549
# Velocity P-wave (km/s) = 7.19644 6.40155 6.81060
#
# Compressibility (1/GPa) = 0.02780823
#
# Stress axis : x y z
#
# Youngs Moduli (GPa) = 49.69895 103.20060 296.10378
#
# Poissons Ratio (x) = 0.04833 0.61820
# Poissons Ratio (y) = 0.02327 0.03965
# Poissons Ratio (z) = 0.10376 0.01382
#
# Static dielectric constant tensor:
#      x y z
#    x 2.122630 0.000000 0.000000 
#    y 0.000000 1.999630 0.000000 
#    z 0.000000 0.000000 2.180310 
# 
# From -- ./inp_files/62286.got.cif
#   From: 2010.05.17/outbox.cif.g08.bks.cpg/sg71_32_cif.got.tgz:62286.got - 2010.06.03 16:22:01.
