data_PCOD9518973
_publ_section_title
;
Structure prediction by ZEFSAII (Michael W. Deem and Ramdas Pophale) SiO2 
 PCOD9518973
Probable space group: I M M M
;
_chemical_formula_sum "Si O2"
_cell_formula_units_Z 92
_cell_length_a 20.008218
_cell_length_b 27.084908
_cell_length_c 7.730161
_cell_angle_alpha 90.000000
_cell_angle_beta 90.000000
_cell_angle_gamma 90.000000
_cell_volume 4189.134599
_symmetry_space_group_name_H-M "I M M M"
_symmetry_group_IT_number 71
_symmetry_cell_setting 'orthorhombic'
loop_
_space_group_symop_operation_xyz
x,y,z
-x,-y,z
x,-y,-z
-x,y,-z
-x,-y,-z
x,y,-z
-x,y,z
x,-y,z
1/2+x,1/2+y,1/2+z
1/2-x,1/2-y,1/2+z
1/2+x,1/2-y,1/2-z
1/2-x,1/2+y,1/2-z
1/2-x,1/2-y,1/2-z
1/2+x,1/2+y,1/2-z
1/2-x,1/2+y,1/2+z
1/2+x,1/2-y,1/2+z
loop_
_atom_site_type_symbol
_atom_site_label
_atom_site_fract_x
_atom_site_fract_y
_atom_site_fract_z
Si Si1 0.324680 0.770300 0.209095
Si Si2 0.776609 0.903149 0.790629
Si Si3 0.345323 0.500000 0.696536
Si Si4 0.500000 0.500000 0.241919
Si Si5 0.500000 0.941614 0.211976
Si Si6 0.882581 0.828153 0.699842
Si Si7 0.869250 0.620206 0.709757
Si Si8 0.500000 0.397107 0.308653
O O1 0.250000 0.750000 0.250000
O O2 0.374262 0.726867 0.269505
O O3 0.351374 0.823771 0.269926
O O4 0.326625 0.772135 0.000000
O O5 0.810802 0.854625 0.714577
O O6 0.699051 0.908680 0.749563
O O7 0.817964 0.949897 0.724591
O O8 0.782908 0.898260 0.000000
O O9 0.318564 0.500000 0.500000
O O10 0.424414 0.500000 0.688502
O O11 0.500000 0.442944 0.178721
O O12 0.565486 0.910024 0.268110
O O13 0.500000 0.000000 0.264595
O O14 0.500000 0.942377 0.000000
O O15 0.903003 0.825585 0.500000
O O16 0.935557 0.863000 0.791741
O O17 0.874978 0.623121 0.500000
O O18 0.500000 0.420378 0.500000
#
# Coordination Sequence:
#
# PCOD9518973 Si02
#       8
#    16  16   8   4   8  16  16   8
#     4  10  20  35  57  83 112 148 187 232 281 338
#     4  10  19  33  55  81 110 147 190 233 281 343
#     4  10  19  30  50  80 110 140 186 242 283 329
#     4  12  21  34  57  82 103 144 195 240 283 324
#     4   9  18  31  50  83 120 146 178 237 298 347
#     4  11  23  37  54  82 115 147 185 235 285 329
#     4   9  18  32  53  80 112 150 186 223 283 347
#     4  12  24  40  59  79 110 151 193 234 278 335
#
# _framework density 21.961576000000001
#
# number of rings (size 3 to 8) (size 9 to 14) (size 15 to 20)
#    0.000    1.826    3.478    1.565    1.217    1.391 
#    0.000    4.783    0.000    0.000    0.000    1.826 
#    0.000    2.783    0.000    0.000    0.000    0.000 
#
# Total GULP energy -256436.082118 kJ/mol
# GULP energy per Si atom -5574.697437 kJ/mol
# Density = 2.191159 g / cm^3
# Si number density = 21.961576 Si / 1000 Ang^3
#
#
#
# Elastic Constant Matrix: (Units=GPa)
#
#
# Indices 1 2 3 4 5 6 
#
# 1 157.9559 88.9444 8.4169 0.0000 0.0000 0.0000
# 2 88.9444 187.8618 12.1059 0.0000 0.0000 0.0000
# 3 8.4169 12.1059 44.7154 0.0000 0.0000 0.0000
# 4 0.0000 0.0000 0.0000 11.4509 0.0000 0.0000
# 5 0.0000 0.0000 0.0000 0.0000 4.6383 0.0000
# 6 0.0000 0.0000 0.0000 0.0000 0.0000 -110.7546
#
#
#
# Elastic Compliance Matrix: (Units=1/GPa)
#
#
# Indices 1 2 3 4 5 6 
#
# 1 0.008644 -0.004059 -0.000528 0.000000 0.000000 0.000000
# 2 -0.004059 0.007323 -0.001219 0.000000 0.000000 0.000000
# 3 -0.000528 -0.001219 0.022793 0.000000 0.000000 0.000000
# 4 0.000000 0.000000 0.000000 0.087330 0.000000 0.000000
# 5 0.000000 0.000000 0.000000 0.000000 0.215597 0.000000
# 6 0.000000 0.000000 0.000000 0.000000 0.000000 -0.009029
#
#
# Mechanical properties :
#
#
# Convention : Reuss Voigt Hill
#
# Bulk Modulus (GPa) = 36.83339 67.71862 52.27601
# Shear Modulus (GPa) = 14.15149 -0.19537 6.97806
#
# Velocity S-wave (km/s) = 2.54121 -0.29858 1.78446
# Velocity P-wave (km/s) = 5.04167 5.54825 5.30102
#
# Compressibility (1/GPa) = 0.02714928
#
# Stress axis : x y z
#
# Youngs Moduli (GPa) = 115.68053 136.55180 43.87308
#
# Poissons Ratio (x) = 0.55423 0.02318
# Poissons Ratio (y) = 0.46952 0.05347
# Poissons Ratio (z) = 0.06112 0.16641
#
# Static dielectric constant tensor:
#      x y z
#    x 1.780970 0.000000 0.000000 
#    y 0.000000 1.833070 0.000000 
#    z 0.000000 0.000000 1.862250 
# 
# From -- ./inp_files/11030.got.cif
#   From: 2010.05.17/outbox.cif.g08.bks.cpg/sg71_6_cif.got.tgz:11030.got - 2010.06.03 16:22:01.
