data_PCOD9518419
_publ_section_title
;
Structure prediction by ZEFSAII (Michael W. Deem and Ramdas Pophale) SiO2 
 PCOD9518419
Probable space group: I M M M
;
_chemical_formula_sum "Si O2"
_cell_formula_units_Z 72
_cell_length_a 25.963076
_cell_length_b 17.564843
_cell_length_c 8.385931
_cell_angle_alpha 90.000000
_cell_angle_beta 90.000000
_cell_angle_gamma 90.000000
_cell_volume 3824.297782
_symmetry_space_group_name_H-M "I M M M"
_symmetry_group_IT_number 71
_symmetry_cell_setting 'orthorhombic'
loop_
_space_group_symop_operation_xyz
x,y,z
-x,-y,z
x,-y,-z
-x,y,-z
-x,-y,-z
x,y,-z
-x,y,z
x,-y,z
1/2+x,1/2+y,1/2+z
1/2-x,1/2-y,1/2+z
1/2+x,1/2-y,1/2-z
1/2-x,1/2+y,1/2-z
1/2-x,1/2-y,1/2-z
1/2+x,1/2+y,1/2-z
1/2-x,1/2+y,1/2+z
1/2+x,1/2-y,1/2+z
loop_
_atom_site_type_symbol
_atom_site_label
_atom_site_fract_x
_atom_site_fract_y
_atom_site_fract_z
Si Si1 0.914531 0.290340 0.309566
Si Si2 0.000000 0.412405 0.306249
Si Si3 0.942134 0.125174 0.187472
Si Si4 0.807377 0.757438 0.815584
Si Si5 0.837827 0.083465 0.315004
O O1 0.920634 0.279975 0.500000
O O2 0.949083 0.363194 0.261693
O O3 0.936342 0.215439 0.221994
O O4 0.853427 0.289138 0.270781
O O5 0.000000 0.500000 0.248753
O O6 0.000000 0.415401 0.500000
O O7 0.899241 0.085169 0.292899
O O8 0.000000 0.101529 0.224047
O O9 0.932179 0.111145 0.000000
O O10 0.750000 0.750000 0.750000
O O11 0.819830 0.846582 0.791038
O O12 0.808960 0.736624 0.000000
O O13 0.824993 0.098465 0.500000
O O14 0.818041 0.000000 0.270442
#
# Coordination Sequence:
#
# PCOD9518419 Si02
#       5
#    16   8  16  16  16
#     4  10  18  32  55  80 108 144 184 229 277 330
#     4   9  18  32  53  83 116 149 186 231 283 338
#     4  10  19  30  48  74 106 143 180 216 257 313
#     4  11  22  38  60  83 108 143 187 233 279 336
#     4  10  21  36  54  78 108 139 174 220 271 321
#
# _framework density 18.826983999999999
#
# number of rings (size 3 to 8) (size 9 to 14) (size 15 to 20)
#    0.000    1.889    1.111    6.667    0.000    3.556 
#    0.000    3.333    0.000    9.333    0.000    0.000 
#    0.000    0.000    0.000    0.000    0.000    0.000 
#
# Total GULP energy -200799.455881 kJ/mol
# GULP energy per Si atom -5577.762663 kJ/mol
# Density = 1.878413 g / cm^3
# Si number density = 18.826984 Si / 1000 Ang^3
#
#
#
# Elastic Constant Matrix: (Units=GPa)
#
#
# Indices 1 2 3 4 5 6 
#
# 1 108.6933 27.3229 5.8937 0.0000 0.0000 0.0000
# 2 27.3229 90.0926 -2.5799 0.0000 0.0000 0.0000
# 3 5.8937 -2.5799 36.3314 0.0000 0.0000 0.0000
# 4 0.0000 0.0000 0.0000 9.1923 0.0000 0.0000
# 5 0.0000 0.0000 0.0000 0.0000 28.6086 0.0000
# 6 0.0000 0.0000 0.0000 0.0000 0.0000 8.2935
#
#
#
# Elastic Compliance Matrix: (Units=1/GPa)
#
#
# Indices 1 2 3 4 5 6 
#
# 1 0.010083 -0.003111 -0.001857 0.000000 0.000000 0.000000
# 2 -0.003111 0.012082 0.001363 0.000000 0.000000 0.000000
# 3 -0.001857 0.001363 0.027922 0.000000 0.000000 0.000000
# 4 0.000000 0.000000 0.000000 0.108787 0.000000 0.000000
# 5 0.000000 0.000000 0.000000 0.000000 0.034955 0.000000
# 6 0.000000 0.000000 0.000000 0.000000 0.000000 0.120576
#
#
# Mechanical properties :
#
#
# Convention : Reuss Voigt Hill
#
# Bulk Modulus (GPa) = 23.32226 32.93230 28.12728
# Shear Modulus (GPa) = 14.88505 22.85091 18.86798
#
# Velocity S-wave (km/s) = 2.81485 3.48764 3.16915
# Velocity P-wave (km/s) = 4.79365 5.80933 5.32576
#
# Compressibility (1/GPa) = 0.04287750
#
# Stress axis : x y z
#
# Youngs Moduli (GPa) = 99.17760 82.76616 35.81361
#
# Poissons Ratio (x) = 0.25749 0.06649
# Poissons Ratio (y) = 0.30855 -0.04880
# Poissons Ratio (z) = 0.18413 -0.11278
#
# Static dielectric constant tensor:
#      x y z
#    x 1.679320 0.000000 0.000000 
#    y 0.000000 1.676160 0.000000 
#    z 0.000000 0.000000 1.628580 
# 
# From -- ./inp_files/14454.got.cif
#   From: 2010.05.17/outbox.cif.g08.bks.cpg/sg71_8_cif.got.tgz:14454.got - 2010.06.03 16:22:01.
