data_PCOD9518225
_publ_section_title
;
Structure prediction by ZEFSAII (Michael W. Deem and Ramdas Pophale) SiO2 
 PCOD9518225
Probable space group: I M M M
;
_chemical_formula_sum "Si O2"
_cell_formula_units_Z 72
_cell_length_a 8.632516
_cell_length_b 29.035148
_cell_length_c 16.702739
_cell_angle_alpha 90.000000
_cell_angle_beta 90.000000
_cell_angle_gamma 90.000000
_cell_volume 4186.481061
_symmetry_space_group_name_H-M "I M M M"
_symmetry_group_IT_number 71
_symmetry_cell_setting 'orthorhombic'
loop_
_space_group_symop_operation_xyz
x,y,z
-x,-y,z
x,-y,-z
-x,y,-z
-x,-y,-z
x,y,-z
-x,y,z
x,-y,z
1/2+x,1/2+y,1/2+z
1/2-x,1/2-y,1/2+z
1/2+x,1/2-y,1/2-z
1/2-x,1/2+y,1/2-z
1/2-x,1/2-y,1/2-z
1/2+x,1/2+y,1/2-z
1/2-x,1/2+y,1/2+z
1/2+x,1/2-y,1/2+z
loop_
_atom_site_type_symbol
_atom_site_label
_atom_site_fract_x
_atom_site_fract_y
_atom_site_fract_z
Si Si1 0.185010 0.723558 0.828171
Si Si2 0.811932 0.446383 0.823828
Si Si3 0.322559 0.944105 0.500000
Si Si4 0.314923 0.807266 0.089911
Si Si5 0.184292 0.860011 0.756338
O O1 0.250000 0.750000 0.750000
O O2 0.249695 0.755470 0.898579
O O3 0.246417 0.672222 0.814498
O O4 0.000000 0.723829 0.828470
O O5 0.772108 0.500000 0.810308
O O6 0.754520 0.432290 0.913396
O O7 0.742809 0.411361 0.760116
O O8 0.000000 0.443469 0.823964
O O9 0.500000 0.926851 0.500000
O O10 0.330087 0.000000 0.500000
O O11 0.500000 0.805963 0.100789
O O12 0.244386 0.839172 0.159554
O O13 0.279760 0.823462 0.000000
O O14 0.000000 0.856980 0.754968
#
# Coordination Sequence:
#
# PCOD9518225 Si02
#       5
#    16  16   8  16  16
#     4  10  18  31  51  72  98 130 166 205 249 298
#     4   9  17  32  54  77 102 134 173 215 258 304
#     4   7  12  26  49  73  95 123 161 205 249 293
#     4  10  20  35  55  77 102 132 169 214 261 307
#     4  11  21  33  51  75 106 140 173 209 253 304
#
# _framework density 17.198215000000001
#
# number of rings (size 3 to 8) (size 9 to 14) (size 15 to 20)
#    0.000    2.333    0.000    8.667    0.000    2.222 
#    2.000    0.556    0.000    2.667    0.000    4.667 
#    0.000    0.000    0.000    0.000    0.000    0.000 
#
# Total GULP energy -200572.764529 kJ/mol
# GULP energy per Si atom -5571.465681 kJ/mol
# Density = 1.715907 g / cm^3
# Si number density = 17.198215 Si / 1000 Ang^3
#
#
#
# Elastic Constant Matrix: (Units=GPa)
#
#
# Indices 1 2 3 4 5 6 
#
# 1 94.5627 43.9518 42.1485 0.0000 0.0000 0.0000
# 2 43.9518 99.9172 53.1833 0.0000 0.0000 0.0000
# 3 42.1485 53.1833 95.7407 -0.0001 0.0000 0.0000
# 4 0.0000 0.0000 -0.0001 23.9859 0.0000 0.0000
# 5 0.0000 0.0000 0.0000 0.0000 14.9216 0.0000
# 6 0.0000 0.0000 0.0000 0.0000 0.0000 23.6270
#
#
#
# Elastic Compliance Matrix: (Units=1/GPa)
#
#
# Indices 1 2 3 4 5 6 
#
# 1 0.014283 -0.004168 -0.003972 0.000000 0.000000 0.000000
# 2 -0.004168 0.015426 -0.006734 0.000000 0.000000 0.000000
# 3 -0.003972 -0.006734 0.015934 0.000000 0.000000 0.000000
# 4 0.000000 0.000000 0.000000 0.041691 0.000000 0.000000
# 5 0.000000 0.000000 0.000000 0.000000 0.067017 0.000000
# 6 0.000000 0.000000 0.000000 0.000000 0.000000 0.042324
#
#
# Mechanical properties :
#
#
# Convention : Reuss Voigt Hill
#
# Bulk Modulus (GPa) = 62.91725 63.19865 63.05795
# Shear Modulus (GPa) = 21.57739 22.56937 22.07338
#
# Velocity S-wave (km/s) = 3.54592 3.62651 3.58644
# Velocity P-wave (km/s) = 7.30943 7.37309 7.34133
#
# Compressibility (1/GPa) = 0.01589389
#
# Stress axis : x y z
#
# Youngs Moduli (GPa) = 70.01327 64.82429 62.75734
#
# Poissons Ratio (x) = 0.27022 0.24929
# Poissons Ratio (y) = 0.29185 0.42261
# Poissons Ratio (z) = 0.27812 0.43653
#
# Static dielectric constant tensor:
#      x y z
#    x 1.576190 0.000000 0.000000 
#    y 0.000000 1.590250 0.000000 
#    z 0.000000 0.000000 1.596410 
# 
# From -- ./inp_files/42176.got.cif
#   From: 2010.05.17/outbox.cif.g08.bks.cpg/sg71_22_cif.got.tgz:42176.got - 2010.06.03 16:22:01.
