data_PCOD9518314
_publ_section_title
;
Structure prediction by ZEFSAII (Michael W. Deem and Ramdas Pophale) SiO2 
 PCOD9518314
Probable space group: I M M M
;
_chemical_formula_sum "Si O2"
_cell_formula_units_Z 104
_cell_length_a 19.005163
_cell_length_b 18.128102
_cell_length_c 14.960921
_cell_angle_alpha 90.000000
_cell_angle_beta 90.000000
_cell_angle_gamma 90.000000
_cell_volume 5154.449209
_symmetry_space_group_name_H-M "I M M M"
_symmetry_group_IT_number 71
_symmetry_cell_setting 'orthorhombic'
loop_
_space_group_symop_operation_xyz
x,y,z
-x,-y,z
x,-y,-z
-x,y,-z
-x,-y,-z
x,y,-z
-x,y,z
x,-y,z
1/2+x,1/2+y,1/2+z
1/2-x,1/2-y,1/2+z
1/2+x,1/2-y,1/2-z
1/2-x,1/2+y,1/2-z
1/2-x,1/2-y,1/2-z
1/2+x,1/2+y,1/2-z
1/2-x,1/2+y,1/2+z
1/2+x,1/2-y,1/2+z
loop_
_atom_site_type_symbol
_atom_site_label
_atom_site_fract_x
_atom_site_fract_y
_atom_site_fract_z
Si Si1 0.919562 0.673222 0.855368
Si Si2 0.283159 0.911188 0.400678
Si Si3 0.086243 0.584324 0.500000
Si Si4 0.084290 0.300827 0.353805
Si Si5 0.581448 0.343775 0.397778
Si Si6 0.583547 0.364211 0.899120
Si Si7 0.177139 0.916858 0.250791
O O1 0.862030 0.618524 0.893417
O O2 0.905314 0.684076 0.749917
O O3 0.914043 0.755039 0.895906
O O4 0.000000 0.647607 0.867205
O O5 0.256304 0.888312 0.500000
O O6 0.240976 0.885022 0.311815
O O7 0.280275 0.000000 0.397915
O O8 0.110504 0.500000 0.500000
O O9 0.110179 0.632167 0.585143
O O10 0.000000 0.581813 0.500000
O O11 0.110214 0.219818 0.382060
O O12 0.000000 0.298094 0.368805
O O13 0.590169 0.369602 0.500000
O O14 0.500000 0.361748 0.369017
O O15 0.641269 0.374213 0.331496
O O16 0.500000 0.362530 0.887874
O O17 0.616929 0.416406 0.826356
O O18 0.598455 0.386965 0.000000
O O19 0.194931 0.000000 0.222478
#
# Coordination Sequence:
#
# PCOD9518314 Si02
#       7
#    16  16   8  16  16  16  16
#     4  10  20  37  63  90 117 152 201 255 305 363
#     4  10  23  42  61  85 120 159 198 248 310 365
#     4   9  16  26  44  74 113 153 191 233 285 352
#     4   9  16  29  50  78 111 148 188 234 293 349
#     4  10  21  38  62  93 126 159 199 252 308 358
#     4  10  18  31  54  82 116 154 193 241 295 349
#     4  11  23  39  59  83 118 161 202 245 299 365
#
# _framework density 20.176743999999999
#
# number of rings (size 3 to 8) (size 9 to 14) (size 15 to 20)
#    0.000    2.077    2.308    1.385    0.000    4.923 
#    0.000    3.846    1.692    0.000    0.000    0.000 
#    0.000    0.000    0.000    0.000    0.000    0.000 
#
# Total GULP energy -289922.942812 kJ/mol
# GULP energy per Si atom -5575.441208 kJ/mol
# Density = 2.013082 g / cm^3
# Si number density = 20.176744 Si / 1000 Ang^3
#
#
#
# Elastic Constant Matrix: (Units=GPa)
#
#
# Indices 1 2 3 4 5 6 
#
# 1 85.7680 9.7379 44.8304 0.0000 0.0000 0.0000
# 2 9.7379 35.8813 26.4254 0.0000 0.0000 0.0000
# 3 44.8304 26.4254 87.3021 0.0000 0.0000 0.0000
# 4 0.0000 0.0000 0.0000 16.5391 0.0000 0.0000
# 5 0.0000 0.0000 0.0000 0.0000 21.9913 0.0000
# 6 0.0000 0.0000 0.0000 0.0000 0.0000 23.3890
#
#
#
# Elastic Compliance Matrix: (Units=1/GPa)
#
#
# Indices 1 2 3 4 5 6 
#
# 1 0.016072 0.002209 -0.008922 0.000000 0.000000 0.000000
# 2 0.002209 0.036168 -0.012082 0.000000 0.000000 0.000000
# 3 -0.008922 -0.012082 0.019693 0.000000 0.000000 0.000000
# 4 0.000000 0.000000 0.000000 0.060463 0.000000 0.000000
# 5 0.000000 0.000000 0.000000 0.000000 0.045472 0.000000
# 6 0.000000 0.000000 0.000000 0.000000 0.000000 0.042755
#
#
# Mechanical properties :
#
#
# Convention : Reuss Voigt Hill
#
# Bulk Modulus (GPa) = 29.11782 41.21544 35.16663
# Shear Modulus (GPa) = 18.54183 20.91439 19.72811
#
# Velocity S-wave (km/s) = 3.03474 3.22306 3.13032
# Velocity P-wave (km/s) = 5.17129 5.85853 5.52560
#
# Compressibility (1/GPa) = 0.03434323
#
# Stress axis : x y z
#
# Youngs Moduli (GPa) = 62.22061 27.64869 50.77993
#
# Poissons Ratio (x) = -0.06107 0.45304
# Poissons Ratio (y) = -0.13742 0.61351
# Poissons Ratio (z) = 0.55511 0.33405
#
# Static dielectric constant tensor:
#      x y z
#    x 1.736960 0.000000 0.000000 
#    y 0.000000 1.716910 0.000000 
#    z 0.000000 0.000000 1.733180 
# 
# From -- ./inp_files/36690.got.cif
#   From: 2010.05.17/outbox.cif.g08.bks.cpg/sg71_19_cif.got.tgz:36690.got - 2010.06.03 16:22:01.
