data_PCOD9518030
_publ_section_title
;
Structure prediction by ZEFSAII (Michael W. Deem and Ramdas Pophale) SiO2 
 PCOD9518030
Probable space group: I M M M
;
_chemical_formula_sum "Si O2"
_cell_formula_units_Z 80
_cell_length_a 7.735697
_cell_length_b 20.988528
_cell_length_c 29.276368
_cell_angle_alpha 90.000000
_cell_angle_beta 90.000000
_cell_angle_gamma 90.000000
_cell_volume 4753.337255
_symmetry_space_group_name_H-M "I M M M"
_symmetry_group_IT_number 71
_symmetry_cell_setting 'orthorhombic'
loop_
_space_group_symop_operation_xyz
x,y,z
-x,-y,z
x,-y,-z
-x,y,-z
-x,-y,-z
x,y,-z
-x,y,z
x,-y,z
1/2+x,1/2+y,1/2+z
1/2-x,1/2-y,1/2+z
1/2+x,1/2-y,1/2-z
1/2-x,1/2+y,1/2-z
1/2-x,1/2-y,1/2-z
1/2+x,1/2+y,1/2-z
1/2-x,1/2+y,1/2+z
1/2+x,1/2-y,1/2+z
loop_
_atom_site_type_symbol
_atom_site_label
_atom_site_fract_x
_atom_site_fract_y
_atom_site_fract_z
Si Si1 0.500000 0.262378 0.551780
Si Si2 0.702809 0.764779 0.879412
Si Si3 0.696041 0.388729 0.879695
Si Si4 0.292504 0.810834 0.219143
Si Si5 0.000000 0.607175 0.947498
Si Si6 0.290486 0.929354 0.278189
O O1 0.500000 0.285176 0.500000
O O2 0.670585 0.282169 0.579456
O O3 0.500000 0.184773 0.550758
O O4 0.500000 0.779323 0.887456
O O5 0.714958 0.687963 0.873652
O O6 0.764869 0.797363 0.832488
O O7 0.500000 0.402005 0.893992
O O8 0.832921 0.410946 0.917513
O O9 0.730557 0.417760 0.829975
O O10 0.500000 0.815538 0.216719
O O11 0.250000 0.750000 0.250000
O O12 0.226647 0.873745 0.244708
O O13 0.000000 0.584668 0.000000
O O14 0.500000 0.926390 0.278970
O O15 0.238631 0.000000 0.263297
#
# Coordination Sequence:
#
# PCOD9518030 Si02
#       6
#     8  16  16  16   8  16
#     4   9  18  30  48  71 101 137 163 203 261 303
#     4   9  18  30  46  73 100 126 169 210 245 297
#     4  10  18  30  49  70  94 127 167 208 252 300
#     4  10  19  29  48  73  99 133 169 207 250 297
#     4   9  18  32  49  70  97 127 166 214 261 299
#     4  10  20  33  49  70 100 136 170 206 250 301
#
# _framework density 16.830280999999999
#
# number of rings (size 3 to 8) (size 9 to 14) (size 15 to 20)
#    0.000    2.400    3.000    0.000    1.400    1.200 
#    0.000    4.000    0.000    1.200    0.000    1.400 
#    0.000    1.600    0.000    7.800    0.000    0.200 
#
# Total GULP energy -223130.391549 kJ/mol
# GULP energy per Si atom -5578.259789 kJ/mol
# Density = 1.679197 g / cm^3
# Si number density = 16.830281 Si / 1000 Ang^3
#
#
#
# Elastic Constant Matrix: (Units=GPa)
#
#
# Indices 1 2 3 4 5 6 
#
# 1 76.6012 32.2402 55.7526 0.0000 0.0000 0.0000
# 2 32.2402 70.4343 48.7985 0.0000 0.0000 0.0000
# 3 55.7526 48.7985 143.3054 0.0000 0.0000 0.0000
# 4 0.0000 0.0000 0.0000 7.8624 0.0000 0.0000
# 5 0.0000 0.0000 0.0000 0.0000 21.7217 0.0000
# 6 0.0000 0.0000 0.0000 0.0000 0.0000 6.4124
#
#
#
# Elastic Compliance Matrix: (Units=1/GPa)
#
#
# Indices 1 2 3 4 5 6 
#
# 1 0.019363 -0.004769 -0.005909 0.000000 0.000000 0.000000
# 2 -0.004769 0.019756 -0.004872 0.000000 0.000000 0.000000
# 3 -0.005909 -0.004872 0.010936 0.000000 0.000000 0.000000
# 4 0.000000 0.000000 0.000000 0.127187 0.000000 0.000000
# 5 0.000000 0.000000 0.000000 0.000000 0.046037 0.000000
# 6 0.000000 0.000000 0.000000 0.000000 0.000000 0.155949
#
#
# Mechanical properties :
#
#
# Convention : Reuss Voigt Hill
#
# Bulk Modulus (GPa) = 52.75765 62.65815 57.70790
# Shear Modulus (GPa) = 12.00061 17.43594 14.71827
#
# Velocity S-wave (km/s) = 2.67317 3.22217 2.96042
# Velocity P-wave (km/s) = 6.39865 7.15216 6.78587
#
# Compressibility (1/GPa) = 0.01895460
#
# Stress axis : x y z
#
# Youngs Moduli (GPa) = 51.64603 50.61756 91.44116
#
# Poissons Ratio (x) = 0.24140 0.54033
# Poissons Ratio (y) = 0.24630 0.44550
# Poissons Ratio (z) = 0.30518 0.24661
#
# Static dielectric constant tensor:
#      x y z
#    x 1.595140 0.000000 0.000000 
#    y 0.000000 1.569360 0.000000 
#    z 0.000000 0.000000 1.550360 
# 
# From -- ./inp_files/50396.got.cif
#   From: 2010.05.17/outbox.cif.g08.bks.cpg/sg71_26_cif.got.tgz:50396.got - 2010.06.03 16:22:01.
