data_PCOD9518607
_publ_section_title
;
Structure prediction by ZEFSAII (Michael W. Deem and Ramdas Pophale) SiO2 
 PCOD9518607
Probable space group: I M M M
;
_chemical_formula_sum "Si O2"
_cell_formula_units_Z 76
_cell_length_a 7.680231
_cell_length_b 41.076282
_cell_length_c 19.163976
_cell_angle_alpha 90.000000
_cell_angle_beta 90.000000
_cell_angle_gamma 90.000000
_cell_volume 6045.761737
_symmetry_space_group_name_H-M "I M M M"
_symmetry_group_IT_number 71
_symmetry_cell_setting 'orthorhombic'
loop_
_space_group_symop_operation_xyz
x,y,z
-x,-y,z
x,-y,-z
-x,y,-z
-x,-y,-z
x,y,-z
-x,y,z
x,-y,z
1/2+x,1/2+y,1/2+z
1/2-x,1/2-y,1/2+z
1/2+x,1/2-y,1/2-z
1/2-x,1/2+y,1/2-z
1/2-x,1/2-y,1/2-z
1/2+x,1/2+y,1/2-z
1/2-x,1/2+y,1/2+z
1/2+x,1/2-y,1/2+z
loop_
_atom_site_type_symbol
_atom_site_label
_atom_site_fract_x
_atom_site_fract_y
_atom_site_fract_z
Si Si1 0.800685 0.536685 0.415346
Si Si2 0.000000 0.841108 0.141062
Si Si3 0.000000 0.200758 0.000000
Si Si4 0.291679 0.729942 0.846724
Si Si5 0.791462 0.244471 0.500000
Si Si6 0.300710 0.801627 0.208400
Si Si7 0.000000 0.913595 0.084960
O O1 0.799538 0.536236 0.500000
O O2 0.749184 0.500000 0.393212
O O3 0.667268 0.564670 0.395122
O O4 0.000000 0.542560 0.393411
O O5 0.000000 0.821368 0.068429
O O6 0.830906 0.829153 0.183629
O O7 0.000000 0.878942 0.122180
O O8 0.829303 0.223685 0.000000
O O9 0.500000 0.727765 0.836960
O O10 0.242656 0.767107 0.826228
O O11 0.208494 0.705802 0.790954
O O12 0.252563 0.725663 0.928170
O O13 0.000000 0.252260 0.500000
O O14 0.500000 0.807896 0.187456
O O15 0.000000 0.909269 0.000000
#
# Coordination Sequence:
#
# PCOD9518607 Si02
#       7
#    16   8   4  16   8  16   8
#     4   8  14  26  43  61  79  99 126 160 195 229
#     4  12  22  33  40  57  82 107 136 163 206 260
#     4  12  22  30  44  56  77 106 126 164 218 260
#     4   9  17  30  45  61  75  92 125 165 208 249
#     4  10  20  30  44  64  78  89 120 171 217 252
#     4  10  20  31  44  56  74 102 130 161 200 251
#     4  10  19  28  40  58  79 105 132 161 199 244
#
# _framework density 12.570790000000001
#
# number of rings (size 3 to 8) (size 9 to 14) (size 15 to 20)
#    0.000    2.316    3.684    0.947    2.947    2.105 
#    0.000    0.000    0.000    0.000    0.000    0.000 
#    0.000    0.000    0.000    0.000    0.000    0.000 
#
# Total GULP energy -211719.732421 kJ/mol
# GULP energy per Si atom -5571.571906 kJ/mol
# Density = 1.254218 g / cm^3
# Si number density = 12.570790 Si / 1000 Ang^3
#
#
#
# Elastic Constant Matrix: (Units=GPa)
#
#
# Indices 1 2 3 4 5 6 
#
# 1 72.0131 56.2216 24.4707 0.0000 0.0000 0.0000
# 2 56.2216 86.7305 27.6373 0.0000 0.0000 0.0000
# 3 24.4707 27.6373 69.7951 0.0000 0.0000 0.0000
# 4 0.0000 0.0000 0.0000 14.9837 0.0000 0.0000
# 5 0.0000 0.0000 0.0000 0.0000 11.0012 0.0000
# 6 0.0000 0.0000 0.0000 0.0000 0.0000 1.5161
#
#
#
# Elastic Compliance Matrix: (Units=1/GPa)
#
#
# Indices 1 2 3 4 5 6 
#
# 1 0.028683 -0.017611 -0.003083 0.000000 0.000000 0.000000
# 2 -0.017611 0.024008 -0.003332 0.000000 0.000000 0.000000
# 3 -0.003083 -0.003332 0.016728 0.000000 0.000000 0.000000
# 4 0.000000 0.000000 0.000000 0.066739 0.000000 0.000000
# 5 0.000000 0.000000 0.000000 0.000000 0.090899 0.000000
# 6 0.000000 0.000000 0.000000 0.000000 0.000000 0.659599
#
#
# Mechanical properties :
#
#
# Convention : Reuss Voigt Hill
#
# Bulk Modulus (GPa) = 46.80118 49.46642 48.13380
# Shear Modulus (GPa) = 5.30881 13.51414 9.41147
#
# Velocity S-wave (km/s) = 2.05726 3.28234 2.73917
# Velocity P-wave (km/s) = 6.55393 7.33490 6.95538
#
# Compressibility (1/GPa) = 0.02136698
#
# Stress axis : x y z
#
# Youngs Moduli (GPa) = 34.86381 41.65329 59.78019
#
# Poissons Ratio (x) = 0.73355 0.18430
# Poissons Ratio (y) = 0.61398 0.19919
# Poissons Ratio (z) = 0.10748 0.13879
#
# Static dielectric constant tensor:
#      x y z
#    x 1.452090 0.000000 0.000000 
#    y 0.000000 1.380460 0.000000 
#    z 0.000000 0.000000 1.414930 
# 
# From -- ./inp_files/42320.got.cif
#   From: 2010.05.17/outbox.cif.g08.bks.cpg/sg71_22_cif.got.tgz:42320.got - 2010.06.03 16:22:01.
