data_PCOD9518860
_publ_section_title
;
Structure prediction by ZEFSAII (Michael W. Deem and Ramdas Pophale) SiO2 
 PCOD9518860
Probable space group: I M M M
;
_chemical_formula_sum "Si O2"
_cell_formula_units_Z 96
_cell_length_a 14.537265
_cell_length_b 26.829482
_cell_length_c 14.821817
_cell_angle_alpha 90.000000
_cell_angle_beta 90.000000
_cell_angle_gamma 90.000000
_cell_volume 5780.913112
_symmetry_space_group_name_H-M "I M M M"
_symmetry_group_IT_number 71
_symmetry_cell_setting 'orthorhombic'
loop_
_space_group_symop_operation_xyz
x,y,z
-x,-y,z
x,-y,-z
-x,y,-z
-x,-y,-z
x,y,-z
-x,y,z
x,-y,z
1/2+x,1/2+y,1/2+z
1/2-x,1/2-y,1/2+z
1/2+x,1/2-y,1/2-z
1/2-x,1/2+y,1/2-z
1/2-x,1/2-y,1/2-z
1/2+x,1/2+y,1/2-z
1/2-x,1/2+y,1/2+z
1/2+x,1/2-y,1/2+z
loop_
_atom_site_type_symbol
_atom_site_label
_atom_site_fract_x
_atom_site_fract_y
_atom_site_fract_z
Si Si1 0.892828 0.944652 0.256891
Si Si2 0.106083 0.840506 0.791546
Si Si3 0.792969 0.246025 0.893843
Si Si4 0.226402 0.556160 0.892807
Si Si5 0.606178 0.151513 0.390277
Si Si6 0.395602 0.294585 0.898771
O O1 0.872718 0.898256 0.191688
O O2 0.822037 0.941769 0.339417
O O3 0.000000 0.939019 0.285080
O O4 0.883222 0.000000 0.216758
O O5 0.169892 0.800528 0.839040
O O6 0.113013 0.832830 0.683296
O O7 0.000000 0.830069 0.817072
O O8 0.841590 0.297697 0.863184
O O9 0.683904 0.254240 0.884961
O O10 0.814200 0.239599 0.000000
O O11 0.187483 0.500000 0.877900
O O12 0.160691 0.601549 0.862923
O O13 0.241484 0.561438 0.000000
O O14 0.605884 0.151431 0.500000
O O15 0.500000 0.151723 0.360327
O O16 0.500000 0.274944 0.895538
O O17 0.380664 0.315966 0.000000
#
# Coordination Sequence:
#
# PCOD9518860 Si02
#       6
#    16  16  16  16  16  16
#     4   9  18  31  45  62  85 113 145 183 227 271
#     4  10  19  30  47  68  90 121 155 185 224 273
#     4  10  19  31  48  69  94 121 151 190 231 271
#     4   9  17  28  42  61  85 115 151 186 219 259
#     4   9  17  28  41  59  86 118 149 183 222 261
#     4   9  18  31  46  67  96 126 153 182 218 264
#
# _framework density 16.606372
#
# number of rings (size 3 to 8) (size 9 to 14) (size 15 to 20)
#    0.000    2.667    0.000    2.000    0.000    3.667 
#    0.000    5.000    0.000    0.500    0.000    2.333 
#    0.000    0.000    0.000    4.167    0.000    0.000 
#
# Total GULP energy -267359.272662 kJ/mol
# GULP energy per Si atom -5569.984847 kJ/mol
# Density = 1.656858 g / cm^3
# Si number density = 16.606372 Si / 1000 Ang^3
#
#
#
# Elastic Constant Matrix: (Units=GPa)
#
#
# Indices 1 2 3 4 5 6 
#
# 1 82.5145 70.0050 18.6209 0.0000 0.0000 0.0000
# 2 70.0050 150.9485 35.5758 0.0000 0.0000 0.0000
# 3 18.6209 35.5758 22.8097 -0.0001 0.0000 0.0000
# 4 0.0000 0.0000 -0.0001 14.4332 0.0000 0.0000
# 5 0.0000 0.0000 0.0000 0.0000 15.7562 0.0000
# 6 0.0000 0.0000 0.0000 0.0000 0.0000 17.4518
#
#
#
# Elastic Compliance Matrix: (Units=1/GPa)
#
#
# Indices 1 2 3 4 5 6 
#
# 1 0.020106 -0.008627 -0.002958 0.000000 0.000000 0.000000
# 2 -0.008627 0.014177 -0.015069 0.000000 0.000000 0.000000
# 3 -0.002958 -0.015069 0.069758 0.000000 0.000000 0.000000
# 4 0.000000 0.000000 0.000000 0.069285 0.000000 0.000000
# 5 0.000000 0.000000 0.000000 0.000000 0.063467 0.000000
# 6 0.000000 0.000000 0.000000 0.000000 0.000000 0.057301
#
#
# Mechanical properties :
#
#
# Convention : Reuss Voigt Hill
#
# Bulk Modulus (GPa) = 19.71090 56.07514 37.89302
# Shear Modulus (GPa) = 13.72443 18.33298 16.02870
#
# Velocity S-wave (km/s) = 2.87793 3.32621 3.11016
# Velocity P-wave (km/s) = 4.78942 6.97081 5.98041
#
# Compressibility (1/GPa) = 0.05073336
#
# Stress axis : x y z
#
# Youngs Moduli (GPa) = 49.73627 70.53466 14.33520
#
# Poissons Ratio (x) = 0.60854 0.04240
# Poissons Ratio (y) = 0.42910 0.21602
# Poissons Ratio (z) = 0.14710 1.06289
#
# Static dielectric constant tensor:
#      x y z
#    x 1.575200 0.000000 0.000000 
#    y 0.000000 1.587200 0.000000 
#    z 0.000000 0.000000 1.560090 
# 
# From -- ./inp_files/34529.got.cif
#   From: 2010.05.17/outbox.cif.g08.bks.cpg/sg71_18_cif.got.tgz:34529.got - 2010.06.03 16:22:01.
