data_PCOD9518982
_publ_section_title
;
Structure prediction by ZEFSAII (Michael W. Deem and Ramdas Pophale) SiO2 
 PCOD9518982
Probable space group: I M M M
;
_chemical_formula_sum "Si O2"
_cell_formula_units_Z 104
_cell_length_a 8.575327
_cell_length_b 22.481520
_cell_length_c 28.102285
_cell_angle_alpha 90.000000
_cell_angle_beta 90.000000
_cell_angle_gamma 90.000000
_cell_volume 5417.737948
_symmetry_space_group_name_H-M "I M M M"
_symmetry_group_IT_number 71
_symmetry_cell_setting 'orthorhombic'
loop_
_space_group_symop_operation_xyz
x,y,z
-x,-y,z
x,-y,-z
-x,y,-z
-x,-y,-z
x,y,-z
-x,y,z
x,-y,z
1/2+x,1/2+y,1/2+z
1/2-x,1/2-y,1/2+z
1/2+x,1/2-y,1/2-z
1/2-x,1/2+y,1/2-z
1/2-x,1/2-y,1/2-z
1/2+x,1/2+y,1/2-z
1/2-x,1/2+y,1/2+z
1/2+x,1/2-y,1/2+z
loop_
_atom_site_type_symbol
_atom_site_label
_atom_site_fract_x
_atom_site_fract_y
_atom_site_fract_z
Si Si1 0.828799 0.107419 0.053747
Si Si2 0.000000 0.429512 0.554649
Si Si3 0.688105 0.164775 0.278210
Si Si4 0.187721 0.432032 0.855932
Si Si5 0.317844 0.213514 0.819785
Si Si6 0.184245 0.860788 0.553723
Si Si7 0.325455 0.261979 0.418767
O O1 0.665236 0.088939 0.077280
O O2 0.822157 0.178750 0.050406
O O3 0.000000 0.092294 0.074791
O O4 0.827415 0.081864 0.000000
O O5 0.000000 0.500000 0.551916
O O6 0.000000 0.404580 0.500000
O O7 0.500000 0.174898 0.283781
O O8 0.731760 0.108071 0.310076
O O9 0.717824 0.165721 0.221561
O O10 0.781062 0.221515 0.297971
O O11 0.245123 0.500000 0.853389
O O12 0.241955 0.399573 0.904135
O O13 0.000000 0.433471 0.856432
O O14 0.500000 0.209125 0.832077
O O15 0.216368 0.212969 0.866892
O O16 0.243631 0.873204 0.500000
O O17 0.215471 0.791390 0.565382
O O18 0.000000 0.871509 0.554095
O O19 0.500000 0.236537 0.418668
#
# Coordination Sequence:
#
# PCOD9518982 Si02
#       7
#    16   8  16  16  16  16  16
#     4   9  19  33  50  76 109 146 186 229 280 335
#     4   9  18  32  52  76 102 138 183 229 271 323
#     4   9  18  34  53  79 110 140 176 223 277 331
#     4  10  21  38  60  82 108 148 196 240 282 338
#     4  10  19  30  52  82 110 140 173 223 277 334
#     4  11  24  38  54  80 113 150 191 239 293 345
#     4  11  21  34  53  80 113 149 185 228 287 344
#
# _framework density 19.196204000000002
#
# number of rings (size 3 to 8) (size 9 to 14) (size 15 to 20)
#    0.000    2.077    1.538    1.846    2.154    3.385 
#    0.000    3.077    0.000    0.923    0.000    0.000 
#    0.000    0.000    0.000    0.000    0.000    0.000 
#
# Total GULP energy -289771.421131 kJ/mol
# GULP energy per Si atom -5572.527329 kJ/mol
# Density = 1.915251 g / cm^3
# Si number density = 19.196204 Si / 1000 Ang^3
#
#
#
# Elastic Constant Matrix: (Units=GPa)
#
#
# Indices 1 2 3 4 5 6 
#
# 1 67.2818 20.3413 4.8067 0.0000 0.0000 0.0000
# 2 20.3413 80.9451 29.2866 0.0000 0.0000 0.0000
# 3 4.8067 29.2866 76.3350 0.0000 0.0000 0.0000
# 4 0.0000 0.0000 0.0000 16.7742 0.0000 0.0000
# 5 0.0000 0.0000 0.0000 0.0000 11.8845 0.0000
# 6 0.0000 0.0000 0.0000 0.0000 0.0000 17.3976
#
#
#
# Elastic Compliance Matrix: (Units=1/GPa)
#
#
# Indices 1 2 3 4 5 6 
#
# 1 0.016111 -0.004275 0.000626 0.000000 0.000000 0.000000
# 2 -0.004275 0.015480 -0.005670 0.000000 0.000000 0.000000
# 3 0.000626 -0.005670 0.015236 0.000000 0.000000 0.000000
# 4 0.000000 0.000000 0.000000 0.059615 0.000000 0.000000
# 5 0.000000 0.000000 0.000000 0.000000 0.084143 0.000000
# 6 0.000000 0.000000 0.000000 0.000000 0.000000 0.057479
#
#
# Mechanical properties :
#
#
# Convention : Reuss Voigt Hill
#
# Bulk Modulus (GPa) = 35.47575 37.04792 36.26183
# Shear Modulus (GPa) = 18.10949 20.55307 19.33128
#
# Velocity S-wave (km/s) = 3.07480 3.27568 3.17683
# Velocity P-wave (km/s) = 5.57912 5.80071 5.69099
#
# Compressibility (1/GPa) = 0.02818827
#
# Stress axis : x y z
#
# Youngs Moduli (GPa) = 62.07091 64.60081 65.63405
#
# Poissons Ratio (x) = 0.27616 -0.04106
# Poissons Ratio (y) = 0.26535 0.37213
# Poissons Ratio (z) = -0.03884 0.36627
#
# Static dielectric constant tensor:
#      x y z
#    x 1.698630 0.000000 0.000000 
#    y 0.000000 1.648770 0.000000 
#    z 0.000000 0.000000 1.715280 
# 
# From -- ./inp_files/63544.got.cif
#   From: 2010.05.17/outbox.cif.g08.bks.cpg/sg71_32_cif.got.tgz:63544.got - 2010.06.03 16:22:01.
