data_PCOD9518197
_publ_section_title
;
Structure prediction by ZEFSAII (Michael W. Deem and Ramdas Pophale) SiO2 
 PCOD9518197
Probable space group: I M M M
;
_chemical_formula_sum "Si O2"
_cell_formula_units_Z 112
_cell_length_a 15.286554
_cell_length_b 14.508972
_cell_length_c 32.803988
_cell_angle_alpha 90.000000
_cell_angle_beta 90.000000
_cell_angle_gamma 90.000000
_cell_volume 7275.668141
_symmetry_space_group_name_H-M "I M M M"
_symmetry_group_IT_number 71
_symmetry_cell_setting 'orthorhombic'
loop_
_space_group_symop_operation_xyz
x,y,z
-x,-y,z
x,-y,-z
-x,y,-z
-x,-y,-z
x,y,-z
-x,y,z
x,-y,z
1/2+x,1/2+y,1/2+z
1/2-x,1/2-y,1/2+z
1/2+x,1/2-y,1/2-z
1/2-x,1/2+y,1/2-z
1/2-x,1/2-y,1/2-z
1/2+x,1/2+y,1/2-z
1/2-x,1/2+y,1/2+z
1/2+x,1/2-y,1/2+z
loop_
_atom_site_type_symbol
_atom_site_label
_atom_site_fract_x
_atom_site_fract_y
_atom_site_fract_z
Si Si1 0.281570 0.891880 0.418868
Si Si2 0.401584 0.608478 0.781666
Si Si3 0.219978 0.393671 0.822469
Si Si4 0.396791 0.272219 0.299852
Si Si5 0.606235 0.394628 0.622176
Si Si6 0.095721 0.111554 0.452171
Si Si7 0.895090 0.768554 0.046395
O O1 0.297030 0.884633 0.370624
O O2 0.182489 0.860114 0.428575
O O3 0.347897 0.826951 0.442815
O O4 0.289664 0.000000 0.430415
O O5 0.500000 0.626810 0.797721
O O6 0.399189 0.500000 0.770344
O O7 0.322085 0.624077 0.812600
O O8 0.387915 0.669342 0.741426
O O9 0.201717 0.500000 0.810834
O O10 0.160072 0.320044 0.799647
O O11 0.500000 0.250707 0.305197
O O12 0.368310 0.334804 0.338393
O O13 0.500000 0.397655 0.622617
O O14 0.637482 0.500000 0.624145
O O15 0.631984 0.342751 0.580620
O O16 0.104677 0.135220 0.500000
O O17 0.000000 0.144501 0.437768
O O18 0.093711 0.000000 0.449840
O O19 0.000000 0.757369 0.049441
O O20 0.874602 0.796501 0.000000
#
# Coordination Sequence:
#
# PCOD9518197 Si02
#       7
#    16  16  16  16  16  16  16
#     4  10  19  30  44  63  92 128 158 185 221 268
#     4   9  18  32  50  72  95 120 153 193 234 272
#     4  10  20  31  45  68  97 126 154 186 225 271
#     4  10  18  31  50  69  93 124 156 190 224 268
#     4   9  17  30  48  68  88 114 151 192 234 274
#     4   8  14  25  41  60  81 109 149 192 228 261
#     4  10  20  32  45  64  92 124 157 193 230 270
#
# _framework density 15.393774000000001
#
# number of rings (size 3 to 8) (size 9 to 14) (size 15 to 20)
#    0.000    2.571    1.429    1.714    0.000    4.000 
#    0.000    6.429    0.000    0.000    0.000    0.000 
#    0.000    1.714    0.000    3.000    0.000    0.286 
#
# Total GULP energy -311898.278343 kJ/mol
# GULP energy per Si atom -5569.612113 kJ/mol
# Density = 1.535874 g / cm^3
# Si number density = 15.393774 Si / 1000 Ang^3
#
#
#
# Elastic Constant Matrix: (Units=GPa)
#
#
# Indices 1 2 3 4 5 6 
#
# 1 32.8625 20.4177 2.3027 0.0000 0.0000 0.0000
# 2 20.4177 55.7292 8.7012 0.0000 0.0000 0.0000
# 3 2.3027 8.7012 25.5176 0.0000 0.0000 0.0000
# 4 0.0000 0.0000 0.0000 9.6878 0.0000 0.0000
# 5 0.0000 0.0000 0.0000 0.0000 23.0587 0.0000
# 6 0.0000 0.0000 0.0000 0.0000 0.0000 16.0134
#
#
#
# Elastic Compliance Matrix: (Units=1/GPa)
#
#
# Indices 1 2 3 4 5 6 
#
# 1 0.039448 -0.014678 0.001445 0.000000 0.000000 0.000000
# 2 -0.014678 0.024415 -0.007000 0.000000 0.000000 0.000000
# 3 0.001445 -0.007000 0.041445 0.000000 0.000000 0.000000
# 4 0.000000 0.000000 0.000000 0.103223 0.000000 0.000000
# 5 0.000000 0.000000 0.000000 0.000000 0.043368 0.000000
# 6 0.000000 0.000000 0.000000 0.000000 0.000000 0.062448
#
#
# Mechanical properties :
#
#
# Convention : Reuss Voigt Hill
#
# Bulk Modulus (GPa) = 15.42234 19.66140 17.54187
# Shear Modulus (GPa) = 13.28277 15.26449 14.27363
#
# Velocity S-wave (km/s) = 2.94065 3.15239 3.04836
# Velocity P-wave (km/s) = 4.64437 5.10393 4.87956
#
# Compressibility (1/GPa) = 0.06484099
#
# Stress axis : x y z
#
# Youngs Moduli (GPa) = 25.34960 40.95892 24.12822
#
# Poissons Ratio (x) = 0.60121 -0.03487
# Poissons Ratio (y) = 0.37209 0.16891
# Poissons Ratio (z) = -0.03664 0.28673
#
# Static dielectric constant tensor:
#      x y z
#    x 1.518220 0.000000 0.000000 
#    y 0.000000 1.497460 0.000000 
#    z 0.000000 0.000000 1.514110 
# 
# From -- ./inp_files/70088.got.cif
#   From: 2010.05.17/outbox.cif.g08.bks.cpg/sg71_36_cif.got.tgz:70088.got - 2010.06.03 16:22:01.
