data_PCOD9518383
_publ_section_title
;
Structure prediction by ZEFSAII (Michael W. Deem and Ramdas Pophale) SiO2 
 PCOD9518383
Probable space group: I M M M
;
_chemical_formula_sum "Si O2"
_cell_formula_units_Z 88
_cell_length_a 29.718423
_cell_length_b 11.707274
_cell_length_c 15.038103
_cell_angle_alpha 90.000000
_cell_angle_beta 90.000000
_cell_angle_gamma 90.000000
_cell_volume 5232.082675
_symmetry_space_group_name_H-M "I M M M"
_symmetry_group_IT_number 71
_symmetry_cell_setting 'orthorhombic'
loop_
_space_group_symop_operation_xyz
x,y,z
-x,-y,z
x,-y,-z
-x,y,-z
-x,-y,-z
x,y,-z
-x,y,z
x,-y,z
1/2+x,1/2+y,1/2+z
1/2-x,1/2-y,1/2+z
1/2+x,1/2-y,1/2-z
1/2-x,1/2+y,1/2-z
1/2-x,1/2-y,1/2-z
1/2+x,1/2+y,1/2-z
1/2-x,1/2+y,1/2+z
1/2+x,1/2-y,1/2+z
loop_
_atom_site_type_symbol
_atom_site_label
_atom_site_fract_x
_atom_site_fract_y
_atom_site_fract_z
Si Si1 0.945678 0.627240 0.500000
Si Si2 0.938061 0.000000 0.396777
Si Si3 0.800772 0.244569 0.607006
Si Si4 0.051348 0.246599 0.681082
Si Si5 0.331592 0.500000 0.100697
Si Si6 0.791616 0.367300 0.895524
Si Si7 0.363577 0.866580 0.756150
O O1 0.926934 0.500000 0.500000
O O2 0.934033 0.694526 0.588180
O O3 0.000000 0.620737 0.500000
O O4 0.950504 0.886738 0.342919
O O5 0.954094 0.000000 0.500000
O O6 0.884734 0.000000 0.404271
O O7 0.808468 0.257058 0.500000
O O8 0.747388 0.226504 0.621668
O O9 0.829205 0.334638 0.663385
O O10 0.818537 0.120983 0.639786
O O11 0.091656 0.288358 0.743771
O O12 0.000000 0.283170 0.704427
O O13 0.312010 0.500000 0.000000
O O14 0.775713 0.500000 0.879116
O O15 0.834060 0.349771 0.832456
O O16 0.802491 0.361154 0.000000
O O17 0.376634 0.000000 0.763482
#
# Coordination Sequence:
#
# PCOD9518383 Si02
#       7
#     8   8  16  16   8  16  16
#     4   9  18  31  45  63  95 140 171 187 235 309
#     4  11  19  32  51  74 100 132 180 223 248 283
#     4  10  18  32  53  77 106 137 166 202 250 303
#     4  11  22  34  49  71 101 137 174 215 257 297
#     4   9  16  27  48  75 100 133 168 199 241 288
#     4   9  18  35  58  78  98 129 172 220 262 299
#     4  11  23  34  49  77 107 138 173 207 250 311
#
# _framework density 16.819306000000001
#
# number of rings (size 3 to 8) (size 9 to 14) (size 15 to 20)
#    0.000    1.909    3.636    1.364    1.273    1.818 
#    0.000    0.000    0.000    0.545    0.000    2.545 
#    0.000    1.455    0.000    0.000    0.000    0.000 
#
# Total GULP energy -245085.876961 kJ/mol
# GULP energy per Si atom -5570.133567 kJ/mol
# Density = 1.678102 g / cm^3
# Si number density = 16.819306 Si / 1000 Ang^3
#
#
#
# Elastic Constant Matrix: (Units=GPa)
#
#
# Indices 1 2 3 4 5 6 
#
# 1 112.8736 31.1303 42.1567 0.0000 0.0000 0.0000
# 2 31.1303 82.6947 15.9556 0.0000 0.0000 0.0000
# 3 42.1567 15.9556 40.3804 0.0000 0.0000 0.0000
# 4 0.0000 0.0000 0.0000 17.7466 0.0000 0.0000
# 5 0.0000 0.0000 0.0000 0.0000 -51.6481 0.0000
# 6 0.0000 0.0000 0.0000 0.0000 0.0000 -553.7524
#
#
#
# Elastic Compliance Matrix: (Units=1/GPa)
#
#
# Indices 1 2 3 4 5 6 
#
# 1 0.015124 -0.002865 -0.014657 0.000000 0.000000 0.000000
# 2 -0.002865 0.013634 -0.002396 0.000000 0.000000 0.000000
# 3 -0.014657 -0.002396 0.041013 0.000000 0.000000 0.000000
# 4 0.000000 0.000000 0.000000 0.056349 0.000000 0.000000
# 5 0.000000 0.000000 0.000000 0.000000 -0.019362 0.000000
# 6 0.000000 0.000000 0.000000 0.000000 0.000000 -0.001806
#
#
# Mechanical properties :
#
#
# Convention : Reuss Voigt Hill
#
# Bulk Modulus (GPa) = 33.40649 46.04822 39.72735
# Shear Modulus (GPa) = 32.30691 -107.75037 -37.72173
#
# Velocity S-wave (km/s) = 4.38747 -8.01265 -4.74092
# Velocity P-wave (km/s) = 6.75068 7.62665 2.50940
#
# Compressibility (1/GPa) = 0.02993430
#
# Stress axis : x y z
#
# Youngs Moduli (GPa) = 66.12039 73.34837 24.38257
#
# Poissons Ratio (x) = 0.21017 0.35738
# Poissons Ratio (y) = 0.18946 0.05841
# Poissons Ratio (z) = 0.96913 0.17572
#
# Static dielectric constant tensor:
#      x y z
#    x 1.604980 0.000000 0.000000 
#    y 0.000000 1.610690 0.000000 
#    z 0.000000 0.000000 1.558520 
# 
# From -- ./inp_files/40859.got.cif
#   From: 2010.05.17/outbox.cif.g08.bks.cpg/sg71_21_cif.got.tgz:40859.got - 2010.06.03 16:22:01.
