data_PCOD9518160
_publ_section_title
;
Structure prediction by ZEFSAII (Michael W. Deem and Ramdas Pophale) SiO2 
 PCOD9518160
Probable space group: I M M M
;
_chemical_formula_sum "Si O2"
_cell_formula_units_Z 116
_cell_length_a 28.729364
_cell_length_b 34.492050
_cell_length_c 7.741688
_cell_angle_alpha 90.000000
_cell_angle_beta 90.000000
_cell_angle_gamma 90.000000
_cell_volume 7671.506963
_symmetry_space_group_name_H-M "I M M M"
_symmetry_group_IT_number 71
_symmetry_cell_setting 'orthorhombic'
loop_
_space_group_symop_operation_xyz
x,y,z
-x,-y,z
x,-y,-z
-x,y,-z
-x,-y,-z
x,y,-z
-x,y,z
x,-y,z
1/2+x,1/2+y,1/2+z
1/2-x,1/2-y,1/2+z
1/2+x,1/2-y,1/2-z
1/2-x,1/2+y,1/2-z
1/2-x,1/2-y,1/2-z
1/2+x,1/2+y,1/2-z
1/2-x,1/2+y,1/2+z
1/2+x,1/2-y,1/2+z
loop_
_atom_site_type_symbol
_atom_site_label
_atom_site_fract_x
_atom_site_fract_y
_atom_site_fract_z
Si Si1 0.930598 0.258931 0.191676
Si Si2 0.750381 0.690397 0.709401
Si Si3 0.000000 0.761556 0.500000
Si Si4 0.650245 0.042425 0.291976
Si Si5 0.449802 0.929435 0.293010
Si Si6 0.673249 0.746102 0.201235
Si Si7 0.685614 0.875492 0.793478
Si Si8 0.584756 0.154347 0.207858
O O1 0.876156 0.248058 0.208519
O O2 0.933115 0.305675 0.214793
O O3 0.959723 0.240863 0.347073
O O4 0.946486 0.248352 0.000000
O O5 0.701651 0.706172 0.778721
O O6 0.790534 0.721004 0.764309
O O7 0.769719 0.648675 0.766467
O O8 0.752499 0.808351 0.000000
O O9 0.647870 0.041625 0.500000
O O10 0.597618 0.051049 0.226475
O O11 0.681730 0.079222 0.246823
O O12 0.665607 0.000000 0.231503
O O13 0.449909 0.935001 0.500000
O O14 0.500000 0.943163 0.226481
O O15 0.444342 0.883704 0.255844
O O16 0.664688 0.754478 0.000000
O O17 0.637536 0.855329 0.732028
O O18 0.684570 0.871691 0.000000
O O19 0.584563 0.158583 0.000000
#
# Coordination Sequence:
#
# PCOD9518160 Si02
#       8
#    16  16   4  16  16  16  16  16
#     4  12  23  36  52  67  90 125 160 198 241 283
#     4   9  17  29  47  71  95 119 149 181 234 292
#     4  12  26  40  48  66  92 124 167 206 229 284
#     4   9  18  31  44  59  80 106 140 185 235 285
#     4   9  18  29  41  58  75  99 141 184 233 293
#     4  10  18  32  48  69  99 123 147 189 234 285
#     4   9  17  30  47  64  88 114 143 183 226 284
#     4  10  18  31  44  60  87 113 139 185 239 283
#
# _framework density 15.120888000000001
#
# number of rings (size 3 to 8) (size 9 to 14) (size 15 to 20)
#    0.000    2.207    2.759    1.034    0.966    2.483 
#    0.000    1.379    0.000    0.000    0.000    3.862 
#    0.000    0.000    0.000    0.000    0.000    0.000 
#
# Total GULP energy -322994.884089 kJ/mol
# GULP energy per Si atom -5568.877312 kJ/mol
# Density = 1.508647 g / cm^3
# Si number density = 15.120888 Si / 1000 Ang^3
#
#
#
# Elastic Constant Matrix: (Units=GPa)
#
#
# Indices 1 2 3 4 5 6 
#
# 1 56.9608 20.5786 13.6314 0.0000 0.0000 0.0000
# 2 20.5786 58.1228 -2.6602 0.0000 0.0000 0.0000
# 3 13.6314 -2.6602 60.1569 0.0000 0.0000 0.0000
# 4 0.0000 0.0000 0.0000 12.5482 0.0000 0.0000
# 5 0.0000 0.0000 0.0000 0.0000 13.2514 0.0000
# 6 0.0000 0.0000 0.0000 0.0000 0.0000 -31.6719
#
#
#
# Elastic Compliance Matrix: (Units=1/GPa)
#
#
# Indices 1 2 3 4 5 6 
#
# 1 0.021674 -0.007915 -0.005261 0.000000 0.000000 0.000000
# 2 -0.007915 0.020130 0.002684 0.000000 0.000000 0.000000
# 3 -0.005261 0.002684 0.017934 0.000000 0.000000 0.000000
# 4 0.000000 0.000000 0.000000 0.079693 0.000000 0.000000
# 5 0.000000 0.000000 0.000000 0.000000 0.075464 0.000000
# 6 0.000000 0.000000 0.000000 0.000000 0.000000 -0.031574
#
#
# Mechanical properties :
#
#
# Convention : Reuss Voigt Hill
#
# Bulk Modulus (GPa) = 25.80403 26.48221 26.14312
# Shear Modulus (GPa) = 23.01767 8.40490 15.71128
#
# Velocity S-wave (km/s) = 3.90583 2.36020 3.22692
# Velocity P-wave (km/s) = 6.11906 4.99791 5.58668
#
# Compressibility (1/GPa) = 0.03875363
#
# Stress axis : x y z
#
# Youngs Moduli (GPa) = 46.13729 49.67710 55.75971
#
# Poissons Ratio (x) = 0.39318 0.29337
# Poissons Ratio (y) = 0.36516 -0.14964
# Poissons Ratio (z) = 0.24275 -0.13332
#
# Static dielectric constant tensor:
#      x y z
#    x 1.517200 0.000000 0.000000 
#    y 0.000000 1.508900 0.000000 
#    z 0.000000 0.000000 1.560000 
# 
# From -- ./inp_files/15871.got.cif
#   From: 2010.05.17/outbox.cif.g08.bks.cpg/sg71_8_cif.got.tgz:15871.got - 2010.06.03 16:22:01.
