data_PCOD9518372
_publ_section_title
;
Structure prediction by ZEFSAII (Michael W. Deem and Ramdas Pophale) SiO2 
 PCOD9518372
Probable space group: I M M M
;
_chemical_formula_sum "Si O2"
_cell_formula_units_Z 88
_cell_length_a 29.964045
_cell_length_b 7.412581
_cell_length_c 18.595319
_cell_angle_alpha 90.000000
_cell_angle_beta 90.000000
_cell_angle_gamma 90.000000
_cell_volume 4130.223237
_symmetry_space_group_name_H-M "I M M M"
_symmetry_group_IT_number 71
_symmetry_cell_setting 'orthorhombic'
loop_
_space_group_symop_operation_xyz
x,y,z
-x,-y,z
x,-y,-z
-x,y,-z
-x,-y,-z
x,y,-z
-x,y,z
x,-y,z
1/2+x,1/2+y,1/2+z
1/2-x,1/2-y,1/2+z
1/2+x,1/2-y,1/2-z
1/2-x,1/2+y,1/2-z
1/2-x,1/2-y,1/2-z
1/2+x,1/2+y,1/2-z
1/2-x,1/2+y,1/2+z
1/2+x,1/2-y,1/2+z
loop_
_atom_site_type_symbol
_atom_site_label
_atom_site_fract_x
_atom_site_fract_y
_atom_site_fract_z
Si Si1 0.448526 0.779253 0.500000
Si Si2 0.802572 0.786600 0.811026
Si Si3 0.051489 0.720393 0.291700
Si Si4 0.291608 0.794475 0.146931
Si Si5 0.382656 0.220765 0.081296
Si Si6 0.901044 0.716536 0.144967
O O1 0.500000 0.725260 0.500000
O O2 0.424072 0.718063 0.427679
O O3 0.447622 0.000000 0.500000
O O4 0.758323 0.715446 0.851243
O O5 0.805520 0.704803 0.731172
O O6 0.848798 0.759348 0.851179
O O7 0.795531 0.000000 0.799826
O O8 0.051730 0.500000 0.291336
O O9 0.081412 0.778086 0.359323
O O10 0.074483 0.780847 0.217430
O O11 0.000000 0.776662 0.296145
O O12 0.333132 0.715075 0.103793
O O13 0.287058 0.000000 0.120655
O O14 0.381822 0.000000 0.083814
O O15 0.393570 0.273459 0.000000
O O16 0.905168 0.500000 0.145498
#
# Coordination Sequence:
#
# PCOD9518372 Si02
#       6
#     8  16  16  16  16  16
#     4   9  18  32  53  79 101 129 173 219 258 299
#     4  10  19  30  50  76  99 128 166 206 245 295
#     4   9  16  26  45  72  97 123 157 199 244 287
#     4   9  17  32  50  72  98 130 167 204 246 289
#     4   9  16  27  45  70 100 129 158 197 242 287
#     4  10  18  32  52  73 101 131 162 205 252 300
#
# _framework density 21.306355
#
# number of rings (size 3 to 8) (size 9 to 14) (size 15 to 20)
#    0.000    2.636    1.818    1.091    0.000    3.273 
#    1.636    2.273    0.000    3.273    0.000    0.000 
#    0.000    1.455    0.000    0.000    0.000    0.000 
#
# Total GULP energy -245655.843100 kJ/mol
# GULP energy per Si atom -5583.087343 kJ/mol
# Density = 2.125786 g / cm^3
# Si number density = 21.306355 Si / 1000 Ang^3
#
#
#
# Elastic Constant Matrix: (Units=GPa)
#
#
# Indices 1 2 3 4 5 6 
#
# 1 209.6765 -1.1372 120.3202 0.0000 0.0000 0.0000
# 2 -1.1372 72.8038 5.8324 0.0000 0.0000 0.0000
# 3 120.3202 5.8324 168.4988 0.0000 0.0000 0.0000
# 4 0.0000 0.0000 0.0000 -4.0126 0.0000 0.0000
# 5 0.0000 0.0000 0.0000 0.0000 22.6060 0.0000
# 6 0.0000 0.0000 0.0000 0.0000 0.0000 9.8614
#
#
#
# Elastic Compliance Matrix: (Units=1/GPa)
#
#
# Indices 1 2 3 4 5 6 
#
# 1 0.008106 0.000592 -0.005808 0.000000 0.000000 0.000000
# 2 0.000592 0.013817 -0.000901 0.000000 0.000000 0.000000
# 3 -0.005808 -0.000901 0.010114 0.000000 0.000000 0.000000
# 4 0.000000 0.000000 0.000000 -0.249216 0.000000 0.000000
# 5 0.000000 0.000000 0.000000 0.000000 0.044236 0.000000
# 6 0.000000 0.000000 0.000000 0.000000 0.000000 0.101405
#
#
# Mechanical properties :
#
#
# Convention : Reuss Voigt Hill
#
# Bulk Modulus (GPa) = 50.50193 77.88999 64.19596
# Shear Modulus (GPa) = -94.87071 27.42187 -33.72442
#
# Velocity S-wave (km/s) = -6.68009 3.59141 -3.98280
# Velocity P-wave (km/s) = 5.97862 7.33718 3.00751
#
# Compressibility (1/GPa) = 0.01980122
#
# Stress axis : x y z
#
# Youngs Moduli (GPa) = 123.37205 72.37476 98.87689
#
# Poissons Ratio (x) = -0.04284 0.57432
# Poissons Ratio (y) = -0.07303 0.08908
# Poissons Ratio (z) = 0.71660 0.06520
#
# Static dielectric constant tensor:
#      x y z
#    x 1.751120 0.000000 0.000000 
#    y 0.000000 1.790040 0.000000 
#    z 0.000000 0.000000 1.717970 
# 
# From -- ./inp_files/16622.got.cif
#   From: 2010.05.17/outbox.cif.g08.bks.cpg/sg71_9_cif.got.tgz:16622.got - 2010.06.03 16:22:01.
