data_PCOD9518990
_publ_section_title
;
Structure prediction by ZEFSAII (Michael W. Deem and Ramdas Pophale) SiO2 
 PCOD9518990
Probable space group: I M M M
;
_chemical_formula_sum "Si O2"
_cell_formula_units_Z 80
_cell_length_a 9.978902
_cell_length_b 30.285055
_cell_length_c 19.499714
_cell_angle_alpha 90.000000
_cell_angle_beta 90.000000
_cell_angle_gamma 90.000000
_cell_volume 5893.039688
_symmetry_space_group_name_H-M "I M M M"
_symmetry_group_IT_number 71
_symmetry_cell_setting 'orthorhombic'
loop_
_space_group_symop_operation_xyz
x,y,z
-x,-y,z
x,-y,-z
-x,y,-z
-x,-y,-z
x,y,-z
-x,y,z
x,-y,z
1/2+x,1/2+y,1/2+z
1/2-x,1/2-y,1/2+z
1/2+x,1/2-y,1/2-z
1/2-x,1/2+y,1/2-z
1/2-x,1/2-y,1/2-z
1/2+x,1/2+y,1/2-z
1/2-x,1/2+y,1/2+z
1/2+x,1/2-y,1/2+z
loop_
_atom_site_type_symbol
_atom_site_label
_atom_site_fract_x
_atom_site_fract_y
_atom_site_fract_z
Si Si1 0.159841 0.685159 0.711868
Si Si2 0.241165 0.393304 0.372469
Si Si3 0.000000 0.447907 0.419907
Si Si4 0.500000 0.552923 0.416726
Si Si5 0.838864 0.667921 0.500000
Si Si6 0.155327 0.262332 0.152163
Si Si7 0.655019 0.246781 0.500000
O O1 0.223968 0.637936 0.693455
O O2 0.173096 0.699756 0.791067
O O3 0.241155 0.723097 0.670413
O O4 0.000000 0.684724 0.694355
O O5 0.126050 0.429283 0.380247
O O6 0.374894 0.420401 0.386189
O O7 0.210497 0.359232 0.434216
O O8 0.000000 0.500000 0.422286
O O9 0.000000 0.432319 0.500000
O O10 0.500000 0.500000 0.401842
O O11 0.500000 0.556800 0.500000
O O12 0.761483 0.713933 0.500000
O O13 0.000000 0.672755 0.500000
O O14 0.000000 0.246419 0.159822
O O15 0.171818 0.276990 0.073242
O O16 0.500000 0.263713 0.500000
#
# Coordination Sequence:
#
# PCOD9518990 Si02
#       7
#    16  16   8   8   8  16   8
#     4  10  19  31  45  64  88 115 149 185 220 258
#     4  12  20  32  47  63  84 117 153 188 220 260
#     4  11  20  32  46  63  86 111 143 184 227 265
#     4  11  24  36  46  63  88 117 151 190 227 261
#     4  12  20  28  41  67  87 116 154 185 217 256
#     4   9  19  31  44  64  89 116 148 184 220 256
#     4  10  20  30  46  63  89 120 152 187 219 254
#
# _framework density 13.575336999999999
#
# number of rings (size 3 to 8) (size 9 to 14) (size 15 to 20)
#    0.000    1.400    6.000    0.600    2.800    1.600 
#    0.000    0.000    0.000    0.000    0.000    0.000 
#    0.000    0.000    0.000    5.400    0.000    0.100 
#
# Total GULP energy -222795.614293 kJ/mol
# GULP energy per Si atom -5569.890357 kJ/mol
# Density = 1.354444 g / cm^3
# Si number density = 13.575337 Si / 1000 Ang^3
#
#
#
# Elastic Constant Matrix: (Units=GPa)
#
#
# Indices 1 2 3 4 5 6 
#
# 1 111.9460 50.4863 37.1977 0.0000 0.0000 0.0000
# 2 50.4863 79.9211 42.3971 0.0000 0.0000 0.0000
# 3 37.1977 42.3971 91.9153 0.0000 0.0000 0.0000
# 4 0.0000 0.0000 0.0000 20.8002 0.0000 0.0000
# 5 0.0000 0.0000 0.0000 0.0000 14.0983 0.0000
# 6 0.0000 0.0000 0.0000 0.0000 0.0000 14.2850
#
#
#
# Elastic Compliance Matrix: (Units=1/GPa)
#
#
# Indices 1 2 3 4 5 6 
#
# 1 0.012740 -0.007034 -0.001911 0.000000 0.000000 0.000000
# 2 -0.007034 0.020450 -0.006586 0.000000 0.000000 0.000000
# 3 -0.001911 -0.006586 0.014691 0.000000 0.000000 0.000000
# 4 0.000000 0.000000 0.000000 0.048077 0.000000 0.000000
# 5 0.000000 0.000000 0.000000 0.000000 0.070930 0.000000
# 6 0.000000 0.000000 0.000000 0.000000 0.000000 0.070004
#
#
# Mechanical properties :
#
#
# Convention : Reuss Voigt Hill
#
# Bulk Modulus (GPa) = 59.46023 60.43828 59.94926
# Shear Modulus (GPa) = 18.27752 20.08345 19.18048
#
# Velocity S-wave (km/s) = 3.67328 3.85048 3.76292
# Velocity P-wave (km/s) = 7.86676 8.02406 7.94580
#
# Compressibility (1/GPa) = 0.01681796
#
# Stress axis : x y z
#
# Youngs Moduli (GPa) = 78.49123 48.90089 68.06911
#
# Poissons Ratio (x) = 0.34397 0.13011
# Poissons Ratio (y) = 0.55211 0.44830
# Poissons Ratio (z) = 0.15003 0.32206
#
# Static dielectric constant tensor:
#      x y z
#    x 1.359860 0.000000 0.000000 
#    y 0.000000 1.425380 0.000000 
#    z 0.000000 0.000000 1.475900 
# 
# From -- ./inp_files/11314.got.cif
#   From: 2010.05.17/outbox.cif.g08.bks.cpg/sg71_6_cif.got.tgz:11314.got - 2010.06.03 16:22:01.
