data_PCOD9518024
_publ_section_title
;
Structure prediction by ZEFSAII (Michael W. Deem and Ramdas Pophale) SiO2 
 PCOD9518024
Probable space group: I M M M
;
_chemical_formula_sum "Si O2"
_cell_formula_units_Z 104
_cell_length_a 29.565768
_cell_length_b 25.182225
_cell_length_c 7.433421
_cell_angle_alpha 90.000000
_cell_angle_beta 90.000000
_cell_angle_gamma 90.000000
_cell_volume 5534.418481
_symmetry_space_group_name_H-M "I M M M"
_symmetry_group_IT_number 71
_symmetry_cell_setting 'orthorhombic'
loop_
_space_group_symop_operation_xyz
x,y,z
-x,-y,z
x,-y,-z
-x,y,-z
-x,-y,-z
x,y,-z
-x,y,z
x,-y,z
1/2+x,1/2+y,1/2+z
1/2-x,1/2-y,1/2+z
1/2+x,1/2-y,1/2-z
1/2-x,1/2+y,1/2-z
1/2-x,1/2-y,1/2-z
1/2+x,1/2+y,1/2-z
1/2-x,1/2+y,1/2+z
1/2+x,1/2-y,1/2+z
loop_
_atom_site_type_symbol
_atom_site_label
_atom_site_fract_x
_atom_site_fract_y
_atom_site_fract_z
Si Si1 0.551099 0.751598 0.718325
Si Si2 0.598658 0.359821 0.716868
Si Si3 0.945702 0.936506 0.500000
Si Si4 0.449652 0.939624 0.783303
Si Si5 0.789965 0.312977 0.217894
Si Si6 0.884303 0.655353 0.210787
Si Si7 0.690468 0.306726 0.292960
O O1 0.550035 0.755613 0.500000
O O2 0.500000 0.759979 0.782673
O O3 0.569179 0.692913 0.757643
O O4 0.585613 0.796419 0.786447
O O5 0.597619 0.369276 0.500000
O O6 0.577581 0.408100 0.828233
O O7 0.649741 0.343093 0.776028
O O8 0.000000 0.926719 0.500000
O O9 0.938789 0.000000 0.500000
O O10 0.500000 0.922961 0.722278
O O11 0.412008 0.898362 0.727846
O O12 0.441807 0.000000 0.722468
O O13 0.450413 0.940357 0.000000
O O14 0.833053 0.346869 0.278203
O O15 0.740782 0.330384 0.284262
O O16 0.802212 0.252860 0.281913
O O17 0.785883 0.312249 0.000000
O O18 0.879366 0.667672 0.000000
O O19 0.677217 0.297481 0.500000
#
# Coordination Sequence:
#
# PCOD9518024 Si02
#       7
#    16  16   8  16  16  16  16
#     4   9  16  28  48  74 108 146 176 213 273 335
#     4  10  20  38  62  85 116 155 190 230 286 345
#     4  11  26  44  62  90 120 148 195 247 288 346
#     4   9  19  35  50  65  93 136 182 224 266 313
#     4   9  17  29  47  76 114 146 174 217 275 329
#     4  10  18  30  48  75 107 136 174 223 272 325
#     4   9  17  31  51  78 109 145 185 218 263 333
#
# _framework density 18.791495999999999
#
# number of rings (size 3 to 8) (size 9 to 14) (size 15 to 20)
#    0.000    2.538    1.538    1.385    1.077    3.077 
#    1.385    1.538    0.000    0.923    0.000    0.000 
#    0.000    0.000    0.000    0.000    0.000    0.000 
#
# Total GULP energy -289978.587428 kJ/mol
# GULP energy per Si atom -5576.511297 kJ/mol
# Density = 1.874873 g / cm^3
# Si number density = 18.791496 Si / 1000 Ang^3
#
#
#
# Elastic Constant Matrix: (Units=GPa)
#
#
# Indices 1 2 3 4 5 6 
#
# 1 149.3254 51.3391 12.3432 0.0000 0.0000 0.0000
# 2 51.3391 62.6577 10.7707 0.0000 0.0000 0.0000
# 3 12.3432 10.7707 70.1925 0.0000 0.0000 0.0000
# 4 0.0000 0.0000 0.0000 10.1633 0.0000 0.0000
# 5 0.0000 0.0000 0.0000 0.0000 19.2337 0.0000
# 6 0.0000 0.0000 0.0000 0.0000 0.0000 17.4753
#
#
#
# Elastic Compliance Matrix: (Units=1/GPa)
#
#
# Indices 1 2 3 4 5 6 
#
# 1 0.009339 -0.007569 -0.000481 0.000000 0.000000 0.000000
# 2 -0.007569 0.022527 -0.002126 0.000000 0.000000 0.000000
# 3 -0.000481 -0.002126 0.014657 0.000000 0.000000 0.000000
# 4 0.000000 0.000000 0.000000 0.098393 0.000000 0.000000
# 5 0.000000 0.000000 0.000000 0.000000 0.051992 0.000000
# 6 0.000000 0.000000 0.000000 0.000000 0.000000 0.057224
#
#
# Mechanical properties :
#
#
# Convention : Reuss Voigt Hill
#
# Bulk Modulus (GPa) = 38.20893 47.89796 43.05344
# Shear Modulus (GPa) = 17.65491 23.22264 20.43877
#
# Velocity S-wave (km/s) = 3.06848 3.51922 3.30155
# Velocity P-wave (km/s) = 5.73858 6.48519 6.12328
#
# Compressibility (1/GPa) = 0.02617190
#
# Stress axis : x y z
#
# Youngs Moduli (GPa) = 107.07912 44.39109 68.22567
#
# Poissons Ratio (x) = 0.33601 0.03280
# Poissons Ratio (y) = 0.81051 0.14502
# Poissons Ratio (z) = 0.05148 0.09436
#
# Static dielectric constant tensor:
#      x y z
#    x 1.685470 0.000000 0.000000 
#    y 0.000000 1.610040 0.000000 
#    z 0.000000 0.000000 1.761940 
# 
# From -- ./inp_files/15257.got.cif
#   From: 2010.05.17/outbox.cif.g08.bks.cpg/sg71_8_cif.got.tgz:15257.got - 2010.06.03 16:22:01.
