data_PCOD9518651
_publ_section_title
;
Structure prediction by ZEFSAII (Michael W. Deem and Ramdas Pophale) SiO2 
 PCOD9518651
Probable space group: I M M M
;
_chemical_formula_sum "Si O2"
_cell_formula_units_Z 88
_cell_length_a 24.616825
_cell_length_b 31.298742
_cell_length_c 8.628823
_cell_angle_alpha 90.000000
_cell_angle_beta 90.000000
_cell_angle_gamma 90.000000
_cell_volume 6648.298049
_symmetry_space_group_name_H-M "I M M M"
_symmetry_group_IT_number 71
_symmetry_cell_setting 'orthorhombic'
loop_
_space_group_symop_operation_xyz
x,y,z
-x,-y,z
x,-y,-z
-x,y,-z
-x,-y,-z
x,y,-z
-x,y,z
x,-y,z
1/2+x,1/2+y,1/2+z
1/2-x,1/2-y,1/2+z
1/2+x,1/2-y,1/2-z
1/2-x,1/2+y,1/2-z
1/2-x,1/2-y,1/2-z
1/2+x,1/2+y,1/2-z
1/2-x,1/2+y,1/2+z
1/2+x,1/2-y,1/2+z
loop_
_atom_site_type_symbol
_atom_site_label
_atom_site_fract_x
_atom_site_fract_y
_atom_site_fract_z
Si Si1 0.063954 0.000000 0.814332
Si Si2 0.000000 0.858815 0.312089
Si Si3 0.105303 0.911431 0.685896
Si Si4 0.322599 0.660904 0.313479
Si Si5 0.000000 0.239125 0.313783
Si Si6 0.383223 0.250469 0.685510
Si Si7 0.218173 0.291124 0.314312
O O1 0.095157 0.041849 0.754187
O O2 0.000000 0.000000 0.761065
O O3 0.063179 0.000000 0.000000
O O4 0.053110 0.883840 0.261351
O O5 0.000000 0.810308 0.259564
O O6 0.000000 0.858305 0.500000
O O7 0.105537 0.914198 0.500000
O O8 0.155505 0.882746 0.741564
O O9 0.326985 0.658838 0.500000
O O10 0.358843 0.702670 0.263559
O O11 0.259645 0.670728 0.274041
O O12 0.943209 0.256996 0.251314
O O13 0.000000 0.240691 0.500000
O O14 0.384163 0.251042 0.500000
O O15 0.341264 0.214312 0.743035
O O16 0.214582 0.288850 0.500000
O O17 0.250000 0.250000 0.250000
#
# Coordination Sequence:
#
# PCOD9518651 Si02
#       7
#     8   8  16  16   8  16  16
#     4  11  23  35  45  59  79 105 133 168 215 258
#     4   9  18  28  40  59  78 100 131 171 210 246
#     4  11  20  32  47  61  77 101 135 172 211 253
#     4   9  18  30  43  60  80 102 131 168 208 247
#     4  11  19  29  42  60  83 110 139 169 211 252
#     4  10  19  29  41  60  83 107 135 169 206 245
#     4   9  17  29  43  59  79 104 132 166 205 244
#
# _framework density 13.236471
#
# number of rings (size 3 to 8) (size 9 to 14) (size 15 to 20)
#    0.000    2.091    2.727    3.273    0.000    4.000 
#    0.000    0.000    0.000    0.000    0.000    0.000 
#    0.000    0.000    0.000    0.000    0.000    0.909 
#
# Total GULP energy -245155.395947 kJ/mol
# GULP energy per Si atom -5571.713544 kJ/mol
# Density = 1.320634 g / cm^3
# Si number density = 13.236471 Si / 1000 Ang^3
#
#
#
# Elastic Constant Matrix: (Units=GPa)
#
#
# Indices 1 2 3 4 5 6 
#
# 1 117.9073 53.1945 37.6322 0.0000 0.0000 0.0000
# 2 53.1945 66.8229 26.1673 0.0000 0.0000 0.0000
# 3 37.6322 26.1673 43.1259 0.0000 0.0000 0.0000
# 4 0.0000 0.0000 0.0000 16.4344 0.0000 0.0000
# 5 0.0000 0.0000 0.0000 0.0000 21.8403 0.0000
# 6 0.0000 0.0000 0.0000 0.0000 0.0000 14.1555
#
#
#
# Elastic Compliance Matrix: (Units=1/GPa)
#
#
# Indices 1 2 3 4 5 6 
#
# 1 0.014931 -0.008898 -0.007630 0.000000 0.000000 0.000000
# 2 -0.008898 0.024931 -0.007363 0.000000 0.000000 0.000000
# 3 -0.007630 -0.007363 0.034313 0.000000 0.000000 0.000000
# 4 0.000000 0.000000 0.000000 0.060848 0.000000 0.000000
# 5 0.000000 0.000000 0.000000 0.000000 0.045787 0.000000
# 6 0.000000 0.000000 0.000000 0.000000 0.000000 0.070644
#
#
# Mechanical properties :
#
#
# Convention : Reuss Voigt Hill
#
# Bulk Modulus (GPa) = 37.88743 51.31601 44.60172
# Shear Modulus (GPa) = 16.23197 17.87686 17.05441
#
# Velocity S-wave (km/s) = 3.50566 3.67900 3.59338
# Velocity P-wave (km/s) = 6.71356 7.54318 7.14043
#
# Compressibility (1/GPa) = 0.02639398
#
# Stress axis : x y z
#
# Youngs Moduli (GPa) = 66.97594 40.10998 29.14307
#
# Poissons Ratio (x) = 0.35689 0.22236
# Poissons Ratio (y) = 0.59594 0.21459
# Poissons Ratio (z) = 0.51101 0.29534
#
# Static dielectric constant tensor:
#      x y z
#    x 1.454630 0.000000 0.000000 
#    y 0.000000 1.418840 0.000000 
#    z 0.000000 0.000000 1.442210 
# 
# From -- ./inp_files/11409.got.cif
#   From: 2010.05.17/outbox.cif.g08.bks.cpg/sg71_6_cif.got.tgz:11409.got - 2010.06.03 16:22:01.
