data_PCOD9518923
_publ_section_title
;
Structure prediction by ZEFSAII (Michael W. Deem and Ramdas Pophale) SiO2 
 PCOD9518923
Probable space group: I M M M
;
_chemical_formula_sum "Si O2"
_cell_formula_units_Z 116
_cell_length_a 28.112007
_cell_length_b 7.381553
_cell_length_c 27.769502
_cell_angle_alpha 90.000000
_cell_angle_beta 90.000000
_cell_angle_gamma 90.000000
_cell_volume 5762.456847
_symmetry_space_group_name_H-M "I M M M"
_symmetry_group_IT_number 71
_symmetry_cell_setting 'orthorhombic'
loop_
_space_group_symop_operation_xyz
x,y,z
-x,-y,z
x,-y,-z
-x,y,-z
-x,-y,-z
x,y,-z
-x,y,z
x,-y,z
1/2+x,1/2+y,1/2+z
1/2-x,1/2-y,1/2+z
1/2+x,1/2-y,1/2-z
1/2-x,1/2+y,1/2-z
1/2-x,1/2-y,1/2-z
1/2+x,1/2+y,1/2-z
1/2-x,1/2+y,1/2+z
1/2+x,1/2-y,1/2+z
loop_
_atom_site_type_symbol
_atom_site_label
_atom_site_fract_x
_atom_site_fract_y
_atom_site_fract_z
Si Si1 0.707659 0.719474 0.844255
Si Si2 0.946436 0.218872 0.315686
Si Si3 0.819948 0.788350 0.154859
Si Si4 0.443675 0.207866 0.926761
Si Si5 0.642530 0.721619 0.244167
Si Si6 0.195038 0.788662 0.447910
Si Si7 0.692208 0.279936 0.551912
Si Si8 0.905266 0.000000 0.500000
O O1 0.706362 0.500000 0.846867
O O2 0.762692 0.774570 0.840750
O O3 0.680204 0.777543 0.796667
O O4 0.684140 0.784674 0.894717
O O5 0.933673 0.275656 0.369887
O O6 0.908445 0.277684 0.276266
O O7 0.000000 0.280563 0.305813
O O8 0.946187 0.000000 0.316076
O O9 0.843654 0.712063 0.202877
O O10 0.831156 0.714764 0.101506
O O11 0.832736 0.000000 0.153770
O O12 0.500000 0.256550 0.933485
O O13 0.412716 0.341976 0.958089
O O14 0.437663 0.000000 0.941127
O O15 0.643913 0.500000 0.245140
O O16 0.181331 0.707728 0.500000
O O17 0.252816 0.782193 0.447447
O O18 0.180493 0.000000 0.450750
O O19 0.671764 0.225710 0.500000
O O20 0.693514 0.500000 0.553268
#
# Coordination Sequence:
#
# PCOD9518923 Si02
#       8
#    16  16  16  16  16  16  16   4
#     4   9  16  26  40  58  84 110 137 174 216 266
#     4   9  17  32  50  63  83 116 154 195 242 291
#     4   9  16  26  40  61  86 113 141 176 217 267
#     4  10  19  30  48  74  99 122 153 197 250 306
#     4   9  17  28  44  62  84 110 145 184 228 274
#     4   8  13  21  34  50  70  99 133 164 194 239
#     4   8  13  21  34  53  77 104 135 166 202 247
#     4  12  19  30  52  78 102 124 154 198 258 312
#
# _framework density 20.130302
#
# number of rings (size 3 to 8) (size 9 to 14) (size 15 to 20)
#    0.000    3.034    0.690    1.241    0.000    0.552 
#    0.000    1.379    1.517    0.000    0.000    0.000 
#    0.000    0.552    0.000    7.724    0.000    0.000 
#
# Total GULP energy -323245.804175 kJ/mol
# GULP energy per Si atom -5573.203520 kJ/mol
# Density = 2.008448 g / cm^3
# Si number density = 20.130302 Si / 1000 Ang^3
#
#
#
# Elastic Constant Matrix: (Units=GPa)
#
#
# Indices 1 2 3 4 5 6 
#
# 1 56.0520 4.5769 62.9894 0.0000 0.0000 0.0000
# 2 4.5769 83.7347 16.4497 0.0000 0.0000 0.0000
# 3 62.9894 16.4497 229.8450 0.0000 0.0000 0.0000
# 4 0.0000 0.0000 0.0000 -0.7485 0.0000 0.0000
# 5 0.0000 0.0000 0.0000 0.0000 -26.5014 0.0000
# 6 0.0000 0.0000 0.0000 0.0000 0.0000 11.3130
#
#
#
# Elastic Compliance Matrix: (Units=1/GPa)
#
#
# Indices 1 2 3 4 5 6 
#
# 1 0.025780 -0.000021 -0.007064 0.000000 0.000000 0.000000
# 2 -0.000021 0.012113 -0.000861 0.000000 0.000000 0.000000
# 3 -0.007064 -0.000861 0.006348 0.000000 0.000000 0.000000
# 4 0.000000 0.000000 0.000000 -1.335926 0.000000 0.000000
# 5 0.000000 0.000000 0.000000 0.000000 -0.037734 0.000000
# 6 0.000000 0.000000 0.000000 0.000000 0.000000 0.088394
#
#
# Mechanical properties :
#
#
# Convention : Reuss Voigt Hill
#
# Bulk Modulus (GPa) = 35.27460 59.74040 47.50750
# Shear Modulus (GPa) = -4.11291 15.85365 5.87037
#
# Velocity S-wave (km/s) = -1.43094 2.80938 1.70954
# Velocity P-wave (km/s) = 3.85111 6.34545 5.24861
#
# Compressibility (1/GPa) = 0.02834901
#
# Stress axis : x y z
#
# Youngs Moduli (GPa) = 38.78956 82.55726 157.52602
#
# Poissons Ratio (x) = 0.00177 1.11269
# Poissons Ratio (y) = 0.00083 0.13563
# Poissons Ratio (z) = 0.27399 0.07108
#
# Static dielectric constant tensor:
#      x y z
#    x 1.718520 0.000000 0.000000 
#    y 0.000000 1.858520 0.000000 
#    z 0.000000 0.000000 1.773900 
# 
# From -- ./inp_files/67350.got.cif
#   From: 2010.05.17/outbox.cif.g08.bks.cpg/sg71_34_cif.got.tgz:67350.got - 2010.06.03 16:22:01.
