data_PCOD9518461
_publ_section_title
;
Structure prediction by ZEFSAII (Michael W. Deem and Ramdas Pophale) SiO2 
 PCOD9518461
Probable space group: I M M M
;
_chemical_formula_sum "Si O2"
_cell_formula_units_Z 72
_cell_length_a 13.241047
_cell_length_b 24.187934
_cell_length_c 11.033259
_cell_angle_alpha 90.000000
_cell_angle_beta 90.000000
_cell_angle_gamma 90.000000
_cell_volume 3533.661259
_symmetry_space_group_name_H-M "I M M M"
_symmetry_group_IT_number 71
_symmetry_cell_setting 'orthorhombic'
loop_
_space_group_symop_operation_xyz
x,y,z
-x,-y,z
x,-y,-z
-x,y,-z
-x,-y,-z
x,y,-z
-x,y,z
x,-y,z
1/2+x,1/2+y,1/2+z
1/2-x,1/2-y,1/2+z
1/2+x,1/2-y,1/2-z
1/2-x,1/2+y,1/2-z
1/2-x,1/2-y,1/2-z
1/2+x,1/2+y,1/2-z
1/2-x,1/2+y,1/2+z
1/2+x,1/2-y,1/2+z
loop_
_atom_site_type_symbol
_atom_site_label
_atom_site_fract_x
_atom_site_fract_y
_atom_site_fract_z
Si Si1 0.222954 0.936462 0.770040
Si Si2 0.822247 0.939738 0.500000
Si Si3 0.383413 0.274874 0.256559
Si Si4 0.000000 0.933215 0.139034
Si Si5 0.112134 0.179887 0.500000
Si Si6 0.306038 0.173833 0.136243
O O1 0.238386 0.936560 0.625402
O O2 0.291496 0.890314 0.831693
O O3 0.105285 0.919433 0.795051
O O4 0.235407 0.000000 0.813658
O O5 0.890471 0.885960 0.500000
O O6 0.874255 0.000000 0.500000
O O7 0.500000 0.289580 0.278409
O O8 0.371052 0.209626 0.230970
O O9 0.305696 0.298561 0.353454
O O10 0.344769 0.300980 0.128141
O O11 0.000000 0.000000 0.134607
O O12 0.000000 0.912733 0.000000
O O13 0.000000 0.203983 0.500000
O O14 0.345248 0.180409 0.000000
#
# Coordination Sequence:
#
# PCOD9518461 Si02
#       6
#    16   8  16   8   8  16
#     4  10  21  34  50  76 108 143 181 224 273 328
#     4  10  20  31  48  74 104 138 179 221 262 317
#     4  10  22  39  56  80 111 144 182 227 277 324
#     4   9  18  31  45  67 105 144 171 209 269 328
#     4  10  18  33  54  72 103 142 173 216 267 319
#     4  11  22  35  58  84 109 145 186 225 273 333
#
# _framework density 20.375465999999999
#
# number of rings (size 3 to 8) (size 9 to 14) (size 15 to 20)
#    0.000    1.889    3.333    0.667    3.111    2.000 
#    0.000    0.000    0.000    0.667    0.000    1.556 
#    0.000    2.667    0.000    0.000    0.000    0.000 
#
# Total GULP energy -200757.253024 kJ/mol
# GULP energy per Si atom -5576.590362 kJ/mol
# Density = 2.032909 g / cm^3
# Si number density = 20.375466 Si / 1000 Ang^3
#
#
#
# Elastic Constant Matrix: (Units=GPa)
#
#
# Indices 1 2 3 4 5 6 
#
# 1 28.2487 7.0645 -6.1114 0.0000 0.0000 0.0000
# 2 7.0645 119.0023 3.3417 0.0000 0.0000 0.0000
# 3 -6.1114 3.3417 69.0666 -0.0001 0.0000 0.0000
# 4 0.0000 0.0000 -0.0001 29.9121 0.0000 0.0000
# 5 0.0000 0.0000 0.0000 0.0000 7.8316 0.0000
# 6 0.0000 0.0000 0.0000 0.0000 0.0000 25.3208
#
#
#
# Elastic Compliance Matrix: (Units=1/GPa)
#
#
# Indices 1 2 3 4 5 6 
#
# 1 0.036694 -0.002273 0.003357 0.000000 0.000000 0.000000
# 2 -0.002273 0.008555 -0.000615 0.000000 0.000000 0.000000
# 3 0.003357 -0.000615 0.014806 0.000000 0.000000 0.000000
# 4 0.000000 0.000000 0.000000 0.033431 0.000000 0.000000
# 5 0.000000 0.000000 0.000000 0.000000 0.127687 0.000000
# 6 0.000000 0.000000 0.000000 0.000000 0.000000 0.039493
#
#
# Mechanical properties :
#
#
# Convention : Reuss Voigt Hill
#
# Bulk Modulus (GPa) = 16.39508 24.98970 20.69239
# Shear Modulus (GPa) = 17.85330 26.74775 22.30053
#
# Velocity S-wave (km/s) = 2.96331 3.62711 3.31188
# Velocity P-wave (km/s) = 4.44659 5.46191 4.98019
#
# Compressibility (1/GPa) = 0.06099392
#
# Stress axis : x y z
#
# Youngs Moduli (GPa) = 27.25205 116.88550 67.54212
#
# Poissons Ratio (x) = 0.26564 -0.22673
# Poissons Ratio (y) = 0.06193 0.04154
# Poissons Ratio (z) = -0.09148 0.07189
#
# Static dielectric constant tensor:
#      x y z
#    x 1.709420 0.000000 0.000000 
#    y 0.000000 1.794660 0.000000 
#    z 0.000000 0.000000 1.765250 
# 
# From -- ./inp_files/21820.got.cif
#   From: 2010.05.17/outbox.cif.g08.bks.cpg/sg71_11_cif.got.tgz:21820.got - 2010.06.03 16:22:01.
