data_PCOD9518708
_publ_section_title
;
Structure prediction by ZEFSAII (Michael W. Deem and Ramdas Pophale) SiO2 
 PCOD9518708
Probable space group: I M M M
;
_chemical_formula_sum "Si O2"
_cell_formula_units_Z 120
_cell_length_a 22.368559
_cell_length_b 18.001794
_cell_length_c 18.058881
_cell_angle_alpha 90.000000
_cell_angle_beta 90.000000
_cell_angle_gamma 90.000000
_cell_volume 7271.845301
_symmetry_space_group_name_H-M "I M M M"
_symmetry_group_IT_number 71
_symmetry_cell_setting 'orthorhombic'
loop_
_space_group_symop_operation_xyz
x,y,z
-x,-y,z
x,-y,-z
-x,y,-z
-x,-y,-z
x,y,-z
-x,y,z
x,-y,z
1/2+x,1/2+y,1/2+z
1/2-x,1/2-y,1/2+z
1/2+x,1/2-y,1/2-z
1/2-x,1/2+y,1/2-z
1/2-x,1/2-y,1/2-z
1/2+x,1/2+y,1/2-z
1/2-x,1/2+y,1/2+z
1/2+x,1/2-y,1/2+z
loop_
_atom_site_type_symbol
_atom_site_label
_atom_site_fract_x
_atom_site_fract_y
_atom_site_fract_z
Si Si1 0.752044 0.853882 0.657954
Si Si2 0.567172 0.624587 0.768704
Si Si3 0.688635 0.585995 0.304804
Si Si4 0.566345 0.911065 0.500000
Si Si5 0.375992 0.915844 0.343462
Si Si6 0.181618 0.783322 0.911189
Si Si7 0.629720 0.410953 0.083287
Si Si8 0.068982 0.729267 0.179180
O O1 0.778141 0.866025 0.740527
O O2 0.694939 0.907893 0.655058
O O3 0.725805 0.774785 0.630991
O O4 0.805711 0.877919 0.604480
O O5 0.500000 0.598244 0.752984
O O6 0.619458 0.585524 0.721905
O O7 0.583569 0.614394 0.854219
O O8 0.570818 0.710567 0.744565
O O9 0.709184 0.500000 0.308206
O O10 0.693584 0.634055 0.379526
O O11 0.500000 0.878525 0.500000
O O12 0.601249 0.894810 0.574439
O O13 0.560678 0.000000 0.500000
O O14 0.405850 0.850764 0.295741
O O15 0.394107 0.000000 0.325980
O O16 0.115128 0.760839 0.882282
O O17 0.186456 0.777430 0.000000
O O18 0.634505 0.500000 0.088100
O O19 0.612770 0.390465 0.000000
O O20 0.000000 0.722925 0.154521
#
# Coordination Sequence:
#
# PCOD9518708 Si02
#       8
#    16  16  16   8  16  16  16  16
#     4  10  19  33  49  70  98 130 163 195 234 290
#     4   9  18  34  50  68  94 125 162 197 240 296
#     4  10  20  35  54  73  95 125 162 205 246 286
#     4   9  18  28  38  60  94 128 156 184 226 270
#     4  10  19  29  45  68  95 128 162 197 234 275
#     4  10  21  34  51  74  97 127 162 200 247 291
#     4  10  20  31  48  74 100 124 152 195 245 292
#     4   9  19  32  48  67  93 131 167 200 234 281
#
# _framework density 16.501999999999999
#
# number of rings (size 3 to 8) (size 9 to 14) (size 15 to 20)
#    0.000    2.333    0.000    3.600    4.667    3.733 
#    0.000    0.667    0.000    0.000    0.000    3.733 
#    0.000    0.533    0.000    2.933    0.000    0.000 
#
# Total GULP energy -334201.329809 kJ/mol
# GULP energy per Si atom -5570.022163 kJ/mol
# Density = 1.646444 g / cm^3
# Si number density = 16.502000 Si / 1000 Ang^3
#
#
#
# Elastic Constant Matrix: (Units=GPa)
#
#
# Indices 1 2 3 4 5 6 
#
# 1 78.2241 12.4485 21.4811 0.0000 0.0000 0.0000
# 2 12.4485 94.5175 43.3055 0.0000 0.0000 0.0000
# 3 21.4811 43.3055 69.8656 0.0000 0.0000 0.0000
# 4 0.0000 0.0000 0.0000 14.5941 0.0000 0.0000
# 5 0.0000 0.0000 0.0000 0.0000 9.7745 0.0000
# 6 0.0000 0.0000 0.0000 0.0000 0.0000 -30.0005
#
#
#
# Elastic Compliance Matrix: (Units=1/GPa)
#
#
# Indices 1 2 3 4 5 6 
#
# 1 0.013965 0.000179 -0.004404 0.000000 0.000000 0.000000
# 2 0.000179 0.014779 -0.009215 0.000000 0.000000 0.000000
# 3 -0.004404 -0.009215 0.021380 0.000000 0.000000 0.000000
# 4 0.000000 0.000000 0.000000 0.068521 0.000000 0.000000
# 5 0.000000 0.000000 0.000000 0.000000 0.102307 0.000000
# 6 0.000000 0.000000 0.000000 0.000000 0.000000 -0.033333
#
#
# Mechanical properties :
#
#
# Convention : Reuss Voigt Hill
#
# Bulk Modulus (GPa) = 43.02775 44.11972 43.57374
# Shear Modulus (GPa) = 22.49747 9.89844 16.19795
#
# Velocity S-wave (km/s) = 3.69632 2.45180 3.13641
# Velocity P-wave (km/s) = 6.65942 5.89993 6.29115
#
# Compressibility (1/GPa) = 0.02324082
#
# Stress axis : x y z
#
# Youngs Moduli (GPa) = 71.60835 67.66449 46.77371
#
# Poissons Ratio (x) = -0.01210 0.20601
# Poissons Ratio (y) = -0.01280 0.43104
# Poissons Ratio (z) = 0.31540 0.62356
#
# Static dielectric constant tensor:
#      x y z
#    x 1.569340 0.000000 0.000000 
#    y 0.000000 1.588750 0.000000 
#    z 0.000000 0.000000 1.559170 
# 
# From -- ./inp_files/47575.got.cif
#   From: 2010.05.17/outbox.cif.g08.bks.cpg/sg71_24_cif.got.tgz:47575.got - 2010.06.03 16:22:01.
