data_PCOD9518354
_publ_section_title
;
Structure prediction by ZEFSAII (Michael W. Deem and Ramdas Pophale) SiO2 
 PCOD9518354
Probable space group: I M M M
;
_chemical_formula_sum "Si O2"
_cell_formula_units_Z 128
_cell_length_a 19.400969
_cell_length_b 18.621160
_cell_length_c 22.725319
_cell_angle_alpha 90.000000
_cell_angle_beta 90.000000
_cell_angle_gamma 90.000000
_cell_volume 8209.942996
_symmetry_space_group_name_H-M "I M M M"
_symmetry_group_IT_number 71
_symmetry_cell_setting 'orthorhombic'
loop_
_space_group_symop_operation_xyz
x,y,z
-x,-y,z
x,-y,-z
-x,y,-z
-x,-y,-z
x,y,-z
-x,y,z
x,-y,z
1/2+x,1/2+y,1/2+z
1/2-x,1/2-y,1/2+z
1/2+x,1/2-y,1/2-z
1/2-x,1/2+y,1/2-z
1/2-x,1/2-y,1/2-z
1/2+x,1/2+y,1/2-z
1/2-x,1/2+y,1/2+z
1/2+x,1/2-y,1/2+z
loop_
_atom_site_type_symbol
_atom_site_label
_atom_site_fract_x
_atom_site_fract_y
_atom_site_fract_z
Si Si1 0.917466 0.579672 0.257887
Si Si2 0.081054 0.152623 0.158019
Si Si3 0.419732 0.414737 0.212198
Si Si4 0.917843 0.581541 0.396267
Si Si5 0.184922 0.916981 0.929735
Si Si6 0.657804 0.211144 0.292794
Si Si7 0.186575 0.798160 0.326900
Si Si8 0.690309 0.190849 0.066524
O O1 0.893047 0.500000 0.241453
O O2 0.900174 0.590661 0.326946
O O3 0.887381 0.641127 0.217581
O O4 0.000000 0.580772 0.254977
O O5 0.087364 0.108564 0.219325
O O6 0.119083 0.108797 0.106977
O O7 0.120357 0.228209 0.168227
O O8 0.000000 0.163577 0.146746
O O9 0.500000 0.399072 0.195714
O O10 0.408393 0.500000 0.205990
O O11 0.364154 0.366400 0.177564
O O12 0.899184 0.500000 0.413518
O O13 0.876634 0.640454 0.431496
O O14 0.000000 0.588649 0.402249
O O15 0.247070 0.862284 0.915255
O O16 0.202163 0.000000 0.915428
O O17 0.173468 0.913023 0.000000
O O18 0.732335 0.188082 0.316811
O O19 0.666626 0.247384 0.228392
O O20 0.180447 0.754219 0.387115
O O21 0.703178 0.216028 0.000000
#
# Coordination Sequence:
#
# PCOD9518354 Si02
#       8
#    16  16  16  16  16  16  16  16
#     4   9  17  29  47  72 102 132 157 191 246 300
#     4  10  19  32  52  75 101 135 168 203 247 292
#     4   9  19  34  52  76 103 129 160 204 254 301
#     4   9  18  31  47  69  97 129 166 203 236 279
#     4  10  21  35  50  70 100 138 173 205 242 285
#     4  10  18  32  49  72 102 127 163 208 243 293
#     4  10  20  32  50  73  95 127 166 203 247 291
#     4  11  21  35  50  67  97 133 168 208 245 288
#
# _framework density 15.590851000000001
#
# number of rings (size 3 to 8) (size 9 to 14) (size 15 to 20)
#    0.000    2.250    2.500    1.875    0.000    3.500 
#    0.000    1.250    0.000    0.375    0.000    0.875 
#    0.000    0.500    0.000    4.250    0.000    0.000 
#
# Total GULP energy -356794.542475 kJ/mol
# GULP energy per Si atom -5574.914726 kJ/mol
# Density = 1.555537 g / cm^3
# Si number density = 15.590851 Si / 1000 Ang^3
#
#
#
# Elastic Constant Matrix: (Units=GPa)
#
#
# Indices 1 2 3 4 5 6 
#
# 1 78.2443 57.5557 30.3854 0.0000 0.0000 0.0000
# 2 57.5557 97.8467 37.4908 0.0000 0.0000 0.0000
# 3 30.3854 37.4908 39.7869 0.0000 0.0000 0.0000
# 4 0.0000 0.0000 0.0000 22.0090 0.0000 0.0000
# 5 0.0000 0.0000 0.0000 0.0000 19.7614 0.0000
# 6 0.0000 0.0000 0.0000 0.0000 0.0000 31.3596
#
#
#
# Elastic Compliance Matrix: (Units=1/GPa)
#
#
# Indices 1 2 3 4 5 6 
#
# 1 0.024005 -0.011106 -0.007868 0.000000 0.000000 0.000000
# 2 -0.011106 0.021133 -0.011432 0.000000 0.000000 0.000000
# 3 -0.007868 -0.011432 0.041915 0.000000 0.000000 0.000000
# 4 0.000000 0.000000 0.000000 0.045436 0.000000 0.000000
# 5 0.000000 0.000000 0.000000 0.000000 0.050604 0.000000
# 6 0.000000 0.000000 0.000000 0.000000 0.000000 0.031888
#
#
# Mechanical properties :
#
#
# Convention : Reuss Voigt Hill
#
# Bulk Modulus (GPa) = 38.10722 51.86018 44.98370
# Shear Modulus (GPa) = 17.57227 20.65574 19.11400
#
# Velocity S-wave (km/s) = 3.36086 3.64382 3.50519
# Velocity P-wave (km/s) = 6.28932 7.14413 6.73031
#
# Compressibility (1/GPa) = 0.02624175
#
# Stress axis : x y z
#
# Youngs Moduli (GPa) = 41.65769 47.31954 23.85787
#
# Poissons Ratio (x) = 0.52552 0.18771
# Poissons Ratio (y) = 0.46264 0.27274
# Poissons Ratio (z) = 0.32776 0.54095
#
# Static dielectric constant tensor:
#      x y z
#    x 1.527590 0.000000 0.000000 
#    y 0.000000 1.506250 0.000000 
#    z 0.000000 0.000000 1.514750 
# 
# From -- ./inp_files/47766.got.cif
#   From: 2010.05.17/outbox.cif.g08.bks.cpg/sg71_24_cif.got.tgz:47766.got - 2010.06.03 16:22:01.
