data_PCOD9518012
_publ_section_title
;
Structure prediction by ZEFSAII (Michael W. Deem and Ramdas Pophale) SiO2 
 PCOD9518012
Probable space group: I M M M
;
_chemical_formula_sum "Si O2"
_cell_formula_units_Z 88
_cell_length_a 21.457449
_cell_length_b 28.857605
_cell_length_c 8.431280
_cell_angle_alpha 90.000000
_cell_angle_beta 90.000000
_cell_angle_gamma 90.000000
_cell_volume 5220.737843
_symmetry_space_group_name_H-M "I M M M"
_symmetry_group_IT_number 71
_symmetry_cell_setting 'orthorhombic'
loop_
_space_group_symop_operation_xyz
x,y,z
-x,-y,z
x,-y,-z
-x,y,-z
-x,-y,-z
x,y,-z
-x,y,z
x,-y,z
1/2+x,1/2+y,1/2+z
1/2-x,1/2-y,1/2+z
1/2+x,1/2-y,1/2-z
1/2-x,1/2+y,1/2-z
1/2-x,1/2-y,1/2-z
1/2+x,1/2+y,1/2-z
1/2-x,1/2+y,1/2+z
1/2+x,1/2-y,1/2+z
loop_
_atom_site_type_symbol
_atom_site_label
_atom_site_fract_x
_atom_site_fract_y
_atom_site_fract_z
Si Si1 0.635536 0.209717 0.806373
Si Si2 0.745639 0.142543 0.811815
Si Si3 0.571330 0.000000 0.190171
Si Si4 0.317399 0.948394 0.687531
Si Si5 0.871386 0.182710 0.311501
Si Si6 0.000000 0.704777 0.686662
Si Si7 0.500000 0.692326 0.684983
O O1 0.693701 0.179336 0.752823
O O2 0.641207 0.263686 0.760367
O O3 0.568002 0.190620 0.749643
O O4 0.634535 0.208430 0.000000
O O5 0.718543 0.092041 0.774690
O O6 0.811644 0.152727 0.732502
O O7 0.752531 0.148599 0.000000
O O8 0.611650 0.043695 0.252414
O O9 0.500000 0.000000 0.243608
O O10 0.572762 0.000000 0.000000
O O11 0.317537 0.939692 0.500000
O O12 0.289431 0.000000 0.715593
O O13 0.880767 0.182754 0.500000
O O14 0.935597 0.167508 0.228729
O O15 0.000000 0.760540 0.710527
O O16 0.000000 0.693698 0.500000
O O17 0.500000 0.704830 0.500000
#
# Coordination Sequence:
#
# PCOD9518012 Si02
#       7
#    16  16   8  16  16   8   8
#     4   8  16  29  46  69  98 133 170 208 247 294
#     4  11  20  31  49  76 103 129 169 213 254 295
#     4   9  17  33  57  79  97 124 165 212 259 299
#     4   9  20  36  52  70  99 132 165 203 250 303
#     4  10  19  33  51  70  99 136 169 201 249 303
#     4   8  14  30  48  62  91 134 171 203 249 297
#     4  10  18  30  48  72  97 124 165 210 248 289
#
# _framework density 16.855854999999998
#
# number of rings (size 3 to 8) (size 9 to 14) (size 15 to 20)
#    0.545    2.091    0.000    4.091    0.000    0.727 
#    1.636    8.182    0.000    0.000    0.000    0.636 
#    0.000    5.091    0.000    0.000    0.000    0.000 
#
# Total GULP energy -244975.646356 kJ/mol
# GULP energy per Si atom -5567.628326 kJ/mol
# Density = 1.681749 g / cm^3
# Si number density = 16.855855 Si / 1000 Ang^3
#
#
#
# Elastic Constant Matrix: (Units=GPa)
#
#
# Indices 1 2 3 4 5 6 
#
# 1 137.1542 35.4550 13.9798 0.0000 0.0000 0.0000
# 2 35.4550 38.6838 8.8809 0.0000 0.0000 0.0000
# 3 13.9798 8.8809 28.3651 0.0000 0.0000 0.0000
# 4 0.0000 0.0000 0.0000 11.3294 0.0000 0.0000
# 5 0.0000 0.0000 0.0000 0.0000 23.3273 0.0000
# 6 0.0000 0.0000 0.0000 0.0000 0.0000 -1.4853
#
#
#
# Elastic Compliance Matrix: (Units=1/GPa)
#
#
# Indices 1 2 3 4 5 6 
#
# 1 0.009675 -0.008374 -0.002146 0.000000 0.000000 0.000000
# 2 -0.008374 0.035102 -0.006863 0.000000 0.000000 0.000000
# 3 -0.002146 -0.006863 0.038461 0.000000 0.000000 0.000000
# 4 0.000000 0.000000 0.000000 0.088266 0.000000 0.000000
# 5 0.000000 0.000000 0.000000 0.000000 0.042868 0.000000
# 6 0.000000 0.000000 0.000000 0.000000 0.000000 -0.673283
#
#
# Mechanical properties :
#
#
# Convention : Reuss Voigt Hill
#
# Bulk Modulus (GPa) = 20.63104 35.64827 28.13966
# Shear Modulus (GPa) = -12.25527 16.36012 2.05242
#
# Velocity S-wave (km/s) = -2.69934 3.11881 1.10466
# Velocity P-wave (km/s) = 1.59720 5.84501 4.28457
#
# Compressibility (1/GPa) = 0.04847066
#
# Stress axis : x y z
#
# Youngs Moduli (GPa) = 103.36300 28.48881 26.00033
#
# Poissons Ratio (x) = 0.23858 0.05580
# Poissons Ratio (y) = 0.86560 0.17843
# Poissons Ratio (z) = 0.22184 0.19551
#
# Static dielectric constant tensor:
#      x y z
#    x 1.601730 0.000000 0.000000 
#    y 0.000000 1.549510 0.000000 
#    z 0.000000 0.000000 1.577330 
# 
# From -- ./inp_files/11429.got.cif
#   From: 2010.05.17/outbox.cif.g08.bks.cpg/sg71_6_cif.got.tgz:11429.got - 2010.06.03 16:22:01.
