data_PCOD9518493
_publ_section_title
;
Structure prediction by ZEFSAII (Michael W. Deem and Ramdas Pophale) SiO2 
 PCOD9518493
Probable space group: I M M M
;
_chemical_formula_sum "Si O2"
_cell_formula_units_Z 72
_cell_length_a 23.828490
_cell_length_b 7.806419
_cell_length_c 20.063858
_cell_angle_alpha 90.000000
_cell_angle_beta 90.000000
_cell_angle_gamma 90.000000
_cell_volume 3732.182099
_symmetry_space_group_name_H-M "I M M M"
_symmetry_group_IT_number 71
_symmetry_cell_setting 'orthorhombic'
loop_
_space_group_symop_operation_xyz
x,y,z
-x,-y,z
x,-y,-z
-x,y,-z
-x,-y,-z
x,y,-z
-x,y,z
x,-y,z
1/2+x,1/2+y,1/2+z
1/2-x,1/2-y,1/2+z
1/2+x,1/2-y,1/2-z
1/2-x,1/2+y,1/2-z
1/2-x,1/2-y,1/2-z
1/2+x,1/2+y,1/2-z
1/2-x,1/2+y,1/2+z
1/2+x,1/2-y,1/2+z
loop_
_atom_site_type_symbol
_atom_site_label
_atom_site_fract_x
_atom_site_fract_y
_atom_site_fract_z
Si Si1 0.802878 0.703195 0.000000
Si Si2 0.878975 0.705050 0.129449
Si Si3 0.500000 0.000000 0.105226
Si Si4 0.500000 0.209675 0.577959
Si Si5 0.212567 0.500000 0.500000
Si Si6 0.875261 0.806650 0.271921
Si Si7 0.872588 0.500000 0.378481
Si Si8 0.500000 0.313703 0.203051
O O1 0.840296 0.737470 0.065516
O O2 0.750898 0.830755 0.000000
O O3 0.788318 0.500000 0.000000
O O4 0.883327 0.500000 0.138417
O O5 0.852139 0.773631 0.198054
O O6 0.941852 0.768028 0.111422
O O7 0.433904 0.000000 0.083395
O O8 0.500000 0.169150 0.148875
O O9 0.500000 0.256923 0.500000
O O10 0.500000 0.000000 0.580326
O O11 0.174219 0.500000 0.434460
O O12 0.866149 0.664216 0.328762
O O13 0.942431 0.796937 0.258174
O O14 0.861699 0.000000 0.294381
O O15 0.500000 0.500000 0.170338
#
# Coordination Sequence:
#
# PCOD9518493 Si02
#       8
#     8  16   4   8   4  16   8   8
#     4  10  24  43  63  83 117 170 209 251 305 341
#     4  10  18  33  58  87 128 167 210 250 293 348
#     4   8  16  33  64  86 122 141 172 228 306 373
#     4   9  15  26  50  90 129 173 212 247 285 346
#     4  12  28  47  70  83 114 150 210 262 308 370
#     4  10  19  33  59  90 127 157 194 242 295 359
#     4  10  22  43  64  97 118 151 190 244 312 381
#     4   8  15  27  46  84 125 161 178 213 285 359
#
# _framework density 19.291661999999999
#
# number of rings (size 3 to 8) (size 9 to 14) (size 15 to 20)
#    0.000    2.333    2.222    0.667    1.556    1.111 
#    0.000    1.111    0.000    1.333    0.000    8.556 
#    0.000    0.000    0.000    0.000    0.000    0.000 
#
# Total GULP energy -200448.844007 kJ/mol
# GULP energy per Si atom -5568.023445 kJ/mol
# Density = 1.924775 g / cm^3
# Si number density = 19.291662 Si / 1000 Ang^3
#
#
#
# Elastic Constant Matrix: (Units=GPa)
#
#
# Indices 1 2 3 4 5 6 
#
# 1 86.5426 55.7257 52.3309 0.0000 0.0000 0.0000
# 2 55.7257 94.2732 73.5880 0.0000 0.0000 0.0000
# 3 52.3309 73.5880 127.4618 0.0000 0.0000 0.0000
# 4 0.0000 0.0000 0.0000 11.2208 0.0000 0.0000
# 5 0.0000 0.0000 0.0000 0.0000 -1.3758 0.0000
# 6 0.0000 0.0000 0.0000 0.0000 0.0000 18.2274
#
#
#
# Elastic Compliance Matrix: (Units=1/GPa)
#
#
# Indices 1 2 3 4 5 6 
#
# 1 0.019052 -0.009386 -0.002403 0.000000 0.000000 0.000000
# 2 -0.009386 0.023933 -0.009964 0.000000 0.000000 0.000000
# 3 -0.002403 -0.009964 0.014585 0.000000 0.000000 0.000000
# 4 0.000000 0.000000 0.000000 0.089120 0.000000 0.000000
# 5 0.000000 0.000000 0.000000 0.000000 -0.726843 0.000000
# 6 0.000000 0.000000 0.000000 0.000000 0.000000 0.054862
#
#
# Mechanical properties :
#
#
# Convention : Reuss Voigt Hill
#
# Bulk Modulus (GPa) = 71.10489 74.61850 72.86170
# Shear Modulus (GPa) = -10.48004 14.05670 1.78833
#
# Velocity S-wave (km/s) = -2.33328 2.70226 0.96385
# Velocity P-wave (km/s) = 5.44783 6.96415 6.25213
#
# Compressibility (1/GPa) = 0.01406373
#
# Stress axis : x y z
#
# Youngs Moduli (GPa) = 52.48855 41.78302 68.56501
#
# Poissons Ratio (x) = 0.39217 0.16478
# Poissons Ratio (y) = 0.49264 0.68318
# Poissons Ratio (z) = 0.12614 0.41633
#
# Static dielectric constant tensor:
#      x y z
#    x 1.691160 0.000000 0.000000 
#    y 0.000000 1.692040 0.000000 
#    z 0.000000 0.000000 1.664270 
# 
# From -- ./inp_files/54750.got.cif
#   From: 2010.05.17/outbox.cif.g08.bks.cpg/sg71_28_cif.got.tgz:54750.got - 2010.06.03 16:22:01.
