data_PCOD9518687
_publ_section_title
;
Structure prediction by ZEFSAII (Michael W. Deem and Ramdas Pophale) SiO2 
 PCOD9518687
Probable space group: I M M M
;
_chemical_formula_sum "Si O2"
_cell_formula_units_Z 96
_cell_length_a 26.200279
_cell_length_b 24.510608
_cell_length_c 7.368663
_cell_angle_alpha 90.000000
_cell_angle_beta 90.000000
_cell_angle_gamma 90.000000
_cell_volume 4732.043140
_symmetry_space_group_name_H-M "I M M M"
_symmetry_group_IT_number 71
_symmetry_cell_setting 'orthorhombic'
loop_
_space_group_symop_operation_xyz
x,y,z
-x,-y,z
x,-y,-z
-x,y,-z
-x,-y,-z
x,y,-z
-x,y,z
x,-y,z
1/2+x,1/2+y,1/2+z
1/2-x,1/2-y,1/2+z
1/2+x,1/2-y,1/2-z
1/2-x,1/2+y,1/2-z
1/2-x,1/2-y,1/2-z
1/2+x,1/2+y,1/2-z
1/2-x,1/2+y,1/2+z
1/2+x,1/2-y,1/2+z
loop_
_atom_site_type_symbol
_atom_site_label
_atom_site_fract_x
_atom_site_fract_y
_atom_site_fract_z
Si Si1 0.755478 0.437728 0.280889
Si Si2 0.147718 0.638372 0.787225
Si Si3 0.655715 0.370962 0.278095
Si Si4 0.689411 0.747746 0.282796
Si Si5 0.058502 0.438116 0.221382
Si Si6 0.057624 0.062787 0.779031
O O1 0.754689 0.438820 0.500000
O O2 0.759719 0.500000 0.217129
O O3 0.803390 0.400995 0.226788
O O4 0.703096 0.408961 0.221962
O O5 0.162875 0.697390 0.710717
O O6 0.099051 0.606032 0.712259
O O7 0.137022 0.646816 0.000000
O O8 0.655645 0.370664 0.500000
O O9 0.666379 0.309332 0.216512
O O10 0.602340 0.397111 0.219057
O O11 0.683178 0.747736 0.500000
O O12 0.750000 0.750000 0.250000
O O13 0.072266 0.500000 0.276805
O O14 0.000000 0.427486 0.275028
O O15 0.059548 0.437999 0.000000
O O16 0.000000 0.077135 0.721939
O O17 0.067922 0.000000 0.725356
O O18 0.057810 0.063263 0.000000
#
# Coordination Sequence:
#
# PCOD9518687 Si02
#       6
#    16  16  16  16  16  16
#     4  10  19  29  44  66  91 120 150 182 226 275
#     4  10  19  30  46  68  91 116 152 191 225 264
#     4   9  16  27  41  59  87 119 151 183 218 266
#     4  10  19  31  46  64  89 123 155 184 225 269
#     4   8  14  26  44  64  87 116 146 178 222 271
#     4   8  13  22  38  60  86 117 150 183 223 269
#
# _framework density 20.287220000000001
#
# number of rings (size 3 to 8) (size 9 to 14) (size 15 to 20)
#    0.000    2.833    1.667    2.000    0.000    3.000 
#    0.000    0.833    0.000    5.500    0.000    2.333 
#    0.000    4.000    0.000    9.167    0.000    8.333 
#
# Total GULP energy -267978.899747 kJ/mol
# GULP energy per Si atom -5582.893745 kJ/mol
# Density = 2.024105 g / cm^3
# Si number density = 20.287220 Si / 1000 Ang^3
#
#
#
# Elastic Constant Matrix: (Units=GPa)
#
#
# Indices 1 2 3 4 5 6 
#
# 1 147.8390 97.5786 -4.6731 0.0000 0.0000 0.0000
# 2 97.5786 170.9825 0.0076 0.0000 0.0000 0.0000
# 3 -4.6731 0.0076 72.8463 0.0000 0.0000 0.0000
# 4 0.0000 0.0000 0.0000 1.9171 0.0000 0.0000
# 5 0.0000 0.0000 0.0000 0.0000 18.8194 0.0000
# 6 0.0000 0.0000 0.0000 0.0000 0.0000 25.5764
#
#
#
# Elastic Compliance Matrix: (Units=1/GPa)
#
#
# Indices 1 2 3 4 5 6 
#
# 1 0.010887 -0.006213 0.000699 0.000000 0.000000 0.000000
# 2 -0.006213 0.009394 -0.000400 0.000000 0.000000 0.000000
# 3 0.000699 -0.000400 0.013772 0.000000 0.000000 0.000000
# 4 0.000000 0.000000 0.000000 0.521614 0.000000 0.000000
# 5 0.000000 0.000000 0.000000 0.000000 0.053137 0.000000
# 6 0.000000 0.000000 0.000000 0.000000 0.000000 0.039098
#
#
# Mechanical properties :
#
#
# Convention : Reuss Voigt Hill
#
# Bulk Modulus (GPa) = 44.99136 64.16602 54.57869
# Shear Modulus (GPa) = 7.49468 29.17958 18.33713
#
# Velocity S-wave (km/s) = 1.92414 3.79664 3.00971
# Velocity P-wave (km/s) = 5.21169 7.13560 6.24814
#
# Compressibility (1/GPa) = 0.02222649
#
# Stress axis : x y z
#
# Youngs Moduli (GPa) = 91.85121 106.44594 72.60890
#
# Poissons Ratio (x) = 0.66138 -0.05076
# Poissons Ratio (y) = 0.57070 0.02901
# Poissons Ratio (z) = -0.06421 0.04253
#
# Static dielectric constant tensor:
#      x y z
#    x 1.676190 0.000000 0.000000 
#    y 0.000000 1.702300 0.000000 
#    z 0.000000 0.000000 1.861890 
# 
# From -- ./inp_files/10877.got.cif
#   From: 2010.05.17/outbox.cif.g08.bks.cpg/sg71_6_cif.got.tgz:10877.got - 2010.06.03 16:22:01.
