data_PCOD9518672
_publ_section_title
;
Structure prediction by ZEFSAII (Michael W. Deem and Ramdas Pophale) SiO2 
 PCOD9518672
Probable space group: I M M M
;
_chemical_formula_sum "Si O2"
_cell_formula_units_Z 112
_cell_length_a 8.950856
_cell_length_b 32.234480
_cell_length_c 33.309674
_cell_angle_alpha 90.000000
_cell_angle_beta 90.000000
_cell_angle_gamma 90.000000
_cell_volume 9610.713287
_symmetry_space_group_name_H-M "I M M M"
_symmetry_group_IT_number 71
_symmetry_cell_setting 'orthorhombic'
loop_
_space_group_symop_operation_xyz
x,y,z
-x,-y,z
x,-y,-z
-x,y,-z
-x,-y,-z
x,y,-z
-x,y,z
x,-y,z
1/2+x,1/2+y,1/2+z
1/2-x,1/2-y,1/2+z
1/2+x,1/2-y,1/2-z
1/2-x,1/2+y,1/2-z
1/2-x,1/2-y,1/2-z
1/2+x,1/2+y,1/2-z
1/2-x,1/2+y,1/2+z
1/2+x,1/2-y,1/2+z
loop_
_atom_site_type_symbol
_atom_site_label
_atom_site_fract_x
_atom_site_fract_y
_atom_site_fract_z
Si Si1 0.179751 0.712186 0.275395
Si Si2 0.321510 0.414168 0.000000
Si Si3 0.822476 0.799189 0.417700
Si Si4 0.323438 0.048483 0.420781
Si Si5 0.172653 0.660277 0.797160
Si Si6 0.673738 0.247188 0.652993
Si Si7 0.675690 0.615997 0.867185
Si Si8 0.178554 0.677547 0.000000
O O1 0.250000 0.750000 0.250000
O O2 0.215286 0.671649 0.248561
O O3 0.247769 0.718045 0.319516
O O4 0.000000 0.716423 0.276360
O O5 0.265642 0.437962 0.960527
O O6 0.248334 0.368638 0.000000
O O7 0.500000 0.410138 0.000000
O O8 0.758853 0.764343 0.387757
O O9 0.797114 0.843790 0.395764
O O10 0.738341 0.800501 0.459886
O O11 0.000000 0.794692 0.423137
O O12 0.500000 0.054907 0.427846
O O13 0.267865 0.077991 0.385141
O O14 0.298496 0.000000 0.412457
O O15 0.178895 0.704268 0.821100
O O16 0.273352 0.629334 0.822741
O O17 0.000000 0.646614 0.798108
O O18 0.500000 0.256773 0.646157
O O19 0.500000 0.607052 0.868477
O O20 0.000000 0.675092 0.000000
#
# Coordination Sequence:
#
# PCOD9518672 Si02
#       8
#    16   8  16  16  16  16  16   8
#     4   9  15  23  35  52  72  93 114 134 158 189
#     4  12  23  35  48  61  72  84 106 138 176 216
#     4  10  19  30  42  56  72  90 113 140 170 205
#     4  11  23  36  48  59  71  88 109 136 175 220
#     4   8  15  25  37  52  72  93 112 132 158 193
#     4   9  16  25  37  53  72  93 114 135 162 194
#     4  10  19  29  43  58  72  88 109 136 167 205
#     4  12  22  31  45  58  72  91 112 142 176 214
#
# _framework density 11.653661
#
# number of rings (size 3 to 8) (size 9 to 14) (size 15 to 20)
#    0.000    2.143    1.429    4.500    0.000    7.143 
#    0.000    0.000    0.000    0.000    0.000    0.000 
#    0.000    0.000    0.000    0.000    0.000    0.000 
#
# Total GULP energy -312108.177735 kJ/mol
# GULP energy per Si atom -5573.360317 kJ/mol
# Density = 1.162714 g / cm^3
# Si number density = 11.653661 Si / 1000 Ang^3
#
#
#
# Elastic Constant Matrix: (Units=GPa)
#
#
# Indices 1 2 3 4 5 6 
#
# 1 79.2898 29.0972 54.7598 0.0000 0.0000 0.0000
# 2 29.0972 27.2108 38.3249 0.0000 0.0000 0.0000
# 3 54.7598 38.3249 79.7269 0.0000 0.0000 0.0000
# 4 0.0000 0.0000 0.0000 2.8831 0.0000 0.0000
# 5 0.0000 0.0000 0.0000 0.0000 21.2043 0.0000
# 6 0.0000 0.0000 0.0000 0.0000 0.0000 12.1731
#
#
#
# Elastic Compliance Matrix: (Units=1/GPa)
#
#
# Indices 1 2 3 4 5 6 
#
# 1 0.024508 -0.007736 -0.013114 0.000000 0.000000 0.000000
# 2 -0.007736 0.116235 -0.050561 0.000000 0.000000 0.000000
# 3 -0.013114 -0.050561 0.045855 0.000000 0.000000 0.000000
# 4 0.000000 0.000000 0.000000 0.346848 0.000000 0.000000
# 5 0.000000 0.000000 0.000000 0.000000 0.047160 0.000000
# 6 0.000000 0.000000 0.000000 0.000000 0.000000 0.082149
#
#
# Mechanical properties :
#
#
# Convention : Reuss Voigt Hill
#
# Bulk Modulus (GPa) = 22.84409 47.84350 35.34379
# Shear Modulus (GPa) = 6.09631 11.52181 8.80906
#
# Velocity S-wave (km/s) = 2.28967 3.14775 2.75235
# Velocity P-wave (km/s) = 5.16093 7.37256 6.36356
#
# Compressibility (1/GPa) = 0.04377500
#
# Stress axis : x y z
#
# Youngs Moduli (GPa) = 40.80286 8.60329 21.80797
#
# Poissons Ratio (x) = 0.06656 0.28599
# Poissons Ratio (y) = 0.31567 1.10262
# Poissons Ratio (z) = 0.53510 0.43499
#
# Static dielectric constant tensor:
#      x y z
#    x 1.387100 0.000000 0.000000 
#    y 0.000000 1.351790 0.000000 
#    z 0.000000 0.000000 1.391600 
# 
# From -- ./inp_files/17618.got.cif
#   From: 2010.05.17/outbox.cif.g08.bks.cpg/sg71_9_cif.got.tgz:17618.got - 2010.06.03 16:22:01.
