data_PCOD9518068
_publ_section_title
;
Structure prediction by ZEFSAII (Michael W. Deem and Ramdas Pophale) SiO2 
 PCOD9518068
Probable space group: I M M M
;
_chemical_formula_sum "Si O2"
_cell_formula_units_Z 104
_cell_length_a 27.755569
_cell_length_b 7.380023
_cell_length_c 23.684001
_cell_angle_alpha 90.000000
_cell_angle_beta 90.000000
_cell_angle_gamma 90.000000
_cell_volume 4851.353498
_symmetry_space_group_name_H-M "I M M M"
_symmetry_group_IT_number 71
_symmetry_cell_setting 'orthorhombic'
loop_
_space_group_symop_operation_xyz
x,y,z
-x,-y,z
x,-y,-z
-x,y,-z
-x,-y,-z
x,y,-z
-x,y,z
x,-y,z
1/2+x,1/2+y,1/2+z
1/2-x,1/2-y,1/2+z
1/2+x,1/2-y,1/2-z
1/2-x,1/2+y,1/2-z
1/2-x,1/2-y,1/2-z
1/2+x,1/2+y,1/2-z
1/2-x,1/2+y,1/2+z
1/2+x,1/2-y,1/2+z
loop_
_atom_site_type_symbol
_atom_site_label
_atom_site_fract_x
_atom_site_fract_y
_atom_site_fract_z
Si Si1 0.200751 0.278092 0.435036
Si Si2 0.943932 0.278385 0.750413
Si Si3 0.000000 0.721475 0.935632
Si Si4 0.873379 0.296284 0.341574
Si Si5 0.802823 0.786774 0.115213
Si Si6 0.805659 0.215006 0.759650
Si Si7 0.404997 0.217420 0.371047
O O1 0.193523 0.225553 0.500000
O O2 0.200659 0.500000 0.432966
O O3 0.157987 0.215995 0.393061
O O4 0.254340 0.217704 0.414412
O O5 0.942358 0.500000 0.749647
O O6 0.919342 0.215784 0.691650
O O7 0.913227 0.219691 0.805666
O O8 0.000000 0.227181 0.755870
O O9 0.047705 0.780525 0.903506
O O10 0.000000 0.500000 0.934391
O O11 0.000000 0.778621 0.000000
O O12 0.887001 0.500000 0.359512
O O13 0.835492 0.303992 0.289994
O O14 0.812073 0.709917 0.177611
O O15 0.857180 0.768375 0.093299
O O16 0.793461 0.000000 0.122290
O O17 0.750000 0.250000 0.750000
O O18 0.815648 0.000000 0.757477
O O19 0.405767 0.000000 0.368879
#
# Coordination Sequence:
#
# PCOD9518068 Si02
#       7
#    16  16   8  16  16  16  16
#     4   9  18  33  50  68  95 133 170 199 236 295
#     4   9  16  27  47  75 100 122 157 202 248 295
#     4   9  18  32  49  69  95 131 172 210 245 286
#     4  10  18  31  52  75  97 128 168 203 245 298
#     4  10  20  32  47  71 101 128 160 200 245 291
#     4  11  20  30  47  73 102 127 158 198 244 293
#     4  10  18  30  50  71  95 128 165 203 244 288
#
# _framework density 21.437315999999999
#
# number of rings (size 3 to 8) (size 9 to 14) (size 15 to 20)
#    0.000    2.231    3.846    0.462    0.000    1.231 
#    0.000    0.385    0.000    3.692    0.000    3.231 
#    0.000    0.000    0.000    1.385    0.000    1.538 
#
# Total GULP energy -289869.679093 kJ/mol
# GULP energy per Si atom -5574.416906 kJ/mol
# Density = 2.138852 g / cm^3
# Si number density = 21.437316 Si / 1000 Ang^3
#
#
#
# Elastic Constant Matrix: (Units=GPa)
#
#
# Indices 1 2 3 4 5 6 
#
# 1 111.5907 -2.4768 47.6801 0.0000 0.0000 0.0000
# 2 -2.4768 83.7503 8.3818 0.0000 0.0000 0.0000
# 3 47.6801 8.3818 132.1867 0.0000 0.0000 0.0000
# 4 0.0000 0.0000 0.0000 -1.2968 0.0000 0.0000
# 5 0.0000 0.0000 0.0000 0.0000 17.6373 0.0000
# 6 0.0000 0.0000 0.0000 0.0000 0.0000 -82.2246
#
#
#
# Elastic Compliance Matrix: (Units=1/GPa)
#
#
# Indices 1 2 3 4 5 6 
#
# 1 0.010635 0.000703 -0.003881 0.000000 0.000000 0.000000
# 2 0.000703 0.012063 -0.001018 0.000000 0.000000 0.000000
# 3 -0.003881 -0.001018 0.009029 0.000000 0.000000 0.000000
# 4 0.000000 0.000000 0.000000 -0.771110 0.000000 0.000000
# 5 0.000000 0.000000 0.000000 0.000000 0.056698 0.000000
# 6 0.000000 0.000000 0.000000 0.000000 0.000000 -0.012162
#
#
# Mechanical properties :
#
#
# Convention : Reuss Voigt Hill
#
# Bulk Modulus (GPa) = 42.85408 48.29978 45.57693
# Shear Modulus (GPa) = -7.36729 5.08600 -1.14065
#
# Velocity S-wave (km/s) = -1.85584 1.54196 -0.73023
# Velocity P-wave (km/s) = 3.92959 5.07443 4.53825
#
# Compressibility (1/GPa) = 0.02333500
#
# Stress axis : x y z
#
# Youngs Moduli (GPa) = 94.02886 82.89837 110.74938
#
# Poissons Ratio (x) = -0.05827 0.42978
# Poissons Ratio (y) = -0.06609 0.11279
# Poissons Ratio (z) = 0.36489 0.08443
#
# Static dielectric constant tensor:
#      x y z
#    x 1.257700 0.000000 0.000000 
#    y 0.000000 1.895940 0.000000 
#    z 0.000000 0.000000 1.835490 
# 
# From -- ./inp_files/13253.got.cif
#   From: 2010.05.17/outbox.cif.g08.bks.cpg/sg71_7_cif.got.tgz:13253.got - 2010.06.03 16:22:01.
