data_PCOD9518437
_publ_section_title
;
Structure prediction by ZEFSAII (Michael W. Deem and Ramdas Pophale) SiO2 
 PCOD9518437
Probable space group: I M M M
;
_chemical_formula_sum "Si O2"
_cell_formula_units_Z 52
_cell_length_a 8.337186
_cell_length_b 14.813732
_cell_length_c 19.748516
_cell_angle_alpha 90.000000
_cell_angle_beta 90.000000
_cell_angle_gamma 90.000000
_cell_volume 2439.037290
_symmetry_space_group_name_H-M "I M M M"
_symmetry_group_IT_number 71
_symmetry_cell_setting 'orthorhombic'
loop_
_space_group_symop_operation_xyz
x,y,z
-x,-y,z
x,-y,-z
-x,y,-z
-x,-y,-z
x,y,-z
-x,y,z
x,-y,z
1/2+x,1/2+y,1/2+z
1/2-x,1/2-y,1/2+z
1/2+x,1/2-y,1/2-z
1/2-x,1/2+y,1/2-z
1/2-x,1/2-y,1/2-z
1/2+x,1/2+y,1/2-z
1/2-x,1/2+y,1/2+z
1/2+x,1/2-y,1/2+z
loop_
_atom_site_type_symbol
_atom_site_label
_atom_site_fract_x
_atom_site_fract_y
_atom_site_fract_z
Si Si1 0.684227 0.391842 0.639699
Si Si2 0.175618 0.389627 0.781673
Si Si3 0.500000 0.602123 0.152223
Si Si4 0.500000 0.646201 0.000000
Si Si5 0.317510 0.179701 0.000000
O O1 0.500000 0.370995 0.657269
O O2 0.696696 0.500000 0.632100
O O3 0.794575 0.366281 0.703146
O O4 0.731691 0.349556 0.568384
O O5 0.172899 0.500000 0.786617
O O6 0.332158 0.356729 0.822423
O O7 0.000000 0.357331 0.804390
O O8 0.500000 0.500000 0.180866
O O9 0.500000 0.597724 0.071369
O O10 0.347765 0.713388 0.000000
O O11 0.500000 0.140801 0.000000
#
# Coordination Sequence:
#
# PCOD9518437 Si02
#       5
#    16  16   8   4   8
#     4  10  18  32  56  87 118 154 194 232 277 333
#     4   9  17  31  58  92 117 137 180 240 294 339
#     4  10  19  40  66  86 109 141 188 254 299 331
#     4  10  25  42  55  76 114 156 200 234 283 352
#     4  10  22  35  49  72 122 155 193 227 267 333
#
# _framework density 21.319887000000001
#
# number of rings (size 3 to 8) (size 9 to 14) (size 15 to 20)
#    0.462    1.846    1.538    2.077    0.000    3.692 
#    0.000    5.385    0.000    3.692    0.000    0.000 
#    0.000    0.000    0.000    0.000    0.000    0.000 
#
# Total GULP energy -145104.549078 kJ/mol
# GULP energy per Si atom -5580.944195 kJ/mol
# Density = 2.127136 g / cm^3
# Si number density = 21.319887 Si / 1000 Ang^3
#
#
#
# Elastic Constant Matrix: (Units=GPa)
#
#
# Indices 1 2 3 4 5 6 
#
# 1 167.0887 18.1380 54.5754 0.0000 0.0000 0.0000
# 2 18.1380 47.0374 7.9768 0.0000 0.0000 0.0000
# 3 54.5754 7.9768 109.9955 0.0000 0.0000 0.0000
# 4 0.0000 0.0000 0.0000 -61.5033 0.0000 0.0000
# 5 0.0000 0.0000 0.0000 0.0000 6.1854 0.0000
# 6 0.0000 0.0000 0.0000 0.0000 0.0000 2.7404
#
#
#
# Elastic Compliance Matrix: (Units=1/GPa)
#
#
# Indices 1 2 3 4 5 6 
#
# 1 0.007370 -0.002250 -0.003494 0.000000 0.000000 0.000000
# 2 -0.002250 0.022211 -0.000495 0.000000 0.000000 0.000000
# 3 -0.003494 -0.000495 0.010861 0.000000 0.000000 0.000000
# 4 0.000000 0.000000 0.000000 -0.016259 0.000000 0.000000
# 5 0.000000 0.000000 0.000000 0.000000 0.161672 0.000000
# 6 0.000000 0.000000 0.000000 0.000000 0.000000 0.364912
#
#
# Mechanical properties :
#
#
# Convention : Reuss Voigt Hill
#
# Bulk Modulus (GPa) = 35.75749 53.94467 44.85108
# Shear Modulus (GPa) = 8.73265 5.71325 7.22295
#
# Velocity S-wave (km/s) = 2.02606 1.63878 1.84262
# Velocity P-wave (km/s) = 4.72033 5.37943 5.06062
#
# Compressibility (1/GPa) = 0.02796617
#
# Stress axis : x y z
#
# Youngs Moduli (GPa) = 135.68241 45.02275 92.07630
#
# Poissons Ratio (x) = 0.10128 0.32168
# Poissons Ratio (y) = 0.30522 0.04554
# Poissons Ratio (z) = 0.47403 0.02227
#
# Static dielectric constant tensor:
#      x y z
#    x 1.790570 0.000000 0.000000 
#    y 0.000000 1.783780 0.000000 
#    z 0.000000 0.000000 1.711580 
# 
# From -- ./inp_files/7135.got.cif
#   From: 2010.05.17/outbox.cif.g08.bks.cpg/sg71_4_cif.got.tgz:7135.got - 2010.06.03 16:22:01.
