data_PCOD9518432
_publ_section_title
;
Structure prediction by ZEFSAII (Michael W. Deem and Ramdas Pophale) SiO2 
 PCOD9518432
Probable space group: I M M M
;
_chemical_formula_sum "Si O2"
_cell_formula_units_Z 96
_cell_length_a 23.727603
_cell_length_b 21.505356
_cell_length_c 11.459665
_cell_angle_alpha 90.000000
_cell_angle_beta 90.000000
_cell_angle_gamma 90.000000
_cell_volume 5847.529557
_symmetry_space_group_name_H-M "I M M M"
_symmetry_group_IT_number 71
_symmetry_cell_setting 'orthorhombic'
loop_
_space_group_symop_operation_xyz
x,y,z
-x,-y,z
x,-y,-z
-x,y,-z
-x,-y,-z
x,y,-z
-x,y,z
x,-y,z
1/2+x,1/2+y,1/2+z
1/2-x,1/2-y,1/2+z
1/2+x,1/2-y,1/2-z
1/2-x,1/2+y,1/2-z
1/2-x,1/2-y,1/2-z
1/2+x,1/2+y,1/2-z
1/2-x,1/2+y,1/2+z
1/2+x,1/2-y,1/2+z
loop_
_atom_site_type_symbol
_atom_site_label
_atom_site_fract_x
_atom_site_fract_y
_atom_site_fract_z
Si Si1 0.564203 0.244060 0.788580
Si Si2 0.560449 0.102301 0.136719
Si Si3 0.827649 0.757295 0.865690
Si Si4 0.433469 0.340303 0.000000
Si Si5 0.825127 0.924343 0.500000
Si Si6 0.240219 0.848946 0.699679
Si Si7 0.682098 0.928828 0.134311
O O1 0.500000 0.253912 0.745615
O O2 0.564901 0.176721 0.850725
O O3 0.611207 0.242208 0.688474
O O4 0.576126 0.296538 0.886297
O O5 0.500000 0.083120 0.188524
O O6 0.618380 0.074887 0.182810
O O7 0.558899 0.085534 0.000000
O O8 0.802048 0.808553 0.778579
O O9 0.784027 0.699345 0.859722
O O10 0.831600 0.777735 0.000000
O O11 0.388822 0.396465 0.000000
O O12 0.500000 0.358166 0.000000
O O13 0.792766 0.893293 0.389797
O O14 0.823589 0.000000 0.500000
O O15 0.277266 0.889105 0.787548
O O16 0.700109 0.000000 0.132779
O O17 0.681332 0.905526 0.000000
#
# Coordination Sequence:
#
# PCOD9518432 Si02
#       7
#    16  16  16   8   8  16  16
#     4  10  18  32  56  81 109 139 174 225 278 333
#     4   9  16  27  47  75 103 136 178 225 276 317
#     4  11  22  35  56  81 109 141 179 226 278 330
#     4  10  20  37  60  88 111 137 181 233 294 336
#     4  12  24  39  60  84 113 149 187 227 275 335
#     4  11  22  37  53  80 111 141 181 226 278 328
#     4  10  20  33  50  72 104 147 185 221 267 325
#
# _framework density 16.417190000000002
#
# number of rings (size 3 to 8) (size 9 to 14) (size 15 to 20)
#    0.000    1.667    5.000    1.000    0.000    0.833 
#    0.000    1.667    0.000    0.000    0.000    0.000 
#    0.000    8.000    0.000    0.000    0.000    0.000 
#
# Total GULP energy -267506.828155 kJ/mol
# GULP energy per Si atom -5573.058920 kJ/mol
# Density = 1.637982 g / cm^3
# Si number density = 16.417190 Si / 1000 Ang^3
#
#
#
# Elastic Constant Matrix: (Units=GPa)
#
#
# Indices 1 2 3 4 5 6 
#
# 1 92.4340 32.3782 38.7639 0.0000 0.0000 0.0000
# 2 32.3782 83.5310 27.1419 0.0000 0.0000 0.0000
# 3 38.7639 27.1419 74.2138 0.0000 0.0000 0.0000
# 4 0.0000 0.0000 0.0000 17.3932 0.0000 0.0000
# 5 0.0000 0.0000 0.0000 0.0000 19.8725 0.0000
# 6 0.0000 0.0000 0.0000 0.0000 0.0000 -86.9315
#
#
#
# Elastic Compliance Matrix: (Units=1/GPa)
#
#
# Indices 1 2 3 4 5 6 
#
# 1 0.014774 -0.003653 -0.006381 0.000000 0.000000 0.000000
# 2 -0.003653 0.014490 -0.003391 0.000000 0.000000 0.000000
# 3 -0.006381 -0.003391 0.018048 0.000000 0.000000 0.000000
# 4 0.000000 0.000000 0.000000 0.057494 0.000000 0.000000
# 5 0.000000 0.000000 0.000000 0.000000 0.050321 0.000000
# 6 0.000000 0.000000 0.000000 0.000000 0.000000 -0.011503
#
#
# Mechanical properties :
#
#
# Convention : Reuss Voigt Hill
#
# Bulk Modulus (GPa) = 48.87339 49.63853 49.25596
# Shear Modulus (GPa) = 28.20190 0.19316 14.19753
#
# Velocity S-wave (km/s) = 4.14916 0.34338 2.94393
# Velocity P-wave (km/s) = 7.26556 5.51893 6.45162
#
# Compressibility (1/GPa) = 0.02046103
#
# Stress axis : x y z
#
# Youngs Moduli (GPa) = 67.68563 69.01516 55.40900
#
# Poissons Ratio (x) = 0.25214 0.35355
# Poissons Ratio (y) = 0.24728 0.18789
# Poissons Ratio (z) = 0.43189 0.23403
#
# Static dielectric constant tensor:
#      x y z
#    x 1.579510 0.000000 0.000000 
#    y 0.000000 1.550360 0.000000 
#    z 0.000000 0.000000 1.535430 
# 
# From -- ./inp_files/26012.got.cif
#   From: 2010.05.17/outbox.cif.g08.bks.cpg/sg71_14_cif.got.tgz:26012.got - 2010.06.03 16:22:01.
