data_PCOD9518555
_publ_section_title
;
Structure prediction by ZEFSAII (Michael W. Deem and Ramdas Pophale) SiO2 
 PCOD9518555
Probable space group: I M M M
;
_chemical_formula_sum "Si O2"
_cell_formula_units_Z 96
_cell_length_a 16.141700
_cell_length_b 28.535688
_cell_length_c 11.919741
_cell_angle_alpha 90.000000
_cell_angle_beta 90.000000
_cell_angle_gamma 90.000000
_cell_volume 5490.405720
_symmetry_space_group_name_H-M "I M M M"
_symmetry_group_IT_number 71
_symmetry_cell_setting 'orthorhombic'
loop_
_space_group_symop_operation_xyz
x,y,z
-x,-y,z
x,-y,-z
-x,y,-z
-x,-y,-z
x,y,-z
-x,y,z
x,-y,z
1/2+x,1/2+y,1/2+z
1/2-x,1/2-y,1/2+z
1/2+x,1/2-y,1/2-z
1/2-x,1/2+y,1/2-z
1/2-x,1/2-y,1/2-z
1/2+x,1/2+y,1/2-z
1/2-x,1/2+y,1/2+z
1/2+x,1/2-y,1/2+z
loop_
_atom_site_type_symbol
_atom_site_label
_atom_site_fract_x
_atom_site_fract_y
_atom_site_fract_z
Si Si1 0.500000 0.359282 0.627846
Si Si2 0.292003 0.871005 0.251988
Si Si3 0.095042 0.446935 0.365340
Si Si4 0.500000 0.413044 0.130144
Si Si5 0.404341 0.796461 0.365050
Si Si6 0.669737 0.699831 0.371058
Si Si7 0.316464 0.550980 0.869846
O O1 0.500000 0.382809 0.500000
O O2 0.500000 0.385269 0.749702
O O3 0.582736 0.328089 0.628747
O O4 0.344915 0.906232 0.175343
O O5 0.356410 0.843038 0.329545
O O6 0.237675 0.831610 0.189960
O O7 0.228259 0.905206 0.314532
O O8 0.095472 0.447363 0.500000
O O9 0.117733 0.500000 0.328043
O O10 0.000000 0.438323 0.328541
O O11 0.415227 0.442022 0.134330
O O12 0.500000 0.391081 0.000000
O O13 0.406729 0.792948 0.500000
O O14 0.500000 0.795614 0.325411
O O15 0.353222 0.750976 0.323298
O O16 0.696690 0.705843 0.500000
O O17 0.295469 0.500000 0.820071
O O18 0.292091 0.550590 0.000000
#
# Coordination Sequence:
#
# PCOD9518555 Si02
#       7
#     8  16  16   8  16  16  16
#     4  10  18  35  59  83 110 152 189 221 272 332
#     4  12  20  32  55  83 105 129 177 232 275 303
#     4   9  19  36  55  75 104 141 176 213 268 336
#     4  10  19  36  58  80 108 152 192 223 267 331
#     4  10  21  37  54  75 104 142 181 216 265 334
#     4  10  20  35  56  78 108 143 178 219 270 331
#     4  10  21  35  52  76 108 144 181 220 268 329
#
# _framework density 17.485045
#
# number of rings (size 3 to 8) (size 9 to 14) (size 15 to 20)
#    0.000    1.833    2.500    3.250    0.000    1.000 
#    0.000    0.000    0.000    3.000    0.000    7.000 
#    0.000    0.000    0.000    0.000    0.000    0.000 
#
# Total GULP energy -267250.702393 kJ/mol
# GULP energy per Si atom -5567.722967 kJ/mol
# Density = 1.744525 g / cm^3
# Si number density = 17.485045 Si / 1000 Ang^3
#
#
#
# Elastic Constant Matrix: (Units=GPa)
#
#
# Indices 1 2 3 4 5 6 
#
# 1 108.4534 62.1822 23.1702 0.0000 0.0000 0.0000
# 2 62.1822 120.4133 36.6656 0.0001 0.0000 -0.0001
# 3 23.1702 36.6656 53.6986 0.0002 -0.0001 -0.0004
# 4 0.0000 0.0001 0.0002 8.2198 0.0000 0.0000
# 5 0.0000 0.0000 -0.0001 0.0000 29.5026 0.0001
# 6 0.0000 -0.0001 -0.0004 0.0000 0.0001 13.1277
#
#
#
# Elastic Compliance Matrix: (Units=1/GPa)
#
#
# Indices 1 2 3 4 5 6 
#
# 1 0.013172 -0.006403 -0.001312 0.000000 0.000000 0.000000
# 2 -0.006403 0.013597 -0.006521 0.000000 0.000000 0.000000
# 3 -0.001312 -0.006521 0.023641 -0.000001 0.000000 0.000001
# 4 0.000000 0.000000 -0.000001 0.121657 0.000000 0.000000
# 5 0.000000 0.000000 0.000000 0.000000 0.033895 0.000000
# 6 0.000000 0.000000 0.000001 0.000000 0.000000 0.076175
#
#
# Mechanical properties :
#
#
# Convention : Reuss Voigt Hill
#
# Bulk Modulus (GPa) = 45.58192 58.51127 52.04660
# Shear Modulus (GPa) = 15.72718 20.87318 18.30018
#
# Velocity S-wave (km/s) = 3.00236 3.45885 3.23866
# Velocity P-wave (km/s) = 6.17613 7.03476 6.61938
#
# Compressibility (1/GPa) = 0.02193852
#
# Stress axis : x y z
#
# Youngs Moduli (GPa) = 75.92020 73.54684 42.29901
#
# Poissons Ratio (x) = 0.47089 0.05549
# Poissons Ratio (y) = 0.48608 0.27585
# Poissons Ratio (z) = 0.09959 0.47962
#
# Static dielectric constant tensor:
#      x y z
#    x 1.582320 0.000000 0.000000 
#    y 0.000000 1.600540 0.000000 
#    z 0.000000 0.000000 1.604900 
# 
# From -- ./inp_files/22592.got.cif
#   From: 2010.05.17/outbox.cif.g08.bks.cpg/sg71_12_cif.got.tgz:22592.got - 2010.06.03 16:22:01.
