data_PCOD9518339
_publ_section_title
;
Structure prediction by ZEFSAII (Michael W. Deem and Ramdas Pophale) SiO2 
 PCOD9518339
Probable space group: I M M M
;
_chemical_formula_sum "Si O2"
_cell_formula_units_Z 64
_cell_length_a 38.020434
_cell_length_b 7.263761
_cell_length_c 10.547827
_cell_angle_alpha 90.000000
_cell_angle_beta 90.000000
_cell_angle_gamma 90.000000
_cell_volume 2913.007577
_symmetry_space_group_name_H-M "I M M M"
_symmetry_group_IT_number 71
_symmetry_cell_setting 'orthorhombic'
loop_
_space_group_symop_operation_xyz
x,y,z
-x,-y,z
x,-y,-z
-x,y,-z
-x,-y,-z
x,y,-z
-x,y,z
x,-y,z
1/2+x,1/2+y,1/2+z
1/2-x,1/2-y,1/2+z
1/2+x,1/2-y,1/2-z
1/2-x,1/2+y,1/2-z
1/2-x,1/2-y,1/2-z
1/2+x,1/2+y,1/2-z
1/2-x,1/2+y,1/2+z
1/2+x,1/2-y,1/2+z
loop_
_atom_site_type_symbol
_atom_site_label
_atom_site_fract_x
_atom_site_fract_y
_atom_site_fract_z
Si Si1 0.905332 0.775777 0.857182
Si Si2 0.775716 0.777439 0.000000
Si Si3 0.672926 0.275270 0.724348
Si Si4 0.040410 0.223963 0.356804
Si Si5 0.306483 0.711317 0.000000
O O1 0.865607 0.720788 0.823155
O O2 0.932803 0.714275 0.750875
O O3 0.905660 0.000000 0.856145
O O4 0.914280 0.718319 0.000000
O O5 0.797270 0.718102 0.875567
O O6 0.735734 0.713850 0.000000
O O7 0.774954 0.000000 0.000000
O O8 0.673773 0.500000 0.724773
O O9 0.680414 0.210085 0.866713
O O10 0.050282 0.279951 0.500000
O O11 0.000000 0.279255 0.333450
O O12 0.040788 0.000000 0.355919
O O13 0.318989 0.500000 0.000000
#
# Coordination Sequence:
#
# PCOD9518339 Si02
#       5
#    16   8  16  16   8
#     4   9  15  23  35  50  70  99 134 169 204 242
#     4  10  18  32  48  60  83 113 139 173 218 258
#     4   9  17  28  41  59  80 104 137 176 211 248
#     4   8  14  22  31  46  69  97 130 168 206 241
#     4  10  20  30  44  66  85 105 141 181 214 252
#
# _framework density 21.970420000000001
#
# number of rings (size 3 to 8) (size 9 to 14) (size 15 to 20)
#    0.000    3.000    1.250    1.500    1.750    0.500 
#    0.000    2.500    0.000    0.000    0.000    0.000 
#    0.000    0.000    0.000    0.000    0.000    7.500 
#
# Total GULP energy -178795.116903 kJ/mol
# GULP energy per Si atom -5587.347403 kJ/mol
# Density = 2.192041 g / cm^3
# Si number density = 21.970420 Si / 1000 Ang^3
#
#
#
# Elastic Constant Matrix: (Units=GPa)
#
#
# Indices 1 2 3 4 5 6 
#
# 1 99.1346 -8.8059 85.6522 0.0000 0.0000 0.0000
# 2 -8.8059 96.9859 1.7261 0.0000 0.0000 0.0000
# 3 85.6522 1.7261 208.5013 0.0000 0.0000 0.0000
# 4 0.0000 0.0000 0.0000 -20.8209 0.0000 0.0000
# 5 0.0000 0.0000 0.0000 0.0000 55.7295 0.0000
# 6 0.0000 0.0000 0.0000 0.0000 0.0000 -12.5695
#
#
#
# Elastic Compliance Matrix: (Units=1/GPa)
#
#
# Indices 1 2 3 4 5 6 
#
# 1 0.015869 0.001557 -0.006532 0.000000 0.000000 0.000000
# 2 0.001557 0.010465 -0.000726 0.000000 0.000000 0.000000
# 3 -0.006532 -0.000726 0.007485 0.000000 0.000000 0.000000
# 4 0.000000 0.000000 0.000000 -0.048029 0.000000 0.000000
# 5 0.000000 0.000000 0.000000 0.000000 0.017944 0.000000
# 6 0.000000 0.000000 0.000000 0.000000 0.000000 -0.079558
#
#
# Mechanical properties :
#
#
# Convention : Reuss Voigt Hill
#
# Bulk Modulus (GPa) = 44.60805 62.41851 53.51328
# Shear Modulus (GPa) = -87.79909 26.20445 -30.79732
#
# Velocity S-wave (km/s) = -6.32844 3.45732 -3.74807
# Velocity P-wave (km/s) = 5.74901 6.66403 2.38309
#
# Compressibility (1/GPa) = 0.02241748
#
# Stress axis : x y z
#
# Youngs Moduli (GPa) = 63.01512 95.55590 133.59218
#
# Poissons Ratio (x) = -0.14879 0.87262
# Poissons Ratio (y) = -0.09812 0.09703
# Poissons Ratio (z) = 0.41161 0.06940
#
# Static dielectric constant tensor:
#      x y z
#    x 1.722640 0.000000 0.000000 
#    y 0.000000 1.759800 0.000000 
#    z 0.000000 0.000000 1.768560 
# 
# From -- ./inp_files/19775.got.cif
#   From: 2010.05.17/outbox.cif.g08.bks.cpg/sg71_10_cif.got.tgz:19775.got - 2010.06.03 16:22:01.
