data_PCOD9518201
_publ_section_title
;
Structure prediction by ZEFSAII (Michael W. Deem and Ramdas Pophale) SiO2 
 PCOD9518201
Probable space group: I M M M
;
_chemical_formula_sum "Si O2"
_cell_formula_units_Z 120
_cell_length_a 8.009880
_cell_length_b 27.669225
_cell_length_c 28.772791
_cell_angle_alpha 90.000000
_cell_angle_beta 90.000000
_cell_angle_gamma 90.000000
_cell_volume 6376.832298
_symmetry_space_group_name_H-M "I M M M"
_symmetry_group_IT_number 71
_symmetry_cell_setting 'orthorhombic'
loop_
_space_group_symop_operation_xyz
x,y,z
-x,-y,z
x,-y,-z
-x,y,-z
-x,-y,-z
x,y,-z
-x,y,z
x,-y,z
1/2+x,1/2+y,1/2+z
1/2-x,1/2-y,1/2+z
1/2+x,1/2-y,1/2-z
1/2-x,1/2+y,1/2-z
1/2-x,1/2-y,1/2-z
1/2+x,1/2+y,1/2-z
1/2-x,1/2+y,1/2+z
1/2+x,1/2-y,1/2+z
loop_
_atom_site_type_symbol
_atom_site_label
_atom_site_fract_x
_atom_site_fract_y
_atom_site_fract_z
Si Si1 0.303900 0.404013 0.105455
Si Si2 0.299741 0.204008 0.948107
Si Si3 0.295623 0.500000 0.054201
Si Si4 0.698320 0.646279 0.359661
Si Si5 0.201831 0.055017 0.804958
Si Si6 0.295261 0.702565 0.108113
Si Si7 0.800881 0.556274 0.799349
Si Si8 0.800758 0.260291 0.697354
O O1 0.500000 0.402512 0.093589
O O2 0.233802 0.451132 0.079289
O O3 0.234229 0.350820 0.095327
O O4 0.283996 0.413268 0.160318
O O5 0.500000 0.207329 0.950604
O O6 0.260931 0.163792 0.909659
O O7 0.240708 0.255254 0.926956
O O8 0.234992 0.195054 0.000000
O O9 0.500000 0.500000 0.057804
O O10 0.253089 0.500000 0.000000
O O11 0.500000 0.642682 0.362610
O O12 0.764137 0.595102 0.340971
O O13 0.739756 0.688440 0.322674
O O14 0.252072 0.070057 0.752826
O O15 0.000000 0.053991 0.806713
O O16 0.262120 0.000000 0.812682
O O17 0.500000 0.701439 0.107795
O O18 0.243607 0.719972 0.159784
O O19 0.750330 0.500000 0.805386
O O20 0.000000 0.559473 0.804561
O O21 0.750000 0.250000 0.750000
O O22 0.000000 0.261146 0.695310
#
# Coordination Sequence:
#
# PCOD9518201 Si02
#       8
#    16  16   8  16  16  16  16  16
#     4  10  18  31  50  70  97 131 168 213 260 307
#     4   9  18  35  57  78 102 135 174 215 263 317
#     4   9  18  30  47  73  97 121 163 217 264 303
#     4  10  20  34  54  80 107 136 172 215 262 312
#     4   9  19  35  54  76 104 139 176 210 250 306
#     4   8  17  31  48  71  97 129 169 212 252 301
#     4  10  20  32  47  70 100 133 172 212 251 301
#     4  10  20  34  49  71 105 141 178 214 258 313
#
# _framework density 18.818121000000001
#
# number of rings (size 3 to 8) (size 9 to 14) (size 15 to 20)
#    0.000    2.600    0.667    2.000    1.867    2.400 
#    0.000    5.333    0.000    1.200    0.000    2.800 
#    0.000    0.000    0.000    0.000    0.000    0.000 
#
# Total GULP energy -334636.492562 kJ/mol
# GULP energy per Si atom -5577.274876 kJ/mol
# Density = 1.877529 g / cm^3
# Si number density = 18.818121 Si / 1000 Ang^3
#
#
#
# Elastic Constant Matrix: (Units=GPa)
#
#
# Indices 1 2 3 4 5 6 
#
# 1 11.2755 -0.5984 -3.0764 0.0000 0.0000 0.0000
# 2 -0.5984 119.8667 70.0210 0.0000 0.0000 0.0000
# 3 -3.0764 70.0210 134.8737 0.0000 0.0000 0.0000
# 4 0.0000 0.0000 0.0000 11.4331 0.0000 0.0000
# 5 0.0000 0.0000 0.0000 0.0000 16.6196 0.0000
# 6 0.0000 0.0000 0.0000 0.0000 0.0000 15.3674
#
#
#
# Elastic Compliance Matrix: (Units=1/GPa)
#
#
# Indices 1 2 3 4 5 6 
#
# 1 0.089338 -0.001068 0.002592 0.000000 0.000000 0.000000
# 2 -0.001068 0.011987 -0.006247 0.000000 0.000000 0.000000
# 3 0.002592 -0.006247 0.010717 0.000000 0.000000 0.000000
# 4 0.000000 0.000000 0.000000 0.087465 0.000000 0.000000
# 5 0.000000 0.000000 0.000000 0.000000 0.060170 0.000000
# 6 0.000000 0.000000 0.000000 0.000000 0.000000 0.065073
#
#
# Mechanical properties :
#
#
# Convention : Reuss Voigt Hill
#
# Bulk Modulus (GPa) = 9.74703 44.30093 27.02398
# Shear Modulus (GPa) = 13.57237 21.99532 17.78385
#
# Velocity S-wave (km/s) = 2.68850 3.42254 3.07748
# Velocity P-wave (km/s) = 3.85075 6.26187 5.19804
#
# Compressibility (1/GPa) = 0.10259538
#
# Stress axis : x y z
#
# Youngs Moduli (GPa) = 11.19339 83.42557 93.31078
#
# Poissons Ratio (x) = 0.08913 -0.24190
# Poissons Ratio (y) = 0.01196 0.58295
# Poissons Ratio (z) = -0.02902 0.52119
#
# Static dielectric constant tensor:
#      x y z
#    x 1.690630 0.000000 0.000000 
#    y 0.000000 1.671590 0.000000 
#    z 0.000000 0.000000 1.626750 
# 
# From -- ./inp_files/63790.got.cif
#   From: 2010.05.17/outbox.cif.g08.bks.cpg/sg71_32_cif.got.tgz:63790.got - 2010.06.03 16:22:01.
