data_PCOD9518412
_publ_section_title
;
Structure prediction by ZEFSAII (Michael W. Deem and Ramdas Pophale) SiO2 
 PCOD9518412
Probable space group: I M M M
;
_chemical_formula_sum "Si O2"
_cell_formula_units_Z 76
_cell_length_a 21.663322
_cell_length_b 7.667136
_cell_length_c 24.248528
_cell_angle_alpha 90.000000
_cell_angle_beta 90.000000
_cell_angle_gamma 90.000000
_cell_volume 4027.574680
_symmetry_space_group_name_H-M "I M M M"
_symmetry_group_IT_number 71
_symmetry_cell_setting 'orthorhombic'
loop_
_space_group_symop_operation_xyz
x,y,z
-x,-y,z
x,-y,-z
-x,y,-z
-x,-y,-z
x,y,-z
-x,y,z
x,-y,z
1/2+x,1/2+y,1/2+z
1/2-x,1/2-y,1/2+z
1/2+x,1/2-y,1/2-z
1/2-x,1/2+y,1/2-z
1/2-x,1/2-y,1/2-z
1/2+x,1/2+y,1/2-z
1/2-x,1/2+y,1/2+z
1/2+x,1/2-y,1/2+z
loop_
_atom_site_type_symbol
_atom_site_label
_atom_site_fract_x
_atom_site_fract_y
_atom_site_fract_z
Si Si1 0.129470 0.288406 0.613934
Si Si2 0.232848 0.306307 0.906508
Si Si3 0.193571 0.201001 0.791420
Si Si4 0.279674 0.500000 0.500000
Si Si5 0.930745 0.288812 0.272975
Si Si6 0.070205 0.286833 0.500000
O O1 0.132962 0.500000 0.613867
O O2 0.198040 0.217203 0.617682
O O3 0.085645 0.237706 0.664211
O O4 0.103457 0.230507 0.555286
O O5 0.226376 0.500000 0.930525
O O6 0.193015 0.293869 0.850604
O O7 0.222354 0.154405 0.951227
O O8 0.250000 0.250000 0.750000
O O9 0.127518 0.226570 0.762365
O O10 0.203937 0.000000 0.804412
O O11 0.930658 0.500000 0.270699
O O12 0.000000 0.229803 0.257728
O O13 0.071268 0.500000 0.500000
O O14 0.000000 0.230706 0.500000
#
# Coordination Sequence:
#
# PCOD9518412 Si02
#       6
#    16  16  16   4  16   8
#     4  10  18  32  54  81 121 165 216 265 310 363
#     4  12  24  40  64  93 125 170 213 271 329 389
#     4  12  23  40  63  93 129 169 221 273 334 395
#     4  12  24  44  60  96 132 162 224 268 328 390
#     4  10  21  36  57  89 129 171 218 268 325 393
#     4   9  17  28  47  74 108 159 213 256 303 359
#
# _framework density 18.869917000000001
#
# number of rings (size 3 to 8) (size 9 to 14) (size 15 to 20)
#    0.000    1.158    4.211    3.474    1.474    2.947 
#    0.000    0.000    0.000    2.526    0.000    1.474 
#    0.000    3.368    0.000    0.000    0.000    0.000 
#
# Total GULP energy -211672.395519 kJ/mol
# GULP energy per Si atom -5570.326198 kJ/mol
# Density = 1.882697 g / cm^3
# Si number density = 18.869917 Si / 1000 Ang^3
#
#
#
# Elastic Constant Matrix: (Units=GPa)
#
#
# Indices 1 2 3 4 5 6 
#
# 1 92.9276 5.5680 49.5350 0.0000 0.0000 0.0000
# 2 5.5680 113.4897 28.3811 0.0000 0.0000 0.0000
# 3 49.5350 28.3811 95.4888 0.0000 0.0000 0.0000
# 4 0.0000 0.0000 0.0000 27.9390 0.0000 0.0000
# 5 0.0000 0.0000 0.0000 0.0000 9.6659 0.0000
# 6 0.0000 0.0000 0.0000 0.0000 0.0000 7.1782
#
#
#
# Elastic Compliance Matrix: (Units=1/GPa)
#
#
# Indices 1 2 3 4 5 6 
#
# 1 0.015053 0.001312 -0.008198 0.000000 0.000000 0.000000
# 2 0.001312 0.009633 -0.003544 0.000000 0.000000 0.000000
# 3 -0.008198 -0.003544 0.015779 0.000000 0.000000 0.000000
# 4 0.000000 0.000000 0.000000 0.035792 0.000000 0.000000
# 5 0.000000 0.000000 0.000000 0.000000 0.103457 0.000000
# 6 0.000000 0.000000 0.000000 0.000000 0.000000 0.139311
#
#
# Mechanical properties :
#
#
# Convention : Reuss Voigt Hill
#
# Bulk Modulus (GPa) = 51.01063 52.09715 51.55389
# Shear Modulus (GPa) = 14.43337 23.51808 18.97572
#
# Velocity S-wave (km/s) = 2.76866 3.53417 3.17457
# Velocity P-wave (km/s) = 6.10836 6.65750 6.38883
#
# Compressibility (1/GPa) = 0.01960376
#
# Stress axis : x y z
#
# Youngs Moduli (GPa) = 66.43342 103.80769 63.37683
#
# Poissons Ratio (x) = -0.13617 0.51959
# Poissons Ratio (y) = -0.08714 0.22458
# Poissons Ratio (z) = 0.54465 0.36786
#
# Static dielectric constant tensor:
#      x y z
#    x 1.688550 0.000000 0.000000 
#    y 0.000000 1.719330 0.000000 
#    z 0.000000 0.000000 1.069660 
# 
# From -- ./inp_files/65861.got.cif
#   From: 2010.05.17/outbox.cif.g08.bks.cpg/sg71_33_cif.got.tgz:65861.got - 2010.06.03 16:22:01.
