data_PCOD9518586
_publ_section_title
;
Structure prediction by ZEFSAII (Michael W. Deem and Ramdas Pophale) SiO2 
 PCOD9518586
Probable space group: I M M M
;
_chemical_formula_sum "Si O2"
_cell_formula_units_Z 84
_cell_length_a 12.179829
_cell_length_b 11.671670
_cell_length_c 30.734278
_cell_angle_alpha 90.000000
_cell_angle_beta 90.000000
_cell_angle_gamma 90.000000
_cell_volume 4369.152528
_symmetry_space_group_name_H-M "I M M M"
_symmetry_group_IT_number 71
_symmetry_cell_setting 'orthorhombic'
loop_
_space_group_symop_operation_xyz
x,y,z
-x,-y,z
x,-y,-z
-x,y,-z
-x,-y,-z
x,y,-z
-x,y,z
x,-y,z
1/2+x,1/2+y,1/2+z
1/2-x,1/2-y,1/2+z
1/2+x,1/2-y,1/2-z
1/2-x,1/2+y,1/2-z
1/2-x,1/2-y,1/2-z
1/2+x,1/2+y,1/2-z
1/2-x,1/2+y,1/2+z
1/2+x,1/2-y,1/2+z
loop_
_atom_site_type_symbol
_atom_site_label
_atom_site_fract_x
_atom_site_fract_y
_atom_site_fract_z
Si Si1 0.760370 0.500000 0.574630
Si Si2 0.779281 0.636475 0.113506
Si Si3 0.000000 0.251775 0.916445
Si Si4 0.500000 0.500000 0.568166
Si Si5 0.130372 0.500000 0.668982
Si Si6 0.000000 0.129281 0.823922
Si Si7 0.769186 0.209881 0.798770
Si Si8 0.128876 0.267070 0.451020
O O1 0.629688 0.500000 0.581895
O O2 0.819991 0.500000 0.620870
O O3 0.802098 0.384901 0.551711
O O4 0.779893 0.500000 0.118905
O O5 0.773058 0.698715 0.161066
O O6 0.677638 0.682850 0.085151
O O7 0.887678 0.675317 0.085645
O O8 0.000000 0.137692 0.946773
O O9 0.000000 0.199392 0.867999
O O10 0.179329 0.386295 0.690643
O O11 0.000000 0.500000 0.668906
O O12 0.889689 0.154318 0.798768
O O13 0.000000 0.000000 0.838768
O O14 0.750000 0.250000 0.750000
O O15 0.139503 0.220095 0.500000
O O16 0.000000 0.291826 0.443197
#
# Coordination Sequence:
#
# PCOD9518586 Si02
#       8
#     8  16   8   4   8   8  16  16
#     4  12  21  41  69 105 137 170 216 275 345 398
#     4  11  24  42  65  93 130 176 224 271 324 393
#     4  10  19  38  65  94 128 160 213 264 332 383
#     4  12  18  34  73 102 128 172 214 266 332 400
#     4  12  24  41  69  97 135 172 220 279 343 397
#     4  10  18  37  63  88 118 163 211 264 316 386
#     4  11  25  41  64  94 130 171 219 271 334 398
#     4  11  24  43  68  98 133 175 221 275 338 400
#
# _framework density 19.225697
#
# number of rings (size 3 to 8) (size 9 to 14) (size 15 to 20)
#    0.000    0.952    5.238    2.571    2.667    1.524 
#    0.000    3.333    0.000    1.143    0.000    0.000 
#    0.000    0.000    0.000    0.000    0.000    0.000 
#
# Total GULP energy -234130.669206 kJ/mol
# GULP energy per Si atom -5574.539743 kJ/mol
# Density = 1.918194 g / cm^3
# Si number density = 19.225697 Si / 1000 Ang^3
#
#
#
# Elastic Constant Matrix: (Units=GPa)
#
#
# Indices 1 2 3 4 5 6 
#
# 1 180.2109 53.7235 50.2800 0.0000 0.0000 0.0000
# 2 53.7235 127.1583 24.4195 0.0000 0.0000 0.0000
# 3 50.2800 24.4195 86.6530 0.0000 0.0000 0.0000
# 4 0.0000 0.0000 0.0000 17.5435 0.0000 0.0000
# 5 0.0000 0.0000 0.0000 0.0000 26.5928 0.0000
# 6 0.0000 0.0000 0.0000 0.0000 0.0000 19.8601
#
#
#
# Elastic Compliance Matrix: (Units=1/GPa)
#
#
# Indices 1 2 3 4 5 6 
#
# 1 0.007245 -0.002383 -0.003532 0.000000 0.000000 0.000000
# 2 -0.002383 0.009098 -0.001181 0.000000 0.000000 0.000000
# 3 -0.003532 -0.001181 0.013923 0.000000 0.000000 0.000000
# 4 0.000000 0.000000 0.000000 0.057001 0.000000 0.000000
# 5 0.000000 0.000000 0.000000 0.000000 0.037604 0.000000
# 6 0.000000 0.000000 0.000000 0.000000 0.000000 0.050352
#
#
# Mechanical properties :
#
#
# Convention : Reuss Voigt Hill
#
# Bulk Modulus (GPa) = 62.21666 72.31869 67.26767
# Shear Modulus (GPa) = 25.67088 30.50589 28.08838
#
# Velocity S-wave (km/s) = 3.65805 3.98769 3.82642
# Velocity P-wave (km/s) = 7.09036 7.67460 7.38826
#
# Compressibility (1/GPa) = 0.01607286
#
# Stress axis : x y z
#
# Youngs Moduli (GPa) = 138.02844 109.91801 71.82441
#
# Poissons Ratio (x) = 0.26189 0.25371
# Poissons Ratio (y) = 0.32886 0.08485
# Poissons Ratio (z) = 0.48757 0.12985
#
# Static dielectric constant tensor:
#      x y z
#    x 1.664400 0.000000 0.000000 
#    y 0.000000 1.719280 0.000000 
#    z 0.000000 0.000000 1.709820 
# 
# From -- ./inp_files/69137.got.cif
#   From: 2010.05.17/outbox.cif.g08.bks.cpg/sg71_35_cif.got.tgz:69137.got - 2010.06.03 16:22:01.
