data_PCOD9518535
_publ_section_title
;
Structure prediction by ZEFSAII (Michael W. Deem and Ramdas Pophale) SiO2 
 PCOD9518535
Probable space group: I M M M
;
_chemical_formula_sum "Si O2"
_cell_formula_units_Z 104
_cell_length_a 17.667199
_cell_length_b 17.788518
_cell_length_c 16.951090
_cell_angle_alpha 90.000000
_cell_angle_beta 90.000000
_cell_angle_gamma 90.000000
_cell_volume 5327.274780
_symmetry_space_group_name_H-M "I M M M"
_symmetry_group_IT_number 71
_symmetry_cell_setting 'orthorhombic'
loop_
_space_group_symop_operation_xyz
x,y,z
-x,-y,z
x,-y,-z
-x,y,-z
-x,-y,-z
x,y,-z
-x,y,z
x,-y,z
1/2+x,1/2+y,1/2+z
1/2-x,1/2-y,1/2+z
1/2+x,1/2-y,1/2-z
1/2-x,1/2+y,1/2-z
1/2-x,1/2-y,1/2-z
1/2+x,1/2+y,1/2-z
1/2-x,1/2+y,1/2+z
1/2+x,1/2-y,1/2+z
loop_
_atom_site_type_symbol
_atom_site_label
_atom_site_fract_x
_atom_site_fract_y
_atom_site_fract_z
Si Si1 0.125864 0.584312 0.593184
Si Si2 0.415610 0.193680 0.774619
Si Si3 0.354397 0.642394 0.819270
Si Si4 0.789829 0.883284 0.155526
Si Si5 0.585557 0.762105 0.500000
Si Si6 0.802852 0.704187 0.142697
Si Si7 0.886556 0.085741 0.000000
Si Si8 0.000000 0.911685 0.586815
O O1 0.131068 0.603301 0.500000
O O2 0.093983 0.500000 0.599141
O O3 0.083916 0.645733 0.645518
O O4 0.208725 0.584415 0.632686
O O5 0.500000 0.191874 0.739289
O O6 0.391540 0.278674 0.792596
O O7 0.349968 0.168091 0.714731
O O8 0.327844 0.599114 0.739761
O O9 0.276699 0.661213 0.866436
O O10 0.422211 0.606647 0.868080
O O11 0.781779 0.791950 0.157794
O O12 0.840513 0.908666 0.081794
O O13 0.500000 0.791859 0.500000
O O14 0.636385 0.789203 0.573120
O O15 0.578392 0.670566 0.500000
O O16 0.919617 0.000000 0.000000
O O17 0.000000 0.874631 0.500000
O O18 0.000000 0.000000 0.578109
#
# Coordination Sequence:
#
# PCOD9518535 Si02
#       8
#    16  16  16  16   8  16   8   8
#     4  11  22  35  55  86 128 167 201 248 302 358
#     4  11  21  38  60  88 122 162 207 259 301 355
#     4  11  21  41  66  91 115 158 211 255 303 371
#     4  10  18  34  58  86 121 158 205 250 292 348
#     4  10  22  37  58  91 125 159 202 269 322 357
#     4  10  20  36  63  89 118 153 208 259 303 363
#     4  10  20  33  54  86 128 174 206 235 291 376
#     4  11  28  48  64  91 128 152 192 265 327 374
#
# _framework density 19.522178
#
# number of rings (size 3 to 8) (size 9 to 14) (size 15 to 20)
#    0.000    1.462    4.615    1.846    1.077    2.615 
#    1.385    0.769    0.000    0.000    0.000    0.000 
#    0.000    2.462    0.000    0.000    0.000    0.000 
#
# Total GULP energy -289675.767334 kJ/mol
# GULP energy per Si atom -5570.687833 kJ/mol
# Density = 1.947774 g / cm^3
# Si number density = 19.522178 Si / 1000 Ang^3
#
#
#
# Elastic Constant Matrix: (Units=GPa)
#
#
# Indices 1 2 3 4 5 6 
#
# 1 166.8786 27.6077 58.2143 0.0000 0.0000 0.0000
# 2 27.6077 54.6155 37.1387 0.0000 0.0000 0.0000
# 3 58.2143 37.1387 115.0130 0.0000 0.0000 0.0000
# 4 0.0000 0.0000 0.0000 14.7690 0.0000 0.0000
# 5 0.0000 0.0000 0.0000 0.0000 -39.4061 0.0000
# 6 0.0000 0.0000 0.0000 0.0000 0.0000 -8.2561
#
#
#
# Elastic Compliance Matrix: (Units=1/GPa)
#
#
# Indices 1 2 3 4 5 6 
#
# 1 0.007375 -0.001524 -0.003241 0.000000 0.000000 0.000000
# 2 -0.001524 0.023777 -0.006906 0.000000 0.000000 0.000000
# 3 -0.003241 -0.006906 0.012565 0.000000 0.000000 0.000000
# 4 0.000000 0.000000 0.000000 0.067710 0.000000 0.000000
# 5 0.000000 0.000000 0.000000 0.000000 -0.025377 0.000000
# 6 0.000000 0.000000 0.000000 0.000000 0.000000 -0.121122
#
#
# Mechanical properties :
#
#
# Convention : Reuss Voigt Hill
#
# Bulk Modulus (GPa) = 49.08141 64.71430 56.89786
# Shear Modulus (GPa) = -1012.26736 7.65778 -502.30479
#
# Velocity S-wave (km/s) = -22.79578 1.98271 -16.05796
# Velocity P-wave (km/s) = 25.83926 6.20182 17.73703
#
# Compressibility (1/GPa) = 0.02037431
#
# Stress axis : x y z
#
# Youngs Moduli (GPa) = 135.59230 42.05828 79.58623
#
# Poissons Ratio (x) = 0.06411 0.25791
# Poissons Ratio (y) = 0.20669 0.54963
# Poissons Ratio (z) = 0.43941 0.29046
#
# Static dielectric constant tensor:
#      x y z
#    x 1.697810 0.000000 0.000000 
#    y 0.000000 1.675900 0.000000 
#    z 0.000000 0.000000 1.758290 
# 
# From -- ./inp_files/46176.got.cif
#   From: 2010.05.17/outbox.cif.g08.bks.cpg/sg71_24_cif.got.tgz:46176.got - 2010.06.03 16:22:01.
