data_PCOD9518542
_publ_section_title
;
Structure prediction by ZEFSAII (Michael W. Deem and Ramdas Pophale) SiO2 
 PCOD9518542
Probable space group: I M M M
;
_chemical_formula_sum "Si O2"
_cell_formula_units_Z 96
_cell_length_a 14.831420
_cell_length_b 24.325856
_cell_length_c 14.070517
_cell_angle_alpha 90.000000
_cell_angle_beta 90.000000
_cell_angle_gamma 90.000000
_cell_volume 5076.459437
_symmetry_space_group_name_H-M "I M M M"
_symmetry_group_IT_number 71
_symmetry_cell_setting 'orthorhombic'
loop_
_space_group_symop_operation_xyz
x,y,z
-x,-y,z
x,-y,-z
-x,y,-z
-x,-y,-z
x,y,-z
-x,y,z
x,-y,z
1/2+x,1/2+y,1/2+z
1/2-x,1/2-y,1/2+z
1/2+x,1/2-y,1/2-z
1/2-x,1/2+y,1/2-z
1/2-x,1/2-y,1/2-z
1/2+x,1/2+y,1/2-z
1/2-x,1/2+y,1/2+z
1/2+x,1/2-y,1/2+z
loop_
_atom_site_type_symbol
_atom_site_label
_atom_site_fract_x
_atom_site_fract_y
_atom_site_fract_z
Si Si1 0.391769 0.882088 0.388077
Si Si2 0.808541 0.890652 0.109248
Si Si3 0.500000 0.563006 0.615730
Si Si4 0.109662 0.000000 0.389929
Si Si5 0.394062 0.620451 0.885095
Si Si6 0.393417 0.000000 0.309397
Si Si7 0.688303 0.000000 0.105268
Si Si8 0.248877 0.686088 0.773804
O O1 0.373146 0.875976 0.500000
O O2 0.500000 0.878615 0.374038
O O3 0.359760 0.942980 0.354955
O O4 0.339443 0.836442 0.327749
O O5 0.909669 0.905184 0.142296
O O6 0.752148 0.946908 0.110697
O O7 0.761622 0.847153 0.176363
O O8 0.813278 0.871676 0.000000
O O9 0.500000 0.500000 0.651861
O O10 0.500000 0.559380 0.500000
O O11 0.136571 0.940693 0.350070
O O12 0.138777 0.000000 0.500000
O O13 0.000000 0.000000 0.390520
O O14 0.500000 0.626999 0.863160
O O15 0.332344 0.666638 0.839354
O O16 0.386079 0.620742 0.000000
O O17 0.500000 0.000000 0.327630
O O18 0.374572 0.000000 0.197112
O O19 0.644363 0.000000 0.000000
O O20 0.250000 0.750000 0.750000
#
# Coordination Sequence:
#
# PCOD9518542 Si02
#       8
#    16  16   8   8  16   8   8  16
#     4  10  22  42  66  92 122 155 197 254 314 369
#     4  10  21  37  58  86 121 158 196 242 296 361
#     4   9  16  32  58  88 121 151 179 224 292 369
#     4   7  12  28  54  86 122 147 165 208 281 367
#     4   9  19  37  61  91 124 152 182 231 301 375
#     4  10  19  36  64  96 122 149 191 247 318 379
#     4  10  18  34  60  90 124 158 193 241 307 365
#     4  12  26  40  59  82 115 162 213 256 291 340
#
# _framework density 18.910819
#
# number of rings (size 3 to 8) (size 9 to 14) (size 15 to 20)
#    0.000    2.167    2.500    1.750    1.167    4.500 
#    0.000    1.667    0.000    0.500    0.000    0.000 
#    0.000    0.000    0.000    0.000    0.000    0.000 
#
# Total GULP energy -268085.159275 kJ/mol
# GULP energy per Si atom -5585.107485 kJ/mol
# Density = 1.886778 g / cm^3
# Si number density = 18.910819 Si / 1000 Ang^3
#
#
#
# Elastic Constant Matrix: (Units=GPa)
#
#
# Indices 1 2 3 4 5 6 
#
# 1 69.8171 54.2276 37.9597 0.0000 0.0000 0.0000
# 2 54.2276 165.8698 69.6267 0.0001 0.0000 0.0000
# 3 37.9597 69.6267 115.4965 0.0000 0.0000 0.0000
# 4 0.0000 0.0001 0.0000 10.4377 0.0000 0.0000
# 5 0.0000 0.0000 0.0000 0.0000 33.6572 0.0000
# 6 0.0000 0.0000 0.0000 0.0000 0.0000 20.4265
#
#
#
# Elastic Compliance Matrix: (Units=1/GPa)
#
#
# Indices 1 2 3 4 5 6 
#
# 1 0.020238 -0.005120 -0.003565 0.000000 0.000000 0.000000
# 2 -0.005120 0.009367 -0.003964 0.000000 0.000000 0.000000
# 3 -0.003565 -0.003964 0.012220 0.000000 0.000000 0.000000
# 4 0.000000 0.000000 0.000000 0.095806 0.000000 0.000000
# 5 0.000000 0.000000 0.000000 0.000000 0.029711 0.000000
# 6 0.000000 0.000000 0.000000 0.000000 0.000000 0.048956
#
#
# Mechanical properties :
#
#
# Convention : Reuss Voigt Hill
#
# Bulk Modulus (GPa) = 60.50842 74.97903 67.74373
# Shear Modulus (GPa) = 20.23436 25.52892 22.88164
#
# Velocity S-wave (km/s) = 3.27462 3.67817 3.48224
# Velocity P-wave (km/s) = 6.80909 7.60088 7.21585
#
# Compressibility (1/GPa) = 0.01652663
#
# Stress axis : x y z
#
# Youngs Moduli (GPa) = 49.41162 106.76256 81.83585
#
# Poissons Ratio (x) = 0.54662 0.29175
# Poissons Ratio (y) = 0.25298 0.32439
# Poissons Ratio (z) = 0.17615 0.42319
#
# Static dielectric constant tensor:
#      x y z
#    x 1.662450 0.000000 0.000000 
#    y 0.000000 1.620870 0.000000 
#    z 0.000000 0.000000 1.690490 
# 
# From -- ./inp_files/34809.got.cif
#   From: 2010.05.17/outbox.cif.g08.bks.cpg/sg71_18_cif.got.tgz:34809.got - 2010.06.03 16:22:01.
