data_PCOD9518251
_publ_section_title
;
Structure prediction by ZEFSAII (Michael W. Deem and Ramdas Pophale) SiO2 
 PCOD9518251
Probable space group: I M M M
;
_chemical_formula_sum "Si O2"
_cell_formula_units_Z 80
_cell_length_a 25.547291
_cell_length_b 21.025471
_cell_length_c 8.804550
_cell_angle_alpha 90.000000
_cell_angle_beta 90.000000
_cell_angle_gamma 90.000000
_cell_volume 4729.309674
_symmetry_space_group_name_H-M "I M M M"
_symmetry_group_IT_number 71
_symmetry_cell_setting 'orthorhombic'
loop_
_space_group_symop_operation_xyz
x,y,z
-x,-y,z
x,-y,-z
-x,y,-z
-x,-y,-z
x,y,-z
-x,y,z
x,-y,z
1/2+x,1/2+y,1/2+z
1/2-x,1/2-y,1/2+z
1/2+x,1/2-y,1/2-z
1/2-x,1/2+y,1/2-z
1/2-x,1/2-y,1/2-z
1/2+x,1/2+y,1/2-z
1/2-x,1/2+y,1/2+z
1/2+x,1/2-y,1/2+z
loop_
_atom_site_type_symbol
_atom_site_label
_atom_site_fract_x
_atom_site_fract_y
_atom_site_fract_z
Si Si1 0.108368 0.252380 0.680978
Si Si2 0.386206 0.388712 0.316515
Si Si3 0.000000 0.102572 0.823893
Si Si4 0.781164 0.309714 0.318903
Si Si5 0.222270 0.071078 0.319369
Si Si6 0.000000 0.257634 0.176069
O O1 0.105657 0.241562 0.500000
O O2 0.117707 0.184552 0.762303
O O3 0.157635 0.297471 0.713038
O O4 0.053123 0.277959 0.741594
O O5 0.386065 0.390533 0.500000
O O6 0.442855 0.415181 0.261177
O O7 0.335648 0.423002 0.251209
O O8 0.000000 0.179967 0.819966
O O9 0.000000 0.082323 0.000000
O O10 0.773651 0.310038 0.500000
O O11 0.750000 0.250000 0.250000
O O12 0.758165 0.374073 0.250190
O O13 0.218266 0.080619 0.500000
O O14 0.242526 0.000000 0.289645
O O15 0.000000 0.276119 0.000000
#
# Coordination Sequence:
#
# PCOD9518251 Si02
#       6
#    16  16   8  16  16   8
#     4  10  19  31  50  78 109 138 171 216 267 317
#     4  10  18  31  52  74 100 136 178 222 268 317
#     4   7  14  27  44  70  97 127 170 215 258 303
#     4  11  22  35  56  82 108 139 178 222 270 321
#     4  11  24  39  53  73 105 143 182 225 273 322
#     4   9  17  29  47  74 107 140 173 210 258 313
#
# _framework density 16.915787999999999
#
# number of rings (size 3 to 8) (size 9 to 14) (size 15 to 20)
#    0.000    2.000    2.000    3.900    0.000    4.000 
#    0.000    2.000    0.000    3.000    0.000    0.700 
#    0.000    5.600    0.000    0.000    0.000    0.000 
#
# Total GULP energy -223179.279902 kJ/mol
# GULP energy per Si atom -5579.481998 kJ/mol
# Density = 1.687729 g / cm^3
# Si number density = 16.915788 Si / 1000 Ang^3
#
#
#
# Elastic Constant Matrix: (Units=GPa)
#
#
# Indices 1 2 3 4 5 6 
#
# 1 132.5246 62.7404 58.5849 0.0000 0.0000 0.0000
# 2 62.7404 88.2245 46.5919 0.0000 0.0000 0.0000
# 3 58.5849 46.5919 71.6505 0.0000 0.0000 0.0000
# 4 0.0000 0.0000 0.0000 18.5090 0.0000 0.0000
# 5 0.0000 0.0000 0.0000 0.0000 29.1128 0.0000
# 6 0.0000 0.0000 0.0000 0.0000 0.0000 11.8142
#
#
#
# Elastic Compliance Matrix: (Units=1/GPa)
#
#
# Indices 1 2 3 4 5 6 
#
# 1 0.013488 -0.005739 -0.007297 0.000000 0.000000 0.000000
# 2 -0.005739 0.019704 -0.008121 0.000000 0.000000 0.000000
# 3 -0.007297 -0.008121 0.025204 0.000000 0.000000 0.000000
# 4 0.000000 0.000000 0.000000 0.054028 0.000000 0.000000
# 5 0.000000 0.000000 0.000000 0.000000 0.034349 0.000000
# 6 0.000000 0.000000 0.000000 0.000000 0.000000 0.084644
#
#
# Mechanical properties :
#
#
# Convention : Reuss Voigt Hill
#
# Bulk Modulus (GPa) = 62.17618 69.80378 65.98998
# Shear Modulus (GPa) = 17.91523 20.18602 19.05062
#
# Velocity S-wave (km/s) = 3.25789 3.45820 3.35954
# Velocity P-wave (km/s) = 7.14058 7.56971 7.35828
#
# Compressibility (1/GPa) = 0.01608333
#
# Stress axis : x y z
#
# Youngs Moduli (GPa) = 74.13787 50.75009 39.67624
#
# Poissons Ratio (x) = 0.29123 0.28953
# Poissons Ratio (y) = 0.42544 0.32221
# Poissons Ratio (z) = 0.54100 0.41214
#
# Static dielectric constant tensor:
#      x y z
#    x 1.599910 0.000000 0.000000 
#    y 0.000000 1.555130 0.000000 
#    z 0.000000 0.000000 1.567320 
# 
# From -- ./inp_files/12426.got.cif
#   From: 2010.05.17/outbox.cif.g08.bks.cpg/sg71_7_cif.got.tgz:12426.got - 2010.06.03 16:22:01.
