data_PCOD9518819
_publ_section_title
;
Structure prediction by ZEFSAII (Michael W. Deem and Ramdas Pophale) SiO2 
 PCOD9518819
Probable space group: I M M M
;
_chemical_formula_sum "Si O2"
_cell_formula_units_Z 80
_cell_length_a 24.162619
_cell_length_b 25.299910
_cell_length_c 8.714557
_cell_angle_alpha 90.000000
_cell_angle_beta 90.000000
_cell_angle_gamma 90.000000
_cell_volume 5327.314019
_symmetry_space_group_name_H-M "I M M M"
_symmetry_group_IT_number 71
_symmetry_cell_setting 'orthorhombic'
loop_
_space_group_symop_operation_xyz
x,y,z
-x,-y,z
x,-y,-z
-x,y,-z
-x,-y,-z
x,y,-z
-x,y,z
x,-y,z
1/2+x,1/2+y,1/2+z
1/2-x,1/2-y,1/2+z
1/2+x,1/2-y,1/2-z
1/2-x,1/2+y,1/2-z
1/2-x,1/2-y,1/2-z
1/2+x,1/2+y,1/2-z
1/2-x,1/2+y,1/2+z
1/2+x,1/2-y,1/2+z
loop_
_atom_site_type_symbol
_atom_site_label
_atom_site_fract_x
_atom_site_fract_y
_atom_site_fract_z
Si Si1 0.163296 0.728669 0.683720
Si Si2 0.883851 0.559742 0.316233
Si Si3 0.562961 0.164087 0.316358
Si Si4 0.228667 0.170958 0.685075
Si Si5 0.740180 0.058394 0.314839
O O1 0.160786 0.724981 0.500000
O O2 0.107263 0.705769 0.752803
O O3 0.179759 0.788719 0.728136
O O4 0.214775 0.693543 0.743092
O O5 0.883597 0.564854 0.500000
O O6 0.902701 0.500000 0.277042
O O7 0.919787 0.606338 0.244943
O O8 0.821068 0.564929 0.255002
O O9 0.566352 0.163505 0.500000
O O10 0.500000 0.176117 0.270131
O O11 0.234118 0.173835 0.500000
O O12 0.224033 0.109548 0.729174
O O13 0.734881 0.058943 0.500000
O O14 0.760868 0.000000 0.269523
#
# Coordination Sequence:
#
# PCOD9518819 Si02
#       5
#    16  16  16  16  16
#     4  10  19  30  46  67  89 116 149 185 226 265
#     4  10  20  32  46  65  88 114 149 191 229 264
#     4  11  23  36  48  62  84 116 155 195 231 270
#     4   9  17  29  46  68  93 118 146 179 218 271
#     4   9  16  27  45  67  92 121 148 176 214 261
#
# _framework density 15.016947999999999
#
# number of rings (size 3 to 8) (size 9 to 14) (size 15 to 20)
#    0.000    2.200    2.000    1.800    0.000    4.000 
#    0.000    2.000    0.000    0.000    0.000    0.000 
#    0.000    0.800    0.000   10.000    0.000    1.600 
#
# Total GULP energy -222981.504964 kJ/mol
# GULP energy per Si atom -5574.537624 kJ/mol
# Density = 1.498277 g / cm^3
# Si number density = 15.016948 Si / 1000 Ang^3
#
#
#
# Elastic Constant Matrix: (Units=GPa)
#
#
# Indices 1 2 3 4 5 6 
#
# 1 83.2465 77.6414 25.1230 0.0000 0.0000 0.0000
# 2 77.6414 148.1750 35.2570 0.0000 0.0000 0.0000
# 3 25.1230 35.2570 20.7568 0.0000 0.0000 0.0000
# 4 0.0000 0.0000 0.0000 18.5032 0.0000 0.0000
# 5 0.0000 0.0000 0.0000 0.0000 16.7219 0.0000
# 6 0.0000 0.0000 0.0000 0.0000 0.0000 19.5068
#
#
#
# Elastic Compliance Matrix: (Units=1/GPa)
#
#
# Indices 1 2 3 4 5 6 
#
# 1 0.025648 -0.010158 -0.013788 0.000000 0.000000 0.000000
# 2 -0.010158 0.015350 -0.013778 0.000000 0.000000 0.000000
# 3 -0.013788 -0.013778 0.088269 0.000000 0.000000 0.000000
# 4 0.000000 0.000000 0.000000 0.054045 0.000000 0.000000
# 5 0.000000 0.000000 0.000000 0.000000 0.059802 0.000000
# 6 0.000000 0.000000 0.000000 0.000000 0.000000 0.051264
#
#
# Mechanical properties :
#
#
# Convention : Reuss Voigt Hill
#
# Bulk Modulus (GPa) = 18.58132 58.69121 38.63627
# Shear Modulus (GPa) = 12.89437 18.55684 15.72561
#
# Velocity S-wave (km/s) = 2.93346 3.51910 3.23954
# Velocity P-wave (km/s) = 4.88610 7.46192 6.30691
#
# Compressibility (1/GPa) = 0.05381748
#
# Stress axis : x y z
#
# Youngs Moduli (GPa) = 38.98923 65.14675 11.32903
#
# Poissons Ratio (x) = 0.66179 0.15621
# Poissons Ratio (y) = 0.39607 0.15609
# Poissons Ratio (z) = 0.53760 0.89759
#
# Static dielectric constant tensor:
#      x y z
#    x 1.460390 0.000000 0.000000 
#    y 0.000000 1.542000 0.000000 
#    z 0.000000 0.000000 1.501210 
# 
# From -- ./inp_files/8276.got.cif
#   From: 2010.05.17/outbox.cif.g08.bks.cpg/sg71_5_cif.got.tgz:8276.got - 2010.06.03 16:22:01.
