data_PCOD9518867
_publ_section_title
;
Structure prediction by ZEFSAII (Michael W. Deem and Ramdas Pophale) SiO2 
 PCOD9518867
Probable space group: I M M M
;
_chemical_formula_sum "Si O2"
_cell_formula_units_Z 96
_cell_length_a 28.901313
_cell_length_b 20.861887
_cell_length_c 7.384499
_cell_angle_alpha 90.000000
_cell_angle_beta 90.000000
_cell_angle_gamma 90.000000
_cell_volume 4452.379742
_symmetry_space_group_name_H-M "I M M M"
_symmetry_group_IT_number 71
_symmetry_cell_setting 'orthorhombic'
loop_
_space_group_symop_operation_xyz
x,y,z
-x,-y,z
x,-y,-z
-x,y,-z
-x,-y,-z
x,y,-z
-x,y,z
x,-y,z
1/2+x,1/2+y,1/2+z
1/2-x,1/2-y,1/2+z
1/2+x,1/2-y,1/2-z
1/2-x,1/2+y,1/2-z
1/2-x,1/2-y,1/2-z
1/2+x,1/2+y,1/2-z
1/2-x,1/2+y,1/2+z
1/2+x,1/2-y,1/2+z
loop_
_atom_site_type_symbol
_atom_site_label
_atom_site_fract_x
_atom_site_fract_y
_atom_site_fract_z
Si Si1 0.052609 0.426958 0.220283
Si Si2 0.775731 0.683350 0.216255
Si Si3 0.118926 0.687721 0.778222
Si Si4 0.398096 0.572164 0.218115
Si Si5 0.551405 0.701772 0.287294
Si Si6 0.292497 0.572964 0.220751
O O1 0.062584 0.500000 0.277071
O O2 0.089706 0.374604 0.277657
O O3 0.000000 0.410582 0.275585
O O4 0.052709 0.426815 0.000000
O O5 0.750000 0.750000 0.250000
O O6 0.828224 0.685676 0.284892
O O7 0.744101 0.625126 0.285498
O O8 0.778743 0.674633 0.000000
O O9 0.090692 0.750354 0.715860
O O10 0.120223 0.688546 0.000000
O O11 0.410046 0.500000 0.279512
O O12 0.432177 0.628645 0.271805
O O13 0.345371 0.586906 0.277618
O O14 0.397632 0.570787 0.000000
O O15 0.548212 0.716874 0.500000
O O16 0.500000 0.710953 0.210155
O O17 0.281329 0.500000 0.273957
O O18 0.292659 0.574294 0.000000
#
# Coordination Sequence:
#
# PCOD9518867 Si02
#       6
#    16  16  16  16  16  16
#     4   8  13  22  38  61  90 122 151 180 218 263
#     4  10  19  30  47  69  92 119 150 186 224 263
#     4   9  17  28  42  63  91 121 152 184 220 263
#     4   9  18  33  51  68  88 116 149 186 227 269
#     4  10  20  32  46  65  92 124 152 182 223 268
#     4   8  15  29  48  69  92 118 148 182 223 268
#
# _framework density 21.561502000000001
#
# number of rings (size 3 to 8) (size 9 to 14) (size 15 to 20)
#    0.000    3.000    0.000    3.000    0.000    3.667 
#    0.000    5.000    0.000    1.500    0.000    0.000 
#    0.000    2.000    0.000    9.167    0.000    8.333 
#
# Total GULP energy -268026.054788 kJ/mol
# GULP energy per Si atom -5583.876141 kJ/mol
# Density = 2.151243 g / cm^3
# Si number density = 21.561502 Si / 1000 Ang^3
#
#
#
# Elastic Constant Matrix: (Units=GPa)
#
#
# Indices 1 2 3 4 5 6 
#
# 1 102.7055 51.8367 -4.0771 0.0000 0.0000 0.0000
# 2 51.8367 84.6788 -11.6452 0.0000 0.0000 0.0000
# 3 -4.0771 -11.6452 73.0667 0.0000 0.0000 0.0000
# 4 0.0000 0.0000 0.0000 -1.8244 0.0000 0.0000
# 5 0.0000 0.0000 0.0000 0.0000 2.0464 0.0000
# 6 0.0000 0.0000 0.0000 0.0000 0.0000 40.2688
#
#
#
# Elastic Compliance Matrix: (Units=1/GPa)
#
#
# Indices 1 2 3 4 5 6 
#
# 1 0.014116 -0.008724 -0.000603 0.000000 0.000000 0.000000
# 2 -0.008724 0.017466 0.002297 0.000000 0.000000 0.000000
# 3 -0.000603 0.002297 0.014019 0.000000 0.000000 0.000000
# 4 0.000000 0.000000 0.000000 -0.548128 0.000000 0.000000
# 5 0.000000 0.000000 0.000000 0.000000 0.488662 0.000000
# 6 0.000000 0.000000 0.000000 0.000000 0.000000 0.024833
#
#
# Mechanical properties :
#
#
# Convention : Reuss Voigt Hill
#
# Bulk Modulus (GPa) = 31.70555 36.96441 34.33498
# Shear Modulus (GPa) = 140.68811 23.05394 81.87103
#
# Velocity S-wave (km/s) = 8.08649 3.27344 6.16874
# Velocity P-wave (km/s) = 10.09579 5.60964 8.16680
#
# Compressibility (1/GPa) = 0.03154022
#
# Stress axis : x y z
#
# Youngs Moduli (GPa) = 70.84298 57.25540 71.33398
#
# Poissons Ratio (x) = 0.49949 0.04300
# Poissons Ratio (y) = 0.61803 -0.16384
# Poissons Ratio (z) = 0.04270 -0.13151
#
# Static dielectric constant tensor:
#      x y z
#    x 1.749450 0.000000 0.000000 
#    y 0.000000 1.745010 0.000000 
#    z 0.000000 0.000000 1.894920 
# 
# From -- ./inp_files/10865.got.cif
#   From: 2010.05.17/outbox.cif.g08.bks.cpg/sg71_6_cif.got.tgz:10865.got - 2010.06.03 16:22:01.
