data_PCOD9518914
_publ_section_title
;
Structure prediction by ZEFSAII (Michael W. Deem and Ramdas Pophale) SiO2 
 PCOD9518914
Probable space group: I M M M
;
_chemical_formula_sum "Si O2"
_cell_formula_units_Z 116
_cell_length_a 31.903918
_cell_length_b 26.892556
_cell_length_c 7.878450
_cell_angle_alpha 90.000000
_cell_angle_beta 90.000000
_cell_angle_gamma 90.000000
_cell_volume 6759.535998
_symmetry_space_group_name_H-M "I M M M"
_symmetry_group_IT_number 71
_symmetry_cell_setting 'orthorhombic'
loop_
_space_group_symop_operation_xyz
x,y,z
-x,-y,z
x,-y,-z
-x,y,-z
-x,-y,-z
x,y,-z
-x,y,z
x,-y,z
1/2+x,1/2+y,1/2+z
1/2-x,1/2-y,1/2+z
1/2+x,1/2-y,1/2-z
1/2-x,1/2+y,1/2-z
1/2-x,1/2-y,1/2-z
1/2+x,1/2+y,1/2-z
1/2-x,1/2+y,1/2+z
1/2+x,1/2-y,1/2+z
loop_
_atom_site_type_symbol
_atom_site_label
_atom_site_fract_x
_atom_site_fract_y
_atom_site_fract_z
Si Si1 0.162974 0.324968 0.191136
Si Si2 0.431991 0.196151 0.299664
Si Si3 0.252010 0.857470 0.803937
Si Si4 0.951698 0.806137 0.702215
Si Si5 0.311295 0.278924 0.190692
Si Si6 0.500000 0.823964 0.000000
Si Si7 0.809169 0.943734 0.793076
Si Si8 0.875123 0.864238 0.796744
O O1 0.114730 0.322478 0.246119
O O2 0.198186 0.356179 0.288253
O O3 0.179173 0.268048 0.194356
O O4 0.163367 0.343937 0.000000
O O5 0.440811 0.183143 0.500000
O O6 0.433831 0.256446 0.289160
O O7 0.463862 0.178480 0.153585
O O8 0.231492 0.809156 0.717396
O O9 0.228647 0.907015 0.739092
O O10 0.239763 0.852553 0.000000
O O11 0.951385 0.796675 0.500000
O O12 0.922248 0.852782 0.741512
O O13 0.000000 0.812769 0.754084
O O14 0.346971 0.320190 0.219203
O O15 0.312899 0.259167 0.000000
O O16 0.852219 0.915335 0.745995
O O17 0.806281 0.000000 0.730098
O O18 0.808013 0.945840 0.000000
O O19 0.872700 0.860585 0.000000
#
# Coordination Sequence:
#
# PCOD9518914 Si02
#       8
#    16  16  16  16  16   4  16  16
#     4  11  22  33  46  67 100 134 167 203 247 293
#     4  11  22  34  50  71  99 140 179 219 255 299
#     4  10  20  32  49  71  95 125 164 203 247 303
#     4  11  20  32  47  67  95 129 168 211 259 306
#     4  11  20  30  46  64  95 131 164 201 242 295
#     4  12  22  36  52  70 100 136 192 216 256 294
#     4   8  16  33  54  74  95 122 159 207 260 313
#     4  10  19  30  48  73  95 121 164 211 257 307
#
# _framework density 17.160941999999999
#
# number of rings (size 3 to 8) (size 9 to 14) (size 15 to 20)
#    0.000    1.655    2.759    4.345    1.931    0.828 
#    0.000    0.000    0.000   15.310    0.000    2.897 
#    0.000    0.000    0.000    1.241    0.000    6.138 
#
# Total GULP energy -322896.676020 kJ/mol
# GULP energy per Si atom -5567.184069 kJ/mol
# Density = 1.712188 g / cm^3
# Si number density = 17.160942 Si / 1000 Ang^3
#
#
#
# Elastic Constant Matrix: (Units=GPa)
#
#
# Indices 1 2 3 4 5 6 
#
# 1 122.3182 19.2978 23.5614 0.0000 0.0000 0.0000
# 2 19.2978 30.4748 -5.8657 0.0000 0.0000 0.0000
# 3 23.5614 -5.8657 62.8668 0.0000 0.0000 0.0000
# 4 0.0000 0.0000 0.0000 6.5035 0.0000 0.0000
# 5 0.0000 0.0000 0.0000 0.0000 28.4040 0.0000
# 6 0.0000 0.0000 0.0000 0.0000 0.0000 3.0762
#
#
#
# Elastic Compliance Matrix: (Units=1/GPa)
#
#
# Indices 1 2 3 4 5 6 
#
# 1 0.010199 -0.007326 -0.004506 0.000000 0.000000 0.000000
# 2 -0.007326 0.038676 0.006354 0.000000 0.000000 0.000000
# 3 -0.004506 0.006354 0.018188 0.000000 0.000000 0.000000
# 4 0.000000 0.000000 0.000000 0.153764 0.000000 0.000000
# 5 0.000000 0.000000 0.000000 0.000000 0.035206 0.000000
# 6 0.000000 0.000000 0.000000 0.000000 0.000000 0.325076
#
#
# Mechanical properties :
#
#
# Convention : Reuss Voigt Hill
#
# Bulk Modulus (GPa) = 17.82265 32.18297 25.00281
# Shear Modulus (GPa) = 8.18641 19.50783 13.84712
#
# Velocity S-wave (km/s) = 2.18649 3.37524 2.84368
# Velocity P-wave (km/s) = 4.09664 5.82958 5.03818
#
# Compressibility (1/GPa) = 0.05610837
#
# Stress axis : x y z
#
# Youngs Moduli (GPa) = 98.04766 25.85579 54.98041
#
# Poissons Ratio (x) = 0.18941 0.24774
# Poissons Ratio (y) = 0.71828 -0.34936
# Poissons Ratio (z) = 0.44180 -0.16429
#
# Static dielectric constant tensor:
#      x y z
#    x 1.623560 0.000000 0.000000 
#    y 0.000000 1.556170 0.000000 
#    z 0.000000 0.000000 1.620410 
# 
# From -- ./inp_files/17524.got.cif
#   From: 2010.05.17/outbox.cif.g08.bks.cpg/sg71_9_cif.got.tgz:17524.got - 2010.06.03 16:22:01.
