data_PCOD9518264
_publ_section_title
;
Structure prediction by ZEFSAII (Michael W. Deem and Ramdas Pophale) SiO2 
 PCOD9518264
Probable space group: I M M M
;
_chemical_formula_sum "Si O2"
_cell_formula_units_Z 80
_cell_length_a 7.798885
_cell_length_b 20.722297
_cell_length_c 22.714210
_cell_angle_alpha 90.000000
_cell_angle_beta 90.000000
_cell_angle_gamma 90.000000
_cell_volume 3670.861905
_symmetry_space_group_name_H-M "I M M M"
_symmetry_group_IT_number 71
_symmetry_cell_setting 'orthorhombic'
loop_
_space_group_symop_operation_xyz
x,y,z
-x,-y,z
x,-y,-z
-x,y,-z
-x,-y,-z
x,y,-z
-x,y,z
x,-y,z
1/2+x,1/2+y,1/2+z
1/2-x,1/2-y,1/2+z
1/2+x,1/2-y,1/2-z
1/2-x,1/2+y,1/2-z
1/2-x,1/2-y,1/2-z
1/2+x,1/2+y,1/2-z
1/2-x,1/2+y,1/2+z
1/2+x,1/2-y,1/2+z
loop_
_atom_site_type_symbol
_atom_site_label
_atom_site_fract_x
_atom_site_fract_y
_atom_site_fract_z
Si Si1 0.806219 0.826137 0.250707
Si Si2 0.204906 0.295632 0.933443
Si Si3 0.500000 0.077344 0.254672
Si Si4 0.807187 0.160055 0.888258
Si Si5 0.000000 0.573292 0.389541
Si Si6 0.294640 0.431971 0.931312
O O1 0.750000 0.750000 0.250000
O O2 0.664699 0.878162 0.273031
O O3 0.819816 0.844319 0.181855
O O4 0.000000 0.831347 0.276263
O O5 0.261978 0.231761 0.901087
O O6 0.245811 0.363899 0.904712
O O7 0.000000 0.292404 0.936335
O O8 0.275079 0.294997 0.000000
O O9 0.500000 0.076222 0.182569
O O10 0.500000 0.000000 0.271623
O O11 0.670254 0.109326 0.910482
O O12 0.000000 0.152747 0.912829
O O13 0.000000 0.500000 0.407721
O O14 0.500000 0.433754 0.932518
O O15 0.232647 0.500000 0.905346
O O16 0.234858 0.430608 0.000000
#
# Coordination Sequence:
#
# PCOD9518264 Si02
#       6
#    16  16   8  16   8  16
#     4  10  18  31  52  76 102 132 166 203 249 297
#     4   9  17  29  45  66  92 123 159 198 241 284
#     4   9  18  32  50  77 107 130 163 210 250 292
#     4   9  19  32  48  74 101 125 160 200 243 287
#     4   9  18  32  51  74  98 126 160 199 245 293
#     4   8  14  24  38  59  86 115 150 192 235 274
#
# _framework density 21.793247000000001
#
# number of rings (size 3 to 8) (size 9 to 14) (size 15 to 20)
#    0.000    3.000    1.000    0.600    1.400    1.200 
#    0.000    6.000    0.000    2.400    0.000    2.800 
#    0.000    0.000    0.000    0.000    0.000    0.000 
#
# Total GULP energy -222866.471285 kJ/mol
# GULP energy per Si atom -5571.661782 kJ/mol
# Density = 2.174364 g / cm^3
# Si number density = 21.793247 Si / 1000 Ang^3
#
#
#
# Elastic Constant Matrix: (Units=GPa)
#
#
# Indices 1 2 3 4 5 6 
#
# 1 132.6375 105.1040 5.7403 0.0000 0.0000 0.0000
# 2 105.1040 230.3032 11.1199 0.0000 0.0000 0.0000
# 3 5.7403 11.1199 33.1467 0.0000 0.0000 0.0000
# 4 0.0000 0.0000 0.0000 18.7222 0.0000 0.0000
# 5 0.0000 0.0000 0.0000 0.0000 4.6082 0.0000
# 6 0.0000 0.0000 0.0000 0.0000 0.0000 53.5563
#
#
#
# Elastic Compliance Matrix: (Units=1/GPa)
#
#
# Indices 1 2 3 4 5 6 
#
# 1 0.011812 -0.005379 -0.000241 0.000000 0.000000 0.000000
# 2 -0.005379 0.006863 -0.001371 0.000000 0.000000 0.000000
# 3 -0.000241 -0.001371 0.030671 0.000000 0.000000 0.000000
# 4 0.000000 0.000000 0.000000 0.053413 0.000000 0.000000
# 5 0.000000 0.000000 0.000000 0.000000 0.217003 0.000000
# 6 0.000000 0.000000 0.000000 0.000000 0.000000 0.018672
#
#
# Mechanical properties :
#
#
# Convention : Reuss Voigt Hill
#
# Bulk Modulus (GPa) = 28.27748 71.11288 49.69518
# Shear Modulus (GPa) = 13.72860 33.65222 23.69041
#
# Velocity S-wave (km/s) = 2.51260 3.93384 3.30063
# Velocity P-wave (km/s) = 4.62829 7.30308 6.11376
#
# Compressibility (1/GPa) = 0.03536383
#
# Stress axis : x y z
#
# Youngs Moduli (GPa) = 84.65734 145.70454 32.60460
#
# Poissons Ratio (x) = 0.78377 0.00786
# Poissons Ratio (y) = 0.45539 0.04470
# Poissons Ratio (z) = 0.02041 0.19974
#
# Static dielectric constant tensor:
#      x y z
#    x 1.820680 0.000000 0.000000 
#    y 0.000000 1.806470 0.000000 
#    z 0.000000 0.000000 1.839940 
# 
# From -- ./inp_files/67962.got.cif
#   From: 2010.05.17/outbox.cif.g08.bks.cpg/sg71_34_cif.got.tgz:67962.got - 2010.06.03 16:22:01.
