data_PCOD9518972
_publ_section_title
;
Structure prediction by ZEFSAII (Michael W. Deem and Ramdas Pophale) SiO2 
 PCOD9518972
Probable space group: I M M M
;
_chemical_formula_sum "Si O2"
_cell_formula_units_Z 104
_cell_length_a 13.640214
_cell_length_b 27.455691
_cell_length_c 17.610705
_cell_angle_alpha 90.000000
_cell_angle_beta 90.000000
_cell_angle_gamma 90.000000
_cell_volume 6595.235452
_symmetry_space_group_name_H-M "I M M M"
_symmetry_group_IT_number 71
_symmetry_cell_setting 'orthorhombic'
loop_
_space_group_symop_operation_xyz
x,y,z
-x,-y,z
x,-y,-z
-x,y,-z
-x,-y,-z
x,y,-z
-x,y,z
x,-y,z
1/2+x,1/2+y,1/2+z
1/2-x,1/2-y,1/2+z
1/2+x,1/2-y,1/2-z
1/2-x,1/2+y,1/2-z
1/2-x,1/2-y,1/2-z
1/2+x,1/2+y,1/2-z
1/2-x,1/2+y,1/2+z
1/2+x,1/2-y,1/2+z
loop_
_atom_site_type_symbol
_atom_site_label
_atom_site_fract_x
_atom_site_fract_y
_atom_site_fract_z
Si Si1 0.275047 0.694225 0.654699
Si Si2 0.881413 0.137586 0.585563
Si Si3 0.883780 0.500000 0.408844
Si Si4 0.889810 0.920832 0.000000
Si Si5 0.385580 0.556178 0.795824
Si Si6 0.886811 0.802675 0.000000
Si Si7 0.116763 0.226684 0.694352
Si Si8 0.237094 0.078342 0.146008
O O1 0.327482 0.710454 0.576349
O O2 0.178566 0.725339 0.674340
O O3 0.348735 0.704844 0.724731
O O4 0.251030 0.636843 0.647711
O O5 0.842802 0.136600 0.500000
O O6 0.852746 0.091728 0.636915
O O7 0.856996 0.186479 0.630954
O O8 0.000000 0.136099 0.581372
O O9 0.864069 0.500000 0.500000
O O10 0.834227 0.452703 0.370310
O O11 0.000000 0.500000 0.398736
O O12 0.833191 0.935161 0.924369
O O13 0.892192 0.861736 0.000000
O O14 0.000000 0.939180 0.000000
O O15 0.500000 0.568032 0.776632
O O16 0.382460 0.500000 0.819510
O O17 0.317751 0.563749 0.722988
O O18 0.000000 0.785040 0.000000
O O19 0.000000 0.234504 0.694358
#
# Coordination Sequence:
#
# PCOD9518972 Si02
#       8
#    16  16   8   8  16   8  16  16
#     4  10  21  33  54  79 103 138 179 220 266 316
#     4   9  18  32  50  73 105 141 166 197 252 314
#     4  11  24  40  54  70 101 146 187 223 260 295
#     4   9  18  29  48  75 102 132 164 211 263 313
#     4  10  19  30  50  79 108 134 162 207 261 314
#     4   9  18  32  50  74 105 138 174 215 265 316
#     4  10  20  35  53  77 108 140 175 218 263 313
#     4  11  19  35  52  73 103 135 179 217 256 310
#
# _framework density 15.76896
#
# number of rings (size 3 to 8) (size 9 to 14) (size 15 to 20)
#    0.000    2.077    3.077    0.923    1.077    2.154 
#    0.000    1.923    0.000    0.000    0.000    0.000 
#    0.000    0.615    0.000    0.000    0.000    0.000 
#
# Total GULP energy -289929.259444 kJ/mol
# GULP energy per Si atom -5575.562682 kJ/mol
# Density = 1.573307 g / cm^3
# Si number density = 15.768960 Si / 1000 Ang^3
#
#
#
# Elastic Constant Matrix: (Units=GPa)
#
#
# Indices 1 2 3 4 5 6 
#
# 1 94.0860 50.3156 51.5080 0.0000 0.0000 0.0000
# 2 50.3156 91.6959 42.9791 0.0000 0.0000 0.0000
# 3 51.5080 42.9791 127.4116 -0.0001 0.0000 0.0000
# 4 0.0000 0.0000 -0.0001 13.3927 0.0000 0.0000
# 5 0.0000 0.0000 0.0000 0.0000 15.7039 0.0000
# 6 0.0000 0.0000 0.0000 0.0000 0.0000 15.9865
#
#
#
# Elastic Compliance Matrix: (Units=1/GPa)
#
#
# Indices 1 2 3 4 5 6 
#
# 1 0.016890 -0.007207 -0.004397 0.000000 0.000000 0.000000
# 2 -0.007207 0.016029 -0.002493 0.000000 0.000000 0.000000
# 3 -0.004397 -0.002493 0.010467 0.000000 0.000000 0.000000
# 4 0.000000 0.000000 0.000000 0.074668 0.000000 0.000000
# 5 0.000000 0.000000 0.000000 0.000000 0.063679 0.000000
# 6 0.000000 0.000000 0.000000 0.000000 0.000000 0.062553
#
#
# Mechanical properties :
#
#
# Convention : Reuss Voigt Hill
#
# Bulk Modulus (GPa) = 65.82672 66.97768 66.40220
# Shear Modulus (GPa) = 18.01520 20.24266 19.12893
#
# Velocity S-wave (km/s) = 3.38368 3.58677 3.48670
# Velocity P-wave (km/s) = 7.55651 7.72786 7.64266
#
# Compressibility (1/GPa) = 0.01519140
#
# Stress axis : x y z
#
# Youngs Moduli (GPa) = 59.20729 62.38720 95.53672
#
# Poissons Ratio (x) = 0.44962 0.42006
# Poissons Ratio (y) = 0.42670 0.23822
# Poissons Ratio (z) = 0.26033 0.15556
#
# Static dielectric constant tensor:
#      x y z
#    x 1.504530 0.000000 0.000000 
#    y 0.000000 1.531850 0.000000 
#    z 0.000000 0.000000 1.520160 
# 
# From -- ./inp_files/43840.got.cif
#   From: 2010.05.17/outbox.cif.g08.bks.cpg/sg71_22_cif.got.tgz:43840.got - 2010.06.03 16:22:01.
