data_PCOD9518808
_publ_section_title
;
Structure prediction by ZEFSAII (Michael W. Deem and Ramdas Pophale) SiO2 
 PCOD9518808
Probable space group: I M M M
;
_chemical_formula_sum "Si O2"
_cell_formula_units_Z 104
_cell_length_a 25.307558
_cell_length_b 8.253188
_cell_length_c 23.689346
_cell_angle_alpha 90.000000
_cell_angle_beta 90.000000
_cell_angle_gamma 90.000000
_cell_volume 4947.947126
_symmetry_space_group_name_H-M "I M M M"
_symmetry_group_IT_number 71
_symmetry_cell_setting 'orthorhombic'
loop_
_space_group_symop_operation_xyz
x,y,z
-x,-y,z
x,-y,-z
-x,y,-z
-x,-y,-z
x,y,-z
-x,y,z
x,-y,z
1/2+x,1/2+y,1/2+z
1/2-x,1/2-y,1/2+z
1/2+x,1/2-y,1/2-z
1/2-x,1/2+y,1/2-z
1/2-x,1/2-y,1/2-z
1/2+x,1/2+y,1/2-z
1/2-x,1/2+y,1/2+z
1/2+x,1/2-y,1/2+z
loop_
_atom_site_type_symbol
_atom_site_label
_atom_site_fract_x
_atom_site_fract_y
_atom_site_fract_z
Si Si1 0.721670 0.695779 0.062595
Si Si2 0.438836 0.801939 0.000000
Si Si3 0.382328 0.807107 0.114150
Si Si4 0.167079 0.314423 0.101231
Si Si5 0.798685 0.815726 0.784160
Si Si6 0.942114 0.694769 0.144973
Si Si7 0.412560 0.317174 0.767712
O O1 0.724041 0.500000 0.065324
O O2 0.678803 0.750753 0.108581
O O3 0.782149 0.756956 0.069180
O O4 0.702929 0.744876 0.000000
O O5 0.410832 0.745174 0.942631
O O6 0.500000 0.755550 0.000000
O O7 0.436412 0.000000 0.000000
O O8 0.414398 0.756845 0.170050
O O9 0.381417 0.000000 0.113144
O O10 0.160675 0.500000 0.081528
O O11 0.188239 0.304950 0.165177
O O12 0.108265 0.240572 0.109124
O O13 0.750000 0.750000 0.750000
O O14 0.850073 0.820551 0.745237
O O15 0.789865 0.000000 0.805361
O O16 0.940474 0.500000 0.139565
O O17 0.935743 0.732599 0.211786
O O18 0.000000 0.753119 0.126611
O O19 0.433083 0.500000 0.768731
#
# Coordination Sequence:
#
# PCOD9518808 Si02
#       7
#    16   8  16  16  16  16  16
#     4  10  20  34  53  76 106 141 174 215 268 321
#     4   9  20  38  55  71  95 129 170 215 258 298
#     4  11  21  35  55  78 102 133 176 221 263 306
#     4   9  18  32  50  73 100 133 172 211 257 314
#     4  10  19  30  45  68  99 132 163 200 249 305
#     4   9  18  34  55  77 102 135 176 218 259 308
#     4  10  21  34  49  73 104 134 166 206 255 311
#
# _framework density 21.018818
#
# number of rings (size 3 to 8) (size 9 to 14) (size 15 to 20)
#    0.000    2.231    0.769    2.308    0.000    7.077 
#    0.000    1.538    0.000    3.692    0.000    3.231 
#    0.000    0.000    0.000    9.077    0.000    9.538 
#
# Total GULP energy -289799.725764 kJ/mol
# GULP energy per Si atom -5573.071649 kJ/mol
# Density = 2.097098 g / cm^3
# Si number density = 21.018818 Si / 1000 Ang^3
#
#
#
# Elastic Constant Matrix: (Units=GPa)
#
#
# Indices 1 2 3 4 5 6 
#
# 1 114.5875 -0.4707 -5.9629 0.0000 0.0000 0.0000
# 2 -0.4707 28.7128 -1.0766 0.0000 0.0000 0.0000
# 3 -5.9629 -1.0766 36.2478 0.0000 0.0000 0.0000
# 4 0.0000 0.0000 0.0000 7.1146 0.0000 0.0000
# 5 0.0000 0.0000 0.0000 0.0000 21.1028 0.0000
# 6 0.0000 0.0000 0.0000 0.0000 0.0000 13.5690
#
#
#
# Elastic Compliance Matrix: (Units=1/GPa)
#
#
# Indices 1 2 3 4 5 6 
#
# 1 0.008803 0.000199 0.001454 0.000000 0.000000 0.000000
# 2 0.000199 0.034871 0.001068 0.000000 0.000000 0.000000
# 3 0.001454 0.001068 0.027859 0.000000 0.000000 0.000000
# 4 0.000000 0.000000 0.000000 0.140556 0.000000 0.000000
# 5 0.000000 0.000000 0.000000 0.000000 0.047387 0.000000
# 6 0.000000 0.000000 0.000000 0.000000 0.000000 0.073697
#
#
# Mechanical properties :
#
#
# Convention : Reuss Voigt Hill
#
# Bulk Modulus (GPa) = 12.99105 18.28086 15.63595
# Shear Modulus (GPa) = 14.14870 20.82785 17.48827
#
# Velocity S-wave (km/s) = 2.59732 3.15129 2.88762
# Velocity P-wave (km/s) = 3.89729 4.68584 4.30964
#
# Compressibility (1/GPa) = 0.07697608
#
# Stress axis : x y z
#
# Youngs Moduli (GPa) = 113.59196 28.67711 35.89525
#
# Poissons Ratio (x) = -0.00570 -0.05220
# Poissons Ratio (y) = -0.02259 -0.03835
# Poissons Ratio (z) = -0.16517 -0.03064
#
# Static dielectric constant tensor:
#      x y z
#    x 1.806490 0.000000 0.000000 
#    y 0.000000 1.761780 0.000000 
#    z 0.000000 0.000000 1.773600 
# 
# From -- ./inp_files/56209.got.cif
#   From: 2010.05.17/outbox.cif.g08.bks.cpg/sg71_29_cif.got.tgz:56209.got - 2010.06.03 16:22:01.
