data_PCOD9518154
_publ_section_title
;
Structure prediction by ZEFSAII (Michael W. Deem and Ramdas Pophale) SiO2 
 PCOD9518154
Probable space group: I M M M
;
_chemical_formula_sum "Si O2"
_cell_formula_units_Z 88
_cell_length_a 17.719698
_cell_length_b 14.224241
_cell_length_c 21.220201
_cell_angle_alpha 90.000000
_cell_angle_beta 90.000000
_cell_angle_gamma 90.000000
_cell_volume 5348.535849
_symmetry_space_group_name_H-M "I M M M"
_symmetry_group_IT_number 71
_symmetry_cell_setting 'orthorhombic'
loop_
_space_group_symop_operation_xyz
x,y,z
-x,-y,z
x,-y,-z
-x,y,-z
-x,-y,-z
x,y,-z
-x,y,z
x,-y,z
1/2+x,1/2+y,1/2+z
1/2-x,1/2-y,1/2+z
1/2+x,1/2-y,1/2-z
1/2-x,1/2+y,1/2-z
1/2-x,1/2-y,1/2-z
1/2+x,1/2+y,1/2-z
1/2-x,1/2+y,1/2+z
1/2+x,1/2-y,1/2+z
loop_
_atom_site_type_symbol
_atom_site_label
_atom_site_fract_x
_atom_site_fract_y
_atom_site_fract_z
Si Si1 0.362285 0.393367 0.193618
Si Si2 0.227019 0.391143 0.706602
Si Si3 0.833114 0.774789 0.885514
Si Si4 0.083578 0.283921 0.239481
Si Si5 0.590680 0.387581 0.500000
Si Si6 0.728605 0.607983 0.927935
O O1 0.390506 0.500000 0.201126
O O2 0.284570 0.385709 0.234124
O O3 0.414534 0.313876 0.222116
O O4 0.338301 0.376206 0.121848
O O5 0.218938 0.500000 0.689113
O O6 0.267987 0.333251 0.651293
O O7 0.148385 0.347191 0.728861
O O8 0.890969 0.741436 0.831442
O O9 0.872857 0.838285 0.938509
O O10 0.793715 0.683294 0.915061
O O11 0.000000 0.325313 0.240894
O O12 0.605263 0.500000 0.500000
O O13 0.500000 0.374192 0.500000
O O14 0.754819 0.500000 0.917445
O O15 0.703485 0.616284 0.000000
#
# Coordination Sequence:
#
# PCOD9518154 Si02
#       6
#    16  16  16  16   8  16
#     4   9  17  33  53  73 101 132 170 220 264 310
#     4  10  19  33  53  75 101 138 184 223 257 307
#     4  11  19  36  55  77 105 143 182 215 256 314
#     4  11  21  32  50  78 108 138 173 217 271 317
#     4  11  24  38  53  79 114 146 176 217 267 313
#     4  10  18  30  55  83 102 128 173 218 257 307
#
# _framework density 16.453102000000001
#
# number of rings (size 3 to 8) (size 9 to 14) (size 15 to 20)
#    0.000    1.727    4.545    2.182    0.000    1.455 
#    0.000    0.000    0.000    2.727    0.000    2.545 
#    0.000    3.636    0.000    0.000    0.000    0.000 
#
# Total GULP energy -245423.466483 kJ/mol
# GULP energy per Si atom -5577.806056 kJ/mol
# Density = 1.641565 g / cm^3
# Si number density = 16.453102 Si / 1000 Ang^3
#
#
#
# Elastic Constant Matrix: (Units=GPa)
#
#
# Indices 1 2 3 4 5 6 
#
# 1 75.5192 12.2481 23.1476 0.0000 0.0000 0.0000
# 2 12.2481 45.5927 23.9434 0.0000 0.0000 0.0000
# 3 23.1476 23.9434 105.5923 0.0000 0.0000 0.0000
# 4 0.0000 0.0000 0.0000 27.4799 0.0000 0.0000
# 5 0.0000 0.0000 0.0000 0.0000 7.2304 0.0000
# 6 0.0000 0.0000 0.0000 0.0000 0.0000 15.8422
#
#
#
# Elastic Compliance Matrix: (Units=1/GPa)
#
#
# Indices 1 2 3 4 5 6 
#
# 1 0.014446 -0.002517 -0.002596 0.000000 0.000000 0.000000
# 2 -0.002517 0.025337 -0.005193 0.000000 0.000000 0.000000
# 3 -0.002596 -0.005193 0.011217 0.000000 0.000000 0.000000
# 4 0.000000 0.000000 0.000000 0.036390 0.000000 0.000000
# 5 0.000000 0.000000 0.000000 0.000000 0.138305 0.000000
# 6 0.000000 0.000000 0.000000 0.000000 0.000000 0.063123
#
#
# Mechanical properties :
#
#
# Convention : Reuss Voigt Hill
#
# Bulk Modulus (GPa) = 32.90960 38.37581 35.64271
# Shear Modulus (GPa) = 15.64654 21.26817 18.45736
#
# Velocity S-wave (km/s) = 3.08714 3.59925 3.35299
# Velocity P-wave (km/s) = 5.72300 6.37556 6.05807
#
# Compressibility (1/GPa) = 0.03038627
#
# Stress axis : x y z
#
# Youngs Moduli (GPa) = 69.22509 39.46802 89.14994
#
# Poissons Ratio (x) = 0.09936 0.23142
# Poissons Ratio (y) = 0.17427 0.46299
# Poissons Ratio (z) = 0.17970 0.20497
#
# Static dielectric constant tensor:
#      x y z
#    x 1.534460 0.000000 0.000000 
#    y 0.000000 1.567280 0.000000 
#    z 0.000000 0.000000 1.550790 
# 
# From -- ./inp_files/36567.got.cif
#   From: 2010.05.17/outbox.cif.g08.bks.cpg/sg71_19_cif.got.tgz:36567.got - 2010.06.03 16:22:01.
