data_PCOD9518018
_publ_section_title
;
Structure prediction by ZEFSAII (Michael W. Deem and Ramdas Pophale) SiO2 
 PCOD9518018
Probable space group: I M M M
;
_chemical_formula_sum "Si O2"
_cell_formula_units_Z 96
_cell_length_a 10.715859
_cell_length_b 19.920573
_cell_length_c 26.670235
_cell_angle_alpha 90.000000
_cell_angle_beta 90.000000
_cell_angle_gamma 90.000000
_cell_volume 5693.189757
_symmetry_space_group_name_H-M "I M M M"
_symmetry_group_IT_number 71
_symmetry_cell_setting 'orthorhombic'
loop_
_space_group_symop_operation_xyz
x,y,z
-x,-y,z
x,-y,-z
-x,y,-z
-x,-y,-z
x,y,-z
-x,y,z
x,-y,z
1/2+x,1/2+y,1/2+z
1/2-x,1/2-y,1/2+z
1/2+x,1/2-y,1/2-z
1/2-x,1/2+y,1/2-z
1/2-x,1/2-y,1/2-z
1/2+x,1/2+y,1/2-z
1/2-x,1/2+y,1/2+z
1/2+x,1/2-y,1/2+z
loop_
_atom_site_type_symbol
_atom_site_label
_atom_site_fract_x
_atom_site_fract_y
_atom_site_fract_z
Si Si1 0.214960 0.075554 0.728635
Si Si2 0.350860 0.073341 0.376555
Si Si3 0.645151 0.210887 0.110119
Si Si4 0.146498 0.703539 0.940565
Si Si5 0.866023 0.777782 0.281113
Si Si6 0.851743 0.574762 0.335232
O O1 0.305866 0.079817 0.680612
O O2 0.133343 0.141922 0.723103
O O3 0.285311 0.082253 0.781659
O O4 0.158969 0.000000 0.727475
O O5 0.500000 0.072445 0.376948
O O6 0.314676 0.136138 0.410695
O O7 0.305957 0.000000 0.395027
O O8 0.500000 0.212969 0.091736
O O9 0.752169 0.240597 0.074737
O O10 0.647494 0.254005 0.161660
O O11 0.677492 0.135185 0.127296
O O12 0.000000 0.719352 0.927557
O O13 0.150149 0.691968 0.000000
O O14 0.750000 0.750000 0.250000
O O15 0.000000 0.750879 0.262511
O O16 0.822241 0.500000 0.354689
O O17 0.000000 0.578435 0.326224
#
# Coordination Sequence:
#
# PCOD9518018 Si02
#       6
#    16  16  16  16  16  16
#     4  10  18  30  48  73 108 147 176 205 245 300
#     4   9  17  29  48  75 105 139 177 214 253 298
#     4  10  20  35  54  77 103 135 174 213 259 308
#     4  10  21  36  55  78 102 131 171 221 273 316
#     4  11  22  34  50  76 107 141 180 216 253 301
#     4   9  17  30  50  77 108 138 170 208 248 299
#
# _framework density 16.862251000000001
#
# number of rings (size 3 to 8) (size 9 to 14) (size 15 to 20)
#    0.000    2.167    3.333    0.500    0.000    4.333 
#    0.000    1.667    0.000    1.500    0.000    4.667 
#    0.000    0.000    0.000    0.000    0.000    0.000 
#
# Total GULP energy -267309.975753 kJ/mol
# GULP energy per Si atom -5568.957828 kJ/mol
# Density = 1.682387 g / cm^3
# Si number density = 16.862251 Si / 1000 Ang^3
#
#
#
# Elastic Constant Matrix: (Units=GPa)
#
#
# Indices 1 2 3 4 5 6 
#
# 1 54.4765 39.3057 24.7170 0.0000 0.0000 0.0000
# 2 39.3057 120.0785 26.0221 0.0000 0.0000 0.0000
# 3 24.7170 26.0221 36.9450 0.0000 0.0000 0.0000
# 4 0.0000 0.0000 0.0000 15.6491 0.0000 0.0000
# 5 0.0000 0.0000 0.0000 0.0000 20.4976 0.0000
# 6 0.0000 0.0000 0.0000 0.0000 0.0000 -3.3446
#
#
#
# Elastic Compliance Matrix: (Units=1/GPa)
#
#
# Indices 1 2 3 4 5 6 
#
# 1 0.030095 -0.006476 -0.015573 0.000000 0.000000 0.000000
# 2 -0.006476 0.011222 -0.003571 0.000000 0.000000 0.000000
# 3 -0.015573 -0.003571 0.040001 0.000000 0.000000 0.000000
# 4 0.000000 0.000000 0.000000 0.063901 0.000000 0.000000
# 5 0.000000 0.000000 0.000000 0.000000 0.048786 0.000000
# 6 0.000000 0.000000 0.000000 0.000000 0.000000 -0.298993
#
#
# Mechanical properties :
#
#
# Convention : Reuss Voigt Hill
#
# Bulk Modulus (GPa) = 33.24749 43.50996 38.37872
# Shear Modulus (GPa) = -114.35973 14.65743 -49.85115
#
# Velocity S-wave (km/s) = -8.24422 2.95149 -5.44316
# Velocity P-wave (km/s) = 8.41802 6.12162 4.08587
#
# Compressibility (1/GPa) = 0.03007746
#
# Stress axis : x y z
#
# Youngs Moduli (GPa) = 33.22824 89.11288 24.99940
#
# Poissons Ratio (x) = 0.57713 0.38930
# Poissons Ratio (y) = 0.21520 0.08928
# Poissons Ratio (z) = 0.51745 0.31824
#
# Static dielectric constant tensor:
#      x y z
#    x 1.579510 0.000000 0.000000 
#    y 0.000000 1.624360 0.000000 
#    z 0.000000 0.000000 1.527520 
# 
# From -- ./inp_files/24222.got.cif
#   From: 2010.05.17/outbox.cif.g08.bks.cpg/sg71_13_cif.got.tgz:24222.got - 2010.06.03 16:22:01.
