data_PCOD9518280
_publ_section_title
;
Structure prediction by ZEFSAII (Michael W. Deem and Ramdas Pophale) SiO2 
 PCOD9518280
Probable space group: I M M M
;
_chemical_formula_sum "Si O2"
_cell_formula_units_Z 72
_cell_length_a 7.905435
_cell_length_b 15.286430
_cell_length_c 27.876371
_cell_angle_alpha 90.000000
_cell_angle_beta 90.000000
_cell_angle_gamma 90.000000
_cell_volume 3368.744550
_symmetry_space_group_name_H-M "I M M M"
_symmetry_group_IT_number 71
_symmetry_cell_setting 'orthorhombic'
loop_
_space_group_symop_operation_xyz
x,y,z
-x,-y,z
x,-y,-z
-x,y,-z
-x,-y,-z
x,y,-z
-x,y,z
x,-y,z
1/2+x,1/2+y,1/2+z
1/2-x,1/2-y,1/2+z
1/2+x,1/2-y,1/2-z
1/2-x,1/2+y,1/2-z
1/2-x,1/2-y,1/2-z
1/2+x,1/2+y,1/2-z
1/2-x,1/2+y,1/2+z
1/2+x,1/2-y,1/2+z
loop_
_atom_site_type_symbol
_atom_site_label
_atom_site_fract_x
_atom_site_fract_y
_atom_site_fract_z
Si Si1 0.706511 0.593065 0.668141
Si Si2 0.703019 0.401897 0.126241
Si Si3 0.798799 0.777439 0.910631
Si Si4 0.796507 0.846129 0.731565
Si Si5 0.798430 0.399284 0.500000
O O1 0.500000 0.596775 0.667966
O O2 0.756072 0.500000 0.645979
O O3 0.769840 0.674309 0.637193
O O4 0.760715 0.596440 0.723256
O O5 0.500000 0.406563 0.129432
O O6 0.764506 0.500000 0.114399
O O7 0.741324 0.323018 0.089801
O O8 0.768982 0.373371 0.179271
O O9 0.753484 0.841054 0.954271
O O10 0.000000 0.774871 0.907632
O O11 0.750000 0.750000 0.750000
O O12 0.000000 0.852358 0.728869
O O13 0.730993 0.500000 0.500000
O O14 0.000000 0.405468 0.500000
#
# Coordination Sequence:
#
# PCOD9518280 Si02
#       5
#    16  16  16  16   8
#     4   9  17  30  51  80 113 150 191 234 283 339
#     4  10  21  37  58  84 119 164 207 247 295 351
#     4  11  22  38  62  90 119 152 194 246 298 353
#     4  10  18  31  52  79 115 157 201 243 287 340
#     4  11  25  45  68  93 122 153 185 232 296 361
#
# _framework density 21.372948000000001
#
# number of rings (size 3 to 8) (size 9 to 14) (size 15 to 20)
#    0.000    1.889    2.222    2.333    0.000    4.889 
#    0.000    0.556    0.000    6.667    0.000    0.000 
#    0.000    0.000    0.000    0.000    0.000    0.000 
#
# Total GULP energy -200841.193415 kJ/mol
# GULP energy per Si atom -5578.922039 kJ/mol
# Density = 2.132430 g / cm^3
# Si number density = 21.372948 Si / 1000 Ang^3
#
#
#
# Elastic Constant Matrix: (Units=GPa)
#
#
# Indices 1 2 3 4 5 6 
#
# 1 29.7425 12.3928 5.1461 0.0000 0.0000 0.0000
# 2 12.3928 219.0147 62.8502 0.0000 0.0000 0.0000
# 3 5.1461 62.8502 79.9269 0.0000 0.0000 0.0000
# 4 0.0000 0.0000 0.0000 29.8979 0.0000 0.0000
# 5 0.0000 0.0000 0.0000 0.0000 11.0578 0.0000
# 6 0.0000 0.0000 0.0000 0.0000 0.0000 20.4859
#
#
#
# Elastic Compliance Matrix: (Units=1/GPa)
#
#
# Indices 1 2 3 4 5 6 
#
# 1 0.034482 -0.001697 -0.000886 0.000000 0.000000 0.000000
# 2 -0.001697 0.005980 -0.004593 0.000000 0.000000 0.000000
# 3 -0.000886 -0.004593 0.016180 0.000000 0.000000 0.000000
# 4 0.000000 0.000000 0.000000 0.033447 0.000000 0.000000
# 5 0.000000 0.000000 0.000000 0.000000 0.090434 0.000000
# 6 0.000000 0.000000 0.000000 0.000000 0.000000 0.048814
#
#
# Mechanical properties :
#
#
# Convention : Reuss Voigt Hill
#
# Bulk Modulus (GPa) = 23.64578 54.38472 39.01525
# Shear Modulus (GPa) = 19.39589 28.84130 24.11860
#
# Velocity S-wave (km/s) = 3.01574 3.67744 3.36291
# Velocity P-wave (km/s) = 4.81806 6.59790 5.77694
#
# Compressibility (1/GPa) = 0.04229084
#
# Stress axis : x y z
#
# Youngs Moduli (GPa) = 29.00047 167.22415 61.80381
#
# Poissons Ratio (x) = 0.28378 0.05474
# Poissons Ratio (y) = 0.04921 0.28387
# Poissons Ratio (z) = 0.02569 0.76808
#
# Static dielectric constant tensor:
#      x y z
#    x 1.767300 0.000000 0.000000 
#    y 0.000000 1.838790 0.000000 
#    z 0.000000 0.000000 1.798880 
# 
# From -- ./inp_files/6001.got.cif
#   From: 2010.05.17/outbox.cif.g08.bks.cpg/sg71_4_cif.got.tgz:6001.got - 2010.06.03 16:22:01.
