data_PCOD9518612
_publ_section_title
;
Structure prediction by ZEFSAII (Michael W. Deem and Ramdas Pophale) SiO2 
 PCOD9518612
Probable space group: I M M M
;
_chemical_formula_sum "Si O2"
_cell_formula_units_Z 80
_cell_length_a 7.474722
_cell_length_b 25.527164
_cell_length_c 24.114453
_cell_angle_alpha 90.000000
_cell_angle_beta 90.000000
_cell_angle_gamma 90.000000
_cell_volume 4601.241504
_symmetry_space_group_name_H-M "I M M M"
_symmetry_group_IT_number 71
_symmetry_cell_setting 'orthorhombic'
loop_
_space_group_symop_operation_xyz
x,y,z
-x,-y,z
x,-y,-z
-x,y,-z
-x,-y,-z
x,y,-z
-x,y,z
x,-y,z
1/2+x,1/2+y,1/2+z
1/2-x,1/2-y,1/2+z
1/2+x,1/2-y,1/2-z
1/2-x,1/2+y,1/2-z
1/2-x,1/2-y,1/2-z
1/2+x,1/2+y,1/2-z
1/2-x,1/2+y,1/2+z
1/2+x,1/2-y,1/2+z
loop_
_atom_site_type_symbol
_atom_site_label
_atom_site_fract_x
_atom_site_fract_y
_atom_site_fract_z
Si Si1 0.215947 0.333312 0.561587
Si Si2 0.295266 0.166093 0.280248
Si Si3 0.282146 0.942065 0.112340
Si Si4 0.218623 0.558135 0.741612
Si Si5 0.210961 0.227746 0.172023
O O1 0.278110 0.319135 0.500000
O O2 0.278596 0.391730 0.578255
O O3 0.265914 0.293845 0.610579
O O4 0.000000 0.334908 0.560762
O O5 0.500000 0.159509 0.298978
O O6 0.215351 0.108135 0.275921
O O7 0.294766 0.188772 0.217349
O O8 0.217506 0.213632 0.316517
O O9 0.500000 0.941919 0.111061
O O10 0.229750 0.936181 0.176902
O O11 0.225113 0.000000 0.093145
O O12 0.272828 0.500000 0.760253
O O13 0.000000 0.559571 0.742115
O O14 0.000000 0.228533 0.185271
#
# Coordination Sequence:
#
# PCOD9518612 Si02
#       5
#    16  16  16  16  16
#     4  10  19  30  44  59  78 107 142 178 208 236
#     4   9  16  28  45  62  82 106 135 167 199 245
#     4   8  13  22  38  59  79 100 133 176 210 231
#     4   8  12  20  39  63  82 101 128 166 204 234
#     4  10  19  28  41  61  83 109 136 166 206 242
#
# _framework density 17.386610999999998
#
# number of rings (size 3 to 8) (size 9 to 14) (size 15 to 20)
#    0.000    3.000    2.000    1.800    0.000    1.600 
#    0.000    2.000    0.000    2.400    0.000    1.400 
#    0.000    0.800    0.000   10.000    0.000    1.600 
#
# Total GULP energy -222905.150955 kJ/mol
# GULP energy per Si atom -5572.628774 kJ/mol
# Density = 1.734704 g / cm^3
# Si number density = 17.386611 Si / 1000 Ang^3
#
#
#
# Elastic Constant Matrix: (Units=GPa)
#
#
# Indices 1 2 3 4 5 6 
#
# 1 52.8000 -1.8257 -3.5494 0.0000 0.0000 0.0000
# 2 -1.8257 150.3406 65.3443 0.0000 0.0000 0.0000
# 3 -3.5494 65.3443 80.8133 0.0000 0.0000 0.0000
# 4 0.0000 0.0000 0.0000 21.5260 0.0000 0.0000
# 5 0.0000 0.0000 0.0000 0.0000 9.5319 0.0000
# 6 0.0000 0.0000 0.0000 0.0000 0.0000 5.3838
#
#
#
# Elastic Compliance Matrix: (Units=1/GPa)
#
#
# Indices 1 2 3 4 5 6 
#
# 1 0.019000 -0.000203 0.000999 0.000000 0.000000 0.000000
# 2 -0.000203 0.010258 -0.008303 0.000000 0.000000 0.000000
# 3 0.000999 -0.008303 0.019132 0.000000 0.000000 0.000000
# 4 0.000000 0.000000 0.000000 0.046456 0.000000 0.000000
# 5 0.000000 0.000000 0.000000 0.000000 0.104911 0.000000
# 6 0.000000 0.000000 0.000000 0.000000 0.000000 0.185742
#
#
# Mechanical properties :
#
#
# Convention : Reuss Voigt Hill
#
# Bulk Modulus (GPa) = 29.96357 44.87692 37.42025
# Shear Modulus (GPa) = 12.14657 22.22065 17.18361
#
# Velocity S-wave (km/s) = 2.64600 3.57884 3.14717
# Velocity P-wave (km/s) = 5.15812 6.55322 5.89707
#
# Compressibility (1/GPa) = 0.03337386
#
# Stress axis : x y z
#
# Youngs Moduli (GPa) = 52.63291 97.48362 52.26809
#
# Poissons Ratio (x) = 0.01984 -0.05222
# Poissons Ratio (y) = 0.01071 0.43401
# Poissons Ratio (z) = -0.05258 0.80945
#
# Static dielectric constant tensor:
#      x y z
#    x 1.696400 0.000000 0.000000 
#    y 0.000000 1.638450 0.000000 
#    z 0.000000 0.000000 1.552290 
# 
# From -- ./inp_files/16533.got.cif
#   From: 2010.05.17/outbox.cif.g08.bks.cpg/sg71_9_cif.got.tgz:16533.got - 2010.06.03 16:22:01.
