data_PCOD9518981
_publ_section_title
;
Structure prediction by ZEFSAII (Michael W. Deem and Ramdas Pophale) SiO2 
 PCOD9518981
Probable space group: I M M M
;
_chemical_formula_sum "Si O2"
_cell_formula_units_Z 66
_cell_length_a 15.828179
_cell_length_b 24.371235
_cell_length_c 8.929736
_cell_angle_alpha 90.000000
_cell_angle_beta 90.000000
_cell_angle_gamma 90.000000
_cell_volume 3444.665933
_symmetry_space_group_name_H-M "I M M M"
_symmetry_group_IT_number 71
_symmetry_cell_setting 'orthorhombic'
loop_
_space_group_symop_operation_xyz
x,y,z
-x,-y,z
x,-y,-z
-x,y,-z
-x,-y,-z
x,y,-z
-x,y,z
x,-y,z
1/2+x,1/2+y,1/2+z
1/2-x,1/2-y,1/2+z
1/2+x,1/2-y,1/2-z
1/2-x,1/2+y,1/2-z
1/2-x,1/2-y,1/2-z
1/2+x,1/2+y,1/2-z
1/2-x,1/2+y,1/2+z
1/2+x,1/2-y,1/2+z
loop_
_atom_site_type_symbol
_atom_site_label
_atom_site_fract_x
_atom_site_fract_y
_atom_site_fract_z
Si Si1 0.151660 0.000000 0.828535
Si Si2 0.000000 0.188309 0.820478
Si Si3 0.145757 0.115834 0.318692
Si Si4 0.849036 0.500000 0.742380
Si Si5 0.000000 0.682365 0.817831
Si Si6 0.335550 0.877661 0.670587
Si Si7 0.500000 0.000000 0.000000
O O1 0.124802 0.055156 0.742987
O O2 0.254444 0.000000 0.826575
O O3 0.122255 0.000000 0.000000
O O4 0.080918 0.159165 0.747918
O O5 0.000000 0.253147 0.788875
O O6 0.000000 0.180666 0.000000
O O7 0.143715 0.114966 0.500000
O O8 0.241559 0.129430 0.265463
O O9 0.853564 0.557333 0.829779
O O10 0.925420 0.500000 0.627830
O O11 0.915006 0.653351 0.757975
O O12 0.000000 0.674466 0.000000
O O13 0.329559 0.857662 0.500000
#
# Coordination Sequence:
#
# PCOD9518981 Si02
#       7
#     8   8  16   8   8  16   2
#     4  10  19  36  57  86 118 149 183 225 280 352
#     4  11  23  39  58  81 111 152 194 244 295 347
#     4  10  21  37  61  86 116 147 190 239 290 336
#     4  10  19  30  52  80 122 152 184 219 278 338
#     4   9  19  35  56  82 114 147 195 237 280 337
#     4   9  18  35  59  86 111 149 190 237 280 336
#     4  12  20  28  42  76 120 166 176 210 268 322
#
# _framework density 19.160057999999999
#
# number of rings (size 3 to 8) (size 9 to 14) (size 15 to 20)
#    0.000    2.182    0.606    2.545    0.000    4.364 
#    0.000    4.848   10.667    0.000    0.000    0.000 
#    0.000    0.000    0.000    0.000    0.000    0.000 
#
# Total GULP energy -183750.020876 kJ/mol
# GULP energy per Si atom -5568.182451 kJ/mol
# Density = 1.911645 g / cm^3
# Si number density = 19.160058 Si / 1000 Ang^3
#
#
#
# Elastic Constant Matrix: (Units=GPa)
#
#
# Indices 1 2 3 4 5 6 
#
# 1 132.9044 81.7014 28.3339 0.0000 0.0000 0.0000
# 2 81.7014 125.4890 27.8357 0.0000 0.0000 0.0000
# 3 28.3339 27.8357 64.5495 0.0000 0.0000 0.0000
# 4 0.0000 0.0000 0.0000 23.8334 0.0000 0.0000
# 5 0.0000 0.0000 0.0000 0.0000 28.2617 0.0000
# 6 0.0000 0.0000 0.0000 0.0000 0.0000 28.2318
#
#
#
# Elastic Compliance Matrix: (Units=1/GPa)
#
#
# Indices 1 2 3 4 5 6 
#
# 1 0.012833 -0.007857 -0.002245 0.000000 0.000000 0.000000
# 2 -0.007857 0.013622 -0.002426 0.000000 0.000000 0.000000
# 3 -0.002245 -0.002426 0.017523 0.000000 0.000000 0.000000
# 4 0.000000 0.000000 0.000000 0.041958 0.000000 0.000000
# 5 0.000000 0.000000 0.000000 0.000000 0.035384 0.000000
# 6 0.000000 0.000000 0.000000 0.000000 0.000000 0.035421
#
#
# Mechanical properties :
#
#
# Convention : Reuss Voigt Hill
#
# Bulk Modulus (GPa) = 52.84360 66.52054 59.68207
# Shear Modulus (GPa) = 26.58112 28.40350 27.49231
#
# Velocity S-wave (km/s) = 3.72871 3.85441 3.79209
# Velocity P-wave (km/s) = 6.79542 7.38934 7.09859
#
# Compressibility (1/GPa) = 0.01892377
#
# Stress axis : x y z
#
# Youngs Moduli (GPa) = 77.92538 73.40903 57.06700
#
# Poissons Ratio (x) = 0.57678 0.12810
# Poissons Ratio (y) = 0.61226 0.13842
# Poissons Ratio (z) = 0.17492 0.17805
#
# Static dielectric constant tensor:
#      x y z
#    x 1.700140 0.000000 0.000000 
#    y 0.000000 1.634600 0.000000 
#    z 0.000000 0.000000 1.664470 
# 
# From -- ./inp_files/5666.got.cif
#   From: 2010.05.17/outbox.cif.g08.bks.cpg/sg71_3_cif.got.tgz:5666.got - 2010.06.03 16:22:01.
