data_PCOD9518198
_publ_section_title
;
Structure prediction by ZEFSAII (Michael W. Deem and Ramdas Pophale) SiO2 
 PCOD9518198
Probable space group: I M M M
;
_chemical_formula_sum "Si O2"
_cell_formula_units_Z 104
_cell_length_a 7.681555
_cell_length_b 23.668401
_cell_length_c 25.534292
_cell_angle_alpha 90.000000
_cell_angle_beta 90.000000
_cell_angle_gamma 90.000000
_cell_volume 4642.392796
_symmetry_space_group_name_H-M "I M M M"
_symmetry_group_IT_number 71
_symmetry_cell_setting 'orthorhombic'
loop_
_space_group_symop_operation_xyz
x,y,z
-x,-y,z
x,-y,-z
-x,y,-z
-x,-y,-z
x,y,-z
-x,y,z
x,-y,z
1/2+x,1/2+y,1/2+z
1/2-x,1/2-y,1/2+z
1/2+x,1/2-y,1/2-z
1/2-x,1/2+y,1/2-z
1/2-x,1/2-y,1/2-z
1/2+x,1/2+y,1/2-z
1/2-x,1/2+y,1/2+z
1/2+x,1/2-y,1/2+z
loop_
_atom_site_type_symbol
_atom_site_label
_atom_site_fract_x
_atom_site_fract_y
_atom_site_fract_z
Si Si1 0.712844 0.000000 0.939792
Si Si2 0.305007 0.901226 0.333520
Si Si3 0.794037 0.235173 0.096339
Si Si4 0.806744 0.784208 0.299705
Si Si5 0.290187 0.114401 0.116338
Si Si6 0.787377 0.642357 0.057577
Si Si7 0.288404 0.936084 0.222259
O O1 0.769964 0.942684 0.911767
O O2 0.500000 0.000000 0.937572
O O3 0.764952 0.000000 0.000000
O O4 0.500000 0.925051 0.340392
O O5 0.313962 0.836286 0.314348
O O6 0.225354 0.893355 0.391723
O O7 0.222942 0.929641 0.282066
O O8 0.699085 0.242557 0.151460
O O9 0.762135 0.169915 0.083608
O O10 0.739123 0.290961 0.063931
O O11 0.000000 0.241377 0.103412
O O12 0.750000 0.750000 0.250000
O O13 0.000000 0.807309 0.292780
O O14 0.500000 0.114083 0.117923
O O15 0.229869 0.107949 0.177388
O O16 0.000000 0.640235 0.059348
O O17 0.731991 0.622750 0.000000
O O18 0.500000 0.930405 0.225853
O O19 0.252178 0.000000 0.204233
#
# Coordination Sequence:
#
# PCOD9518198 Si02
#       7
#     8  16  16  16  16  16  16
#     4   9  18  32  49  69  95 131 176 220 260 309
#     4   9  17  29  48  72  95 124 165 207 246 295
#     4  10  20  32  48  71  97 126 164 205 247 299
#     4  11  20  31  47  69 100 131 159 195 245 301
#     4  10  18  31  50  70  95 129 167 209 258 304
#     4   8  15  29  47  67  94 128 161 195 244 304
#     4   9  16  28  48  72  95 123 162 203 245 296
#
# _framework density 22.402239999999999
#
# number of rings (size 3 to 8) (size 9 to 14) (size 15 to 20)
#    0.000    2.538    0.769    3.692    0.000    1.846 
#    0.000    0.385    0.000   13.385    0.000    3.231 
#    0.000    0.000    0.000    5.538    0.000    6.154 
#
# Total GULP energy -289773.167378 kJ/mol
# GULP energy per Si atom -5572.560911 kJ/mol
# Density = 2.235125 g / cm^3
# Si number density = 22.402240 Si / 1000 Ang^3
#
#
#
# Elastic Constant Matrix: (Units=GPa)
#
#
# Indices 1 2 3 4 5 6 
#
# 1 57.5282 -2.9211 4.7893 0.0000 0.0000 0.0000
# 2 -2.9211 40.8539 -8.2914 0.0000 0.0000 0.0000
# 3 4.7893 -8.2914 123.8657 0.0000 0.0000 0.0000
# 4 0.0000 0.0000 0.0000 24.8781 0.0000 0.0000
# 5 0.0000 0.0000 0.0000 0.0000 -0.4957 0.0000
# 6 0.0000 0.0000 0.0000 0.0000 0.0000 7.2991
#
#
#
# Elastic Compliance Matrix: (Units=1/GPa)
#
#
# Indices 1 2 3 4 5 6 
#
# 1 0.017490 0.001129 -0.000601 0.000000 0.000000 0.000000
# 2 0.001129 0.024887 0.001622 0.000000 0.000000 0.000000
# 3 -0.000601 0.001622 0.008205 0.000000 0.000000 0.000000
# 4 0.000000 0.000000 0.000000 0.040196 0.000000 0.000000
# 5 0.000000 0.000000 0.000000 0.000000 -2.017511 0.000000
# 6 0.000000 0.000000 0.000000 0.000000 0.000000 0.137004
#
#
# Mechanical properties :
#
#
# Convention : Reuss Voigt Hill
#
# Bulk Modulus (GPa) = 18.22057 23.26682 20.74369
# Shear Modulus (GPa) = -2.81574 21.58104 9.38265
#
# Velocity S-wave (km/s) = -1.12233 3.10714 2.04875
# Velocity P-wave (km/s) = 2.54392 4.82503 3.85697
#
# Compressibility (1/GPa) = 0.05488304
#
# Stress axis : x y z
#
# Youngs Moduli (GPa) = 57.17523 40.18097 121.87571
#
# Poissons Ratio (x) = -0.04535 0.07321
# Poissons Ratio (y) = -0.06453 -0.19772
# Poissons Ratio (z) = 0.03435 -0.06518
#
# Static dielectric constant tensor:
#      x y z
#    x 1.995280 0.000000 0.000000 
#    y 0.000000 1.637260 0.000000 
#    z 0.000000 0.000000 1.837670 
# 
# From -- ./inp_files/63705.got.cif
#   From: 2010.05.17/outbox.cif.g08.bks.cpg/sg71_32_cif.got.tgz:63705.got - 2010.06.03 16:22:01.
