data_PCOD9518173
_publ_section_title
;
Structure prediction by ZEFSAII (Michael W. Deem and Ramdas Pophale) SiO2 
 PCOD9518173
Probable space group: I M M M
;
_chemical_formula_sum "Si O2"
_cell_formula_units_Z 112
_cell_length_a 26.846398
_cell_length_b 14.110409
_cell_length_c 12.938647
_cell_angle_alpha 90.000000
_cell_angle_beta 90.000000
_cell_angle_gamma 90.000000
_cell_volume 4901.336173
_symmetry_space_group_name_H-M "I M M M"
_symmetry_group_IT_number 71
_symmetry_cell_setting 'orthorhombic'
loop_
_space_group_symop_operation_xyz
x,y,z
-x,-y,z
x,-y,-z
-x,y,-z
-x,-y,-z
x,y,-z
-x,y,z
x,-y,z
1/2+x,1/2+y,1/2+z
1/2-x,1/2-y,1/2+z
1/2+x,1/2-y,1/2-z
1/2-x,1/2+y,1/2-z
1/2-x,1/2-y,1/2-z
1/2+x,1/2+y,1/2-z
1/2-x,1/2+y,1/2+z
1/2+x,1/2-y,1/2+z
loop_
_atom_site_type_symbol
_atom_site_label
_atom_site_fract_x
_atom_site_fract_y
_atom_site_fract_z
Si Si1 0.446424 0.110068 0.666425
Si Si2 0.928851 0.101657 0.382113
Si Si3 0.077813 0.685157 0.619780
Si Si4 0.314909 0.605682 0.164542
Si Si5 0.798316 0.110935 0.106987
Si Si6 0.664278 0.885814 0.617632
Si Si7 0.305243 0.810034 0.836541
O O1 0.500000 0.152085 0.634570
O O2 0.442401 0.117694 0.791124
O O3 0.393694 0.147504 0.624570
O O4 0.447159 0.000000 0.635961
O O5 0.946298 0.100153 0.500000
O O6 0.938911 0.208283 0.344852
O O7 0.868917 0.099271 0.384548
O O8 0.943812 0.000000 0.332847
O O9 0.063045 0.670604 0.500000
O O10 0.138270 0.676596 0.624411
O O11 0.291383 0.500000 0.155524
O O12 0.323656 0.632922 0.284726
O O13 0.290506 0.702999 0.129149
O O14 0.739362 0.127210 0.120310
O O15 0.806874 0.000000 0.099478
O O16 0.815716 0.156730 0.000000
O O17 0.682606 0.872920 0.500000
O O18 0.691786 0.835723 0.713919
O O19 0.665163 0.000000 0.637940
#
# Coordination Sequence:
#
# PCOD9518173 Si02
#       7
#    16  16  16  16  16  16  16
#     4   9  18  31  46  66  92 120 148 177 212 258
#     4   8  14  27  47  67  87 113 146 185 227 266
#     4   9  17  28  44  66  90 116 146 179 215 258
#     4   9  18  31  46  66  90 116 150 191 228 264
#     4  10  20  32  45  62  87 120 155 188 224 269
#     4   9  18  32  49  69  91 114 145 185 224 263
#     4  10  18  31  48  66  89 118 150 185 226 270
#
# _framework density 22.850911
#
# number of rings (size 3 to 8) (size 9 to 14) (size 15 to 20)
#    0.000    2.857    0.000    1.286    0.000    2.571 
#    0.000    2.857    0.000    3.000    0.000    2.000 
#    0.000    0.000    0.000   11.143    0.000    0.286 
#
# Total GULP energy -311819.746305 kJ/mol
# GULP energy per Si atom -5568.209755 kJ/mol
# Density = 2.279890 g / cm^3
# Si number density = 22.850911 Si / 1000 Ang^3
#
#
#
# Elastic Constant Matrix: (Units=GPa)
#
#
# Indices 1 2 3 4 5 6 
#
# 1 83.4178 -15.5508 12.5368 0.0000 0.0000 0.0000
# 2 -15.5508 65.0881 -0.7665 0.0000 0.0000 0.0000
# 3 12.5368 -0.7665 108.9976 0.0000 0.0000 0.0000
# 4 0.0000 0.0000 0.0000 11.4503 0.0000 0.0000
# 5 0.0000 0.0000 0.0000 0.0000 -59.8737 0.0000
# 6 0.0000 0.0000 0.0000 0.0000 0.0000 -22.9607
#
#
#
# Elastic Compliance Matrix: (Units=1/GPa)
#
#
# Indices 1 2 3 4 5 6 
#
# 1 0.012771 0.003034 -0.001448 0.000000 0.000000 0.000000
# 2 0.003034 0.016086 -0.000236 0.000000 0.000000 0.000000
# 3 -0.001448 -0.000236 0.009339 0.000000 0.000000 0.000000
# 4 0.000000 0.000000 0.000000 0.087334 0.000000 0.000000
# 5 0.000000 0.000000 0.000000 0.000000 -0.016702 0.000000
# 6 0.000000 0.000000 0.000000 0.000000 0.000000 -0.043553
#
#
# Mechanical properties :
#
#
# Convention : Reuss Voigt Hill
#
# Bulk Modulus (GPa) = 24.45117 27.77139 26.11128
# Shear Modulus (GPa) = 65.61077 3.14212 34.37645
#
# Velocity S-wave (km/s) = 5.36422 1.17390 3.88284
# Velocity P-wave (km/s) = 7.00643 3.74394 5.61725
#
# Compressibility (1/GPa) = 0.04089784
#
# Stress axis : x y z
#
# Youngs Moduli (GPa) = 78.30214 62.16607 107.07380
#
# Poissons Ratio (x) = -0.18862 0.15500
# Poissons Ratio (y) = -0.23758 0.02526
# Poissons Ratio (z) = 0.11335 0.01466
#
# Static dielectric constant tensor:
#      x y z
#    x 1.871650 0.000000 0.000000 
#    y 0.000000 1.917450 0.000000 
#    z 0.000000 0.000000 2.082150 
# 
# From -- ./inp_files/30043.got.cif
#   From: 2010.05.17/outbox.cif.g08.bks.cpg/sg71_16_cif.got.tgz:30043.got - 2010.06.03 16:22:01.
