data_PCOD9518820
_publ_section_title
;
Structure prediction by ZEFSAII (Michael W. Deem and Ramdas Pophale) SiO2 
 PCOD9518820
Probable space group: I M M M
;
_chemical_formula_sum "Si O2"
_cell_formula_units_Z 96
_cell_length_a 8.678425
_cell_length_b 31.506518
_cell_length_c 21.299077
_cell_angle_alpha 90.000000
_cell_angle_beta 90.000000
_cell_angle_gamma 90.000000
_cell_volume 5823.741736
_symmetry_space_group_name_H-M "I M M M"
_symmetry_group_IT_number 71
_symmetry_cell_setting 'orthorhombic'
loop_
_space_group_symop_operation_xyz
x,y,z
-x,-y,z
x,-y,-z
-x,y,-z
-x,-y,-z
x,y,-z
-x,y,z
x,-y,z
1/2+x,1/2+y,1/2+z
1/2-x,1/2-y,1/2+z
1/2+x,1/2-y,1/2-z
1/2-x,1/2+y,1/2-z
1/2-x,1/2-y,1/2-z
1/2+x,1/2+y,1/2-z
1/2-x,1/2+y,1/2+z
1/2+x,1/2-y,1/2+z
loop_
_atom_site_type_symbol
_atom_site_label
_atom_site_fract_x
_atom_site_fract_y
_atom_site_fract_z
Si Si1 0.317332 0.282524 0.302244
Si Si2 0.820267 0.655273 0.095617
Si Si3 0.315980 0.565954 0.932792
Si Si4 0.315462 0.747109 0.069626
Si Si5 0.320882 0.864500 0.743105
Si Si6 0.186433 0.046786 0.292464
O O1 0.500000 0.277028 0.302479
O O2 0.250000 0.250000 0.250000
O O3 0.251530 0.271722 0.370791
O O4 0.271753 0.330274 0.283280
O O5 0.724826 0.615642 0.069948
O O6 0.751578 0.699634 0.074207
O O7 0.810831 0.651789 0.171102
O O8 0.000000 0.651526 0.078086
O O9 0.500000 0.559624 0.932865
O O10 0.260481 0.548537 0.865765
O O11 0.256485 0.549418 0.000000
O O12 0.500000 0.745408 0.075131
O O13 0.276640 0.764262 0.000000
O O14 0.500000 0.864313 0.761454
O O15 0.256446 0.912414 0.741917
O O16 0.000000 0.050801 0.292237
O O17 0.226244 0.000000 0.267380
#
# Coordination Sequence:
#
# PCOD9518820 Si02
#       6
#    16  16  16  16  16  16
#     4  12  23  36  56  79 105 138 176 218 261 311
#     4  10  19  30  46  67  94 130 171 216 260 303
#     4   9  17  28  42  61  88 124 166 211 259 309
#     4  11  23  36  51  73 104 140 176 215 258 306
#     4  10  20  34  52  74  99 131 171 215 260 310
#     4   9  18  32  49  69  94 125 164 213 265 314
#
# _framework density 16.484247
#
# number of rings (size 3 to 8) (size 9 to 14) (size 15 to 20)
#    0.000    1.833    1.667    3.500    0.000    5.667 
#    0.000    1.667    0.000    0.000    0.000    4.667 
#    0.000    0.667    0.000    7.000    0.000    3.000 
#
# Total GULP energy -267867.723288 kJ/mol
# GULP energy per Si atom -5580.577569 kJ/mol
# Density = 1.644673 g / cm^3
# Si number density = 16.484247 Si / 1000 Ang^3
#
#
#
# Elastic Constant Matrix: (Units=GPa)
#
#
# Indices 1 2 3 4 5 6 
#
# 1 45.4432 14.9904 24.0821 0.0000 0.0000 0.0000
# 2 14.9904 95.7402 41.3555 0.0000 0.0000 0.0000
# 3 24.0821 41.3555 75.0671 -0.0001 0.0000 0.0000
# 4 0.0000 0.0000 -0.0001 -100.6059 0.0000 0.0000
# 5 0.0000 0.0000 0.0000 0.0000 18.7297 0.0000
# 6 0.0000 0.0000 0.0000 0.0000 0.0000 17.8850
#
#
#
# Elastic Compliance Matrix: (Units=1/GPa)
#
#
# Indices 1 2 3 4 5 6 
#
# 1 0.026542 -0.000627 -0.008169 0.000000 0.000000 0.000000
# 2 -0.000627 0.013722 -0.007358 0.000000 0.000000 0.000000
# 3 -0.008169 -0.007358 0.019996 0.000000 0.000000 0.000000
# 4 0.000000 0.000000 0.000000 -0.009940 0.000000 0.000000
# 5 0.000000 0.000000 0.000000 0.000000 0.053391 0.000000
# 6 0.000000 0.000000 0.000000 0.000000 0.000000 0.055913
#
#
# Mechanical properties :
#
#
# Convention : Reuss Voigt Hill
#
# Bulk Modulus (GPa) = 35.77820 41.90073 38.83946
# Shear Modulus (GPa) = 24.84485 -3.74341 10.55072
#
# Velocity S-wave (km/s) = 3.88646 -1.50859 2.53266
# Velocity P-wave (km/s) = 6.47233 4.73702 5.67144
#
# Compressibility (1/GPa) = 0.02794998
#
# Stress axis : x y z
#
# Youngs Moduli (GPa) = 37.67681 72.87817 50.01002
#
# Poissons Ratio (x) = 0.04569 0.40855
# Poissons Ratio (y) = 0.02362 0.36799
# Poissons Ratio (z) = 0.30780 0.53626
#
# Static dielectric constant tensor:
#      x y z
#    x 1.557650 0.000000 0.000000 
#    y 0.000000 1.557360 0.000000 
#    z 0.000000 0.000000 1.568190 
# 
# From -- ./inp_files/50827.got.cif
#   From: 2010.05.17/outbox.cif.g08.bks.cpg/sg71_26_cif.got.tgz:50827.got - 2010.06.03 16:22:01.
