data_PCOD9518447
_publ_section_title
;
Structure prediction by ZEFSAII (Michael W. Deem and Ramdas Pophale) SiO2 
 PCOD9518447
Probable space group: I M M M
;
_chemical_formula_sum "Si O2"
_cell_formula_units_Z 68
_cell_length_a 7.289080
_cell_length_b 18.976246
_cell_length_c 21.247262
_cell_angle_alpha 90.000000
_cell_angle_beta 90.000000
_cell_angle_gamma 90.000000
_cell_volume 2938.908004
_symmetry_space_group_name_H-M "I M M M"
_symmetry_group_IT_number 71
_symmetry_cell_setting 'orthorhombic'
loop_
_space_group_symop_operation_xyz
x,y,z
-x,-y,z
x,-y,-z
-x,y,-z
-x,-y,-z
x,y,-z
-x,y,z
x,-y,z
1/2+x,1/2+y,1/2+z
1/2-x,1/2-y,1/2+z
1/2+x,1/2-y,1/2-z
1/2-x,1/2+y,1/2-z
1/2-x,1/2-y,1/2-z
1/2+x,1/2+y,1/2-z
1/2-x,1/2+y,1/2+z
1/2+x,1/2-y,1/2+z
loop_
_atom_site_type_symbol
_atom_site_label
_atom_site_fract_x
_atom_site_fract_y
_atom_site_fract_z
Si Si1 0.778186 0.167252 0.309593
Si Si2 0.722964 0.582046 0.068753
Si Si3 0.500000 0.244042 0.000000
Si Si4 0.223296 0.918925 0.187213
Si Si5 0.789534 0.208146 0.891871
O O1 0.715412 0.124594 0.371410
O O2 0.715129 0.123289 0.249371
O O3 0.717547 0.246081 0.326951
O O4 0.000000 0.168230 0.307597
O O5 0.500000 0.586109 0.068003
O O6 0.770705 0.500000 0.074595
O O7 0.784028 0.607140 0.000000
O O8 0.341722 0.240415 0.055846
O O9 0.272029 0.870568 0.127583
O O10 0.000000 0.920027 0.189236
O O11 0.283955 0.000000 0.185691
O O12 0.000000 0.206525 0.912823
#
# Coordination Sequence:
#
# PCOD9518447 Si02
#       5
#    16  16   4  16  16
#     4  10  18  32  61  92 133 177 215 264 327 396
#     4   8  14  23  41  76 119 165 214 255 301 371
#     4  12  26  48  69  96 133 178 226 278 342 404
#     4   9  19  38  64  96 134 179 226 274 334 400
#     4  11  24  42  67  97 133 173 223 282 336 395
#
# _framework density 23.137844000000001
#
# number of rings (size 3 to 8) (size 9 to 14) (size 15 to 20)
#    0.000    2.353    1.176    2.471    1.647    2.824 
#    2.118    1.765    0.000    4.941    0.000    1.647 
#    0.000    0.000    0.000    0.000    0.000    0.000 
#
# Total GULP energy -189583.157923 kJ/mol
# GULP energy per Si atom -5575.975233 kJ/mol
# Density = 2.308518 g / cm^3
# Si number density = 23.137844 Si / 1000 Ang^3
#
#
#
# Elastic Constant Matrix: (Units=GPa)
#
#
# Indices 1 2 3 4 5 6 
#
# 1 131.7883 7.1470 20.0408 0.0000 0.0000 0.0000
# 2 7.1470 128.6089 28.1427 0.0000 0.0000 0.0000
# 3 20.0408 28.1427 56.3620 0.0000 0.0000 0.0000
# 4 0.0000 0.0000 0.0000 18.4332 0.0000 0.0000
# 5 0.0000 0.0000 0.0000 0.0000 68.7744 0.0000
# 6 0.0000 0.0000 0.0000 0.0000 0.0000 5.3130
#
#
#
# Elastic Compliance Matrix: (Units=1/GPa)
#
#
# Indices 1 2 3 4 5 6 
#
# 1 0.008026 0.000200 -0.002954 0.000000 0.000000 0.000000
# 2 0.000200 0.008734 -0.004432 0.000000 0.000000 0.000000
# 3 -0.002954 -0.004432 0.021006 0.000000 0.000000 0.000000
# 4 0.000000 0.000000 0.000000 0.054250 0.000000 0.000000
# 5 0.000000 0.000000 0.000000 0.000000 0.014540 0.000000
# 6 0.000000 0.000000 0.000000 0.000000 0.000000 0.188219
#
#
# Mechanical properties :
#
#
# Convention : Reuss Voigt Hill
#
# Bulk Modulus (GPa) = 42.74517 47.49115 45.11816
# Shear Modulus (GPa) = 15.77556 35.93267 25.85412
#
# Velocity S-wave (km/s) = 2.61398 3.94507 3.34637
# Velocity P-wave (km/s) = 5.25592 6.42816 5.87137
#
# Compressibility (1/GPa) = 0.02339446
#
# Stress axis : x y z
#
# Youngs Moduli (GPa) = 124.59099 114.49100 47.60537
#
# Poissons Ratio (x) = -0.02294 0.14062
# Poissons Ratio (y) = -0.02496 0.21101
# Poissons Ratio (z) = 0.36804 0.50748
#
# Static dielectric constant tensor:
#      x y z
#    x 1.892690 0.000000 0.000000 
#    y 0.000000 1.891570 0.000000 
#    z 0.000000 0.000000 1.834030 
# 
# From -- ./inp_files/50014.got.cif
#   From: 2010.05.17/outbox.cif.g08.bks.cpg/sg71_26_cif.got.tgz:50014.got - 2010.06.03 16:22:01.
