data_PCOD9518114
_publ_section_title
;
Structure prediction by ZEFSAII (Michael W. Deem and Ramdas Pophale) SiO2 
 PCOD9518114
Probable space group: I M M M
;
_chemical_formula_sum "Si O2"
_cell_formula_units_Z 80
_cell_length_a 9.464168
_cell_length_b 17.560365
_cell_length_c 22.129693
_cell_angle_alpha 90.000000
_cell_angle_beta 90.000000
_cell_angle_gamma 90.000000
_cell_volume 3677.827609
_symmetry_space_group_name_H-M "I M M M"
_symmetry_group_IT_number 71
_symmetry_cell_setting 'orthorhombic'
loop_
_space_group_symop_operation_xyz
x,y,z
-x,-y,z
x,-y,-z
-x,y,-z
-x,-y,-z
x,y,-z
-x,y,z
x,-y,z
1/2+x,1/2+y,1/2+z
1/2-x,1/2-y,1/2+z
1/2+x,1/2-y,1/2-z
1/2-x,1/2+y,1/2-z
1/2-x,1/2-y,1/2-z
1/2+x,1/2+y,1/2-z
1/2-x,1/2+y,1/2+z
1/2+x,1/2-y,1/2+z
loop_
_atom_site_type_symbol
_atom_site_label
_atom_site_fract_x
_atom_site_fract_y
_atom_site_fract_z
Si Si1 0.160293 0.143213 0.598726
Si Si2 0.653518 0.716541 0.570619
Si Si3 0.338677 0.670776 0.756861
Si Si4 0.343079 0.912905 0.074002
Si Si5 0.168759 0.500000 0.888534
Si Si6 0.327397 0.500000 0.759530
O O1 0.229236 0.219491 0.574883
O O2 0.159043 0.154499 0.671139
O O3 0.263794 0.074639 0.582052
O O4 0.000000 0.129804 0.578890
O O5 0.636012 0.701126 0.500000
O O6 0.500000 0.738415 0.595625
O O7 0.720596 0.640847 0.597993
O O8 0.500000 0.685771 0.736931
O O9 0.250000 0.750000 0.750000
O O10 0.296625 0.585153 0.732111
O O11 0.500000 0.886196 0.092261
O O12 0.325291 0.000000 0.092420
O O13 0.341862 0.912176 0.000000
O O14 0.233924 0.500000 0.820717
O O15 0.000000 0.500000 0.888623
O O16 0.500000 0.500000 0.771259
#
# Coordination Sequence:
#
# PCOD9518114 Si02
#       6
#    16  16  16  16   8   8
#     4  10  20  35  53  73 101 135 171 205 246 303
#     4  10  20  32  48  73 102 130 165 212 259 297
#     4   9  18  32  53  78 103 132 168 208 252 299
#     4   8  14  26  45  67  90 121 162 202 242 294
#     4  10  18  30  51  77 100 126 164 210 253 292
#     4   8  16  32  50  73 105 138 169 203 246 307
#
# _framework density 21.751971000000001
#
# number of rings (size 3 to 8) (size 9 to 14) (size 15 to 20)
#    0.000    2.800    0.000    3.900    0.000    5.600 
#    0.000    2.500    2.200    3.000    0.000    0.000 
#    0.000    0.000    0.000    0.000    0.000    0.000 
#
# Total GULP energy -222797.597575 kJ/mol
# GULP energy per Si atom -5569.939939 kJ/mol
# Density = 2.170246 g / cm^3
# Si number density = 21.751971 Si / 1000 Ang^3
#
#
#
# Elastic Constant Matrix: (Units=GPa)
#
#
# Indices 1 2 3 4 5 6 
#
# 1 140.1929 77.8984 6.9361 0.0000 0.0000 0.0000
# 2 77.8984 150.8932 9.9449 0.0000 0.0000 0.0000
# 3 6.9361 9.9449 33.6466 0.0000 0.0000 0.0000
# 4 0.0000 0.0000 0.0000 18.8433 0.0000 0.0000
# 5 0.0000 0.0000 0.0000 0.0000 10.6785 0.0000
# 6 0.0000 0.0000 0.0000 0.0000 0.0000 18.8219
#
#
#
# Elastic Compliance Matrix: (Units=1/GPa)
#
#
# Indices 1 2 3 4 5 6 
#
# 1 0.010012 -0.005133 -0.000547 0.000000 0.000000 0.000000
# 2 -0.005133 0.009390 -0.001717 0.000000 0.000000 0.000000
# 3 -0.000547 -0.001717 0.030341 0.000000 0.000000 0.000000
# 4 0.000000 0.000000 0.000000 0.053069 0.000000 0.000000
# 5 0.000000 0.000000 0.000000 0.000000 0.093646 0.000000
# 6 0.000000 0.000000 0.000000 0.000000 0.000000 0.053130
#
#
# Mechanical properties :
#
#
# Convention : Reuss Voigt Hill
#
# Bulk Modulus (GPa) = 28.61281 57.14351 42.87816
# Shear Modulus (GPa) = 18.11385 24.99896 21.55641
#
# Velocity S-wave (km/s) = 2.88886 3.39377 3.15145
# Velocity P-wave (km/s) = 4.93052 6.45635 5.74432
#
# Compressibility (1/GPa) = 0.03494938
#
# Stress axis : x y z
#
# Youngs Moduli (GPa) = 99.87952 106.49490 32.95868
#
# Poissons Ratio (x) = 0.54660 0.01802
# Poissons Ratio (y) = 0.51265 0.05660
# Poissons Ratio (z) = 0.05462 0.18289
#
# Static dielectric constant tensor:
#      x y z
#    x 1.776230 0.000000 0.000000 
#    y 0.000000 1.850770 0.000000 
#    z 0.000000 0.000000 1.902930 
# 
# From -- ./inp_files/8406.got.cif
#   From: 2010.05.17/outbox.cif.g08.bks.cpg/sg71_5_cif.got.tgz:8406.got - 2010.06.03 16:22:01.
