data_PCOD9518037
_publ_section_title
;
Structure prediction by ZEFSAII (Michael W. Deem and Ramdas Pophale) SiO2 
 PCOD9518037
Probable space group: I M M M
;
_chemical_formula_sum "Si O2"
_cell_formula_units_Z 88
_cell_length_a 13.691214
_cell_length_b 23.633503
_cell_length_c 16.739305
_cell_angle_alpha 90.000000
_cell_angle_beta 90.000000
_cell_angle_gamma 90.000000
_cell_volume 5416.359469
_symmetry_space_group_name_H-M "I M M M"
_symmetry_group_IT_number 71
_symmetry_cell_setting 'orthorhombic'
loop_
_space_group_symop_operation_xyz
x,y,z
-x,-y,z
x,-y,-z
-x,y,-z
-x,-y,-z
x,y,-z
-x,y,z
x,-y,z
1/2+x,1/2+y,1/2+z
1/2-x,1/2-y,1/2+z
1/2+x,1/2-y,1/2-z
1/2-x,1/2+y,1/2-z
1/2-x,1/2-y,1/2-z
1/2+x,1/2+y,1/2-z
1/2-x,1/2+y,1/2+z
1/2+x,1/2-y,1/2+z
loop_
_atom_site_type_symbol
_atom_site_label
_atom_site_fract_x
_atom_site_fract_y
_atom_site_fract_z
Si Si1 0.813098 0.062955 0.096331
Si Si2 0.720533 0.774661 0.907872
Si Si3 0.391987 0.887696 0.096145
Si Si4 0.383861 0.342018 0.872731
Si Si5 0.381656 0.564691 0.000000
Si Si6 0.889007 0.169964 0.185771
O O1 0.700081 0.074302 0.121131
O O2 0.874952 0.112948 0.134590
O O3 0.843886 0.000000 0.119806
O O4 0.817545 0.066928 0.000000
O O5 0.640286 0.822957 0.887793
O O6 0.674220 0.713122 0.901211
O O7 0.811165 0.785856 0.849442
O O8 0.750813 0.785290 0.000000
O O9 0.500000 0.900487 0.128178
O O10 0.397044 0.893520 0.000000
O O11 0.500000 0.333412 0.887299
O O12 0.354289 0.397581 0.922700
O O13 0.369178 0.345572 0.777806
O O14 0.345224 0.500000 0.000000
O O15 0.500000 0.561507 0.000000
O O16 0.000000 0.190729 0.179654
#
# Coordination Sequence:
#
# PCOD9518037 Si02
#       6
#    16  16  16  16   8  16
#     4   9  18  31  45  63  90 127 167 201 238 288
#     4  10  18  30  49  71  98 129 161 196 241 301
#     4   8  14  24  41  66  92 118 150 190 233 279
#     4  10  19  32  51  73  98 127 157 195 249 303
#     4   9  18  32  50  74 101 127 160 201 243 295
#     4  10  21  33  46  68  98 130 163 204 247 287
#
# _framework density 16.247074000000001
#
# number of rings (size 3 to 8) (size 9 to 14) (size 15 to 20)
#    0.000    2.636    0.909    2.727    0.000    3.636 
#    0.000    4.545    0.000    0.000    0.000    0.000 
#    0.000    1.455    0.000    0.000    0.000    0.727 
#
# Total GULP energy -245095.667578 kJ/mol
# GULP energy per Si atom -5570.356081 kJ/mol
# Density = 1.621010 g / cm^3
# Si number density = 16.247074 Si / 1000 Ang^3
#
#
#
# Elastic Constant Matrix: (Units=GPa)
#
#
# Indices 1 2 3 4 5 6 
#
# 1 43.6125 6.3375 32.9373 0.0000 0.0000 0.0000
# 2 6.3375 97.5288 31.8475 0.0004 0.0000 0.0000
# 3 32.9373 31.8475 69.1350 0.0004 0.0000 0.0000
# 4 0.0000 0.0004 0.0004 9.3631 0.0000 0.0000
# 5 0.0000 0.0000 0.0000 0.0000 12.4490 0.0000
# 6 0.0000 0.0000 0.0000 0.0000 0.0000 11.5325
#
#
#
# Elastic Compliance Matrix: (Units=1/GPa)
#
#
# Indices 1 2 3 4 5 6 
#
# 1 0.037067 0.003952 -0.019480 0.000001 0.000000 0.000000
# 2 0.003952 0.012490 -0.007637 0.000000 0.000000 0.000000
# 3 -0.019480 -0.007637 0.027263 -0.000001 0.000000 0.000000
# 4 0.000001 0.000000 -0.000001 0.106802 0.000000 0.000000
# 5 0.000000 0.000000 0.000000 0.000000 0.080328 0.000000
# 6 0.000000 0.000000 0.000000 0.000000 0.000000 0.086711
#
#
# Mechanical properties :
#
#
# Convention : Reuss Voigt Hill
#
# Bulk Modulus (GPa) = 32.79618 39.16900 35.98259
# Shear Modulus (GPa) = 12.28036 15.94585 14.11310
#
# Velocity S-wave (km/s) = 2.75226 3.13622 2.95049
# Velocity P-wave (km/s) = 5.50723 6.10534 5.81398
#
# Compressibility (1/GPa) = 0.03049136
#
# Stress axis : x y z
#
# Youngs Moduli (GPa) = 26.97842 80.06213 36.67963
#
# Poissons Ratio (x) = -0.31645 0.71452
# Poissons Ratio (y) = -0.10663 0.28011
# Poissons Ratio (z) = 0.52554 0.61142
#
# Static dielectric constant tensor:
#      x y z
#    x 1.553010 0.000000 0.000000 
#    y 0.000000 1.544480 0.000000 
#    z 0.000000 0.000000 1.551110 
# 
# From -- ./inp_files/34660.got.cif
#   From: 2010.05.17/outbox.cif.g08.bks.cpg/sg71_18_cif.got.tgz:34660.got - 2010.06.03 16:22:01.
