data_PCOD9518213
_publ_section_title
;
Structure prediction by ZEFSAII (Michael W. Deem and Ramdas Pophale) SiO2 
 PCOD9518213
Probable space group: I M M M
;
_chemical_formula_sum "Si O2"
_cell_formula_units_Z 96
_cell_length_a 19.111779
_cell_length_b 21.136777
_cell_length_c 13.878939
_cell_angle_alpha 90.000000
_cell_angle_beta 90.000000
_cell_angle_gamma 90.000000
_cell_volume 5606.555779
_symmetry_space_group_name_H-M "I M M M"
_symmetry_group_IT_number 71
_symmetry_cell_setting 'orthorhombic'
loop_
_space_group_symop_operation_xyz
x,y,z
-x,-y,z
x,-y,-z
-x,y,-z
-x,-y,-z
x,y,-z
-x,y,z
x,-y,z
1/2+x,1/2+y,1/2+z
1/2-x,1/2-y,1/2+z
1/2+x,1/2-y,1/2-z
1/2-x,1/2+y,1/2-z
1/2-x,1/2-y,1/2-z
1/2+x,1/2+y,1/2-z
1/2-x,1/2+y,1/2+z
1/2+x,1/2-y,1/2+z
loop_
_atom_site_type_symbol
_atom_site_label
_atom_site_fract_x
_atom_site_fract_y
_atom_site_fract_z
Si Si1 0.719489 0.147444 0.791281
Si Si2 0.340656 0.572807 0.387895
Si Si3 0.418072 0.311868 0.317290
Si Si4 0.209222 0.267685 0.112080
Si Si5 0.078558 0.358933 0.610675
Si Si6 0.580990 0.705959 0.103529
O O1 0.777264 0.096501 0.821050
O O2 0.739629 0.210282 0.854614
O O3 0.720493 0.173249 0.682654
O O4 0.643044 0.123477 0.822107
O O5 0.319511 0.580189 0.500000
O O6 0.358519 0.500000 0.370967
O O7 0.403451 0.621248 0.367171
O O8 0.500000 0.295215 0.317875
O O9 0.368404 0.260417 0.367520
O O10 0.391455 0.316551 0.206283
O O11 0.218204 0.280601 0.000000
O O12 0.089986 0.379852 0.500000
O O13 0.079036 0.282158 0.608717
O O14 0.000000 0.378341 0.640351
O O15 0.500000 0.684596 0.100959
O O16 0.613578 0.688168 0.000000
#
# Coordination Sequence:
#
# PCOD9518213 Si02
#       6
#    16  16  16  16  16  16
#     4  10  18  32  49  66  94 129 157 194 243 296
#     4  10  22  38  52  68  92 128 174 212 242 279
#     4  10  18  31  50  74 105 135 162 198 242 288
#     4  10  20  30  44  71 100 126 156 193 242 298
#     4   9  15  24  43  71  97 119 148 184 229 289
#     4   8  14  24  40  67 101 130 152 182 232 288
#
# _framework density 17.122813000000001
#
# number of rings (size 3 to 8) (size 9 to 14) (size 15 to 20)
#    0.000    2.500    1.667    4.000    0.000    1.667 
#    0.000    0.833    0.000    2.500    0.000    4.667 
#    0.000    0.000    0.000    3.000    0.000    0.167 
#
# Total GULP energy -267467.319045 kJ/mol
# GULP energy per Si atom -5572.235813 kJ/mol
# Density = 1.708384 g / cm^3
# Si number density = 17.122813 Si / 1000 Ang^3
#
#
#
# Elastic Constant Matrix: (Units=GPa)
#
#
# Indices 1 2 3 4 5 6 
#
# 1 89.2396 -7.9957 16.9602 0.0000 0.0000 0.0000
# 2 -7.9957 21.0250 12.4224 0.0000 0.0000 0.0000
# 3 16.9602 12.4224 114.3033 0.0000 0.0000 0.0000
# 4 0.0000 0.0000 0.0000 13.0772 0.0000 0.0000
# 5 0.0000 0.0000 0.0000 0.0000 20.5264 0.0000
# 6 0.0000 0.0000 0.0000 0.0000 0.0000 4.9267
#
#
#
# Elastic Compliance Matrix: (Units=1/GPa)
#
#
# Indices 1 2 3 4 5 6 
#
# 1 0.012225 0.006113 -0.002478 0.000000 0.000000 0.000000
# 2 0.006113 0.053883 -0.006763 0.000000 0.000000 0.000000
# 3 -0.002478 -0.006763 0.009851 0.000000 0.000000 0.000000
# 4 0.000000 0.000000 0.000000 0.076469 0.000000 0.000000
# 5 0.000000 0.000000 0.000000 0.000000 0.048718 0.000000
# 6 0.000000 0.000000 0.000000 0.000000 0.000000 0.202974
#
#
# Mechanical properties :
#
#
# Convention : Reuss Voigt Hill
#
# Bulk Modulus (GPa) = 14.34663 29.70463 22.02563
# Shear Modulus (GPa) = 11.53109 21.25146 16.39128
#
# Velocity S-wave (km/s) = 2.59788 3.52678 3.09735
# Velocity P-wave (km/s) = 4.17079 5.82836 5.06781
#
# Compressibility (1/GPa) = 0.06970279
#
# Stress axis : x y z
#
# Youngs Moduli (GPa) = 81.80287 18.55869 101.50865
#
# Poissons Ratio (x) = -0.11345 0.25156
# Poissons Ratio (y) = -0.50007 0.68651
# Poissons Ratio (z) = 0.20273 0.12551
#
# Static dielectric constant tensor:
#      x y z
#    x 1.629940 0.000000 0.000000 
#    y 0.000000 1.546310 0.000000 
#    z 0.000000 0.000000 1.616090 
# 
# From -- ./inp_files/26133.got.cif
#   From: 2010.05.17/outbox.cif.g08.bks.cpg/sg71_14_cif.got.tgz:26133.got - 2010.06.03 16:22:01.
