data_PCOD9518941
_publ_section_title
;
Structure prediction by ZEFSAII (Michael W. Deem and Ramdas Pophale) SiO2 
 PCOD9518941
Probable space group: I M M M
;
_chemical_formula_sum "Si O2"
_cell_formula_units_Z 104
_cell_length_a 20.783484
_cell_length_b 7.521745
_cell_length_c 32.213121
_cell_angle_alpha 90.000000
_cell_angle_beta 90.000000
_cell_angle_gamma 90.000000
_cell_volume 5035.814933
_symmetry_space_group_name_H-M "I M M M"
_symmetry_group_IT_number 71
_symmetry_cell_setting 'orthorhombic'
loop_
_space_group_symop_operation_xyz
x,y,z
-x,-y,z
x,-y,-z
-x,y,-z
-x,-y,-z
x,y,-z
-x,y,z
x,-y,z
1/2+x,1/2+y,1/2+z
1/2-x,1/2-y,1/2+z
1/2+x,1/2-y,1/2-z
1/2-x,1/2+y,1/2-z
1/2-x,1/2-y,1/2-z
1/2+x,1/2+y,1/2-z
1/2-x,1/2+y,1/2+z
1/2+x,1/2-y,1/2+z
loop_
_atom_site_type_symbol
_atom_site_label
_atom_site_fract_x
_atom_site_fract_y
_atom_site_fract_z
Si Si1 0.572285 0.782476 0.844328
Si Si2 0.073733 0.787892 0.500000
Si Si3 0.199690 0.204490 0.090910
Si Si4 0.207052 0.291307 0.185772
Si Si5 0.840718 0.288786 0.419738
Si Si6 0.571084 0.283548 0.548665
Si Si7 0.843034 0.285061 0.270947
O O1 0.500000 0.724065 0.853053
O O2 0.621553 0.719060 0.879504
O O3 0.597305 0.728658 0.799022
O O4 0.572493 0.000000 0.845344
O O5 0.114365 0.734510 0.459601
O O6 0.000000 0.718486 0.500000
O O7 0.069831 0.000000 0.500000
O O8 0.200057 0.206104 0.140886
O O9 0.268242 0.284537 0.076681
O O10 0.133366 0.282656 0.073467
O O11 0.199918 0.000000 0.076047
O O12 0.194627 0.500000 0.179972
O O13 0.162872 0.221564 0.223609
O O14 0.278979 0.268335 0.203844
O O15 0.833125 0.500000 0.412803
O O16 0.577970 0.239794 0.500000
O O17 0.500000 0.222352 0.562689
O O18 0.569846 0.500000 0.551617
O O19 0.842515 0.500000 0.269161
#
# Coordination Sequence:
#
# PCOD9518941 Si02
#       7
#    16   8  16  16  16  16  16
#     4   9  16  29  51  75  98 127 169 217 254 288
#     4  11  25  41  53  71 106 145 172 208 265 315
#     4  10  19  32  54  80 106 133 167 214 257 300
#     4  10  19  30  49  74 103 134 165 206 255 302
#     4  10  20  34  55  79 101 131 176 221 255 297
#     4   8  15  29  51  78 103 129 166 210 255 302
#     4   9  17  32  50  71  98 131 172 210 248 296
#
# _framework density 20.652069999999998
#
# number of rings (size 3 to 8) (size 9 to 14) (size 15 to 20)
#    0.000    2.538    1.538    1.615    1.077    2.462 
#    0.000    0.769    0.000    1.846    0.000    1.077 
#    0.000    0.000    0.000    0.000    0.000    0.000 
#
# Total GULP energy -290091.043198 kJ/mol
# GULP energy per Si atom -5578.673908 kJ/mol
# Density = 2.060506 g / cm^3
# Si number density = 20.652070 Si / 1000 Ang^3
#
#
#
# Elastic Constant Matrix: (Units=GPa)
#
#
# Indices 1 2 3 4 5 6 
#
# 1 194.6238 6.4411 78.2935 0.0000 0.0000 0.0000
# 2 6.4411 53.5593 -9.5990 0.0000 0.0000 0.0000
# 3 78.2935 -9.5990 87.1815 0.0000 0.0000 0.0000
# 4 0.0000 0.0000 0.0000 7.8417 0.0000 0.0000
# 5 0.0000 0.0000 0.0000 0.0000 29.2779 0.0000
# 6 0.0000 0.0000 0.0000 0.0000 0.0000 -2.7195
#
#
#
# Elastic Compliance Matrix: (Units=1/GPa)
#
#
# Indices 1 2 3 4 5 6 
#
# 1 0.008334 -0.002391 -0.007748 0.000000 0.000000 0.000000
# 2 -0.002391 0.019733 0.004320 0.000000 0.000000 0.000000
# 3 -0.007748 0.004320 0.018904 0.000000 0.000000 0.000000
# 4 0.000000 0.000000 0.000000 0.127524 0.000000 0.000000
# 5 0.000000 0.000000 0.000000 0.000000 0.034155 0.000000
# 6 0.000000 0.000000 0.000000 0.000000 0.000000 -0.367714
#
#
# Mechanical properties :
#
#
# Convention : Reuss Voigt Hill
#
# Bulk Modulus (GPa) = 28.30224 53.95953 41.13089
# Shear Modulus (GPa) = -36.85946 24.22863 -6.31541
#
# Velocity S-wave (km/s) = -4.22925 3.42889 -1.75061
# Velocity P-wave (km/s) = 3.18036 6.47001 3.98411
#
# Compressibility (1/GPa) = 0.03533289
#
# Stress axis : x y z
#
# Youngs Moduli (GPa) = 119.99151 50.67754 52.89996
#
# Poissons Ratio (x) = 0.12116 0.40984
# Poissons Ratio (y) = 0.28687 -0.22851
# Poissons Ratio (z) = 0.92964 -0.21891
#
# Static dielectric constant tensor:
#      x y z
#    x 1.749080 0.000000 0.000000 
#    y 0.000000 1.761730 0.000000 
#    z 0.000000 0.000000 1.720930 
# 
# From -- ./inp_files/70757.got.cif
#   From: 2010.05.17/outbox.cif.g08.bks.cpg/sg71_36_cif.got.tgz:70757.got - 2010.06.03 16:22:01.
