data_PCOD9518257
_publ_section_title
;
Structure prediction by ZEFSAII (Michael W. Deem and Ramdas Pophale) SiO2 
 PCOD9518257
Probable space group: I M M M
;
_chemical_formula_sum "Si O2"
_cell_formula_units_Z 112
_cell_length_a 14.068977
_cell_length_b 24.612657
_cell_length_c 18.821084
_cell_angle_alpha 90.000000
_cell_angle_beta 90.000000
_cell_angle_gamma 90.000000
_cell_volume 6517.269079
_symmetry_space_group_name_H-M "I M M M"
_symmetry_group_IT_number 71
_symmetry_cell_setting 'orthorhombic'
loop_
_space_group_symop_operation_xyz
x,y,z
-x,-y,z
x,-y,-z
-x,y,-z
-x,-y,-z
x,y,-z
-x,y,z
x,-y,z
1/2+x,1/2+y,1/2+z
1/2-x,1/2-y,1/2+z
1/2+x,1/2-y,1/2-z
1/2-x,1/2+y,1/2-z
1/2-x,1/2-y,1/2-z
1/2+x,1/2+y,1/2-z
1/2-x,1/2+y,1/2+z
1/2+x,1/2-y,1/2+z
loop_
_atom_site_type_symbol
_atom_site_label
_atom_site_fract_x
_atom_site_fract_y
_atom_site_fract_z
Si Si1 0.191058 0.347394 0.191695
Si Si2 0.398033 0.649510 0.225041
Si Si3 0.111143 0.437603 0.278608
Si Si4 0.718533 0.246641 0.417639
Si Si5 0.609968 0.774203 0.817730
Si Si6 0.608111 0.357904 0.607248
Si Si7 0.220844 0.434946 0.577593
O O1 0.300022 0.367541 0.189550
O O2 0.130539 0.400587 0.209795
O O3 0.180208 0.305178 0.127058
O O4 0.166001 0.311413 0.261625
O O5 0.500000 0.630075 0.196079
O O6 0.397125 0.714743 0.217594
O O7 0.392601 0.635622 0.307600
O O8 0.139967 0.500000 0.265552
O O9 0.164190 0.418676 0.350993
O O10 0.000000 0.436329 0.294427
O O11 0.728840 0.233023 0.500000
O O12 0.820206 0.265487 0.384549
O O13 0.648871 0.298150 0.409493
O O14 0.500000 0.792287 0.830831
O O15 0.500000 0.363399 0.582390
O O16 0.680658 0.402581 0.578848
O O17 0.174524 0.423405 0.500000
O O18 0.234326 0.500000 0.581350
#
# Coordination Sequence:
#
# PCOD9518257 Si02
#       7
#    16  16  16  16  16  16  16
#     4  11  18  34  54  75 101 135 172 211 253 304
#     4   9  16  28  49  73  96 126 166 205 244 290
#     4  10  21  36  55  77  98 127 169 214 257 300
#     4  11  22  34  50  78 109 135 168 210 258 308
#     4  10  18  31  52  75 100 134 170 205 250 302
#     4  11  20  33  50  70 101 138 173 208 245 290
#     4  10  21  36  52  73 103 136 170 208 251 300
#
# _framework density 17.185112
#
# number of rings (size 3 to 8) (size 9 to 14) (size 15 to 20)
#    0.000    1.714    4.286    1.714    0.000    2.571 
#    0.000    2.143    0.000    4.286    0.000    1.000 
#    0.000    0.000    0.000    7.143    0.000    0.000 
#
# Total GULP energy -311900.584105 kJ/mol
# GULP energy per Si atom -5569.653288 kJ/mol
# Density = 1.714600 g / cm^3
# Si number density = 17.185112 Si / 1000 Ang^3
#
#
#
# Elastic Constant Matrix: (Units=GPa)
#
#
# Indices 1 2 3 4 5 6 
#
# 1 78.1684 13.1445 11.2961 0.0000 0.0000 0.0000
# 2 13.1445 34.3610 28.7693 0.0000 0.0000 0.0000
# 3 11.2961 28.7693 74.3005 0.0000 0.0000 0.0000
# 4 0.0000 0.0000 0.0000 6.6211 0.0000 0.0000
# 5 0.0000 0.0000 0.0000 0.0000 -0.9171 0.0000
# 6 0.0000 0.0000 0.0000 0.0000 0.0000 21.3335
#
#
#
# Elastic Compliance Matrix: (Units=1/GPa)
#
#
# Indices 1 2 3 4 5 6 
#
# 1 0.013673 -0.005164 -0.000079 0.000000 0.000000 0.000000
# 2 -0.005164 0.045014 -0.016644 0.000000 0.000001 0.000000
# 3 -0.000079 -0.016644 0.019916 0.000000 -0.000001 0.000000
# 4 0.000000 0.000000 0.000000 0.151031 -0.000004 0.000000
# 5 0.000000 0.000001 -0.000001 -0.000004 -1.090335 0.000000
# 6 0.000000 0.000000 0.000000 0.000000 0.000000 0.046875
#
#
# Mechanical properties :
#
#
# Convention : Reuss Voigt Hill
#
# Bulk Modulus (GPa) = 28.71330 32.58328 30.64829
# Shear Modulus (GPa) = -6.59246 14.31550 3.86152
#
# Velocity S-wave (km/s) = -1.96073 2.88934 1.50063
# Velocity P-wave (km/s) = 3.40860 5.48929 4.56897
#
# Compressibility (1/GPa) = 0.03482707
#
# Stress axis : x y z
#
# Youngs Moduli (GPa) = 73.13841 22.21531 50.21179
#
# Poissons Ratio (x) = 0.11472 0.00397
# Poissons Ratio (y) = 0.37769 0.83574
# Poissons Ratio (z) = 0.00579 0.36976
#
# Static dielectric constant tensor:
#      x y z
#    x 1.627460 0.000000 0.000000 
#    y 0.000000 1.591960 0.000000 
#    z 0.000000 0.000000 1.581490 
# 
# From -- ./inp_files/34850.got.cif
#   From: 2010.05.17/outbox.cif.g08.bks.cpg/sg71_18_cif.got.tgz:34850.got - 2010.06.03 16:22:01.
