data_PCOD9518102
_publ_section_title
;
Structure prediction by ZEFSAII (Michael W. Deem and Ramdas Pophale) SiO2 
 PCOD9518102
Probable space group: I M M M
;
_chemical_formula_sum "Si O2"
_cell_formula_units_Z 82
_cell_length_a 26.135875
_cell_length_b 20.551438
_cell_length_c 7.463768
_cell_angle_alpha 90.000000
_cell_angle_beta 90.000000
_cell_angle_gamma 90.000000
_cell_volume 4009.012322
_symmetry_space_group_name_H-M "I M M M"
_symmetry_group_IT_number 71
_symmetry_cell_setting 'orthorhombic'
loop_
_space_group_symop_operation_xyz
x,y,z
-x,-y,z
x,-y,-z
-x,y,-z
-x,-y,-z
x,y,-z
-x,y,z
x,-y,z
1/2+x,1/2+y,1/2+z
1/2-x,1/2-y,1/2+z
1/2+x,1/2-y,1/2-z
1/2-x,1/2+y,1/2-z
1/2-x,1/2-y,1/2-z
1/2+x,1/2+y,1/2-z
1/2-x,1/2+y,1/2+z
1/2+x,1/2-y,1/2+z
loop_
_atom_site_type_symbol
_atom_site_label
_atom_site_fract_x
_atom_site_fract_y
_atom_site_fract_z
Si Si1 0.896094 0.298907 0.219291
Si Si2 0.780517 0.317407 0.784718
Si Si3 0.899974 0.149154 0.215578
Si Si4 0.000000 0.500000 0.000000
Si Si5 0.500000 0.135804 0.699323
Si Si6 0.000000 0.925743 0.780688
Si Si7 0.295483 0.573528 0.787438
O O1 0.839113 0.318870 0.280096
O O2 0.901325 0.223755 0.274480
O O3 0.945936 0.339946 0.279226
O O4 0.894653 0.302602 0.000000
O O5 0.750000 0.250000 0.750000
O O6 0.747823 0.378157 0.714171
O O7 0.782607 0.322217 0.000000
O O8 0.849061 0.110443 0.264564
O O9 0.949445 0.110892 0.279926
O O10 0.901520 0.150989 0.000000
O O11 0.000000 0.441003 0.846081
O O12 0.500000 0.168527 0.500000
O O13 0.000000 0.000000 0.723486
O O14 0.000000 0.925188 0.000000
O O15 0.296511 0.500000 0.714698
O O16 0.286556 0.568270 0.000000
#
# Coordination Sequence:
#
# PCOD9518102 Si02
#       7
#    16  16  16   2   8   8  16
#     4   9  16  28  47  70  94 123 165 205 246 291
#     4  10  19  33  51  73  98 131 170 206 251 301
#     4  10  18  30  51  72  94 128 168 209 250 287
#     4   8  16  28  44  72 116 144 152 204 268 334
#     4   8  15  28  43  71 103 133 163 197 256 309
#     4   9  17  27  41  68  95 118 153 200 246 285
#     4  10  21  35  47  68 102 137 164 201 252 304
#
# _framework density 20.453917000000001
#
# number of rings (size 3 to 8) (size 9 to 14) (size 15 to 20)
#    0.293    2.244    1.951    1.171    0.000    3.512 
#    1.756    0.488    0.000    1.756    0.000    0.683 
#    0.000    0.000    0.000    3.512    0.000    0.000 
#
# Total GULP energy -228377.898250 kJ/mol
# GULP energy per Si atom -5570.192640 kJ/mol
# Density = 2.040736 g / cm^3
# Si number density = 20.453917 Si / 1000 Ang^3
#
#
#
# Elastic Constant Matrix: (Units=GPa)
#
#
# Indices 1 2 3 4 5 6 
#
# 1 237.1188 135.8049 4.5437 0.0000 0.0000 0.0000
# 2 135.8049 212.6944 6.7156 0.0000 0.0000 0.0000
# 3 4.5437 6.7156 58.5441 0.0000 0.0000 0.0000
# 4 0.0000 0.0000 0.0000 8.1397 0.0000 0.0000
# 5 0.0000 0.0000 0.0000 0.0000 28.3573 0.0000
# 6 0.0000 0.0000 0.0000 0.0000 0.0000 90.8480
#
#
#
# Elastic Compliance Matrix: (Units=1/GPa)
#
#
# Indices 1 2 3 4 5 6 
#
# 1 0.006649 -0.004244 -0.000029 0.000000 0.000000 0.000000
# 2 -0.004244 0.007428 -0.000523 0.000000 0.000000 0.000000
# 3 -0.000029 -0.000523 0.017143 0.000000 0.000000 0.000000
# 4 0.000000 0.000000 0.000000 0.122854 0.000000 0.000000
# 5 0.000000 0.000000 0.000000 0.000000 0.035264 0.000000
# 6 0.000000 0.000000 0.000000 0.000000 0.000000 0.011007
#
#
# Mechanical properties :
#
#
# Convention : Reuss Voigt Hill
#
# Bulk Modulus (GPa) = 46.23651 89.16508 67.70080
# Shear Modulus (GPa) = 23.02583 49.55521 36.29052
#
# Velocity S-wave (km/s) = 3.35885 4.92751 4.21676
# Velocity P-wave (km/s) = 6.13977 8.72133 7.54183
#
# Compressibility (1/GPa) = 0.02162793
#
# Stress axis : x y z
#
# Youngs Moduli (GPa) = 150.40650 134.62551 58.33159
#
# Poissons Ratio (x) = 0.57138 0.00170
# Poissons Ratio (y) = 0.63836 0.03049
# Poissons Ratio (z) = 0.00438 0.07036
#
# Static dielectric constant tensor:
#      x y z
#    x 1.730140 0.000000 0.000000 
#    y 0.000000 1.696300 0.000000 
#    z 0.000000 0.000000 1.775280 
# 
# From -- ./inp_files/28770.got.cif
#   From: 2010.05.17/outbox.cif.g08.bks.cpg/sg71_15_cif.got.tgz:28770.got - 2010.06.03 16:22:01.
