data_PCOD9518650
_publ_section_title
;
Structure prediction by ZEFSAII (Michael W. Deem and Ramdas Pophale) SiO2 
 PCOD9518650
Probable space group: I M M M
;
_chemical_formula_sum "Si O2"
_cell_formula_units_Z 88
_cell_length_a 19.454064
_cell_length_b 29.986891
_cell_length_c 7.607763
_cell_angle_alpha 90.000000
_cell_angle_beta 90.000000
_cell_angle_gamma 90.000000
_cell_volume 4438.117092
_symmetry_space_group_name_H-M "I M M M"
_symmetry_group_IT_number 71
_symmetry_cell_setting 'orthorhombic'
loop_
_space_group_symop_operation_xyz
x,y,z
-x,-y,z
x,-y,-z
-x,y,-z
-x,-y,-z
x,y,-z
-x,y,z
x,-y,z
1/2+x,1/2+y,1/2+z
1/2-x,1/2-y,1/2+z
1/2+x,1/2-y,1/2-z
1/2-x,1/2+y,1/2-z
1/2-x,1/2-y,1/2-z
1/2+x,1/2+y,1/2-z
1/2-x,1/2+y,1/2+z
1/2+x,1/2-y,1/2+z
loop_
_atom_site_type_symbol
_atom_site_label
_atom_site_fract_x
_atom_site_fract_y
_atom_site_fract_z
Si Si1 0.000000 0.649337 0.285740
Si Si2 0.416866 0.500000 0.799664
Si Si3 0.500000 0.745314 0.209771
Si Si4 0.148254 0.648265 0.701585
Si Si5 0.851010 0.249585 0.204192
Si Si6 0.793827 0.840147 0.788521
Si Si7 0.921876 0.097476 0.287913
O O1 0.925278 0.633049 0.221000
O O2 0.000000 0.645627 0.500000
O O3 0.000000 0.702024 0.246115
O O4 0.500000 0.500000 0.809541
O O5 0.400695 0.548146 0.719481
O O6 0.389583 0.500000 0.000000
O O7 0.572110 0.728715 0.282185
O O8 0.500000 0.739425 0.000000
O O9 0.148088 0.632601 0.500000
O O10 0.147595 0.702727 0.701454
O O11 0.223057 0.638078 0.780051
O O12 0.802589 0.210697 0.277214
O O13 0.836889 0.258251 0.000000
O O14 0.862015 0.868006 0.752624
O O15 0.787261 0.836554 0.000000
O O16 0.925985 0.094189 0.500000
O O17 0.000000 0.108513 0.227610
#
# Coordination Sequence:
#
# PCOD9518650 Si02
#       7
#     8   8   8  16  16  16  16
#     4   7  12  25  45  59  69  96 143 186 212 249
#     4   7  12  28  51  69  87 110 143 186 222 259
#     4   9  17  29  43  57  75 106 149 190 221 263
#     4   9  17  31  46  61  82 115 154 188 226 269
#     4  10  19  29  41  59  84 117 150 188 230 264
#     4  10  21  31  41  62  94 120 142 182 230 271
#     4   9  18  32  50  70  89 116 152 185 220 266
#
# _framework density 19.828226999999998
#
# number of rings (size 3 to 8) (size 9 to 14) (size 15 to 20)
#    0.000    3.000    0.000    3.545    1.273    2.545 
#    0.000    0.455    0.000    1.636    0.000    0.000 
#    0.000    0.727    0.000    9.091    0.000    0.727 
#
# Total GULP energy -245025.108166 kJ/mol
# GULP energy per Si atom -5568.752458 kJ/mol
# Density = 1.978310 g / cm^3
# Si number density = 19.828227 Si / 1000 Ang^3
#
#
#
# Elastic Constant Matrix: (Units=GPa)
#
#
# Indices 1 2 3 4 5 6 
#
# 1 145.6536 20.9695 0.4034 0.0000 0.0000 0.0000
# 2 20.9695 46.3728 -5.6805 0.0000 0.0000 0.0000
# 3 0.4034 -5.6805 48.6269 0.0000 -0.0002 0.0000
# 4 0.0000 0.0000 0.0000 -1.4937 0.0000 0.0000
# 5 0.0000 0.0000 -0.0002 0.0000 15.1571 0.0000
# 6 0.0000 0.0000 0.0000 0.0000 0.0000 15.6197
#
#
#
# Elastic Compliance Matrix: (Units=1/GPa)
#
#
# Indices 1 2 3 4 5 6 
#
# 1 0.007354 -0.003381 -0.000456 0.000000 0.000000 0.000000
# 2 -0.003381 0.023432 0.002765 0.000000 0.000000 0.000000
# 3 -0.000456 0.002765 0.020892 0.000001 0.000000 0.000000
# 4 0.000000 0.000000 0.000001 -0.669490 0.000000 0.000000
# 5 0.000000 0.000000 0.000000 0.000000 0.065976 0.000000
# 6 0.000000 0.000000 0.000000 0.000000 0.000000 0.064022
#
#
# Mechanical properties :
#
#
# Convention : Reuss Voigt Hill
#
# Bulk Modulus (GPa) = 20.18827 30.22644 25.20736
# Shear Modulus (GPa) = -10.65732 20.85403 5.09836
#
# Velocity S-wave (km/s) = -2.32088 3.24656 1.60526
# Velocity P-wave (km/s) = 1.73830 5.41579 4.02197
#
# Compressibility (1/GPa) = 0.04953372
#
# Stress axis : x y z
#
# Youngs Moduli (GPa) = 135.98707 42.67661 47.86623
#
# Poissons Ratio (x) = 0.14430 0.02183
# Poissons Ratio (y) = 0.45979 -0.13237
# Poissons Ratio (z) = 0.06201 -0.11802
#
# Static dielectric constant tensor:
#      x y z
#    x 1.814410 0.000000 0.000000 
#    y 0.000000 1.688290 0.000000 
#    z 0.000000 0.000000 1.747670 
# 
# From -- ./inp_files/8908.got.cif
#   From: 2010.05.17/outbox.cif.g08.bks.cpg/sg71_5_cif.got.tgz:8908.got - 2010.06.03 16:22:01.
