data_PCOD9518920
_publ_section_title
;
Structure prediction by ZEFSAII (Michael W. Deem and Ramdas Pophale) SiO2 
 PCOD9518920
Probable space group: I M M M
;
_chemical_formula_sum "Si O2"
_cell_formula_units_Z 104
_cell_length_a 32.743661
_cell_length_b 20.945158
_cell_length_c 9.092942
_cell_angle_alpha 90.000000
_cell_angle_beta 90.000000
_cell_angle_gamma 90.000000
_cell_volume 6236.131968
_symmetry_space_group_name_H-M "I M M M"
_symmetry_group_IT_number 71
_symmetry_cell_setting 'orthorhombic'
loop_
_space_group_symop_operation_xyz
x,y,z
-x,-y,z
x,-y,-z
-x,y,-z
-x,-y,-z
x,y,-z
-x,y,z
x,-y,z
1/2+x,1/2+y,1/2+z
1/2-x,1/2-y,1/2+z
1/2+x,1/2-y,1/2-z
1/2-x,1/2+y,1/2-z
1/2-x,1/2-y,1/2-z
1/2+x,1/2+y,1/2-z
1/2-x,1/2+y,1/2+z
1/2+x,1/2-y,1/2+z
loop_
_atom_site_type_symbol
_atom_site_label
_atom_site_fract_x
_atom_site_fract_y
_atom_site_fract_z
Si Si1 0.870640 0.305253 0.322863
Si Si2 0.164199 0.181846 0.828862
Si Si3 0.320159 0.928763 0.178674
Si Si4 0.454192 0.234754 0.322296
Si Si5 0.774481 0.927861 0.820891
Si Si6 0.426754 0.373130 0.668185
Si Si7 0.451382 0.500000 0.829688
O O1 0.872659 0.302428 0.500000
O O2 0.843652 0.245984 0.262950
O O3 0.849163 0.371156 0.275521
O O4 0.916053 0.299003 0.255443
O O5 0.197581 0.131206 0.772197
O O6 0.120773 0.145684 0.828850
O O7 0.173429 0.198229 0.000000
O O8 0.272835 0.918811 0.221753
O O9 0.332662 0.000000 0.227181
O O10 0.320394 0.928975 0.000000
O O11 0.448648 0.231687 0.500000
O O12 0.500000 0.211790 0.287216
O O13 0.450319 0.309654 0.280691
O O14 0.787226 0.000000 0.774850
O O15 0.776461 0.927734 0.000000
O O16 0.439108 0.385318 0.500000
O O17 0.434519 0.435971 0.758601
O O18 0.500000 0.500000 0.810868
O O19 0.441314 0.500000 0.000000
#
# Coordination Sequence:
#
# PCOD9518920 Si02
#       7
#    16  16  16  16  16  16   8
#     4  10  19  30  48  74 102 127 154 192 242 295
#     4   9  18  31  48  70  95 124 163 206 241 276
#     4   8  15  29  48  72  99 127 160 197 236 280
#     4   9  18  34  54  72  91 119 157 198 236 279
#     4   8  14  26  47  70  92 125 171 211 235 266
#     4   9  18  31  47  65  86 115 154 198 237 274
#     4  11  23  33  41  59  87 119 155 195 241 287
#
# _framework density 16.677005000000001
#
# number of rings (size 3 to 8) (size 9 to 14) (size 15 to 20)
#    0.000    3.000    0.000    3.000    1.077    4.615 
#    0.000    0.000    0.000    3.231    0.000    7.538 
#    0.000    0.000    0.000    0.000    0.000    0.000 
#
# Total GULP energy -289622.784567 kJ/mol
# GULP energy per Si atom -5569.668934 kJ/mol
# Density = 1.663905 g / cm^3
# Si number density = 16.677005 Si / 1000 Ang^3
#
#
#
# Elastic Constant Matrix: (Units=GPa)
#
#
# Indices 1 2 3 4 5 6 
#
# 1 93.6219 82.9632 25.4004 0.0000 0.0000 0.0000
# 2 82.9632 135.2947 36.8567 0.0000 0.0000 0.0000
# 3 25.4004 36.8567 28.6196 0.0000 0.0000 0.0000
# 4 0.0000 0.0000 0.0000 22.1302 0.0000 0.0000
# 5 0.0000 0.0000 0.0000 0.0000 16.8362 0.0000
# 6 0.0000 0.0000 0.0000 0.0000 0.0000 11.1746
#
#
#
# Elastic Compliance Matrix: (Units=1/GPa)
#
#
# Indices 1 2 3 4 5 6 
#
# 1 0.023626 -0.013518 -0.003560 0.000000 0.000000 0.000000
# 2 -0.013518 0.019120 -0.012626 0.000000 0.000000 0.000000
# 3 -0.003560 -0.012626 0.054360 0.000000 0.000000 0.000000
# 4 0.000000 0.000000 0.000000 0.045187 0.000000 0.000000
# 5 0.000000 0.000000 0.000000 0.000000 0.059396 0.000000
# 6 0.000000 0.000000 0.000000 0.000000 0.000000 0.089489
#
#
# Mechanical properties :
#
#
# Convention : Reuss Voigt Hill
#
# Bulk Modulus (GPa) = 26.52587 60.88632 43.70609
# Shear Modulus (GPa) = 13.76840 17.51592 15.64216
#
# Velocity S-wave (km/s) = 2.87643 3.24435 3.06592
# Velocity P-wave (km/s) = 5.19345 7.11497 6.22876
#
# Compressibility (1/GPa) = 0.03769905
#
# Stress axis : x y z
#
# Youngs Moduli (GPa) = 42.32664 52.30206 18.39580
#
# Poissons Ratio (x) = 0.70700 0.06549
# Poissons Ratio (y) = 0.57215 0.23226
# Poissons Ratio (z) = 0.15069 0.66034
#
# Static dielectric constant tensor:
#      x y z
#    x 1.567540 0.000000 0.000000 
#    y 0.000000 1.549360 0.000000 
#    z 0.000000 0.000000 1.564620 
# 
# From -- ./inp_files/17009.got.cif
#   From: 2010.05.17/outbox.cif.g08.bks.cpg/sg71_9_cif.got.tgz:17009.got - 2010.06.03 16:22:01.
