data_PCOD9518885
_publ_section_title
;
Structure prediction by ZEFSAII (Michael W. Deem and Ramdas Pophale) SiO2 
 PCOD9518885
Probable space group: I M M M
;
_chemical_formula_sum "Si O2"
_cell_formula_units_Z 128
_cell_length_a 17.221375
_cell_length_b 18.441984
_cell_length_c 23.686464
_cell_angle_alpha 90.000000
_cell_angle_beta 90.000000
_cell_angle_gamma 90.000000
_cell_volume 7522.733853
_symmetry_space_group_name_H-M "I M M M"
_symmetry_group_IT_number 71
_symmetry_cell_setting 'orthorhombic'
loop_
_space_group_symop_operation_xyz
x,y,z
-x,-y,z
x,-y,-z
-x,y,-z
-x,-y,-z
x,y,-z
-x,y,z
x,-y,z
1/2+x,1/2+y,1/2+z
1/2-x,1/2-y,1/2+z
1/2+x,1/2-y,1/2-z
1/2-x,1/2+y,1/2-z
1/2-x,1/2-y,1/2-z
1/2+x,1/2+y,1/2-z
1/2-x,1/2+y,1/2+z
1/2+x,1/2-y,1/2+z
loop_
_atom_site_type_symbol
_atom_site_label
_atom_site_fract_x
_atom_site_fract_y
_atom_site_fract_z
Si Si1 0.675847 0.825262 0.773450
Si Si2 0.700748 0.084634 0.563143
Si Si3 0.733603 0.913297 0.062374
Si Si4 0.908572 0.283869 0.065338
Si Si5 0.774842 0.912792 0.317742
Si Si6 0.911840 0.412800 0.632794
Si Si7 0.325392 0.675613 0.349872
Si Si8 0.091081 0.172113 0.741128
O O1 0.711652 0.869508 0.720681
O O2 0.623591 0.878943 0.810704
O O3 0.750054 0.802293 0.812193
O O4 0.624811 0.754332 0.761208
O O5 0.734149 0.098236 0.500000
O O6 0.625819 0.135372 0.568495
O O7 0.756222 0.099678 0.616313
O O8 0.680031 0.000000 0.566178
O O9 0.647560 0.891702 0.083154
O O10 0.793626 0.885379 0.108356
O O11 0.735675 0.000000 0.060953
O O12 0.749968 0.884677 0.000000
O O13 0.861135 0.237191 0.110585
O O14 0.000000 0.281268 0.077424
O O15 0.897082 0.259116 0.000000
O O16 0.856975 0.878286 0.299441
O O17 0.772029 0.000000 0.306911
O O18 0.910930 0.500000 0.636924
O O19 0.000000 0.389045 0.623320
O O20 0.388629 0.648499 0.305095
O O21 0.000000 0.170224 0.729295
#
# Coordination Sequence:
#
# PCOD9518885 Si02
#       8
#    16  16  16  16  16  16  16  16
#     4  10  19  33  52  73  98 132 168 202 243 293
#     4   9  18  33  53  75  98 127 162 199 241 290
#     4   9  18  32  50  71  95 128 168 205 242 286
#     4  10  19  30  47  71  99 129 159 196 240 284
#     4  10  20  35  54  75 100 130 167 207 245 294
#     4   9  17  29  47  73 104 133 161 200 247 291
#     4  10  19  32  50  71  96 128 166 203 239 286
#     4  11  22  34  52  76 102 132 163 204 255 300
#
# _framework density 17.015091000000002
#
# number of rings (size 3 to 8) (size 9 to 14) (size 15 to 20)
#    0.000    2.250    0.000    4.500    0.000    3.750 
#    0.000    3.125    0.000    3.000    0.000    6.125 
#    0.000    0.000    0.000    0.000    0.000    0.000 
#
# Total GULP energy -356682.100829 kJ/mol
# GULP energy per Si atom -5573.157825 kJ/mol
# Density = 1.697636 g / cm^3
# Si number density = 17.015091 Si / 1000 Ang^3
#
#
#
# Elastic Constant Matrix: (Units=GPa)
#
#
# Indices 1 2 3 4 5 6 
#
# 1 89.3766 44.0390 47.7230 0.0000 0.0000 0.0000
# 2 44.0390 53.8161 43.6871 0.0000 0.0000 0.0000
# 3 47.7230 43.6871 116.1186 0.0000 0.0000 0.0000
# 4 0.0000 0.0000 0.0000 25.4250 0.0000 0.0000
# 5 0.0000 0.0000 0.0000 0.0000 15.0818 0.0000
# 6 0.0000 0.0000 0.0000 0.0000 0.0000 17.3265
#
#
#
# Elastic Compliance Matrix: (Units=1/GPa)
#
#
# Indices 1 2 3 4 5 6 
#
# 1 0.019394 -0.013534 -0.002879 0.000000 0.000000 0.000000
# 2 -0.013534 0.036197 -0.008056 0.000000 0.000000 0.000000
# 3 -0.002879 -0.008056 0.012826 0.000000 0.000000 0.000000
# 4 0.000000 0.000000 0.000000 0.039331 0.000000 0.000000
# 5 0.000000 0.000000 0.000000 0.000000 0.066305 0.000000
# 6 0.000000 0.000000 0.000000 0.000000 0.000000 0.057715
#
#
# Mechanical properties :
#
#
# Convention : Reuss Voigt Hill
#
# Bulk Modulus (GPa) = 51.33625 58.91216 55.12420
# Shear Modulus (GPa) = 17.40953 19.82416 18.61685
#
# Velocity S-wave (km/s) = 3.20219 3.41705 3.31136
# Velocity P-wave (km/s) = 6.62635 7.08992 6.86205
#
# Compressibility (1/GPa) = 0.01947941
#
# Stress axis : x y z
#
# Youngs Moduli (GPa) = 51.56121 27.62693 77.96654
#
# Poissons Ratio (x) = 0.37390 0.22447
# Poissons Ratio (y) = 0.69782 0.62810
# Poissons Ratio (z) = 0.14845 0.22256
#
# Static dielectric constant tensor:
#      x y z
#    x 1.557500 0.000000 0.000000 
#    y 0.000000 1.580400 0.000000 
#    z 0.000000 0.000000 1.603120 
# 
# From -- ./inp_files/60903.got.cif
#   From: 2010.05.17/outbox.cif.g08.bks.cpg/sg71_31_cif.got.tgz:60903.got - 2010.06.03 16:22:01.
