data_PCOD9518818
_publ_section_title
;
Structure prediction by ZEFSAII (Michael W. Deem and Ramdas Pophale) SiO2 
 PCOD9518818
Probable space group: I M M M
;
_chemical_formula_sum "Si O2"
_cell_formula_units_Z 88
_cell_length_a 17.528051
_cell_length_b 7.332743
_cell_length_c 31.218262
_cell_angle_alpha 90.000000
_cell_angle_beta 90.000000
_cell_angle_gamma 90.000000
_cell_volume 4012.442421
_symmetry_space_group_name_H-M "I M M M"
_symmetry_group_IT_number 71
_symmetry_cell_setting 'orthorhombic'
loop_
_space_group_symop_operation_xyz
x,y,z
-x,-y,z
x,-y,-z
-x,y,-z
-x,-y,-z
x,y,-z
-x,y,z
x,-y,z
1/2+x,1/2+y,1/2+z
1/2-x,1/2-y,1/2+z
1/2+x,1/2-y,1/2-z
1/2-x,1/2+y,1/2-z
1/2-x,1/2-y,1/2-z
1/2+x,1/2+y,1/2-z
1/2-x,1/2+y,1/2+z
1/2+x,1/2-y,1/2+z
loop_
_atom_site_type_symbol
_atom_site_label
_atom_site_fract_x
_atom_site_fract_y
_atom_site_fract_z
Si Si1 0.190627 0.223428 0.625363
Si Si2 0.087574 0.221702 0.546807
Si Si3 0.091269 0.792678 0.799100
Si Si4 0.000000 0.276859 0.949671
Si Si5 0.589017 0.277089 0.794567
Si Si6 0.640751 0.794256 0.607883
O O1 0.137374 0.280265 0.586299
O O2 0.148529 0.280025 0.669060
O O3 0.275544 0.288382 0.614250
O O4 0.193564 0.000000 0.627410
O O5 0.116051 0.278304 0.500000
O O6 0.000000 0.278877 0.551236
O O7 0.087513 0.000000 0.547314
O O8 0.115140 0.716866 0.752892
O O9 0.110064 0.698539 0.843522
O O10 0.000000 0.799216 0.795785
O O11 0.120291 0.000000 0.802873
O O12 0.924558 0.215450 0.923265
O O13 0.000000 0.500000 0.947888
O O14 0.000000 0.225986 0.000000
O O15 0.500000 0.223102 0.802720
O O16 0.587810 0.500000 0.793664
O O17 0.653064 0.000000 0.591498
#
# Coordination Sequence:
#
# PCOD9518818 Si02
#       6
#    16  16  16   8  16  16
#     4   9  16  24  37  60  88 115 146 183 219 262
#     4   8  13  21  34  54  83 118 148 175 214 260
#     4   9  17  30  48  65  84 115 152 184 217 264
#     4   9  18  32  47  63  87 119 151 183 224 271
#     4   8  14  25  41  61  85 115 147 178 216 263
#     4  10  19  30  46  67  89 115 147 184 225 265
#
# _framework density 21.93178
#
# number of rings (size 3 to 8) (size 9 to 14) (size 15 to 20)
#    0.000    3.182    0.909    2.182    0.000    3.636 
#    0.000    3.636    0.000    1.091    0.000    0.000 
#    0.000    2.182    0.000    2.000    0.000    3.455 
#
# Total GULP energy -245313.826008 kJ/mol
# GULP energy per Si atom -5575.314227 kJ/mol
# Density = 2.188186 g / cm^3
# Si number density = 21.931780 Si / 1000 Ang^3
#
#
#
# Elastic Constant Matrix: (Units=GPa)
#
#
# Indices 1 2 3 4 5 6 
#
# 1 104.0369 2.9322 97.3757 0.0000 0.0000 0.0000
# 2 2.9322 81.8800 3.5252 0.0000 0.0000 0.0000
# 3 97.3757 3.5252 202.4374 0.0000 0.0000 0.0000
# 4 0.0000 0.0000 0.0000 -49.0732 0.0000 0.0000
# 5 0.0000 0.0000 0.0000 0.0000 59.5009 0.0000
# 6 0.0000 0.0000 0.0000 0.0000 0.0000 -12.8437
#
#
#
# Elastic Compliance Matrix: (Units=1/GPa)
#
#
# Indices 1 2 3 4 5 6 
#
# 1 0.017489 -0.000264 -0.008408 0.000000 0.000000 0.000000
# 2 -0.000264 0.012226 -0.000086 0.000000 0.000000 0.000000
# 3 -0.008408 -0.000086 0.008986 0.000000 0.000000 0.000000
# 4 0.000000 0.000000 0.000000 -0.020378 0.000000 0.000000
# 5 0.000000 0.000000 0.000000 0.000000 0.016806 0.000000
# 6 0.000000 0.000000 0.000000 0.000000 0.000000 -0.077859
#
#
# Mechanical properties :
#
#
# Convention : Reuss Voigt Hill
#
# Bulk Modulus (GPa) = 47.20359 66.22450 56.71405
# Shear Modulus (GPa) = -275.44480 18.48491 -128.47995
#
# Velocity S-wave (km/s) = -11.21892 2.90631 -7.66217
# Velocity P-wave (km/s) = 12.09336 6.44387 7.23623
#
# Compressibility (1/GPa) = 0.02118483
#
# Stress axis : x y z
#
# Youngs Moduli (GPa) = 57.17889 81.79186 111.28899
#
# Poissons Ratio (x) = 0.02162 0.93570
# Poissons Ratio (y) = 0.01511 0.00954
# Poissons Ratio (z) = 0.48075 0.00701
#
# Static dielectric constant tensor:
#      x y z
#    x 1.779460 0.000000 0.000000 
#    y 0.000000 1.887560 0.000000 
#    z 0.000000 0.000000 1.779510 
# 
# From -- ./inp_files/30136.got.cif
#   From: 2010.05.17/outbox.cif.g08.bks.cpg/sg71_16_cif.got.tgz:30136.got - 2010.06.03 16:22:01.
