data_PCOD9518855
_publ_section_title
;
Structure prediction by ZEFSAII (Michael W. Deem and Ramdas Pophale) SiO2 
 PCOD9518855
Probable space group: I M M M
;
_chemical_formula_sum "Si O2"
_cell_formula_units_Z 88
_cell_length_a 31.769482
_cell_length_b 14.091237
_cell_length_c 11.133785
_cell_angle_alpha 90.000000
_cell_angle_beta 90.000000
_cell_angle_gamma 90.000000
_cell_volume 4984.276007
_symmetry_space_group_name_H-M "I M M M"
_symmetry_group_IT_number 71
_symmetry_cell_setting 'orthorhombic'
loop_
_space_group_symop_operation_xyz
x,y,z
-x,-y,z
x,-y,-z
-x,y,-z
-x,-y,-z
x,y,-z
-x,y,z
x,-y,z
1/2+x,1/2+y,1/2+z
1/2-x,1/2-y,1/2+z
1/2+x,1/2-y,1/2-z
1/2-x,1/2+y,1/2-z
1/2-x,1/2-y,1/2-z
1/2+x,1/2+y,1/2-z
1/2-x,1/2+y,1/2+z
1/2+x,1/2-y,1/2+z
loop_
_atom_site_type_symbol
_atom_site_label
_atom_site_fract_x
_atom_site_fract_y
_atom_site_fract_z
Si Si1 0.449762 0.112009 0.000000
Si Si2 0.453496 0.892469 0.642620
Si Si3 0.393148 0.796685 0.797910
Si Si4 0.696731 0.114728 0.862750
Si Si5 0.147835 0.108105 0.643470
Si Si6 0.754155 0.884687 0.637089
O O1 0.428773 0.165865 0.888572
O O2 0.500000 0.118173 0.000000
O O3 0.438231 0.000000 0.000000
O O4 0.455644 0.898887 0.500000
O O5 0.500000 0.858568 0.683845
O O6 0.413273 0.830566 0.674635
O O7 0.448057 0.000000 0.691087
O O8 0.349992 0.847978 0.835601
O O9 0.382935 0.685818 0.802141
O O10 0.726349 0.146011 0.751416
O O11 0.696547 0.000000 0.862276
O O12 0.708681 0.144183 0.000000
O O13 0.141074 0.108665 0.500000
O O14 0.196691 0.137413 0.659804
O O15 0.142507 0.000000 0.686611
O O16 0.742658 0.853075 0.500000
O O17 0.751758 0.000000 0.633755
#
# Coordination Sequence:
#
# PCOD9518855 Si02
#       6
#     8  16  16  16  16  16
#     4  11  22  34  51  79 111 137 162 200 261 339
#     4   9  19  36  56  78 106 139 172 207 254 321
#     4  12  20  32  53  79 104 138 175 215 266 321
#     4  10  19  30  46  74 113 142 166 216 281 333
#     4   9  18  35  55  74 101 140 187 231 266 306
#     4   8  16  32  52  71  97 141 189 225 262 317
#
# _framework density 17.655522999999999
#
# number of rings (size 3 to 8) (size 9 to 14) (size 15 to 20)
#    0.000    2.273    1.818    3.818    0.000    2.909 
#    0.000    2.727    0.000    4.364    0.000    1.273 
#    0.000    0.000    0.000    0.000    0.000    0.000 
#
# Total GULP energy -245226.841517 kJ/mol
# GULP energy per Si atom -5573.337307 kJ/mol
# Density = 1.761534 g / cm^3
# Si number density = 17.655523 Si / 1000 Ang^3
#
#
#
# Elastic Constant Matrix: (Units=GPa)
#
#
# Indices 1 2 3 4 5 6 
#
# 1 89.4104 55.0447 51.8139 0.0000 0.0000 0.0000
# 2 55.0447 82.5782 37.0604 0.0000 0.0000 0.0000
# 3 51.8139 37.0604 87.3299 0.0000 0.0000 0.0000
# 4 0.0000 0.0000 0.0000 8.2137 0.0000 0.0000
# 5 0.0000 0.0000 0.0000 0.0000 32.4325 0.0000
# 6 0.0000 0.0000 0.0000 0.0000 0.0000 25.2804
#
#
#
# Elastic Compliance Matrix: (Units=1/GPa)
#
#
# Indices 1 2 3 4 5 6 
#
# 1 0.023628 -0.011683 -0.009061 0.000000 0.000000 0.000000
# 2 -0.011683 0.020736 -0.001868 0.000000 0.000000 0.000000
# 3 -0.009061 -0.001868 0.017619 0.000000 0.000000 0.000000
# 4 0.000000 0.000000 0.000000 0.121747 0.000000 0.000000
# 5 0.000000 0.000000 0.000000 0.000000 0.030833 0.000000
# 6 0.000000 0.000000 0.000000 0.000000 0.000000 0.039556
#
#
# Mechanical properties :
#
#
# Convention : Reuss Voigt Hill
#
# Bulk Modulus (GPa) = 59.66827 60.79516 60.23172
# Shear Modulus (GPa) = 16.39721 20.87864 18.63792
#
# Velocity S-wave (km/s) = 3.05081 3.44256 3.25259
# Velocity P-wave (km/s) = 6.80288 7.09299 6.94945
#
# Compressibility (1/GPa) = 0.01675933
#
# Stress axis : x y z
#
# Youngs Moduli (GPa) = 42.32296 48.22551 56.75625
#
# Poissons Ratio (x) = 0.56344 0.51424
# Poissons Ratio (y) = 0.49448 0.10601
# Poissons Ratio (z) = 0.38347 0.09008
#
# Static dielectric constant tensor:
#      x y z
#    x 1.578090 0.000000 0.000000 
#    y 0.000000 1.627780 0.000000 
#    z 0.000000 0.000000 1.719510 
# 
# From -- ./inp_files/28625.got.cif
#   From: 2010.05.17/outbox.cif.g08.bks.cpg/sg71_15_cif.got.tgz:28625.got - 2010.06.03 16:22:01.
