data_PCOD9518679
_publ_section_title
;
Structure prediction by ZEFSAII (Michael W. Deem and Ramdas Pophale) SiO2 
 PCOD9518679
Probable space group: I M M M
;
_chemical_formula_sum "Si O2"
_cell_formula_units_Z 56
_cell_length_a 14.167785
_cell_length_b 30.344070
_cell_length_c 8.507200
_cell_angle_alpha 90.000000
_cell_angle_beta 90.000000
_cell_angle_gamma 90.000000
_cell_volume 3657.315548
_symmetry_space_group_name_H-M "I M M M"
_symmetry_group_IT_number 71
_symmetry_cell_setting 'orthorhombic'
loop_
_space_group_symop_operation_xyz
x,y,z
-x,-y,z
x,-y,-z
-x,y,-z
-x,-y,-z
x,y,-z
-x,y,z
x,-y,z
1/2+x,1/2+y,1/2+z
1/2-x,1/2-y,1/2+z
1/2+x,1/2-y,1/2-z
1/2-x,1/2+y,1/2-z
1/2-x,1/2-y,1/2-z
1/2+x,1/2+y,1/2-z
1/2-x,1/2+y,1/2+z
1/2+x,1/2-y,1/2+z
loop_
_atom_site_type_symbol
_atom_site_label
_atom_site_fract_x
_atom_site_fract_y
_atom_site_fract_z
Si Si1 0.392229 0.229648 0.689932
Si Si2 0.385321 0.500000 0.818213
Si Si3 0.109298 0.096234 0.309582
Si Si4 0.714416 0.318706 0.312068
O O1 0.390089 0.228272 0.500000
O O2 0.500000 0.223705 0.741769
O O3 0.352407 0.277688 0.738837
O O4 0.318729 0.193947 0.754080
O O5 0.500000 0.500000 0.820835
O O6 0.359069 0.452320 0.750089
O O7 0.353284 0.500000 0.000000
O O8 0.109558 0.094658 0.500000
O O9 0.173904 0.135957 0.253692
O O10 0.000000 0.103601 0.260631
O O11 0.713271 0.320231 0.500000
#
# Coordination Sequence:
#
# PCOD9518679 Si02
#       4
#    16   8  16  16
#     4   9  18  32  46  60  83 115 148 179 208 244
#     4   7  12  24  41  61  84 111 144 177 205 240
#     4   9  16  27  44  64  87 116 147 176 207 247
#     4  10  19  29  43  65  90 113 140 175 215 256
#
# _framework density 15.311778
#
# number of rings (size 3 to 8) (size 9 to 14) (size 15 to 20)
#    0.000    3.000    0.000    3.429    0.000    3.429 
#    0.000    0.714    0.000    2.571    0.000    1.000 
#    0.000    8.000    0.000    0.000    0.000    0.000 
#
# Total GULP energy -155924.558172 kJ/mol
# GULP energy per Si atom -5568.734220 kJ/mol
# Density = 1.527693 g / cm^3
# Si number density = 15.311778 Si / 1000 Ang^3
#
#
#
# Elastic Constant Matrix: (Units=GPa)
#
#
# Indices 1 2 3 4 5 6 
#
# 1 115.7408 77.9179 21.3226 -0.0002 0.0000 0.0000
# 2 77.9179 155.7039 21.5571 -0.0002 0.0000 0.0000
# 3 21.3226 21.5571 10.4360 -0.0006 0.0034 0.0001
# 4 -0.0002 -0.0002 -0.0006 18.5076 0.0004 0.0001
# 5 0.0000 0.0000 0.0034 0.0004 14.8787 -0.0003
# 6 0.0000 0.0000 0.0001 0.0001 -0.0003 25.3958
#
#
#
# Elastic Compliance Matrix: (Units=1/GPa)
#
#
# Indices 1 2 3 4 5 6 
#
# 1 0.016167 -0.004926 -0.022857 -0.000001 0.000005 0.000000
# 2 -0.004926 0.010496 -0.011616 0.000000 0.000003 0.000000
# 3 -0.022857 -0.011616 0.166518 0.000005 -0.000038 0.000000
# 4 -0.000001 0.000000 0.000005 0.054032 -0.000002 0.000000
# 5 0.000005 0.000003 -0.000038 -0.000002 0.067210 0.000001
# 6 0.000000 0.000000 0.000000 0.000000 0.000001 0.039377
#
#
# Mechanical properties :
#
#
# Convention : Reuss Voigt Hill
#
# Bulk Modulus (GPa) = 8.74260 58.16401 33.45330
# Shear Modulus (GPa) = 10.62193 22.49529 16.55861
#
# Velocity S-wave (km/s) = 2.63669 3.83711 3.29208
# Velocity P-wave (km/s) = 3.87191 7.59606 6.02875
#
# Compressibility (1/GPa) = 0.11438246
#
# Stress axis : x y z
#
# Youngs Moduli (GPa) = 61.85446 95.27735 6.00537
#
# Poissons Ratio (x) = 0.46932 0.13726
# Poissons Ratio (y) = 0.30468 0.06976
# Poissons Ratio (z) = 1.41381 1.10675
#
# Static dielectric constant tensor:
#      x y z
#    x 1.485010 0.000000 0.000000 
#    y 0.000000 1.524870 0.000000 
#    z 0.000000 0.000000 1.521990 
# 
# From -- ./inp_files/3292.got.cif
#   From: 2010.05.17/outbox.cif.g08.bks.cpg/sg71_2_cif.got.tgz:3292.got - 2010.06.03 16:22:01.
