data_PCOD9518698
_publ_section_title
;
Structure prediction by ZEFSAII (Michael W. Deem and Ramdas Pophale) SiO2 
 PCOD9518698
Probable space group: I M M M
;
_chemical_formula_sum "Si O2"
_cell_formula_units_Z 88
_cell_length_a 20.482866
_cell_length_b 9.341972
_cell_length_c 24.690334
_cell_angle_alpha 90.000000
_cell_angle_beta 90.000000
_cell_angle_gamma 90.000000
_cell_volume 4724.504316
_symmetry_space_group_name_H-M "I M M M"
_symmetry_group_IT_number 71
_symmetry_cell_setting 'orthorhombic'
loop_
_space_group_symop_operation_xyz
x,y,z
-x,-y,z
x,-y,-z
-x,y,-z
-x,-y,-z
x,y,-z
-x,y,z
x,-y,z
1/2+x,1/2+y,1/2+z
1/2-x,1/2-y,1/2+z
1/2+x,1/2-y,1/2-z
1/2-x,1/2+y,1/2-z
1/2-x,1/2-y,1/2-z
1/2+x,1/2+y,1/2-z
1/2-x,1/2+y,1/2+z
1/2+x,1/2-y,1/2+z
loop_
_atom_site_type_symbol
_atom_site_label
_atom_site_fract_x
_atom_site_fract_y
_atom_site_fract_z
Si Si1 0.198033 0.834722 0.786204
Si Si2 0.874160 0.161303 0.434727
Si Si3 0.500000 0.163336 0.933825
Si Si4 0.748561 0.340394 0.590880
Si Si5 0.574231 0.829643 0.328544
Si Si6 0.898020 0.170015 0.060352
O O1 0.250000 0.750000 0.750000
O O2 0.228628 0.839458 0.846352
O O3 0.129236 0.752027 0.793552
O O4 0.188784 0.000000 0.768391
O O5 0.877935 0.157697 0.500000
O O6 0.805237 0.229475 0.420035
O O7 0.680500 0.312412 0.439198
O O8 0.879822 0.000000 0.414280
O O9 0.434859 0.243968 0.915549
O O10 0.500000 0.000000 0.915973
O O11 0.500000 0.164200 0.000000
O O12 0.771685 0.500000 0.575595
O O13 0.500000 0.809796 0.308411
O O14 0.577191 0.762824 0.389313
O O15 0.588088 0.000000 0.330553
O O16 0.910891 0.000000 0.070156
O O17 0.922228 0.206152 0.000000
#
# Coordination Sequence:
#
# PCOD9518698 Si02
#       6
#    16  16   8  16  16  16
#     4  10  21  38  61  84 106 135 174 222 273 326
#     4  10  19  29  44  69 100 132 167 209 254 301
#     4   9  17  29  45  63  87 127 171 205 245 299
#     4   9  18  32  50  73 100 132 170 211 258 312
#     4  10  21  36  55  81 113 148 185 226 272 324
#     4   9  18  32  50  75 109 148 188 227 265 311
#
# _framework density 18.626291999999999
#
# number of rings (size 3 to 8) (size 9 to 14) (size 15 to 20)
#    0.000    2.455    0.000    3.545    0.000    8.727 
#    0.000    1.818    2.000    0.000    0.000    0.000 
#    0.000    0.000    0.000    0.000    0.000    0.000 
#
# Total GULP energy -245434.410097 kJ/mol
# GULP energy per Si atom -5578.054775 kJ/mol
# Density = 1.858390 g / cm^3
# Si number density = 18.626292 Si / 1000 Ang^3
#
#
#
# Elastic Constant Matrix: (Units=GPa)
#
#
# Indices 1 2 3 4 5 6 
#
# 1 126.7027 94.6184 27.0707 0.0000 0.0000 0.0000
# 2 94.6184 153.6835 21.8699 0.0000 0.0000 0.0000
# 3 27.0707 21.8699 46.0174 0.0000 0.0000 0.0000
# 4 0.0000 0.0000 0.0000 24.0040 0.0000 0.0000
# 5 0.0000 0.0000 0.0000 0.0000 9.4480 0.0000
# 6 0.0000 0.0000 0.0000 0.0000 0.0000 32.5034
#
#
#
# Elastic Compliance Matrix: (Units=1/GPa)
#
#
# Indices 1 2 3 4 5 6 
#
# 1 0.015592 -0.008896 -0.004945 0.000000 0.000000 0.000000
# 2 -0.008896 0.012054 -0.000496 0.000000 0.000000 0.000000
# 3 -0.004945 -0.000496 0.024875 0.000000 0.000000 0.000000
# 4 0.000000 0.000000 0.000000 0.041660 0.000000 0.000000
# 5 0.000000 0.000000 0.000000 0.000000 0.105843 0.000000
# 6 0.000000 0.000000 0.000000 0.000000 0.000000 0.030766
#
#
# Mechanical properties :
#
#
# Convention : Reuss Voigt Hill
#
# Bulk Modulus (GPa) = 41.92979 68.16908 55.04944
# Shear Modulus (GPa) = 18.69770 25.38073 22.03921
#
# Velocity S-wave (km/s) = 3.17177 3.69539 3.44354
# Velocity P-wave (km/s) = 5.99779 7.40848 6.74014
#
# Compressibility (1/GPa) = 0.02384939
#
# Stress axis : x y z
#
# Youngs Moduli (GPa) = 64.13420 82.95688 40.20060
#
# Poissons Ratio (x) = 0.73799 0.19878
# Poissons Ratio (y) = 0.57054 0.01992
# Poissons Ratio (z) = 0.31712 0.04111
#
# Static dielectric constant tensor:
#      x y z
#    x 1.634320 0.000000 0.000000 
#    y 0.000000 1.643790 0.000000 
#    z 0.000000 0.000000 1.644420 
# 
# From -- ./inp_files/42427.got.cif
#   From: 2010.05.17/outbox.cif.g08.bks.cpg/sg71_22_cif.got.tgz:42427.got - 2010.06.03 16:22:01.
