data_PCOD9518969
_publ_section_title
;
Structure prediction by ZEFSAII (Michael W. Deem and Ramdas Pophale) SiO2 
 PCOD9518969
Probable space group: I M M M
;
_chemical_formula_sum "Si O2"
_cell_formula_units_Z 80
_cell_length_a 11.580406
_cell_length_b 22.839566
_cell_length_c 17.179590
_cell_angle_alpha 90.000000
_cell_angle_beta 90.000000
_cell_angle_gamma 90.000000
_cell_volume 4543.854620
_symmetry_space_group_name_H-M "I M M M"
_symmetry_group_IT_number 71
_symmetry_cell_setting 'orthorhombic'
loop_
_space_group_symop_operation_xyz
x,y,z
-x,-y,z
x,-y,-z
-x,y,-z
-x,-y,-z
x,y,-z
-x,y,z
x,-y,z
1/2+x,1/2+y,1/2+z
1/2-x,1/2-y,1/2+z
1/2+x,1/2-y,1/2-z
1/2-x,1/2+y,1/2-z
1/2-x,1/2-y,1/2-z
1/2+x,1/2+y,1/2-z
1/2-x,1/2+y,1/2+z
1/2+x,1/2-y,1/2+z
loop_
_atom_site_type_symbol
_atom_site_label
_atom_site_fract_x
_atom_site_fract_y
_atom_site_fract_z
Si Si1 0.223432 0.833289 0.181680
Si Si2 0.000000 0.160846 0.093265
Si Si3 0.361713 0.934005 0.264850
Si Si4 0.634847 0.720560 0.155300
Si Si5 0.000000 0.296271 0.093196
Si Si6 0.782141 0.374216 0.910311
O O1 0.310845 0.883710 0.209461
O O2 0.291325 0.779570 0.140920
O O3 0.167840 0.804464 0.259331
O O4 0.119941 0.860169 0.130414
O O5 0.000000 0.229651 0.117463
O O6 0.000000 0.155584 0.000000
O O7 0.500000 0.927318 0.275411
O O8 0.295987 0.925269 0.347627
O O9 0.341166 0.000000 0.236130
O O10 0.500000 0.733617 0.151546
O O11 0.671209 0.667112 0.099227
O O12 0.886090 0.330735 0.116224
O O13 0.000000 0.295622 0.000000
O O14 0.798415 0.391734 0.000000
#
# Coordination Sequence:
#
# PCOD9518969 Si02
#       6
#    16   8  16  16   8  16
#     4  10  20  33  52  78 107 134 175 224 266 315
#     4  11  20  34  57  83 108 135 168 216 278 326
#     4  10  21  36  55  77 103 141 184 223 262 304
#     4  10  19  30  50  77 108 145 178 209 261 319
#     4   9  16  28  47  77 111 138 160 201 260 306
#     4  10  19  31  50  78 114 146 175 212 255 308
#
# _framework density 17.606197000000002
#
# number of rings (size 3 to 8) (size 9 to 14) (size 15 to 20)
#    0.000    2.000    4.000    0.600    0.000    0.800 
#    0.000    1.500    0.000    3.000    0.000    4.200 
#    0.000    0.000    0.000    0.000    0.000    0.000 
#
# Total GULP energy -222925.459454 kJ/mol
# GULP energy per Si atom -5573.136486 kJ/mol
# Density = 1.756612 g / cm^3
# Si number density = 17.606197 Si / 1000 Ang^3
#
#
#
# Elastic Constant Matrix: (Units=GPa)
#
#
# Indices 1 2 3 4 5 6 
#
# 1 91.4928 24.8644 13.5500 0.0000 0.0000 0.0000
# 2 24.8644 68.1991 15.2024 0.0000 0.0000 0.0000
# 3 13.5500 15.2024 46.0815 0.0000 0.0000 0.0000
# 4 0.0000 0.0000 0.0000 13.2117 0.0000 0.0000
# 5 0.0000 0.0000 0.0000 0.0000 22.8984 0.0000
# 6 0.0000 0.0000 0.0000 0.0000 0.0000 22.9427
#
#
#
# Elastic Compliance Matrix: (Units=1/GPa)
#
#
# Indices 1 2 3 4 5 6 
#
# 1 0.012357 -0.003989 -0.002318 0.000000 0.000000 0.000000
# 2 -0.003989 0.017114 -0.004473 0.000000 0.000000 0.000000
# 3 -0.002318 -0.004473 0.023858 0.000000 0.000000 0.000000
# 4 0.000000 0.000000 0.000000 0.075691 0.000000 0.000000
# 5 0.000000 0.000000 0.000000 0.000000 0.043671 0.000000
# 6 0.000000 0.000000 0.000000 0.000000 0.000000 0.043587
#
#
# Mechanical properties :
#
#
# Convention : Reuss Voigt Hill
#
# Bulk Modulus (GPa) = 31.47596 34.77855 33.12726
# Shear Modulus (GPa) = 20.12663 21.95431 21.04047
#
# Velocity S-wave (km/s) = 3.38473 3.53507 3.46072
# Velocity P-wave (km/s) = 5.76123 6.03811 5.90129
#
# Compressibility (1/GPa) = 0.03177027
#
# Stress axis : x y z
#
# Youngs Moduli (GPa) = 80.92577 58.43081 41.91480
#
# Poissons Ratio (x) = 0.23305 0.09714
# Poissons Ratio (y) = 0.32278 0.18750
# Poissons Ratio (z) = 0.18756 0.26138
#
# Static dielectric constant tensor:
#      x y z
#    x 1.635060 0.000000 0.000000 
#    y 0.000000 1.589360 0.000000 
#    z 0.000000 0.000000 1.608620 
# 
# From -- ./inp_files/23806.got.cif
#   From: 2010.05.17/outbox.cif.g08.bks.cpg/sg71_12_cif.got.tgz:23806.got - 2010.06.03 16:22:01.
