data_PCOD9518371
_publ_section_title
;
Structure prediction by ZEFSAII (Michael W. Deem and Ramdas Pophale) SiO2 
 PCOD9518371
Probable space group: I M M M
;
_chemical_formula_sum "Si O2"
_cell_formula_units_Z 128
_cell_length_a 17.395008
_cell_length_b 22.176456
_cell_length_c 18.717488
_cell_angle_alpha 90.000000
_cell_angle_beta 90.000000
_cell_angle_gamma 90.000000
_cell_volume 7220.451237
_symmetry_space_group_name_H-M "I M M M"
_symmetry_group_IT_number 71
_symmetry_cell_setting 'orthorhombic'
loop_
_space_group_symop_operation_xyz
x,y,z
-x,-y,z
x,-y,-z
-x,y,-z
-x,-y,-z
x,y,-z
-x,y,z
x,-y,z
1/2+x,1/2+y,1/2+z
1/2-x,1/2-y,1/2+z
1/2+x,1/2-y,1/2-z
1/2-x,1/2+y,1/2-z
1/2-x,1/2-y,1/2-z
1/2+x,1/2+y,1/2-z
1/2-x,1/2+y,1/2+z
1/2+x,1/2-y,1/2+z
loop_
_atom_site_type_symbol
_atom_site_label
_atom_site_fract_x
_atom_site_fract_y
_atom_site_fract_z
Si Si1 0.916012 0.729125 0.228920
Si Si2 0.382099 0.194665 0.420351
Si Si3 0.589786 0.331013 0.158519
Si Si4 0.589794 0.072334 0.916904
Si Si5 0.794348 0.069948 0.700395
Si Si6 0.715529 0.747086 0.919287
Si Si7 0.300273 0.853690 0.188087
Si Si8 0.841030 0.433453 0.083150
O O1 0.914378 0.733103 0.144051
O O2 0.904546 0.792384 0.268235
O O3 0.851255 0.682798 0.254299
O O4 0.000000 0.706461 0.252434
O O5 0.407952 0.210415 0.500000
O O6 0.289939 0.204285 0.418213
O O7 0.395818 0.123852 0.406237
O O8 0.500000 0.335786 0.138889
O O9 0.632025 0.394150 0.171060
O O10 0.640773 0.290616 0.104529
O O11 0.500000 0.088007 0.904956
O O12 0.644441 0.105750 0.861341
O O13 0.596919 0.000000 0.909288
O O14 0.607758 0.087146 0.000000
O O15 0.759962 0.105999 0.768384
O O16 0.728949 0.070957 0.638682
O O17 0.809828 0.000000 0.717249
O O18 0.730903 0.801325 0.864152
O O19 0.705734 0.769773 0.000000
O O20 0.876390 0.500000 0.092518
O O21 0.814855 0.429332 0.000000
#
# Coordination Sequence:
#
# PCOD9518371 Si02
#       8
#    16  16  16  16  16  16  16  16
#     4  10  20  33  49  72 101 134 166 201 252 306
#     4  10  18  32  52  72  97 128 164 207 251 299
#     4  10  21  36  52  72 105 141 171 214 264 311
#     4   9  18  32  48  67  96 133 166 199 247 305
#     4  11  21  33  54  78 101 136 180 221 262 307
#     4  10  20  33  52  77 101 131 167 207 262 319
#     4  11  19  32  50  74 103 131 168 213 253 305
#     4   9  17  30  49  71  96 129 166 203 247 296
#
# _framework density 17.727423000000002
#
# number of rings (size 3 to 8) (size 9 to 14) (size 15 to 20)
#    0.000    2.000    2.500    2.250    0.000    3.250 
#    0.000    0.000    0.000    1.125    0.000    4.375 
#    0.000    0.000    0.000   15.875    0.000    0.000 
#
# Total GULP energy -356903.436556 kJ/mol
# GULP energy per Si atom -5576.616196 kJ/mol
# Density = 1.768707 g / cm^3
# Si number density = 17.727423 Si / 1000 Ang^3
#
#
#
# Elastic Constant Matrix: (Units=GPa)
#
#
# Indices 1 2 3 4 5 6 
#
# 1 40.8194 8.7599 2.9146 0.0000 0.0000 0.0000
# 2 8.7599 64.0944 14.0777 0.0000 0.0000 0.0000
# 3 2.9146 14.0777 74.9593 0.0000 0.0000 0.0000
# 4 0.0000 0.0000 0.0000 20.7403 0.0000 0.0000
# 5 0.0000 0.0000 0.0000 0.0000 3.6594 0.0000
# 6 0.0000 0.0000 0.0000 0.0000 0.0000 18.3915
#
#
#
# Elastic Compliance Matrix: (Units=1/GPa)
#
#
# Indices 1 2 3 4 5 6 
#
# 1 0.025247 -0.003374 -0.000348 0.000000 0.000000 0.000000
# 2 -0.003374 0.016724 -0.003010 0.000000 0.000000 0.000000
# 3 -0.000348 -0.003010 0.013919 0.000000 0.000000 0.000000
# 4 0.000000 0.000000 0.000000 0.048215 0.000000 0.000000
# 5 0.000000 0.000000 0.000000 0.000000 0.273267 0.000000
# 6 0.000000 0.000000 0.000000 0.000000 0.000000 0.054373
#
#
# Mechanical properties :
#
#
# Convention : Reuss Voigt Hill
#
# Bulk Modulus (GPa) = 23.56990 25.70863 24.63927
# Shear Modulus (GPa) = 10.88491 18.83297 14.85894
#
# Velocity S-wave (km/s) = 2.48062 3.26293 2.89829
# Velocity P-wave (km/s) = 4.63996 5.35997 5.01291
#
# Compressibility (1/GPa) = 0.04242698
#
# Stress axis : x y z
#
# Youngs Moduli (GPa) = 39.60851 59.79368 71.84250
#
# Poissons Ratio (x) = 0.20175 0.02500
# Poissons Ratio (y) = 0.13364 0.21622
# Poissons Ratio (z) = 0.01378 0.17996
#
# Static dielectric constant tensor:
#      x y z
#    x 1.616130 0.000000 0.000000 
#    y 0.000000 1.617060 0.000000 
#    z 0.000000 0.000000 1.614060 
# 
# From -- ./inp_files/46657.got.cif
#   From: 2010.05.17/outbox.cif.g08.bks.cpg/sg71_24_cif.got.tgz:46657.got - 2010.06.03 16:22:01.
