data_PCOD9518492
_publ_section_title
;
Structure prediction by ZEFSAII (Michael W. Deem and Ramdas Pophale) SiO2 
 PCOD9518492
Probable space group: I M M M
;
_chemical_formula_sum "Si O2"
_cell_formula_units_Z 112
_cell_length_a 24.791737
_cell_length_b 16.000150
_cell_length_c 14.433861
_cell_angle_alpha 90.000000
_cell_angle_beta 90.000000
_cell_angle_gamma 90.000000
_cell_volume 5725.501449
_symmetry_space_group_name_H-M "I M M M"
_symmetry_group_IT_number 71
_symmetry_cell_setting 'orthorhombic'
loop_
_space_group_symop_operation_xyz
x,y,z
-x,-y,z
x,-y,-z
-x,y,-z
-x,-y,-z
x,y,-z
-x,y,z
x,-y,z
1/2+x,1/2+y,1/2+z
1/2-x,1/2-y,1/2+z
1/2+x,1/2-y,1/2-z
1/2-x,1/2+y,1/2-z
1/2-x,1/2-y,1/2-z
1/2+x,1/2+y,1/2-z
1/2-x,1/2+y,1/2+z
1/2+x,1/2-y,1/2+z
loop_
_atom_site_type_symbol
_atom_site_label
_atom_site_fract_x
_atom_site_fract_y
_atom_site_fract_z
Si Si1 0.338369 0.090333 0.892888
Si Si2 0.061526 0.161630 0.610981
Si Si3 0.665356 0.350838 0.601541
Si Si4 0.736899 0.249990 0.142575
Si Si5 0.938578 0.742764 0.896525
Si Si6 0.670946 0.593674 0.187905
Si Si7 0.061121 0.344110 0.293893
O O1 0.300645 0.170302 0.878300
O O2 0.391419 0.099173 0.831428
O O3 0.311376 0.000000 0.875006
O O4 0.354947 0.091959 0.000000
O O5 0.069662 0.161640 0.500000
O O6 0.108634 0.110250 0.660688
O O7 0.065174 0.256145 0.650309
O O8 0.000000 0.132479 0.629243
O O9 0.671604 0.393593 0.500000
O O10 0.705824 0.271201 0.597847
O O11 0.604882 0.316062 0.609769
O O12 0.677370 0.395064 0.699980
O O13 0.750000 0.250000 0.250000
O O14 0.704990 0.336509 0.131320
O O15 0.929487 0.678652 0.813377
O O16 0.000000 0.774026 0.884931
O O17 0.934071 0.706330 0.000000
O O18 0.686837 0.500000 0.163179
O O19 0.000000 0.375828 0.305835
#
# Coordination Sequence:
#
# PCOD9518492 Si02
#       7
#    16  16  16  16  16  16  16
#     4  11  23  38  60  90 122 157 197 246 304 359
#     4  10  20  35  57  83 115 158 202 243 288 341
#     4  10  20  36  60  84 112 152 195 248 305 351
#     4  10  21  39  58  81 117 156 196 241 293 351
#     4   9  17  32  58  89 116 148 195 244 296 355
#     4  11  23  38  58  86 121 159 200 246 294 350
#     4  10  18  33  58  87 120 157 197 244 297 351
#
# _framework density 19.561605
#
# number of rings (size 3 to 8) (size 9 to 14) (size 15 to 20)
#    0.000    1.857    2.857    1.714    0.000    4.857 
#    0.000    1.429    0.000    0.429    0.000    9.000 
#    0.000    0.000    0.000    0.000    0.000    0.000 
#
# Total GULP energy -312141.383021 kJ/mol
# GULP energy per Si atom -5573.953268 kJ/mol
# Density = 1.951708 g / cm^3
# Si number density = 19.561605 Si / 1000 Ang^3
#
#
#
# Elastic Constant Matrix: (Units=GPa)
#
#
# Indices 1 2 3 4 5 6 
#
# 1 59.7489 37.2601 9.9778 0.0000 0.0000 0.0000
# 2 37.2601 108.0041 18.0119 0.0000 0.0000 0.0000
# 3 9.9778 18.0119 83.0028 0.0000 0.0000 0.0000
# 4 0.0000 0.0000 0.0000 16.2136 0.0000 0.0000
# 5 0.0000 0.0000 0.0000 0.0000 47.7423 0.0000
# 6 0.0000 0.0000 0.0000 0.0000 0.0000 0.4209
#
#
#
# Elastic Compliance Matrix: (Units=1/GPa)
#
#
# Indices 1 2 3 4 5 6 
#
# 1 0.021405 -0.007217 -0.001007 0.000000 0.000000 0.000000
# 2 -0.007217 0.012040 -0.001745 0.000000 0.000000 0.000000
# 3 -0.001007 -0.001745 0.012548 0.000000 0.000000 0.000000
# 4 0.000000 0.000000 0.000000 0.061677 0.000000 0.000000
# 5 0.000000 0.000000 0.000000 0.000000 0.020946 0.000000
# 6 0.000000 0.000000 0.000000 0.000000 0.000000 2.375924
#
#
# Mechanical properties :
#
#
# Convention : Reuss Voigt Hill
#
# Bulk Modulus (GPa) = 38.38075 42.36172 40.37124
# Shear Modulus (GPa) = 1.97382 25.24244 13.60813
#
# Velocity S-wave (km/s) = 1.00559 3.59612 2.64039
# Velocity P-wave (km/s) = 4.58381 6.24062 5.47525
#
# Compressibility (1/GPa) = 0.02605473
#
# Stress axis : x y z
#
# Youngs Moduli (GPa) = 46.71752 83.05939 79.69682
#
# Poissons Ratio (x) = 0.59941 0.08026
# Poissons Ratio (y) = 0.33714 0.13908
# Poissons Ratio (z) = 0.04705 0.14495
#
# Static dielectric constant tensor:
#      x y z
#    x 1.707720 0.000000 0.000000 
#    y 0.000000 1.687190 0.000000 
#    z 0.000000 0.000000 1.713170 
# 
# From -- ./inp_files/34871.got.cif
#   From: 2010.05.17/outbox.cif.g08.bks.cpg/sg71_18_cif.got.tgz:34871.got - 2010.06.03 16:22:01.
