data_PCOD9518043
_publ_section_title
;
Structure prediction by ZEFSAII (Michael W. Deem and Ramdas Pophale) SiO2 
 PCOD9518043
Probable space group: I M M M
;
_chemical_formula_sum "Si O2"
_cell_formula_units_Z 88
_cell_length_a 18.042564
_cell_length_b 28.770237
_cell_length_c 7.365815
_cell_angle_alpha 90.000000
_cell_angle_beta 90.000000
_cell_angle_gamma 90.000000
_cell_volume 3823.512381
_symmetry_space_group_name_H-M "I M M M"
_symmetry_group_IT_number 71
_symmetry_cell_setting 'orthorhombic'
loop_
_space_group_symop_operation_xyz
x,y,z
-x,-y,z
x,-y,-z
-x,y,-z
-x,-y,-z
x,y,-z
-x,y,z
x,-y,z
1/2+x,1/2+y,1/2+z
1/2-x,1/2-y,1/2+z
1/2+x,1/2-y,1/2-z
1/2-x,1/2+y,1/2-z
1/2-x,1/2-y,1/2-z
1/2+x,1/2+y,1/2-z
1/2-x,1/2+y,1/2+z
1/2+x,1/2-y,1/2+z
loop_
_atom_site_type_symbol
_atom_site_label
_atom_site_fract_x
_atom_site_fract_y
_atom_site_fract_z
Si Si1 0.415588 0.173857 0.778186
Si Si2 0.181513 0.412615 0.719376
Si Si3 0.334112 0.265284 0.783510
Si Si4 0.416445 0.644853 0.221728
Si Si5 0.845902 0.052469 0.288800
Si Si6 0.084044 0.500000 0.278783
O O1 0.500000 0.163409 0.722262
O O2 0.355354 0.135550 0.720106
O O3 0.388485 0.224497 0.718001
O O4 0.415686 0.173235 0.000000
O O5 0.183788 0.411791 0.500000
O O6 0.263394 0.426069 0.780657
O O7 0.127618 0.454214 0.777298
O O8 0.250000 0.250000 0.750000
O O9 0.358396 0.315965 0.715607
O O10 0.343232 0.266990 0.000000
O O11 0.500000 0.658464 0.270132
O O12 0.397297 0.593175 0.288451
O O13 0.412868 0.643358 0.000000
O O14 0.866145 0.047912 0.500000
O O15 0.847046 0.000000 0.211660
O O16 0.083276 0.500000 0.500000
O O17 0.000000 0.500000 0.216830
#
# Coordination Sequence:
#
# PCOD9518043 Si02
#       6
#    16  16  16  16  16   8
#     4   9  17  29  48  74  99 124 160 203 239 276
#     4  10  18  30  49  72  97 127 162 200 241 289
#     4  10  19  32  52  76 101 129 160 197 242 291
#     4   9  18  33  53  75  98 128 168 208 244 286
#     4  10  20  33  50  72  98 128 162 205 251 292
#     4   9  16  26  43  67  92 121 160 200 233 271
#
# _framework density 23.015487
#
# number of rings (size 3 to 8) (size 9 to 14) (size 15 to 20)
#    0.000    2.455    0.909    2.182    0.000    4.727 
#    0.000    1.818    0.000    7.636    0.000    1.273 
#    0.000    0.000    0.000    0.000    0.000    0.000 
#
# Total GULP energy -245857.534337 kJ/mol
# GULP energy per Si atom -5587.671235 kJ/mol
# Density = 2.296310 g / cm^3
# Si number density = 23.015487 Si / 1000 Ang^3
#
#
#
# Elastic Constant Matrix: (Units=GPa)
#
#
# Indices 1 2 3 4 5 6 
#
# 1 90.9806 52.1969 -9.7747 0.0000 0.0001 -0.0001
# 2 52.1969 183.4417 9.8456 0.0000 0.0001 0.0000
# 3 -9.7747 9.8456 84.1583 0.0030 0.0023 -0.0005
# 4 0.0000 0.0000 0.0030 5.8031 0.0007 0.0003
# 5 0.0001 0.0001 0.0023 0.0007 20.0569 0.0001
# 6 -0.0001 0.0000 -0.0005 0.0003 0.0001 31.3823
#
#
#
# Elastic Compliance Matrix: (Units=1/GPa)
#
#
# Indices 1 2 3 4 5 6 
#
# 1 0.013470 -0.003942 0.002026 -0.000001 0.000000 0.000000
# 2 -0.003942 0.006639 -0.001235 0.000001 0.000000 0.000000
# 3 0.002026 -0.001235 0.012262 -0.000006 -0.000001 0.000000
# 4 -0.000001 0.000001 -0.000006 0.172322 -0.000006 -0.000001
# 5 0.000000 0.000000 -0.000001 -0.000006 0.049858 0.000000
# 6 0.000000 0.000000 0.000000 -0.000001 0.000000 0.031865
#
#
# Mechanical properties :
#
#
# Convention : Reuss Voigt Hill
#
# Bulk Modulus (GPa) = 38.35733 51.45737 44.90735
# Shear Modulus (GPa) = 16.58881 31.86931 24.22906
#
# Velocity S-wave (km/s) = 2.68762 3.72518 3.24810
# Velocity P-wave (km/s) = 5.13158 6.39600 5.79836
#
# Compressibility (1/GPa) = 0.02607064
#
# Stress axis : x y z
#
# Youngs Moduli (GPa) = 74.23714 150.62208 81.55234
#
# Poissons Ratio (x) = 0.59369 -0.16520
# Poissons Ratio (y) = 0.29261 0.10068
# Poissons Ratio (z) = -0.15038 0.18594
#
# Static dielectric constant tensor:
#      x y z
#    x 1.807430 0.000000 0.000000 
#    y 0.000000 1.835700 0.000000 
#    z 0.000000 0.000000 1.877410 
# 
# From -- ./inp_files/22276.got.cif
#   From: 2010.05.17/outbox.cif.g08.bks.cpg/sg71_12_cif.got.tgz:22276.got - 2010.06.03 16:22:01.
