data_PCOD9518999
_publ_section_title
;
Structure prediction by ZEFSAII (Michael W. Deem and Ramdas Pophale) SiO2 
 PCOD9518999
Probable space group: I M M M
;
_chemical_formula_sum "Si O2"
_cell_formula_units_Z 88
_cell_length_a 7.759272
_cell_length_b 20.627263
_cell_length_c 31.701161
_cell_angle_alpha 90.000000
_cell_angle_beta 90.000000
_cell_angle_gamma 90.000000
_cell_volume 5073.851473
_symmetry_space_group_name_H-M "I M M M"
_symmetry_group_IT_number 71
_symmetry_cell_setting 'orthorhombic'
loop_
_space_group_symop_operation_xyz
x,y,z
-x,-y,z
x,-y,-z
-x,y,-z
-x,-y,-z
x,y,-z
-x,y,z
x,-y,z
1/2+x,1/2+y,1/2+z
1/2-x,1/2-y,1/2+z
1/2+x,1/2-y,1/2-z
1/2-x,1/2+y,1/2-z
1/2-x,1/2-y,1/2-z
1/2+x,1/2+y,1/2-z
1/2-x,1/2+y,1/2+z
1/2+x,1/2-y,1/2+z
loop_
_atom_site_type_symbol
_atom_site_label
_atom_site_fract_x
_atom_site_fract_y
_atom_site_fract_z
Si Si1 0.705363 0.858472 0.547257
Si Si2 0.292275 0.928540 0.329692
Si Si3 0.303089 0.295161 0.870620
Si Si4 0.802620 0.500000 0.051374
Si Si5 0.209030 0.429363 0.270110
Si Si6 0.291342 0.788315 0.206769
O O1 0.769520 0.843511 0.500000
O O2 0.500000 0.868049 0.544265
O O3 0.732191 0.804177 0.582415
O O4 0.775692 0.929553 0.561341
O O5 0.500000 0.923119 0.334483
O O6 0.209368 0.867100 0.351195
O O7 0.253479 0.926000 0.279840
O O8 0.241065 0.000000 0.345500
O O9 0.500000 0.275299 0.875412
O O10 0.223824 0.248760 0.834755
O O11 0.000000 0.500000 0.068124
O O12 0.810805 0.500000 0.000000
O O13 0.270469 0.500000 0.285692
O O14 0.271169 0.362533 0.290395
O O15 0.000000 0.429625 0.273615
O O16 0.500000 0.789155 0.204657
O O17 0.250000 0.750000 0.250000
#
# Coordination Sequence:
#
# PCOD9518999 Si02
#       6
#    16  16  16   8  16  16
#     4   9  18  33  50  64  80 110 153 192 221 257
#     4   9  17  29  45  62  81 115 161 195 215 246
#     4  11  22  30  41  66  95 120 141 177 236 280
#     4   7  12  26  47  65  77  97 141 195 227 241
#     4   8  14  27  47  65  81 110 155 195 215 239
#     4  10  19  31  46  65  91 120 149 181 220 263
#
# _framework density 17.343826
#
# number of rings (size 3 to 8) (size 9 to 14) (size 15 to 20)
#    0.000    2.818    1.818    2.727    1.273    1.455 
#    0.000    0.000    0.000    2.182    0.000    0.000 
#    0.000    0.727    0.000    9.091    0.000    1.455 
#
# Total GULP energy -245171.275792 kJ/mol
# GULP energy per Si atom -5572.074450 kJ/mol
# Density = 1.730435 g / cm^3
# Si number density = 17.343826 Si / 1000 Ang^3
#
#
#
# Elastic Constant Matrix: (Units=GPa)
#
#
# Indices 1 2 3 4 5 6 
#
# 1 21.7276 1.8759 7.6929 0.0000 0.0000 0.0000
# 2 1.8759 117.4075 66.6500 0.0000 0.0000 0.0000
# 3 7.6929 66.6500 108.9332 0.0000 0.0000 0.0000
# 4 0.0000 0.0000 0.0000 31.1626 0.0000 0.0000
# 5 0.0000 0.0000 0.0000 0.0000 14.5874 0.0000
# 6 0.0000 0.0000 0.0000 0.0000 0.0000 11.3774
#
#
#
# Elastic Compliance Matrix: (Units=1/GPa)
#
#
# Indices 1 2 3 4 5 6 
#
# 1 0.047439 0.001753 -0.004422 0.000000 0.000000 0.000000
# 2 0.001753 0.013115 -0.008148 0.000000 0.000000 0.000000
# 3 -0.004422 -0.008148 0.014478 0.000000 0.000000 0.000000
# 4 0.000000 0.000000 0.000000 0.032090 0.000000 0.000000
# 5 0.000000 0.000000 0.000000 0.000000 0.068552 0.000000
# 6 0.000000 0.000000 0.000000 0.000000 0.000000 0.087894
#
#
# Mechanical properties :
#
#
# Convention : Reuss Voigt Hill
#
# Bulk Modulus (GPa) = 18.72817 44.50066 31.61442
# Shear Modulus (GPa) = 16.50158 22.88210 19.69184
#
# Velocity S-wave (km/s) = 3.08789 3.63619 3.37320
# Velocity P-wave (km/s) = 4.85129 6.58352 5.78264
#
# Compressibility (1/GPa) = 0.05339551
#
# Stress axis : x y z
#
# Youngs Moduli (GPa) = 21.07977 76.24981 69.07262
#
# Poissons Ratio (x) = -0.13363 0.30547
# Poissons Ratio (y) = -0.03694 0.56280
# Poissons Ratio (z) = 0.09322 0.62128
#
# Static dielectric constant tensor:
#      x y z
#    x 1.663070 0.000000 0.000000 
#    y 0.000000 1.618100 0.000000 
#    z 0.000000 0.000000 1.621710 
# 
# From -- ./inp_files/56138.got.cif
#   From: 2010.05.17/outbox.cif.g08.bks.cpg/sg71_29_cif.got.tgz:56138.got - 2010.06.03 16:22:01.
