data_PCOD9518355
_publ_section_title
;
Structure prediction by ZEFSAII (Michael W. Deem and Ramdas Pophale) SiO2 
 PCOD9518355
Probable space group: I M M M
;
_chemical_formula_sum "Si O2"
_cell_formula_units_Z 64
_cell_length_a 10.711400
_cell_length_b 7.619003
_cell_length_c 40.770259
_cell_angle_alpha 90.000000
_cell_angle_beta 90.000000
_cell_angle_gamma 90.000000
_cell_volume 3327.268532
_symmetry_space_group_name_H-M "I M M M"
_symmetry_group_IT_number 71
_symmetry_cell_setting 'orthorhombic'
loop_
_space_group_symop_operation_xyz
x,y,z
-x,-y,z
x,-y,-z
-x,y,-z
-x,-y,-z
x,y,-z
-x,y,z
x,-y,z
1/2+x,1/2+y,1/2+z
1/2-x,1/2-y,1/2+z
1/2+x,1/2-y,1/2-z
1/2-x,1/2+y,1/2-z
1/2-x,1/2-y,1/2-z
1/2+x,1/2+y,1/2-z
1/2-x,1/2+y,1/2+z
1/2+x,1/2-y,1/2+z
loop_
_atom_site_type_symbol
_atom_site_label
_atom_site_fract_x
_atom_site_fract_y
_atom_site_fract_z
Si Si1 0.500000 0.789420 0.784686
Si Si2 0.354931 0.289130 0.035280
Si Si3 0.500000 0.710279 0.707796
Si Si4 0.743760 0.215377 0.824558
Si Si5 0.357070 0.209032 0.106693
O O1 0.500000 0.746287 0.746454
O O2 0.374822 0.727102 0.802882
O O3 0.500000 0.000000 0.787875
O O4 0.500000 0.228445 0.036057
O O5 0.356418 0.500000 0.034514
O O6 0.301006 0.239845 0.070575
O O7 0.301812 0.228860 0.000000
O O8 0.500000 0.500000 0.703753
O O9 0.626484 0.776789 0.690885
O O10 0.719821 0.272665 0.861991
O O11 0.745364 0.000000 0.824022
O O12 0.500000 0.279919 0.107658
O O13 0.366960 0.000000 0.110486
#
# Coordination Sequence:
#
# PCOD9518355 Si02
#       5
#     8  16   8  16  16
#     4  10  18  32  50  64  85 116 145 177 222 265
#     4   8  14  24  37  57  88 118 138 166 214 258
#     4  10  20  32  46  66  89 112 145 183 218 259
#     4   9  17  30  47  65  87 116 145 178 220 260
#     4   9  15  25  42  61  81 110 146 176 206 250
#
# _framework density 19.234995999999999
#
# number of rings (size 3 to 8) (size 9 to 14) (size 15 to 20)
#    0.000    3.000    1.250    1.500    0.000    0.500 
#    0.000    5.000    0.000    0.000    0.000    0.875 
#    0.000    7.000    0.000    0.000    0.000    0.000 
#
# Total GULP energy -178277.213989 kJ/mol
# GULP energy per Si atom -5571.162937 kJ/mol
# Density = 1.919122 g / cm^3
# Si number density = 19.234996 Si / 1000 Ang^3
#
#
#
# Elastic Constant Matrix: (Units=GPa)
#
#
# Indices 1 2 3 4 5 6 
#
# 1 116.2426 7.9529 93.5895 0.0000 0.0000 0.0000
# 2 7.9529 34.7030 1.6699 0.0000 0.0000 0.0000
# 3 93.5895 1.6699 242.1930 0.0000 0.0000 0.0000
# 4 0.0000 0.0000 0.0000 25.1674 0.0000 0.0000
# 5 0.0000 0.0000 0.0000 0.0000 -2.3144 0.0000
# 6 0.0000 0.0000 0.0000 0.0000 0.0000 -1.6106
#
#
#
# Elastic Compliance Matrix: (Units=1/GPa)
#
#
# Indices 1 2 3 4 5 6 
#
# 1 0.012733 -0.002682 -0.004902 0.000000 0.000000 0.000000
# 2 -0.002682 0.029391 0.000834 0.000000 0.000000 0.000000
# 3 -0.004902 0.000834 0.006017 0.000000 0.000000 0.000000
# 4 0.000000 0.000000 0.000000 0.039734 0.000000 0.000000
# 5 0.000000 0.000000 0.000000 0.000000 -0.432086 0.000000
# 6 0.000000 0.000000 0.000000 0.000000 0.000000 -0.620881
#
#
# Mechanical properties :
#
#
# Convention : Reuss Voigt Hill
#
# Bulk Modulus (GPa) = 28.86798 66.61813 47.74305
# Shear Modulus (GPa) = -5.31889 23.57690 9.12901
#
# Velocity S-wave (km/s) = -1.66470 3.50484 2.18090
# Velocity P-wave (km/s) = 3.36833 7.14756 5.58718
#
# Compressibility (1/GPa) = 0.03464046
#
# Stress axis : x y z
#
# Youngs Moduli (GPa) = 78.53790 34.02457 166.18621
#
# Poissons Ratio (x) = 0.09126 0.81460
# Poissons Ratio (y) = 0.21065 -0.13856
# Poissons Ratio (z) = 0.38497 -0.02837
#
# Static dielectric constant tensor:
#      x y z
#    x 1.636190 0.000000 0.000000 
#    y 0.000000 1.717910 0.000000 
#    z 0.000000 0.000000 1.710670 
# 
# From -- ./inp_files/18485.got.cif
#   From: 2010.05.17/outbox.cif.g08.bks.cpg/sg71_10_cif.got.tgz:18485.got - 2010.06.03 16:22:01.
