data_PCOD9518124
_publ_section_title
;
Structure prediction by ZEFSAII (Michael W. Deem and Ramdas Pophale) SiO2 
 PCOD9518124
Probable space group: I M M M
;
_chemical_formula_sum "Si O2"
_cell_formula_units_Z 96
_cell_length_a 21.288910
_cell_length_b 15.044840
_cell_length_c 14.033319
_cell_angle_alpha 90.000000
_cell_angle_beta 90.000000
_cell_angle_gamma 90.000000
_cell_volume 4494.707110
_symmetry_space_group_name_H-M "I M M M"
_symmetry_group_IT_number 71
_symmetry_cell_setting 'orthorhombic'
loop_
_space_group_symop_operation_xyz
x,y,z
-x,-y,z
x,-y,-z
-x,y,-z
-x,-y,-z
x,y,-z
-x,y,z
x,-y,z
1/2+x,1/2+y,1/2+z
1/2-x,1/2-y,1/2+z
1/2+x,1/2-y,1/2-z
1/2-x,1/2+y,1/2-z
1/2-x,1/2-y,1/2-z
1/2+x,1/2+y,1/2-z
1/2-x,1/2+y,1/2+z
1/2+x,1/2-y,1/2+z
loop_
_atom_site_type_symbol
_atom_site_label
_atom_site_fract_x
_atom_site_fract_y
_atom_site_fract_z
Si Si1 0.073258 0.284166 0.606165
Si Si2 0.349695 0.097074 0.251173
Si Si3 0.752673 0.152169 0.389455
Si Si4 0.099397 0.896902 0.103228
Si Si5 0.611508 0.395429 0.184574
Si Si6 0.247637 0.865383 0.896120
O O1 0.096068 0.311297 0.500000
O O2 0.107907 0.332682 0.693924
O O3 0.083508 0.178330 0.614959
O O4 0.000000 0.304677 0.611590
O O5 0.315626 0.125030 0.349115
O O6 0.289085 0.091542 0.183438
O O7 0.379922 0.000000 0.259575
O O8 0.760006 0.125686 0.500000
O O9 0.812804 0.116279 0.330276
O O10 0.753922 0.259138 0.383782
O O11 0.085034 0.866919 0.210639
O O12 0.174989 0.891045 0.105225
O O13 0.080447 0.000000 0.100390
O O14 0.079441 0.856764 0.000000
O O15 0.597263 0.500000 0.170018
O O16 0.271539 0.890266 0.000000
#
# Coordination Sequence:
#
# PCOD9518124 Si02
#       6
#    16  16  16  16  16  16
#     4  11  26  46  64  85 115 154 207 263 304 349
#     4  12  23  37  60  88 121 160 199 244 300 361
#     4  11  22  36  57  90 130 163 194 239 298 366
#     4   9  17  29  49  83 123 156 189 232 285 352
#     4  11  21  37  62  90 124 164 199 241 304 367
#     4  10  18  30  51  79 116 158 193 230 283 348
#
# _framework density 21.358456
#
# number of rings (size 3 to 8) (size 9 to 14) (size 15 to 20)
#    0.000    1.333    3.333    3.500    0.000    5.000 
#    0.000    1.667    0.000    2.000    0.000    3.500 
#    0.000    0.000    0.000    0.000    0.000    0.000 
#
# Total GULP energy -267684.878886 kJ/mol
# GULP energy per Si atom -5576.768310 kJ/mol
# Density = 2.130984 g / cm^3
# Si number density = 21.358456 Si / 1000 Ang^3
#
#
#
# Elastic Constant Matrix: (Units=GPa)
#
#
# Indices 1 2 3 4 5 6 
#
# 1 48.5314 3.2313 11.9682 0.0000 0.0000 0.0000
# 2 3.2313 93.5883 21.7377 0.0000 0.0000 0.0000
# 3 11.9682 21.7377 115.4853 0.0000 0.0000 0.0000
# 4 0.0000 0.0000 0.0000 -157.5207 0.0000 0.0000
# 5 0.0000 0.0000 0.0000 0.0000 13.8479 0.0000
# 6 0.0000 0.0000 0.0000 0.0000 0.0000 -24.7186
#
#
#
# Elastic Compliance Matrix: (Units=1/GPa)
#
#
# Indices 1 2 3 4 5 6 
#
# 1 0.021150 -0.000231 -0.002148 0.000000 0.000000 0.000000
# 2 -0.000231 0.011176 -0.002080 0.000000 0.000000 0.000000
# 3 -0.002148 -0.002080 0.009273 0.000000 0.000000 0.000000
# 4 0.000000 0.000000 0.000000 -0.006348 0.000000 0.000000
# 5 0.000000 0.000000 0.000000 0.000000 0.072213 0.000000
# 6 0.000000 0.000000 0.000000 0.000000 0.000000 -0.040455
#
#
# Mechanical properties :
#
#
# Convention : Reuss Voigt Hill
#
# Bulk Modulus (GPa) = 30.59871 36.83103 33.71487
# Shear Modulus (GPa) = 57.58952 -18.96709 19.31122
#
# Velocity S-wave (km/s) = 5.19826 -2.98323 3.01017
# Velocity P-wave (km/s) = 7.09835 2.32712 5.28214
#
# Compressibility (1/GPa) = 0.03268111
#
# Stress axis : x y z
#
# Youngs Moduli (GPa) = 47.28036 89.47635 107.83744
#
# Poissons Ratio (x) = 0.02069 0.23168
# Poissons Ratio (y) = 0.01093 0.22427
# Poissons Ratio (z) = 0.10158 0.18608
#
# Static dielectric constant tensor:
#      x y z
#    x 1.778150 0.000000 0.000000 
#    y 0.000000 1.809150 0.000000 
#    z 0.000000 0.000000 1.846230 
# 
# From -- ./inp_files/37820.got.cif
#   From: 2010.05.17/outbox.cif.g08.bks.cpg/sg71_19_cif.got.tgz:37820.got - 2010.06.03 16:22:01.
