data_PCOD9518011
_publ_section_title
;
Structure prediction by ZEFSAII (Michael W. Deem and Ramdas Pophale) SiO2 
 PCOD9518011
Probable space group: I M M M
;
_chemical_formula_sum "Si O2"
_cell_formula_units_Z 116
_cell_length_a 27.880497
_cell_length_b 9.484527
_cell_length_c 23.452608
_cell_angle_alpha 90.000000
_cell_angle_beta 90.000000
_cell_angle_gamma 90.000000
_cell_volume 6201.651150
_symmetry_space_group_name_H-M "I M M M"
_symmetry_group_IT_number 71
_symmetry_cell_setting 'orthorhombic'
loop_
_space_group_symop_operation_xyz
x,y,z
-x,-y,z
x,-y,-z
-x,y,-z
-x,-y,-z
x,y,-z
-x,y,z
x,-y,z
1/2+x,1/2+y,1/2+z
1/2-x,1/2-y,1/2+z
1/2+x,1/2-y,1/2-z
1/2-x,1/2+y,1/2-z
1/2-x,1/2-y,1/2-z
1/2+x,1/2+y,1/2-z
1/2-x,1/2+y,1/2+z
1/2+x,1/2-y,1/2+z
loop_
_atom_site_type_symbol
_atom_site_label
_atom_site_fract_x
_atom_site_fract_y
_atom_site_fract_z
Si Si1 0.702011 0.166954 0.265885
Si Si2 0.302338 0.836848 0.067944
Si Si3 0.601410 0.166968 0.788013
Si Si4 0.893058 0.155880 0.393608
Si Si5 0.398402 0.666175 0.563474
Si Si6 0.800672 0.835382 0.877841
Si Si7 0.570393 0.500000 0.000000
Si Si8 0.557305 0.163330 0.332516
O O1 0.750000 0.250000 0.250000
O O2 0.658634 0.187903 0.221400
O O3 0.686507 0.232155 0.326316
O O4 0.710732 0.000000 0.269951
O O5 0.345302 0.735293 0.085550
O O6 0.252331 0.804061 0.099017
O O7 0.314808 0.000000 0.081643
O O8 0.294969 0.827137 0.000000
O O9 0.584883 0.253170 0.842875
O O10 0.576976 0.212585 0.728802
O O11 0.592702 0.000000 0.795258
O O12 0.879752 0.000000 0.370863
O O13 0.925138 0.120843 0.449022
O O14 0.410969 0.716695 0.500000
O O15 0.410113 0.500000 0.567102
O O16 0.341265 0.678343 0.574150
O O17 0.423721 0.747965 0.614439
O O18 0.801138 0.000000 0.858761
O O19 0.500000 0.167345 0.331451
O O20 0.573071 0.000000 0.338807
#
# Coordination Sequence:
#
# PCOD9518011 Si02
#       8
#    16  16  16  16  16  16   4  16
#     4  11  22  35  50  75 111 149 191 237 283 339
#     4  10  18  30  48  72 105 147 195 238 273 320
#     4  10  21  37  57  82 111 145 189 233 282 337
#     4  10  19  34  52  77 113 149 182 227 274 327
#     4  10  21  38  59  84 116 152 192 239 295 352
#     4  10  20  33  50  73 107 149 195 239 285 335
#     4   8  20  36  50  80 121 146 188 226 273 328
#     4  10  22  42  65  87 114 145 186 244 298 345
#
# _framework density 18.704695999999998
#
# number of rings (size 3 to 8) (size 9 to 14) (size 15 to 20)
#    0.414    1.517    2.069    2.069    0.000    8.000 
#    0.000    1.379    0.000    2.483    0.000    0.966 
#    0.000    2.207    0.000    0.000    0.000    0.000 
#
# Total GULP energy -323042.584844 kJ/mol
# GULP energy per Si atom -5569.699739 kJ/mol
# Density = 1.866212 g / cm^3
# Si number density = 18.704696 Si / 1000 Ang^3
#
#
#
# Elastic Constant Matrix: (Units=GPa)
#
#
# Indices 1 2 3 4 5 6 
#
# 1 18.1462 5.6999 12.9252 0.0000 0.0000 0.0000
# 2 5.6999 51.7870 50.3196 0.0000 0.0000 0.0000
# 3 12.9252 50.3196 145.0005 0.0000 0.0000 0.0000
# 4 0.0000 0.0000 0.0000 40.5150 0.0000 0.0000
# 5 0.0000 0.0000 0.0000 0.0000 6.1180 0.0000
# 6 0.0000 0.0000 0.0000 0.0000 0.0000 13.8145
#
#
#
# Elastic Compliance Matrix: (Units=1/GPa)
#
#
# Indices 1 2 3 4 5 6 
#
# 1 0.058993 -0.002087 -0.004534 0.000000 0.000000 0.000000
# 2 -0.002087 0.029207 -0.009950 0.000000 0.000000 0.000000
# 3 -0.004534 -0.009950 0.010754 0.000000 0.000000 0.000000
# 4 0.000000 0.000000 0.000000 0.024682 0.000000 0.000000
# 5 0.000000 0.000000 0.000000 0.000000 0.163451 0.000000
# 6 0.000000 0.000000 0.000000 0.000000 0.000000 0.072388
#
#
# Mechanical properties :
#
#
# Convention : Reuss Voigt Hill
#
# Bulk Modulus (GPa) = 15.19485 39.20256 27.19871
# Shear Modulus (GPa) = 12.06113 21.82212 16.94162
#
# Velocity S-wave (km/s) = 2.54208 3.41935 3.01282
# Velocity P-wave (km/s) = 4.09358 6.04925 5.16483
#
# Compressibility (1/GPa) = 0.06581176
#
# Stress axis : x y z
#
# Youngs Moduli (GPa) = 16.95106 34.23784 92.99218
#
# Poissons Ratio (x) = 0.07146 0.42165
# Poissons Ratio (y) = 0.03538 0.92525
# Poissons Ratio (z) = 0.07686 0.34066
#
# Static dielectric constant tensor:
#      x y z
#    x 1.653120 0.000000 0.000000 
#    y 0.000000 1.633640 0.000000 
#    z 0.000000 0.000000 1.657320 
# 
# From -- ./inp_files/62374.got.cif
#   From: 2010.05.17/outbox.cif.g08.bks.cpg/sg71_32_cif.got.tgz:62374.got - 2010.06.03 16:22:01.
