data_PCOD9518683
_publ_section_title
;
Structure prediction by ZEFSAII (Michael W. Deem and Ramdas Pophale) SiO2 
 PCOD9518683
Probable space group: I M M M
;
_chemical_formula_sum "Si O2"
_cell_formula_units_Z 72
_cell_length_a 36.870050
_cell_length_b 14.924768
_cell_length_c 8.643708
_cell_angle_alpha 90.000000
_cell_angle_beta 90.000000
_cell_angle_gamma 90.000000
_cell_volume 4756.433209
_symmetry_space_group_name_H-M "I M M M"
_symmetry_group_IT_number 71
_symmetry_cell_setting 'orthorhombic'
loop_
_space_group_symop_operation_xyz
x,y,z
-x,-y,z
x,-y,-z
-x,y,-z
-x,-y,-z
x,y,-z
-x,y,z
x,-y,z
1/2+x,1/2+y,1/2+z
1/2-x,1/2-y,1/2+z
1/2+x,1/2-y,1/2-z
1/2-x,1/2+y,1/2-z
1/2-x,1/2-y,1/2-z
1/2+x,1/2+y,1/2-z
1/2-x,1/2+y,1/2+z
1/2+x,1/2-y,1/2+z
loop_
_atom_site_type_symbol
_atom_site_label
_atom_site_fract_x
_atom_site_fract_y
_atom_site_fract_z
Si Si1 0.577358 0.104420 0.684656
Si Si2 0.271316 0.500000 0.686261
Si Si3 0.351590 0.180325 0.813210
Si Si4 0.785117 0.805200 0.686300
Si Si5 0.687323 0.000000 0.187493
Si Si6 0.000000 0.608439 0.676924
O O1 0.578552 0.102853 0.500000
O O2 0.608072 0.171044 0.747845
O O3 0.537418 0.133176 0.740023
O O4 0.583563 0.000000 0.739253
O O5 0.274265 0.500000 0.500000
O O6 0.285948 0.593365 0.752440
O O7 0.228972 0.500000 0.731331
O O8 0.323007 0.257150 0.768931
O O9 0.332439 0.088724 0.758952
O O10 0.353860 0.180542 0.000000
O O11 0.782403 0.803661 0.500000
O O12 0.750000 0.750000 0.750000
O O13 0.686181 0.000000 0.000000
O O14 0.000000 0.500000 0.676203
O O15 0.000000 0.639731 0.500000
#
# Coordination Sequence:
#
# PCOD9518683 Si02
#       6
#    16   8  16  16   8   8
#     4  10  19  29  43  67  96 123 156 200 240 277
#     4  11  21  37  53  69  94 127 164 209 255 296
#     4  10  19  32  48  66  93 127 164 200 238 288
#     4  11  22  35  51  72  96 127 165 207 250 295
#     4   9  16  29  47  66  90 123 160 198 240 286
#     4   9  17  29  45  63  87 126 163 188 229 287
#
# _framework density 15.137394
#
# number of rings (size 3 to 8) (size 9 to 14) (size 15 to 20)
#    0.000    1.889    3.333    2.000    0.000    4.000 
#    0.000    0.000    0.000    0.000    0.000    0.000 
#    0.000    0.889    0.000    9.333    0.000    4.444 
#
# Total GULP energy -200657.992375 kJ/mol
# GULP energy per Si atom -5573.833122 kJ/mol
# Density = 1.510294 g / cm^3
# Si number density = 15.137394 Si / 1000 Ang^3
#
#
#
# Elastic Constant Matrix: (Units=GPa)
#
#
# Indices 1 2 3 4 5 6 
#
# 1 147.9948 60.8080 40.6151 0.0000 0.0000 0.0000
# 2 60.8080 95.8928 28.6578 0.0000 0.0000 0.0000
# 3 40.6151 28.6578 44.9452 0.0000 0.0000 0.0000
# 4 0.0000 0.0000 0.0000 18.6455 0.0000 0.0000
# 5 0.0000 0.0000 0.0000 0.0000 26.3133 0.0000
# 6 0.0000 0.0000 0.0000 0.0000 0.0000 2.4975
#
#
#
# Elastic Compliance Matrix: (Units=1/GPa)
#
#
# Indices 1 2 3 4 5 6 
#
# 1 0.010461 -0.004705 -0.006453 0.000000 0.000000 0.000000
# 2 -0.004705 0.015000 -0.005312 0.000000 0.000000 0.000000
# 3 -0.006453 -0.005312 0.031468 0.000000 0.000000 0.000000
# 4 0.000000 0.000000 0.000000 0.053632 0.000000 0.000000
# 5 0.000000 0.000000 0.000000 0.000000 0.038004 0.000000
# 6 0.000000 0.000000 0.000000 0.000000 0.000000 0.400396
#
#
# Mechanical properties :
#
#
# Convention : Reuss Voigt Hill
#
# Bulk Modulus (GPa) = 41.68812 60.99940 51.34376
# Shear Modulus (GPa) = 8.47604 20.07473 14.27538
#
# Velocity S-wave (km/s) = 2.36887 3.64561 3.07425
# Velocity P-wave (km/s) = 5.92298 7.62268 6.82594
#
# Compressibility (1/GPa) = 0.02398765
#
# Stress axis : x y z
#
# Youngs Moduli (GPa) = 95.59065 66.66885 31.77831
#
# Poissons Ratio (x) = 0.31369 0.20508
# Poissons Ratio (y) = 0.44977 0.16881
# Poissons Ratio (z) = 0.61688 0.35415
#
# Static dielectric constant tensor:
#      x y z
#    x 1.512600 0.000000 0.000000 
#    y 0.000000 1.665350 0.000000 
#    z 0.000000 0.000000 1.518350 
# 
# From -- ./inp_files/16400.got.cif
#   From: 2010.05.17/outbox.cif.g08.bks.cpg/sg71_9_cif.got.tgz:16400.got - 2010.06.03 16:22:01.
