data_PCOD9518140
_publ_section_title
;
Structure prediction by ZEFSAII (Michael W. Deem and Ramdas Pophale) SiO2 
 PCOD9518140
Probable space group: I M M M
;
_chemical_formula_sum "Si O2"
_cell_formula_units_Z 120
_cell_length_a 18.036135
_cell_length_b 19.330278
_cell_length_c 20.595822
_cell_angle_alpha 90.000000
_cell_angle_beta 90.000000
_cell_angle_gamma 90.000000
_cell_volume 7180.599542
_symmetry_space_group_name_H-M "I M M M"
_symmetry_group_IT_number 71
_symmetry_cell_setting 'orthorhombic'
loop_
_space_group_symop_operation_xyz
x,y,z
-x,-y,z
x,-y,-z
-x,y,-z
-x,-y,-z
x,y,-z
-x,y,z
x,-y,z
1/2+x,1/2+y,1/2+z
1/2-x,1/2-y,1/2+z
1/2+x,1/2-y,1/2-z
1/2-x,1/2+y,1/2-z
1/2-x,1/2-y,1/2-z
1/2+x,1/2+y,1/2-z
1/2-x,1/2+y,1/2+z
1/2+x,1/2-y,1/2+z
loop_
_atom_site_type_symbol
_atom_site_label
_atom_site_fract_x
_atom_site_fract_y
_atom_site_fract_z
Si Si1 0.837980 0.422277 0.718581
Si Si2 0.087563 0.207004 0.177458
Si Si3 0.164164 0.080234 0.757318
Si Si4 0.170312 0.299288 0.076067
Si Si5 0.088632 0.917858 0.500000
Si Si6 0.334903 0.657884 0.879677
Si Si7 0.586841 0.921258 0.360033
Si Si8 0.087528 0.714912 0.313958
O O1 0.857433 0.500000 0.696117
O O2 0.749435 0.415240 0.719588
O O3 0.868451 0.416392 0.792457
O O4 0.874341 0.359383 0.680213
O O5 0.113970 0.131222 0.199811
O O6 0.136378 0.237665 0.119330
O O7 0.100019 0.256163 0.240561
O O8 0.000000 0.208267 0.162438
O O9 0.163768 0.109590 0.684075
O O10 0.141207 0.000000 0.759001
O O11 0.251700 0.321153 0.100734
O O12 0.117931 0.365137 0.090739
O O13 0.172290 0.283220 0.000000
O O14 0.125070 0.882344 0.437479
O O15 0.000000 0.907936 0.500000
O O16 0.103500 0.000000 0.500000
O O17 0.377915 0.727886 0.860931
O O18 0.500000 0.908718 0.346359
O O19 0.595089 0.000000 0.384167
O O20 0.000000 0.709478 0.323614
#
# Coordination Sequence:
#
# PCOD9518140 Si02
#       8
#    16  16  16  16   8  16  16  16
#     4  10  18  30  52  81 111 143 175 219 277 335
#     4  10  21  36  54  79 113 146 185 240 291 335
#     4  10  20  35  58  85 110 141 184 234 289 341
#     4  12  23  36  55  79 107 152 196 232 274 330
#     4  11  24  40  56  78 114 154 188 227 276 334
#     4  11  21  37  56  82 110 147 189 233 274 334
#     4  10  20  33  49  73 109 148 184 224 271 322
#     4  10  19  33  55  80 108 143 181 227 283 339
#
# _framework density 16.711696
#
# number of rings (size 3 to 8) (size 9 to 14) (size 15 to 20)
#    0.000    1.533    3.333    2.400    0.000    5.600 
#    0.000    0.667    0.000    0.400    0.000    1.400 
#    0.000    1.600    0.000    0.000    0.000    0.000 
#
# Total GULP energy -335040.617127 kJ/mol
# GULP energy per Si atom -5584.010285 kJ/mol
# Density = 1.667366 g / cm^3
# Si number density = 16.711696 Si / 1000 Ang^3
#
#
#
# Elastic Constant Matrix: (Units=GPa)
#
#
# Indices 1 2 3 4 5 6 
#
# 1 70.6312 60.7599 35.5773 0.0000 0.0000 0.0000
# 2 60.7599 150.9276 50.9546 0.0000 0.0000 0.0000
# 3 35.5773 50.9546 75.5540 0.0000 0.0000 0.0000
# 4 0.0000 0.0000 0.0000 25.2680 0.0000 0.0000
# 5 0.0000 0.0000 0.0000 0.0000 13.8553 0.0000
# 6 0.0000 0.0000 0.0000 0.0000 0.0000 31.3975
#
#
#
# Elastic Compliance Matrix: (Units=1/GPa)
#
#
# Indices 1 2 3 4 5 6 
#
# 1 0.023651 -0.007460 -0.006106 0.000000 0.000000 0.000000
# 2 -0.007460 0.010932 -0.003860 0.000000 0.000000 0.000000
# 3 -0.006106 -0.003860 0.018714 0.000000 0.000000 0.000000
# 4 0.000000 0.000000 0.000000 0.039576 0.000000 0.000000
# 5 0.000000 0.000000 0.000000 0.000000 0.072175 0.000000
# 6 0.000000 0.000000 0.000000 0.000000 0.000000 0.031850
#
#
# Mechanical properties :
#
#
# Convention : Reuss Voigt Hill
#
# Bulk Modulus (GPa) = 54.21376 65.74405 59.97891
# Shear Modulus (GPa) = 21.01752 24.09223 22.55488
#
# Velocity S-wave (km/s) = 3.55019 3.80101 3.67774
# Velocity P-wave (km/s) = 7.02255 7.66088 7.34865
#
# Compressibility (1/GPa) = 0.01844550
#
# Stress axis : x y z
#
# Youngs Moduli (GPa) = 42.28169 91.47437 53.43624
#
# Poissons Ratio (x) = 0.68239 0.32627
# Poissons Ratio (y) = 0.31542 0.20626
# Poissons Ratio (z) = 0.25816 0.35308
#
# Static dielectric constant tensor:
#      x y z
#    x 1.555070 0.000000 0.000000 
#    y 0.000000 1.567070 0.000000 
#    z 0.000000 0.000000 1.537650 
# 
# From -- ./inp_files/54324.got.cif
#   From: 2010.05.17/outbox.cif.g08.bks.cpg/sg71_28_cif.got.tgz:54324.got - 2010.06.03 16:22:01.
