data_PCOD9518824
_publ_section_title
;
Structure prediction by ZEFSAII (Michael W. Deem and Ramdas Pophale) SiO2 
 PCOD9518824
Probable space group: I M M M
;
_chemical_formula_sum "Si O2"
_cell_formula_units_Z 88
_cell_length_a 7.645547
_cell_length_b 20.743890
_cell_length_c 32.229482
_cell_angle_alpha 90.000000
_cell_angle_beta 90.000000
_cell_angle_gamma 90.000000
_cell_volume 5111.543825
_symmetry_space_group_name_H-M "I M M M"
_symmetry_group_IT_number 71
_symmetry_cell_setting 'orthorhombic'
loop_
_space_group_symop_operation_xyz
x,y,z
-x,-y,z
x,-y,-z
-x,y,-z
-x,-y,-z
x,y,-z
-x,y,z
x,-y,z
1/2+x,1/2+y,1/2+z
1/2-x,1/2-y,1/2+z
1/2+x,1/2-y,1/2-z
1/2-x,1/2+y,1/2-z
1/2-x,1/2-y,1/2-z
1/2+x,1/2+y,1/2-z
1/2-x,1/2+y,1/2+z
1/2+x,1/2-y,1/2+z
loop_
_atom_site_type_symbol
_atom_site_label
_atom_site_fract_x
_atom_site_fract_y
_atom_site_fract_z
Si Si1 0.798759 0.828228 0.547477
Si Si2 0.291648 0.929293 0.337109
Si Si3 0.212445 0.291133 0.868193
Si Si4 0.000000 0.571207 0.049573
Si Si5 0.288330 0.429272 0.260570
Si Si6 0.210339 0.792609 0.209289
O O1 0.755588 0.807620 0.500000
O O2 0.769979 0.777856 0.584657
O O3 0.670137 0.886898 0.558945
O O4 0.000000 0.848513 0.547453
O O5 0.500000 0.929509 0.344888
O O6 0.221808 0.863102 0.356332
O O7 0.264319 0.924303 0.287638
O O8 0.221696 0.000000 0.350087
O O9 0.273663 0.242730 0.832338
O O10 0.000000 0.291682 0.867328
O O11 0.000000 0.500000 0.067832
O O12 0.000000 0.564899 0.000000
O O13 0.500000 0.428692 0.261954
O O14 0.229522 0.500000 0.275707
O O15 0.224124 0.365391 0.283788
O O16 0.250000 0.750000 0.250000
O O17 0.000000 0.795598 0.206259
#
# Coordination Sequence:
#
# PCOD9518824 Si02
#       6
#    16  16  16   8  16  16
#     4  10  21  36  53  72  94 125 165 208 255 305
#     4   9  17  28  42  61  87 120 157 194 232 280
#     4  10  19  31  46  68  92 124 163 205 252 297
#     4   9  18  34  54  72  96 130 163 207 259 297
#     4   9  17  29  44  63  91 126 160 195 237 283
#     4  10  19  30  46  68  95 126 161 200 242 292
#
# _framework density 17.215934000000001
#
# number of rings (size 3 to 8) (size 9 to 14) (size 15 to 20)
#    0.000    2.455    2.727    0.000    0.000    2.545 
#    0.000    1.818    0.000    0.000    0.000    0.000 
#    0.000    0.727    0.000    9.091    0.000    1.455 
#
# Total GULP energy -245290.037694 kJ/mol
# GULP energy per Si atom -5574.773584 kJ/mol
# Density = 1.717675 g / cm^3
# Si number density = 17.215934 Si / 1000 Ang^3
#
#
#
# Elastic Constant Matrix: (Units=GPa)
#
#
# Indices 1 2 3 4 5 6 
#
# 1 47.0183 10.0905 12.4831 0.0000 0.0000 0.0000
# 2 10.0905 116.0813 70.7175 0.0000 0.0000 0.0000
# 3 12.4831 70.7175 127.6808 0.0000 0.0000 0.0000
# 4 0.0000 0.0000 0.0000 17.2885 0.0000 0.0000
# 5 0.0000 0.0000 0.0000 0.0000 19.9254 0.0000
# 6 0.0000 0.0000 0.0000 0.0000 0.0000 3.7763
#
#
#
# Elastic Compliance Matrix: (Units=1/GPa)
#
#
# Indices 1 2 3 4 5 6 
#
# 1 0.021898 -0.000904 -0.001640 0.000000 0.000000 0.000000
# 2 -0.000904 0.013039 -0.007133 0.000000 0.000000 0.000000
# 3 -0.001640 -0.007133 0.011943 0.000000 0.000000 0.000000
# 4 0.000000 0.000000 0.000000 0.057842 0.000000 0.000000
# 5 0.000000 0.000000 0.000000 0.000000 0.050187 0.000000
# 6 0.000000 0.000000 0.000000 0.000000 0.000000 0.264811
#
#
# Mechanical properties :
#
#
# Convention : Reuss Voigt Hill
#
# Bulk Modulus (GPa) = 36.33118 53.04025 44.68572
# Shear Modulus (GPa) = 11.15448 21.36399 16.25924
#
# Velocity S-wave (km/s) = 2.54818 3.52652 3.07649
# Velocity P-wave (km/s) = 5.45955 6.88894 6.21547
#
# Compressibility (1/GPa) = 0.02752456
#
# Stress axis : x y z
#
# Youngs Moduli (GPa) = 45.66663 76.69325 83.72922
#
# Poissons Ratio (x) = 0.06936 0.13732
# Poissons Ratio (y) = 0.04130 0.59727
# Poissons Ratio (z) = 0.07489 0.54708
#
# Static dielectric constant tensor:
#      x y z
#    x 1.625580 0.000000 0.000000 
#    y 0.000000 1.604760 0.000000 
#    z 0.000000 0.000000 1.610620 
# 
# From -- ./inp_files/68162.got.cif
#   From: 2010.05.17/outbox.cif.g08.bks.cpg/sg71_35_cif.got.tgz:68162.got - 2010.06.03 16:22:01.
