data_PCOD9518228
_publ_section_title
;
Structure prediction by ZEFSAII (Michael W. Deem and Ramdas Pophale) SiO2 
 PCOD9518228
Probable space group: I M M M
;
_chemical_formula_sum "Si O2"
_cell_formula_units_Z 112
_cell_length_a 14.312995
_cell_length_b 29.624505
_cell_length_c 14.295360
_cell_angle_alpha 90.000000
_cell_angle_beta 90.000000
_cell_angle_gamma 90.000000
_cell_volume 6061.452673
_symmetry_space_group_name_H-M "I M M M"
_symmetry_group_IT_number 71
_symmetry_cell_setting 'orthorhombic'
loop_
_space_group_symop_operation_xyz
x,y,z
-x,-y,z
x,-y,-z
-x,y,-z
-x,-y,-z
x,y,-z
-x,y,z
x,-y,z
1/2+x,1/2+y,1/2+z
1/2-x,1/2-y,1/2+z
1/2+x,1/2-y,1/2-z
1/2-x,1/2+y,1/2-z
1/2-x,1/2-y,1/2-z
1/2+x,1/2+y,1/2-z
1/2-x,1/2+y,1/2+z
1/2+x,1/2-y,1/2+z
loop_
_atom_site_type_symbol
_atom_site_label
_atom_site_fract_x
_atom_site_fract_y
_atom_site_fract_z
Si Si1 0.194182 0.674769 0.107970
Si Si2 0.790095 0.551817 0.289326
Si Si3 0.612265 0.132230 0.893739
Si Si4 0.391288 0.922053 0.390448
Si Si5 0.396826 0.689100 0.110967
Si Si6 0.890230 0.718544 0.274626
Si Si7 0.105194 0.054656 0.107238
O O1 0.128064 0.631489 0.121722
O O2 0.302245 0.660974 0.126248
O O3 0.164920 0.714094 0.178153
O O4 0.186729 0.688687 0.000000
O O5 0.802604 0.500000 0.320954
O O6 0.855649 0.587037 0.342730
O O7 0.820704 0.554631 0.181306
O O8 0.685138 0.566255 0.318360
O O9 0.500000 0.133593 0.895397
O O10 0.643564 0.176730 0.838136
O O11 0.646623 0.133046 0.000000
O O12 0.375297 0.932769 0.500000
O O13 0.500000 0.932202 0.368687
O O14 0.500000 0.669875 0.133577
O O15 0.383973 0.734898 0.169595
O O16 0.398359 0.700002 0.000000
O O17 0.000000 0.711545 0.254463
O O18 0.000000 0.070993 0.128280
O O19 0.101123 0.000000 0.106303
O O20 0.129392 0.068398 0.000000
#
# Coordination Sequence:
#
# PCOD9518228 Si02
#       7
#    16  16  16  16  16  16  16
#     4  10  19  32  52  75  98 129 173 219 257 299
#     4  11  21  33  52  77 103 133 175 225 268 305
#     4  10  20  32  47  71 104 140 171 203 254 316
#     4  10  21  37  54  73 102 141 182 220 263 319
#     4   9  18  32  51  77 105 132 166 207 251 305
#     4  10  18  31  51  73 102 138 171 204 246 304
#     4   8  15  30  52  76 100 127 162 204 252 309
#
# _framework density 18.477419000000001
#
# number of rings (size 3 to 8) (size 9 to 14) (size 15 to 20)
#    0.000    2.286    1.429    2.571    0.000    4.857 
#    0.000    2.143    0.000    1.286    0.000    2.000 
#    0.000    0.000    0.000    0.000    0.000    0.000 
#
# Total GULP energy -312056.273355 kJ/mol
# GULP energy per Si atom -5572.433453 kJ/mol
# Density = 1.843536 g / cm^3
# Si number density = 18.477419 Si / 1000 Ang^3
#
#
#
# Elastic Constant Matrix: (Units=GPa)
#
#
# Indices 1 2 3 4 5 6 
#
# 1 87.5986 4.9078 49.4508 0.0000 0.0000 0.0000
# 2 4.9078 17.8255 4.8622 -0.0001 0.0000 0.0000
# 3 49.4508 4.8622 78.3799 -0.0002 0.0000 0.0000
# 4 0.0000 -0.0001 -0.0002 17.6113 0.0000 0.0000
# 5 0.0000 0.0000 0.0000 0.0000 29.2554 0.0000
# 6 0.0000 0.0000 0.0000 0.0000 0.0000 16.8651
#
#
#
# Elastic Compliance Matrix: (Units=1/GPa)
#
#
# Indices 1 2 3 4 5 6 
#
# 1 0.017792 -0.001868 -0.011109 0.000000 0.000000 0.000000
# 2 -0.001868 0.057261 -0.002373 0.000000 0.000000 0.000000
# 3 -0.011109 -0.002373 0.019914 0.000000 0.000000 0.000000
# 4 0.000000 0.000000 0.000000 0.056782 0.000000 0.000000
# 5 0.000000 0.000000 0.000000 0.000000 0.034182 0.000000
# 6 0.000000 0.000000 0.000000 0.000000 0.000000 0.059294
#
#
# Mechanical properties :
#
#
# Convention : Reuss Voigt Hill
#
# Bulk Modulus (GPa) = 15.56037 33.58283 24.57160
# Shear Modulus (GPa) = 16.81531 21.05192 18.93362
#
# Velocity S-wave (km/s) = 3.01997 3.37906 3.20455
# Velocity P-wave (km/s) = 4.53871 5.78261 5.19800
#
# Compressibility (1/GPa) = 0.06426584
#
# Stress axis : x y z
#
# Youngs Moduli (GPa) = 56.20631 17.46381 50.21494
#
# Poissons Ratio (x) = 0.03263 0.55784
# Poissons Ratio (y) = 0.10501 0.11918
# Poissons Ratio (z) = 0.62440 0.04145
#
# Static dielectric constant tensor:
#      x y z
#    x 1.671290 0.000000 0.000000 
#    y 0.000000 1.622550 0.000000 
#    z 0.000000 0.000000 1.659820 
# 
# From -- ./inp_files/35108.got.cif
#   From: 2010.05.17/outbox.cif.g08.bks.cpg/sg71_18_cif.got.tgz:35108.got - 2010.06.03 16:22:01.
