data_PCOD9518127
_publ_section_title
;
Structure prediction by ZEFSAII (Michael W. Deem and Ramdas Pophale) SiO2 
 PCOD9518127
Probable space group: I M M M
;
_chemical_formula_sum "Si O2"
_cell_formula_units_Z 88
_cell_length_a 8.666831
_cell_length_b 23.115700
_cell_length_c 23.142667
_cell_angle_alpha 90.000000
_cell_angle_beta 90.000000
_cell_angle_gamma 90.000000
_cell_volume 4636.398791
_symmetry_space_group_name_H-M "I M M M"
_symmetry_group_IT_number 71
_symmetry_cell_setting 'orthorhombic'
loop_
_space_group_symop_operation_xyz
x,y,z
-x,-y,z
x,-y,-z
-x,y,-z
-x,-y,-z
x,y,-z
-x,y,z
x,-y,z
1/2+x,1/2+y,1/2+z
1/2-x,1/2-y,1/2+z
1/2+x,1/2-y,1/2-z
1/2-x,1/2+y,1/2-z
1/2-x,1/2-y,1/2-z
1/2+x,1/2+y,1/2-z
1/2-x,1/2+y,1/2+z
1/2+x,1/2-y,1/2+z
loop_
_atom_site_type_symbol
_atom_site_label
_atom_site_fract_x
_atom_site_fract_y
_atom_site_fract_z
Si Si1 0.186135 0.341533 0.123014
Si Si2 0.817369 0.409982 0.342499
Si Si3 0.174125 0.226487 0.000000
Si Si4 0.322260 0.653523 0.000000
Si Si5 0.684677 0.500000 0.567282
Si Si6 0.312006 0.936789 0.713340
Si Si7 0.679562 0.292789 0.628141
O O1 0.241126 0.384213 0.173269
O O2 0.230922 0.274190 0.133395
O O3 0.000000 0.341313 0.121703
O O4 0.243895 0.363157 0.060530
O O5 0.740711 0.444760 0.395214
O O6 0.762568 0.432008 0.279890
O O7 0.780051 0.341852 0.342799
O O8 0.000000 0.419682 0.346681
O O9 0.299124 0.276858 0.000000
O O10 0.185242 0.193213 0.940473
O O11 0.000000 0.253948 0.000000
O O12 0.500000 0.637319 0.000000
O O13 0.500000 0.500000 0.566230
O O14 0.738569 0.500000 0.500000
O O15 0.500000 0.934203 0.713823
O O16 0.267430 0.000000 0.690357
O O17 0.500000 0.296524 0.646406
#
# Coordination Sequence:
#
# PCOD9518127 Si02
#       7
#    16  16   8   8   8  16  16
#     4   9  18  35  59  81 108 150 190 223 268 336
#     4  11  22  37  58  85 115 145 183 236 287 326
#     4   8  16  32  52  72 106 150 188 220 263 331
#     4  10  18  30  51  81 115 140 170 227 282 321
#     4  11  25  43  61  81 111 154 197 234 271 327
#     4   9  18  36  60  82 107 143 188 233 277 329
#     4   9  18  32  51  80 112 147 186 225 271 332
#
# _framework density 18.980248
#
# number of rings (size 3 to 8) (size 9 to 14) (size 15 to 20)
#    0.000    2.455    0.909    2.727    1.273    4.364 
#    0.000    2.273    0.000    2.727    0.000    0.000 
#    0.000    0.000    0.000    0.000    0.000    0.000 
#
# Total GULP energy -245172.339134 kJ/mol
# GULP energy per Si atom -5572.098617 kJ/mol
# Density = 1.893705 g / cm^3
# Si number density = 18.980248 Si / 1000 Ang^3
#
#
#
# Elastic Constant Matrix: (Units=GPa)
#
#
# Indices 1 2 3 4 5 6 
#
# 1 24.9502 18.8309 20.5469 0.0000 0.0000 0.0000
# 2 18.8309 114.4928 65.5188 0.0000 0.0000 0.0000
# 3 20.5469 65.5188 105.8359 0.0000 0.0000 0.0000
# 4 0.0000 0.0000 0.0000 17.7644 0.0000 0.0000
# 5 0.0000 0.0000 0.0000 0.0000 10.5280 0.0000
# 6 0.0000 0.0000 0.0000 0.0000 0.0000 19.8927
#
#
#
# Elastic Compliance Matrix: (Units=1/GPa)
#
#
# Indices 1 2 3 4 5 6 
#
# 1 0.048885 -0.004041 -0.006989 0.000000 0.000000 0.000000
# 2 -0.004041 0.013860 -0.007796 0.000000 0.000000 0.000000
# 3 -0.006989 -0.007796 0.015631 0.000000 0.000000 0.000000
# 4 0.000000 0.000000 0.000000 0.056292 0.000000 0.000000
# 5 0.000000 0.000000 0.000000 0.000000 0.094985 0.000000
# 6 0.000000 0.000000 0.000000 0.000000 0.000000 0.050270
#
#
# Mechanical properties :
#
#
# Convention : Reuss Voigt Hill
#
# Bulk Modulus (GPa) = 24.55461 50.56357 37.55909
# Shear Modulus (GPa) = 15.09891 18.99582 17.04736
#
# Velocity S-wave (km/s) = 2.82353 3.16701 3.00019
# Velocity P-wave (km/s) = 4.85745 6.33018 5.64207
#
# Compressibility (1/GPa) = 0.04072555
#
# Stress axis : x y z
#
# Youngs Moduli (GPa) = 20.45611 72.15104 63.97379
#
# Poissons Ratio (x) = 0.29154 0.44712
# Poissons Ratio (y) = 0.08266 0.49871
# Poissons Ratio (z) = 0.14297 0.56246
#
# Static dielectric constant tensor:
#      x y z
#    x 1.653820 0.000000 0.000000 
#    y 0.000000 1.663990 0.000000 
#    z 0.000000 0.000000 1.677260 
# 
# From -- ./inp_files/50601.got.cif
#   From: 2010.05.17/outbox.cif.g08.bks.cpg/sg71_26_cif.got.tgz:50601.got - 2010.06.03 16:22:01.
