data_PCOD9518153
_publ_section_title
;
Structure prediction by ZEFSAII (Michael W. Deem and Ramdas Pophale) SiO2 
 PCOD9518153
Probable space group: I M M M
;
_chemical_formula_sum "Si O2"
_cell_formula_units_Z 100
_cell_length_a 26.801275
_cell_length_b 8.729080
_cell_length_c 21.680901
_cell_angle_alpha 90.000000
_cell_angle_beta 90.000000
_cell_angle_gamma 90.000000
_cell_volume 5072.257057
_symmetry_space_group_name_H-M "I M M M"
_symmetry_group_IT_number 71
_symmetry_cell_setting 'orthorhombic'
loop_
_space_group_symop_operation_xyz
x,y,z
-x,-y,z
x,-y,-z
-x,y,-z
-x,-y,-z
x,y,-z
-x,y,z
x,-y,z
1/2+x,1/2+y,1/2+z
1/2-x,1/2-y,1/2+z
1/2+x,1/2-y,1/2-z
1/2-x,1/2+y,1/2-z
1/2-x,1/2-y,1/2-z
1/2+x,1/2+y,1/2-z
1/2-x,1/2+y,1/2+z
1/2+x,1/2-y,1/2+z
loop_
_atom_site_type_symbol
_atom_site_label
_atom_site_fract_x
_atom_site_fract_y
_atom_site_fract_z
Si Si1 0.737994 0.319098 0.182590
Si Si2 0.369085 0.822019 0.834089
Si Si3 0.698337 0.316000 0.430412
Si Si4 0.581736 0.319470 0.592364
Si Si5 0.943444 0.179865 0.573670
Si Si6 0.442172 0.319294 0.263634
Si Si7 0.500000 0.790411 0.500000
O O1 0.744875 0.500000 0.186073
O O2 0.750000 0.250000 0.250000
O O3 0.680970 0.276376 0.167962
O O4 0.771761 0.254839 0.126710
O O5 0.402271 0.780005 0.893207
O O6 0.404349 0.777587 0.776912
O O7 0.355760 0.000000 0.832802
O O8 0.713350 0.265629 0.500000
O O9 0.704668 0.500000 0.427693
O O10 0.639288 0.285848 0.422052
O O11 0.572142 0.500000 0.576175
O O12 0.570884 0.302895 0.664543
O O13 0.543632 0.220680 0.553128
O O14 0.940778 0.193403 0.500000
O O15 0.000000 0.221443 0.592875
O O16 0.936266 0.000000 0.589230
O O17 0.500000 0.277921 0.253402
O O18 0.436546 0.500000 0.247980
#
# Coordination Sequence:
#
# PCOD9518153 Si02
#       7
#    16  16  16  16  16  16   4
#     4  12  26  46  69  90 117 158 208 264 323 383
#     4  12  25  40  61  89 121 159 203 255 310 369
#     4  10  21  38  62  94 130 167 208 257 306 358
#     4  10  18  30  54  90 130 164 201 246 288 338
#     4   9  19  38  64  93 126 164 204 249 305 370
#     4  10  20  34  55  87 126 168 210 252 299 353
#     4  12  17  28  56  96 133 162 203 244 283 334
#
# _framework density 19.715088999999999
#
# number of rings (size 3 to 8) (size 9 to 14) (size 15 to 20)
#    0.000    1.440    1.600    5.520    0.000    5.120 
#    0.000    0.800    0.000    0.000    0.000    2.240 
#    0.000    0.000    0.000    0.000    0.000    0.000 
#
# Total GULP energy -279025.056917 kJ/mol
# GULP energy per Si atom -5580.501138 kJ/mol
# Density = 1.967022 g / cm^3
# Si number density = 19.715089 Si / 1000 Ang^3
#
#
#
# Elastic Constant Matrix: (Units=GPa)
#
#
# Indices 1 2 3 4 5 6 
#
# 1 106.1887 36.5495 60.3019 0.0000 0.0000 0.0000
# 2 36.5495 58.3257 43.8249 0.0000 0.0000 0.0000
# 3 60.3019 43.8249 134.4136 0.0000 0.0000 0.0000
# 4 0.0000 0.0000 0.0000 14.7646 0.0000 0.0000
# 5 0.0000 0.0000 0.0000 0.0000 57.2336 0.0000
# 6 0.0000 0.0000 0.0000 0.0000 0.0000 112.9559
#
#
#
# Elastic Compliance Matrix: (Units=1/GPa)
#
#
# Indices 1 2 3 4 5 6 
#
# 1 0.013763 -0.005278 -0.004454 0.000000 0.000000 0.000000
# 2 -0.005278 0.024732 -0.005696 0.000000 0.000000 0.000000
# 3 -0.004454 -0.005696 0.011295 0.000000 0.000000 0.000000
# 4 0.000000 0.000000 0.000000 0.067730 0.000000 0.000000
# 5 0.000000 0.000000 0.000000 0.000000 0.017472 0.000000
# 6 0.000000 0.000000 0.000000 0.000000 0.000000 0.008853
#
#
# Mechanical properties :
#
#
# Convention : Reuss Voigt Hill
#
# Bulk Modulus (GPa) = 52.81244 64.47563 58.64403
# Shear Modulus (GPa) = 27.62245 47.54095 37.58170
#
# Velocity S-wave (km/s) = 3.74716 4.91593 4.37079
# Velocity P-wave (km/s) = 6.75038 8.06204 7.43519
#
# Compressibility (1/GPa) = 0.01893493
#
# Stress axis : x y z
#
# Youngs Moduli (GPa) = 72.65865 40.43267 88.53592
#
# Poissons Ratio (x) = 0.21341 0.39430
# Poissons Ratio (y) = 0.38351 0.50430
# Poissons Ratio (z) = 0.32359 0.23030
#
# Static dielectric constant tensor:
#      x y z
#    x 1.654790 0.000000 0.000000 
#    y 0.000000 1.695040 0.000000 
#    z 0.000000 0.000000 1.703230 
# 
# From -- ./inp_files/56200.got.cif
#   From: 2010.05.17/outbox.cif.g08.bks.cpg/sg71_29_cif.got.tgz:56200.got - 2010.06.03 16:22:01.
