data_PCOD9518681
_publ_section_title
;
Structure prediction by ZEFSAII (Michael W. Deem and Ramdas Pophale) SiO2 
 PCOD9518681
Probable space group: I M M M
;
_chemical_formula_sum "Si O2"
_cell_formula_units_Z 88
_cell_length_a 20.963984
_cell_length_b 25.514017
_cell_length_c 9.435435
_cell_angle_alpha 90.000000
_cell_angle_beta 90.000000
_cell_angle_gamma 90.000000
_cell_volume 5046.782487
_symmetry_space_group_name_H-M "I M M M"
_symmetry_group_IT_number 71
_symmetry_cell_setting 'orthorhombic'
loop_
_space_group_symop_operation_xyz
x,y,z
-x,-y,z
x,-y,-z
-x,y,-z
-x,-y,-z
x,y,-z
-x,y,z
x,-y,z
1/2+x,1/2+y,1/2+z
1/2-x,1/2-y,1/2+z
1/2+x,1/2-y,1/2-z
1/2-x,1/2+y,1/2-z
1/2-x,1/2-y,1/2-z
1/2+x,1/2+y,1/2-z
1/2-x,1/2+y,1/2+z
1/2+x,1/2-y,1/2+z
loop_
_atom_site_type_symbol
_atom_site_label
_atom_site_fract_x
_atom_site_fract_y
_atom_site_fract_z
Si Si1 0.888626 0.443231 0.671696
Si Si2 0.500000 0.563918 0.336740
Si Si3 0.570267 0.171724 0.826935
Si Si4 0.251825 0.592432 0.337096
Si Si5 0.375609 0.563357 0.162604
Si Si6 0.204205 0.287796 0.663905
O O1 0.894796 0.443171 0.500000
O O2 0.912381 0.500000 0.722606
O O3 0.920714 0.389024 0.719649
O O4 0.813189 0.437741 0.702082
O O5 0.500000 0.500000 0.336755
O O6 0.500000 0.580927 0.500000
O O7 0.436656 0.580911 0.253610
O O8 0.500000 0.190440 0.785135
O O9 0.631507 0.205397 0.780989
O O10 0.573152 0.171095 0.000000
O O11 0.268257 0.578271 0.500000
O O12 0.310449 0.580935 0.235866
O O13 0.232844 0.653515 0.333976
O O14 0.376295 0.500000 0.162135
O O15 0.380072 0.581182 0.000000
O O16 0.201507 0.270550 0.500000
O O17 0.250000 0.250000 0.750000
#
# Coordination Sequence:
#
# PCOD9518681 Si02
#       6
#    16   8  16  16  16  16
#     4   8  13  21  36  62  94 124 153 185 220 265
#     4   9  17  29  45  63  85 121 161 189 225 279
#     4   8  14  25  42  66  95 124 154 189 231 282
#     4   9  17  29  45  65  89 120 158 194 232 284
#     4  10  19  29  43  66  95 123 154 194 235 277
#     4   9  18  32  51  72  92 119 158 202 246 291
#
# _framework density 17.436851999999998
#
# number of rings (size 3 to 8) (size 9 to 14) (size 15 to 20)
#    0.000    3.182    0.000    3.545    0.000    4.000 
#    0.000    1.818    2.000    0.545    0.000    0.000 
#    0.000    0.000    0.000   19.273    0.000   14.545 
#
# Total GULP energy -245014.768177 kJ/mol
# GULP energy per Si atom -5568.517459 kJ/mol
# Density = 1.739716 g / cm^3
# Si number density = 17.436852 Si / 1000 Ang^3
#
#
#
# Elastic Constant Matrix: (Units=GPa)
#
#
# Indices 1 2 3 4 5 6 
#
# 1 126.0271 27.2208 49.9835 0.0000 0.0000 0.0000
# 2 27.2208 44.8680 6.2000 0.0000 0.0000 0.0000
# 3 49.9835 6.2000 63.7530 0.0000 0.0000 0.0000
# 4 0.0000 0.0000 0.0000 19.3254 0.0000 0.0000
# 5 0.0000 0.0000 0.0000 0.0000 12.3194 0.0000
# 6 0.0000 0.0000 0.0000 0.0000 0.0000 -0.4480
#
#
#
# Elastic Compliance Matrix: (Units=1/GPa)
#
#
# Indices 1 2 3 4 5 6 
#
# 1 0.013237 -0.006687 -0.009728 0.000000 0.000000 0.000000
# 2 -0.006687 0.025969 0.002717 0.000000 0.000000 0.000000
# 3 -0.009728 0.002717 0.023048 0.000000 0.000000 0.000000
# 4 0.000000 0.000000 0.000000 0.051745 0.000000 0.000000
# 5 0.000000 0.000000 0.000000 0.000000 0.081173 0.000000
# 6 0.000000 0.000000 0.000000 0.000000 0.000000 -2.232259
#
#
# Mechanical properties :
#
#
# Convention : Reuss Voigt Hill
#
# Bulk Modulus (GPa) = 28.68696 44.60631 36.64664
# Shear Modulus (GPa) = -2.50241 16.32228 6.90994
#
# Velocity S-wave (km/s) = -1.19927 3.06286 1.99285
# Velocity P-wave (km/s) = 3.81706 6.17619 5.13397
#
# Compressibility (1/GPa) = 0.03485904
#
# Stress axis : x y z
#
# Youngs Moduli (GPa) = 75.54428 38.50764 43.38730
#
# Poissons Ratio (x) = 0.25749 0.42207
# Poissons Ratio (y) = 0.50514 -0.11788
# Poissons Ratio (z) = 0.73489 -0.10462
#
# Static dielectric constant tensor:
#      x y z
#    x 1.602110 0.000000 0.000000 
#    y 0.000000 1.600310 0.000000 
#    z 0.000000 0.000000 1.584660 
# 
# From -- ./inp_files/11331.got.cif
#   From: 2010.05.17/outbox.cif.g08.bks.cpg/sg71_6_cif.got.tgz:11331.got - 2010.06.03 16:22:01.
