data_PCOD9518817
_publ_section_title
;
Structure prediction by ZEFSAII (Michael W. Deem and Ramdas Pophale) SiO2 
 PCOD9518817
Probable space group: I M M M
;
_chemical_formula_sum "Si O2"
_cell_formula_units_Z 104
_cell_length_a 7.318325
_cell_length_b 26.998907
_cell_length_c 20.242628
_cell_angle_alpha 90.000000
_cell_angle_beta 90.000000
_cell_angle_gamma 90.000000
_cell_volume 3999.675606
_symmetry_space_group_name_H-M "I M M M"
_symmetry_group_IT_number 71
_symmetry_cell_setting 'orthorhombic'
loop_
_space_group_symop_operation_xyz
x,y,z
-x,-y,z
x,-y,-z
-x,y,-z
-x,-y,-z
x,y,-z
-x,y,z
x,-y,z
1/2+x,1/2+y,1/2+z
1/2-x,1/2-y,1/2+z
1/2+x,1/2-y,1/2-z
1/2-x,1/2+y,1/2-z
1/2-x,1/2-y,1/2-z
1/2+x,1/2+y,1/2-z
1/2-x,1/2+y,1/2+z
1/2+x,1/2-y,1/2+z
loop_
_atom_site_type_symbol
_atom_site_label
_atom_site_fract_x
_atom_site_fract_y
_atom_site_fract_z
Si Si1 0.779508 0.835335 0.253872
Si Si2 0.724577 0.500000 0.577478
Si Si3 0.208283 0.074803 0.571237
Si Si4 0.792854 0.314715 0.903307
Si Si5 0.722820 0.445352 0.779738
Si Si6 0.207768 0.895769 0.078746
Si Si7 0.723660 0.290049 0.618962
O O1 0.706192 0.818374 0.323911
O O2 0.723851 0.893361 0.245168
O O3 0.725709 0.798624 0.195348
O O4 0.000000 0.834852 0.257732
O O5 0.500000 0.500000 0.580430
O O6 0.776094 0.500000 0.500000
O O7 0.786413 0.447307 0.605358
O O8 0.290246 0.060421 0.500000
O O9 0.203496 0.134723 0.573311
O O10 0.283622 0.059183 0.642844
O O11 0.000000 0.056960 0.571174
O O12 0.712185 0.260346 0.914908
O O13 0.000000 0.316382 0.927463
O O14 0.500000 0.444894 0.779236
O O15 0.777931 0.500000 0.754950
O O16 0.287788 0.841909 0.088963
O O17 0.000000 0.892909 0.105909
O O18 0.195700 0.902239 0.000000
O O19 0.500000 0.287723 0.614461
#
# Coordination Sequence:
#
# PCOD9518817 Si02
#       7
#    16   8  16  16  16  16  16
#     4   9  17  31  47  64  90 119 150 188 230 272
#     4   7  10  18  32  48  72 110 143 163 198 259
#     4   9  18  32  49  69  94 124 154 186 228 274
#     4  10  19  30  46  66  90 121 156 189 224 266
#     4   8  14  26  45  68  92 117 146 184 230 274
#     4   8  13  22  35  53  81 114 144 175 216 265
#     4   9  17  27  40  62  87 115 152 190 225 266
#
# _framework density 26.002109000000001
#
# number of rings (size 3 to 8) (size 9 to 14) (size 15 to 20)
#    0.000    3.308    0.000    2.769    0.000    1.231 
#    1.385    3.846    0.000    7.385    0.000    4.308 
#    0.000    0.000    0.000    0.000    0.000   29.231 
#
# Total GULP energy -290234.805861 kJ/mol
# GULP energy per Si atom -5581.438574 kJ/mol
# Density = 2.594293 g / cm^3
# Si number density = 26.002109 Si / 1000 Ang^3
#
#
#
# Elastic Constant Matrix: (Units=GPa)
#
#
# Indices 1 2 3 4 5 6 
#
# 1 104.5215 7.9621 1.3855 0.0000 0.0000 0.0000
# 2 7.9621 227.4910 12.5039 0.0000 0.0000 0.0000
# 3 1.3855 12.5039 63.5378 0.0000 0.0000 0.0000
# 4 0.0000 0.0000 0.0000 -14.4162 0.0000 0.0000
# 5 0.0000 0.0000 0.0000 0.0000 6.1938 0.0000
# 6 0.0000 0.0000 0.0000 0.0000 0.0000 -4.4804
#
#
#
# Elastic Compliance Matrix: (Units=1/GPa)
#
#
# Indices 1 2 3 4 5 6 
#
# 1 0.009594 -0.000328 -0.000145 0.000000 0.000000 0.000000
# 2 -0.000328 0.004455 -0.000870 0.000000 0.000000 0.000000
# 3 -0.000145 -0.000870 0.015913 0.000000 0.000000 0.000000
# 4 0.000000 0.000000 0.000000 -0.069367 0.000000 0.000000
# 5 0.000000 0.000000 0.000000 0.000000 0.161452 0.000000
# 6 0.000000 0.000000 0.000000 0.000000 0.000000 -0.223193
#
#
# Mechanical properties :
#
#
# Convention : Reuss Voigt Hill
#
# Bulk Modulus (GPa) = 36.65950 48.80593 42.73271
# Shear Modulus (GPa) = -55.94824 22.37269 -16.78777
#
# Velocity S-wave (km/s) = -4.64365 2.93647 -2.54368
# Velocity P-wave (km/s) = 3.82388 5.50526 2.80052
#
# Compressibility (1/GPa) = 0.02727806
#
# Stress axis : x y z
#
# Youngs Moduli (GPa) = 104.22850 224.46449 62.84188
#
# Poissons Ratio (x) = 0.07359 0.00909
# Poissons Ratio (y) = 0.03417 0.05465
# Poissons Ratio (z) = 0.01508 0.19519
#
# Static dielectric constant tensor:
#      x y z
#    x 2.037480 0.000000 0.000000 
#    y 0.000000 2.059810 0.000000 
#    z 0.000000 0.000000 2.050140 
# 
# From -- ./inp_files/17234.got.cif
#   From: 2010.05.17/outbox.cif.g08.bks.cpg/sg71_9_cif.got.tgz:17234.got - 2010.06.03 16:22:01.
