data_PCOD9518107
_publ_section_title
;
Structure prediction by ZEFSAII (Michael W. Deem and Ramdas Pophale) SiO2 
 PCOD9518107
Probable space group: I M M M
;
_chemical_formula_sum "Si O2"
_cell_formula_units_Z 96
_cell_length_a 31.120166
_cell_length_b 19.584376
_cell_length_c 7.662008
_cell_angle_alpha 90.000000
_cell_angle_beta 90.000000
_cell_angle_gamma 90.000000
_cell_volume 4669.756600
_symmetry_space_group_name_H-M "I M M M"
_symmetry_group_IT_number 71
_symmetry_cell_setting 'orthorhombic'
loop_
_space_group_symop_operation_xyz
x,y,z
-x,-y,z
x,-y,-z
-x,y,-z
-x,-y,-z
x,y,-z
-x,y,z
x,-y,z
1/2+x,1/2+y,1/2+z
1/2-x,1/2-y,1/2+z
1/2+x,1/2-y,1/2-z
1/2-x,1/2+y,1/2-z
1/2-x,1/2-y,1/2-z
1/2+x,1/2+y,1/2-z
1/2-x,1/2+y,1/2+z
1/2+x,1/2-y,1/2+z
loop_
_atom_site_type_symbol
_atom_site_label
_atom_site_fract_x
_atom_site_fract_y
_atom_site_fract_z
Si Si1 0.548053 0.922134 0.791406
Si Si2 0.049039 0.925510 0.712721
Si Si3 0.130825 0.668068 0.198931
Si Si4 0.120128 0.176774 0.287753
Si Si5 0.727233 0.823028 0.289504
Si Si6 0.698259 0.421866 0.786994
O O1 0.500000 0.899371 0.728704
O O2 0.589381 0.874552 0.759926
O O3 0.555082 0.000000 0.726510
O O4 0.544912 0.925796 0.000000
O O5 0.049197 0.925095 0.500000
O O6 0.078064 0.863767 0.769330
O O7 0.000000 0.920008 0.769505
O O8 0.066222 0.000000 0.765428
O O9 0.120879 0.748188 0.212083
O O10 0.178900 0.665406 0.281059
O O11 0.136313 0.646148 0.000000
O O12 0.120823 0.182558 0.500000
O O13 0.159971 0.129010 0.235418
O O14 0.725077 0.824491 0.500000
O O15 0.750000 0.750000 0.250000
O O16 0.758144 0.884374 0.231790
O O17 0.693814 0.500000 0.727365
O O18 0.697570 0.423761 0.000000
#
# Coordination Sequence:
#
# PCOD9518107 Si02
#       6
#    16  16  16  16  16  16
#     4   9  20  41  66  88 111 143 186 235 284 338
#     4   8  14  25  43  70 100 126 162 218 272 311
#     4  11  23  35  53  83 116 150 183 221 276 341
#     4  10  18  30  51  75 101 140 183 224 268 321
#     4  10  20  35  54  76 107 148 188 231 280 333
#     4   9  17  30  51  77 100 131 182 236 279 321
#
# _framework density 20.557818000000001
#
# number of rings (size 3 to 8) (size 9 to 14) (size 15 to 20)
#    0.000    2.500    1.667    2.000    0.000    4.667 
#    0.000    4.167    0.000    3.500    0.000    1.167 
#    0.000    0.000    0.000    0.000    0.000    0.000 
#
# Total GULP energy -267601.268445 kJ/mol
# GULP energy per Si atom -5575.026426 kJ/mol
# Density = 2.051103 g / cm^3
# Si number density = 20.557818 Si / 1000 Ang^3
#
#
#
# Elastic Constant Matrix: (Units=GPa)
#
#
# Indices 1 2 3 4 5 6 
#
# 1 163.8572 90.6465 9.9433 0.0000 0.0000 0.0000
# 2 90.6465 129.9837 -0.4880 0.0000 0.0000 0.0000
# 3 9.9433 -0.4880 37.2353 0.0000 0.0000 0.0000
# 4 0.0000 0.0000 0.0000 -23.0410 0.0000 0.0000
# 5 0.0000 0.0000 0.0000 0.0000 12.2182 0.0000
# 6 0.0000 0.0000 0.0000 0.0000 0.0000 43.9644
#
#
#
# Elastic Compliance Matrix: (Units=1/GPa)
#
#
# Indices 1 2 3 4 5 6 
#
# 1 0.010225 -0.007141 -0.002824 0.000000 0.000000 0.000000
# 2 -0.007141 0.012681 0.002073 0.000000 0.000000 0.000000
# 3 -0.002824 0.002073 0.027638 0.000000 0.000000 0.000000
# 4 0.000000 0.000000 0.000000 -0.043401 0.000000 0.000000
# 5 0.000000 0.000000 0.000000 0.000000 0.081845 0.000000
# 6 0.000000 0.000000 0.000000 0.000000 0.000000 0.022746
#
#
# Mechanical properties :
#
#
# Convention : Reuss Voigt Hill
#
# Bulk Modulus (GPa) = 28.76915 59.03111 43.90013
# Shear Modulus (GPa) = 35.94461 22.02662 28.98562
#
# Velocity S-wave (km/s) = 4.18600 3.27685 3.75901
# Velocity P-wave (km/s) = 6.11458 6.56460 6.34358
#
# Compressibility (1/GPa) = 0.03475945
#
# Stress axis : x y z
#
# Youngs Moduli (GPa) = 97.80293 78.85859 36.18271
#
# Poissons Ratio (x) = 0.56312 0.10218
# Poissons Ratio (y) = 0.69841 -0.07501
# Poissons Ratio (z) = 0.27619 -0.16348
#
# Static dielectric constant tensor:
#      x y z
#    x 1.764700 0.000000 0.000000 
#    y 0.000000 1.689720 0.000000 
#    z 0.000000 0.000000 1.785210 
# 
# From -- ./inp_files/14877.got.cif
#   From: 2010.05.17/outbox.cif.g08.bks.cpg/sg71_8_cif.got.tgz:14877.got - 2010.06.03 16:22:01.
