data_PCOD9518454
_publ_section_title
;
Structure prediction by ZEFSAII (Michael W. Deem and Ramdas Pophale) SiO2 
 PCOD9518454
Probable space group: I M M M
;
_chemical_formula_sum "Si O2"
_cell_formula_units_Z 96
_cell_length_a 24.904103
_cell_length_b 22.702972
_cell_length_c 7.902212
_cell_angle_alpha 90.000000
_cell_angle_beta 90.000000
_cell_angle_gamma 90.000000
_cell_volume 4467.888168
_symmetry_space_group_name_H-M "I M M M"
_symmetry_group_IT_number 71
_symmetry_cell_setting 'orthorhombic'
loop_
_space_group_symop_operation_xyz
x,y,z
-x,-y,z
x,-y,-z
-x,y,-z
-x,-y,-z
x,y,-z
-x,y,z
x,-y,z
1/2+x,1/2+y,1/2+z
1/2-x,1/2-y,1/2+z
1/2+x,1/2-y,1/2-z
1/2-x,1/2+y,1/2-z
1/2-x,1/2-y,1/2-z
1/2+x,1/2+y,1/2-z
1/2-x,1/2+y,1/2+z
1/2+x,1/2-y,1/2+z
loop_
_atom_site_type_symbol
_atom_site_label
_atom_site_fract_x
_atom_site_fract_y
_atom_site_fract_z
Si Si1 0.905714 0.124119 0.795679
Si Si2 0.274764 0.878079 0.299283
Si Si3 0.283846 0.500000 0.206727
Si Si4 0.184135 0.794028 0.202183
Si Si5 0.000000 0.213537 0.801578
Si Si6 0.907299 0.000000 0.195933
Si Si7 0.000000 0.338982 0.311092
Si Si8 0.881361 0.324722 0.697931
O O1 0.850680 0.150513 0.729286
O O2 0.949258 0.173429 0.771212
O O3 0.923734 0.061679 0.725315
O O4 0.899199 0.116894 0.000000
O O5 0.279435 0.881213 0.500000
O O6 0.242888 0.816286 0.261385
O O7 0.334263 0.871863 0.224940
O O8 0.246001 0.938909 0.243255
O O9 0.342539 0.500000 0.290867
O O10 0.289496 0.500000 0.000000
O O11 0.147686 0.736319 0.241645
O O12 0.187384 0.794840 0.000000
O O13 0.000000 0.268533 0.682848
O O14 0.000000 0.232162 0.000000
O O15 0.925731 0.000000 0.000000
O O16 0.939690 0.346227 0.230594
O O17 0.000000 0.366210 0.500000
O O18 0.891255 0.316043 0.500000
#
# Coordination Sequence:
#
# PCOD9518454 Si02
#       8
#    16  16   8  16   8   8   8  16
#     4   9  18  29  50  78 106 142 187 232 269 312
#     4  11  23  39  58  84 114 146 182 225 275 329
#     4  10  22  38  57  80 108 142 179 223 274 325
#     4  11  20  34  56  85 115 147 186 228 274 325
#     4  10  18  33  52  76 107 145 190 231 271 319
#     4  10  18  33  52  76 107 145 190 231 271 319
#     4  10  22  38  57  80 108 142 179 223 274 325
#     4  11  23  39  58  84 114 146 182 225 275 329
#
# _framework density 21.486660000000001
#
# number of rings (size 3 to 8) (size 9 to 14) (size 15 to 20)
#    0.000    1.667    3.333    2.000    0.000    1.667 
#    0.000    2.500    0.000    0.500    0.000    4.667 
#    0.000    0.000    0.000    0.000    0.000    0.000 
#
# Total GULP energy -267339.983830 kJ/mol
# GULP energy per Si atom -5569.582996 kJ/mol
# Density = 2.143776 g / cm^3
# Si number density = 21.486660 Si / 1000 Ang^3
#
#
#
# Elastic Constant Matrix: (Units=GPa)
#
#
# Indices 1 2 3 4 5 6 
#
# 1 108.8059 -6.8053 12.7976 0.0000 0.0000 0.0000
# 2 -6.8053 41.5436 -1.1438 0.0000 0.0000 0.0000
# 3 12.7976 -1.1438 34.2687 0.0000 0.0000 0.0000
# 4 0.0000 0.0000 0.0000 14.0503 0.0000 0.0000
# 5 0.0000 0.0000 0.0000 0.0000 11.3255 0.0000
# 6 0.0000 0.0000 0.0000 0.0000 0.0000 102.3850
#
#
#
# Elastic Compliance Matrix: (Units=1/GPa)
#
#
# Indices 1 2 3 4 5 6 
#
# 1 0.009704 0.001491 -0.003574 0.000000 0.000000 0.000000
# 2 0.001491 0.024322 0.000255 0.000000 0.000000 0.000000
# 3 -0.003574 0.000255 0.030524 0.000000 0.000000 0.000000
# 4 0.000000 0.000000 0.000000 0.071173 0.000000 0.000000
# 5 0.000000 0.000000 0.000000 0.000000 0.088297 0.000000
# 6 0.000000 0.000000 0.000000 0.000000 0.000000 0.009767
#
#
# Mechanical properties :
#
#
# Convention : Reuss Voigt Hill
#
# Bulk Modulus (GPa) = 16.42170 21.59056 19.00613
# Shear Modulus (GPa) = 19.39922 37.53679 28.46800
#
# Velocity S-wave (km/s) = 3.00800 4.18422 3.64389
# Velocity P-wave (km/s) = 4.44111 5.78047 5.15448
#
# Compressibility (1/GPa) = 0.06089502
#
# Stress axis : x y z
#
# Youngs Moduli (GPa) = 103.04644 41.11433 32.76061
#
# Poissons Ratio (x) = -0.06131 0.11710
# Poissons Ratio (y) = -0.15367 -0.00835
# Poissons Ratio (z) = 0.36832 -0.01048
#
# Static dielectric constant tensor:
#      x y z
#    x 1.885870 0.000000 0.000000 
#    y 0.000000 1.805880 0.000000 
#    z 0.000000 0.000000 1.774960 
# 
# From -- ./inp_files/12985.got.cif
#   From: 2010.05.17/outbox.cif.g08.bks.cpg/sg71_7_cif.got.tgz:12985.got - 2010.06.03 16:22:01.
