data_PCOD9518894
_publ_section_title
;
Structure prediction by ZEFSAII (Michael W. Deem and Ramdas Pophale) SiO2 
 PCOD9518894
Probable space group: I M M M
;
_chemical_formula_sum "Si O2"
_cell_formula_units_Z 104
_cell_length_a 18.612952
_cell_length_b 18.785467
_cell_length_c 18.218581
_cell_angle_alpha 90.000000
_cell_angle_beta 90.000000
_cell_angle_gamma 90.000000
_cell_volume 6370.181422
_symmetry_space_group_name_H-M "I M M M"
_symmetry_group_IT_number 71
_symmetry_cell_setting 'orthorhombic'
loop_
_space_group_symop_operation_xyz
x,y,z
-x,-y,z
x,-y,-z
-x,y,-z
-x,-y,-z
x,y,-z
-x,y,z
x,-y,z
1/2+x,1/2+y,1/2+z
1/2-x,1/2-y,1/2+z
1/2+x,1/2-y,1/2-z
1/2-x,1/2+y,1/2-z
1/2-x,1/2-y,1/2-z
1/2+x,1/2+y,1/2-z
1/2-x,1/2+y,1/2+z
1/2+x,1/2-y,1/2+z
loop_
_atom_site_type_symbol
_atom_site_label
_atom_site_fract_x
_atom_site_fract_y
_atom_site_fract_z
Si Si1 0.689031 0.843254 0.697710
Si Si2 0.356998 0.360030 0.656039
Si Si3 0.844085 0.207628 0.303320
Si Si4 0.696914 0.917012 0.159479
Si Si5 0.915507 0.715347 0.913195
Si Si6 0.584418 0.189249 0.912845
Si Si7 0.084873 0.000000 0.082155
O O1 0.769441 0.826968 0.669706
O O2 0.672858 0.776428 0.752103
O O3 0.684791 0.909406 0.752764
O O4 0.630897 0.840250 0.633819
O O5 0.374851 0.346006 0.741835
O O6 0.271451 0.373629 0.647837
O O7 0.383997 0.292262 0.610234
O O8 0.392430 0.430255 0.625139
O O9 0.891359 0.239984 0.368305
O O10 0.633840 0.875540 0.116875
O O11 0.703613 0.000000 0.138759
O O12 0.000000 0.712815 0.894392
O O13 0.907869 0.705493 0.000000
O O14 0.500000 0.175731 0.899063
O O15 0.595192 0.197478 0.000000
O O16 0.000000 0.000000 0.075546
O O17 0.117018 0.000000 0.000000
#
# Coordination Sequence:
#
# PCOD9518894 Si02
#       7
#    16  16  16  16  16  16   8
#     4   8  16  30  49  71  92 120 163 206 237 281
#     4  10  19  33  49  71  98 131 167 198 231 285
#     4   8  16  31  51  69  91 122 162 206 247 282
#     4  10  20  35  51  69  95 132 166 199 240 287
#     4  10  19  30  47  73 103 130 157 196 245 291
#     4  10  21  34  48  72 101 124 158 208 251 290
#     4  11  22  32  44  70 108 140 164 191 226 280
#
# _framework density 16.326065
#
# number of rings (size 3 to 8) (size 9 to 14) (size 15 to 20)
#    0.000    2.538    0.769    3.692    0.000   11.077 
#    0.000    0.769    0.000    0.462    0.000    1.615 
#    0.000    1.846    0.000    0.000    0.000    0.000 
#
# Total GULP energy -289576.896008 kJ/mol
# GULP energy per Si atom -5568.786462 kJ/mol
# Density = 1.628891 g / cm^3
# Si number density = 16.326065 Si / 1000 Ang^3
#
#
#
# Elastic Constant Matrix: (Units=GPa)
#
#
# Indices 1 2 3 4 5 6 
#
# 1 89.9369 13.8805 57.4572 0.0000 0.0000 0.0000
# 2 13.8805 35.5483 23.1409 0.0000 0.0000 0.0000
# 3 57.4572 23.1409 75.1543 0.0000 0.0000 0.0000
# 4 0.0000 0.0000 0.0000 30.1690 0.0000 0.0000
# 5 0.0000 0.0000 0.0000 0.0000 31.1174 0.0000
# 6 0.0000 0.0000 0.0000 0.0000 0.0000 14.4072
#
#
#
# Elastic Compliance Matrix: (Units=1/GPa)
#
#
# Indices 1 2 3 4 5 6 
#
# 1 0.021979 0.002947 -0.017711 0.000000 0.000000 0.000000
# 2 0.002947 0.035578 -0.013208 0.000000 0.000000 0.000000
# 3 -0.017711 -0.013208 0.030913 0.000000 0.000000 0.000000
# 4 0.000000 0.000000 0.000000 0.033147 0.000000 0.000000
# 5 0.000000 0.000000 0.000000 0.000000 0.032136 0.000000
# 6 0.000000 0.000000 0.000000 0.000000 0.000000 0.069410
#
#
# Mechanical properties :
#
#
# Convention : Reuss Voigt Hill
#
# Bulk Modulus (GPa) = 30.74400 43.28851 37.01625
# Shear Modulus (GPa) = 17.24446 22.21611 19.73029
#
# Velocity S-wave (km/s) = 3.25353 3.69287 3.48014
# Velocity P-wave (km/s) = 5.74335 6.68996 6.23465
#
# Compressibility (1/GPa) = 0.03252667
#
# Stress axis : x y z
#
# Youngs Moduli (GPa) = 45.49854 28.10718 32.34873
#
# Poissons Ratio (x) = -0.08284 0.57292
# Poissons Ratio (y) = -0.13409 0.42727
# Poissons Ratio (z) = 0.80581 0.37124
#
# Static dielectric constant tensor:
#      x y z
#    x 1.569690 0.000000 0.000000 
#    y 0.000000 0.937360 0.000000 
#    z 0.000000 0.000000 1.565210 
# 
# From -- ./inp_files/46137.got.cif
#   From: 2010.05.17/outbox.cif.g08.bks.cpg/sg71_24_cif.got.tgz:46137.got - 2010.06.03 16:22:01.
