data_PCOD9518519
_publ_section_title
;
Structure prediction by ZEFSAII (Michael W. Deem and Ramdas Pophale) SiO2 
 PCOD9518519
Probable space group: I M M M
;
_chemical_formula_sum "Si O2"
_cell_formula_units_Z 58
_cell_length_a 10.798994
_cell_length_b 34.092748
_cell_length_c 7.536403
_cell_angle_alpha 90.000000
_cell_angle_beta 90.000000
_cell_angle_gamma 90.000000
_cell_volume 2774.657755
_symmetry_space_group_name_H-M "I M M M"
_symmetry_group_IT_number 71
_symmetry_cell_setting 'orthorhombic'
loop_
_space_group_symop_operation_xyz
x,y,z
-x,-y,z
x,-y,-z
-x,y,-z
-x,-y,-z
x,y,-z
-x,y,z
x,-y,z
1/2+x,1/2+y,1/2+z
1/2-x,1/2-y,1/2+z
1/2+x,1/2-y,1/2-z
1/2-x,1/2+y,1/2-z
1/2-x,1/2-y,1/2-z
1/2+x,1/2+y,1/2-z
1/2-x,1/2+y,1/2+z
1/2+x,1/2-y,1/2+z
loop_
_atom_site_type_symbol
_atom_site_label
_atom_site_fract_x
_atom_site_fract_y
_atom_site_fract_z
Si Si1 0.000000 0.210420 0.286384
Si Si2 0.710108 0.000000 0.195671
Si Si3 0.500000 0.802528 0.711082
Si Si4 0.643234 0.577971 0.784912
Si Si5 0.240896 0.837861 0.717199
Si Si6 0.500000 0.000000 0.500000
O O1 0.124753 0.188723 0.224111
O O2 0.000000 0.207340 0.500000
O O3 0.000000 0.256004 0.239588
O O4 0.794286 0.961375 0.216840
O O5 0.607731 0.000000 0.346343
O O6 0.654765 0.000000 0.000000
O O7 0.500000 0.809664 0.500000
O O8 0.372528 0.821320 0.779974
O O9 0.500000 0.581100 0.730860
O O10 0.715261 0.617341 0.730570
O O11 0.645730 0.576583 0.000000
O O12 0.241184 0.836791 0.500000
#
# Coordination Sequence:
#
# PCOD9518519 Si02
#       6
#     8   8   8  16  16   2
#     4  10  18  34  55  78 113 160 211 264 318 394
#     4  12  26  44  70 103 135 170 220 276 327 394
#     4  10  20  33  51  82 116 156 206 263 329 393
#     4  10  19  38  66  94 126 170 220 272 336 402
#     4   9  18  33  56  85 117 159 215 266 319 390
#     4  12  26  52  66  94 132 188 218 250 336 406
#
# _framework density 20.903478
#
# number of rings (size 3 to 8) (size 9 to 14) (size 15 to 20)
#    0.000    1.931    2.759    1.448    0.000    3.310 
#    2.483    2.759    0.000    0.000    0.000    0.000 
#    0.000    0.000    0.000    0.000    0.000    0.000 
#
# Total GULP energy -161850.504067 kJ/mol
# GULP energy per Si atom -5581.051864 kJ/mol
# Density = 2.085590 g / cm^3
# Si number density = 20.903478 Si / 1000 Ang^3
#
#
#
# Elastic Constant Matrix: (Units=GPa)
#
#
# Indices 1 2 3 4 5 6 
#
# 1 209.2359 130.9011 31.6571 -0.0028 0.0013 0.0000
# 2 130.9011 210.0461 16.4680 -0.0039 -0.0010 0.0004
# 3 31.6571 16.4680 85.8977 0.0025 -0.0173 -0.0010
# 4 -0.0028 -0.0039 0.0025 26.8214 0.0087 0.0021
# 5 0.0013 -0.0010 -0.0173 0.0087 -55.5124 -0.0041
# 6 0.0000 0.0004 -0.0010 0.0021 -0.0041 -14.6745
#
#
#
# Elastic Compliance Matrix: (Units=1/GPa)
#
#
# Indices 1 2 3 4 5 6 
#
# 1 0.008180 -0.004936 -0.002068 0.000000 0.000001 0.000000
# 2 -0.004936 0.007812 0.000321 0.000001 0.000000 0.000000
# 3 -0.002068 0.000321 0.012342 -0.000001 -0.000004 -0.000001
# 4 0.000000 0.000001 -0.000001 0.037284 0.000006 0.000005
# 5 0.000001 0.000000 -0.000004 0.000006 -0.018014 0.000005
# 6 0.000000 0.000000 -0.000001 0.000005 0.000005 -0.068145
#
#
# Mechanical properties :
#
#
# Convention : Reuss Voigt Hill
#
# Bulk Modulus (GPa) = 66.80631 95.91466 81.36048
# Shear Modulus (GPa) = -2286.75459 13.07046 -1136.84206
#
# Velocity S-wave (km/s) = -33.11093 2.50327 -23.34596
# Velocity P-wave (km/s) = 37.81203 7.37152 26.22413
#
# Compressibility (1/GPa) = 0.01496865
#
# Stress axis : x y z
#
# Youngs Moduli (GPa) = 122.24826 128.01511 81.02112
#
# Poissons Ratio (x) = 0.63184 0.16759
# Poissons Ratio (y) = 0.60338 -0.02604
# Poissons Ratio (z) = 0.25287 -0.04114
#
# Static dielectric constant tensor:
#      x y z
#    x 1.709820 0.000000 0.000000 
#    y 0.000000 1.695030 0.000000 
#    z 0.000000 0.000000 1.798180 
# 
# From -- ./inp_files/3451.got.cif
#   From: 2010.05.17/outbox.cif.g08.bks.cpg/sg71_2_cif.got.tgz:3451.got - 2010.06.03 16:22:01.
