data_PCOD9518727
_publ_section_title
;
Structure prediction by ZEFSAII (Michael W. Deem and Ramdas Pophale) SiO2 
 PCOD9518727
Probable space group: I M M M
;
_chemical_formula_sum "Si O2"
_cell_formula_units_Z 104
_cell_length_a 25.207445
_cell_length_b 18.580437
_cell_length_c 13.793713
_cell_angle_alpha 90.000000
_cell_angle_beta 90.000000
_cell_angle_gamma 90.000000
_cell_volume 6460.497131
_symmetry_space_group_name_H-M "I M M M"
_symmetry_group_IT_number 71
_symmetry_cell_setting 'orthorhombic'
loop_
_space_group_symop_operation_xyz
x,y,z
-x,-y,z
x,-y,-z
-x,y,-z
-x,-y,-z
x,y,-z
-x,y,z
x,-y,z
1/2+x,1/2+y,1/2+z
1/2-x,1/2-y,1/2+z
1/2+x,1/2-y,1/2-z
1/2-x,1/2+y,1/2-z
1/2-x,1/2-y,1/2-z
1/2+x,1/2+y,1/2-z
1/2-x,1/2+y,1/2+z
1/2+x,1/2-y,1/2+z
loop_
_atom_site_type_symbol
_atom_site_label
_atom_site_fract_x
_atom_site_fract_y
_atom_site_fract_z
Si Si1 0.109641 0.156364 0.613125
Si Si2 0.347383 0.586551 0.291674
Si Si3 0.500000 0.419822 0.117074
Si Si4 0.438300 0.684769 0.614478
Si Si5 0.737493 0.912790 0.110027
Si Si6 0.938171 0.712367 0.707041
Si Si7 0.382282 0.085915 0.883943
O O1 0.119204 0.146266 0.500000
O O2 0.149982 0.115508 0.682050
O O3 0.100352 0.239026 0.640197
O O4 0.053134 0.121132 0.642454
O O5 0.353625 0.500000 0.296505
O O6 0.394892 0.626521 0.349780
O O7 0.289945 0.607974 0.332740
O O8 0.500000 0.500000 0.157626
O O9 0.500000 0.424073 0.000000
O O10 0.431053 0.699640 0.500000
O O11 0.500000 0.660351 0.627521
O O12 0.431919 0.754387 0.684937
O O13 0.678394 0.892936 0.143100
O O14 0.737328 0.000000 0.107967
O O15 0.743318 0.886943 0.000000
O O16 0.921362 0.631453 0.683297
O O17 0.000000 0.722258 0.679972
O O18 0.388231 0.000000 0.871871
O O19 0.389722 0.100340 0.000000
#
# Coordination Sequence:
#
# PCOD9518727 Si02
#       7
#    16  16   8  16  16  16  16
#     4  10  19  30  42  64  98 133 165 194 231 279
#     4  10  19  29  47  70  91 123 167 207 238 272
#     4   9  16  26  40  56  82 126 168 193 216 258
#     4   9  19  34  48  66  95 128 159 194 239 282
#     4   8  15  30  49  68  92 122 156 193 237 285
#     4  10  19  32  51  72  96 127 157 188 234 290
#     4   9  18  32  52  77 100 121 148 188 238 291
#
# _framework density 16.097832
#
# number of rings (size 3 to 8) (size 9 to 14) (size 15 to 20)
#    0.000    2.692    0.769    2.308    1.077    3.385 
#    0.000    4.615    0.000    3.231    0.000    4.308 
#    0.000    0.000    0.000    0.000    0.000    0.000 
#
# Total GULP energy -289484.246316 kJ/mol
# GULP energy per Si atom -5567.004737 kJ/mol
# Density = 1.606119 g / cm^3
# Si number density = 16.097832 Si / 1000 Ang^3
#
#
#
# Elastic Constant Matrix: (Units=GPa)
#
#
# Indices 1 2 3 4 5 6 
#
# 1 56.3028 28.4276 36.6239 0.0000 0.0000 0.0000
# 2 28.4276 65.2068 27.9019 0.0000 0.0000 0.0000
# 3 36.6239 27.9019 81.0167 0.0000 0.0000 0.0000
# 4 0.0000 0.0000 0.0000 18.1381 0.0000 0.0000
# 5 0.0000 0.0000 0.0000 0.0000 23.5760 0.0000
# 6 0.0000 0.0000 0.0000 0.0000 0.0000 -14.0885
#
#
#
# Elastic Compliance Matrix: (Units=1/GPa)
#
#
# Indices 1 2 3 4 5 6 
#
# 1 0.028370 -0.008070 -0.010046 0.000000 0.000000 0.000000
# 2 -0.008070 0.020282 -0.003337 0.000000 0.000000 0.000000
# 3 -0.010046 -0.003337 0.018034 0.000000 0.000000 0.000000
# 4 0.000000 0.000000 0.000000 0.055133 0.000000 0.000000
# 5 0.000000 0.000000 0.000000 0.000000 0.042416 0.000000
# 6 0.000000 0.000000 0.000000 0.000000 0.000000 -0.070980
#
#
# Mechanical properties :
#
#
# Convention : Reuss Voigt Hill
#
# Bulk Modulus (GPa) = 42.05095 43.15923 42.60509
# Shear Modulus (GPa) = 34.70160 12.82998 23.76579
#
# Velocity S-wave (km/s) = 4.64796 2.82618 3.84648
# Velocity P-wave (km/s) = 7.41508 6.12524 6.80081
#
# Compressibility (1/GPa) = 0.02378068
#
# Stress axis : x y z
#
# Youngs Moduli (GPa) = 35.24849 49.30527 55.45219
#
# Poissons Ratio (x) = 0.39788 0.55705
# Poissons Ratio (y) = 0.28445 0.18505
# Poissons Ratio (z) = 0.35409 0.16453
#
# Static dielectric constant tensor:
#      x y z
#    x 1.554630 0.000000 0.000000 
#    y 0.000000 1.563200 0.000000 
#    z 0.000000 0.000000 1.546750 
# 
# From -- ./inp_files/39495.got.cif
#   From: 2010.05.17/outbox.cif.g08.bks.cpg/sg71_20_cif.got.tgz:39495.got - 2010.06.03 16:22:01.
