data_PCOD9518299
_publ_section_title
;
Structure prediction by ZEFSAII (Michael W. Deem and Ramdas Pophale) SiO2 
 PCOD9518299
Probable space group: I M M M
;
_chemical_formula_sum "Si O2"
_cell_formula_units_Z 128
_cell_length_a 20.168809
_cell_length_b 20.285849
_cell_length_c 19.281216
_cell_angle_alpha 90.000000
_cell_angle_beta 90.000000
_cell_angle_gamma 90.000000
_cell_volume 7888.743976
_symmetry_space_group_name_H-M "I M M M"
_symmetry_group_IT_number 71
_symmetry_cell_setting 'orthorhombic'
loop_
_space_group_symop_operation_xyz
x,y,z
-x,-y,z
x,-y,-z
-x,y,-z
-x,-y,-z
x,y,-z
-x,y,z
x,-y,z
1/2+x,1/2+y,1/2+z
1/2-x,1/2-y,1/2+z
1/2+x,1/2-y,1/2-z
1/2-x,1/2+y,1/2-z
1/2-x,1/2-y,1/2-z
1/2+x,1/2+y,1/2-z
1/2-x,1/2+y,1/2+z
1/2+x,1/2-y,1/2+z
loop_
_atom_site_type_symbol
_atom_site_label
_atom_site_fract_x
_atom_site_fract_y
_atom_site_fract_z
Si Si1 0.572767 0.309906 0.317953
Si Si2 0.235572 0.225312 0.422687
Si Si3 0.698623 0.923114 0.224766
Si Si4 0.388704 0.576844 0.579270
Si Si5 0.234331 0.384234 0.422591
Si Si6 0.924908 0.422277 0.178341
Si Si7 0.890963 0.307555 0.079709
Si Si8 0.203325 0.189290 0.274572
O O1 0.500000 0.307348 0.285187
O O2 0.579662 0.375345 0.364691
O O3 0.580446 0.249092 0.371024
O O4 0.633649 0.307343 0.264714
O O5 0.210536 0.209009 0.500000
O O6 0.237874 0.304853 0.416976
O O7 0.311294 0.200397 0.417527
O O8 0.197106 0.196131 0.357307
O O9 0.693902 0.911047 0.142431
O O10 0.630891 0.905738 0.264744
O O11 0.757022 0.876399 0.252950
O O12 0.713076 0.000000 0.237142
O O13 0.408280 0.594079 0.500000
O O14 0.403253 0.500000 0.590673
O O15 0.309237 0.588303 0.583305
O O16 0.209911 0.401056 0.500000
O O17 0.919075 0.500000 0.162553
O O18 0.911592 0.377174 0.111792
O O19 0.000000 0.409963 0.203099
O O20 0.911570 0.299588 0.000000
O O21 0.250000 0.250000 0.250000
#
# Coordination Sequence:
#
# PCOD9518299 Si02
#       8
#    16  16  16  16  16  16  16  16
#     4  12  24  34  50  79 109 138 176 214 252 304
#     4  10  19  33  57  82 103 131 174 222 262 302
#     4  11  20  32  54  79 102 136 176 218 257 302
#     4  10  19  32  49  71 107 150 180 204 243 298
#     4  10  18  31  53  79 105 135 175 219 259 303
#     4  10  22  37  51  73 104 137 172 212 265 316
#     4  11  20  34  54  76 102 136 175 212 251 301
#     4  12  19  36  58  75 101 138 176 214 260 302
#
# _framework density 16.225650000000002
#
# number of rings (size 3 to 8) (size 9 to 14) (size 15 to 20)
#    0.000    1.250    6.250    1.125    0.000    3.000 
#    0.000    1.250    0.000    1.125    0.000    3.500 
#    0.000    0.000    0.000    2.250    0.000    0.000 
#
# Total GULP energy -357295.112067 kJ/mol
# GULP energy per Si atom -5582.736126 kJ/mol
# Density = 1.618872 g / cm^3
# Si number density = 16.225650 Si / 1000 Ang^3
#
#
#
# Elastic Constant Matrix: (Units=GPa)
#
#
# Indices 1 2 3 4 5 6 
#
# 1 102.6994 40.3258 57.0688 0.0000 0.0000 0.0000
# 2 40.3258 57.1336 41.9663 0.0000 0.0000 0.0000
# 3 57.0688 41.9663 114.9425 0.0000 0.0000 0.0000
# 4 0.0000 0.0000 0.0000 22.7799 0.0000 0.0000
# 5 0.0000 0.0000 0.0000 0.0000 15.1377 0.0000
# 6 0.0000 0.0000 0.0000 0.0000 0.0000 -4.1752
#
#
#
# Elastic Compliance Matrix: (Units=1/GPa)
#
#
# Indices 1 2 3 4 5 6 
#
# 1 0.015319 -0.007140 -0.004999 0.000000 0.000000 0.000000
# 2 -0.007140 0.027245 -0.006402 0.000000 0.000000 0.000000
# 3 -0.004999 -0.006402 0.013519 0.000000 0.000000 0.000000
# 4 0.000000 0.000000 0.000000 0.043898 0.000000 0.000000
# 5 0.000000 0.000000 0.000000 0.000000 0.066060 0.000000
# 6 0.000000 0.000000 0.000000 0.000000 0.000000 -0.239509
#
#
# Mechanical properties :
#
#
# Convention : Reuss Voigt Hill
#
# Bulk Modulus (GPa) = 52.62994 61.49970 57.06482
# Shear Modulus (GPa) = -166.38479 15.77613 -75.30433
#
# Velocity S-wave (km/s) = -10.13740 3.12155 -6.81993
# Velocity P-wave (km/s) = 10.22330 7.13983 5.17391
#
# Compressibility (1/GPa) = 0.01900059
#
# Stress axis : x y z
#
# Youngs Moduli (GPa) = 65.28018 36.70352 73.96827
#
# Poissons Ratio (x) = 0.26208 0.36974
# Poissons Ratio (y) = 0.46613 0.47356
# Poissons Ratio (z) = 0.32631 0.23498
#
# Static dielectric constant tensor:
#      x y z
#    x 1.538500 0.000000 0.000000 
#    y 0.000000 1.551140 0.000000 
#    z 0.000000 0.000000 1.553460 
# 
# From -- ./inp_files/47717.got.cif
#   From: 2010.05.17/outbox.cif.g08.bks.cpg/sg71_24_cif.got.tgz:47717.got - 2010.06.03 16:22:01.
