data_PCOD9518091
_publ_section_title
;
Structure prediction by ZEFSAII (Michael W. Deem and Ramdas Pophale) SiO2 
 PCOD9518091
Probable space group: I M M M
;
_chemical_formula_sum "Si O2"
_cell_formula_units_Z 104
_cell_length_a 22.711699
_cell_length_b 7.860392
_cell_length_c 27.784639
_cell_angle_alpha 90.000000
_cell_angle_beta 90.000000
_cell_angle_gamma 90.000000
_cell_volume 4960.193138
_symmetry_space_group_name_H-M "I M M M"
_symmetry_group_IT_number 71
_symmetry_cell_setting 'orthorhombic'
loop_
_space_group_symop_operation_xyz
x,y,z
-x,-y,z
x,-y,-z
-x,y,-z
-x,-y,-z
x,y,-z
-x,y,z
x,-y,z
1/2+x,1/2+y,1/2+z
1/2-x,1/2-y,1/2+z
1/2+x,1/2-y,1/2-z
1/2-x,1/2+y,1/2-z
1/2-x,1/2-y,1/2-z
1/2+x,1/2+y,1/2-z
1/2-x,1/2+y,1/2+z
1/2+x,1/2-y,1/2+z
loop_
_atom_site_type_symbol
_atom_site_label
_atom_site_fract_x
_atom_site_fract_y
_atom_site_fract_z
Si Si1 0.607057 0.793430 0.054698
Si Si2 0.861850 0.305302 0.906990
Si Si3 0.183807 0.699620 0.703289
Si Si4 0.239693 0.305125 0.442270
Si Si5 0.563312 0.699812 0.154396
Si Si6 0.811656 0.297785 0.188141
Si Si7 0.068906 0.291855 0.000000
O O1 0.674045 0.741193 0.067636
O O2 0.566950 0.726554 0.097054
O O3 0.606242 0.000000 0.055125
O O4 0.593315 0.739914 0.000000
O O5 0.882733 0.500000 0.901409
O O6 0.794370 0.302772 0.924848
O O7 0.853966 0.226484 0.853755
O O8 0.899653 0.229009 0.950893
O O9 0.196320 0.500000 0.706888
O O10 0.122001 0.722114 0.676918
O O11 0.179392 0.770651 0.757838
O O12 0.241869 0.774745 0.678009
O O13 0.243037 0.313730 0.500000
O O14 0.245356 0.500000 0.423740
O O15 0.500000 0.768845 0.171583
O O16 0.565213 0.500000 0.164845
O O17 0.822847 0.500000 0.189255
O O18 0.075194 0.500000 0.000000
O O19 0.000000 0.251585 0.000000
#
# Coordination Sequence:
#
# PCOD9518091 Si02
#       7
#    16  16  16  16  16  16   8
#     4   9  19  35  54  78 107 138 175 218 264 317
#     4  10  18  30  50  76 102 133 174 212 255 313
#     4  10  20  36  57  81 108 139 176 219 272 329
#     4   9  17  29  46  72 105 135 164 204 253 301
#     4  11  24  39  54  74 104 144 185 224 266 312
#     4   9  19  34  55  84 112 133 165 221 279 329
#     4   9  18  32  49  71 103 141 176 211 254 309
#
# _framework density 20.966925
#
# number of rings (size 3 to 8) (size 9 to 14) (size 15 to 20)
#    0.000    2.385    0.769    2.769    0.000    6.154 
#    0.000    3.846    0.000    3.692    0.000    0.000 
#    0.000    0.000    0.000    0.000    0.000    0.000 
#
# Total GULP energy -290026.909482 kJ/mol
# GULP energy per Si atom -5577.440567 kJ/mol
# Density = 2.091920 g / cm^3
# Si number density = 20.966925 Si / 1000 Ang^3
#
#
#
# Elastic Constant Matrix: (Units=GPa)
#
#
# Indices 1 2 3 4 5 6 
#
# 1 84.1399 -3.5921 63.0571 0.0000 0.0000 0.0000
# 2 -3.5921 23.9660 -1.0419 0.0000 0.0000 0.0000
# 3 63.0571 -1.0419 119.3663 0.0000 0.0000 0.0000
# 4 0.0000 0.0000 0.0000 13.2644 0.0000 0.0000
# 5 0.0000 0.0000 0.0000 0.0000 13.9075 0.0000
# 6 0.0000 0.0000 0.0000 0.0000 0.0000 0.6579
#
#
#
# Elastic Compliance Matrix: (Units=1/GPa)
#
#
# Indices 1 2 3 4 5 6 
#
# 1 0.019824 0.002517 -0.010451 0.000000 0.000000 0.000000
# 2 0.002517 0.042061 -0.000963 0.000000 0.000000 0.000000
# 3 -0.010451 -0.000963 0.013890 0.000000 0.000000 0.000000
# 4 0.000000 0.000000 0.000000 0.075389 0.000000 0.000000
# 5 0.000000 0.000000 0.000000 0.000000 0.071904 0.000000
# 6 0.000000 0.000000 0.000000 0.000000 0.000000 1.520097
#
#
# Mechanical properties :
#
#
# Convention : Reuss Voigt Hill
#
# Bulk Modulus (GPa) = 17.24634 38.25759 27.75196
# Shear Modulus (GPa) = 2.80854 16.83590 9.82222
#
# Velocity S-wave (km/s) = 1.15863 2.83675 2.16675
# Velocity P-wave (km/s) = 3.16753 5.38663 4.41866
#
# Compressibility (1/GPa) = 0.05798333
#
# Stress axis : x y z
#
# Youngs Moduli (GPa) = 50.44286 23.77488 71.99497
#
# Poissons Ratio (x) = -0.05984 0.75239
# Poissons Ratio (y) = -0.12697 0.06930
# Poissons Ratio (z) = 0.52716 0.02288
#
# Static dielectric constant tensor:
#      x y z
#    x 1.737840 0.000000 0.000000 
#    y 0.000000 1.780410 0.000000 
#    z 0.000000 0.000000 1.824150 
# 
# From -- ./inp_files/70983.got.cif
#   From: 2010.05.17/outbox.cif.g08.bks.cpg/sg71_36_cif.got.tgz:70983.got - 2010.06.03 16:22:01.
