data_PCOD9518477
_publ_section_title
;
Structure prediction by ZEFSAII (Michael W. Deem and Ramdas Pophale) SiO2 
 PCOD9518477
Probable space group: I M M M
;
_chemical_formula_sum "Si O2"
_cell_formula_units_Z 88
_cell_length_a 7.516603
_cell_length_b 31.421922
_cell_length_c 17.190625
_cell_angle_alpha 90.000000
_cell_angle_beta 90.000000
_cell_angle_gamma 90.000000
_cell_volume 4060.186902
_symmetry_space_group_name_H-M "I M M M"
_symmetry_group_IT_number 71
_symmetry_cell_setting 'orthorhombic'
loop_
_space_group_symop_operation_xyz
x,y,z
-x,-y,z
x,-y,-z
-x,y,-z
-x,-y,-z
x,y,-z
-x,y,z
x,-y,z
1/2+x,1/2+y,1/2+z
1/2-x,1/2-y,1/2+z
1/2+x,1/2-y,1/2-z
1/2-x,1/2+y,1/2-z
1/2-x,1/2-y,1/2-z
1/2+x,1/2+y,1/2-z
1/2-x,1/2+y,1/2+z
1/2+x,1/2-y,1/2+z
loop_
_atom_site_type_symbol
_atom_site_label
_atom_site_fract_x
_atom_site_fract_y
_atom_site_fract_z
Si Si1 0.285807 0.224282 0.668956
Si Si2 0.217273 0.500000 0.590304
Si Si3 0.285754 0.546568 0.910009
Si Si4 0.289426 0.871690 0.307181
Si Si5 0.784437 0.646837 0.500000
Si Si6 0.204019 0.755691 0.000000
Si Si7 0.717583 0.090839 0.853043
O O1 0.500000 0.224753 0.663874
O O2 0.250000 0.250000 0.750000
O O3 0.220233 0.175363 0.674023
O O4 0.219409 0.242163 0.584956
O O5 0.271366 0.500000 0.500000
O O6 0.276558 0.457197 0.632138
O O7 0.000000 0.500000 0.589986
O O8 0.500000 0.545872 0.908479
O O9 0.225387 0.500000 0.877993
O O10 0.231296 0.589702 0.867519
O O11 0.229270 0.548412 0.000000
O O12 0.500000 0.865447 0.296725
O O13 0.215857 0.889234 0.226334
O O14 0.707988 0.693574 0.500000
O O15 0.731181 0.620296 0.575292
O O16 0.000000 0.650239 0.500000
O O17 0.000000 0.739702 0.000000
O O18 0.500000 0.089880 0.851281
#
# Coordination Sequence:
#
# PCOD9518477 Si02
#       7
#    16   8  16  16   8   8  16
#     4  10  22  40  59  83 117 151 189 237 291 345
#     4   9  14  24  42  70 109 144 169 205 264 320
#     4   9  20  39  58  77 107 145 182 222 272 334
#     4  10  21  34  55  85 112 140 181 232 280 326
#     4  10  18  33  56  80 106 139 185 228 262 314
#     4  10  22  38  57  79 110 151 182 223 290 347
#     4   9  17  28  46  77 112 140 171 218 268 312
#
# _framework density 21.673878999999999
#
# number of rings (size 3 to 8) (size 9 to 14) (size 15 to 20)
#    0.000    2.455    0.909    1.636    2.545    3.636 
#    0.000    1.818    0.000    0.000    0.000    0.636 
#    0.000    0.000    0.000    0.000    0.000    0.000 
#
# Total GULP energy -245491.216837 kJ/mol
# GULP energy per Si atom -5579.345837 kJ/mol
# Density = 2.162455 g / cm^3
# Si number density = 21.673879 Si / 1000 Ang^3
#
#
#
# Elastic Constant Matrix: (Units=GPa)
#
#
# Indices 1 2 3 4 5 6 
#
# 1 55.6604 0.6202 4.9427 0.0000 0.0000 0.0000
# 2 0.6202 224.0657 118.6884 0.0000 0.0000 0.0000
# 3 4.9427 118.6884 169.1571 0.0000 0.0000 -0.0001
# 4 0.0000 0.0000 0.0000 72.8506 0.0000 0.0000
# 5 0.0000 0.0000 0.0000 0.0000 15.2908 -0.0001
# 6 0.0000 0.0000 -0.0001 0.0000 -0.0001 179.5322
#
#
#
# Elastic Compliance Matrix: (Units=1/GPa)
#
#
# Indices 1 2 3 4 5 6 
#
# 1 0.018032 0.000365 -0.000783 0.000000 0.000000 0.000000
# 2 0.000365 0.007110 -0.005000 0.000000 0.000000 0.000000
# 3 -0.000783 -0.005000 0.009442 0.000000 0.000000 0.000000
# 4 0.000000 0.000000 0.000000 0.013727 0.000000 0.000000
# 5 0.000000 0.000000 0.000000 0.000000 0.065399 0.000000
# 6 0.000000 0.000000 0.000000 0.000000 0.000000 0.005570
#
#
# Mechanical properties :
#
#
# Convention : Reuss Voigt Hill
#
# Bulk Modulus (GPa) = 42.10695 77.48732 59.79713
# Shear Modulus (GPa) = 36.22366 75.17684 55.70025
#
# Velocity S-wave (km/s) = 4.09259 5.89583 5.07494
# Velocity P-wave (km/s) = 6.46546 9.06514 7.87334
#
# Compressibility (1/GPa) = 0.02374905
#
# Stress axis : x y z
#
# Youngs Moduli (GPa) = 55.45837 140.64227 105.90482
#
# Poissons Ratio (x) = -0.05130 0.08290
# Poissons Ratio (y) = -0.02023 0.52947
# Poissons Ratio (z) = 0.04341 0.70315
#
# Static dielectric constant tensor:
#      x y z
#    x 1.841170 0.000000 0.000000 
#    y 0.000000 1.767780 0.000000 
#    z 0.000000 0.000000 1.772990 
# 
# From -- ./inp_files/42543.got.cif
#   From: 2010.05.17/outbox.cif.g08.bks.cpg/sg71_22_cif.got.tgz:42543.got - 2010.06.03 16:22:01.
