data_PCOD9518142
_publ_section_title
;
Structure prediction by ZEFSAII (Michael W. Deem and Ramdas Pophale) SiO2 
 PCOD9518142
Probable space group: I M M M
;
_chemical_formula_sum "Si O2"
_cell_formula_units_Z 88
_cell_length_a 22.862156
_cell_length_b 8.953720
_cell_length_c 22.885089
_cell_angle_alpha 90.000000
_cell_angle_beta 90.000000
_cell_angle_gamma 90.000000
_cell_volume 4684.608463
_symmetry_space_group_name_H-M "I M M M"
_symmetry_group_IT_number 71
_symmetry_cell_setting 'orthorhombic'
loop_
_space_group_symop_operation_xyz
x,y,z
-x,-y,z
x,-y,-z
-x,y,-z
-x,-y,-z
x,y,-z
-x,y,z
x,-y,z
1/2+x,1/2+y,1/2+z
1/2-x,1/2-y,1/2+z
1/2+x,1/2-y,1/2-z
1/2-x,1/2+y,1/2-z
1/2-x,1/2-y,1/2-z
1/2+x,1/2+y,1/2-z
1/2-x,1/2+y,1/2+z
1/2+x,1/2-y,1/2+z
loop_
_atom_site_type_symbol
_atom_site_label
_atom_site_fract_x
_atom_site_fract_y
_atom_site_fract_z
Si Si1 0.287983 0.825117 0.500000
Si Si2 0.596022 0.178598 0.336673
Si Si3 0.345457 0.824555 0.130650
Si Si4 0.165853 0.325880 0.500000
Si Si5 0.208156 0.821748 0.121412
Si Si6 0.500000 0.181703 0.568037
Si Si7 0.064740 0.174980 0.716891
O O1 0.218613 0.791528 0.500000
O O2 0.308826 0.745472 0.558443
O O3 0.301518 0.000000 0.500000
O O4 0.660545 0.249608 0.336721
O O5 0.556453 0.225788 0.392665
O O6 0.567270 0.233627 0.276951
O O7 0.600032 0.000000 0.338079
O O8 0.364468 0.808395 0.062510
O O9 0.276279 0.784281 0.133523
O O10 0.385353 0.730327 0.173318
O O11 0.350201 0.000000 0.145672
O O12 0.189372 0.500000 0.500000
O O13 0.203857 0.000000 0.120962
O O14 0.500000 0.232359 0.500000
O O15 0.500000 0.000000 0.566312
O O16 0.000000 0.195681 0.690481
O O17 0.072381 0.000000 0.730160
#
# Coordination Sequence:
#
# PCOD9518142 Si02
#       7
#     8  16  16   8  16   8  16
#     4  10  18  30  52  82 116 156 196 230 277 346
#     4  11  22  38  62  87 115 155 198 242 292 349
#     4   9  19  37  62  87 116 153 193 236 289 350
#     4   8  16  34  57  85 119 150 182 233 290 341
#     4  10  21  37  56  85 121 154 189 242 299 347
#     4   9  20  38  59  87 121 152 192 247 288 330
#     4  11  24  41  60  82 114 154 196 243 294 347
#
# _framework density 18.78492
#
# number of rings (size 3 to 8) (size 9 to 14) (size 15 to 20)
#    0.000    2.091    0.909    3.545    1.273    5.455 
#    0.000    0.455    0.000    4.909    0.000    0.000 
#    0.000    0.000    0.000    0.000    0.000    0.000 
#
# Total GULP energy -245366.749284 kJ/mol
# GULP energy per Si atom -5576.517029 kJ/mol
# Density = 1.874216 g / cm^3
# Si number density = 18.784920 Si / 1000 Ang^3
#
#
#
# Elastic Constant Matrix: (Units=GPa)
#
#
# Indices 1 2 3 4 5 6 
#
# 1 99.8101 49.6452 50.5048 0.0000 0.0000 0.0000
# 2 49.6452 65.2624 32.5271 0.0000 0.0000 0.0000
# 3 50.5048 32.5271 78.4511 0.0000 0.0000 0.0000
# 4 0.0000 0.0000 0.0000 27.6822 0.0000 0.0000
# 5 0.0000 0.0000 0.0000 0.0000 16.2479 0.0000
# 6 0.0000 0.0000 0.0000 0.0000 0.0000 20.5396
#
#
#
# Elastic Compliance Matrix: (Units=1/GPa)
#
#
# Indices 1 2 3 4 5 6 
#
# 1 0.019462 -0.010790 -0.008055 0.000000 0.000000 0.000000
# 2 -0.010790 0.025296 -0.003542 0.000000 0.000000 0.000000
# 3 -0.008055 -0.003542 0.019401 0.000000 0.000000 0.000000
# 4 0.000000 0.000000 0.000000 0.036124 0.000000 0.000000
# 5 0.000000 0.000000 0.000000 0.000000 0.061546 0.000000
# 6 0.000000 0.000000 0.000000 0.000000 0.000000 0.048687
#
#
# Mechanical properties :
#
#
# Convention : Reuss Voigt Hill
#
# Bulk Modulus (GPa) = 51.58705 56.54198 54.06451
# Shear Modulus (GPa) = 19.10202 20.28370 19.69286
#
# Velocity S-wave (km/s) = 3.19232 3.28958 3.24131
# Velocity P-wave (km/s) = 6.41166 6.67783 6.54610
#
# Compressibility (1/GPa) = 0.01938471
#
# Stress axis : x y z
#
# Youngs Moduli (GPa) = 51.38209 39.53205 51.54322
#
# Poissons Ratio (x) = 0.42655 0.41520
# Poissons Ratio (y) = 0.55441 0.18256
# Poissons Ratio (z) = 0.41391 0.14002
#
# Static dielectric constant tensor:
#      x y z
#    x 1.651170 0.000000 0.000000 
#    y 0.000000 1.623740 0.000000 
#    z 0.000000 0.000000 1.713070 
# 
# From -- ./inp_files/61171.got.cif
#   From: 2010.05.17/outbox.cif.g08.bks.cpg/sg71_31_cif.got.tgz:61171.got - 2010.06.03 16:22:01.
