data_PCOD9518452
_publ_section_title
;
Structure prediction by ZEFSAII (Michael W. Deem and Ramdas Pophale) SiO2 
 PCOD9518452
Probable space group: I M M M
;
_chemical_formula_sum "Si O2"
_cell_formula_units_Z 116
_cell_length_a 24.900669
_cell_length_b 30.174039
_cell_length_c 7.599622
_cell_angle_alpha 90.000000
_cell_angle_beta 90.000000
_cell_angle_gamma 90.000000
_cell_volume 5710.004546
_symmetry_space_group_name_H-M "I M M M"
_symmetry_group_IT_number 71
_symmetry_cell_setting 'orthorhombic'
loop_
_space_group_symop_operation_xyz
x,y,z
-x,-y,z
x,-y,-z
-x,y,-z
-x,-y,-z
x,y,-z
-x,y,z
x,-y,z
1/2+x,1/2+y,1/2+z
1/2-x,1/2-y,1/2+z
1/2+x,1/2-y,1/2-z
1/2-x,1/2+y,1/2-z
1/2-x,1/2-y,1/2-z
1/2+x,1/2+y,1/2-z
1/2-x,1/2+y,1/2+z
1/2+x,1/2-y,1/2+z
loop_
_atom_site_type_symbol
_atom_site_label
_atom_site_fract_x
_atom_site_fract_y
_atom_site_fract_z
Si Si1 0.173062 0.376423 0.789210
Si Si2 0.749062 0.801884 0.289236
Si Si3 0.257958 0.550559 0.786343
Si Si4 0.940245 0.348501 0.710569
Si Si5 0.381638 0.431576 0.696436
Si Si6 0.865205 0.167448 0.713778
Si Si7 0.587739 0.500000 0.000000
Si Si8 0.061435 0.248351 0.285979
O O1 0.198208 0.329879 0.722837
O O2 0.212366 0.415383 0.726237
O O3 0.110319 0.379217 0.749203
O O4 0.177113 0.376831 0.000000
O O5 0.749000 0.805271 0.500000
O O6 0.750000 0.750000 0.250000
O O7 0.803735 0.825468 0.227668
O O8 0.244017 0.500000 0.742677
O O9 0.317229 0.560709 0.715747
O O10 0.262755 0.553649 0.000000
O O11 0.943727 0.345615 0.500000
O O12 0.927704 0.298479 0.776109
O O13 0.000000 0.361168 0.774856
O O14 0.398417 0.443960 0.500000
O O15 0.388879 0.379040 0.724249
O O16 0.408526 0.461322 0.845747
O O17 0.865304 0.166461 0.500000
O O18 0.898482 0.210311 0.773889
O O19 0.064458 0.249013 0.500000
O O20 0.000000 0.237727 0.239082
#
# Coordination Sequence:
#
# PCOD9518452 Si02
#       8
#    16  16  16  16  16  16   4  16
#     4  10  20  32  50  75 105 138 178 221 278 339
#     4  10  20  31  46  69 107 149 182 215 273 334
#     4  10  18  35  55  74 107 143 178 230 285 328
#     4   9  18  34  54  76 102 138 187 234 274 326
#     4  12  22  34  57  83 109 151 188 226 280 342
#     4  10  18  33  51  73 113 148 177 232 285 324
#     4  12  22  40  56  78 121 146 187 236 284 320
#     4   8  15  29  53  79 102 141 192 230 273 331
#
# _framework density 20.315221999999999
#
# number of rings (size 3 to 8) (size 9 to 14) (size 15 to 20)
#    0.000    2.069    3.448    1.862    0.000    3.034 
#    0.000    0.690    0.000    1.655    0.000    3.862 
#    0.000    1.103    0.000    0.000    0.000    0.000 
#
# Total GULP energy -323284.938663 kJ/mol
# GULP energy per Si atom -5573.878253 kJ/mol
# Density = 2.026898 g / cm^3
# Si number density = 20.315222 Si / 1000 Ang^3
#
#
#
# Elastic Constant Matrix: (Units=GPa)
#
#
# Indices 1 2 3 4 5 6 
#
# 1 30.2781 -19.3088 -5.9271 0.0000 0.0000 0.0000
# 2 -19.3088 37.0374 2.6602 0.0000 0.0000 0.0000
# 3 -5.9271 2.6602 76.4304 0.0000 0.0000 0.0000
# 4 0.0000 0.0000 0.0000 11.7669 0.0000 0.0000
# 5 0.0000 0.0000 0.0000 0.0000 2.9661 0.0000
# 6 0.0000 0.0000 0.0000 0.0000 0.0000 8.2417
#
#
#
# Elastic Compliance Matrix: (Units=1/GPa)
#
#
# Indices 1 2 3 4 5 6 
#
# 1 0.050147 0.025929 0.002986 0.000000 0.000000 0.000000
# 2 0.025929 0.040474 0.000602 0.000000 0.000000 0.000000
# 3 0.002986 0.000602 0.013294 0.000000 0.000000 0.000000
# 4 0.000000 0.000000 0.000000 0.084984 0.000000 0.000000
# 5 0.000000 0.000000 0.000000 0.000000 0.337143 0.000000
# 6 0.000000 0.000000 0.000000 0.000000 0.000000 0.121334
#
#
# Mechanical properties :
#
#
# Convention : Reuss Voigt Hill
#
# Bulk Modulus (GPa) = 6.13687 10.95494 8.54591
# Shear Modulus (GPa) = 7.78018 15.68306 11.73162
#
# Velocity S-wave (km/s) = 1.95909 2.78148 2.40569
# Velocity P-wave (km/s) = 2.85391 3.96480 3.45431
#
# Compressibility (1/GPa) = 0.16294949
#
# Stress axis : x y z
#
# Youngs Moduli (GPa) = 19.94144 24.70723 75.21946
#
# Poissons Ratio (x) = -0.64063 -0.22464
# Poissons Ratio (y) = -0.51706 -0.04528
# Poissons Ratio (z) = -0.05955 -0.01487
#
# Static dielectric constant tensor:
#      x y z
#    x 1.736140 0.000000 0.000000 
#    y 0.000000 1.711870 0.000000 
#    z 0.000000 0.000000 1.784870 
# 
# From -- ./inp_files/13754.got.cif
#   From: 2010.05.17/outbox.cif.g08.bks.cpg/sg71_7_cif.got.tgz:13754.got - 2010.06.03 16:22:01.
