data_PCOD9518667
_publ_section_title
;
Structure prediction by ZEFSAII (Michael W. Deem and Ramdas Pophale) SiO2 
 PCOD9518667
Probable space group: I M M M
;
_chemical_formula_sum "Si O2"
_cell_formula_units_Z 72
_cell_length_a 28.549447
_cell_length_b 19.917710
_cell_length_c 8.368200
_cell_angle_alpha 90.000000
_cell_angle_beta 90.000000
_cell_angle_gamma 90.000000
_cell_volume 4758.489951
_symmetry_space_group_name_H-M "I M M M"
_symmetry_group_IT_number 71
_symmetry_cell_setting 'orthorhombic'
loop_
_space_group_symop_operation_xyz
x,y,z
-x,-y,z
x,-y,-z
-x,y,-z
-x,-y,-z
x,y,-z
-x,y,z
x,-y,z
1/2+x,1/2+y,1/2+z
1/2-x,1/2-y,1/2+z
1/2+x,1/2-y,1/2-z
1/2-x,1/2+y,1/2-z
1/2-x,1/2-y,1/2-z
1/2+x,1/2+y,1/2-z
1/2-x,1/2+y,1/2+z
1/2+x,1/2-y,1/2+z
loop_
_atom_site_type_symbol
_atom_site_label
_atom_site_fract_x
_atom_site_fract_y
_atom_site_fract_z
Si Si1 0.656289 0.000000 0.805575
Si Si2 0.735315 0.500000 0.305131
Si Si3 0.598455 0.870120 0.808636
Si Si4 0.771791 0.147420 0.806885
Si Si5 0.500000 0.921759 0.690960
Si Si6 0.678355 0.781840 0.308600
O O1 0.710090 0.000000 0.757017
O O2 0.628746 0.934304 0.751666
O O3 0.656073 0.000000 0.000000
O O4 0.733298 0.500000 0.500000
O O5 0.715788 0.427829 0.251680
O O6 0.546259 0.883029 0.748062
O O7 0.627918 0.806243 0.750373
O O8 0.597852 0.869958 0.000000
O O9 0.719464 0.168858 0.754311
O O10 0.806105 0.207299 0.753832
O O11 0.771614 0.147051 0.000000
O O12 0.500000 0.924411 0.500000
O O13 0.500000 0.000000 0.750440
O O14 0.679281 0.783436 0.500000
#
# Coordination Sequence:
#
# PCOD9518667 Si02
#       6
#     8   8  16  16   8  16
#     4   9  16  25  43  64  83 113 155 191 212 249
#     4   9  14  26  45  65  84 114 157 191 217 258
#     4  11  20  33  49  63  85 122 160 187 219 269
#     4   9  17  29  45  63  86 118 154 188 225 273
#     4  11  23  35  47  69  95 114 143 194 239 261
#     4  10  19  29  42  64  91 117 148 190 234 267
#
# _framework density 15.130850000000001
#
# number of rings (size 3 to 8) (size 9 to 14) (size 15 to 20)
#    0.000    2.111    3.333    1.667    0.000    1.333 
#    0.000    1.667    0.000    0.000    0.000    0.000 
#    0.000    0.889    0.000   10.444    0.000    2.000 
#
# Total GULP energy -200675.270370 kJ/mol
# GULP energy per Si atom -5574.313066 kJ/mol
# Density = 1.509641 g / cm^3
# Si number density = 15.130850 Si / 1000 Ang^3
#
#
#
# Elastic Constant Matrix: (Units=GPa)
#
#
# Indices 1 2 3 4 5 6 
#
# 1 91.9399 55.5787 13.0712 0.0000 0.0000 0.0000
# 2 55.5787 128.9575 16.1953 0.0000 0.0000 0.0000
# 3 13.0712 16.1953 16.7502 0.0000 0.0000 0.0000
# 4 0.0000 0.0000 0.0000 14.4015 0.0000 0.0000
# 5 0.0000 0.0000 0.0000 0.0000 20.1817 0.0000
# 6 0.0000 0.0000 0.0000 0.0000 0.0000 20.4935
#
#
#
# Elastic Compliance Matrix: (Units=1/GPa)
#
#
# Indices 1 2 3 4 5 6 
#
# 1 0.015275 -0.005789 -0.006323 0.000000 0.000000 0.000000
# 2 -0.005789 0.011020 -0.006138 0.000000 0.000000 0.000000
# 3 -0.006323 -0.006138 0.070569 0.000000 0.000000 0.000000
# 4 0.000000 0.000000 0.000000 0.069437 0.000000 0.000000
# 5 0.000000 0.000000 0.000000 0.000000 0.049550 0.000000
# 6 0.000000 0.000000 0.000000 0.000000 0.000000 0.048796
#
#
# Mechanical properties :
#
#
# Convention : Reuss Voigt Hill
#
# Bulk Modulus (GPa) = 16.56575 45.25977 30.91276
# Shear Modulus (GPa) = 15.56329 21.20216 18.38272
#
# Velocity S-wave (km/s) = 3.21063 3.74739 3.48935
# Velocity P-wave (km/s) = 4.97155 6.97862 6.05877
#
# Compressibility (1/GPa) = 0.06036552
#
# Stress axis : x y z
#
# Youngs Moduli (GPa) = 65.46505 90.74055 14.17055
#
# Poissons Ratio (x) = 0.52533 0.08959
# Poissons Ratio (y) = 0.37900 0.08697
# Poissons Ratio (z) = 0.41391 0.55692
#
# Static dielectric constant tensor:
#      x y z
#    x 1.477110 0.000000 0.000000 
#    y 0.000000 1.544700 0.000000 
#    z 0.000000 0.000000 1.517640 
# 
# From -- ./inp_files/10181.got.cif
#   From: 2010.05.17/outbox.cif.g08.bks.cpg/sg71_6_cif.got.tgz:10181.got - 2010.06.03 16:22:01.
