data_PCOD9518559
_publ_section_title
;
Structure prediction by ZEFSAII (Michael W. Deem and Ramdas Pophale) SiO2 
 PCOD9518559
Probable space group: I M M M
;
_chemical_formula_sum "Si O2"
_cell_formula_units_Z 84
_cell_length_a 10.913767
_cell_length_b 15.403228
_cell_length_c 22.933000
_cell_angle_alpha 90.000000
_cell_angle_beta 90.000000
_cell_angle_gamma 90.000000
_cell_volume 3855.203368
_symmetry_space_group_name_H-M "I M M M"
_symmetry_group_IT_number 71
_symmetry_cell_setting 'orthorhombic'
loop_
_space_group_symop_operation_xyz
x,y,z
-x,-y,z
x,-y,-z
-x,y,-z
-x,-y,-z
x,y,-z
-x,y,z
x,-y,z
1/2+x,1/2+y,1/2+z
1/2-x,1/2-y,1/2+z
1/2+x,1/2-y,1/2-z
1/2-x,1/2+y,1/2-z
1/2-x,1/2-y,1/2-z
1/2+x,1/2+y,1/2-z
1/2-x,1/2+y,1/2+z
1/2+x,1/2-y,1/2+z
loop_
_atom_site_type_symbol
_atom_site_label
_atom_site_fract_x
_atom_site_fract_y
_atom_site_fract_z
Si Si1 0.767269 0.000000 0.500000
Si Si2 0.500000 0.093893 0.639975
Si Si3 0.358862 0.352891 0.085328
Si Si4 0.734156 0.161360 0.065129
Si Si5 0.500000 0.270445 0.568356
Si Si6 0.636367 0.897301 0.185427
Si Si7 0.240740 0.900900 0.705087
O O1 0.778132 0.923756 0.551243
O O2 0.500000 0.178998 0.600941
O O3 0.621295 0.096350 0.679178
O O4 0.500000 0.000000 0.607871
O O5 0.500000 0.374441 0.072183
O O6 0.324756 0.257289 0.064678
O O7 0.336513 0.354914 0.154833
O O8 0.877047 0.175925 0.079888
O O9 0.672050 0.112594 0.118369
O O10 0.722064 0.123703 0.000000
O O11 0.500000 0.250004 0.500000
O O12 0.500000 0.859979 0.194444
O O13 0.738487 0.862093 0.230522
O O14 0.630745 0.000000 0.198770
O O15 0.193270 0.000000 0.708801
#
# Coordination Sequence:
#
# PCOD9518559 Si02
#       7
#     4   8  16  16   8  16  16
#     4  12  25  40  60  89 140 183 204 240 299 362
#     4  10  18  35  60  85 116 166 206 242 294 358
#     4  12  23  37  60  92 129 172 210 246 300 362
#     4  11  24  42  63  90 124 157 203 259 313 370
#     4  10  22  41  57  86 126 160 194 254 310 356
#     4  10  22  43  69  92 117 155 202 260 322 367
#     4  10  20  37  60  88 124 161 206 252 300 362
#
# _framework density 21.788733000000001
#
# number of rings (size 3 to 8) (size 9 to 14) (size 15 to 20)
#    0.000    1.333    4.762    1.429    0.000    2.476 
#    1.714    1.429    0.000    1.714    0.000    0.000 
#    0.000    0.000    0.000    0.000    0.000    0.000 
#
# Total GULP energy -234122.362470 kJ/mol
# GULP energy per Si atom -5574.341964 kJ/mol
# Density = 2.173914 g / cm^3
# Si number density = 21.788733 Si / 1000 Ang^3
#
#
#
# Elastic Constant Matrix: (Units=GPa)
#
#
# Indices 1 2 3 4 5 6 
#
# 1 36.3421 -4.8547 28.9080 0.0000 0.0000 0.0000
# 2 -4.8547 17.4698 8.5661 0.0000 0.0000 0.0000
# 3 28.9080 8.5661 128.2567 0.0000 0.0000 0.0000
# 4 0.0000 0.0000 0.0000 26.4940 0.0000 0.0000
# 5 0.0000 0.0000 0.0000 0.0000 9.3488 0.0000
# 6 0.0000 0.0000 0.0000 0.0000 0.0000 9.8519
#
#
#
# Elastic Compliance Matrix: (Units=1/GPa)
#
#
# Indices 1 2 3 4 5 6 
#
# 1 0.036898 0.014817 -0.009306 0.000000 0.000000 0.000000
# 2 0.014817 0.065129 -0.007689 0.000000 0.000000 0.000000
# 3 -0.009306 -0.007689 0.010408 0.000000 0.000000 0.000000
# 4 0.000000 0.000000 0.000000 0.037744 0.000000 0.000000
# 5 0.000000 0.000000 0.000000 0.000000 0.106965 0.000000
# 6 0.000000 0.000000 0.000000 0.000000 0.000000 0.101503
#
#
# Mechanical properties :
#
#
# Convention : Reuss Voigt Hill
#
# Bulk Modulus (GPa) = 9.25260 27.47860 18.36560
# Shear Modulus (GPa) = 12.53031 19.10221 15.81626
#
# Velocity S-wave (km/s) = 2.40069 2.96413 2.69716
# Velocity P-wave (km/s) = 3.45545 4.93493 4.25991
#
# Compressibility (1/GPa) = 0.10807772
#
# Stress axis : x y z
#
# Youngs Moduli (GPa) = 27.10173 15.35404 96.08033
#
# Poissons Ratio (x) = -0.22750 0.89413
# Poissons Ratio (y) = -0.40156 0.73881
# Poissons Ratio (z) = 0.25221 0.11806
#
# Static dielectric constant tensor:
#      x y z
#    x 1.857870 0.000000 0.000000 
#    y 0.000000 1.776650 0.000000 
#    z 0.000000 0.000000 1.844830 
# 
# From -- ./inp_files/58761.got.cif
#   From: 2010.05.17/outbox.cif.g08.bks.cpg/sg71_30_cif.got.tgz:58761.got - 2010.06.03 16:22:01.
