data_PCOD9518718
_publ_section_title
;
Structure prediction by ZEFSAII (Michael W. Deem and Ramdas Pophale) SiO2 
 PCOD9518718
Probable space group: I M M M
;
_chemical_formula_sum "Si O2"
_cell_formula_units_Z 98
_cell_length_a 11.979551
_cell_length_b 30.864381
_cell_length_c 15.379474
_cell_angle_alpha 90.000000
_cell_angle_beta 90.000000
_cell_angle_gamma 90.000000
_cell_volume 5686.428652
_symmetry_space_group_name_H-M "I M M M"
_symmetry_group_IT_number 71
_symmetry_cell_setting 'orthorhombic'
loop_
_space_group_symop_operation_xyz
x,y,z
-x,-y,z
x,-y,-z
-x,y,-z
-x,-y,-z
x,y,-z
-x,y,z
x,-y,z
1/2+x,1/2+y,1/2+z
1/2-x,1/2-y,1/2+z
1/2+x,1/2-y,1/2-z
1/2-x,1/2+y,1/2-z
1/2-x,1/2-y,1/2-z
1/2+x,1/2+y,1/2-z
1/2-x,1/2+y,1/2+z
1/2+x,1/2-y,1/2+z
loop_
_atom_site_type_symbol
_atom_site_label
_atom_site_fract_x
_atom_site_fract_y
_atom_site_fract_z
Si Si1 0.865669 0.667849 0.771014
Si Si2 0.630573 0.000000 0.349884
Si Si3 0.366449 0.759429 0.403412
Si Si4 0.805788 0.500000 0.650760
Si Si5 0.227203 0.836428 0.900236
Si Si6 0.000000 0.500000 0.500000
Si Si7 0.636044 0.093735 0.596846
Si Si8 0.124932 0.929589 0.103628
O O1 0.826192 0.710065 0.825224
O O2 0.819678 0.664654 0.674219
O O3 0.828680 0.626606 0.828220
O O4 0.000000 0.668358 0.768132
O O5 0.677177 0.954997 0.386359
O O6 0.500000 0.000000 0.374431
O O7 0.641051 0.000000 0.246107
O O8 0.325586 0.773116 0.500000
O O9 0.500000 0.763852 0.404680
O O10 0.337017 0.709101 0.392995
O O11 0.900769 0.500000 0.576636
O O12 0.724020 0.458549 0.641768
O O13 0.151034 0.878677 0.885242
O O14 0.269783 0.839836 0.000000
O O15 0.667438 0.108372 0.500000
O O16 0.500000 0.093232 0.599710
O O17 0.000000 0.939960 0.136086
O O18 0.125553 0.938209 0.000000
#
# Coordination Sequence:
#
# PCOD9518718 Si02
#       8
#    16   8  16   8  16   2  16  16
#     4  10  19  31  47  72 101 133 165 203 254 321
#     4  10  19  29  46  69 104 133 160 199 248 308
#     4   9  17  31  52  73  96 127 167 217 266 306
#     4  12  21  36  50  76 105 144 175 208 244 316
#     4  10  20  33  48  72 100 133 167 209 257 306
#     4  12  24  36  50  76 114 152 184 186 252 328
#     4   9  17  30  47  67  93 126 164 204 248 297
#     4  10  20  35  53  71  94 131 182 227 255 280
#
# _framework density 17.234016
#
# number of rings (size 3 to 8) (size 9 to 14) (size 15 to 20)
#    0.000    2.122    1.224    2.939    0.000    5.878 
#    1.469    0.000    0.000    0.000    0.000    0.000 
#    0.000   47.673    0.000    0.000    0.000    0.000 
#
# Total GULP energy -272812.517964 kJ/mol
# GULP energy per Si atom -5567.602407 kJ/mol
# Density = 1.719479 g / cm^3
# Si number density = 17.234016 Si / 1000 Ang^3
#
#
#
# Elastic Constant Matrix: (Units=GPa)
#
#
# Indices 1 2 3 4 5 6 
#
# 1 44.1373 19.4306 21.6280 0.0000 0.0000 0.0000
# 2 19.4306 88.4539 28.6943 0.0000 0.0000 0.0000
# 3 21.6280 28.6943 92.5143 0.0002 0.0000 0.0000
# 4 0.0000 0.0000 0.0002 20.5258 0.0000 0.0000
# 5 0.0000 0.0000 0.0000 0.0000 19.1725 0.0000
# 6 0.0000 0.0000 0.0000 0.0000 0.0000 12.9878
#
#
#
# Elastic Compliance Matrix: (Units=1/GPa)
#
#
# Indices 1 2 3 4 5 6 
#
# 1 0.026993 -0.004317 -0.004972 0.000000 0.000000 0.000000
# 2 -0.004317 0.013260 -0.003104 0.000000 0.000000 0.000000
# 3 -0.004972 -0.003104 0.012934 0.000000 0.000000 0.000000
# 4 0.000000 0.000000 0.000000 0.048719 0.000000 0.000000
# 5 0.000000 0.000000 0.000000 0.000000 0.052158 0.000000
# 6 0.000000 0.000000 0.000000 0.000000 0.000000 0.076995
#
#
# Mechanical properties :
#
#
# Convention : Reuss Voigt Hill
#
# Bulk Modulus (GPa) = 35.20692 40.51236 37.85964
# Shear Modulus (GPa) = 18.84573 20.89406 19.86990
#
# Velocity S-wave (km/s) = 3.31043 3.48569 3.39919
# Velocity P-wave (km/s) = 5.92326 6.30542 6.11732
#
# Compressibility (1/GPa) = 0.02840351
#
# Stress axis : x y z
#
# Youngs Moduli (GPa) = 37.04648 75.41243 77.31548
#
# Poissons Ratio (x) = 0.32554 0.38438
# Poissons Ratio (y) = 0.15992 0.23996
# Poissons Ratio (z) = 0.18418 0.23406
#
# Static dielectric constant tensor:
#      x y z
#    x 1.559730 0.000000 0.000000 
#    y 0.000000 1.616980 0.000000 
#    z 0.000000 0.000000 1.590410 
# 
# From -- ./inp_files/33253.got.cif
#   From: 2010.05.17/outbox.cif.g08.bks.cpg/sg71_17_cif.got.tgz:33253.got - 2010.06.03 16:22:01.
