data_PCOD9518606
_publ_section_title
;
Structure prediction by ZEFSAII (Michael W. Deem and Ramdas Pophale) SiO2 
 PCOD9518606
Probable space group: I M M M
;
_chemical_formula_sum "Si O2"
_cell_formula_units_Z 88
_cell_length_a 9.066351
_cell_length_b 33.427034
_cell_length_c 20.085332
_cell_angle_alpha 90.000000
_cell_angle_beta 90.000000
_cell_angle_gamma 90.000000
_cell_volume 6087.085283
_symmetry_space_group_name_H-M "I M M M"
_symmetry_group_IT_number 71
_symmetry_cell_setting 'orthorhombic'
loop_
_space_group_symop_operation_xyz
x,y,z
-x,-y,z
x,-y,-z
-x,y,-z
-x,-y,-z
x,y,-z
-x,y,z
x,-y,z
1/2+x,1/2+y,1/2+z
1/2-x,1/2-y,1/2+z
1/2+x,1/2-y,1/2-z
1/2-x,1/2+y,1/2-z
1/2-x,1/2-y,1/2-z
1/2+x,1/2+y,1/2-z
1/2-x,1/2+y,1/2+z
1/2+x,1/2-y,1/2+z
loop_
_atom_site_type_symbol
_atom_site_label
_atom_site_fract_x
_atom_site_fract_y
_atom_site_fract_z
Si Si1 0.678662 0.546768 0.853116
Si Si2 0.323469 0.120732 0.703264
Si Si3 0.822975 0.326864 0.925977
Si Si4 0.670384 0.310984 0.280242
Si Si5 0.670099 0.743242 0.854510
Si Si6 0.667936 0.548505 0.000000
O O1 0.500000 0.550532 0.853084
O O2 0.712462 0.500000 0.841491
O O3 0.751415 0.577182 0.801878
O O4 0.734430 0.558044 0.928077
O O5 0.500000 0.118828 0.708105
O O6 0.283286 0.142936 0.633419
O O7 0.257255 0.148972 0.760562
O O8 0.750157 0.284367 0.908558
O O9 0.000000 0.322576 0.924162
O O10 0.779382 0.340561 0.000000
O O11 0.500000 0.319195 0.295673
O O12 0.673315 0.283350 0.213460
O O13 0.747148 0.284192 0.336629
O O14 0.500000 0.750281 0.871553
O O15 0.658084 0.500000 0.000000
O O16 0.500000 0.564194 0.000000
#
# Coordination Sequence:
#
# PCOD9518606 Si02
#       6
#    16  16  16  16  16   8
#     4   9  17  29  42  54  70  95 127 161 199 242
#     4  10  19  28  40  57  77  98 126 165 202 233
#     4   9  18  30  40  53  77 106 131 156 192 235
#     4   9  16  27  42  57  74  96 123 152 189 233
#     4   9  16  26  41  59  76  94 121 156 191 226
#     4   7  12  24  39  51  63  85 119 155 189 229
#
# _framework density 14.456837999999999
#
# number of rings (size 3 to 8) (size 9 to 14) (size 15 to 20)
#    0.000    3.000    0.000    2.727    1.273    5.818 
#    0.000    0.000    0.000    1.636    0.000    0.000 
#    0.000    0.000    0.000    0.000    0.000    0.909 
#
# Total GULP energy -244967.146450 kJ/mol
# GULP energy per Si atom -5567.435147 kJ/mol
# Density = 1.442393 g / cm^3
# Si number density = 14.456838 Si / 1000 Ang^3
#
#
#
# Elastic Constant Matrix: (Units=GPa)
#
#
# Indices 1 2 3 4 5 6 
#
# 1 36.2886 36.6084 6.5669 0.0000 0.0000 0.0000
# 2 36.6084 89.8826 12.9922 0.0000 0.0000 0.0000
# 3 6.5669 12.9922 8.6632 0.0000 0.0000 0.0000
# 4 0.0000 0.0000 0.0000 22.8901 0.0000 0.0000
# 5 0.0000 0.0000 0.0000 0.0000 12.7789 0.0000
# 6 0.0000 0.0000 0.0000 0.0000 0.0000 21.1882
#
#
#
# Elastic Compliance Matrix: (Units=1/GPa)
#
#
# Indices 1 2 3 4 5 6 
#
# 1 0.047307 -0.017982 -0.008891 0.000000 0.000000 0.000000
# 2 -0.017982 0.021040 -0.017923 0.000000 0.000000 0.000000
# 3 -0.008891 -0.017923 0.149049 0.000000 0.000000 0.000000
# 4 0.000000 0.000000 0.000000 0.043687 0.000000 0.000000
# 5 0.000000 0.000000 0.000000 0.000000 0.078254 0.000000
# 6 0.000000 0.000000 0.000000 0.000000 0.000000 0.047196
#
#
# Mechanical properties :
#
#
# Convention : Reuss Voigt Hill
#
# Bulk Modulus (GPa) = 7.82455 27.46324 17.64390
# Shear Modulus (GPa) = 9.63896 16.61590 13.12743
#
# Velocity S-wave (km/s) = 2.58493 3.39388 3.01664
# Velocity P-wave (km/s) = 3.78593 5.86480 4.93605
#
# Compressibility (1/GPa) = 0.12780286
#
# Stress axis : x y z
#
# Youngs Moduli (GPa) = 21.13863 47.52755 6.70919
#
# Poissons Ratio (x) = 0.85466 0.05965
# Poissons Ratio (y) = 0.38012 0.12025
# Poissons Ratio (z) = 0.18795 0.85184
#
# Static dielectric constant tensor:
#      x y z
#    x 1.480610 0.000000 0.000000 
#    y 0.000000 1.479860 0.000000 
#    z 0.000000 0.000000 1.470190 
# 
# From -- ./inp_files/11373.got.cif
#   From: 2010.05.17/outbox.cif.g08.bks.cpg/sg71_6_cif.got.tgz:11373.got - 2010.06.03 16:22:01.
