data_PCOD9518979
_publ_section_title
;
Structure prediction by ZEFSAII (Michael W. Deem and Ramdas Pophale) SiO2 
 PCOD9518979
Probable space group: I M M M
;
_chemical_formula_sum "Si O2"
_cell_formula_units_Z 58
_cell_length_a 15.076667
_cell_length_b 26.393915
_cell_length_c 7.497769
_cell_angle_alpha 90.000000
_cell_angle_beta 90.000000
_cell_angle_gamma 90.000000
_cell_volume 2983.604218
_symmetry_space_group_name_H-M "I M M M"
_symmetry_group_IT_number 71
_symmetry_cell_setting 'orthorhombic'
loop_
_space_group_symop_operation_xyz
x,y,z
-x,-y,z
x,-y,-z
-x,y,-z
-x,-y,-z
x,y,-z
-x,y,z
x,-y,z
1/2+x,1/2+y,1/2+z
1/2-x,1/2-y,1/2+z
1/2+x,1/2-y,1/2-z
1/2-x,1/2+y,1/2-z
1/2-x,1/2-y,1/2-z
1/2+x,1/2+y,1/2-z
1/2-x,1/2+y,1/2+z
1/2+x,1/2-y,1/2+z
loop_
_atom_site_type_symbol
_atom_site_label
_atom_site_fract_x
_atom_site_fract_y
_atom_site_fract_z
Si Si1 0.306934 0.891566 0.283485
Si Si2 0.500000 0.740094 0.782559
Si Si3 0.500000 0.141280 0.293119
Si Si4 0.811001 0.798757 0.713366
Si Si5 0.344306 0.000000 0.799780
Si Si6 0.000000 0.500000 0.000000
O O1 0.308561 0.888826 0.500000
O O2 0.406946 0.878408 0.218526
O O3 0.238797 0.848824 0.219260
O O4 0.288624 0.948757 0.228256
O O5 0.500000 0.798067 0.717403
O O6 0.410083 0.712786 0.721692
O O7 0.500000 0.742208 0.000000
O O8 0.500000 0.123750 0.500000
O O9 0.817428 0.803914 0.500000
O O10 0.750000 0.750000 0.750000
O O11 0.422336 0.000000 0.655047
O O12 0.380099 0.000000 0.000000
#
# Coordination Sequence:
#
# PCOD9518979 Si02
#       6
#    16   8   8  16   8   2
#     4  10  20  36  56  76 114 159 197 245 297 352
#     4  10  20  33  50  83 118 146 192 245 287 351
#     4  10  19  30  52  78 109 151 187 223 288 350
#     4  10  20  34  55  80 114 154 193 243 300 351
#     4  12  25  39  61  87 116 164 203 243 300 359
#     4  12  22  44  60  86 136 150 198 248 296 360
#
# _framework density 19.439575000000001
#
# number of rings (size 3 to 8) (size 9 to 14) (size 15 to 20)
#    0.000    1.655    4.138    1.034    1.931    2.207 
#    0.000    0.000    0.000    0.828    0.000    5.793 
#    0.000    0.000    0.000    0.000    0.000    0.000 
#
# Total GULP energy -161757.414205 kJ/mol
# GULP energy per Si atom -5577.841869 kJ/mol
# Density = 1.939533 g / cm^3
# Si number density = 19.439575 Si / 1000 Ang^3
#
#
#
# Elastic Constant Matrix: (Units=GPa)
#
#
# Indices 1 2 3 4 5 6 
#
# 1 140.2184 79.2186 0.6755 0.0006 -0.0003 -0.0002
# 2 79.2186 171.7970 -10.0961 -0.0013 -0.0003 0.0001
# 3 0.6755 -10.0961 76.3663 -0.0045 -0.0049 0.0003
# 4 0.0006 -0.0013 -0.0045 21.5476 -0.0006 0.0000
# 5 -0.0003 -0.0003 -0.0049 -0.0006 4.0062 0.0000
# 6 -0.0002 0.0001 0.0003 0.0000 0.0000 2.3791
#
#
#
# Elastic Compliance Matrix: (Units=1/GPa)
#
#
# Indices 1 2 3 4 5 6 
#
# 1 0.009679 -0.004503 -0.000681 -0.000001 -0.000001 0.000001
# 2 -0.004503 0.007962 0.001092 0.000001 0.000002 -0.000001
# 3 -0.000681 0.001092 0.013245 0.000003 0.000016 -0.000002
# 4 -0.000001 0.000001 0.000003 0.046409 0.000007 0.000001
# 5 -0.000001 0.000002 0.000016 0.000007 0.249615 0.000001
# 6 0.000001 -0.000001 -0.000002 0.000001 0.000001 0.420319
#
#
# Mechanical properties :
#
#
# Convention : Reuss Voigt Hill
#
# Bulk Modulus (GPa) = 44.04841 58.66419 51.35630
# Shear Modulus (GPa) = 6.55325 26.82550 16.68938
#
# Velocity S-wave (km/s) = 1.83804 3.71879 2.93324
# Velocity P-wave (km/s) = 5.21660 6.97728 6.16017
#
# Compressibility (1/GPa) = 0.02270230
#
# Stress axis : x y z
#
# Youngs Moduli (GPa) = 103.31424 125.60359 75.49891
#
# Poissons Ratio (x) = 0.56563 0.05141
# Poissons Ratio (y) = 0.46525 -0.08247
# Poissons Ratio (z) = 0.07035 -0.13721
#
# Static dielectric constant tensor:
#      x y z
#    x 1.650330 0.000000 0.000000 
#    y 0.000000 1.705670 0.000000 
#    z 0.000000 0.000000 1.723270 
# 
# From -- ./inp_files/5413.got.cif
#   From: 2010.05.17/outbox.cif.g08.bks.cpg/sg71_3_cif.got.tgz:5413.got - 2010.06.03 16:22:01.
