data_PCOD9518071
_publ_section_title
;
Structure prediction by ZEFSAII (Michael W. Deem and Ramdas Pophale) SiO2 
 PCOD9518071
Probable space group: I M M M
;
_chemical_formula_sum "Si O2"
_cell_formula_units_Z 72
_cell_length_a 18.388588
_cell_length_b 7.966656
_cell_length_c 21.371534
_cell_angle_alpha 90.000000
_cell_angle_beta 90.000000
_cell_angle_gamma 90.000000
_cell_volume 3130.834733
_symmetry_space_group_name_H-M "I M M M"
_symmetry_group_IT_number 71
_symmetry_cell_setting 'orthorhombic'
loop_
_space_group_symop_operation_xyz
x,y,z
-x,-y,z
x,-y,-z
-x,y,-z
-x,-y,-z
x,y,-z
-x,y,z
x,-y,z
1/2+x,1/2+y,1/2+z
1/2-x,1/2-y,1/2+z
1/2+x,1/2-y,1/2-z
1/2-x,1/2+y,1/2-z
1/2-x,1/2-y,1/2-z
1/2+x,1/2+y,1/2-z
1/2-x,1/2+y,1/2+z
1/2+x,1/2-y,1/2+z
loop_
_atom_site_type_symbol
_atom_site_label
_atom_site_fract_x
_atom_site_fract_y
_atom_site_fract_z
Si Si1 0.414661 0.000000 0.903305
Si Si2 0.331594 0.684664 0.751178
Si Si3 0.341638 0.796545 0.573492
Si Si4 0.916831 0.500000 0.250346
Si Si5 0.679277 0.689823 0.896622
Si Si6 0.500000 0.198147 0.423990
O O1 0.371806 0.166540 0.924939
O O2 0.500000 0.000000 0.919493
O O3 0.410050 0.000000 0.826481
O O4 0.339276 0.500000 0.723342
O O5 0.250000 0.750000 0.750000
O O6 0.379442 0.833836 0.724652
O O7 0.347423 0.672507 0.825178
O O8 0.333888 0.754098 0.500000
O O9 0.263950 0.751495 0.603830
O O10 0.420929 0.729818 0.594624
O O11 0.345748 0.000000 0.577937
O O12 0.000000 0.500000 0.234892
O O13 0.676707 0.500000 0.923940
O O14 0.500000 0.203886 0.500000
O O15 0.500000 0.000000 0.407456
#
# Coordination Sequence:
#
# PCOD9518071 Si02
#       6
#     8  16  16   8  16   8
#     4   9  18  32  49  71  95 122 154 198 248 283
#     4  10  18  30  50  71  96 129 161 195 240 291
#     4   8  13  24  44  69  97 126 159 197 235 277
#     4   9  18  32  50  73  96 120 160 207 240 279
#     4   9  18  30  48  73  96 122 161 198 234 286
#     4   7  10  18  38  67  93 121 156 191 225 266
#
# _framework density 22.997062
#
# number of rings (size 3 to 8) (size 9 to 14) (size 15 to 20)
#    0.000    3.222    1.111    1.333    0.000    0.889 
#    0.000    5.000    2.444    2.000    0.000    5.444 
#    0.000    0.000    0.000    0.000    0.000    0.000 
#
# Total GULP energy -200790.068716 kJ/mol
# GULP energy per Si atom -5577.501909 kJ/mol
# Density = 2.294472 g / cm^3
# Si number density = 22.997062 Si / 1000 Ang^3
#
#
#
# Elastic Constant Matrix: (Units=GPa)
#
#
# Indices 1 2 3 4 5 6 
#
# 1 194.1097 111.5375 -3.8555 0.0000 0.0000 0.0000
# 2 111.5375 178.4087 6.7929 0.0000 0.0000 0.0000
# 3 -3.8555 6.7929 73.7841 0.0000 0.0000 0.0000
# 4 0.0000 0.0000 0.0000 -4.0555 0.0000 0.0000
# 5 0.0000 0.0000 0.0000 0.0000 23.1479 0.0000
# 6 0.0000 0.0000 0.0000 0.0000 0.0000 33.8765
#
#
#
# Elastic Compliance Matrix: (Units=1/GPa)
#
#
# Indices 1 2 3 4 5 6 
#
# 1 0.008098 -0.005097 0.000892 0.000000 0.000000 0.000000
# 2 -0.005097 0.008833 -0.001079 0.000000 0.000000 0.000000
# 3 0.000892 -0.001079 0.013699 0.000000 0.000000 0.000000
# 4 0.000000 0.000000 0.000000 -0.246578 0.000000 0.000000
# 5 0.000000 0.000000 0.000000 0.000000 0.043201 0.000000
# 6 0.000000 0.000000 0.000000 0.000000 0.000000 0.029519
#
#
# Mechanical properties :
#
#
# Convention : Reuss Voigt Hill
#
# Bulk Modulus (GPa) = 49.84535 75.02803 62.43669
# Shear Modulus (GPa) = -39.69085 32.71562 -3.48761
#
# Velocity S-wave (km/s) = -4.15891 3.77583 -1.23282
# Velocity P-wave (km/s) = 1.15774 7.19062 5.01820
#
# Compressibility (1/GPa) = 0.02006205
#
# Stress axis : x y z
#
# Youngs Moduli (GPa) = 123.48592 113.21716 72.99768
#
# Poissons Ratio (x) = 0.57704 -0.06514
# Poissons Ratio (y) = 0.62938 0.07880
# Poissons Ratio (z) = -0.11020 0.12222
#
# Static dielectric constant tensor:
#      x y z
#    x 1.831620 0.000000 0.000000 
#    y 0.000000 1.860050 0.000000 
#    z 0.000000 0.000000 1.944360 
# 
# From -- ./inp_files/65192.got.cif
#   From: 2010.05.17/outbox.cif.g08.bks.cpg/sg71_33_cif.got.tgz:65192.got - 2010.06.03 16:22:01.
