data_PCOD9518584
_publ_section_title
;
Structure prediction by ZEFSAII (Michael W. Deem and Ramdas Pophale) SiO2 
 PCOD9518584
Probable space group: I M M M
;
_chemical_formula_sum "Si O2"
_cell_formula_units_Z 90
_cell_length_a 7.987034
_cell_length_b 28.515223
_cell_length_c 21.365801
_cell_angle_alpha 90.000000
_cell_angle_beta 90.000000
_cell_angle_gamma 90.000000
_cell_volume 4866.105098
_symmetry_space_group_name_H-M "I M M M"
_symmetry_group_IT_number 71
_symmetry_cell_setting 'orthorhombic'
loop_
_space_group_symop_operation_xyz
x,y,z
-x,-y,z
x,-y,-z
-x,y,-z
-x,-y,-z
x,y,-z
-x,y,z
x,-y,z
1/2+x,1/2+y,1/2+z
1/2-x,1/2-y,1/2+z
1/2+x,1/2-y,1/2-z
1/2-x,1/2+y,1/2-z
1/2-x,1/2-y,1/2-z
1/2+x,1/2+y,1/2-z
1/2-x,1/2+y,1/2+z
1/2+x,1/2-y,1/2+z
loop_
_atom_site_type_symbol
_atom_site_label
_atom_site_fract_x
_atom_site_fract_y
_atom_site_fract_z
Si Si1 0.799201 0.052617 0.166770
Si Si2 0.500000 0.500000 0.000000
Si Si3 0.202042 0.187636 0.700028
Si Si4 0.302104 0.132844 0.070309
Si Si5 0.691872 0.000000 0.398731
Si Si6 0.198344 0.786111 0.839606
Si Si7 0.795921 0.081682 0.693156
O O1 0.758643 0.090680 0.114336
O O2 0.744043 0.069303 0.235717
O O3 0.000000 0.050243 0.170095
O O4 0.735398 0.000000 0.153639
O O5 0.348492 0.500000 0.946256
O O6 0.263075 0.196603 0.771417
O O7 0.262633 0.230954 0.658340
O O8 0.250481 0.135575 0.679775
O O9 0.000000 0.189379 0.701413
O O10 0.500000 0.127675 0.065712
O O11 0.267237 0.181725 0.105458
O O12 0.230040 0.131667 0.000000
O O13 0.716487 0.954605 0.354596
O O14 0.500000 0.000000 0.423615
O O15 0.000000 0.792983 0.839278
O O16 0.000000 0.077705 0.689892
#
# Coordination Sequence:
#
# PCOD9518584 Si02
#       7
#    16   2  16  16   8  16  16
#     4  10  20  36  60  87 120 157 200 254 309 361
#     4  12  26  52  68  90 140 168 200 264 296 382
#     4   9  18  32  57  87 119 150 186 242 316 365
#     4  11  24  39  55  77 115 164 210 255 309 370
#     4  12  25  41  71 100 124 170 215 245 310 381
#     4  10  19  34  55  83 113 150 196 250 300 359
#     4  10  18  37  62  92 129 160 195 256 316 362
#
# _framework density 18.495284999999999
#
# number of rings (size 3 to 8) (size 9 to 14) (size 15 to 20)
#    0.000    1.778    3.556    1.200    0.000    4.267 
#    0.000    1.778    1.956    0.000    0.000    0.000 
#    0.000    0.000    0.000    0.000    0.000    0.000 
#
# Total GULP energy -250860.102718 kJ/mol
# GULP energy per Si atom -5574.668949 kJ/mol
# Density = 1.845319 g / cm^3
# Si number density = 18.495285 Si / 1000 Ang^3
#
#
#
# Elastic Constant Matrix: (Units=GPa)
#
#
# Indices 1 2 3 4 5 6 
#
# 1 52.6711 19.3744 27.4856 0.0000 0.0000 0.0000
# 2 19.3744 136.4821 66.3242 0.0000 0.0000 0.0000
# 3 27.4856 66.3242 122.9012 0.0000 0.0000 0.0000
# 4 0.0000 0.0000 0.0000 -7.4555 0.0000 0.0000
# 5 0.0000 0.0000 0.0000 0.0000 8.7747 0.0000
# 6 0.0000 0.0000 0.0000 0.0000 0.0000 28.3970
#
#
#
# Elastic Compliance Matrix: (Units=1/GPa)
#
#
# Indices 1 2 3 4 5 6 
#
# 1 0.021589 -0.000974 -0.004303 0.000000 0.000000 0.000000
# 2 -0.000974 0.009975 -0.005165 0.000000 0.000000 0.000000
# 3 -0.004303 -0.005165 0.011886 0.000000 0.000000 0.000000
# 4 0.000000 0.000000 0.000000 -0.134129 0.000000 0.000000
# 5 0.000000 0.000000 0.000000 0.000000 0.113964 0.000000
# 6 0.000000 0.000000 0.000000 0.000000 0.000000 0.035215
#
#
# Mechanical properties :
#
#
# Convention : Reuss Voigt Hill
#
# Bulk Modulus (GPa) = 44.31226 59.82476 52.06851
# Shear Modulus (GPa) = 57.53259 19.20126 38.36692
#
# Velocity S-wave (km/s) = 5.58338 3.22556 4.55952
# Velocity P-wave (km/s) = 8.09792 6.80356 7.47879
#
# Compressibility (1/GPa) = 0.02256712
#
# Stress axis : x y z
#
# Youngs Moduli (GPa) = 46.31935 100.24666 84.12943
#
# Poissons Ratio (x) = 0.09762 0.36198
# Poissons Ratio (y) = 0.04511 0.43457
# Poissons Ratio (z) = 0.19930 0.51782
#
# Static dielectric constant tensor:
#      x y z
#    x 1.660780 0.000000 0.000000 
#    y 0.000000 1.638870 0.000000 
#    z 0.000000 0.000000 1.628880 
# 
# From -- ./inp_files/50851.got.cif
#   From: 2010.05.17/outbox.cif.g08.bks.cpg/sg71_26_cif.got.tgz:50851.got - 2010.06.03 16:22:01.
