data_PCOD9518769
_publ_section_title
;
Structure prediction by ZEFSAII (Michael W. Deem and Ramdas Pophale) SiO2 
 PCOD9518769
Probable space group: I M M M
;
_chemical_formula_sum "Si O2"
_cell_formula_units_Z 104
_cell_length_a 25.425126
_cell_length_b 33.629931
_cell_length_c 8.810074
_cell_angle_alpha 90.000000
_cell_angle_beta 90.000000
_cell_angle_gamma 90.000000
_cell_volume 7533.011776
_symmetry_space_group_name_H-M "I M M M"
_symmetry_group_IT_number 71
_symmetry_cell_setting 'orthorhombic'
loop_
_space_group_symop_operation_xyz
x,y,z
-x,-y,z
x,-y,-z
-x,y,-z
-x,-y,-z
x,y,-z
-x,y,z
x,-y,z
1/2+x,1/2+y,1/2+z
1/2-x,1/2-y,1/2+z
1/2+x,1/2-y,1/2-z
1/2-x,1/2+y,1/2-z
1/2-x,1/2-y,1/2-z
1/2+x,1/2+y,1/2-z
1/2-x,1/2+y,1/2+z
1/2+x,1/2-y,1/2+z
loop_
_atom_site_type_symbol
_atom_site_label
_atom_site_fract_x
_atom_site_fract_y
_atom_site_fract_z
Si Si1 0.338416 0.380807 0.318170
Si Si2 0.672446 0.229730 0.817166
Si Si3 0.057512 0.833559 0.182536
Si Si4 0.942476 0.745122 0.683102
Si Si5 0.000000 0.048271 0.172082
Si Si6 0.228994 0.812598 0.681088
Si Si7 0.388069 0.453569 0.181104
O O1 0.336586 0.382507 0.500000
O O2 0.392637 0.358957 0.269189
O O3 0.292476 0.352620 0.256618
O O4 0.344249 0.424728 0.250695
O O5 0.611793 0.224169 0.770014
O O6 0.713708 0.200422 0.739205
O O7 0.691164 0.274887 0.778929
O O8 0.676710 0.225793 0.000000
O O9 0.060315 0.789917 0.254424
O O10 0.000000 0.850758 0.222564
O O11 0.059678 0.829817 0.000000
O O12 0.941508 0.746780 0.500000
O O13 0.000000 0.728682 0.729255
O O14 0.945465 0.058398 0.253752
O O15 0.000000 0.000000 0.165478
O O16 0.000000 0.064150 0.000000
O O17 0.228486 0.816599 0.500000
O O18 0.379656 0.500000 0.220383
O O19 0.389024 0.450006 0.000000
#
# Coordination Sequence:
#
# PCOD9518769 Si02
#       7
#    16  16  16  16   8  16  16
#     4  11  21  31  46  63  82 105 136 175 216 260
#     4   9  17  29  43  60  83 109 138 171 208 249
#     4   9  18  29  39  55  79 104 131 167 209 252
#     4   9  16  27  43  61  81 106 136 170 208 250
#     4   9  17  31  49  65  81 103 133 169 213 263
#     4  10  19  30  44  61  81 108 140 174 210 249
#     4  10  21  35  48  62  81 105 135 172 213 259
#
# _framework density 13.805899
#
# number of rings (size 3 to 8) (size 9 to 14) (size 15 to 20)
#    0.000    2.385    1.538    1.615    1.077    3.692 
#    0.000    0.000    0.000    0.000    0.000    0.000 
#    0.000    0.000    0.000    0.000    0.000    0.769 
#
# Total GULP energy -289903.105989 kJ/mol
# GULP energy per Si atom -5575.059731 kJ/mol
# Density = 1.377448 g / cm^3
# Si number density = 13.805899 Si / 1000 Ang^3
#
#
#
# Elastic Constant Matrix: (Units=GPa)
#
#
# Indices 1 2 3 4 5 6 
#
# 1 99.9111 43.3517 28.1051 0.0000 0.0000 0.0000
# 2 43.3517 69.3985 30.7545 0.0000 0.0000 0.0000
# 3 28.1051 30.7545 29.4785 0.0000 0.0000 0.0000
# 4 0.0000 0.0000 0.0000 18.7373 0.0000 0.0000
# 5 0.0000 0.0000 0.0000 0.0000 18.2005 0.0000
# 6 0.0000 0.0000 0.0000 0.0000 0.0000 25.4385
#
#
#
# Elastic Compliance Matrix: (Units=1/GPa)
#
#
# Indices 1 2 3 4 5 6 
#
# 1 0.014741 -0.005543 -0.008271 0.000000 0.000000 0.000000
# 2 -0.005543 0.028884 -0.024850 0.000000 0.000000 0.000000
# 3 -0.008271 -0.024850 0.067735 0.000000 0.000000 0.000000
# 4 0.000000 0.000000 0.000000 0.053369 0.000000 0.000000
# 5 0.000000 0.000000 0.000000 0.000000 0.054943 0.000000
# 6 0.000000 0.000000 0.000000 0.000000 0.000000 0.039310
#
#
# Mechanical properties :
#
#
# Convention : Reuss Voigt Hill
#
# Bulk Modulus (GPa) = 29.38459 44.80119 37.09289
# Shear Modulus (GPa) = 14.38205 18.91373 16.64789
#
# Velocity S-wave (km/s) = 3.23109 3.70533 3.47631
# Velocity P-wave (km/s) = 5.93719 7.12932 6.56039
#
# Compressibility (1/GPa) = 0.03403144
#
# Stress axis : x y z
#
# Youngs Moduli (GPa) = 67.83991 34.62066 14.76345
#
# Poissons Ratio (x) = 0.19189 0.12211
# Poissons Ratio (y) = 0.37601 0.36688
# Poissons Ratio (z) = 0.56112 0.86033
#
# Static dielectric constant tensor:
#      x y z
#    x 1.469460 0.000000 0.000000 
#    y 0.000000 1.447320 0.000000 
#    z 0.000000 0.000000 1.456610 
# 
# From -- ./inp_files/13617.got.cif
#   From: 2010.05.17/outbox.cif.g08.bks.cpg/sg71_7_cif.got.tgz:13617.got - 2010.06.03 16:22:01.
