data_PCOD9518924
_publ_section_title
;
Structure prediction by ZEFSAII (Michael W. Deem and Ramdas Pophale) SiO2 
 PCOD9518924
Probable space group: I M M M
;
_chemical_formula_sum "Si O2"
_cell_formula_units_Z 96
_cell_length_a 14.144313
_cell_length_b 20.669864
_cell_length_c 18.741586
_cell_angle_alpha 90.000000
_cell_angle_beta 90.000000
_cell_angle_gamma 90.000000
_cell_volume 5479.309313
_symmetry_space_group_name_H-M "I M M M"
_symmetry_group_IT_number 71
_symmetry_cell_setting 'orthorhombic'
loop_
_space_group_symop_operation_xyz
x,y,z
-x,-y,z
x,-y,-z
-x,y,-z
-x,-y,-z
x,y,-z
-x,y,z
x,-y,z
1/2+x,1/2+y,1/2+z
1/2-x,1/2-y,1/2+z
1/2+x,1/2-y,1/2-z
1/2-x,1/2+y,1/2-z
1/2-x,1/2-y,1/2-z
1/2+x,1/2+y,1/2-z
1/2-x,1/2+y,1/2+z
1/2+x,1/2-y,1/2+z
loop_
_atom_site_type_symbol
_atom_site_label
_atom_site_fract_x
_atom_site_fract_y
_atom_site_fract_z
Si Si1 0.390976 0.743221 0.307375
Si Si2 0.708884 0.684241 0.827537
Si Si3 0.610612 0.577155 0.916206
Si Si4 0.801984 0.570856 0.413220
Si Si5 0.608540 0.204820 0.085679
Si Si6 0.104299 0.128840 0.085338
O O1 0.500000 0.760217 0.293291
O O2 0.348583 0.697866 0.244978
O O3 0.319561 0.803427 0.313444
O O4 0.387367 0.698559 0.377734
O O5 0.677487 0.618469 0.865179
O O6 0.675023 0.742337 0.879129
O O7 0.500000 0.593507 0.902059
O O8 0.621240 0.500000 0.907261
O O9 0.628127 0.592265 0.000000
O O10 0.806704 0.569881 0.500000
O O11 0.832326 0.500000 0.387878
O O12 0.862395 0.632779 0.390289
O O13 0.693129 0.585130 0.393365
O O14 0.500000 0.218562 0.104146
O O15 0.617625 0.207448 0.000000
O O16 0.000000 0.102459 0.103936
O O17 0.108896 0.135877 0.000000
#
# Coordination Sequence:
#
# PCOD9518924 Si02
#       6
#    16  16  16  16  16  16
#     4  10  21  34  51  77 104 132 170 212 255 304
#     4  11  20  33  55  76 104 139 168 208 261 315
#     4   9  18  33  55  84 113 139 172 218 271 322
#     4   9  17  29  44  65  95 128 163 204 245 285
#     4  10  19  30  48  74  99 128 169 209 248 300
#     4   9  17  31  49  68  95 129 166 208 250 294
#
# _framework density 17.520455999999999
#
# number of rings (size 3 to 8) (size 9 to 14) (size 15 to 20)
#    0.000    2.333    1.667    2.500    0.000    2.667 
#    0.000    4.167    0.000    1.500    0.000    1.167 
#    0.000    0.000    0.000    0.000    0.000    0.000 
#
# Total GULP energy -267641.501608 kJ/mol
# GULP energy per Si atom -5575.864617 kJ/mol
# Density = 1.748058 g / cm^3
# Si number density = 17.520456 Si / 1000 Ang^3
#
#
#
# Elastic Constant Matrix: (Units=GPa)
#
#
# Indices 1 2 3 4 5 6 
#
# 1 87.0041 18.1548 14.6341 0.0000 0.0000 0.0000
# 2 18.1548 49.9139 12.9606 0.0000 0.0000 0.0000
# 3 14.6341 12.9606 21.3441 0.0000 0.0000 0.0000
# 4 0.0000 0.0000 0.0000 11.3919 0.0000 0.0000
# 5 0.0000 0.0000 0.0000 0.0000 18.2428 0.0000
# 6 0.0000 0.0000 0.0000 0.0000 0.0000 17.9894
#
#
#
# Elastic Compliance Matrix: (Units=1/GPa)
#
#
# Indices 1 2 3 4 5 6 
#
# 1 0.013346 -0.002942 -0.007364 0.000000 0.000000 0.000000
# 2 -0.002942 0.024433 -0.012819 0.000000 0.000000 0.000000
# 3 -0.007364 -0.012819 0.059684 0.000000 0.000000 0.000000
# 4 0.000000 0.000000 0.000000 0.087782 0.000000 0.000000
# 5 0.000000 0.000000 0.000000 0.000000 0.054816 0.000000
# 6 0.000000 0.000000 0.000000 0.000000 0.000000 0.055588
#
#
# Mechanical properties :
#
#
# Convention : Reuss Voigt Hill
#
# Bulk Modulus (GPa) = 19.52623 27.75123 23.63873
# Shear Modulus (GPa) = 13.92867 17.02565 15.47716
#
# Velocity S-wave (km/s) = 2.82262 3.12069 2.97539
# Velocity P-wave (km/s) = 4.66819 5.37202 5.03242
#
# Compressibility (1/GPa) = 0.05121316
#
# Stress axis : x y z
#
# Youngs Moduli (GPa) = 74.92731 40.92784 16.75486
#
# Poissons Ratio (x) = 0.12042 0.12338
# Poissons Ratio (y) = 0.22045 0.21478
# Poissons Ratio (z) = 0.55176 0.52466
#
# Static dielectric constant tensor:
#      x y z
#    x 1.618390 0.000000 0.000000 
#    y 0.000000 1.588860 0.000000 
#    z 0.000000 0.000000 1.641540 
# 
# From -- ./inp_files/53320.got.cif
#   From: 2010.05.17/outbox.cif.g08.bks.cpg/sg71_27_cif.got.tgz:53320.got - 2010.06.03 16:22:01.
