data_PCOD9518575
_publ_section_title
;
Structure prediction by ZEFSAII (Michael W. Deem and Ramdas Pophale) SiO2 
 PCOD9518575
Probable space group: I M M M
;
_chemical_formula_sum "Si O2"
_cell_formula_units_Z 90
_cell_length_a 22.505070
_cell_length_b 23.984172
_cell_length_c 7.389293
_cell_angle_alpha 90.000000
_cell_angle_beta 90.000000
_cell_angle_gamma 90.000000
_cell_volume 3988.485207
_symmetry_space_group_name_H-M "I M M M"
_symmetry_group_IT_number 71
_symmetry_cell_setting 'orthorhombic'
loop_
_space_group_symop_operation_xyz
x,y,z
-x,-y,z
x,-y,-z
-x,y,-z
-x,-y,-z
x,y,-z
-x,y,z
x,-y,z
1/2+x,1/2+y,1/2+z
1/2-x,1/2-y,1/2+z
1/2+x,1/2-y,1/2-z
1/2-x,1/2+y,1/2-z
1/2-x,1/2-y,1/2-z
1/2+x,1/2+y,1/2-z
1/2-x,1/2+y,1/2+z
1/2+x,1/2-y,1/2+z
loop_
_atom_site_type_symbol
_atom_site_label
_atom_site_fract_x
_atom_site_fract_y
_atom_site_fract_z
Si Si1 0.000000 0.789064 0.780763
Si Si2 0.000000 0.918524 0.293641
Si Si3 0.500000 0.000000 0.000000
Si Si4 0.876793 0.732846 0.778623
Si Si5 0.131890 0.059026 0.208030
Si Si6 0.831020 0.381880 0.214282
Si Si7 0.886048 0.500000 0.223804
Si Si8 0.300507 0.665000 0.283068
O O1 0.939662 0.758745 0.724801
O O2 0.000000 0.851962 0.715204
O O3 0.000000 0.791336 0.000000
O O4 0.939035 0.938472 0.207918
O O5 0.000000 0.936927 0.500000
O O6 0.553041 0.000000 0.839142
O O7 0.870174 0.669589 0.714000
O O8 0.823653 0.774619 0.718144
O O9 0.875504 0.731609 0.000000
O O10 0.155776 0.116448 0.287388
O O11 0.151175 0.000000 0.291001
O O12 0.152519 0.058533 0.000000
O O13 0.849095 0.443730 0.275126
O O14 0.764489 0.358765 0.243346
O O15 0.839879 0.384221 0.000000
O O16 0.894865 0.500000 0.000000
O O17 0.305908 0.668651 0.500000
#
# Coordination Sequence:
#
# PCOD9518575 Si02
#       8
#     8   8   2  16  16  16   8  16
#     4  10  18  36  62  81 109 152 207 254 297 366
#     4  12  23  35  53  80 119 154 192 250 310 364
#     4  12  26  48  84 102 136 176 218 278 350 386
#     4   9  18  35  62  90 116 162 211 259 317 373
#     4  10  21  37  57  81 108 155 207 251 294 351
#     4  10  22  40  62  93 130 165 205 255 322 386
#     4  10  25  47  73 106 137 172 219 270 333 407
#     4  10  20  35  60  90 122 161 213 259 303 375
#
# _framework density 22.564955999999999
#
# number of rings (size 3 to 8) (size 9 to 14) (size 15 to 20)
#    0.000    1.956    1.778    1.733    2.489    2.844 
#    0.000    3.556    1.956    0.000    0.000    0.000 
#    0.000    0.000    0.000    0.000    0.000    0.000 
#
# Total GULP energy -250897.440743 kJ/mol
# GULP energy per Si atom -5575.498683 kJ/mol
# Density = 2.251360 g / cm^3
# Si number density = 22.564956 Si / 1000 Ang^3
#
#
#
# Elastic Constant Matrix: (Units=GPa)
#
#
# Indices 1 2 3 4 5 6 
#
# 1 110.6275 75.6125 -1.5314 0.0000 0.0000 0.0000
# 2 75.6125 233.7875 17.2836 0.0000 0.0000 0.0000
# 3 -1.5314 17.2836 92.4998 0.0000 0.0000 0.0000
# 4 0.0000 0.0000 0.0000 -25.4236 0.0000 0.0000
# 5 0.0000 0.0000 0.0000 0.0000 -3.6475 0.0000
# 6 0.0000 0.0000 0.0000 0.0000 0.0000 1089.9703
#
#
#
# Elastic Compliance Matrix: (Units=1/GPa)
#
#
# Indices 1 2 3 4 5 6 
#
# 1 0.011680 -0.003845 0.000912 0.000000 0.000000 0.000000
# 2 -0.003845 0.005603 -0.001111 0.000000 0.000000 0.000000
# 3 0.000912 -0.001111 0.011033 0.000000 0.000000 0.000000
# 4 0.000000 0.000000 0.000000 -0.039334 0.000000 0.000000
# 5 0.000000 0.000000 0.000000 0.000000 -0.274158 0.000000
# 6 0.000000 0.000000 0.000000 0.000000 0.000000 0.000917
#
#
# Mechanical properties :
#
#
# Convention : Reuss Voigt Hill
#
# Bulk Modulus (GPa) = 49.43418 68.84937 59.14177
# Shear Modulus (GPa) = -18.55788 235.21651 108.32932
#
# Velocity S-wave (km/s) = -2.87090 10.22086 6.93628
# Velocity P-wave (km/s) = 3.31144 13.03326 9.50872
#
# Compressibility (1/GPa) = 0.02022892
#
# Stress axis : x y z
#
# Youngs Moduli (GPa) = 85.61671 178.47413 90.63351
#
# Poissons Ratio (x) = 0.68623 -0.08264
# Poissons Ratio (y) = 0.32920 0.10066
# Poissons Ratio (z) = -0.07807 0.19821
#
# Static dielectric constant tensor:
#      x y z
#    x 1.826270 0.000000 0.000000 
#    y 0.000000 1.869050 0.000000 
#    z 0.000000 0.000000 1.862740 
# 
# From -- ./inp_files/10595.got.cif
#   From: 2010.05.17/outbox.cif.g08.bks.cpg/sg71_6_cif.got.tgz:10595.got - 2010.06.03 16:22:01.
