data_PCOD9518751
_publ_section_title
;
Structure prediction by ZEFSAII (Michael W. Deem and Ramdas Pophale) SiO2 
 PCOD9518751
Probable space group: I M M M
;
_chemical_formula_sum "Si O2"
_cell_formula_units_Z 90
_cell_length_a 32.454242
_cell_length_b 8.090375
_cell_length_c 24.613083
_cell_angle_alpha 90.000000
_cell_angle_beta 90.000000
_cell_angle_gamma 90.000000
_cell_volume 6462.583072
_symmetry_space_group_name_H-M "I M M M"
_symmetry_group_IT_number 71
_symmetry_cell_setting 'orthorhombic'
loop_
_space_group_symop_operation_xyz
x,y,z
-x,-y,z
x,-y,-z
-x,y,-z
-x,-y,-z
x,y,-z
-x,y,z
x,-y,z
1/2+x,1/2+y,1/2+z
1/2-x,1/2-y,1/2+z
1/2+x,1/2-y,1/2-z
1/2-x,1/2+y,1/2-z
1/2-x,1/2-y,1/2-z
1/2+x,1/2+y,1/2-z
1/2-x,1/2+y,1/2+z
1/2+x,1/2-y,1/2+z
loop_
_atom_site_type_symbol
_atom_site_label
_atom_site_fract_x
_atom_site_fract_y
_atom_site_fract_z
Si Si1 0.414517 0.697190 0.113488
Si Si2 0.161827 0.299497 0.316454
Si Si3 0.209716 0.303141 0.784105
Si Si4 0.000000 0.689292 0.587218
Si Si5 0.221795 0.195856 0.500000
Si Si6 0.257311 0.195713 0.882786
Si Si7 0.872489 0.201665 0.500000
Si Si8 0.500000 0.500000 0.000000
O O1 0.420513 0.500000 0.110890
O O2 0.380267 0.736027 0.158295
O O3 0.457923 0.786477 0.120649
O O4 0.396010 0.751748 0.054725
O O5 0.161506 0.500000 0.318004
O O6 0.172274 0.246923 0.254597
O O7 0.200283 0.240473 0.354307
O O8 0.208315 0.500000 0.786102
O O9 0.250000 0.250000 0.750000
O O10 0.218838 0.241751 0.844590
O O11 0.000000 0.500000 0.564873
O O12 0.000000 0.848473 0.546296
O O13 0.243817 0.246590 0.444541
O O14 0.174626 0.262729 0.500000
O O15 0.218104 0.000000 0.500000
O O16 0.260612 0.000000 0.882437
O O17 0.872312 0.000000 0.500000
#
# Coordination Sequence:
#
# PCOD9518751 Si02
#       8
#    16  16  16   8   8  16   8   2
#     4  11  20  34  51  65  86 108 147 188 224 280
#     4   9  18  30  44  64  84 107 139 178 225 268
#     4   9  17  29  44  61  83 108 139 174 214 262
#     4  12  25  39  53  66  89 117 144 194 236 273
#     4  11  19  30  43  61  83 113 144 173 222 264
#     4  10  19  30  42  61  87 110 142 179 216 262
#     4   9  19  29  43  61  81 107 139 182 221 261
#     4  12  22  44  52  70  88 108 166 176 232 292
#
# _framework density 13.92632
#
# number of rings (size 3 to 8) (size 9 to 14) (size 15 to 20)
#    0.000    1.956    2.667    3.600    1.244    3.556 
#    0.000    1.333    0.000    0.000    0.000    0.000 
#    0.000    0.000    0.000    0.000    0.000    0.889 
#
# Total GULP energy -250509.518348 kJ/mol
# GULP energy per Si atom -5566.878186 kJ/mol
# Density = 1.389462 g / cm^3
# Si number density = 13.926320 Si / 1000 Ang^3
#
#
#
# Elastic Constant Matrix: (Units=GPa)
#
#
# Indices 1 2 3 4 5 6 
#
# 1 76.0582 17.9816 58.2195 0.0000 0.0000 0.0000
# 2 17.9816 49.3236 22.1390 0.0000 0.0000 0.0000
# 3 58.2195 22.1390 104.6928 0.0000 0.0000 0.0000
# 4 0.0000 0.0000 0.0000 19.0113 0.0000 0.0000
# 5 0.0000 0.0000 0.0000 0.0000 -11.9148 0.0000
# 6 0.0000 0.0000 0.0000 0.0000 0.0000 15.6142
#
#
#
# Elastic Compliance Matrix: (Units=1/GPa)
#
#
# Indices 1 2 3 4 5 6 
#
# 1 0.023276 -0.002956 -0.012319 0.000000 0.000000 0.000000
# 2 -0.002956 0.022776 -0.003172 0.000000 0.000000 0.000000
# 3 -0.012319 -0.003172 0.017073 0.000000 0.000000 0.000000
# 4 0.000000 0.000000 0.000000 0.052600 0.000000 0.000000
# 5 0.000000 0.000000 0.000000 0.000000 -0.083929 0.000000
# 6 0.000000 0.000000 0.000000 0.000000 0.000000 0.064044
#
#
# Mechanical properties :
#
#
# Convention : Reuss Voigt Hill
#
# Bulk Modulus (GPa) = 38.12370 47.41720 42.77045
# Shear Modulus (GPa) = 35.34094 13.32444 24.33269
#
# Velocity S-wave (km/s) = 5.04303 3.09654 4.18454
# Velocity P-wave (km/s) = 7.83226 6.84889 7.35702
#
# Compressibility (1/GPa) = 0.02623040
#
# Stress axis : x y z
#
# Youngs Moduli (GPa) = 42.96221 43.90600 58.57194
#
# Poissons Ratio (x) = 0.12980 0.72153
# Poissons Ratio (y) = 0.12701 0.18581
# Poissons Ratio (z) = 0.52924 0.13928
#
# Static dielectric constant tensor:
#      x y z
#    x 1.463060 0.000000 0.000000 
#    y 0.000000 1.488810 0.000000 
#    z 0.000000 0.000000 1.478250 
# 
# From -- ./inp_files/62267.got.cif
#   From: 2010.05.17/outbox.cif.g08.bks.cpg/sg71_32_cif.got.tgz:62267.got - 2010.06.03 16:22:01.
