data_PCOD9518599
_publ_section_title
;
Structure prediction by ZEFSAII (Michael W. Deem and Ramdas Pophale) SiO2 
 PCOD9518599
Probable space group: I M M M
;
_chemical_formula_sum "Si O2"
_cell_formula_units_Z 112
_cell_length_a 17.179206
_cell_length_b 26.422961
_cell_length_c 14.590010
_cell_angle_alpha 90.000000
_cell_angle_beta 90.000000
_cell_angle_gamma 90.000000
_cell_volume 6622.777441
_symmetry_space_group_name_H-M "I M M M"
_symmetry_group_IT_number 71
_symmetry_cell_setting 'orthorhombic'
loop_
_space_group_symop_operation_xyz
x,y,z
-x,-y,z
x,-y,-z
-x,y,-z
-x,-y,-z
x,y,-z
-x,y,z
x,-y,z
1/2+x,1/2+y,1/2+z
1/2-x,1/2-y,1/2+z
1/2+x,1/2-y,1/2-z
1/2-x,1/2+y,1/2-z
1/2-x,1/2-y,1/2-z
1/2+x,1/2+y,1/2-z
1/2-x,1/2+y,1/2+z
1/2+x,1/2-y,1/2+z
loop_
_atom_site_type_symbol
_atom_site_label
_atom_site_fract_x
_atom_site_fract_y
_atom_site_fract_z
Si Si1 0.589937 0.945504 0.798736
Si Si2 0.910166 0.747135 0.265230
Si Si3 0.142529 0.833696 0.608656
Si Si4 0.821771 0.297729 0.103888
Si Si5 0.134251 0.413200 0.896354
Si Si6 0.405104 0.154838 0.104536
Si Si7 0.315655 0.555847 0.891703
O O1 0.500000 0.947657 0.828264
O O2 0.590875 0.936424 0.689813
O O3 0.624487 0.896789 0.849037
O O4 0.626652 0.000000 0.819333
O O5 0.905099 0.798428 0.323241
O O6 0.854749 0.741132 0.177736
O O7 0.883730 0.702695 0.334436
O O8 0.000000 0.737841 0.238262
O O9 0.120197 0.830497 0.500000
O O10 0.231115 0.812429 0.614417
O O11 0.143225 0.892446 0.639649
O O12 0.865125 0.352215 0.113341
O O13 0.833455 0.279782 0.000000
O O14 0.223174 0.432870 0.886865
O O15 0.108033 0.425737 0.000000
O O16 0.500000 0.153835 0.104230
O O17 0.379175 0.159667 0.000000
O O18 0.332573 0.500000 0.852089
O O19 0.333502 0.553450 0.000000
#
# Coordination Sequence:
#
# PCOD9518599 Si02
#       7
#    16  16  16  16  16  16  16
#     4  10  19  28  38  55  80 112 151 191 231 276
#     4  11  20  31  49  70  94 125 160 198 236 282
#     4   9  18  31  48  72  98 125 159 196 233 277
#     4   9  18  32  49  69  94 124 155 191 237 283
#     4   9  16  27  43  63  88 115 147 187 228 275
#     4   9  18  31  43  56  77 110 152 192 229 268
#     4   8  14  26  45  67  90 118 150 183 226 280
#
# _framework density 16.911334
#
# number of rings (size 3 to 8) (size 9 to 14) (size 15 to 20)
#    0.000    2.714    1.429    3.000    0.000    2.571 
#    0.000    3.571    0.000    0.429    0.000    2.000 
#    0.000    0.571    0.000    1.286    0.000    0.000 
#
# Total GULP energy -311830.524887 kJ/mol
# GULP energy per Si atom -5568.402230 kJ/mol
# Density = 1.687284 g / cm^3
# Si number density = 16.911334 Si / 1000 Ang^3
#
#
#
# Elastic Constant Matrix: (Units=GPa)
#
#
# Indices 1 2 3 4 5 6 
#
# 1 8.8837 9.8818 10.4158 0.0000 0.0000 0.0000
# 2 9.8818 90.9840 29.2889 0.0000 0.0000 0.0000
# 3 10.4158 29.2889 69.7048 0.0000 0.0000 0.0000
# 4 0.0000 0.0000 0.0000 18.9809 0.0000 0.0000
# 5 0.0000 0.0000 0.0000 0.0000 16.0809 0.0000
# 6 0.0000 0.0000 0.0000 0.0000 0.0000 13.6049
#
#
#
# Elastic Compliance Matrix: (Units=1/GPa)
#
#
# Indices 1 2 3 4 5 6 
#
# 1 0.144049 -0.010079 -0.017290 0.000000 0.000000 0.000000
# 2 -0.010079 0.013415 -0.004131 0.000000 0.000000 0.000000
# 3 -0.017290 -0.004131 0.018665 0.000000 0.000000 0.000000
# 4 0.000000 0.000000 0.000000 0.052685 0.000000 0.000000
# 5 0.000000 0.000000 0.000000 0.000000 0.062185 0.000000
# 6 0.000000 0.000000 0.000000 0.000000 0.000000 0.073503
#
#
# Mechanical properties :
#
#
# Convention : Reuss Voigt Hill
#
# Bulk Modulus (GPa) = 8.83936 29.86062 19.34999
# Shear Modulus (GPa) = 10.74776 17.73241 14.24008
#
# Velocity S-wave (km/s) = 2.52372 3.24165 2.90495
# Velocity P-wave (km/s) = 3.70546 5.63086 4.76639
#
# Compressibility (1/GPa) = 0.11313034
#
# Stress axis : x y z
#
# Youngs Moduli (GPa) = 6.94206 74.54100 53.57482
#
# Poissons Ratio (x) = 0.75133 0.92629
# Poissons Ratio (y) = 0.06997 0.22131
# Poissons Ratio (z) = 0.12003 0.30792
#
# Static dielectric constant tensor:
#      x y z
#    x 1.600950 0.000000 0.000000 
#    y 0.000000 1.626010 0.000000 
#    z 0.000000 0.000000 1.566480 
# 
# From -- ./inp_files/26464.got.cif
#   From: 2010.05.17/outbox.cif.g08.bks.cpg/sg71_14_cif.got.tgz:26464.got - 2010.06.03 16:22:01.
