data_PCOD9518696
_publ_section_title
;
Structure prediction by ZEFSAII (Michael W. Deem and Ramdas Pophale) SiO2 
 PCOD9518696
Probable space group: I M M M
;
_chemical_formula_sum "Si O2"
_cell_formula_units_Z 104
_cell_length_a 23.491892
_cell_length_b 9.415261
_cell_length_c 28.721736
_cell_angle_alpha 90.000000
_cell_angle_beta 90.000000
_cell_angle_gamma 90.000000
_cell_volume 6352.739472
_symmetry_space_group_name_H-M "I M M M"
_symmetry_group_IT_number 71
_symmetry_cell_setting 'orthorhombic'
loop_
_space_group_symop_operation_xyz
x,y,z
-x,-y,z
x,-y,-z
-x,y,-z
-x,-y,-z
x,y,-z
-x,y,z
x,-y,z
1/2+x,1/2+y,1/2+z
1/2-x,1/2-y,1/2+z
1/2+x,1/2-y,1/2-z
1/2-x,1/2+y,1/2-z
1/2-x,1/2-y,1/2-z
1/2+x,1/2+y,1/2-z
1/2-x,1/2+y,1/2+z
1/2+x,1/2-y,1/2+z
loop_
_atom_site_type_symbol
_atom_site_label
_atom_site_fract_x
_atom_site_fract_y
_atom_site_fract_z
Si Si1 0.931845 0.166590 0.590479
Si Si2 0.930598 0.662365 0.500000
Si Si3 0.370452 0.667144 0.184182
Si Si4 0.433854 0.173056 0.553192
Si Si5 0.565052 0.170081 0.263710
Si Si6 0.369002 0.171431 0.355669
Si Si7 0.241838 0.667936 0.798688
O O1 0.912360 0.255924 0.546246
O O2 0.903473 0.214605 0.638221
O O3 0.000000 0.179506 0.594577
O O4 0.918811 0.000000 0.583367
O O5 0.912181 0.500000 0.500000
O O6 0.000000 0.664640 0.500000
O O7 0.382890 0.500000 0.191866
O O8 0.392552 0.753856 0.228308
O O9 0.303111 0.680949 0.177096
O O10 0.419649 0.216547 0.500000
O O11 0.500000 0.213121 0.562591
O O12 0.391334 0.222999 0.594087
O O13 0.432773 0.000000 0.553793
O O14 0.500000 0.213348 0.254706
O O15 0.583479 0.201714 0.316514
O O16 0.569226 0.000000 0.257756
O O17 0.309476 0.219496 0.332018
O O18 0.364036 0.000000 0.359663
O O19 0.231481 0.500000 0.788724
O O20 0.250000 0.750000 0.750000
#
# Coordination Sequence:
#
# PCOD9518696 Si02
#       7
#    16   8  16  16  16  16  16
#     4   9  17  30  47  65  89 122 153 184 231 284
#     4   9  17  29  47  71  93 113 145 189 230 273
#     4  10  20  32  47  67  93 125 161 196 233 282
#     4   8  13  22  39  64  93 124 155 189 236 291
#     4  10  19  29  44  68  96 125 155 189 235 286
#     4   9  16  27  43  63  92 125 157 193 233 280
#     4  10  19  32  49  67  91 125 163 197 233 277
#
# _framework density 16.370889999999999
#
# number of rings (size 3 to 8) (size 9 to 14) (size 15 to 20)
#    0.000    2.692    1.538    1.615    0.000    4.308 
#    0.000    1.538    1.692    0.000    0.000    0.000 
#    0.000    1.846    0.000    8.462    0.000    7.692 
#
# Total GULP energy -289560.466648 kJ/mol
# GULP energy per Si atom -5568.470512 kJ/mol
# Density = 1.633363 g / cm^3
# Si number density = 16.370890 Si / 1000 Ang^3
#
#
#
# Elastic Constant Matrix: (Units=GPa)
#
#
# Indices 1 2 3 4 5 6 
#
# 1 72.1329 15.6342 47.2606 0.0000 0.0000 0.0000
# 2 15.6342 15.6086 29.3116 0.0000 0.0000 0.0000
# 3 47.2606 29.3116 135.1660 0.0000 0.0000 0.0000
# 4 0.0000 0.0000 0.0000 15.8787 0.0000 0.0000
# 5 0.0000 0.0000 0.0000 0.0000 18.0930 0.0000
# 6 0.0000 0.0000 0.0000 0.0000 0.0000 13.5591
#
#
#
# Elastic Compliance Matrix: (Units=1/GPa)
#
#
# Indices 1 2 3 4 5 6 
#
# 1 0.019057 -0.011093 -0.004258 0.000000 0.000000 0.000000
# 2 -0.011093 0.114539 -0.020960 0.000000 0.000000 0.000000
# 3 -0.004258 -0.020960 0.013432 0.000000 0.000000 0.000000
# 4 0.000000 0.000000 0.000000 0.062977 0.000000 0.000000
# 5 0.000000 0.000000 0.000000 0.000000 0.055270 0.000000
# 6 0.000000 0.000000 0.000000 0.000000 0.000000 0.073751
#
#
# Mechanical properties :
#
#
# Convention : Reuss Voigt Hill
#
# Bulk Modulus (GPa) = 13.43950 45.25784 29.34867
# Shear Modulus (GPa) = 11.45606 18.21957 14.83782
#
# Velocity S-wave (km/s) = 2.64821 3.33967 3.01384
# Velocity P-wave (km/s) = 4.19260 6.52507 5.48427
#
# Compressibility (1/GPa) = 0.07440753
#
# Stress axis : x y z
#
# Youngs Moduli (GPa) = 52.47362 8.73067 74.44707
#
# Poissons Ratio (x) = 0.09685 0.31698
# Poissons Ratio (y) = 0.58207 1.56041
# Poissons Ratio (z) = 0.22342 0.18299
#
# Static dielectric constant tensor:
#      x y z
#    x 1.560320 0.000000 0.000000 
#    y 0.000000 1.550540 0.000000 
#    z 0.000000 0.000000 1.548200 
# 
# From -- ./inp_files/11518.got.cif
#   From: 2010.05.17/outbox.cif.g08.bks.cpg/sg71_6_cif.got.tgz:11518.got - 2010.06.03 16:22:01.
