data_PCOD9518296
_publ_section_title
;
Structure prediction by ZEFSAII (Michael W. Deem and Ramdas Pophale) SiO2 
 PCOD9518296
Probable space group: I M M M
;
_chemical_formula_sum "Si O2"
_cell_formula_units_Z 116
_cell_length_a 15.246384
_cell_length_b 23.583167
_cell_length_c 17.683625
_cell_angle_alpha 90.000000
_cell_angle_beta 90.000000
_cell_angle_gamma 90.000000
_cell_volume 6358.289192
_symmetry_space_group_name_H-M "I M M M"
_symmetry_group_IT_number 71
_symmetry_cell_setting 'orthorhombic'
loop_
_space_group_symop_operation_xyz
x,y,z
-x,-y,z
x,-y,-z
-x,y,-z
-x,-y,-z
x,y,-z
-x,y,z
x,-y,z
1/2+x,1/2+y,1/2+z
1/2-x,1/2-y,1/2+z
1/2+x,1/2-y,1/2-z
1/2-x,1/2+y,1/2-z
1/2-x,1/2-y,1/2-z
1/2+x,1/2+y,1/2-z
1/2-x,1/2+y,1/2+z
1/2+x,1/2-y,1/2+z
loop_
_atom_site_type_symbol
_atom_site_label
_atom_site_fract_x
_atom_site_fract_y
_atom_site_fract_z
Si Si1 0.235902 0.154378 0.168036
Si Si2 0.902996 0.223058 0.265364
Si Si3 0.692610 0.261222 0.084891
Si Si4 0.365645 0.566822 0.874909
Si Si5 0.096806 0.356165 0.764073
Si Si6 0.398787 0.566630 0.303709
Si Si7 0.500000 0.607582 0.000000
Si Si8 0.310940 0.126791 0.586280
O O1 0.177647 0.191135 0.226943
O O2 0.266348 0.200066 0.106130
O O3 0.321727 0.129421 0.209601
O O4 0.169061 0.104219 0.148904
O O5 0.882040 0.226229 0.353947
O O6 0.902477 0.287560 0.236205
O O7 0.000000 0.199107 0.250549
O O8 0.764878 0.310982 0.091425
O O9 0.658266 0.261534 0.000000
O O10 0.383855 0.500000 0.888238
O O11 0.385504 0.578586 0.786600
O O12 0.424324 0.601699 0.933332
O O13 0.265777 0.582635 0.892940
O O14 0.116970 0.376373 0.848634
O O15 0.000000 0.374446 0.738429
O O16 0.500000 0.577584 0.322965
O O17 0.381741 0.500000 0.313260
O O18 0.340457 0.118775 0.500000
#
# Coordination Sequence:
#
# PCOD9518296 Si02
#       8
#    16  16  16  16  16  16   4  16
#     4  11  18  35  56  74 104 140 173 214 267 325
#     4  10  18  31  53  78 102 136 171 205 266 325
#     4  10  20  34  50  75 105 137 173 217 261 317
#     4  11  20  31  48  73 108 147 179 212 257 312
#     4  10  19  32  50  71  96 132 179 218 255 298
#     4  10  20  32  52  81 106 131 172 218 261 315
#     4  12  21  32  48  76 118 154 182 210 261 332
#     4  11  20  32  47  69 101 138 179 218 258 298
#
# _framework density 18.243901000000001
#
# number of rings (size 3 to 8) (size 9 to 14) (size 15 to 20)
#    0.000    1.517    5.517    1.862    0.000    0.552 
#    1.241    0.000    0.000    3.724    0.000    1.931 
#    0.000    0.000    0.000    6.897    0.000    0.000 
#
# Total GULP energy -323185.075804 kJ/mol
# GULP energy per Si atom -5572.156479 kJ/mol
# Density = 1.820238 g / cm^3
# Si number density = 18.243901 Si / 1000 Ang^3
#
#
#
# Elastic Constant Matrix: (Units=GPa)
#
#
# Indices 1 2 3 4 5 6 
#
# 1 77.7288 0.9993 0.4204 0.0000 0.0000 0.0000
# 2 0.9993 38.0027 -11.8766 0.0000 0.0000 0.0000
# 3 0.4204 -11.8766 26.7079 0.0000 0.0000 0.0000
# 4 0.0000 0.0000 0.0000 8.6178 0.0000 0.0000
# 5 0.0000 0.0000 0.0000 0.0000 14.3001 0.0000
# 6 0.0000 0.0000 0.0000 0.0000 0.0000 15.0952
#
#
#
# Elastic Compliance Matrix: (Units=1/GPa)
#
#
# Indices 1 2 3 4 5 6 
#
# 1 0.012873 -0.000467 -0.000410 0.000000 0.000000 0.000000
# 2 -0.000467 0.030578 0.013605 0.000000 0.000000 0.000000
# 3 -0.000410 0.013605 0.043498 0.000000 0.000000 0.000000
# 4 0.000000 0.000000 0.000000 0.116039 0.000000 0.000000
# 5 0.000000 0.000000 0.000000 0.000000 0.069930 0.000000
# 6 0.000000 0.000000 0.000000 0.000000 0.000000 0.066246
#
#
# Mechanical properties :
#
#
# Convention : Reuss Voigt Hill
#
# Bulk Modulus (GPa) = 8.89634 13.50287 11.19960
# Shear Modulus (GPa) = 14.23782 17.79569 16.01676
#
# Velocity S-wave (km/s) = 2.79662 3.12658 2.96619
# Velocity P-wave (km/s) = 3.91344 4.52232 4.22885
#
# Compressibility (1/GPa) = 0.11240574
#
# Stress axis : x y z
#
# Youngs Moduli (GPa) = 77.67922 32.70331 22.98934
#
# Poissons Ratio (x) = 0.01526 0.00943
# Poissons Ratio (y) = 0.03625 -0.31277
# Poissons Ratio (z) = 0.03186 -0.44492
#
# Static dielectric constant tensor:
#      x y z
#    x 1.646830 0.000000 0.000000 
#    y 0.000000 1.667150 0.000000 
#    z 0.000000 0.000000 1.611600 
# 
# From -- ./inp_files/45329.got.cif
#   From: 2010.05.17/outbox.cif.g08.bks.cpg/sg71_23_cif.got.tgz:45329.got - 2010.06.03 16:22:01.
