data_PCOD9518282
_publ_section_title
;
Structure prediction by ZEFSAII (Michael W. Deem and Ramdas Pophale) SiO2 
 PCOD9518282
Probable space group: I M M M
;
_chemical_formula_sum "Si O2"
_cell_formula_units_Z 88
_cell_length_a 23.279309
_cell_length_b 23.662998
_cell_length_c 7.850831
_cell_angle_alpha 90.000000
_cell_angle_beta 90.000000
_cell_angle_gamma 90.000000
_cell_volume 4324.694965
_symmetry_space_group_name_H-M "I M M M"
_symmetry_group_IT_number 71
_symmetry_cell_setting 'orthorhombic'
loop_
_space_group_symop_operation_xyz
x,y,z
-x,-y,z
x,-y,-z
-x,y,-z
-x,-y,-z
x,y,-z
-x,y,z
x,-y,z
1/2+x,1/2+y,1/2+z
1/2-x,1/2-y,1/2+z
1/2+x,1/2-y,1/2-z
1/2-x,1/2+y,1/2-z
1/2-x,1/2-y,1/2-z
1/2+x,1/2+y,1/2-z
1/2-x,1/2+y,1/2+z
1/2+x,1/2-y,1/2+z
loop_
_atom_site_type_symbol
_atom_site_label
_atom_site_fract_x
_atom_site_fract_y
_atom_site_fract_z
Si Si1 0.763911 0.062606 0.707427
Si Si2 0.164271 0.645994 0.793281
Si Si3 0.000000 0.064869 0.201459
Si Si4 0.436030 0.935899 0.707767
Si Si5 0.878627 0.879698 0.294626
Si Si6 0.314704 0.267504 0.196395
O O1 0.761079 0.062332 0.500000
O O2 0.722782 0.114085 0.761763
O O3 0.829363 0.075424 0.756281
O O4 0.745424 0.000000 0.764302
O O5 0.112981 0.605841 0.736978
O O6 0.154190 0.708109 0.723007
O O7 0.165713 0.649781 0.000000
O O8 0.058061 0.099471 0.245359
O O9 0.000000 0.000000 0.274135
O O10 0.000000 0.059163 0.000000
O O11 0.435253 0.936241 0.500000
O O12 0.500000 0.919496 0.761266
O O13 0.425003 0.000000 0.762521
O O14 0.879736 0.877234 0.500000
O O15 0.852046 0.819570 0.229554
O O16 0.250000 0.250000 0.250000
O O17 0.307938 0.282583 0.000000
#
# Coordination Sequence:
#
# PCOD9518282 Si02
#       6
#    16  16   8  16  16  16
#     4   9  16  28  51  82 109 138 183 233 277 328
#     4  10  18  31  52  80 113 146 184 230 279 334
#     4  11  25  43  63  91 123 151 186 241 308 361
#     4   8  14  26  47  77 111 144 180 224 270 318
#     4  10  21  39  61  83 111 153 200 236 277 343
#     4  11  22  38  59  83 112 147 187 231 279 335
#
# _framework density 20.348255999999999
#
# number of rings (size 3 to 8) (size 9 to 14) (size 15 to 20)
#    0.000    2.273    1.818    2.455    0.000    5.091 
#    1.636    0.000    0.000    2.182    0.000    1.273 
#    0.000    0.000    0.000    0.000    0.000    0.000 
#
# Total GULP energy -245275.845606 kJ/mol
# GULP energy per Si atom -5574.451037 kJ/mol
# Density = 2.030194 g / cm^3
# Si number density = 20.348256 Si / 1000 Ang^3
#
#
#
# Elastic Constant Matrix: (Units=GPa)
#
#
# Indices 1 2 3 4 5 6 
#
# 1 125.6269 79.7985 9.9690 0.0000 0.0000 0.0000
# 2 79.7985 127.4352 6.3060 0.0000 0.0000 0.0000
# 3 9.9690 6.3060 26.8988 0.0000 0.0000 0.0000
# 4 0.0000 0.0000 0.0000 19.5944 0.0000 0.0000
# 5 0.0000 0.0000 0.0000 0.0000 8.3224 0.0000
# 6 0.0000 0.0000 0.0000 0.0000 0.0000 24.5436
#
#
#
# Elastic Compliance Matrix: (Units=1/GPa)
#
#
# Indices 1 2 3 4 5 6 
#
# 1 0.013460 -0.008278 -0.003048 0.000000 0.000000 0.000000
# 2 -0.008278 0.013030 0.000013 0.000000 0.000000 0.000000
# 3 -0.003048 0.000013 0.038303 0.000000 0.000000 0.000000
# 4 0.000000 0.000000 0.000000 0.051035 0.000000 0.000000
# 5 0.000000 0.000000 0.000000 0.000000 0.120158 0.000000
# 6 0.000000 0.000000 0.000000 0.000000 0.000000 0.040744
#
#
# Mechanical properties :
#
#
# Convention : Reuss Voigt Hill
#
# Bulk Modulus (GPa) = 23.71471 52.45644 38.08558
# Shear Modulus (GPa) = 15.95355 22.75123 19.35239
#
# Velocity S-wave (km/s) = 2.80308 3.34742 3.08727
# Velocity P-wave (km/s) = 4.70702 6.38557 5.60944
#
# Compressibility (1/GPa) = 0.04216792
#
# Stress axis : x y z
#
# Youngs Moduli (GPa) = 74.29483 76.74707 26.10773
#
# Poissons Ratio (x) = 0.63528 0.07957
# Poissons Ratio (y) = 0.61498 -0.00034
# Poissons Ratio (z) = 0.22644 -0.00101
#
# Static dielectric constant tensor:
#      x y z
#    x 1.728970 0.000000 0.000000 
#    y 0.000000 1.757970 0.000000 
#    z 0.000000 0.000000 1.759300 
# 
# From -- ./inp_files/10459.got.cif
#   From: 2010.05.17/outbox.cif.g08.bks.cpg/sg71_6_cif.got.tgz:10459.got - 2010.06.03 16:22:01.
