data_PCOD9518852
_publ_section_title
;
Structure prediction by ZEFSAII (Michael W. Deem and Ramdas Pophale) SiO2 
 PCOD9518852
Probable space group: I M M M
;
_chemical_formula_sum "Si O2"
_cell_formula_units_Z 116
_cell_length_a 28.117653
_cell_length_b 7.725644
_cell_length_c 26.485352
_cell_angle_alpha 90.000000
_cell_angle_beta 90.000000
_cell_angle_gamma 90.000000
_cell_volume 5753.332955
_symmetry_space_group_name_H-M "I M M M"
_symmetry_group_IT_number 71
_symmetry_cell_setting 'orthorhombic'
loop_
_space_group_symop_operation_xyz
x,y,z
-x,-y,z
x,-y,-z
-x,y,-z
-x,-y,-z
x,y,-z
-x,y,z
x,-y,z
1/2+x,1/2+y,1/2+z
1/2-x,1/2-y,1/2+z
1/2+x,1/2-y,1/2-z
1/2-x,1/2+y,1/2-z
1/2-x,1/2-y,1/2-z
1/2+x,1/2+y,1/2-z
1/2-x,1/2+y,1/2+z
1/2+x,1/2-y,1/2+z
loop_
_atom_site_type_symbol
_atom_site_label
_atom_site_fract_x
_atom_site_fract_y
_atom_site_fract_z
Si Si1 0.843650 0.205918 0.225365
Si Si2 0.153859 0.290150 0.941455
Si Si3 0.000000 0.000000 0.602823
Si Si4 0.272131 0.702323 0.640918
Si Si5 0.167775 0.798885 0.661231
Si Si6 0.052034 0.293227 0.756800
Si Si7 0.431738 0.199404 0.862750
Si Si8 0.050943 0.706869 0.061232
O O1 0.806754 0.277082 0.184557
O O2 0.832225 0.273560 0.281449
O O3 0.899755 0.234538 0.216131
O O4 0.836489 0.000000 0.225862
O O5 0.153522 0.500000 0.939209
O O6 0.197495 0.223082 0.909511
O O7 0.102222 0.227358 0.921109
O O8 0.157570 0.240733 0.000000
O O9 0.958996 0.845353 0.606312
O O10 0.263941 0.500000 0.650747
O O11 0.220413 0.785259 0.639654
O O12 0.125119 0.709808 0.631454
O O13 0.154093 0.000000 0.664697
O O14 0.051055 0.500000 0.761863
O O15 0.057832 0.256159 0.696729
O O16 0.000000 0.225649 0.772966
O O17 0.446457 0.000000 0.871007
O O18 0.050343 0.500000 0.071127
O O19 0.000000 0.777629 0.079449
O O20 0.051483 0.725453 0.000000
#
# Coordination Sequence:
#
# PCOD9518852 Si02
#       8
#    16  16   4  16  16  16  16  16
#     4   9  20  33  48  68  94 130 173 210 253 312
#     4   9  18  33  53  75  96 124 165 209 258 316
#     4  12  18  28  48  74 104 140 179 210 259 316
#     4  11  22  35  49  70  99 132 167 212 262 309
#     4  10  19  34  53  73  96 133 178 216 260 308
#     4   9  17  28  44  66  92 124 165 215 264 305
#     4  10  19  30  46  73 103 134 176 220 259 306
#     4   7  10  20  42  70  93 112 144 197 257 310
#
# _framework density 20.162227000000001
#
# number of rings (size 3 to 8) (size 9 to 14) (size 15 to 20)
#    0.000    2.621    1.379    2.690    0.966    2.207 
#    0.000    0.690    0.000    2.897    0.000    1.931 
#    0.000    0.000    0.000    1.241    0.138    5.310 
#
# Total GULP energy -322872.531480 kJ/mol
# GULP energy per Si atom -5566.767784 kJ/mol
# Density = 2.011634 g / cm^3
# Si number density = 20.162227 Si / 1000 Ang^3
#
#
#
# Elastic Constant Matrix: (Units=GPa)
#
#
# Indices 1 2 3 4 5 6 
#
# 1 181.3916 14.7184 24.3023 0.0000 0.0000 0.0000
# 2 14.7184 60.8403 0.7688 0.0000 0.0000 0.0000
# 3 24.3023 0.7688 13.3956 0.0000 0.0000 0.0000
# 4 0.0000 0.0000 0.0000 8.8711 0.0000 0.0000
# 5 0.0000 0.0000 0.0000 0.0000 120.3844 0.0000
# 6 0.0000 0.0000 0.0000 0.0000 0.0000 4.6702
#
#
#
# Elastic Compliance Matrix: (Units=1/GPa)
#
#
# Indices 1 2 3 4 5 6 
#
# 1 0.007441 -0.001631 -0.013407 0.000000 0.000000 0.000000
# 2 -0.001631 0.016806 0.001994 0.000000 0.000000 0.000000
# 3 -0.013407 0.001994 0.098859 0.000000 0.000000 0.000000
# 4 0.000000 0.000000 0.000000 0.112726 0.000000 0.000000
# 5 0.000000 0.000000 0.000000 0.000000 0.008307 0.000000
# 6 0.000000 0.000000 0.000000 0.000000 0.000000 0.214123
#
#
# Mechanical properties :
#
#
# Convention : Reuss Voigt Hill
#
# Bulk Modulus (GPa) = 10.30718 37.24516 23.77617
# Shear Modulus (GPa) = 9.67701 41.17433 25.42567
#
# Velocity S-wave (km/s) = 2.19317 4.52392 3.55499
# Velocity P-wave (km/s) = 3.39655 6.76762 5.35431
#
# Compressibility (1/GPa) = 0.09701972
#
# Stress axis : x y z
#
# Youngs Moduli (GPa) = 134.38238 59.50326 10.11540
#
# Poissons Ratio (x) = 0.09704 0.13561
# Poissons Ratio (y) = 0.21915 -0.02017
# Poissons Ratio (z) = 1.80162 -0.11866
#
# Static dielectric constant tensor:
#      x y z
#    x 1.750400 0.000000 0.000000 
#    y 0.000000 1.744210 0.000000 
#    z 0.000000 0.000000 1.711250 
# 
# From -- ./inp_files/71033.got.cif
#   From: 2010.05.17/outbox.cif.g08.bks.cpg/sg71_36_cif.got.tgz:71033.got - 2010.06.03 16:22:01.
