data_PCOD9518742
_publ_section_title
;
Structure prediction by ZEFSAII (Michael W. Deem and Ramdas Pophale) SiO2 
 PCOD9518742
Probable space group: I M M M
;
_chemical_formula_sum "Si O2"
_cell_formula_units_Z 120
_cell_length_a 17.641300
_cell_length_b 18.038079
_cell_length_c 19.922477
_cell_angle_alpha 90.000000
_cell_angle_beta 90.000000
_cell_angle_gamma 90.000000
_cell_volume 6339.634267
_symmetry_space_group_name_H-M "I M M M"
_symmetry_group_IT_number 71
_symmetry_cell_setting 'orthorhombic'
loop_
_space_group_symop_operation_xyz
x,y,z
-x,-y,z
x,-y,-z
-x,y,-z
-x,-y,-z
x,y,-z
-x,y,z
x,-y,z
1/2+x,1/2+y,1/2+z
1/2-x,1/2-y,1/2+z
1/2+x,1/2-y,1/2-z
1/2-x,1/2+y,1/2-z
1/2-x,1/2-y,1/2-z
1/2+x,1/2+y,1/2-z
1/2-x,1/2+y,1/2+z
1/2+x,1/2-y,1/2+z
loop_
_atom_site_type_symbol
_atom_site_label
_atom_site_fract_x
_atom_site_fract_y
_atom_site_fract_z
Si Si1 0.179965 0.584134 0.339294
Si Si2 0.348350 0.637846 0.834859
Si Si3 0.862874 0.913561 0.186885
Si Si4 0.408761 0.500000 0.079054
Si Si5 0.362985 0.295360 0.423200
Si Si6 0.185093 0.415316 0.804924
Si Si7 0.912786 0.370978 0.926223
Si Si8 0.681004 0.224062 0.078359
O O1 0.158649 0.500000 0.355712
O O2 0.271276 0.585511 0.325759
O O3 0.148638 0.606716 0.266007
O O4 0.159224 0.642545 0.395801
O O5 0.380277 0.621327 0.760166
O O6 0.375768 0.572008 0.883407
O O7 0.258140 0.632199 0.822768
O O8 0.357833 0.715332 0.873376
O O9 0.889648 0.857829 0.128783
O O10 0.887652 0.000000 0.183992
O O11 0.500000 0.500000 0.084661
O O12 0.388859 0.500000 0.000000
O O13 0.372222 0.321439 0.500000
O O14 0.405468 0.217426 0.415461
O O15 0.273238 0.275924 0.414371
O O16 0.211953 0.500000 0.795953
O O17 0.129303 0.410570 0.866526
O O18 0.000000 0.392206 0.927034
O O19 0.878955 0.386795 0.000000
O O20 0.664048 0.237173 0.000000
#
# Coordination Sequence:
#
# PCOD9518742 Si02
#       8
#    16  16  16   8  16  16  16  16
#     4   8  17  31  49  76 108 137 169 217 271 316
#     4  11  19  34  55  80 106 134 178 223 258 312
#     4   9  17  30  51  76 102 137 179 218 265 310
#     4  11  24  40  56  76 110 148 170 208 276 323
#     4   9  18  31  49  75 105 138 177 220 264 310
#     4  10  19  33  54  78 100 136 181 218 257 308
#     4  10  21  35  49  71 107 143 175 217 267 312
#     4  10  19  29  50  82 106 134 178 221 262 314
#
# _framework density 18.928536000000001
#
# number of rings (size 3 to 8) (size 9 to 14) (size 15 to 20)
#    0.000    2.333    2.667    1.200    1.867    3.200 
#    0.000    4.000    0.000    0.000    0.000    1.867 
#    0.000    0.000    0.000    5.733    0.000    2.133 
#
# Total GULP energy -334415.757097 kJ/mol
# GULP energy per Si atom -5573.595952 kJ/mol
# Density = 1.888545 g / cm^3
# Si number density = 18.928536 Si / 1000 Ang^3
#
#
#
# Elastic Constant Matrix: (Units=GPa)
#
#
# Indices 1 2 3 4 5 6 
#
# 1 3.2389 -0.6831 2.4186 0.0000 0.0000 0.0000
# 2 -0.6831 87.0308 50.2496 0.0000 0.0000 0.0000
# 3 2.4186 50.2496 98.4784 0.0000 0.0000 0.0000
# 4 0.0000 0.0000 0.0000 34.8025 0.0000 0.0000
# 5 0.0000 0.0000 0.0000 0.0000 7.4297 0.0000
# 6 0.0000 0.0000 0.0000 0.0000 0.0000 -4.0885
#
#
#
# Elastic Compliance Matrix: (Units=1/GPa)
#
#
# Indices 1 2 3 4 5 6 
#
# 1 0.320554 0.010011 -0.012981 0.000000 0.000000 0.000000
# 2 0.010011 0.016602 -0.008717 0.000000 0.000000 0.000000
# 3 -0.012981 -0.008717 0.014921 0.000000 0.000000 0.000000
# 4 0.000000 0.000000 0.000000 0.028734 0.000000 0.000000
# 5 0.000000 0.000000 0.000000 0.000000 0.134595 0.000000
# 6 0.000000 0.000000 0.000000 0.000000 0.000000 -0.244587
#
#
# Mechanical properties :
#
#
# Convention : Reuss Voigt Hill
#
# Bulk Modulus (GPa) = 3.04226 32.52425 17.78326
# Shear Modulus (GPa) = 12.38359 16.74627 14.56493
#
# Velocity S-wave (km/s) = 2.56056 2.97763 2.77694
# Velocity P-wave (km/s) = 3.21756 5.38904 4.43815
#
# Compressibility (1/GPa) = 0.32870292
#
# Stress axis : x y z
#
# Youngs Moduli (GPa) = 3.11960 60.23434 67.01821
#
# Poissons Ratio (x) = -0.60299 0.86995
# Poissons Ratio (y) = -0.03123 0.58421
# Poissons Ratio (z) = 0.04049 0.52507
#
# Static dielectric constant tensor:
#      x y z
#    x 1.653020 0.000000 0.000000 
#    y 0.000000 1.660690 0.000000 
#    z 0.000000 0.000000 1.681770 
# 
# From -- ./inp_files/46507.got.cif
#   From: 2010.05.17/outbox.cif.g08.bks.cpg/sg71_24_cif.got.tgz:46507.got - 2010.06.03 16:22:01.
