data_PCOD9518129
_publ_section_title
;
Structure prediction by ZEFSAII (Michael W. Deem and Ramdas Pophale) SiO2 
 PCOD9518129
Probable space group: I M M M
;
_chemical_formula_sum "Si O2"
_cell_formula_units_Z 96
_cell_length_a 7.226314
_cell_length_b 19.643048
_cell_length_c 29.839808
_cell_angle_alpha 90.000000
_cell_angle_beta 90.000000
_cell_angle_gamma 90.000000
_cell_volume 4235.666236
_symmetry_space_group_name_H-M "I M M M"
_symmetry_group_IT_number 71
_symmetry_cell_setting 'orthorhombic'
loop_
_space_group_symop_operation_xyz
x,y,z
-x,-y,z
x,-y,-z
-x,y,-z
-x,-y,-z
x,y,-z
-x,y,z
x,-y,z
1/2+x,1/2+y,1/2+z
1/2-x,1/2-y,1/2+z
1/2+x,1/2-y,1/2-z
1/2-x,1/2+y,1/2-z
1/2-x,1/2-y,1/2-z
1/2+x,1/2+y,1/2-z
1/2-x,1/2+y,1/2+z
1/2+x,1/2-y,1/2+z
loop_
_atom_site_type_symbol
_atom_site_label
_atom_site_fract_x
_atom_site_fract_y
_atom_site_fract_z
Si Si1 0.782560 0.422118 0.277533
Si Si2 0.224444 0.222792 0.050584
Si Si3 0.723656 0.187545 0.295501
Si Si4 0.275976 0.070200 0.640490
Si Si5 0.224734 0.382278 0.952024
Si Si6 0.278284 0.318722 0.349765
O O1 0.711406 0.500000 0.273514
O O2 0.709162 0.360777 0.245451
O O3 0.763208 0.391367 0.327361
O O4 0.000000 0.426524 0.266173
O O5 0.273480 0.302841 0.052938
O O6 0.285302 0.190826 0.098475
O O7 0.000000 0.218477 0.050284
O O8 0.282721 0.198800 0.000000
O O9 0.500000 0.194025 0.289955
O O10 0.775002 0.139103 0.336366
O O11 0.788918 0.261106 0.313585
O O12 0.500000 0.069885 0.641820
O O13 0.213800 0.074884 0.589827
O O14 0.214642 0.000000 0.662582
O O15 0.000000 0.384095 0.951609
O O16 0.286919 0.407271 0.000000
O O17 0.500000 0.310085 0.351493
#
# Coordination Sequence:
#
# PCOD9518129 Si02
#       6
#    16  16  16  16  16  16
#     4  10  21  35  49  67  96 130 158 190 237 286
#     4   8  13  23  41  66  94 120 147 185 234 280
#     4   9  16  28  44  65  90 120 159 194 226 268
#     4   9  14  19  30  50  81 121 158 187 217 263
#     4   8  12  18  28  46  78 117 151 182 220 266
#     4  10  18  30  52  76  95 120 158 199 231 269
#
# _framework density 22.664674999999999
#
# number of rings (size 3 to 8) (size 9 to 14) (size 15 to 20)
#    0.000    3.000    1.667    2.000    0.000    2.667 
#    0.000    1.667    0.000    1.000    0.000    3.500 
#    0.000    0.000    0.000    0.000    0.000    5.333 
#
# Total GULP energy -267371.671295 kJ/mol
# GULP energy per Si atom -5570.243152 kJ/mol
# Density = 2.261309 g / cm^3
# Si number density = 22.664675 Si / 1000 Ang^3
#
#
#
# Elastic Constant Matrix: (Units=GPa)
#
#
# Indices 1 2 3 4 5 6 
#
# 1 106.6957 -0.7125 -0.9176 0.0000 0.0000 0.0000
# 2 -0.7125 99.0468 87.7271 0.0000 0.0000 0.0000
# 3 -0.9176 87.7271 151.9637 0.0000 0.0000 0.0000
# 4 0.0000 0.0000 0.0000 526.1214 0.0000 0.0000
# 5 0.0000 0.0000 0.0000 0.0000 -22.7946 0.0000
# 6 0.0000 0.0000 0.0000 0.0000 0.0000 -11.7947
#
#
#
# Elastic Compliance Matrix: (Units=1/GPa)
#
#
# Indices 1 2 3 4 5 6 
#
# 1 0.009373 0.000035 0.000036 0.000000 0.000000 0.000000
# 2 0.000035 0.020660 -0.011927 0.000000 0.000000 0.000000
# 3 0.000036 -0.011927 0.013466 0.000000 0.000000 0.000000
# 4 0.000000 0.000000 0.000000 0.001901 0.000000 0.000000
# 5 0.000000 0.000000 0.000000 0.000000 -0.043870 0.000000
# 6 0.000000 0.000000 0.000000 0.000000 0.000000 -0.084784
#
#
# Mechanical properties :
#
#
# Convention : Reuss Voigt Hill
#
# Bulk Modulus (GPa) = 50.53368 58.87779 54.70574
# Shear Modulus (GPa) = -94.43277 116.41371 10.99047
#
# Velocity S-wave (km/s) = -6.46186 7.17461 2.20447
# Velocity P-wave (km/s) = 5.77317 9.72972 5.53796
#
# Compressibility (1/GPa) = 0.01978878
#
# Stress axis : x y z
#
# Youngs Moduli (GPa) = 106.68943 48.40258 74.26190
#
# Poissons Ratio (x) = -0.00171 -0.00269
# Poissons Ratio (y) = -0.00378 0.88569
# Poissons Ratio (z) = -0.00386 0.57728
#
# Static dielectric constant tensor:
#      x y z
#    x 1.868450 0.000000 0.000000 
#    y 0.000000 1.787380 0.000000 
#    z 0.000000 0.000000 1.894390 
# 
# From -- ./inp_files/43723.got.cif
#   From: 2010.05.17/outbox.cif.g08.bks.cpg/sg71_22_cif.got.tgz:43723.got - 2010.06.03 16:22:01.
