data_PCOD9518987
_publ_section_title
;
Structure prediction by ZEFSAII (Michael W. Deem and Ramdas Pophale) SiO2 
 PCOD9518987
Probable space group: I M M M
;
_chemical_formula_sum "Si O2"
_cell_formula_units_Z 104
_cell_length_a 9.229088
_cell_length_b 27.674869
_cell_length_c 33.183313
_cell_angle_alpha 90.000000
_cell_angle_beta 90.000000
_cell_angle_gamma 90.000000
_cell_volume 8475.476116
_symmetry_space_group_name_H-M "I M M M"
_symmetry_group_IT_number 71
_symmetry_cell_setting 'orthorhombic'
loop_
_space_group_symop_operation_xyz
x,y,z
-x,-y,z
x,-y,-z
-x,y,-z
-x,-y,-z
x,y,-z
-x,y,z
x,-y,z
1/2+x,1/2+y,1/2+z
1/2-x,1/2-y,1/2+z
1/2+x,1/2-y,1/2-z
1/2-x,1/2+y,1/2-z
1/2-x,1/2-y,1/2-z
1/2+x,1/2+y,1/2-z
1/2-x,1/2+y,1/2+z
1/2+x,1/2-y,1/2+z
loop_
_atom_site_type_symbol
_atom_site_label
_atom_site_fract_x
_atom_site_fract_y
_atom_site_fract_z
Si Si1 0.827170 0.908295 0.087381
Si Si2 0.332500 0.675859 0.734801
Si Si3 0.827522 0.804165 0.953317
Si Si4 0.328568 0.000000 0.951766
Si Si5 0.833526 0.259801 0.380435
Si Si6 0.832702 0.634182 0.338084
Si Si7 0.167257 0.718003 0.807825
O O1 0.802211 0.859265 0.061551
O O2 0.748367 0.952907 0.066423
O O3 0.758223 0.898637 0.131244
O O4 0.000000 0.915808 0.089986
O O5 0.500000 0.661529 0.739090
O O6 0.244843 0.641113 0.704781
O O7 0.254144 0.683567 0.777426
O O8 0.331898 0.728854 0.713362
O O9 0.742299 0.769222 0.923125
O O10 0.000000 0.795647 0.949373
O O11 0.786440 0.799104 0.000000
O O12 0.500000 0.000000 0.942384
O O13 0.312301 0.000000 0.000000
O O14 0.833330 0.312415 0.358533
O O15 0.745029 0.225116 0.350603
O O16 0.000000 0.244593 0.384531
O O17 0.000000 0.618816 0.334457
O O18 0.000000 0.703587 0.811977
#
# Coordination Sequence:
#
# PCOD9518987 Si02
#       7
#    16  16  16   8  16  16  16
#     4  10  19  31  45  57  68  83 104 131 164 203
#     4   9  15  22  33  49  67  86 107 127 147 177
#     4   9  17  28  40  52  65  82 105 133 165 201
#     4  11  23  35  45  57  71  85 103 131 169 211
#     4   9  16  24  34  48  65  84 105 129 156 187
#     4   9  16  26  38  52  69  86 103 124 153 189
#     4   9  15  22  32  46  65  87 107 127 151 179
#
# _framework density 12.270697999999999
#
# number of rings (size 3 to 8) (size 9 to 14) (size 15 to 20)
#    0.000    2.692    0.000    3.000    0.000    9.538 
#    0.000    0.000    0.000    0.000    0.000    0.000 
#    0.000    0.000    0.000    0.000    0.000    0.000 
#
# Total GULP energy -289682.218830 kJ/mol
# GULP energy per Si atom -5570.811901 kJ/mol
# Density = 1.224277 g / cm^3
# Si number density = 12.270698 Si / 1000 Ang^3
#
#
#
# Elastic Constant Matrix: (Units=GPa)
#
#
# Indices 1 2 3 4 5 6 
#
# 1 114.3716 28.5094 78.6241 0.0000 0.0000 0.0000
# 2 28.5094 17.3152 34.9259 0.0000 0.0000 0.0000
# 3 78.6241 34.9259 114.5574 0.0000 0.0000 0.0000
# 4 0.0000 0.0000 0.0000 17.6605 0.0000 0.0000
# 5 0.0000 0.0000 0.0000 0.0000 23.0332 0.0000
# 6 0.0000 0.0000 0.0000 0.0000 0.0000 12.5123
#
#
#
# Elastic Compliance Matrix: (Units=1/GPa)
#
#
# Indices 1 2 3 4 5 6 
#
# 1 0.017446 -0.011877 -0.008353 0.000000 0.000000 0.000000
# 2 -0.011877 0.158076 -0.040042 0.000000 0.000000 0.000000
# 3 -0.008353 -0.040042 0.026670 0.000000 0.000000 0.000000
# 4 0.000000 0.000000 0.000000 0.056624 0.000000 0.000000
# 5 0.000000 0.000000 0.000000 0.000000 0.043416 0.000000
# 6 0.000000 0.000000 0.000000 0.000000 0.000000 0.079921
#
#
# Mechanical properties :
#
#
# Convention : Reuss Voigt Hill
#
# Bulk Modulus (GPa) = 12.24767 58.92923 35.58845
# Shear Modulus (GPa) = 9.43553 17.58685 13.51119
#
# Velocity S-wave (km/s) = 2.77600 3.78992 3.32187
# Velocity P-wave (km/s) = 4.50309 8.20244 6.61656
#
# Compressibility (1/GPa) = 0.08164821
#
# Stress axis : x y z
#
# Youngs Moduli (GPa) = 57.31984 6.32608 37.49531
#
# Poissons Ratio (x) = 0.07513 0.31319
# Poissons Ratio (y) = 0.68077 1.50140
# Poissons Ratio (z) = 0.47878 0.25331
#
# Static dielectric constant tensor:
#      x y z
#    x 1.411350 0.000000 0.000000 
#    y 0.000000 1.364020 0.000000 
#    z 0.000000 0.000000 1.394850 
# 
# From -- ./inp_files/15761.got.cif
#   From: 2010.05.17/outbox.cif.g08.bks.cpg/sg71_8_cif.got.tgz:15761.got - 2010.06.03 16:22:01.
