data_PCOD9518340
_publ_section_title
;
Structure prediction by ZEFSAII (Michael W. Deem and Ramdas Pophale) SiO2 
 PCOD9518340
Probable space group: I M M M
;
_chemical_formula_sum "Si O2"
_cell_formula_units_Z 56
_cell_length_a 38.363929
_cell_length_b 7.503419
_cell_length_c 10.697578
_cell_angle_alpha 90.000000
_cell_angle_beta 90.000000
_cell_angle_gamma 90.000000
_cell_volume 3079.411583
_symmetry_space_group_name_H-M "I M M M"
_symmetry_group_IT_number 71
_symmetry_cell_setting 'orthorhombic'
loop_
_space_group_symop_operation_xyz
x,y,z
-x,-y,z
x,-y,-z
-x,y,-z
-x,-y,-z
x,y,-z
-x,y,z
x,-y,z
1/2+x,1/2+y,1/2+z
1/2-x,1/2-y,1/2+z
1/2+x,1/2-y,1/2-z
1/2-x,1/2+y,1/2-z
1/2-x,1/2-y,1/2-z
1/2+x,1/2+y,1/2-z
1/2-x,1/2+y,1/2+z
1/2+x,1/2-y,1/2+z
loop_
_atom_site_type_symbol
_atom_site_label
_atom_site_fract_x
_atom_site_fract_y
_atom_site_fract_z
Si Si1 0.039633 0.000000 0.151800
Si Si2 0.171157 0.282016 0.240571
Si Si3 0.796567 0.712063 0.500000
Si Si4 0.785366 0.285585 0.000000
Si Si5 0.404616 0.209263 0.649959
O O1 0.062500 0.828182 0.187295
O O2 0.000000 0.000000 0.198246
O O3 0.037986 0.000000 0.000000
O O4 0.171930 0.500000 0.239512
O O5 0.186344 0.218884 0.372323
O O6 0.131151 0.232448 0.215684
O O7 0.195061 0.221847 0.124742
O O8 0.802610 0.500000 0.500000
O O9 0.755219 0.740565 0.500000
O O10 0.788162 0.500000 0.000000
O O11 0.399243 0.229102 0.500000
O O12 0.410451 0.000000 0.674194
#
# Coordination Sequence:
#
# PCOD9518340 Si02
#       5
#     8  16   8   8  16
#     4   9  18  30  46  77 111 127 157 211 253 299
#     4   9  17  31  49  65  92 129 165 205 246 297
#     4  10  20  32  44  68  96 121 163 214 254 291
#     4  10  18  32  48  64  92 127 161 204 256 303
#     4   9  16  30  50  70  95 134 170 197 247 303
#
# _framework density 18.185293000000001
#
# number of rings (size 3 to 8) (size 9 to 14) (size 15 to 20)
#    0.000    2.714    1.429    0.857    0.000    0.571 
#    5.143    2.857    0.000    0.000    0.000    2.000 
#    0.000    5.714    0.000    0.000    0.000    0.000 
#
# Total GULP energy -156228.700729 kJ/mol
# GULP energy per Si atom -5579.596455 kJ/mol
# Density = 1.814390 g / cm^3
# Si number density = 18.185293 Si / 1000 Ang^3
#
#
#
# Elastic Constant Matrix: (Units=GPa)
#
#
# Indices 1 2 3 4 5 6 
#
# 1 205.7885 50.5846 82.9928 0.0000 0.0000 0.0000
# 2 50.5846 63.0274 31.3491 0.0000 0.0000 0.0000
# 3 82.9928 31.3491 117.6506 0.0000 0.0000 0.0000
# 4 0.0000 0.0000 0.0000 -3.8706 0.0000 0.0000
# 5 0.0000 0.0000 0.0000 0.0000 -2.3368 0.0000
# 6 0.0000 0.0000 0.0000 0.0000 0.0000 27.9619
#
#
#
# Elastic Compliance Matrix: (Units=1/GPa)
#
#
# Indices 1 2 3 4 5 6 
#
# 1 0.007552 -0.003932 -0.004279 0.000000 0.000000 0.000000
# 2 -0.003932 0.020338 -0.002645 0.000000 0.000000 0.000000
# 3 -0.004279 -0.002645 0.012223 0.000000 0.000000 0.000000
# 4 0.000000 0.000000 0.000000 -0.258359 0.000000 0.000000
# 5 0.000000 0.000000 0.000000 0.000000 -0.427944 0.000000
# 6 0.000000 0.000000 0.000000 0.000000 0.000000 0.035763
#
#
# Mechanical properties :
#
#
# Convention : Reuss Voigt Hill
#
# Bulk Modulus (GPa) = 54.35067 79.59107 66.97087
# Shear Modulus (GPa) = -8.58251 19.12024 5.26886
#
# Velocity S-wave (km/s) = -2.17479 3.24607 1.70400
# Velocity P-wave (km/s) = 4.86269 7.60993 6.38579
#
# Compressibility (1/GPa) = 0.01839904
#
# Stress axis : x y z
#
# Youngs Moduli (GPa) = 132.41859 49.16923 81.81086
#
# Poissons Ratio (x) = 0.19336 0.35010
# Poissons Ratio (y) = 0.52073 0.21641
# Poissons Ratio (z) = 0.56666 0.13006
#
# Static dielectric constant tensor:
#      x y z
#    x 1.590240 0.000000 0.000000 
#    y 0.000000 1.664600 0.000000 
#    z 0.000000 0.000000 1.609000 
# 
# From -- ./inp_files/3592.got.cif
#   From: 2010.05.17/outbox.cif.g08.bks.cpg/sg71_2_cif.got.tgz:3592.got - 2010.06.03 16:22:01.
