data_PCOD9518009
_publ_section_title
;
Structure prediction by ZEFSAII (Michael W. Deem and Ramdas Pophale) SiO2 
 PCOD9518009
Probable space group: I M M M
;
_chemical_formula_sum "Si O2"
_cell_formula_units_Z 104
_cell_length_a 25.305921
_cell_length_b 8.285434
_cell_length_c 23.356435
_cell_angle_alpha 90.000000
_cell_angle_beta 90.000000
_cell_angle_gamma 90.000000
_cell_volume 4897.156298
_symmetry_space_group_name_H-M "I M M M"
_symmetry_group_IT_number 71
_symmetry_cell_setting 'orthorhombic'
loop_
_space_group_symop_operation_xyz
x,y,z
-x,-y,z
x,-y,-z
-x,y,-z
-x,-y,-z
x,y,-z
-x,y,z
x,-y,z
1/2+x,1/2+y,1/2+z
1/2-x,1/2-y,1/2+z
1/2+x,1/2-y,1/2-z
1/2-x,1/2+y,1/2-z
1/2-x,1/2-y,1/2-z
1/2+x,1/2+y,1/2-z
1/2-x,1/2+y,1/2+z
1/2+x,1/2-y,1/2+z
loop_
_atom_site_type_symbol
_atom_site_label
_atom_site_fract_x
_atom_site_fract_y
_atom_site_fract_z
Si Si1 0.719030 0.695260 0.064439
Si Si2 0.439006 0.802804 0.000000
Si Si3 0.385268 0.807760 0.116246
Si Si4 0.168555 0.316350 0.101459
Si Si5 0.806609 0.682510 0.764340
Si Si6 0.942030 0.694110 0.140899
Si Si7 0.414432 0.317206 0.765634
O O1 0.721069 0.500000 0.068294
O O2 0.676140 0.753744 0.110654
O O3 0.779325 0.757008 0.072479
O O4 0.701794 0.740930 0.000000
O O5 0.411611 0.744684 0.057935
O O6 0.500000 0.758257 0.000000
O O7 0.435816 0.000000 0.000000
O O8 0.419547 0.753884 0.170998
O O9 0.385463 0.000000 0.116026
O O10 0.162763 0.500000 0.078427
O O11 0.185789 0.326948 0.167706
O O12 0.109522 0.242370 0.106457
O O13 0.815000 0.500000 0.741530
O O14 0.750000 0.750000 0.750000
O O15 0.851356 0.801361 0.742128
O O16 0.940272 0.500000 0.135194
O O17 0.936252 0.729600 0.208972
O O18 0.000000 0.751965 0.122144
O O19 0.432738 0.500000 0.763947
#
# Coordination Sequence:
#
# PCOD9518009 Si02
#       7
#    16   8  16  16  16  16  16
#     4  10  19  32  53  79 110 144 177 219 276 334
#     4   9  20  38  57  75  97 131 176 225 272 320
#     4  11  21  36  56  78 104 137 182 229 273 323
#     4   8  16  30  48  73 102 135 175 215 260 321
#     4  10  18  30  48  72 104 140 177 215 262 319
#     4   9  18  35  57  77 101 138 183 227 273 328
#     4  11  22  34  50  75 107 138 173 218 269 326
#
# _framework density 21.236815
#
# number of rings (size 3 to 8) (size 9 to 14) (size 15 to 20)
#    0.000    2.231    0.769    4.154    0.000    2.154 
#    0.000    4.615    0.000    3.692    0.000    3.231 
#    0.000    0.000    0.000    6.923    0.000    7.692 
#
# Total GULP energy -289885.757799 kJ/mol
# GULP energy per Si atom -5574.726112 kJ/mol
# Density = 2.118848 g / cm^3
# Si number density = 21.236815 Si / 1000 Ang^3
#
#
#
# Elastic Constant Matrix: (Units=GPa)
#
#
# Indices 1 2 3 4 5 6 
#
# 1 112.8734 -1.9487 -11.0978 0.0000 0.0000 0.0000
# 2 -1.9487 30.3135 -2.1435 0.0000 0.0000 0.0000
# 3 -11.0978 -2.1435 34.5344 0.0000 0.0000 0.0000
# 4 0.0000 0.0000 0.0000 11.6967 0.0000 0.0000
# 5 0.0000 0.0000 0.0000 0.0000 19.8948 0.0000
# 6 0.0000 0.0000 0.0000 0.0000 0.0000 14.9312
#
#
#
# Elastic Compliance Matrix: (Units=1/GPa)
#
#
# Indices 1 2 3 4 5 6 
#
# 1 0.009168 0.000801 0.002996 0.000000 0.000000 0.000000
# 2 0.000801 0.033204 0.002318 0.000000 0.000000 0.000000
# 3 0.002996 0.002318 0.030063 0.000000 0.000000 0.000000
# 4 0.000000 0.000000 0.000000 0.085494 0.000000 0.000000
# 5 0.000000 0.000000 0.000000 0.000000 0.050264 0.000000
# 6 0.000000 0.000000 0.000000 0.000000 0.000000 0.066974
#
#
# Mechanical properties :
#
#
# Convention : Reuss Voigt Hill
#
# Bulk Modulus (GPa) = 11.81110 16.37127 14.09119
# Shear Modulus (GPa) = 17.17276 22.16529 19.66903
#
# Velocity S-wave (km/s) = 2.84673 3.23417 3.04662
# Velocity P-wave (km/s) = 4.04708 4.65533 4.36182
#
# Compressibility (1/GPa) = 0.08466609
#
# Stress axis : x y z
#
# Youngs Moduli (GPa) = 109.07663 30.11684 33.26317
#
# Poissons Ratio (x) = -0.02413 -0.09965
# Poissons Ratio (y) = -0.08739 -0.07712
# Poissons Ratio (z) = -0.32678 -0.06982
#
# Static dielectric constant tensor:
#      x y z
#    x 1.819310 0.000000 0.000000 
#    y 0.000000 1.757530 0.000000 
#    z 0.000000 0.000000 1.792940 
# 
# From -- ./inp_files/61933.got.cif
#   From: 2010.05.17/outbox.cif.g08.bks.cpg/sg71_31_cif.got.tgz:61933.got - 2010.06.03 16:22:01.
