data_PCOD9518146
_publ_section_title
;
Structure prediction by ZEFSAII (Michael W. Deem and Ramdas Pophale) SiO2 
 PCOD9518146
Probable space group: I M M M
;
_chemical_formula_sum "Si O2"
_cell_formula_units_Z 80
_cell_length_a 22.249577
_cell_length_b 7.869692
_cell_length_c 22.470090
_cell_angle_alpha 90.000000
_cell_angle_beta 90.000000
_cell_angle_gamma 90.000000
_cell_volume 3934.452497
_symmetry_space_group_name_H-M "I M M M"
_symmetry_group_IT_number 71
_symmetry_cell_setting 'orthorhombic'
loop_
_space_group_symop_operation_xyz
x,y,z
-x,-y,z
x,-y,-z
-x,y,-z
-x,-y,-z
x,y,-z
-x,y,z
x,-y,z
1/2+x,1/2+y,1/2+z
1/2-x,1/2-y,1/2+z
1/2+x,1/2-y,1/2-z
1/2-x,1/2+y,1/2-z
1/2-x,1/2-y,1/2-z
1/2+x,1/2+y,1/2-z
1/2-x,1/2+y,1/2+z
1/2+x,1/2-y,1/2+z
loop_
_atom_site_type_symbol
_atom_site_label
_atom_site_fract_x
_atom_site_fract_y
_atom_site_fract_z
Si Si1 0.680098 0.293747 0.736593
Si Si2 0.931176 0.791420 0.000000
Si Si3 0.000000 0.699407 0.432024
Si Si4 0.790823 0.297314 0.432921
Si Si5 0.343180 0.293823 0.397068
Si Si6 0.609279 0.309247 0.152063
O O1 0.677792 0.500000 0.737827
O O2 0.750000 0.250000 0.750000
O O3 0.660482 0.234587 0.671003
O O4 0.633069 0.228167 0.786370
O O5 0.895594 0.734767 0.059107
O O6 0.000000 0.737752 0.000000
O O7 0.929909 0.000000 0.000000
O O8 0.057881 0.738727 0.391135
O O9 0.000000 0.500000 0.440374
O O10 0.000000 0.775431 0.500000
O O11 0.811458 0.267125 0.500000
O O12 0.797410 0.500000 0.420473
O O13 0.721074 0.254668 0.426367
O O14 0.830567 0.195610 0.387183
O O15 0.347404 0.500000 0.394895
O O16 0.589726 0.500000 0.166311
#
# Coordination Sequence:
#
# PCOD9518146 Si02
#       6
#    16   8   8  16  16  16
#     4  10  20  34  54  81 114 149 184 226 281 338
#     4   9  16  28  48  78 109 140 183 232 279 319
#     4  11  25  45  65  83 107 150 201 236 280 345
#     4  10  18  30  53  80 107 143 189 235 282 335
#     4   9  16  29  48  74 109 145 179 226 278 323
#     4  11  23  37  55  83 117 150 185 232 292 343
#
# _framework density 20.333197999999999
#
# number of rings (size 3 to 8) (size 9 to 14) (size 15 to 20)
#    0.000    2.000    3.000    1.500    0.000    4.400 
#    1.800    0.000    0.000    0.000    0.000    0.000 
#    0.000    3.200    0.000    0.000    0.000    0.000 
#
# Total GULP energy -223073.083850 kJ/mol
# GULP energy per Si atom -5576.827096 kJ/mol
# Density = 2.028692 g / cm^3
# Si number density = 20.333198 Si / 1000 Ang^3
#
#
#
# Elastic Constant Matrix: (Units=GPa)
#
#
# Indices 1 2 3 4 5 6 
#
# 1 122.4353 2.2332 75.4344 0.0000 0.0000 0.0000
# 2 2.2332 16.8713 13.1055 0.0000 0.0000 0.0000
# 3 75.4344 13.1055 175.1300 0.0000 0.0000 0.0000
# 4 0.0000 0.0000 0.0000 10.1036 0.0000 0.0000
# 5 0.0000 0.0000 0.0000 0.0000 -28.4024 0.0000
# 6 0.0000 0.0000 0.0000 0.0000 0.0000 236.9838
#
#
#
# Elastic Compliance Matrix: (Units=1/GPa)
#
#
# Indices 1 2 3 4 5 6 
#
# 1 0.011209 0.002407 -0.005008 0.000000 0.000000 0.000000
# 2 0.002407 0.063447 -0.005785 0.000000 0.000000 0.000000
# 3 -0.005008 -0.005785 0.008300 0.000000 0.000000 0.000000
# 4 0.000000 0.000000 0.000000 0.098974 0.000000 0.000000
# 5 0.000000 0.000000 0.000000 0.000000 -0.035208 0.000000
# 6 0.000000 0.000000 0.000000 0.000000 0.000000 0.004220
#
#
# Mechanical properties :
#
#
# Convention : Reuss Voigt Hill
#
# Bulk Modulus (GPa) = 15.10929 55.10918 35.10924
# Shear Modulus (GPa) = 26.34679 58.64791 42.49735
#
# Velocity S-wave (km/s) = 3.60356 5.37643 4.57666
# Velocity P-wave (km/s) = 4.97606 8.10576 6.72549
#
# Compressibility (1/GPa) = 0.06618443
#
# Stress axis : x y z
#
# Youngs Moduli (GPa) = 89.21058 15.76111 120.47890
#
# Poissons Ratio (x) = -0.03793 0.60341
# Poissons Ratio (y) = -0.21471 0.69692
# Poissons Ratio (z) = 0.44680 0.09117
#
# Static dielectric constant tensor:
#      x y z
#    x 1.692330 0.000000 0.000000 
#    y 0.000000 1.780440 0.000000 
#    z 0.000000 0.000000 1.760980 
# 
# From -- ./inp_files/10276.got.cif
#   From: 2010.05.17/outbox.cif.g08.bks.cpg/sg71_6_cif.got.tgz:10276.got - 2010.06.03 16:22:01.
