data_PCOD9518523
_publ_section_title
;
Structure prediction by ZEFSAII (Michael W. Deem and Ramdas Pophale) SiO2 
 PCOD9518523
Probable space group: I M M M
;
_chemical_formula_sum "Si O2"
_cell_formula_units_Z 100
_cell_length_a 23.191148
_cell_length_b 29.828043
_cell_length_c 7.535275
_cell_angle_alpha 90.000000
_cell_angle_beta 90.000000
_cell_angle_gamma 90.000000
_cell_volume 5212.500558
_symmetry_space_group_name_H-M "I M M M"
_symmetry_group_IT_number 71
_symmetry_cell_setting 'orthorhombic'
loop_
_space_group_symop_operation_xyz
x,y,z
-x,-y,z
x,-y,-z
-x,y,-z
-x,-y,-z
x,y,-z
-x,y,z
x,-y,z
1/2+x,1/2+y,1/2+z
1/2-x,1/2-y,1/2+z
1/2+x,1/2-y,1/2-z
1/2-x,1/2+y,1/2-z
1/2-x,1/2-y,1/2-z
1/2+x,1/2+y,1/2-z
1/2-x,1/2+y,1/2+z
1/2+x,1/2-y,1/2+z
loop_
_atom_site_type_symbol
_atom_site_label
_atom_site_fract_x
_atom_site_fract_y
_atom_site_fract_z
Si Si1 0.322721 0.900005 0.283077
Si Si2 0.599435 0.380996 0.697055
Si Si3 0.173013 0.796588 0.293707
Si Si4 0.937759 0.447912 0.216207
Si Si5 0.194741 0.700416 0.214520
Si Si6 0.203929 0.947869 0.715175
Si Si7 0.500000 0.614786 0.000000
O O1 0.321520 0.901222 0.500000
O O2 0.380074 0.924549 0.220829
O O3 0.326718 0.848197 0.231223
O O4 0.263546 0.924085 0.226249
O O5 0.575627 0.386982 0.500000
O O6 0.630437 0.332178 0.708149
O O7 0.649836 0.417919 0.726201
O O8 0.550844 0.384808 0.845429
O O9 0.175383 0.809686 0.500000
O O10 0.159790 0.743747 0.278803
O O11 0.238563 0.798514 0.222411
O O12 0.935868 0.500000 0.265085
O O13 0.000000 0.429215 0.273131
O O14 0.936922 0.446053 0.000000
O O15 0.195365 0.702927 0.000000
O O16 0.204021 0.947728 0.500000
O O17 0.201070 0.000000 0.771746
#
# Coordination Sequence:
#
# PCOD9518523 Si02
#       7
#    16  16  16  16  16  16   4
#     4   9  15  26  46  75 113 157 203 251 305 367
#     4  12  24  42  68  92 121 160 206 257 312 374
#     4  10  18  34  56  82 119 153 190 245 302 358
#     4   8  13  21  36  63 102 150 199 242 287 346
#     4   9  17  28  50  83 117 150 193 241 300 359
#     4  10  19  35  59  87 121 158 199 258 327 380
#     4  12  26  48  69  92 124 162 212 250 303 380
#
# _framework density 19.184650000000001
#
# number of rings (size 3 to 8) (size 9 to 14) (size 15 to 20)
#    0.000    2.240    3.200    1.680    0.000    2.880 
#    0.000    0.800    1.760    0.960    0.000    0.000 
#    0.000    0.640    0.000    8.800    0.000    8.000 
#
# Total GULP energy -278417.752205 kJ/mol
# GULP energy per Si atom -5568.355044 kJ/mol
# Density = 1.914098 g / cm^3
# Si number density = 19.184650 Si / 1000 Ang^3
#
#
#
# Elastic Constant Matrix: (Units=GPa)
#
#
# Indices 1 2 3 4 5 6 
#
# 1 142.8629 73.6405 31.5885 0.0000 0.0000 0.0000
# 2 73.6405 131.3612 16.8298 0.0000 0.0000 0.0000
# 3 31.5885 16.8298 92.6465 0.0000 0.0000 0.0000
# 4 0.0000 0.0000 0.0000 15.8829 0.0000 0.0000
# 5 0.0000 0.0000 0.0000 0.0000 -7.4763 0.0000
# 6 0.0000 0.0000 0.0000 0.0000 0.0000 8.4397
#
#
#
# Elastic Compliance Matrix: (Units=1/GPa)
#
#
# Indices 1 2 3 4 5 6 
#
# 1 0.010400 -0.005504 -0.002546 0.000000 0.000000 0.000000
# 2 -0.005504 0.010707 -0.000068 0.000000 0.000000 0.000000
# 3 -0.002546 -0.000068 0.011674 0.000000 0.000000 0.000000
# 4 0.000000 0.000000 0.000000 0.062961 0.000000 0.000000
# 5 0.000000 0.000000 0.000000 0.000000 -0.133757 0.000000
# 6 0.000000 0.000000 0.000000 0.000000 0.000000 0.118488
#
#
# Mechanical properties :
#
#
# Convention : Reuss Voigt Hill
#
# Bulk Modulus (GPa) = 60.44418 67.88759 64.16589
# Shear Modulus (GPa) = 48.91199 19.69004 34.30101
#
# Velocity S-wave (km/s) = 5.05477 3.20713 4.23299
# Velocity P-wave (km/s) = 8.10201 7.01267 7.57694
#
# Compressibility (1/GPa) = 0.01654419
#
# Stress axis : x y z
#
# Youngs Moduli (GPa) = 96.15668 93.39870 85.65875
#
# Poissons Ratio (x) = 0.51405 0.21809
# Poissons Ratio (y) = 0.52923 0.00586
# Poissons Ratio (z) = 0.24482 0.00639
#
# Static dielectric constant tensor:
#      x y z
#    x 1.637010 0.000000 0.000000 
#    y 0.000000 1.675000 0.000000 
#    z 0.000000 0.000000 1.727660 
# 
# From -- ./inp_files/11557.got.cif
#   From: 2010.05.17/outbox.cif.g08.bks.cpg/sg71_6_cif.got.tgz:11557.got - 2010.06.03 16:22:01.
