data_PCOD9518930
_publ_section_title
;
Structure prediction by ZEFSAII (Michael W. Deem and Ramdas Pophale) SiO2 
 PCOD9518930
Probable space group: I M M M
;
_chemical_formula_sum "Si O2"
_cell_formula_units_Z 120
_cell_length_a 17.846345
_cell_length_b 18.457101
_cell_length_c 18.337102
_cell_angle_alpha 90.000000
_cell_angle_beta 90.000000
_cell_angle_gamma 90.000000
_cell_volume 6040.090891
_symmetry_space_group_name_H-M "I M M M"
_symmetry_group_IT_number 71
_symmetry_cell_setting 'orthorhombic'
loop_
_space_group_symop_operation_xyz
x,y,z
-x,-y,z
x,-y,-z
-x,y,-z
-x,-y,-z
x,y,-z
-x,y,z
x,-y,z
1/2+x,1/2+y,1/2+z
1/2-x,1/2-y,1/2+z
1/2+x,1/2-y,1/2-z
1/2-x,1/2+y,1/2-z
1/2-x,1/2-y,1/2-z
1/2+x,1/2+y,1/2-z
1/2-x,1/2+y,1/2+z
1/2+x,1/2-y,1/2+z
loop_
_atom_site_type_symbol
_atom_site_label
_atom_site_fract_x
_atom_site_fract_y
_atom_site_fract_z
Si Si1 0.584345 0.084665 0.156685
Si Si2 0.689780 0.415835 0.416702
Si Si3 0.909594 0.081296 0.500000
Si Si4 0.414486 0.319689 0.862458
Si Si5 0.085621 0.588315 0.083987
Si Si6 0.861706 0.085295 0.759426
Si Si7 0.307293 0.912566 0.711082
Si Si8 0.170530 0.308560 0.580951
O O1 0.500000 0.095915 0.181795
O O2 0.640778 0.106945 0.220576
O O3 0.604837 0.132304 0.087777
O O4 0.594628 0.000000 0.141637
O O5 0.660331 0.409702 0.500000
O O6 0.718303 0.500000 0.409498
O O7 0.636583 0.405826 0.346896
O O8 0.754847 0.356109 0.408184
O O9 0.891087 0.124621 0.573352
O O10 0.000000 0.075888 0.500000
O O11 0.877793 0.000000 0.500000
O O12 0.500000 0.294338 0.878035
O O13 0.413787 0.362918 0.787085
O O14 0.355020 0.254703 0.865119
O O15 0.086548 0.500000 0.085343
O O16 0.150548 0.614672 0.138490
O O17 0.000000 0.609047 0.105426
O O18 0.097884 0.610327 0.000000
O O19 0.778042 0.105178 0.730109
O O20 0.875049 0.000000 0.743713
O O21 0.308509 0.000000 0.706515
O O22 0.173439 0.276879 0.500000
#
# Coordination Sequence:
#
# PCOD9518930 Si02
#       8
#    16  16   8  16  16  16  16  16
#     4  10  19  30  48  75 108 147 185 225 275 330
#     4   9  18  35  60  88 118 151 185 225 281 347
#     4   9  18  36  58  76 101 141 186 234 287 336
#     4  11  23  38  56  81 111 148 193 240 289 341
#     4   8  13  22  38  60  89 128 170 213 265 322
#     4  10  20  36  58  83 110 142 185 238 292 345
#     4   9  16  29  45  69 101 132 173 223 273 329
#     4  11  21  35  55  78 111 151 189 229 271 329
#
# _framework density 19.867251
#
# number of rings (size 3 to 8) (size 9 to 14) (size 15 to 20)
#    0.000    2.333    2.000    2.000    0.000    4.533 
#    1.200    0.667    0.000    0.400    0.000    1.867 
#    0.000    0.000    0.000    0.000    0.000    0.000 
#
# Total GULP energy -334292.986384 kJ/mol
# GULP energy per Si atom -5571.549773 kJ/mol
# Density = 1.982203 g / cm^3
# Si number density = 19.867251 Si / 1000 Ang^3
#
#
#
# Elastic Constant Matrix: (Units=GPa)
#
#
# Indices 1 2 3 4 5 6 
#
# 1 15.1310 4.5435 12.9729 0.0000 0.0000 0.0000
# 2 4.5435 54.9955 22.5318 0.0000 0.0000 0.0000
# 3 12.9729 22.5318 97.0913 0.0000 0.0000 0.0000
# 4 0.0000 0.0000 0.0000 21.6336 0.0000 0.0000
# 5 0.0000 0.0000 0.0000 0.0000 22.5768 0.0000
# 6 0.0000 0.0000 0.0000 0.0000 0.0000 10.2314
#
#
#
# Elastic Compliance Matrix: (Units=1/GPa)
#
#
# Indices 1 2 3 4 5 6 
#
# 1 0.074904 -0.002307 -0.009473 0.000000 0.000000 0.000000
# 2 -0.002307 0.020165 -0.004371 0.000000 0.000000 0.000000
# 3 -0.009473 -0.004371 0.012580 0.000000 0.000000 0.000000
# 4 0.000000 0.000000 0.000000 0.046224 0.000000 0.000000
# 5 0.000000 0.000000 0.000000 0.000000 0.044293 0.000000
# 6 0.000000 0.000000 0.000000 0.000000 0.000000 0.097739
#
#
# Mechanical properties :
#
#
# Convention : Reuss Voigt Hill
#
# Bulk Modulus (GPa) = 13.27215 27.47935 20.37575
# Shear Modulus (GPa) = 14.15135 19.36633 16.75884
#
# Velocity S-wave (km/s) = 2.67178 3.12554 2.90753
# Velocity P-wave (km/s) = 4.02651 5.18526 4.64218
#
# Compressibility (1/GPa) = 0.07534576
#
# Stress axis : x y z
#
# Youngs Moduli (GPa) = 13.35042 49.59118 79.49283
#
# Poissons Ratio (x) = 0.11442 0.75303
# Poissons Ratio (y) = 0.03080 0.34749
# Poissons Ratio (z) = 0.12647 0.21678
#
# Static dielectric constant tensor:
#      x y z
#    x 1.697440 0.000000 0.000000 
#    y 0.000000 1.707700 0.000000 
#    z 0.000000 0.000000 1.744440 
# 
# From -- ./inp_files/54341.got.cif
#   From: 2010.05.17/outbox.cif.g08.bks.cpg/sg71_28_cif.got.tgz:54341.got - 2010.06.03 16:22:01.
