data_PCOD9518034
_publ_section_title
;
Structure prediction by ZEFSAII (Michael W. Deem and Ramdas Pophale) SiO2 
 PCOD9518034
Probable space group: I M M M
;
_chemical_formula_sum "Si O2"
_cell_formula_units_Z 96
_cell_length_a 30.514338
_cell_length_b 17.126241
_cell_length_c 7.351886
_cell_angle_alpha 90.000000
_cell_angle_beta 90.000000
_cell_angle_gamma 90.000000
_cell_volume 3842.065529
_symmetry_space_group_name_H-M "I M M M"
_symmetry_group_IT_number 71
_symmetry_cell_setting 'orthorhombic'
loop_
_space_group_symop_operation_xyz
x,y,z
-x,-y,z
x,-y,-z
-x,y,-z
-x,-y,-z
x,y,-z
-x,y,z
x,-y,z
1/2+x,1/2+y,1/2+z
1/2-x,1/2-y,1/2+z
1/2+x,1/2-y,1/2-z
1/2-x,1/2+y,1/2-z
1/2-x,1/2-y,1/2-z
1/2+x,1/2+y,1/2-z
1/2-x,1/2+y,1/2+z
1/2+x,1/2-y,1/2+z
loop_
_atom_site_type_symbol
_atom_site_label
_atom_site_fract_x
_atom_site_fract_y
_atom_site_fract_z
Si Si1 0.123902 0.587222 0.221154
Si Si2 0.952149 0.301535 0.781853
Si Si3 0.195491 0.289821 0.782950
Si Si4 0.548756 0.379127 0.207649
Si Si5 0.739226 0.414641 0.222846
Si Si6 0.645837 0.628326 0.787054
O O1 0.122278 0.500000 0.288620
O O2 0.084410 0.640710 0.285292
O O3 0.167716 0.632620 0.264247
O O4 0.121386 0.584511 0.000000
O O5 0.950490 0.215140 0.703229
O O6 0.000000 0.335203 0.747921
O O7 0.946939 0.291130 0.000000
O O8 0.242204 0.328415 0.720843
O O9 0.164013 0.218367 0.721429
O O10 0.197246 0.281424 0.000000
O O11 0.500000 0.400222 0.285810
O O12 0.597595 0.393239 0.289258
O O13 0.548397 0.408189 0.000000
O O14 0.758592 0.500000 0.273823
O O15 0.688715 0.415120 0.283411
O O16 0.740901 0.412431 0.000000
O O17 0.641968 0.609992 0.000000
#
# Coordination Sequence:
#
# PCOD9518034 Si02
#       6
#    16  16  16  16  16  16
#     4   9  16  25  39  61  88 117 149 186 226 266
#     4   9  16  26  41  61  85 114 151 194 235 271
#     4  10  18  30  49  71  94 123 157 191 227 273
#     4   9  17  29  45  65  91 122 153 188 233 280
#     4   9  18  32  50  72  97 125 156 190 232 282
#     4  10  19  31  50  73  95 122 157 196 233 273
#
# _framework density 24.986560000000001
#
# number of rings (size 3 to 8) (size 9 to 14) (size 15 to 20)
#    0.000    2.667    1.667    1.000    0.000    2.333 
#    0.000    1.667    0.000    5.500    0.000    5.833 
#    0.000    0.000    0.000    5.667    0.000    6.000 
#
# Total GULP energy -267432.163671 kJ/mol
# GULP energy per Si atom -5571.503410 kJ/mol
# Density = 2.492969 g / cm^3
# Si number density = 24.986560 Si / 1000 Ang^3
#
#
#
# Elastic Constant Matrix: (Units=GPa)
#
#
# Indices 1 2 3 4 5 6 
#
# 1 127.2025 0.1249 11.3055 0.0000 0.0000 0.0000
# 2 0.1249 111.4246 -9.5462 0.0000 0.0000 0.0000
# 3 11.3055 -9.5462 84.4329 0.0000 0.0000 0.0000
# 4 0.0000 0.0000 0.0000 -21.3525 0.0000 0.0000
# 5 0.0000 0.0000 0.0000 0.0000 -4.5955 0.0000
# 6 0.0000 0.0000 0.0000 0.0000 0.0000 25.5219
#
#
#
# Elastic Compliance Matrix: (Units=1/GPa)
#
#
# Indices 1 2 3 4 5 6 
#
# 1 0.007957 -0.000101 -0.001077 0.000000 0.000000 0.000000
# 2 -0.000101 0.009064 0.001038 0.000000 0.000000 0.000000
# 3 -0.001077 0.001038 0.012105 0.000000 0.000000 0.000000
# 4 0.000000 0.000000 0.000000 -0.046833 0.000000 0.000000
# 5 0.000000 0.000000 0.000000 0.000000 -0.217606 0.000000
# 6 0.000000 0.000000 0.000000 0.000000 0.000000 0.039182
#
#
# Mechanical properties :
#
#
# Convention : Reuss Voigt Hill
#
# Bulk Modulus (GPa) = 34.66590 36.31428 35.49009
# Shear Modulus (GPa) = -26.84768 21.32651 -2.76059
#
# Velocity S-wave (km/s) = -3.28149 2.92467 -1.05225
# Velocity P-wave (km/s) = 0.67352 5.09608 3.57186
#
# Compressibility (1/GPa) = 0.02884679
#
# Stress axis : x y z
#
# Youngs Moduli (GPa) = 125.67081 110.32967 82.60835
#
# Poissons Ratio (x) = 0.01116 0.08896
# Poissons Ratio (y) = 0.01272 -0.08577
# Poissons Ratio (z) = 0.13534 -0.11456
#
# Static dielectric constant tensor:
#      x y z
#    x 2.097010 0.000000 0.000000 
#    y 0.000000 1.957940 0.000000 
#    z 0.000000 0.000000 2.005430 
# 
# From -- ./inp_files/28816.got.cif
#   From: 2010.05.17/outbox.cif.g08.bks.cpg/sg71_15_cif.got.tgz:28816.got - 2010.06.03 16:22:01.
