data_PCOD9518513
_publ_section_title
;
Structure prediction by ZEFSAII (Michael W. Deem and Ramdas Pophale) SiO2 
 PCOD9518513
Probable space group: I M M M
;
_chemical_formula_sum "Si O2"
_cell_formula_units_Z 104
_cell_length_a 18.765556
_cell_length_b 18.851188
_cell_length_c 18.290773
_cell_angle_alpha 90.000000
_cell_angle_beta 90.000000
_cell_angle_gamma 90.000000
_cell_volume 6470.416262
_symmetry_space_group_name_H-M "I M M M"
_symmetry_group_IT_number 71
_symmetry_cell_setting 'orthorhombic'
loop_
_space_group_symop_operation_xyz
x,y,z
-x,-y,z
x,-y,-z
-x,y,-z
-x,-y,-z
x,y,-z
-x,y,z
x,-y,z
1/2+x,1/2+y,1/2+z
1/2-x,1/2-y,1/2+z
1/2+x,1/2-y,1/2-z
1/2-x,1/2+y,1/2-z
1/2-x,1/2-y,1/2-z
1/2+x,1/2+y,1/2-z
1/2-x,1/2+y,1/2+z
1/2+x,1/2-y,1/2+z
loop_
_atom_site_type_symbol
_atom_site_label
_atom_site_fract_x
_atom_site_fract_y
_atom_site_fract_z
Si Si1 0.790788 0.214033 0.000000
Si Si2 0.416338 0.421742 0.730694
Si Si3 0.584050 0.083867 0.855831
Si Si4 0.636038 0.165940 0.000000
Si Si5 0.670873 0.703095 0.336486
Si Si6 0.325360 0.323499 0.000000
Si Si7 0.192671 0.345760 0.753996
Si Si8 0.305943 0.419390 0.139108
O O1 0.722486 0.160796 0.000000
O O2 0.830032 0.208094 0.923542
O O3 0.753704 0.290696 0.000000
O O4 0.500000 0.414059 0.742818
O O5 0.403539 0.500000 0.696651
O O6 0.384452 0.357091 0.685818
O O7 0.372142 0.420912 0.805461
O O8 0.500000 0.094005 0.840782
O O9 0.605012 0.129055 0.927805
O O10 0.633338 0.109510 0.788693
O O11 0.596000 0.000000 0.869547
O O12 0.626154 0.252085 0.000000
O O13 0.749566 0.679847 0.307071
O O14 0.659460 0.777217 0.294258
O O15 0.329187 0.370371 0.072134
O O16 0.239614 0.387621 0.814480
O O17 0.289901 0.500000 0.115919
#
# Coordination Sequence:
#
# PCOD9518513 Si02
#       8
#     8  16  16   8  16   8  16  16
#     4  10  18  35  52  77 109 135 170 220 268 302
#     4   9  20  37  54  77 108 141 177 221 271 317
#     4  11  23  37  53  77 111 145 179 219 262 317
#     4  10  20  36  52  73 109 151 171 216 264 306
#     4  10  19  33  57  77 104 139 176 226 260 316
#     4  10  19  34  53  80 112 140 177 219 257 314
#     4  10  18  34  54  81 104 135 183 218 266 310
#     4  10  19  33  57  81 109 142 174 218 268 317
#
# _framework density 16.073155
#
# number of rings (size 3 to 8) (size 9 to 14) (size 15 to 20)
#    0.462    1.538    3.077    1.154    4.308    1.846 
#    0.000    1.923    0.000    2.769    0.000    0.538 
#    0.000    3.692    0.000    0.000    0.000    0.000 
#
# Total GULP energy -289605.185229 kJ/mol
# GULP energy per Si atom -5569.330485 kJ/mol
# Density = 1.603657 g / cm^3
# Si number density = 16.073155 Si / 1000 Ang^3
#
#
#
# Elastic Constant Matrix: (Units=GPa)
#
#
# Indices 1 2 3 4 5 6 
#
# 1 58.3405 49.1587 30.2752 0.0000 0.0000 0.0000
# 2 49.1587 135.7258 57.9592 0.0000 0.0000 0.0000
# 3 30.2752 57.9592 89.7131 0.0000 0.0000 0.0000
# 4 0.0000 0.0000 0.0000 29.9608 0.0000 0.0000
# 5 0.0000 0.0000 0.0000 0.0000 5.5594 0.0000
# 6 0.0000 0.0000 0.0000 0.0000 0.0000 24.4314
#
#
#
# Elastic Compliance Matrix: (Units=1/GPa)
#
#
# Indices 1 2 3 4 5 6 
#
# 1 0.025504 -0.007681 -0.003644 0.000000 0.000000 0.000000
# 2 -0.007681 0.012488 -0.005476 0.000000 0.000000 0.000000
# 3 -0.003644 -0.005476 0.015914 0.000000 0.000000 0.000000
# 4 0.000000 0.000000 0.000000 0.033377 0.000000 0.000000
# 5 0.000000 0.000000 0.000000 0.000000 0.179875 0.000000
# 6 0.000000 0.000000 0.000000 0.000000 0.000000 0.040931
#
#
# Mechanical properties :
#
#
# Convention : Reuss Voigt Hill
#
# Bulk Modulus (GPa) = 49.25198 62.06285 55.65742
# Shear Modulus (GPa) = 14.34885 21.74941 18.04913
#
# Velocity S-wave (km/s) = 2.99109 3.68251 3.35466
# Velocity P-wave (km/s) = 6.52976 7.53510 7.05037
#
# Compressibility (1/GPa) = 0.02030375
#
# Stress axis : x y z
#
# Youngs Moduli (GPa) = 39.20919 80.07563 62.83689
#
# Poissons Ratio (x) = 0.61507 0.22901
# Poissons Ratio (y) = 0.30117 0.34409
# Poissons Ratio (z) = 0.14290 0.43848
#
# Static dielectric constant tensor:
#      x y z
#    x 1.514260 0.000000 0.000000 
#    y 0.000000 1.563270 0.000000 
#    z 0.000000 0.000000 1.486440 
# 
# From -- ./inp_files/46168.got.cif
#   From: 2010.05.17/outbox.cif.g08.bks.cpg/sg71_24_cif.got.tgz:46168.got - 2010.06.03 16:22:01.
