data_PCOD9518729
_publ_section_title
;
Structure prediction by ZEFSAII (Michael W. Deem and Ramdas Pophale) SiO2 
 PCOD9518729
Probable space group: I M M M
;
_chemical_formula_sum "Si O2"
_cell_formula_units_Z 120
_cell_length_a 18.673926
_cell_length_b 22.205827
_cell_length_c 18.357006
_cell_angle_alpha 90.000000
_cell_angle_beta 90.000000
_cell_angle_gamma 90.000000
_cell_volume 7612.099130
_symmetry_space_group_name_H-M "I M M M"
_symmetry_group_IT_number 71
_symmetry_cell_setting 'orthorhombic'
loop_
_space_group_symop_operation_xyz
x,y,z
-x,-y,z
x,-y,-z
-x,y,-z
-x,-y,-z
x,y,-z
-x,y,z
x,-y,z
1/2+x,1/2+y,1/2+z
1/2-x,1/2-y,1/2+z
1/2+x,1/2-y,1/2-z
1/2-x,1/2+y,1/2-z
1/2-x,1/2-y,1/2-z
1/2+x,1/2+y,1/2-z
1/2-x,1/2+y,1/2+z
1/2+x,1/2-y,1/2+z
loop_
_atom_site_type_symbol
_atom_site_label
_atom_site_fract_x
_atom_site_fract_y
_atom_site_fract_z
Si Si1 0.416829 0.826493 0.286655
Si Si2 0.325938 0.248736 0.085463
Si Si3 0.344227 0.119186 0.150802
Si Si4 0.914841 0.142598 0.856517
Si Si5 0.081729 0.803737 0.705999
Si Si6 0.706828 0.428909 0.416622
Si Si7 0.843546 0.264058 0.915023
Si Si8 0.414397 0.000000 0.084021
O O1 0.500000 0.845179 0.294643
O O2 0.372067 0.868453 0.232077
O O3 0.417795 0.760974 0.247265
O O4 0.377167 0.814588 0.362671
O O5 0.354119 0.181821 0.106663
O O6 0.366254 0.295639 0.137928
O O7 0.240705 0.252988 0.099973
O O8 0.338016 0.259252 0.000000
O O9 0.261196 0.103380 0.138333
O O10 0.385524 0.061420 0.119328
O O11 0.898127 0.150160 0.770328
O O12 0.872789 0.087990 0.892749
O O13 0.885090 0.202357 0.896281
O O14 0.000000 0.139653 0.864110
O O15 0.000000 0.815484 0.682766
O O16 0.720340 0.407749 0.500000
O O17 0.718941 0.500000 0.414593
O O18 0.851728 0.278182 0.000000
O O19 0.500000 0.000000 0.087256
O O20 0.390699 0.000000 0.000000
#
# Coordination Sequence:
#
# PCOD9518729 Si02
#       8
#    16  16  16  16  16  16  16   8
#     4   9  19  32  47  69  95 126 161 197 238 285
#     4  10  19  29  47  72 100 130 162 195 238 290
#     4  11  20  33  50  66  97 128 164 203 235 279
#     4  10  20  33  50  70  95 130 166 199 236 281
#     4   8  17  31  46  67  96 126 160 197 236 284
#     4  11  22  34  49  70  97 129 165 203 240 277
#     4  10  19  30  48  75 100 126 159 198 240 287
#     4  11  22  34  50  70  94 128 166 204 241 274
#
# _framework density 15.764377
#
# number of rings (size 3 to 8) (size 9 to 14) (size 15 to 20)
#    0.000    2.067    2.000    3.200    1.867    4.533 
#    0.000    0.667    0.000    0.000    0.000    0.467 
#    0.000    3.200    0.000    2.933    0.000    0.000 
#
# Total GULP energy -334458.314606 kJ/mol
# GULP energy per Si atom -5574.305243 kJ/mol
# Density = 1.572850 g / cm^3
# Si number density = 15.764377 Si / 1000 Ang^3
#
#
#
# Elastic Constant Matrix: (Units=GPa)
#
#
# Indices 1 2 3 4 5 6 
#
# 1 81.9063 17.3649 60.4169 0.0000 0.0000 0.0000
# 2 17.3649 28.9928 28.5645 0.0000 0.0000 0.0000
# 3 60.4169 28.5645 104.2738 0.0000 0.0000 0.0000
# 4 0.0000 0.0000 0.0000 20.3741 0.0000 0.0000
# 5 0.0000 0.0000 0.0000 0.0000 24.9465 0.0000
# 6 0.0000 0.0000 0.0000 0.0000 0.0000 17.2795
#
#
#
# Elastic Compliance Matrix: (Units=1/GPa)
#
#
# Indices 1 2 3 4 5 6 
#
# 1 0.021336 -0.000821 -0.012137 0.000000 0.000000 0.000000
# 2 -0.000821 0.047273 -0.012474 0.000000 0.000000 0.000000
# 3 -0.012137 -0.012474 0.020040 0.000000 0.000000 0.000000
# 4 0.000000 0.000000 0.000000 0.049082 0.000000 0.000000
# 5 0.000000 0.000000 0.000000 0.000000 0.040086 0.000000
# 6 0.000000 0.000000 0.000000 0.000000 0.000000 0.057872
#
#
# Mechanical properties :
#
#
# Convention : Reuss Voigt Hill
#
# Bulk Modulus (GPa) = 26.46635 47.54059 37.00347
# Shear Modulus (GPa) = 16.71414 19.77512 18.24463
#
# Velocity S-wave (km/s) = 3.25968 3.54562 3.40565
# Velocity P-wave (km/s) = 5.56709 6.85451 6.24407
#
# Compressibility (1/GPa) = 0.03778382
#
# Stress axis : x y z
#
# Youngs Moduli (GPa) = 46.86906 21.15375 49.90091
#
# Poissons Ratio (x) = 0.01737 0.60566
# Poissons Ratio (y) = 0.03848 0.62247
# Poissons Ratio (z) = 0.56887 0.26388
#
# Static dielectric constant tensor:
#      x y z
#    x 1.549950 0.000000 0.000000 
#    y 0.000000 1.518440 0.000000 
#    z 0.000000 0.000000 1.527620 
# 
# From -- ./inp_files/46468.got.cif
#   From: 2010.05.17/outbox.cif.g08.bks.cpg/sg71_24_cif.got.tgz:46468.got - 2010.06.03 16:22:01.
