data_PCOD9518318
_publ_section_title
;
Structure prediction by ZEFSAII (Michael W. Deem and Ramdas Pophale) SiO2 
 PCOD9518318
Probable space group: I M M M
;
_chemical_formula_sum "Si O2"
_cell_formula_units_Z 112
_cell_length_a 27.322502
_cell_length_b 15.104709
_cell_length_c 13.633447
_cell_angle_alpha 90.000000
_cell_angle_beta 90.000000
_cell_angle_gamma 90.000000
_cell_volume 5626.502334
_symmetry_space_group_name_H-M "I M M M"
_symmetry_group_IT_number 71
_symmetry_cell_setting 'orthorhombic'
loop_
_space_group_symop_operation_xyz
x,y,z
-x,-y,z
x,-y,-z
-x,y,-z
-x,-y,-z
x,y,-z
-x,y,z
x,-y,z
1/2+x,1/2+y,1/2+z
1/2-x,1/2-y,1/2+z
1/2+x,1/2-y,1/2-z
1/2-x,1/2+y,1/2-z
1/2-x,1/2-y,1/2-z
1/2+x,1/2+y,1/2-z
1/2-x,1/2+y,1/2+z
1/2+x,1/2-y,1/2+z
loop_
_atom_site_type_symbol
_atom_site_label
_atom_site_fract_x
_atom_site_fract_y
_atom_site_fract_z
Si Si1 0.557562 0.866099 0.893122
Si Si2 0.058473 0.405214 0.175465
Si Si3 0.555209 0.600857 0.312618
Si Si4 0.376675 0.754198 0.610580
Si Si5 0.312187 0.599749 0.882060
Si Si6 0.201490 0.603190 0.880072
Si Si7 0.083447 0.160704 0.388769
O O1 0.500000 0.888580 0.895506
O O2 0.576425 0.900551 0.788957
O O3 0.563269 0.760184 0.886952
O O4 0.578345 0.893373 0.000000
O O5 0.072680 0.500000 0.132813
O O6 0.079572 0.325079 0.115214
O O7 0.000000 0.399562 0.178640
O O8 0.500000 0.628807 0.343843
O O9 0.562951 0.500000 0.345525
O O10 0.598493 0.666906 0.344588
O O11 0.557023 0.605483 0.194504
O O12 0.362077 0.731927 0.500000
O O13 0.333171 0.816101 0.654548
O O14 0.324705 0.500000 0.847773
O O15 0.257540 0.621553 0.847955
O O16 0.358612 0.661069 0.862922
O O17 0.308075 0.596328 0.000000
O O18 0.190077 0.500000 0.851600
O O19 0.198819 0.603635 0.000000
O O20 0.078348 0.126371 0.500000
#
# Coordination Sequence:
#
# PCOD9518318 Si02
#       7
#    16  16  16  16  16  16  16
#     4   9  17  30  49  73 104 142 178 209 249 312
#     4  10  20  33  51  76 104 133 169 216 268 318
#     4  11  24  39  54  75 106 143 181 219 261 313
#     4  11  22  37  56  75  99 135 179 225 269 312
#     4   8  14  26  47  78 111 136 163 206 260 317
#     4   8  15  30  53  80 107 134 167 212 267 321
#     4  10  18  31  55  82 108 139 172 211 260 311
#
# _framework density 19.905794
#
# number of rings (size 3 to 8) (size 9 to 14) (size 15 to 20)
#    0.000    2.429    1.429    2.571    0.000    4.286 
#    0.000    4.286    0.000    0.000    0.000    0.000 
#    0.000    5.714    0.000    0.000    0.000    0.000 
#
# Total GULP energy -311777.454823 kJ/mol
# GULP energy per Si atom -5567.454550 kJ/mol
# Density = 1.986049 g / cm^3
# Si number density = 19.905794 Si / 1000 Ang^3
#
#
#
# Elastic Constant Matrix: (Units=GPa)
#
#
# Indices 1 2 3 4 5 6 
#
# 1 74.2277 21.7275 6.8043 0.0000 0.0000 0.0000
# 2 21.7275 79.0721 9.3637 0.0000 0.0000 0.0000
# 3 6.8043 9.3637 31.6584 0.0000 0.0000 0.0000
# 4 0.0000 0.0000 0.0000 -81.2923 0.0000 0.0000
# 5 0.0000 0.0000 0.0000 0.0000 15.5973 0.0000
# 6 0.0000 0.0000 0.0000 0.0000 0.0000 -273.3934
#
#
#
# Elastic Compliance Matrix: (Units=1/GPa)
#
#
# Indices 1 2 3 4 5 6 
#
# 1 0.014777 -0.003818 -0.002047 0.000000 0.000000 0.000000
# 2 -0.003818 0.014092 -0.003347 0.000000 0.000000 0.000000
# 3 -0.002047 -0.003347 0.033017 0.000000 0.000000 0.000000
# 4 0.000000 0.000000 0.000000 -0.012301 0.000000 0.000000
# 5 0.000000 0.000000 0.000000 0.000000 0.064114 0.000000
# 6 0.000000 0.000000 0.000000 0.000000 0.000000 -0.003658
#
#
# Mechanical properties :
#
#
# Convention : Reuss Voigt Hill
#
# Bulk Modulus (GPa) = 23.00860 28.97212 25.99036
# Shear Modulus (GPa) = 34.97643 -58.01349 -11.51853
#
# Velocity S-wave (km/s) = 4.19632 -5.40438 -2.40813
# Velocity P-wave (km/s) = 5.92137 4.93526 2.31364
#
# Compressibility (1/GPa) = 0.04346200
#
# Stress axis : x y z
#
# Youngs Moduli (GPa) = 67.67137 70.96102 30.28722
#
# Poissons Ratio (x) = 0.27094 0.06199
# Poissons Ratio (y) = 0.25838 0.10139
# Poissons Ratio (z) = 0.13851 0.23754
#
# Static dielectric constant tensor:
#      x y z
#    x 1.736140 0.000000 0.000000 
#    y 0.000000 1.721870 0.000000 
#    z 0.000000 0.000000 1.755970 
# 
# From -- ./inp_files/41090.got.cif
#   From: 2010.05.17/outbox.cif.g08.bks.cpg/sg71_21_cif.got.tgz:41090.got - 2010.06.03 16:22:01.
