data_PCOD9518582
_publ_section_title
;
Structure prediction by ZEFSAII (Michael W. Deem and Ramdas Pophale) SiO2 
 PCOD9518582
Probable space group: I M M M
;
_chemical_formula_sum "Si O2"
_cell_formula_units_Z 72
_cell_length_a 11.841856
_cell_length_b 14.678632
_cell_length_c 23.206766
_cell_angle_alpha 90.000000
_cell_angle_beta 90.000000
_cell_angle_gamma 90.000000
_cell_volume 4033.852198
_symmetry_space_group_name_H-M "I M M M"
_symmetry_group_IT_number 71
_symmetry_cell_setting 'orthorhombic'
loop_
_space_group_symop_operation_xyz
x,y,z
-x,-y,z
x,-y,-z
-x,y,-z
-x,-y,-z
x,y,-z
-x,y,z
x,-y,z
1/2+x,1/2+y,1/2+z
1/2-x,1/2-y,1/2+z
1/2+x,1/2-y,1/2-z
1/2-x,1/2+y,1/2-z
1/2-x,1/2-y,1/2-z
1/2+x,1/2+y,1/2-z
1/2-x,1/2+y,1/2+z
1/2+x,1/2-y,1/2+z
loop_
_atom_site_type_symbol
_atom_site_label
_atom_site_fract_x
_atom_site_fract_y
_atom_site_fract_z
Si Si1 0.365097 0.264092 0.172738
Si Si2 0.873267 0.500000 0.430448
Si Si3 0.215089 0.393974 0.756806
Si Si4 0.500000 0.898228 0.341236
Si Si5 0.248927 0.687628 0.568092
Si Si6 0.500000 0.261607 0.567195
O O1 0.500000 0.260478 0.169586
O O2 0.321134 0.349650 0.209936
O O3 0.317234 0.174179 0.205216
O O4 0.308604 0.261565 0.109601
O O5 0.882027 0.500000 0.500000
O O6 0.807359 0.591500 0.416180
O O7 0.000000 0.500000 0.405852
O O8 0.230583 0.500000 0.740551
O O9 0.109515 0.388683 0.800820
O O10 0.500000 0.823584 0.390473
O O11 0.500000 0.000000 0.365941
O O12 0.228935 0.705023 0.500000
O O13 0.383470 0.684999 0.577306
O O14 0.500000 0.233866 0.500000
#
# Coordination Sequence:
#
# PCOD9518582 Si02
#       6
#    16   8  16   8  16   8
#     4  11  22  36  60  86 115 152 191 233 284 345
#     4   9  18  33  51  75 109 148 187 225 271 330
#     4  10  22  39  59  85 114 147 189 236 286 338
#     4  10  18  37  61  81 111 144 183 234 281 334
#     4  10  21  36  56  83 115 150 190 237 283 336
#     4  10  20  36  58  84 113 146 191 237 285 337
#
# _framework density 17.848942000000001
#
# number of rings (size 3 to 8) (size 9 to 14) (size 15 to 20)
#    0.000    1.889    3.333    0.667    1.556    2.444 
#    0.000    2.222    0.000    0.667    0.000    1.556 
#    0.000    0.000    0.000    0.000    0.000    0.000 
#
# Total GULP energy -200845.520562 kJ/mol
# GULP energy per Si atom -5579.042238 kJ/mol
# Density = 1.780832 g / cm^3
# Si number density = 17.848942 Si / 1000 Ang^3
#
#
#
# Elastic Constant Matrix: (Units=GPa)
#
#
# Indices 1 2 3 4 5 6 
#
# 1 108.1301 24.0512 51.4283 0.0000 0.0000 0.0000
# 2 24.0512 75.7906 25.2042 0.0000 0.0000 0.0000
# 3 51.4283 25.2042 50.7315 0.0000 0.0000 0.0000
# 4 0.0000 0.0000 0.0000 24.4879 0.0000 0.0000
# 5 0.0000 0.0000 0.0000 0.0000 19.4272 0.0000
# 6 0.0000 0.0000 0.0000 0.0000 0.0000 25.4489
#
#
#
# Elastic Compliance Matrix: (Units=1/GPa)
#
#
# Indices 1 2 3 4 5 6 
#
# 1 0.017870 0.000423 -0.018326 0.000000 0.000000 0.000000
# 2 0.000423 0.015816 -0.008287 0.000000 0.000000 0.000000
# 3 -0.018326 -0.008287 0.042406 0.000000 0.000000 0.000000
# 4 0.000000 0.000000 0.000000 0.040837 0.000000 0.000000
# 5 0.000000 0.000000 0.000000 0.000000 0.051474 0.000000
# 6 0.000000 0.000000 0.000000 0.000000 0.000000 0.039294
#
#
# Mechanical properties :
#
#
# Convention : Reuss Voigt Hill
#
# Bulk Modulus (GPa) = 42.16993 48.44661 45.30827
# Shear Modulus (GPa) = 18.65816 22.80404 20.73110
#
# Velocity S-wave (km/s) = 3.23667 3.57825 3.41174
# Velocity P-wave (km/s) = 6.13558 6.65382 6.39995
#
# Compressibility (1/GPa) = 0.02371358
#
# Stress axis : x y z
#
# Youngs Moduli (GPa) = 55.95996 63.22863 23.58155
#
# Poissons Ratio (x) = -0.02677 0.43215
# Poissons Ratio (y) = -0.02370 0.19541
# Poissons Ratio (z) = 1.02551 0.52396
#
# Static dielectric constant tensor:
#      x y z
#    x 1.597330 0.000000 0.000000 
#    y 0.000000 1.592350 0.000000 
#    z 0.000000 0.000000 1.620640 
# 
# From -- ./inp_files/58614.got.cif
#   From: 2010.05.17/outbox.cif.g08.bks.cpg/sg71_30_cif.got.tgz:58614.got - 2010.06.03 16:22:01.
