data_PCOD9518482
_publ_section_title
;
Structure prediction by ZEFSAII (Michael W. Deem and Ramdas Pophale) SiO2 
 PCOD9518482
Probable space group: I M M M
;
_chemical_formula_sum "Si O2"
_cell_formula_units_Z 104
_cell_length_a 26.467485
_cell_length_b 22.623554
_cell_length_c 7.413539
_cell_angle_alpha 90.000000
_cell_angle_beta 90.000000
_cell_angle_gamma 90.000000
_cell_volume 4439.142462
_symmetry_space_group_name_H-M "I M M M"
_symmetry_group_IT_number 71
_symmetry_cell_setting 'orthorhombic'
loop_
_space_group_symop_operation_xyz
x,y,z
-x,-y,z
x,-y,-z
-x,y,-z
-x,-y,-z
x,y,-z
-x,y,z
x,-y,z
1/2+x,1/2+y,1/2+z
1/2-x,1/2-y,1/2+z
1/2+x,1/2-y,1/2-z
1/2-x,1/2+y,1/2-z
1/2-x,1/2-y,1/2-z
1/2+x,1/2+y,1/2-z
1/2-x,1/2+y,1/2+z
1/2+x,1/2-y,1/2+z
loop_
_atom_site_type_symbol
_atom_site_label
_atom_site_fract_x
_atom_site_fract_y
_atom_site_fract_z
Si Si1 0.714007 0.306595 0.713652
Si Si2 0.058082 0.500000 0.782352
Si Si3 0.055248 0.303089 0.721697
Si Si4 0.400534 0.685110 0.210172
Si Si5 0.440751 0.435583 0.780806
Si Si6 0.131998 0.395295 0.293774
Si Si7 0.258120 0.066758 0.779573
O O1 0.712425 0.311964 0.500000
O O2 0.750000 0.250000 0.750000
O O3 0.657322 0.295269 0.778494
O O4 0.730794 0.372298 0.780646
O O5 0.088562 0.555854 0.711169
O O6 0.000000 0.500000 0.726724
O O7 0.060284 0.500000 0.000000
O O8 0.056262 0.305409 0.500000
O O9 0.063384 0.236080 0.782245
O O10 0.103626 0.339407 0.788707
O O11 0.000000 0.325957 0.776463
O O12 0.409345 0.620087 0.286992
O O13 0.414079 0.680686 0.000000
O O14 0.500000 0.427922 0.736611
O O15 0.423819 0.500000 0.715864
O O16 0.437773 0.437458 0.000000
O O17 0.144823 0.379193 0.500000
O O18 0.183632 0.422368 0.220745
O O19 0.241997 0.000000 0.721647
O O20 0.256078 0.065357 0.000000
#
# Coordination Sequence:
#
# PCOD9518482 Si02
#       7
#    16   8  16  16  16  16  16
#     4  11  23  39  59  81 108 142 181 229 281 335
#     4  11  23  35  47  71 109 141 163 197 254 315
#     4   9  17  29  50  81 109 137 179 224 261 302
#     4  10  19  33  54  79 109 143 179 225 273 319
#     4   8  14  26  48  80 115 149 183 219 264 321
#     4  10  18  33  57  77  95 127 177 224 255 296
#     4   9  18  35  59  83 105 135 178 226 275 320
#
# _framework density 23.427949000000002
#
# number of rings (size 3 to 8) (size 9 to 14) (size 15 to 20)
#    0.000    2.385    0.769    3.000    0.000    6.154 
#    0.000    3.846    0.000    2.769    0.000    1.077 
#    0.000    0.000    0.000    0.000    0.000    0.000 
#
# Total GULP energy -290211.044202 kJ/mol
# GULP energy per Si atom -5580.981619 kJ/mol
# Density = 2.337463 g / cm^3
# Si number density = 23.427949 Si / 1000 Ang^3
#
#
#
# Elastic Constant Matrix: (Units=GPa)
#
#
# Indices 1 2 3 4 5 6 
#
# 1 27.8715 8.5012 -19.0886 0.0000 0.0000 0.0000
# 2 8.5012 142.4902 -4.4094 0.0000 0.0000 0.0000
# 3 -19.0886 -4.4094 78.4500 0.0000 0.0000 0.0000
# 4 0.0000 0.0000 0.0000 -15.1669 0.0000 0.0000
# 5 0.0000 0.0000 0.0000 0.0000 -13.8394 0.0000
# 6 0.0000 0.0000 0.0000 0.0000 0.0000 -93.8312
#
#
#
# Elastic Compliance Matrix: (Units=1/GPa)
#
#
# Indices 1 2 3 4 5 6 
#
# 1 0.043785 -0.002287 0.010525 0.000000 0.000000 0.000000
# 2 -0.002287 0.007150 -0.000155 0.000000 0.000000 0.000000
# 3 0.010525 -0.000155 0.015299 0.000000 0.000000 0.000000
# 4 0.000000 0.000000 0.000000 -0.065933 0.000000 0.000000
# 5 0.000000 0.000000 0.000000 0.000000 -0.072257 0.000000
# 6 0.000000 0.000000 0.000000 0.000000 0.000000 -0.010657
#
#
# Mechanical properties :
#
#
# Convention : Reuss Voigt Hill
#
# Bulk Modulus (GPa) = 12.13556 24.31312 18.22434
# Shear Modulus (GPa) = -70.11129 -6.98025 -38.54577
#
# Velocity S-wave (km/s) = -5.47643 -1.72798 -4.06062
# Velocity P-wave (km/s) = 5.89892 2.53360 3.76684
#
# Compressibility (1/GPa) = 0.08240249
#
# Stress axis : x y z
#
# Youngs Moduli (GPa) = 22.83887 139.86673 65.36231
#
# Poissons Ratio (x) = 0.31981 -0.68796
# Poissons Ratio (y) = 0.05222 0.01010
# Poissons Ratio (z) = -0.24039 0.02161
#
# Static dielectric constant tensor:
#      x y z
#    x 1.840190 0.000000 0.000000 
#    y 0.000000 1.933420 0.000000 
#    z 0.000000 0.000000 1.916270 
# 
# From -- ./inp_files/15049.got.cif
#   From: 2010.05.17/outbox.cif.g08.bks.cpg/sg71_8_cif.got.tgz:15049.got - 2010.06.03 16:22:01.
