data_PCOD9518239
_publ_section_title
;
Structure prediction by ZEFSAII (Michael W. Deem and Ramdas Pophale) SiO2 
 PCOD9518239
Probable space group: I M M M
;
_chemical_formula_sum "Si O2"
_cell_formula_units_Z 104
_cell_length_a 28.878282
_cell_length_b 17.137603
_cell_length_c 12.964414
_cell_angle_alpha 90.000000
_cell_angle_beta 90.000000
_cell_angle_gamma 90.000000
_cell_volume 6416.147246
_symmetry_space_group_name_H-M "I M M M"
_symmetry_group_IT_number 71
_symmetry_cell_setting 'orthorhombic'
loop_
_space_group_symop_operation_xyz
x,y,z
-x,-y,z
x,-y,-z
-x,y,-z
-x,-y,-z
x,y,-z
-x,y,z
x,-y,z
1/2+x,1/2+y,1/2+z
1/2-x,1/2-y,1/2+z
1/2+x,1/2-y,1/2-z
1/2-x,1/2+y,1/2-z
1/2-x,1/2-y,1/2-z
1/2+x,1/2+y,1/2-z
1/2-x,1/2+y,1/2+z
1/2+x,1/2-y,1/2+z
loop_
_atom_site_type_symbol
_atom_site_label
_atom_site_fract_x
_atom_site_fract_y
_atom_site_fract_z
Si Si1 0.858279 0.592780 0.617687
Si Si2 0.315755 0.500000 0.622180
Si Si3 0.746376 0.863669 0.827621
Si Si4 0.579740 0.500000 0.374559
Si Si5 0.444814 0.093690 0.500000
Si Si6 0.716607 0.805895 0.614775
Si Si7 0.446577 0.673394 0.377660
Si Si8 0.390047 0.817554 0.319087
O O1 0.872770 0.611500 0.500000
O O2 0.864638 0.500000 0.634287
O O3 0.803276 0.610979 0.627237
O O4 0.883681 0.640934 0.708172
O O5 0.321155 0.500000 0.500000
O O6 0.285962 0.574743 0.650624
O O7 0.367532 0.500000 0.664127
O O8 0.739159 0.855909 0.705279
O O9 0.762542 0.780639 0.871881
O O10 0.577599 0.500000 0.500000
O O11 0.557986 0.416972 0.344942
O O12 0.500000 0.111161 0.500000
O O13 0.420017 0.130891 0.600450
O O14 0.439142 0.000000 0.500000
O O15 0.725576 0.834797 0.500000
O O16 0.661627 0.805903 0.635866
O O17 0.433665 0.678577 0.500000
O O18 0.500000 0.697148 0.368937
O O19 0.414443 0.733235 0.316430
#
# Coordination Sequence:
#
# PCOD9518239 Si02
#       8
#    16   8  16   8   8  16  16  16
#     4  10  20  35  53  75 104 140 184 228 266 308
#     4  11  18  29  47  68  97 131 173 216 244 297
#     4  10  20  30  50  72  98 139 179 211 258 302
#     4   9  19  30  47  77 107 140 172 213 262 316
#     4  11  22  36  54  77 105 139 179 220 270 332
#     4  10  19  33  47  71 104 135 171 218 257 310
#     4  10  18  31  51  76 109 139 169 210 267 329
#     4  11  20  33  53  78 105 141 176 217 272 326
#
# _framework density 16.209104
#
# number of rings (size 3 to 8) (size 9 to 14) (size 15 to 20)
#    0.000    1.769    2.308    3.462    0.000    2.154 
#    0.000    0.385    0.000    1.846    0.000    7.000 
#    0.000    1.231    0.000    0.000    0.000    0.000 
#
# Total GULP energy -290060.768584 kJ/mol
# GULP energy per Si atom -5578.091704 kJ/mol
# Density = 1.617221 g / cm^3
# Si number density = 16.209104 Si / 1000 Ang^3
#
#
#
# Elastic Constant Matrix: (Units=GPa)
#
#
# Indices 1 2 3 4 5 6 
#
# 1 66.1718 23.8411 28.6277 0.0000 0.0000 0.0000
# 2 23.8411 73.6276 34.5917 0.0000 0.0000 0.0000
# 3 28.6277 34.5917 108.6308 0.0000 0.0000 0.0000
# 4 0.0000 0.0000 0.0000 27.9809 0.0000 0.0000
# 5 0.0000 0.0000 0.0000 0.0000 10.9022 0.0000
# 6 0.0000 0.0000 0.0000 0.0000 0.0000 -2.6357
#
#
#
# Elastic Compliance Matrix: (Units=1/GPa)
#
#
# Indices 1 2 3 4 5 6 
#
# 1 0.018128 -0.004263 -0.003420 0.000000 0.000000 0.000000
# 2 -0.004263 0.016974 -0.004282 0.000000 0.000000 0.000000
# 3 -0.003420 -0.004282 0.011470 0.000000 0.000000 0.000000
# 4 0.000000 0.000000 0.000000 0.035739 0.000000 0.000000
# 5 0.000000 0.000000 0.000000 0.000000 0.091725 0.000000
# 6 0.000000 0.000000 0.000000 0.000000 0.000000 -0.379407
#
#
# Mechanical properties :
#
#
# Convention : Reuss Voigt Hill
#
# Bulk Modulus (GPa) = 44.16433 46.95012 45.55723
# Shear Modulus (GPa) = -28.75300 18.00745 -5.37277
#
# Velocity S-wave (km/s) = -4.21631 3.33670 -1.82260
# Velocity P-wave (km/s) = 1.89808 6.62367 4.87215
#
# Compressibility (1/GPa) = 0.02264271
#
# Stress axis : x y z
#
# Youngs Moduli (GPa) = 55.16444 58.91405 87.18341
#
# Poissons Ratio (x) = 0.25116 0.29814
# Poissons Ratio (y) = 0.23518 0.37328
# Poissons Ratio (z) = 0.18864 0.25224
#
# Static dielectric constant tensor:
#      x y z
#    x 1.530030 0.000000 0.000000 
#    y 0.000000 1.525070 0.000000 
#    z 0.000000 0.000000 1.533420 
# 
# From -- ./inp_files/24633.got.cif
#   From: 2010.05.17/outbox.cif.g08.bks.cpg/sg71_13_cif.got.tgz:24633.got - 2010.06.03 16:22:01.
