data_PCOD9518463
_publ_section_title
;
Structure prediction by ZEFSAII (Michael W. Deem and Ramdas Pophale) SiO2 
 PCOD9518463
Probable space group: I M M M
;
_chemical_formula_sum "Si O2"
_cell_formula_units_Z 88
_cell_length_a 13.930801
_cell_length_b 17.821857
_cell_length_c 23.263577
_cell_angle_alpha 90.000000
_cell_angle_beta 90.000000
_cell_angle_gamma 90.000000
_cell_volume 5775.712081
_symmetry_space_group_name_H-M "I M M M"
_symmetry_group_IT_number 71
_symmetry_cell_setting 'orthorhombic'
loop_
_space_group_symop_operation_xyz
x,y,z
-x,-y,z
x,-y,-z
-x,y,-z
-x,-y,-z
x,y,-z
-x,y,z
x,-y,z
1/2+x,1/2+y,1/2+z
1/2-x,1/2-y,1/2+z
1/2+x,1/2-y,1/2-z
1/2-x,1/2+y,1/2-z
1/2-x,1/2-y,1/2-z
1/2+x,1/2+y,1/2-z
1/2-x,1/2+y,1/2+z
1/2+x,1/2-y,1/2+z
loop_
_atom_site_type_symbol
_atom_site_label
_atom_site_fract_x
_atom_site_fract_y
_atom_site_fract_z
Si Si1 0.800917 0.588459 0.766540
Si Si2 0.612095 0.821926 0.838016
Si Si3 0.612671 0.791456 0.350597
Si Si4 0.609991 0.678632 0.244002
Si Si5 0.735203 0.701144 0.564702
Si Si6 0.385996 0.588397 0.500000
O O1 0.808582 0.500000 0.773240
O O2 0.852611 0.617194 0.708409
O O3 0.849570 0.634465 0.818635
O O4 0.690924 0.616372 0.762242
O O5 0.500000 0.832624 0.850652
O O6 0.623026 0.741727 0.805397
O O7 0.678064 0.821142 0.893987
O O8 0.500000 0.798018 0.363741
O O9 0.624117 0.724610 0.303368
O O10 0.675175 0.766807 0.404841
O O11 0.500000 0.651675 0.242032
O O12 0.766948 0.721791 0.500000
O O13 0.663260 0.630888 0.553751
O O14 0.366603 0.500000 0.500000
O O15 0.500000 0.600206 0.500000
#
# Coordination Sequence:
#
# PCOD9518463 Si02
#       6
#    16  16  16  16  16   8
#     4  11  20  32  52  79 110 137 166 213 269 319
#     4  10  19  35  55  73 102 137 175 214 251 309
#     4  10  18  33  54  75 102 134 176 217 255 311
#     4   9  17  32  54  75  98 133 171 215 265 308
#     4  10  20  33  54  77 100 137 179 212 254 300
#     4   9  20  36  51  73 102 132 172 217 257 299
#
# _framework density 15.236217
#
# number of rings (size 3 to 8) (size 9 to 14) (size 15 to 20)
#    0.545    1.545    3.636    3.273    0.000    2.909 
#    0.000    0.000    0.000    1.091    0.000    1.273 
#    0.000    2.909    0.000    0.000    0.000    0.000 
#
# Total GULP energy -245200.803302 kJ/mol
# GULP energy per Si atom -5572.745530 kJ/mol
# Density = 1.520154 g / cm^3
# Si number density = 15.236217 Si / 1000 Ang^3
#
#
#
# Elastic Constant Matrix: (Units=GPa)
#
#
# Indices 1 2 3 4 5 6 
#
# 1 110.7758 53.9948 45.5512 0.0000 0.0000 0.0000
# 2 53.9948 93.6211 42.8165 0.0000 0.0000 0.0000
# 3 45.5512 42.8165 90.5635 0.0000 0.0000 0.0000
# 4 0.0000 0.0000 0.0000 9.4909 0.0000 0.0000
# 5 0.0000 0.0000 0.0000 0.0000 23.7996 0.0000
# 6 0.0000 0.0000 0.0000 0.0000 0.0000 15.3261
#
#
#
# Elastic Compliance Matrix: (Units=1/GPa)
#
#
# Indices 1 2 3 4 5 6 
#
# 1 0.013604 -0.006018 -0.003997 0.000000 0.000000 0.000000
# 2 -0.006018 0.016290 -0.004675 0.000000 0.000000 0.000000
# 3 -0.003997 -0.004675 0.015263 0.000000 0.000000 0.000000
# 4 0.000000 0.000000 0.000000 0.105364 0.000000 0.000000
# 5 0.000000 0.000000 0.000000 0.000000 0.042018 0.000000
# 6 0.000000 0.000000 0.000000 0.000000 0.000000 0.065248
#
#
# Mechanical properties :
#
#
# Convention : Reuss Voigt Hill
#
# Bulk Modulus (GPa) = 63.38414 64.40950 63.89682
# Shear Modulus (GPa) = 17.09837 19.89652 18.49745
#
# Velocity S-wave (km/s) = 3.35359 3.61760 3.48809
# Velocity P-wave (km/s) = 7.52906 7.73402 7.63223
#
# Compressibility (1/GPa) = 0.01577682
#
# Stress axis : x y z
#
# Youngs Moduli (GPa) = 73.50629 61.38724 65.51911
#
# Poissons Ratio (x) = 0.36942 0.26191
# Poissons Ratio (y) = 0.44235 0.30628
# Poissons Ratio (z) = 0.29384 0.28697
#
# Static dielectric constant tensor:
#      x y z
#    x 1.520740 0.000000 0.000000 
#    y 0.000000 1.477350 0.000000 
#    z 0.000000 0.000000 1.499580 
# 
# From -- ./inp_files/60023.got.cif
#   From: 2010.05.17/outbox.cif.g08.bks.cpg/sg71_31_cif.got.tgz:60023.got - 2010.06.03 16:22:01.
