data_PCOD9518244
_publ_section_title
;
Structure prediction by ZEFSAII (Michael W. Deem and Ramdas Pophale) SiO2 
 PCOD9518244
Probable space group: I M M M
;
_chemical_formula_sum "Si O2"
_cell_formula_units_Z 104
_cell_length_a 27.918075
_cell_length_b 22.223899
_cell_length_c 8.921755
_cell_angle_alpha 90.000000
_cell_angle_beta 90.000000
_cell_angle_gamma 90.000000
_cell_volume 5535.489320
_symmetry_space_group_name_H-M "I M M M"
_symmetry_group_IT_number 71
_symmetry_cell_setting 'orthorhombic'
loop_
_space_group_symop_operation_xyz
x,y,z
-x,-y,z
x,-y,-z
-x,y,-z
-x,-y,-z
x,y,-z
-x,y,z
x,-y,z
1/2+x,1/2+y,1/2+z
1/2-x,1/2-y,1/2+z
1/2+x,1/2-y,1/2-z
1/2-x,1/2+y,1/2-z
1/2-x,1/2-y,1/2-z
1/2+x,1/2+y,1/2-z
1/2-x,1/2+y,1/2+z
1/2+x,1/2-y,1/2+z
loop_
_atom_site_type_symbol
_atom_site_label
_atom_site_fract_x
_atom_site_fract_y
_atom_site_fract_z
Si Si1 0.392167 0.107474 0.681161
Si Si2 0.056301 0.500000 0.669145
Si Si3 0.556441 0.224181 0.820409
Si Si4 0.617356 0.321291 0.681748
Si Si5 0.797909 0.738436 0.833644
Si Si6 0.211292 0.596574 0.830416
Si Si7 0.186005 0.069335 0.819747
O O1 0.390163 0.111835 0.500000
O O2 0.410688 0.171705 0.745465
O O3 0.340577 0.078624 0.733141
O O4 0.429130 0.058721 0.739468
O O5 0.077186 0.500000 0.500000
O O6 0.000000 0.500000 0.654089
O O7 0.500000 0.212880 0.788923
O O8 0.571273 0.290440 0.757301
O O9 0.563326 0.222557 0.000000
O O10 0.611017 0.320327 0.500000
O O11 0.657876 0.273467 0.732715
O O12 0.642693 0.384953 0.722854
O O13 0.750000 0.750000 0.750000
O O14 0.800763 0.667411 0.840351
O O15 0.793360 0.763827 0.000000
O O16 0.261372 0.586288 0.745770
O O17 0.217553 0.573197 0.000000
O O18 0.175892 0.000000 0.777852
O O19 0.189795 0.072899 0.000000
#
# Coordination Sequence:
#
# PCOD9518244 Si02
#       7
#    16   8  16  16  16  16  16
#     4  11  23  40  60  85 117 155 199 242 288 344
#     4  11  25  43  59  79 111 153 203 253 296 339
#     4  11  24  40  60  88 117 144 185 244 302 354
#     4  10  20  37  58  82 114 150 190 236 289 350
#     4  10  18  31  51  79 110 142 180 222 269 324
#     4  10  21  35  52  79 114 148 186 229 274 332
#     4  10  22  38  57  84 117 154 195 237 284 344
#
# _framework density 18.787859000000001
#
# number of rings (size 3 to 8) (size 9 to 14) (size 15 to 20)
#    0.000    1.615    3.077    1.615    1.077    6.462 
#    0.000    0.000    0.000    0.462    0.000    3.231 
#    0.000    0.000    0.000    0.000    0.000    0.000 
#
# Total GULP energy -289503.317483 kJ/mol
# GULP energy per Si atom -5567.371490 kJ/mol
# Density = 1.874510 g / cm^3
# Si number density = 18.787859 Si / 1000 Ang^3
#
#
#
# Elastic Constant Matrix: (Units=GPa)
#
#
# Indices 1 2 3 4 5 6 
#
# 1 72.6046 36.0844 30.1880 0.0000 0.0000 0.0000
# 2 36.0844 123.7280 28.8524 0.0000 0.0000 0.0000
# 3 30.1880 28.8524 44.9796 0.0000 0.0000 0.0000
# 4 0.0000 0.0000 0.0000 14.9207 0.0000 0.0000
# 5 0.0000 0.0000 0.0000 0.0000 29.3279 0.0000
# 6 0.0000 0.0000 0.0000 0.0000 0.0000 27.6761
#
#
#
# Elastic Compliance Matrix: (Units=1/GPa)
#
#
# Indices 1 2 3 4 5 6 
#
# 1 0.020126 -0.003198 -0.011456 0.000000 0.000000 0.000000
# 2 -0.003198 0.010012 -0.004276 0.000000 0.000000 0.000000
# 3 -0.011456 -0.004276 0.032664 0.000000 0.000000 0.000000
# 4 0.000000 0.000000 0.000000 0.067021 0.000000 0.000000
# 5 0.000000 0.000000 0.000000 0.000000 0.034097 0.000000
# 6 0.000000 0.000000 0.000000 0.000000 0.000000 0.036132
#
#
# Mechanical properties :
#
#
# Convention : Reuss Voigt Hill
#
# Bulk Modulus (GPa) = 40.09349 47.95130 44.02240
# Shear Modulus (GPa) = 20.30652 24.13076 22.21864
#
# Velocity S-wave (km/s) = 3.29117 3.58771 3.44264
# Velocity P-wave (km/s) = 5.98572 6.53760 6.26773
#
# Compressibility (1/GPa) = 0.02494171
#
# Stress axis : x y z
#
# Youngs Moduli (GPa) = 49.68703 99.87953 30.61499
#
# Poissons Ratio (x) = 0.31943 0.35073
# Poissons Ratio (y) = 0.15891 0.13091
# Poissons Ratio (z) = 0.56922 0.42707
#
# Static dielectric constant tensor:
#      x y z
#    x 1.636840 0.000000 0.000000 
#    y 0.000000 1.634040 0.000000 
#    z 0.000000 0.000000 1.634550 
# 
# From -- ./inp_files/15272.got.cif
#   From: 2010.05.17/outbox.cif.g08.bks.cpg/sg71_8_cif.got.tgz:15272.got - 2010.06.03 16:22:01.
