data_PCOD9518967
_publ_section_title
;
Structure prediction by ZEFSAII (Michael W. Deem and Ramdas Pophale) SiO2 
 PCOD9518967
Probable space group: I M M M
;
_chemical_formula_sum "Si O2"
_cell_formula_units_Z 80
_cell_length_a 7.410391
_cell_length_b 24.393443
_cell_length_c 20.350561
_cell_angle_alpha 90.000000
_cell_angle_beta 90.000000
_cell_angle_gamma 90.000000
_cell_volume 3678.668151
_symmetry_space_group_name_H-M "I M M M"
_symmetry_group_IT_number 71
_symmetry_cell_setting 'orthorhombic'
loop_
_space_group_symop_operation_xyz
x,y,z
-x,-y,z
x,-y,-z
-x,y,-z
-x,-y,-z
x,y,-z
-x,y,z
x,-y,z
1/2+x,1/2+y,1/2+z
1/2-x,1/2-y,1/2+z
1/2+x,1/2-y,1/2-z
1/2-x,1/2+y,1/2-z
1/2-x,1/2-y,1/2-z
1/2+x,1/2+y,1/2-z
1/2-x,1/2+y,1/2+z
1/2+x,1/2-y,1/2+z
loop_
_atom_site_type_symbol
_atom_site_label
_atom_site_fract_x
_atom_site_fract_y
_atom_site_fract_z
Si Si1 0.788680 0.062893 0.659663
Si Si2 0.218903 0.384393 0.301189
Si Si3 0.221033 0.834102 0.576372
Si Si4 0.214600 0.262842 0.326000
Si Si5 0.789663 0.564975 0.431272
O O1 0.776591 0.092606 0.730730
O O2 0.716879 0.107880 0.607673
O O3 0.000000 0.057540 0.644426
O O4 0.715369 0.000000 0.660687
O O5 0.281348 0.325061 0.327125
O O6 0.284144 0.422099 0.360282
O O7 0.000000 0.383282 0.296492
O O8 0.273234 0.827735 0.500000
O O9 0.282031 0.783791 0.623748
O O10 0.000000 0.834181 0.578215
O O11 0.250000 0.250000 0.250000
O O12 0.000000 0.264468 0.336968
O O13 0.711210 0.586998 0.500000
O O14 0.788978 0.500000 0.435775
O O15 0.000000 0.583271 0.430096
#
# Coordination Sequence:
#
# PCOD9518967 Si02
#       5
#    16  16  16  16  16
#     4  10  20  33  51  75 102 136 174 209 250 300
#     4  10  19  30  50  77 101 129 166 207 252 302
#     4   9  18  33  52  75 103 133 168 212 255 296
#     4  10  19  32  52  75  99 130 163 200 250 301
#     4   8  14  25  41  64  96 128 156 193 240 285
#
# _framework density 21.747001999999998
#
# number of rings (size 3 to 8) (size 9 to 14) (size 15 to 20)
#    0.000    2.600    2.000    1.200    0.000    2.400 
#    0.000    6.000    0.000    3.000    0.000    7.000 
#    0.000    0.000    0.000    0.000    0.000    0.000 
#
# Total GULP energy -222714.537086 kJ/mol
# GULP energy per Si atom -5567.863427 kJ/mol
# Density = 2.169750 g / cm^3
# Si number density = 21.747002 Si / 1000 Ang^3
#
#
#
# Elastic Constant Matrix: (Units=GPa)
#
#
# Indices 1 2 3 4 5 6 
#
# 1 67.5978 7.4485 -6.5737 0.0000 0.0000 0.0000
# 2 7.4485 144.5939 81.7830 0.0000 0.0000 0.0000
# 3 -6.5737 81.7830 185.2766 0.0000 0.0000 0.0000
# 4 0.0000 0.0000 0.0000 38.7719 0.0000 0.0000
# 5 0.0000 0.0000 0.0000 0.0000 16.2365 0.0000
# 6 0.0000 0.0000 0.0000 0.0000 0.0000 3.6941
#
#
#
# Elastic Compliance Matrix: (Units=1/GPa)
#
#
# Indices 1 2 3 4 5 6 
#
# 1 0.015065 -0.001437 0.001169 0.000000 0.000000 0.000000
# 2 -0.001437 0.009354 -0.004180 0.000000 0.000000 0.000000
# 3 0.001169 -0.004180 0.007284 0.000000 0.000000 0.000000
# 4 0.000000 0.000000 0.000000 0.025792 0.000000 0.000000
# 5 0.000000 0.000000 0.000000 0.000000 0.061590 0.000000
# 6 0.000000 0.000000 0.000000 0.000000 0.000000 0.270700
#
#
# Mechanical properties :
#
#
# Convention : Reuss Voigt Hill
#
# Bulk Modulus (GPa) = 43.84638 62.53156 53.18897
# Shear Modulus (GPa) = 12.30664 32.72786 22.51725
#
# Velocity S-wave (km/s) = 2.38145 3.88356 3.22128
# Velocity P-wave (km/s) = 5.26949 6.99471 6.19247
#
# Compressibility (1/GPa) = 0.02280690
#
# Stress axis : x y z
#
# Youngs Moduli (GPa) = 66.37712 106.90375 137.28866
#
# Poissons Ratio (x) = 0.15365 -0.16048
# Poissons Ratio (y) = 0.09540 0.57387
# Poissons Ratio (z) = -0.07759 0.44686
#
# Static dielectric constant tensor:
#      x y z
#    x 1.930710 0.000000 0.000000 
#    y 0.000000 1.337250 0.000000 
#    z 0.000000 0.000000 1.822310 
# 
# From -- ./inp_files/14549.got.cif
#   From: 2010.05.17/outbox.cif.g08.bks.cpg/sg71_8_cif.got.tgz:14549.got - 2010.06.03 16:22:01.
