data_PCOD9518373
_publ_section_title
;
Structure prediction by ZEFSAII (Michael W. Deem and Ramdas Pophale) SiO2 
 PCOD9518373
Probable space group: I M M M
;
_chemical_formula_sum "Si O2"
_cell_formula_units_Z 96
_cell_length_a 18.707939
_cell_length_b 11.689754
_cell_length_c 28.535769
_cell_angle_alpha 90.000000
_cell_angle_beta 90.000000
_cell_angle_gamma 90.000000
_cell_volume 6240.521701
_symmetry_space_group_name_H-M "I M M M"
_symmetry_group_IT_number 71
_symmetry_cell_setting 'orthorhombic'
loop_
_space_group_symop_operation_xyz
x,y,z
-x,-y,z
x,-y,-z
-x,y,-z
-x,-y,-z
x,y,-z
-x,y,z
x,-y,z
1/2+x,1/2+y,1/2+z
1/2-x,1/2-y,1/2+z
1/2+x,1/2-y,1/2-z
1/2-x,1/2+y,1/2-z
1/2-x,1/2-y,1/2-z
1/2+x,1/2+y,1/2-z
1/2-x,1/2+y,1/2+z
1/2+x,1/2-y,1/2+z
loop_
_atom_site_type_symbol
_atom_site_label
_atom_site_fract_x
_atom_site_fract_y
_atom_site_fract_z
Si Si1 0.919789 0.000000 0.799257
Si Si2 0.586305 0.124176 0.500000
Si Si3 0.915763 0.218663 0.085952
Si Si4 0.769349 0.000000 0.848231
Si Si5 0.361984 0.865525 0.671761
Si Si6 0.082001 0.234313 0.739876
Si Si7 0.675848 0.500000 0.443894
Si Si8 0.724586 0.758405 0.195817
O O1 0.854142 0.000000 0.835028
O O2 0.913331 0.886719 0.767470
O O3 0.000000 0.000000 0.820642
O O4 0.500000 0.117201 0.500000
O O5 0.604694 0.189102 0.546869
O O6 0.618583 0.000000 0.500000
O O7 0.898673 0.278548 0.135212
O O8 0.000000 0.193228 0.083559
O O9 0.870954 0.109552 0.070490
O O10 0.738839 0.884414 0.825013
O O11 0.761486 0.000000 0.904580
O O12 0.394492 0.831072 0.722416
O O13 0.278006 0.831177 0.671181
O O14 0.373094 0.000000 0.662096
O O15 0.140510 0.233402 0.698740
O O16 0.000000 0.251027 0.725558
O O17 0.691409 0.500000 0.500000
O O18 0.750000 0.750000 0.250000
#
# Coordination Sequence:
#
# PCOD9518373 Si02
#       8
#     8   8  16   8  16  16   8  16
#     4  10  18  32  52  74 103 136 173 212 252 294
#     4   9  18  31  47  65  91 126 164 209 260 296
#     4  11  21  34  49  69  95 130 174 220 257 289
#     4  12  20  38  53  75 100 140 178 211 255 300
#     4  11  22  33  49  69  98 135 170 206 253 306
#     4  10  21  33  49  73  99 130 166 209 253 301
#     4  12  23  37  53  73 101 132 178 227 261 296
#     4  10  21  33  53  71  98 131 169 210 251 307
#
# _framework density 15.383329
#
# number of rings (size 3 to 8) (size 9 to 14) (size 15 to 20)
#    0.000    1.417    5.833    1.250    5.833    4.333 
#    0.000    0.000    0.000    0.000    0.000    0.000 
#    0.000    1.333    0.000    0.000    0.000   12.500 
#
# Total GULP energy -267575.757101 kJ/mol
# GULP energy per Si atom -5574.494940 kJ/mol
# Density = 1.534832 g / cm^3
# Si number density = 15.383329 Si / 1000 Ang^3
#
#
#
# Elastic Constant Matrix: (Units=GPa)
#
#
# Indices 1 2 3 4 5 6 
#
# 1 80.7128 8.6102 12.0718 0.0000 0.0000 0.0000
# 2 8.6102 95.5818 19.0943 0.0000 0.0000 0.0000
# 3 12.0718 19.0943 53.4041 0.0000 0.0000 0.0000
# 4 0.0000 0.0000 0.0000 15.5596 0.0000 0.0000
# 5 0.0000 0.0000 0.0000 0.0000 14.0272 0.0000
# 6 0.0000 0.0000 0.0000 0.0000 0.0000 12.3924
#
#
#
# Elastic Compliance Matrix: (Units=1/GPa)
#
#
# Indices 1 2 3 4 5 6 
#
# 1 0.012857 -0.000622 -0.002684 0.000000 0.000000 0.000000
# 2 -0.000622 0.011297 -0.003899 0.000000 0.000000 0.000000
# 3 -0.002684 -0.003899 0.020726 0.000000 0.000000 0.000000
# 4 0.000000 0.000000 0.000000 0.064269 0.000000 0.000000
# 5 0.000000 0.000000 0.000000 0.000000 0.071290 0.000000
# 6 0.000000 0.000000 0.000000 0.000000 0.000000 0.080694
#
#
# Mechanical properties :
#
#
# Convention : Reuss Voigt Hill
#
# Bulk Modulus (GPa) = 32.81804 34.36127 33.58965
# Shear Modulus (GPa) = 17.50088 21.05733 19.27911
#
# Velocity S-wave (km/s) = 3.37657 3.70380 3.54396
# Velocity P-wave (km/s) = 6.04826 6.37778 6.21520
#
# Compressibility (1/GPa) = 0.03047105
#
# Stress axis : x y z
#
# Youngs Moduli (GPa) = 77.77623 88.51836 48.24912
#
# Poissons Ratio (x) = 0.05506 0.12950
# Poissons Ratio (y) = 0.04838 0.18810
# Poissons Ratio (z) = 0.20875 0.34510
#
# Static dielectric constant tensor:
#      x y z
#    x 1.534910 0.000000 0.000000 
#    y 0.000000 1.542890 0.000000 
#    z 0.000000 0.000000 1.532440 
# 
# From -- ./inp_files/65995.got.cif
#   From: 2010.05.17/outbox.cif.g08.bks.cpg/sg71_33_cif.got.tgz:65995.got - 2010.06.03 16:22:01.
