data_PCOD9518100
_publ_section_title
;
Structure prediction by ZEFSAII (Michael W. Deem and Ramdas Pophale) SiO2 
 PCOD9518100
Probable space group: I M M M
;
_chemical_formula_sum "Si O2"
_cell_formula_units_Z 112
_cell_length_a 17.130883
_cell_length_b 13.262796
_cell_length_c 26.905150
_cell_angle_alpha 90.000000
_cell_angle_beta 90.000000
_cell_angle_gamma 90.000000
_cell_volume 6112.941733
_symmetry_space_group_name_H-M "I M M M"
_symmetry_group_IT_number 71
_symmetry_cell_setting 'orthorhombic'
loop_
_space_group_symop_operation_xyz
x,y,z
-x,-y,z
x,-y,-z
-x,y,-z
-x,-y,-z
x,y,-z
-x,y,z
x,-y,z
1/2+x,1/2+y,1/2+z
1/2-x,1/2-y,1/2+z
1/2+x,1/2-y,1/2-z
1/2-x,1/2+y,1/2-z
1/2-x,1/2-y,1/2-z
1/2+x,1/2+y,1/2-z
1/2-x,1/2+y,1/2+z
1/2+x,1/2-y,1/2+z
loop_
_atom_site_type_symbol
_atom_site_label
_atom_site_fract_x
_atom_site_fract_y
_atom_site_fract_z
Si Si1 0.084535 0.808569 0.940624
Si Si2 0.217294 0.773888 0.636459
Si Si3 0.912421 0.183074 0.712663
Si Si4 0.717624 0.387856 0.714600
Si Si5 0.628826 0.885008 0.379459
Si Si6 0.245253 0.613677 0.559392
Si Si7 0.882052 0.612406 0.764112
O O1 0.092152 0.701090 0.913532
O O2 0.162282 0.871348 0.928467
O O3 0.000000 0.854230 0.927464
O O4 0.085989 0.794256 0.000000
O O5 0.141302 0.816577 0.663679
O O6 0.262197 0.698800 0.675267
O O7 0.278709 0.859783 0.621519
O O8 0.201607 0.700460 0.589934
O O9 0.862362 0.130095 0.756163
O O10 0.915530 0.299191 0.730908
O O11 0.000000 0.144311 0.706524
O O12 0.718831 0.500000 0.692286
O O13 0.788467 0.383449 0.754455
O O14 0.601366 0.873804 0.322274
O O15 0.613811 0.000000 0.394920
O O16 0.236920 0.626178 0.500000
O O17 0.221175 0.500000 0.572380
O O18 0.906904 0.500000 0.749492
#
# Coordination Sequence:
#
# PCOD9518100 Si02
#       7
#    16  16  16  16  16  16  16
#     4   9  19  33  47  69 102 131 158 200 250 293
#     4  10  18  35  53  72  98 132 167 208 248 295
#     4  11  21  32  48  74 102 127 159 204 251 298
#     4  10  18  32  52  72  95 131 168 199 243 294
#     4  10  18  30  51  69  88 128 174 204 233 285
#     4   9  18  33  55  79  99 128 171 210 245 291
#     4   9  17  32  50  66  90 126 164 197 231 282
#
# _framework density 18.321784999999998
#
# number of rings (size 3 to 8) (size 9 to 14) (size 15 to 20)
#    0.000    2.286    2.857    1.286    0.000    2.571 
#    0.000    3.571    0.000    2.143    0.000    1.000 
#    0.000    0.000    0.000    8.429    0.000    0.000 
#
# Total GULP energy -312335.695650 kJ/mol
# GULP energy per Si atom -5577.423137 kJ/mol
# Density = 1.828008 g / cm^3
# Si number density = 18.321785 Si / 1000 Ang^3
#
#
#
# Elastic Constant Matrix: (Units=GPa)
#
#
# Indices 1 2 3 4 5 6 
#
# 1 89.5392 -14.8388 5.3334 0.0000 0.0000 0.0000
# 2 -14.8388 37.2681 -2.9418 0.0000 0.0000 0.0000
# 3 5.3334 -2.9418 33.1551 0.0000 0.0000 0.0000
# 4 0.0000 0.0000 0.0000 22.3281 0.0000 0.0000
# 5 0.0000 0.0000 0.0000 0.0000 12.5595 0.0000
# 6 0.0000 0.0000 0.0000 0.0000 0.0000 5.4120
#
#
#
# Elastic Compliance Matrix: (Units=1/GPa)
#
#
# Indices 1 2 3 4 5 6 
#
# 1 0.012033 0.004671 -0.001521 0.000000 0.000000 0.000000
# 2 0.004671 0.028835 0.001807 0.000000 0.000000 0.000000
# 3 -0.001521 0.001807 0.030566 0.000000 0.000000 0.000000
# 4 0.000000 0.000000 0.000000 0.044787 0.000000 0.000000
# 5 0.000000 0.000000 0.000000 0.000000 0.079621 0.000000
# 6 0.000000 0.000000 0.000000 0.000000 0.000000 0.184775
#
#
# Mechanical properties :
#
#
# Convention : Reuss Voigt Hill
#
# Bulk Modulus (GPa) = 12.29283 15.00755 13.65019
# Shear Modulus (GPa) = 12.56852 19.55389 16.06121
#
# Velocity S-wave (km/s) = 2.62198 3.27042 2.96399
# Velocity P-wave (km/s) = 3.98627 4.74023 4.37950
#
# Compressibility (1/GPa) = 0.08134826
#
# Stress axis : x y z
#
# Youngs Moduli (GPa) = 83.10472 34.67993 32.71578
#
# Poissons Ratio (x) = -0.16199 0.04977
# Poissons Ratio (y) = -0.38819 -0.05912
# Poissons Ratio (z) = 0.12642 -0.06267
#
# Static dielectric constant tensor:
#      x y z
#    x 1.662310 0.000000 0.000000 
#    y 0.000000 1.640170 0.000000 
#    z 0.000000 0.000000 1.633330 
# 
# From -- ./inp_files/70057.got.cif
#   From: 2010.05.17/outbox.cif.g08.bks.cpg/sg71_36_cif.got.tgz:70057.got - 2010.06.03 16:22:01.
