data_PCOD9518794
_publ_section_title
;
Structure prediction by ZEFSAII (Michael W. Deem and Ramdas Pophale) SiO2 
 PCOD9518794
Probable space group: I M M M
;
_chemical_formula_sum "Si O2"
_cell_formula_units_Z 88
_cell_length_a 18.691432
_cell_length_b 21.664421
_cell_length_c 10.036940
_cell_angle_alpha 90.000000
_cell_angle_beta 90.000000
_cell_angle_gamma 90.000000
_cell_volume 4064.348968
_symmetry_space_group_name_H-M "I M M M"
_symmetry_group_IT_number 71
_symmetry_cell_setting 'orthorhombic'
loop_
_space_group_symop_operation_xyz
x,y,z
-x,-y,z
x,-y,-z
-x,y,-z
-x,-y,-z
x,y,-z
-x,y,z
x,-y,z
1/2+x,1/2+y,1/2+z
1/2-x,1/2-y,1/2+z
1/2+x,1/2-y,1/2-z
1/2-x,1/2+y,1/2-z
1/2-x,1/2-y,1/2-z
1/2+x,1/2+y,1/2-z
1/2-x,1/2+y,1/2+z
1/2+x,1/2-y,1/2+z
loop_
_atom_site_type_symbol
_atom_site_label
_atom_site_fract_x
_atom_site_fract_y
_atom_site_fract_z
Si Si1 0.581612 0.243830 0.857229
Si Si2 0.080891 0.406510 0.652885
Si Si3 0.367965 0.425507 0.154279
Si Si4 0.187196 0.257717 0.853877
Si Si5 0.796737 0.403110 0.851200
Si Si6 0.000000 0.924539 0.844171
O O1 0.500000 0.263438 0.859309
O O2 0.582596 0.168835 0.851601
O O3 0.619416 0.267216 0.725570
O O4 0.616252 0.260952 0.000000
O O5 0.090225 0.426692 0.500000
O O6 0.145049 0.428069 0.747343
O O7 0.000000 0.423337 0.696747
O O8 0.368469 0.500000 0.152629
O O9 0.286525 0.406676 0.191166
O O10 0.429683 0.406437 0.257821
O O11 0.381805 0.405396 0.000000
O O12 0.250000 0.250000 0.750000
O O13 0.182243 0.331428 0.865852
O O14 0.198360 0.230734 0.000000
O O15 0.800814 0.430480 0.000000
O O16 0.000000 0.000000 0.847661
O O17 0.000000 0.904099 0.000000
#
# Coordination Sequence:
#
# PCOD9518794 Si02
#       6
#    16  16  16  16  16   8
#     4   8  14  26  44  64  85 110 144 185 226 266
#     4   8  14  25  42  65  91 119 151 185 223 267
#     4   9  17  31  51  72  95 123 155 192 235 282
#     4  10  19  30  45  65  91 120 152 188 226 272
#     4   9  18  30  46  70  94 118 153 193 231 273
#     4   9  17  29  47  73  99 121 151 191 233 279
#
# _framework density 21.651686000000002
#
# number of rings (size 3 to 8) (size 9 to 14) (size 15 to 20)
#    0.000    3.182    0.000    1.909    0.000    3.273 
#    0.000    3.636    2.000    0.545    0.000    3.818 
#    0.000    0.000    0.000    0.000    0.000    0.000 
#
# Total GULP energy -245308.703437 kJ/mol
# GULP energy per Si atom -5575.197805 kJ/mol
# Density = 2.160241 g / cm^3
# Si number density = 21.651686 Si / 1000 Ang^3
#
#
#
# Elastic Constant Matrix: (Units=GPa)
#
#
# Indices 1 2 3 4 5 6 
#
# 1 179.1983 -1.7948 132.9674 0.0000 0.0000 0.0000
# 2 -1.7948 62.5263 2.5698 0.0000 0.0000 0.0000
# 3 132.9674 2.5698 199.0788 0.0000 0.0000 0.0000
# 4 0.0000 0.0000 0.0000 -1.6975 0.0000 0.0000
# 5 0.0000 0.0000 0.0000 0.0000 39.6267 0.0000
# 6 0.0000 0.0000 0.0000 0.0000 0.0000 -7.4717
#
#
#
# Elastic Compliance Matrix: (Units=1/GPa)
#
#
# Indices 1 2 3 4 5 6 
#
# 1 0.011088 0.000623 -0.007414 0.000000 0.000000 0.000000
# 2 0.000623 0.016037 -0.000623 0.000000 0.000000 0.000000
# 3 -0.007414 -0.000623 0.009983 0.000000 0.000000 0.000000
# 4 0.000000 0.000000 0.000000 -0.589108 0.000000 0.000000
# 5 0.000000 0.000000 0.000000 0.000000 0.025236 0.000000
# 6 0.000000 0.000000 0.000000 0.000000 0.000000 -0.133838
#
#
# Mechanical properties :
#
#
# Convention : Reuss Voigt Hill
#
# Bulk Modulus (GPa) = 44.88385 78.69870 61.79127
# Shear Modulus (GPa) = -7.83271 26.56224 9.36477
#
# Velocity S-wave (km/s) = -1.90406 3.50637 2.08197
# Velocity P-wave (km/s) = 3.99262 7.26769 5.86346
#
# Compressibility (1/GPa) = 0.02227973
#
# Stress axis : x y z
#
# Youngs Moduli (GPa) = 90.19032 62.35674 100.17178
#
# Poissons Ratio (x) = -0.03885 0.74264
# Poissons Ratio (y) = -0.05618 0.06242
# Poissons Ratio (z) = 0.66864 0.03885
#
# Static dielectric constant tensor:
#      x y z
#    x 1.820880 0.000000 0.000000 
#    y 0.000000 1.858910 0.000000 
#    z 0.000000 0.000000 1.803310 
# 
# From -- ./inp_files/8769.got.cif
#   From: 2010.05.17/outbox.cif.g08.bks.cpg/sg71_5_cif.got.tgz:8769.got - 2010.06.03 16:22:01.
