data_PCOD9518780
_publ_section_title
;
Structure prediction by ZEFSAII (Michael W. Deem and Ramdas Pophale) SiO2 
 PCOD9518780
Probable space group: I M M M
;
_chemical_formula_sum "Si O2"
_cell_formula_units_Z 96
_cell_length_a 27.402791
_cell_length_b 23.413385
_cell_length_c 8.928309
_cell_angle_alpha 90.000000
_cell_angle_beta 90.000000
_cell_angle_gamma 90.000000
_cell_volume 5728.332483
_symmetry_space_group_name_H-M "I M M M"
_symmetry_group_IT_number 71
_symmetry_cell_setting 'orthorhombic'
loop_
_space_group_symop_operation_xyz
x,y,z
-x,-y,z
x,-y,-z
-x,y,-z
-x,-y,-z
x,y,-z
-x,y,z
x,-y,z
1/2+x,1/2+y,1/2+z
1/2-x,1/2-y,1/2+z
1/2+x,1/2-y,1/2-z
1/2-x,1/2+y,1/2-z
1/2-x,1/2-y,1/2-z
1/2+x,1/2+y,1/2-z
1/2-x,1/2+y,1/2+z
1/2+x,1/2-y,1/2+z
loop_
_atom_site_type_symbol
_atom_site_label
_atom_site_fract_x
_atom_site_fract_y
_atom_site_fract_z
Si Si1 0.715231 0.066873 0.820086
Si Si2 0.618790 0.665503 0.822899
Si Si3 0.673794 0.432340 0.679506
Si Si4 0.862582 0.351650 0.831677
Si Si5 0.557099 0.765762 0.319293
Si Si6 0.799620 0.237134 0.831114
O O1 0.770509 0.084972 0.772303
O O2 0.669996 0.102646 0.756081
O O3 0.710192 0.000000 0.780568
O O4 0.714641 0.071408 0.000000
O O5 0.630286 0.603162 0.755633
O O6 0.577940 0.706941 0.750384
O O7 0.668236 0.697411 0.773744
O O8 0.612170 0.663199 0.000000
O O9 0.671037 0.424226 0.500000
O O10 0.669751 0.500000 0.709245
O O11 0.911741 0.321543 0.768092
O O12 0.827999 0.296486 0.843292
O O13 0.872892 0.373358 0.000000
O O14 0.564297 0.762306 0.500000
O O15 0.500000 0.771946 0.287968
O O16 0.750000 0.250000 0.750000
O O17 0.793981 0.213502 0.000000
#
# Coordination Sequence:
#
# PCOD9518780 Si02
#       6
#    16  16  16  16  16  16
#     4   9  18  31  47  69  98 133 168 198 231 277
#     4  11  21  31  47  73 102 129 159 198 246 300
#     4   9  18  33  51  70  97 136 176 206 234 278
#     4   9  18  30  46  70  94 119 156 200 244 289
#     4   9  19  37  57  73  93 124 162 206 254 300
#     4  10  19  30  44  66  97 129 162 199 241 291
#
# _framework density 16.758803
#
# number of rings (size 3 to 8) (size 9 to 14) (size 15 to 20)
#    0.000    2.500    0.000    5.000    0.000    7.667 
#    0.000    1.667    0.000    1.000    0.000    7.000 
#    0.000    0.000    0.000    0.000    0.000    0.000 
#
# Total GULP energy -267258.946370 kJ/mol
# GULP energy per Si atom -5567.894716 kJ/mol
# Density = 1.672066 g / cm^3
# Si number density = 16.758803 Si / 1000 Ang^3
#
#
#
# Elastic Constant Matrix: (Units=GPa)
#
#
# Indices 1 2 3 4 5 6 
#
# 1 78.7926 22.9951 18.2947 0.0000 0.0000 0.0000
# 2 22.9951 69.5106 21.6123 0.0000 0.0000 0.0000
# 3 18.2947 21.6123 37.1682 0.0000 0.0000 0.0000
# 4 0.0000 0.0000 0.0000 26.3592 0.0000 0.0000
# 5 0.0000 0.0000 0.0000 0.0000 20.6891 0.0000
# 6 0.0000 0.0000 0.0000 0.0000 0.0000 25.3090
#
#
#
# Elastic Compliance Matrix: (Units=1/GPa)
#
#
# Indices 1 2 3 4 5 6 
#
# 1 0.014902 -0.003234 -0.005455 0.000000 0.000000 0.000000
# 2 -0.003234 0.018263 -0.009028 0.000000 0.000000 0.000000
# 3 -0.005455 -0.009028 0.034839 0.000000 0.000000 0.000000
# 4 0.000000 0.000000 0.000000 0.037937 0.000000 0.000000
# 5 0.000000 0.000000 0.000000 0.000000 0.048335 0.000000
# 6 0.000000 0.000000 0.000000 0.000000 0.000000 0.039512
#
#
# Mechanical properties :
#
#
# Convention : Reuss Voigt Hill
#
# Bulk Modulus (GPa) = 30.70161 34.58619 32.64390
# Shear Modulus (GPa) = 20.82669 22.64274 21.73472
#
# Velocity S-wave (km/s) = 3.52906 3.67971 3.60518
# Velocity P-wave (km/s) = 5.91314 6.22384 6.07047
#
# Compressibility (1/GPa) = 0.03257158
#
# Stress axis : x y z
#
# Youngs Moduli (GPa) = 67.10602 54.75549 28.70359
#
# Poissons Ratio (x) = 0.17707 0.15656
# Poissons Ratio (y) = 0.21701 0.25913
# Poissons Ratio (z) = 0.36603 0.49432
#
# Static dielectric constant tensor:
#      x y z
#    x 1.573460 0.000000 0.000000 
#    y 0.000000 1.563890 0.000000 
#    z 0.000000 0.000000 1.582660 
# 
# From -- ./inp_files/10923.got.cif
#   From: 2010.05.17/outbox.cif.g08.bks.cpg/sg71_6_cif.got.tgz:10923.got - 2010.06.03 16:22:01.
