data_PCOD9518675
_publ_section_title
;
Structure prediction by ZEFSAII (Michael W. Deem and Ramdas Pophale) SiO2 
 PCOD9518675
Probable space group: I M M M
;
_chemical_formula_sum "Si O2"
_cell_formula_units_Z 72
_cell_length_a 29.286163
_cell_length_b 17.226962
_cell_length_c 8.840941
_cell_angle_alpha 90.000000
_cell_angle_beta 90.000000
_cell_angle_gamma 90.000000
_cell_volume 4460.357441
_symmetry_space_group_name_H-M "I M M M"
_symmetry_group_IT_number 71
_symmetry_cell_setting 'orthorhombic'
loop_
_space_group_symop_operation_xyz
x,y,z
-x,-y,z
x,-y,-z
-x,y,-z
-x,-y,-z
x,y,-z
-x,y,z
x,-y,z
1/2+x,1/2+y,1/2+z
1/2-x,1/2-y,1/2+z
1/2+x,1/2-y,1/2-z
1/2-x,1/2+y,1/2-z
1/2-x,1/2-y,1/2-z
1/2+x,1/2+y,1/2-z
1/2-x,1/2+y,1/2+z
1/2+x,1/2-y,1/2+z
loop_
_atom_site_type_symbol
_atom_site_label
_atom_site_fract_x
_atom_site_fract_y
_atom_site_fract_z
Si Si1 0.052961 0.836170 0.680496
Si Si2 0.944577 0.000000 0.172210
Si Si3 0.193364 0.912780 0.682731
Si Si4 0.778219 0.321503 0.818622
Si Si5 0.637537 0.268444 0.681018
O O1 0.055675 0.837773 0.500000
O O2 0.087713 0.773583 0.746835
O O3 0.000000 0.823544 0.724233
O O4 0.067647 0.920819 0.742981
O O5 0.000000 0.000000 0.167773
O O6 0.927569 0.000000 0.000000
O O7 0.187613 0.906196 0.500000
O O8 0.246990 0.895648 0.718435
O O9 0.164183 0.845513 0.761415
O O10 0.180656 0.000000 0.727969
O O11 0.750000 0.250000 0.750000
O O12 0.830476 0.304726 0.772990
O O13 0.777586 0.315012 0.000000
O O14 0.633834 0.270850 0.500000
#
# Coordination Sequence:
#
# PCOD9518675 Si02
#       5
#    16   8  16  16  16
#     4  10  20  32  44  58  79 108 142 176 208 245
#     4   9  17  29  43  57  75 101 133 171 211 241
#     4   9  17  29  45  63  84 110 140 173 207 247
#     4   8  15  28  43  60  81 107 137 168 207 249
#     4  10  19  29  43  61  84 112 141 174 209 247
#
# _framework density 16.142204
#
# number of rings (size 3 to 8) (size 9 to 14) (size 15 to 20)
#    0.000    2.778    0.000    1.667    1.556    4.000 
#    0.000    0.000    0.000    0.000    0.000    0.000 
#    0.000    0.889    0.000   11.111    0.000    1.778 
#
# Total GULP energy -200426.520470 kJ/mol
# GULP energy per Si atom -5567.403346 kJ/mol
# Density = 1.610546 g / cm^3
# Si number density = 16.142204 Si / 1000 Ang^3
#
#
#
# Elastic Constant Matrix: (Units=GPa)
#
#
# Indices 1 2 3 4 5 6 
#
# 1 95.0673 9.2423 23.6817 0.0000 0.0000 0.0000
# 2 9.2423 13.1822 2.9137 0.0000 0.0000 0.0000
# 3 23.6817 2.9137 28.0206 0.0000 0.0000 0.0000
# 4 0.0000 0.0000 0.0000 12.4210 0.0000 0.0000
# 5 0.0000 0.0000 0.0000 0.0000 24.6027 0.0000
# 6 0.0000 0.0000 0.0000 0.0000 0.0000 27.2509
#
#
#
# Elastic Compliance Matrix: (Units=1/GPa)
#
#
# Indices 1 2 3 4 5 6 
#
# 1 0.013989 -0.007364 -0.011057 0.000000 0.000000 0.000000
# 2 -0.007364 0.081521 -0.002253 0.000000 0.000000 0.000000
# 3 -0.011057 -0.002253 0.045267 0.000000 0.000000 0.000000
# 4 0.000000 0.000000 0.000000 0.080509 0.000000 0.000000
# 5 0.000000 0.000000 0.000000 0.000000 0.040646 0.000000
# 6 0.000000 0.000000 0.000000 0.000000 0.000000 0.036696
#
#
# Mechanical properties :
#
#
# Convention : Reuss Voigt Hill
#
# Bulk Modulus (GPa) = 10.05746 23.10506 16.58126
# Shear Modulus (GPa) = 13.40050 19.55041 16.47545
#
# Velocity S-wave (km/s) = 2.88436 3.48391 3.19822
# Velocity P-wave (km/s) = 4.16375 5.52522 4.89208
#
# Compressibility (1/GPa) = 0.09942873
#
# Stress axis : x y z
#
# Youngs Moduli (GPa) = 71.48367 12.26678 22.09094
#
# Poissons Ratio (x) = 0.09033 0.24427
# Poissons Ratio (y) = 0.52641 0.04977
# Poissons Ratio (z) = 0.79042 0.02764
#
# Static dielectric constant tensor:
#      x y z
#    x 1.612750 0.000000 0.000000 
#    y 0.000000 1.523800 0.000000 
#    z 0.000000 0.000000 1.540900 
# 
# From -- ./inp_files/8190.got.cif
#   From: 2010.05.17/outbox.cif.g08.bks.cpg/sg71_5_cif.got.tgz:8190.got - 2010.06.03 16:22:01.
