data_PCOD9518863
_publ_section_title
;
Structure prediction by ZEFSAII (Michael W. Deem and Ramdas Pophale) SiO2 
 PCOD9518863
Probable space group: I M M M
;
_chemical_formula_sum "Si O2"
_cell_formula_units_Z 112
_cell_length_a 15.995137
_cell_length_b 13.520495
_cell_length_c 31.778859
_cell_angle_alpha 90.000000
_cell_angle_beta 90.000000
_cell_angle_gamma 90.000000
_cell_volume 6872.565002
_symmetry_space_group_name_H-M "I M M M"
_symmetry_group_IT_number 71
_symmetry_cell_setting 'orthorhombic'
loop_
_space_group_symop_operation_xyz
x,y,z
-x,-y,z
x,-y,-z
-x,y,-z
-x,-y,-z
x,y,-z
-x,y,z
x,-y,z
1/2+x,1/2+y,1/2+z
1/2-x,1/2-y,1/2+z
1/2+x,1/2-y,1/2-z
1/2-x,1/2+y,1/2-z
1/2-x,1/2-y,1/2-z
1/2+x,1/2+y,1/2-z
1/2-x,1/2+y,1/2+z
1/2+x,1/2-y,1/2+z
loop_
_atom_site_type_symbol
_atom_site_label
_atom_site_fract_x
_atom_site_fract_y
_atom_site_fract_z
Si Si1 0.906723 0.620931 0.114324
Si Si2 0.732516 0.879792 0.547397
Si Si3 0.908520 0.881289 0.237816
Si Si4 0.354236 0.698698 0.173724
Si Si5 0.678575 0.116183 0.304020
Si Si6 0.091435 0.881196 0.413506
Si Si7 0.723933 0.882196 0.209492
O O1 0.904071 0.500000 0.114805
O O2 0.835095 0.653788 0.081904
O O3 0.886635 0.655797 0.161883
O O4 0.000000 0.650086 0.101563
O O5 0.712614 0.847216 0.500000
O O6 0.826938 0.851777 0.560083
O O7 0.730073 0.000000 0.547594
O O8 0.901375 0.831074 0.283538
O O9 0.823507 0.859264 0.212020
O O10 0.000000 0.857287 0.219347
O O11 0.905107 0.000000 0.244564
O O12 0.269115 0.634355 0.175565
O O13 0.401702 0.670784 0.131713
O O14 0.323331 0.811837 0.177075
O O15 0.687131 0.147590 0.255565
O O16 0.662594 0.000000 0.300823
O O17 0.000000 0.860576 0.432553
O O18 0.096605 0.000000 0.407048
O O19 0.713659 0.000000 0.203384
#
# Coordination Sequence:
#
# PCOD9518863 Si02
#       7
#    16  16  16  16  16  16  16
#     4   9  16  26  41  61  87 122 157 180 203 246
#     4   9  17  29  44  63  90 120 146 176 215 260
#     4   9  16  26  42  64  85 106 142 190 231 266
#     4  11  17  27  44  61  85 116 151 188 225 263
#     4   9  15  26  42  60  85 116 149 186 222 254
#     4  10  19  30  47  69  90 115 148 184 224 269
#     4   9  19  31  43  59  83 120 157 190 229 265
#
# _framework density 16.296681
#
# number of rings (size 3 to 8) (size 9 to 14) (size 15 to 20)
#    0.000    2.571    1.429    4.286    0.000    1.714 
#    0.000    6.429    0.000    3.429    0.000    0.000 
#    0.000    0.571    0.000    1.286    0.000    1.857 
#
# Total GULP energy -311813.579598 kJ/mol
# GULP energy per Si atom -5568.099636 kJ/mol
# Density = 1.625959 g / cm^3
# Si number density = 16.296681 Si / 1000 Ang^3
#
#
#
# Elastic Constant Matrix: (Units=GPa)
#
#
# Indices 1 2 3 4 5 6 
#
# 1 97.0857 8.0119 28.5175 0.0000 0.0000 0.0000
# 2 8.0119 29.2301 5.1304 0.0000 0.0000 0.0000
# 3 28.5175 5.1304 40.3850 0.0000 0.0000 0.0000
# 4 0.0000 0.0000 0.0000 9.1510 0.0000 0.0000
# 5 0.0000 0.0000 0.0000 0.0000 6.0681 0.0000
# 6 0.0000 0.0000 0.0000 0.0000 0.0000 10.6468
#
#
#
# Elastic Compliance Matrix: (Units=1/GPa)
#
#
# Indices 1 2 3 4 5 6 
#
# 1 0.013111 -0.002014 -0.009002 0.000000 0.000000 0.000000
# 2 -0.002014 0.035301 -0.003063 0.000000 0.000000 0.000000
# 3 -0.009002 -0.003063 0.031508 0.000000 0.000000 0.000000
# 4 0.000000 0.000000 0.000000 0.109278 0.000000 0.000000
# 5 0.000000 0.000000 0.000000 0.000000 0.164796 0.000000
# 6 0.000000 0.000000 0.000000 0.000000 0.000000 0.093925
#
#
# Mechanical properties :
#
#
# Convention : Reuss Voigt Hill
#
# Bulk Modulus (GPa) = 19.31915 27.78005 23.54960
# Shear Modulus (GPa) = 10.13522 13.50923 11.82222
#
# Velocity S-wave (km/s) = 2.49654 2.88228 2.69632
# Velocity P-wave (km/s) = 4.49340 5.30662 4.91685
#
# Compressibility (1/GPa) = 0.05176212
#
# Stress axis : x y z
#
# Youngs Moduli (GPa) = 76.27419 28.32803 31.73846
#
# Poissons Ratio (x) = 0.05704 0.28571
# Poissons Ratio (y) = 0.15358 0.09720
# Poissons Ratio (z) = 0.68663 0.08676
#
# Static dielectric constant tensor:
#      x y z
#    x 1.600640 0.000000 0.000000 
#    y 0.000000 1.544520 0.000000 
#    z 0.000000 0.000000 1.548270 
# 
# From -- ./inp_files/70064.got.cif
#   From: 2010.05.17/outbox.cif.g08.bks.cpg/sg71_36_cif.got.tgz:70064.got - 2010.06.03 16:22:01.
