data_PCOD9518042
_publ_section_title
;
Structure prediction by ZEFSAII (Michael W. Deem and Ramdas Pophale) SiO2 
 PCOD9518042
Probable space group: I M M M
;
_chemical_formula_sum "Si O2"
_cell_formula_units_Z 72
_cell_length_a 28.943640
_cell_length_b 8.057215
_cell_length_c 16.480370
_cell_angle_alpha 90.000000
_cell_angle_beta 90.000000
_cell_angle_gamma 90.000000
_cell_volume 3843.306834
_symmetry_space_group_name_H-M "I M M M"
_symmetry_group_IT_number 71
_symmetry_cell_setting 'orthorhombic'
loop_
_space_group_symop_operation_xyz
x,y,z
-x,-y,z
x,-y,-z
-x,y,-z
-x,-y,-z
x,y,-z
-x,y,z
x,-y,z
1/2+x,1/2+y,1/2+z
1/2-x,1/2-y,1/2+z
1/2+x,1/2-y,1/2-z
1/2-x,1/2+y,1/2-z
1/2-x,1/2-y,1/2-z
1/2+x,1/2+y,1/2-z
1/2-x,1/2+y,1/2+z
1/2+x,1/2-y,1/2+z
loop_
_atom_site_type_symbol
_atom_site_label
_atom_site_fract_x
_atom_site_fract_y
_atom_site_fract_z
Si Si1 0.552970 0.300520 0.673658
Si Si2 0.053189 0.697757 0.000000
Si Si3 0.391449 0.308100 0.000000
Si Si4 0.779360 0.801797 0.327736
Si Si5 0.287931 0.807551 0.000000
Si Si6 0.613656 0.296243 0.824444
O O1 0.500000 0.237494 0.678153
O O2 0.551210 0.500000 0.678571
O O3 0.573315 0.255812 0.585542
O O4 0.583366 0.239969 0.748724
O O5 0.052097 0.500000 0.000000
O O6 0.000000 0.762956 0.000000
O O7 0.335280 0.299321 0.000000
O O8 0.404722 0.236994 0.087629
O O9 0.406183 0.500000 0.000000
O O10 0.750000 0.750000 0.250000
O O11 0.763120 0.731674 0.415011
O O12 0.832759 0.746484 0.316627
O O13 0.778943 0.000000 0.333682
O O14 0.301317 0.000000 0.000000
O O15 0.613003 0.500000 0.825913
#
# Coordination Sequence:
#
# PCOD9518042 Si02
#       6
#    16   8   8  16   8  16
#     4   9  16  28  47  69  91 118 153 187 221 269
#     4   9  17  29  44  63  88 119 153 188 228 270
#     4   8  14  28  47  65  91 126 157 184 222 272
#     4  10  19  33  51  71  96 125 158 195 236 280
#     4  10  18  30  49  72  95 123 160 195 232 279
#     4   8  15  28  47  69  93 121 150 185 228 270
#
# _framework density 18.733865999999999
#
# number of rings (size 3 to 8) (size 9 to 14) (size 15 to 20)
#    0.000    3.000    0.000    3.333    0.000    1.333 
#    0.000    7.222    0.000    6.000    0.000    0.000 
#    0.000   17.778    0.000    0.000    0.000    0.000 
#
# Total GULP energy -200462.183920 kJ/mol
# GULP energy per Si atom -5568.393998 kJ/mol
# Density = 1.869123 g / cm^3
# Si number density = 18.733866 Si / 1000 Ang^3
#
#
#
# Elastic Constant Matrix: (Units=GPa)
#
#
# Indices 1 2 3 4 5 6 
#
# 1 40.9284 7.7937 68.0494 0.0000 0.0000 0.0000
# 2 7.7937 29.3742 14.5156 0.0000 0.0000 0.0000
# 3 68.0494 14.5156 242.6502 0.0000 0.0000 0.0000
# 4 0.0000 0.0000 0.0000 14.0830 0.0000 0.0000
# 5 0.0000 0.0000 0.0000 0.0000 33.2598 0.0000
# 6 0.0000 0.0000 0.0000 0.0000 0.0000 9.8375
#
#
#
# Elastic Compliance Matrix: (Units=1/GPa)
#
#
# Indices 1 2 3 4 5 6 
#
# 1 0.046820 -0.006115 -0.012765 0.000000 0.000000 0.000000
# 2 -0.006115 0.035879 -0.000431 0.000000 0.000000 0.000000
# 3 -0.012765 -0.000431 0.007727 0.000000 0.000000 0.000000
# 4 0.000000 0.000000 0.000000 0.071008 0.000000 0.000000
# 5 0.000000 0.000000 0.000000 0.000000 0.030066 0.000000
# 6 0.000000 0.000000 0.000000 0.000000 0.000000 0.101652
#
#
# Mechanical properties :
#
#
# Convention : Reuss Voigt Hill
#
# Bulk Modulus (GPa) = 19.30340 54.85224 37.07782
# Shear Modulus (GPa) = 14.32492 26.27566 20.30029
#
# Velocity S-wave (km/s) = 2.76824 3.74916 3.29540
# Velocity P-wave (km/s) = 4.53254 6.93433 5.85785
#
# Compressibility (1/GPa) = 0.05180434
#
# Stress axis : x y z
#
# Youngs Moduli (GPa) = 21.35827 27.87135 129.42138
#
# Poissons Ratio (x) = 0.17043 1.65201
# Poissons Ratio (y) = 0.13060 0.05584
# Poissons Ratio (z) = 0.27263 0.01203
#
# Static dielectric constant tensor:
#      x y z
#    x 1.635160 0.000000 0.000000 
#    y 0.000000 1.676430 0.000000 
#    z 0.000000 0.000000 1.696880 
# 
# From -- ./inp_files/31719.got.cif
#   From: 2010.05.17/outbox.cif.g08.bks.cpg/sg71_16_cif.got.tgz:31719.got - 2010.06.03 16:22:01.
