data_PCOD9518171
_publ_section_title
;
Structure prediction by ZEFSAII (Michael W. Deem and Ramdas Pophale) SiO2 
 PCOD9518171
Probable space group: I M M M
;
_chemical_formula_sum "Si O2"
_cell_formula_units_Z 100
_cell_length_a 36.816977
_cell_length_b 20.771353
_cell_length_c 8.596629
_cell_angle_alpha 90.000000
_cell_angle_beta 90.000000
_cell_angle_gamma 90.000000
_cell_volume 6574.172527
_symmetry_space_group_name_H-M "I M M M"
_symmetry_group_IT_number 71
_symmetry_cell_setting 'orthorhombic'
loop_
_space_group_symop_operation_xyz
x,y,z
-x,-y,z
x,-y,-z
-x,y,-z
-x,-y,-z
x,y,-z
-x,y,z
x,-y,z
1/2+x,1/2+y,1/2+z
1/2-x,1/2-y,1/2+z
1/2+x,1/2-y,1/2-z
1/2-x,1/2+y,1/2-z
1/2-x,1/2-y,1/2-z
1/2+x,1/2+y,1/2-z
1/2-x,1/2+y,1/2+z
1/2+x,1/2-y,1/2+z
loop_
_atom_site_type_symbol
_atom_site_label
_atom_site_fract_x
_atom_site_fract_y
_atom_site_fract_z
Si Si1 0.285839 0.287439 0.688658
Si Si2 0.352628 0.198672 0.687771
Si Si3 0.500000 0.000000 0.750811
Si Si4 0.730907 0.429816 0.312637
Si Si5 0.500000 0.855237 0.672506
Si Si6 0.417885 0.000000 0.173630
Si Si7 0.578089 0.143079 0.814069
Si Si8 0.812653 0.430480 0.187417
O O1 0.283841 0.285235 0.500000
O O2 0.250000 0.250000 0.750000
O O3 0.323203 0.252205 0.735290
O O4 0.285824 0.362054 0.740467
O O5 0.355269 0.200103 0.500000
O O6 0.392728 0.195183 0.757349
O O7 0.334862 0.130969 0.738362
O O8 0.500000 0.932979 0.661886
O O9 0.461966 0.000000 0.840232
O O10 0.729291 0.429756 0.500000
O O11 0.716310 0.500000 0.259015
O O12 0.772744 0.427609 0.259893
O O13 0.500000 0.827308 0.500000
O O14 0.462451 0.839980 0.758964
O O15 0.411260 0.070564 0.248556
O O16 0.401668 0.000000 0.000000
O O17 0.578407 0.138185 0.000000
O O18 0.829258 0.500000 0.228406
O O19 0.809155 0.427617 0.000000
#
# Coordination Sequence:
#
# PCOD9518171 Si02
#       8
#    16  16   4  16   8   8  16  16
#     4  10  19  31  46  63  86 115 146 181 221 264
#     4  10  20  31  42  60  84 111 144 180 219 260
#     4   8  14  24  42  64  79 102 139 174 213 260
#     4   9  17  29  45  64  83 108 144 183 221 261
#     4  10  18  31  48  63  82 107 137 176 218 260
#     4   8  15  27  41  58  81 106 137 178 221 256
#     4  10  20  32  45  62  82 109 142 178 217 259
#     4   9  17  28  41  58  82 111 142 179 220 262
#
# _framework density 15.211039
#
# number of rings (size 3 to 8) (size 9 to 14) (size 15 to 20)
#    0.000    2.560    1.600    0.960    1.120    3.200 
#    0.000    0.800    0.000    0.000    0.000    0.000 
#    0.000    0.000    0.000    0.720    0.000   16.960 
#
# Total GULP energy -278339.129283 kJ/mol
# GULP energy per Si atom -5566.782586 kJ/mol
# Density = 1.517642 g / cm^3
# Si number density = 15.211039 Si / 1000 Ang^3
#
#
#
# Elastic Constant Matrix: (Units=GPa)
#
#
# Indices 1 2 3 4 5 6 
#
# 1 98.3892 55.5411 16.7308 0.0000 0.0000 0.0000
# 2 55.5411 101.1967 14.3108 0.0000 0.0000 0.0000
# 3 16.7308 14.3108 15.9350 0.0000 0.0000 0.0000
# 4 0.0000 0.0000 0.0000 7.4478 0.0000 0.0000
# 5 0.0000 0.0000 0.0000 0.0000 19.1366 0.0000
# 6 0.0000 0.0000 0.0000 0.0000 0.0000 26.3739
#
#
#
# Elastic Compliance Matrix: (Units=1/GPa)
#
#
# Indices 1 2 3 4 5 6 
#
# 1 0.016066 -0.007368 -0.010252 0.000000 0.000000 0.000000
# 2 -0.007368 0.014698 -0.005464 0.000000 0.000000 0.000000
# 3 -0.010252 -0.005464 0.078426 0.000000 0.000000 0.000000
# 4 0.000000 0.000000 0.000000 0.134267 0.000000 0.000000
# 5 0.000000 0.000000 0.000000 0.000000 0.052256 0.000000
# 6 0.000000 0.000000 0.000000 0.000000 0.000000 0.037916
#
#
# Mechanical properties :
#
#
# Convention : Reuss Voigt Hill
#
# Bulk Modulus (GPa) = 15.86727 43.18738 29.52732
# Shear Modulus (GPa) = 12.47489 19.18754 15.83122
#
# Velocity S-wave (km/s) = 2.86688 3.55550 3.22960
# Velocity P-wave (km/s) = 4.62739 6.73121 5.77590
#
# Compressibility (1/GPa) = 0.06302282
#
# Stress axis : x y z
#
# Youngs Moduli (GPa) = 62.24192 68.03452 12.75090
#
# Poissons Ratio (x) = 0.50129 0.13072
# Poissons Ratio (y) = 0.45861 0.06967
# Poissons Ratio (z) = 0.63808 0.37175
#
# Static dielectric constant tensor:
#      x y z
#    x 1.510150 0.000000 0.000000 
#    y 0.000000 1.537360 0.000000 
#    z 0.000000 0.000000 1.536370 
# 
# From -- ./inp_files/17107.got.cif
#   From: 2010.05.17/outbox.cif.g08.bks.cpg/sg71_9_cif.got.tgz:17107.got - 2010.06.03 16:22:01.
