data_PCOD9518423
_publ_section_title
;
Structure prediction by ZEFSAII (Michael W. Deem and Ramdas Pophale) SiO2 
 PCOD9518423
Probable space group: I M M M
;
_chemical_formula_sum "Si O2"
_cell_formula_units_Z 104
_cell_length_a 24.485690
_cell_length_b 25.822030
_cell_length_c 9.394256
_cell_angle_alpha 90.000000
_cell_angle_beta 90.000000
_cell_angle_gamma 90.000000
_cell_volume 5939.708324
_symmetry_space_group_name_H-M "I M M M"
_symmetry_group_IT_number 71
_symmetry_cell_setting 'orthorhombic'
loop_
_space_group_symop_operation_xyz
x,y,z
-x,-y,z
x,-y,-z
-x,y,-z
-x,-y,-z
x,y,-z
-x,y,z
x,-y,z
1/2+x,1/2+y,1/2+z
1/2-x,1/2-y,1/2+z
1/2+x,1/2-y,1/2-z
1/2-x,1/2+y,1/2-z
1/2-x,1/2-y,1/2-z
1/2+x,1/2+y,1/2-z
1/2-x,1/2+y,1/2+z
1/2+x,1/2-y,1/2+z
loop_
_atom_site_type_symbol
_atom_site_label
_atom_site_fract_x
_atom_site_fract_y
_atom_site_fract_z
Si Si1 0.346998 0.354592 0.837362
Si Si2 0.892888 0.939295 0.832988
Si Si3 0.062340 0.230909 0.327889
Si Si4 0.500000 0.562782 0.840481
Si Si5 0.769109 0.300040 0.163648
Si Si6 0.375596 0.163217 0.172718
Si Si7 0.563409 0.942007 0.172859
O O1 0.347581 0.402896 0.732322
O O2 0.391195 0.311164 0.787727
O O3 0.286095 0.333188 0.841248
O O4 0.362184 0.369646 0.000000
O O5 0.946842 0.922978 0.747133
O O6 0.883063 0.000000 0.807314
O O7 0.900801 0.932067 0.000000
O O8 0.060468 0.228942 0.500000
O O9 0.084127 0.288526 0.291993
O O10 0.000000 0.221453 0.276613
O O11 0.500000 0.500000 0.848863
O O12 0.500000 0.584131 0.000000
O O13 0.750000 0.250000 0.250000
O O14 0.818990 0.326274 0.247004
O O15 0.784902 0.288028 0.000000
O O16 0.401410 0.107899 0.215096
O O17 0.367975 0.163970 0.000000
O O18 0.500000 0.935469 0.215882
O O19 0.581502 0.000000 0.218496
O O20 0.563910 0.942143 0.000000
#
# Coordination Sequence:
#
# PCOD9518423 Si02
#       7
#    16  16  16   8  16  16  16
#     4  10  21  36  54  77 103 136 182 224 264 323
#     4  10  21  36  53  76 106 136 170 217 271 320
#     4   9  17  30  50  78 108 137 174 221 266 314
#     4   9  17  31  53  77 101 137 179 211 248 305
#     4  11  22  38  57  78 105 141 184 226 269 324
#     4  10  18  32  55  82 111 145 183 224 271 320
#     4   8  14  26  49  84 120 150 184 227 272 321
#
# _framework density 17.509277000000001
#
# number of rings (size 3 to 8) (size 9 to 14) (size 15 to 20)
#    0.000    2.385    1.538    2.077    1.077    4.923 
#    0.000    0.769    0.000    6.000    0.000    1.077 
#    0.000    0.000    0.000    0.000    0.000    0.000 
#
# Total GULP energy -289768.223756 kJ/mol
# GULP energy per Si atom -5572.465841 kJ/mol
# Density = 1.746943 g / cm^3
# Si number density = 17.509277 Si / 1000 Ang^3
#
#
#
# Elastic Constant Matrix: (Units=GPa)
#
#
# Indices 1 2 3 4 5 6 
#
# 1 96.1827 45.8699 32.7961 0.0000 0.0000 0.0000
# 2 45.8699 99.0580 54.4225 0.0000 0.0000 0.0000
# 3 32.7961 54.4225 59.9668 0.0000 0.0000 0.0000
# 4 0.0000 0.0000 0.0000 17.6071 0.0000 0.0000
# 5 0.0000 0.0000 0.0000 0.0000 26.6680 0.0000
# 6 0.0000 0.0000 0.0000 0.0000 0.0000 30.5851
#
#
#
# Elastic Compliance Matrix: (Units=1/GPa)
#
#
# Indices 1 2 3 4 5 6 
#
# 1 0.013694 -0.004441 -0.003459 0.000000 0.000000 0.000000
# 2 -0.004441 0.021574 -0.017151 0.000000 0.000000 0.000000
# 3 -0.003459 -0.017151 0.034133 0.000000 0.000000 0.000000
# 4 0.000000 0.000000 0.000000 0.056795 0.000000 0.000000
# 5 0.000000 0.000000 0.000000 0.000000 0.037498 0.000000
# 6 0.000000 0.000000 0.000000 0.000000 0.000000 0.032696
#
#
# Mechanical properties :
#
#
# Convention : Reuss Voigt Hill
#
# Bulk Modulus (GPa) = 51.81453 57.93163 54.87308
# Shear Modulus (GPa) = 19.76871 23.11330 21.44101
#
# Velocity S-wave (km/s) = 3.36377 3.63721 3.50316
# Velocity P-wave (km/s) = 6.68905 7.12721 6.91160
#
# Compressibility (1/GPa) = 0.01929961
#
# Stress axis : x y z
#
# Youngs Moduli (GPa) = 73.02349 46.35193 29.29729
#
# Poissons Ratio (x) = 0.20584 0.10135
# Poissons Ratio (y) = 0.32428 0.50247
# Poissons Ratio (z) = 0.25261 0.79497
#
# Static dielectric constant tensor:
#      x y z
#    x 1.591290 0.000000 0.000000 
#    y 0.000000 1.617610 0.000000 
#    z 0.000000 0.000000 1.602050 
# 
# From -- ./inp_files/15289.got.cif
#   From: 2010.05.17/outbox.cif.g08.bks.cpg/sg71_8_cif.got.tgz:15289.got - 2010.06.03 16:22:01.
