data_PCOD9518694
_publ_section_title
;
Structure prediction by ZEFSAII (Michael W. Deem and Ramdas Pophale) SiO2 
 PCOD9518694
Probable space group: I M M M
;
_chemical_formula_sum "Si O2"
_cell_formula_units_Z 96
_cell_length_a 7.456131
_cell_length_b 26.304457
_cell_length_c 24.492585
_cell_angle_alpha 90.000000
_cell_angle_beta 90.000000
_cell_angle_gamma 90.000000
_cell_volume 4803.717893
_symmetry_space_group_name_H-M "I M M M"
_symmetry_group_IT_number 71
_symmetry_cell_setting 'orthorhombic'
loop_
_space_group_symop_operation_xyz
x,y,z
-x,-y,z
x,-y,-z
-x,y,-z
-x,-y,-z
x,y,-z
-x,y,z
x,-y,z
1/2+x,1/2+y,1/2+z
1/2-x,1/2-y,1/2+z
1/2+x,1/2-y,1/2-z
1/2-x,1/2+y,1/2-z
1/2-x,1/2-y,1/2-z
1/2+x,1/2+y,1/2-z
1/2-x,1/2+y,1/2+z
1/2+x,1/2-y,1/2+z
loop_
_atom_site_type_symbol
_atom_site_label
_atom_site_fract_x
_atom_site_fract_y
_atom_site_fract_z
Si Si1 0.713571 0.154133 0.383022
Si Si2 0.719364 0.189856 0.500000
Si Si3 0.214521 0.250482 0.814060
Si Si4 0.218544 0.191394 0.000000
Si Si5 0.215004 0.057136 0.688388
Si Si6 0.219449 0.847157 0.117510
Si Si7 0.281276 0.441938 0.312100
O O1 0.500000 0.161083 0.386100
O O2 0.780983 0.162877 0.444425
O O3 0.784327 0.198763 0.343535
O O4 0.742171 0.099718 0.355665
O O5 0.500000 0.189347 0.500000
O O6 0.772218 0.249277 0.500000
O O7 0.250000 0.250000 0.750000
O O8 0.278832 0.199941 0.844747
O O9 0.000000 0.250354 0.820545
O O10 0.276153 0.163952 0.944399
O O11 0.000000 0.191572 0.000000
O O12 0.276000 0.070882 0.749949
O O13 0.000000 0.054692 0.691209
O O14 0.280026 0.000000 0.675678
O O15 0.278473 0.899794 0.144871
O O16 0.000000 0.847545 0.117488
O O17 0.500000 0.441457 0.312358
O O18 0.226415 0.500000 0.323747
#
# Coordination Sequence:
#
# PCOD9518694 Si02
#       7
#    16   8  16   8  16  16  16
#     4  10  19  31  49  71  93 119 156 199 238 277
#     4   9  16  30  46  63  91 123 154 190 233 282
#     4  10  19  29  44  68  94 120 152 192 236 280
#     4   9  14  24  41  60  85 121 156 183 220 273
#     4   9  18  33  51  69  93 126 157 187 231 286
#     4   9  15  24  40  62  87 116 152 188 223 267
#     4   8  14  25  41  61  87 120 154 186 224 271
#
# _framework density 19.984521000000001
#
# number of rings (size 3 to 8) (size 9 to 14) (size 15 to 20)
#    0.000    2.833    1.667    2.000    0.000    2.333 
#    0.000    1.250    0.000    5.000    0.000    0.583 
#    0.000    0.000    0.000    0.000    0.000   27.833 
#
# Total GULP energy -267878.879936 kJ/mol
# GULP energy per Si atom -5580.809999 kJ/mol
# Density = 1.993904 g / cm^3
# Si number density = 19.984521 Si / 1000 Ang^3
#
#
#
# Elastic Constant Matrix: (Units=GPa)
#
#
# Indices 1 2 3 4 5 6 
#
# 1 57.0234 3.0463 4.4349 0.0000 0.0000 0.0000
# 2 3.0463 173.7377 143.1835 0.0000 0.0000 0.0000
# 3 4.4349 143.1835 227.5404 0.0000 0.0000 0.0000
# 4 0.0000 0.0000 0.0000 28.7388 0.0000 0.0000
# 5 0.0000 0.0000 0.0000 0.0000 13.0047 0.0000
# 6 0.0000 0.0000 0.0000 0.0000 0.0000 3.1129
#
#
#
# Elastic Compliance Matrix: (Units=1/GPa)
#
#
# Indices 1 2 3 4 5 6 
#
# 1 0.017564 -0.000054 -0.000309 0.000000 0.000000 0.000000
# 2 -0.000054 0.011957 -0.007523 0.000000 0.000000 0.000000
# 3 -0.000309 -0.007523 0.009135 0.000000 0.000000 0.000000
# 4 0.000000 0.000000 0.000000 0.034796 0.000000 0.000000
# 5 0.000000 0.000000 0.000000 0.000000 0.076895 0.000000
# 6 0.000000 0.000000 0.000000 0.000000 0.000000 0.321243
#
#
# Mechanical properties :
#
#
# Convention : Reuss Voigt Hill
#
# Bulk Modulus (GPa) = 43.69733 84.40344 64.05039
# Shear Modulus (GPa) = 10.10127 29.48042 19.79084
#
# Velocity S-wave (km/s) = 2.25067 3.84495 3.15033
# Velocity P-wave (km/s) = 5.35417 7.87640 6.73442
#
# Compressibility (1/GPa) = 0.02288469
#
# Stress axis : x y z
#
# Youngs Moduli (GPa) = 56.93623 83.63607 109.47278
#
# Poissons Ratio (x) = 0.00449 0.03378
# Poissons Ratio (y) = 0.00306 0.82354
# Poissons Ratio (z) = 0.01757 0.62918
#
# Static dielectric constant tensor:
#      x y z
#    x 1.815260 0.000000 0.000000 
#    y 0.000000 1.692760 0.000000 
#    z 0.000000 0.000000 1.681110 
# 
# From -- ./inp_files/52059.got.cif
#   From: 2010.05.17/outbox.cif.g08.bks.cpg/sg71_27_cif.got.tgz:52059.got - 2010.06.03 16:22:01.
