data_PCOD9518566
_publ_section_title
;
Structure prediction by ZEFSAII (Michael W. Deem and Ramdas Pophale) SiO2 
 PCOD9518566
Probable space group: I M M M
;
_chemical_formula_sum "Si O2"
_cell_formula_units_Z 88
_cell_length_a 15.473482
_cell_length_b 21.001345
_cell_length_c 14.869054
_cell_angle_alpha 90.000000
_cell_angle_beta 90.000000
_cell_angle_gamma 90.000000
_cell_volume 4831.906280
_symmetry_space_group_name_H-M "I M M M"
_symmetry_group_IT_number 71
_symmetry_cell_setting 'orthorhombic'
loop_
_space_group_symop_operation_xyz
x,y,z
-x,-y,z
x,-y,-z
-x,y,-z
-x,-y,-z
x,y,-z
-x,y,z
x,-y,z
1/2+x,1/2+y,1/2+z
1/2-x,1/2-y,1/2+z
1/2+x,1/2-y,1/2-z
1/2-x,1/2+y,1/2-z
1/2-x,1/2-y,1/2-z
1/2+x,1/2+y,1/2-z
1/2-x,1/2+y,1/2+z
1/2+x,1/2-y,1/2+z
loop_
_atom_site_type_symbol
_atom_site_label
_atom_site_fract_x
_atom_site_fract_y
_atom_site_fract_z
Si Si1 0.224505 0.892839 0.346175
Si Si2 0.647629 0.069392 0.500000
Si Si3 0.000000 0.575070 0.391843
Si Si4 0.101814 0.000000 0.283311
Si Si5 0.746937 0.245245 0.640659
Si Si6 0.400572 0.785604 0.500000
Si Si7 0.699439 0.500000 0.404122
Si Si8 0.688386 0.118810 0.150712
O O1 0.289484 0.926028 0.414543
O O2 0.143184 0.937591 0.328964
O O3 0.205092 0.821336 0.380078
O O4 0.276229 0.885313 0.252565
O O5 0.598083 0.136904 0.500000
O O6 0.603435 0.000000 0.500000
O O7 0.086942 0.606132 0.354358
O O8 0.000000 0.500000 0.369805
O O9 0.000000 0.580992 0.500000
O O10 0.136115 0.000000 0.180637
O O11 0.000000 0.000000 0.287666
O O12 0.750000 0.250000 0.750000
O O13 0.655251 0.236655 0.587908
O O14 0.788105 0.312025 0.611762
O O15 0.500000 0.762913 0.500000
O O16 0.653465 0.500000 0.500000
O O17 0.761034 0.561609 0.397678
#
# Coordination Sequence:
#
# PCOD9518566 Si02
#       8
#    16   8   8   8  16   8   8  16
#     4   9  19  38  59  82 112 155 192 231 299 344
#     4  10  18  35  64  84 115 155 188 237 300 352
#     4  11  22  34  54  89 115 144 198 239 278 340
#     4  10  20  36  59  83 113 149 198 244 279 339
#     4   9  20  40  61  82 117 161 193 235 309 356
#     4  10  22  39  64  94 120 151 208 251 284 361
#     4  10  20  34  59  81 114 152 185 227 300 353
#     4  10  20  37  59  81 113 156 187 234 291 357
#
# _framework density 18.212274000000001
#
# number of rings (size 3 to 8) (size 9 to 14) (size 15 to 20)
#    0.000    2.273    1.818    0.545    2.545    0.364 
#   16.364    8.182    0.000    0.000    0.000    0.000 
#    0.000    0.000    0.000    0.000    0.000    0.000 
#
# Total GULP energy -245103.942185 kJ/mol
# GULP energy per Si atom -5570.544141 kJ/mol
# Density = 1.817082 g / cm^3
# Si number density = 18.212274 Si / 1000 Ang^3
#
#
#
# Elastic Constant Matrix: (Units=GPa)
#
#
# Indices 1 2 3 4 5 6 
#
# 1 152.1381 69.5226 29.1884 0.0000 0.0000 0.0000
# 2 69.5226 172.2822 21.7074 0.0000 0.0000 0.0000
# 3 29.1884 21.7074 74.8206 -0.0001 0.0000 0.0000
# 4 0.0000 0.0000 -0.0001 5.5637 0.0000 0.0000
# 5 0.0000 0.0000 0.0000 0.0000 0.4756 0.0000
# 6 0.0000 0.0000 0.0000 0.0000 0.0000 13.6766
#
#
#
# Elastic Compliance Matrix: (Units=1/GPa)
#
#
# Indices 1 2 3 4 5 6 
#
# 1 0.008454 -0.003109 -0.002396 0.000000 0.000000 0.000000
# 2 -0.003109 0.007168 -0.000867 0.000000 0.000000 0.000000
# 3 -0.002396 -0.000867 0.014551 0.000000 0.000000 0.000000
# 4 0.000000 0.000000 0.000000 0.179736 -0.000002 0.000000
# 5 0.000000 0.000000 0.000000 -0.000002 2.102521 0.000000
# 6 0.000000 0.000000 0.000000 0.000000 0.000000 0.073118
#
#
# Mechanical properties :
#
#
# Convention : Reuss Voigt Hill
#
# Bulk Modulus (GPa) = 57.37373 71.11974 64.24673
# Shear Modulus (GPa) = 2.07978 22.53135 12.30557
#
# Velocity S-wave (km/s) = 1.06979 3.52113 2.60219
# Velocity P-wave (km/s) = 5.75301 7.46099 6.66196
#
# Compressibility (1/GPa) = 0.01742958
#
# Stress axis : x y z
#
# Youngs Moduli (GPa) = 118.29364 139.50051 68.72217
#
# Poissons Ratio (x) = 0.43377 0.16464
# Poissons Ratio (y) = 0.36783 0.05956
# Poissons Ratio (z) = 0.28339 0.12091
#
# Static dielectric constant tensor:
#      x y z
#    x 1.564910 0.000000 0.000000 
#    y 0.000000 1.666060 0.000000 
#    z 0.000000 0.000000 1.750580 
# 
# From -- ./inp_files/34465.got.cif
#   From: 2010.05.17/outbox.cif.g08.bks.cpg/sg71_18_cif.got.tgz:34465.got - 2010.06.03 16:22:01.
