data_PCOD9518005
_publ_section_title
;
Structure prediction by ZEFSAII (Michael W. Deem and Ramdas Pophale) SiO2 
 PCOD9518005
Probable space group: I M M M
;
_chemical_formula_sum "Si O2"
_cell_formula_units_Z 120
_cell_length_a 8.450075
_cell_length_b 27.574513
_cell_length_c 28.717363
_cell_angle_alpha 90.000000
_cell_angle_beta 90.000000
_cell_angle_gamma 90.000000
_cell_volume 6691.338070
_symmetry_space_group_name_H-M "I M M M"
_symmetry_group_IT_number 71
_symmetry_cell_setting 'orthorhombic'
loop_
_space_group_symop_operation_xyz
x,y,z
-x,-y,z
x,-y,-z
-x,y,-z
-x,-y,-z
x,y,-z
-x,y,z
x,-y,z
1/2+x,1/2+y,1/2+z
1/2-x,1/2-y,1/2+z
1/2+x,1/2-y,1/2-z
1/2-x,1/2+y,1/2-z
1/2-x,1/2-y,1/2-z
1/2+x,1/2+y,1/2-z
1/2-x,1/2+y,1/2+z
1/2+x,1/2-y,1/2+z
loop_
_atom_site_type_symbol
_atom_site_label
_atom_site_fract_x
_atom_site_fract_y
_atom_site_fract_z
Si Si1 0.811334 0.905230 0.390683
Si Si2 0.691475 0.796816 0.052801
Si Si3 0.189279 0.739362 0.301554
Si Si4 0.193026 0.797757 0.608350
Si Si5 0.688163 0.057719 0.704230
Si Si6 0.806160 0.000000 0.554092
Si Si7 0.191324 0.555670 0.690161
Si Si8 0.187528 0.851348 0.858777
O O1 0.749516 0.851731 0.402875
O O2 0.776766 0.914654 0.336484
O O3 0.000000 0.904531 0.397987
O O4 0.749643 0.951295 0.419788
O O5 0.500000 0.798055 0.053639
O O6 0.740395 0.743741 0.071878
O O7 0.752631 0.834944 0.090553
O O8 0.744460 0.804945 0.000000
O O9 0.250000 0.750000 0.250000
O O10 0.242158 0.778906 0.340355
O O11 0.243394 0.687602 0.321941
O O12 0.000000 0.739832 0.300746
O O13 0.000000 0.798945 0.608440
O O14 0.500000 0.066893 0.700453
O O15 0.739426 0.069168 0.756869
O O16 0.712408 0.000000 0.697757
O O17 0.761860 0.000000 0.500000
O O18 0.000000 0.000000 0.556249
O O19 0.240626 0.500000 0.681286
O O20 0.256908 0.595241 0.655204
O O21 0.000000 0.556489 0.689308
O O22 0.000000 0.848236 0.857231
#
# Coordination Sequence:
#
# PCOD9518005 Si02
#       8
#    16  16  16  16  16   8  16  16
#     4  10  18  30  48  71 100 133 171 218 267 318
#     4   9  18  36  60  80 101 137 183 227 274 327
#     4  10  20  35  51  73 107 144 184 226 272 327
#     4   8  17  31  48  73 102 130 170 222 266 314
#     4   9  18  32  49  70  98 134 175 215 257 307
#     4   9  18  30  45  69  99 131 169 215 268 319
#     4   9  19  36  56  79 109 146 184 221 262 314
#     4  11  22  35  54  82 114 146 179 220 272 326
#
# _framework density 17.933631999999999
#
# number of rings (size 3 to 8) (size 9 to 14) (size 15 to 20)
#    0.000    2.600    0.667    3.200    1.867    1.600 
#    0.000    6.667    0.000    1.200    0.000    2.800 
#    0.000    0.000    0.000    0.000    0.000    0.000 
#
# Total GULP energy -334636.677824 kJ/mol
# GULP energy per Si atom -5577.277964 kJ/mol
# Density = 1.789281 g / cm^3
# Si number density = 17.933632 Si / 1000 Ang^3
#
#
#
# Elastic Constant Matrix: (Units=GPa)
#
#
# Indices 1 2 3 4 5 6 
#
# 1 19.6230 17.6463 21.3055 0.0000 0.0000 0.0000
# 2 17.6463 126.2002 78.1186 0.0000 0.0000 0.0000
# 3 21.3055 78.1186 137.9653 0.0000 0.0000 0.0000
# 4 0.0000 0.0000 0.0000 12.1660 0.0000 0.0000
# 5 0.0000 0.0000 0.0000 0.0000 23.1849 0.0000
# 6 0.0000 0.0000 0.0000 0.0000 0.0000 11.3539
#
#
#
# Elastic Compliance Matrix: (Units=1/GPa)
#
#
# Indices 1 2 3 4 5 6 
#
# 1 0.062685 -0.004269 -0.007263 0.000000 0.000000 0.000000
# 2 -0.004269 0.012491 -0.006413 0.000000 0.000000 0.000000
# 3 -0.007263 -0.006413 0.012001 0.000000 0.000000 0.000000
# 4 0.000000 0.000000 0.000000 0.082196 0.000000 0.000000
# 5 0.000000 0.000000 0.000000 0.000000 0.043131 0.000000
# 6 0.000000 0.000000 0.000000 0.000000 0.000000 0.088075
#
#
# Mechanical properties :
#
#
# Convention : Reuss Voigt Hill
#
# Bulk Modulus (GPa) = 19.49839 57.54773 38.52306
# Shear Modulus (GPa) = 14.14161 20.45551 17.29856
#
# Velocity S-wave (km/s) = 2.81116 3.38097 3.10915
# Velocity P-wave (km/s) = 4.62958 6.88478 5.86657
#
# Compressibility (1/GPa) = 0.05128628
#
# Stress axis : x y z
#
# Youngs Moduli (GPa) = 15.95266 80.05974 83.32617
#
# Poissons Ratio (x) = 0.34181 0.60519
# Poissons Ratio (y) = 0.06811 0.53438
# Poissons Ratio (z) = 0.11586 0.51343
#
# Static dielectric constant tensor:
#      x y z
#    x 1.612730 0.000000 0.000000 
#    y 0.000000 1.621470 0.000000 
#    z 0.000000 0.000000 1.603360 
# 
# From -- ./inp_files/63809.got.cif
#   From: 2010.05.17/outbox.cif.g08.bks.cpg/sg71_32_cif.got.tgz:63809.got - 2010.06.03 16:22:01.
