data_PCOD9518099
_publ_section_title
;
Structure prediction by ZEFSAII (Michael W. Deem and Ramdas Pophale) SiO2 
 PCOD9518099
Probable space group: I M M M
;
_chemical_formula_sum "Si O2"
_cell_formula_units_Z 96
_cell_length_a 15.399242
_cell_length_b 17.775987
_cell_length_c 18.220102
_cell_angle_alpha 90.000000
_cell_angle_beta 90.000000
_cell_angle_gamma 90.000000
_cell_volume 4987.511062
_symmetry_space_group_name_H-M "I M M M"
_symmetry_group_IT_number 71
_symmetry_cell_setting 'orthorhombic'
loop_
_space_group_symop_operation_xyz
x,y,z
-x,-y,z
x,-y,-z
-x,y,-z
-x,-y,-z
x,y,-z
-x,y,z
x,-y,z
1/2+x,1/2+y,1/2+z
1/2-x,1/2-y,1/2+z
1/2+x,1/2-y,1/2-z
1/2-x,1/2+y,1/2-z
1/2-x,1/2-y,1/2-z
1/2+x,1/2+y,1/2-z
1/2-x,1/2+y,1/2+z
1/2+x,1/2-y,1/2+z
loop_
_atom_site_type_symbol
_atom_site_label
_atom_site_fract_x
_atom_site_fract_y
_atom_site_fract_z
Si Si1 0.102316 0.500000 0.756095
Si Si2 0.654192 0.000000 0.578885
Si Si3 0.838655 0.214609 0.718901
Si Si4 0.740575 0.836716 0.417186
Si Si5 0.895393 0.410157 0.500000
Si Si6 0.601564 0.867551 0.843260
Si Si7 0.394714 0.585733 0.500000
Si Si8 0.897703 0.205519 0.123238
O O1 0.108652 0.500000 0.842893
O O2 0.139682 0.573417 0.715350
O O3 0.000000 0.500000 0.742470
O O4 0.707017 0.922074 0.580028
O O5 0.605873 0.000000 0.500000
O O6 0.750000 0.250000 0.750000
O O7 0.811443 0.167527 0.647600
O O8 0.891540 0.285022 0.688194
O O9 0.884141 0.182995 0.791553
O O10 0.770976 0.816779 0.500000
O O11 0.662695 0.777832 0.396427
O O12 0.883300 0.500000 0.500000
O O13 0.858994 0.376757 0.575698
O O14 0.000000 0.396639 0.500000
O O15 0.500000 0.885678 0.851558
O O16 0.360554 0.500000 0.500000
O O17 0.500000 0.580685 0.500000
O O18 0.371969 0.636377 0.570643
O O19 0.000000 0.223408 0.111034
#
# Coordination Sequence:
#
# PCOD9518099 Si02
#       8
#     8   8  16  16   8  16   8  16
#     4  10  18  30  50  78 113 142 168 219 274 327
#     4  10  22  37  53  73  99 144 191 230 272 330
#     4  10  21  34  52  77 109 146 182 225 272 328
#     4  10  21  38  57  77 109 146 187 230 281 330
#     4   9  16  30  49  77 112 144 176 214 266 323
#     4  10  19  32  54  80 109 144 183 222 269 331
#     4   9  18  34  59  88 115 144 180 225 277 335
#     4  10  19  36  61  85 114 146 179 226 284 336
#
# _framework density 19.248078
#
# number of rings (size 3 to 8) (size 9 to 14) (size 15 to 20)
#    0.000    2.167    1.667    2.500    1.167    2.167 
#    1.500    1.667    5.500    4.000    0.000    0.000 
#    0.000    8.000    0.000    0.000    0.000    0.000 
#
# Total GULP energy -267372.529427 kJ/mol
# GULP energy per Si atom -5570.261030 kJ/mol
# Density = 1.920427 g / cm^3
# Si number density = 19.248078 Si / 1000 Ang^3
#
#
#
# Elastic Constant Matrix: (Units=GPa)
#
#
# Indices 1 2 3 4 5 6 
#
# 1 15.0821 14.0157 31.3433 0.0000 0.0000 0.0000
# 2 14.0157 112.8575 71.2210 0.0000 0.0000 0.0000
# 3 31.3433 71.2210 204.0638 0.0000 0.0000 0.0000
# 4 0.0000 0.0000 0.0000 14.0125 0.0000 0.0000
# 5 0.0000 0.0000 0.0000 0.0000 24.8913 0.0000
# 6 0.0000 0.0000 0.0000 0.0000 0.0000 3.9035
#
#
#
# Elastic Compliance Matrix: (Units=1/GPa)
#
#
# Indices 1 2 3 4 5 6 
#
# 1 0.098422 -0.003441 -0.013916 0.000000 0.000000 0.000000
# 2 -0.003441 0.011484 -0.003480 0.000000 0.000000 0.000000
# 3 -0.013916 -0.003480 0.008252 0.000000 0.000000 0.000000
# 4 0.000000 0.000000 0.000000 0.071365 0.000000 0.000000
# 5 0.000000 0.000000 0.000000 0.000000 0.040175 0.000000
# 6 0.000000 0.000000 0.000000 0.000000 0.000000 0.256180
#
#
# Mechanical properties :
#
#
# Convention : Reuss Voigt Hill
#
# Bulk Modulus (GPa) = 13.07450 62.79592 37.93521
# Shear Modulus (GPa) = 9.04085 22.92303 15.98194
#
# Velocity S-wave (km/s) = 2.16961 3.45472 2.88464
# Velocity P-wave (km/s) = 3.61713 6.97200 5.55394
#
# Compressibility (1/GPa) = 0.07648476
#
# Stress axis : x y z
#
# Youngs Moduli (GPa) = 10.16036 87.07869 121.17819
#
# Poissons Ratio (x) = 0.29962 1.68635
# Poissons Ratio (y) = 0.03496 0.42164
# Poissons Ratio (z) = 0.14139 0.30299
#
# Static dielectric constant tensor:
#      x y z
#    x 1.694810 0.000000 0.000000 
#    y 0.000000 1.682870 0.000000 
#    z 0.000000 0.000000 1.731010 
# 
# From -- ./inp_files/46100.got.cif
#   From: 2010.05.17/outbox.cif.g08.bks.cpg/sg71_24_cif.got.tgz:46100.got - 2010.06.03 16:22:01.
