data_PCOD9518895
_publ_section_title
;
Structure prediction by ZEFSAII (Michael W. Deem and Ramdas Pophale) SiO2 
 PCOD9518895
Probable space group: I M M M
;
_chemical_formula_sum "Si O2"
_cell_formula_units_Z 104
_cell_length_a 9.166629
_cell_length_b 20.266943
_cell_length_c 28.083631
_cell_angle_alpha 90.000000
_cell_angle_beta 90.000000
_cell_angle_gamma 90.000000
_cell_volume 5217.364258
_symmetry_space_group_name_H-M "I M M M"
_symmetry_group_IT_number 71
_symmetry_cell_setting 'orthorhombic'
loop_
_space_group_symop_operation_xyz
x,y,z
-x,-y,z
x,-y,-z
-x,y,-z
-x,-y,-z
x,y,-z
-x,y,z
x,-y,z
1/2+x,1/2+y,1/2+z
1/2-x,1/2-y,1/2+z
1/2+x,1/2-y,1/2-z
1/2-x,1/2+y,1/2-z
1/2-x,1/2-y,1/2-z
1/2+x,1/2+y,1/2-z
1/2-x,1/2+y,1/2+z
1/2+x,1/2-y,1/2+z
loop_
_atom_site_type_symbol
_atom_site_label
_atom_site_fract_x
_atom_site_fract_y
_atom_site_fract_z
Si Si1 0.833013 0.574223 0.907741
Si Si2 0.841596 0.000000 0.160535
Si Si3 0.678652 0.578920 0.500000
Si Si4 0.834739 0.133326 0.898165
Si Si5 0.667492 0.245270 0.150947
Si Si6 0.837515 0.182800 0.449797
Si Si7 0.324687 0.385552 0.187637
Si Si8 0.827624 0.500000 0.753259
O O1 0.819961 0.500000 0.925435
O O2 0.784210 0.627513 0.945693
O O3 0.726476 0.585391 0.863123
O O4 0.000000 0.584813 0.892062
O O5 0.838239 0.062692 0.126768
O O6 0.711978 0.000000 0.197939
O O7 0.000000 0.000000 0.186590
O O8 0.720616 0.500000 0.500000
O O9 0.500000 0.578564 0.500000
O O10 0.725411 0.617562 0.548472
O O11 0.759154 0.180008 0.858633
O O12 0.000000 0.158985 0.904775
O O13 0.500000 0.230033 0.163703
O O14 0.670838 0.273947 0.097077
O O15 0.715966 0.307102 0.184227
O O16 0.823554 0.219292 0.500000
O O17 0.000000 0.152108 0.448682
O O18 0.500000 0.388810 0.192518
O O19 0.245583 0.433731 0.224746
O O20 0.000000 0.500000 0.763121
#
# Coordination Sequence:
#
# PCOD9518895 Si02
#       8
#    16   8   8  16  16  16  16   8
#     4  10  19  30  47  73 104 136 178 238 295 336
#     4  10  22  41  62  88 120 157 195 234 290 365
#     4   9  16  32  59  91 123 158 203 248 287 341
#     4  10  20  36  61  89 121 159 200 244 291 346
#     4   9  20  36  56  82 115 154 195 242 293 347
#     4   9  19  34  48  66  99 146 195 235 280 344
#     4  10  20  37  60  83 111 153 197 235 286 360
#     4  12  24  38  63  95 120 145 188 252 306 349
#
# _framework density 19.933436
#
# number of rings (size 3 to 8) (size 9 to 14) (size 15 to 20)
#    0.000    2.231    1.538    2.538    1.077    5.231 
#    0.000    2.308    0.000    0.462    0.000    0.000 
#    0.000    0.000    0.000    0.000    0.000    0.000 
#
# Total GULP energy -289509.556596 kJ/mol
# GULP energy per Si atom -5567.491473 kJ/mol
# Density = 1.988807 g / cm^3
# Si number density = 19.933436 Si / 1000 Ang^3
#
#
#
# Elastic Constant Matrix: (Units=GPa)
#
#
# Indices 1 2 3 4 5 6 
#
# 1 58.8285 41.1901 2.6997 0.0000 0.0000 0.0000
# 2 41.1901 95.2656 -1.3847 0.0000 0.0000 0.0000
# 3 2.6997 -1.3847 45.4440 0.0000 0.0000 0.0000
# 4 0.0000 0.0000 0.0000 12.5767 0.0000 0.0000
# 5 0.0000 0.0000 0.0000 0.0000 10.6396 0.0000
# 6 0.0000 0.0000 0.0000 0.0000 0.0000 19.1106
#
#
#
# Elastic Compliance Matrix: (Units=1/GPa)
#
#
# Indices 1 2 3 4 5 6 
#
# 1 0.024522 -0.010629 -0.001781 0.000000 0.000000 0.000000
# 2 -0.010629 0.015108 0.001092 0.000000 0.000000 0.000000
# 3 -0.001781 0.001092 0.022144 0.000000 0.000000 0.000000
# 4 0.000000 0.000000 0.000000 0.079512 0.000000 0.000000
# 5 0.000000 0.000000 0.000000 0.000000 0.093988 0.000000
# 6 0.000000 0.000000 0.000000 0.000000 0.000000 0.052327
#
#
# Mechanical properties :
#
#
# Convention : Reuss Voigt Hill
#
# Bulk Modulus (GPa) = 25.54949 31.61648 28.58299
# Shear Modulus (GPa) = 15.46630 18.93424 17.20027
#
# Velocity S-wave (km/s) = 2.78852 3.08535 2.94068
# Velocity P-wave (km/s) = 4.81799 5.34677 5.08925
#
# Compressibility (1/GPa) = 0.03913972
#
# Stress axis : x y z
#
# Youngs Moduli (GPa) = 40.77956 66.18869 45.15864
#
# Poissons Ratio (x) = 0.70349 0.08041
# Poissons Ratio (y) = 0.43343 -0.04930
# Poissons Ratio (z) = 0.07262 -0.07226
#
# Static dielectric constant tensor:
#      x y z
#    x 1.732450 0.000000 0.000000 
#    y 0.000000 1.747640 0.000000 
#    z 0.000000 0.000000 1.704900 
# 
# From -- ./inp_files/68345.got.cif
#   From: 2010.05.17/outbox.cif.g08.bks.cpg/sg71_35_cif.got.tgz:68345.got - 2010.06.03 16:22:01.
