data_PCOD9518435
_publ_section_title
;
Structure prediction by ZEFSAII (Michael W. Deem and Ramdas Pophale) SiO2 
 PCOD9518435
Probable space group: I M M M
;
_chemical_formula_sum "Si O2"
_cell_formula_units_Z 72
_cell_length_a 24.233824
_cell_length_b 11.554203
_cell_length_c 14.197785
_cell_angle_alpha 90.000000
_cell_angle_beta 90.000000
_cell_angle_gamma 90.000000
_cell_volume 3975.415606
_symmetry_space_group_name_H-M "I M M M"
_symmetry_group_IT_number 71
_symmetry_cell_setting 'orthorhombic'
loop_
_space_group_symop_operation_xyz
x,y,z
-x,-y,z
x,-y,-z
-x,y,-z
-x,-y,-z
x,y,-z
-x,y,z
x,-y,z
1/2+x,1/2+y,1/2+z
1/2-x,1/2-y,1/2+z
1/2+x,1/2-y,1/2-z
1/2-x,1/2+y,1/2-z
1/2-x,1/2-y,1/2-z
1/2+x,1/2+y,1/2-z
1/2-x,1/2+y,1/2+z
1/2+x,1/2-y,1/2+z
loop_
_atom_site_type_symbol
_atom_site_label
_atom_site_fract_x
_atom_site_fract_y
_atom_site_fract_z
Si Si1 0.328073 0.864548 0.264828
Si Si2 0.263846 0.735675 0.886862
Si Si3 0.939583 0.000000 0.676823
Si Si4 0.563668 0.734264 0.700818
Si Si5 0.179330 0.000000 0.607044
Si Si6 0.066696 0.868086 0.000000
O O1 0.294535 0.837820 0.168747
O O2 0.296488 0.789350 0.344718
O O3 0.390910 0.820899 0.258507
O O4 0.325730 0.000000 0.288071
O O5 0.297163 0.619602 0.854039
O O6 0.264647 0.748375 0.000000
O O7 0.935927 0.885945 0.741433
O O8 0.886315 0.000000 0.611972
O O9 0.000000 0.000000 0.630414
O O10 0.500000 0.776831 0.701784
O O11 0.580245 0.700444 0.594506
O O12 0.199068 0.000000 0.500000
O O13 0.000000 0.877901 0.000000
O O14 0.088680 0.000000 0.000000
#
# Coordination Sequence:
#
# PCOD9518435 Si02
#       6
#    16  16   8  16   8   8
#     4  11  23  38  60  84 114 152 189 230 279 340
#     4  10  22  40  60  83 112 146 187 234 285 337
#     4  10  18  32  56  84 111 142 185 233 279 327
#     4  10  20  34  54  82 115 149 188 231 277 328
#     4  10  18  35  59  81 109 142 177 228 289 334
#     4   9  16  30  51  77 111 149 186 229 275 320
#
# _framework density 18.111314
#
# number of rings (size 3 to 8) (size 9 to 14) (size 15 to 20)
#    0.000    1.889    4.444    0.000    1.556    1.111 
#    0.000    0.000    0.000    2.667    0.000    1.556 
#    0.000    0.000    0.000    0.000    0.000    0.000 
#
# Total GULP energy -200635.570779 kJ/mol
# GULP energy per Si atom -5573.210299 kJ/mol
# Density = 1.807009 g / cm^3
# Si number density = 18.111314 Si / 1000 Ang^3
#
#
#
# Elastic Constant Matrix: (Units=GPa)
#
#
# Indices 1 2 3 4 5 6 
#
# 1 113.9503 29.3532 19.4257 0.0000 0.0000 0.0000
# 2 29.3532 46.6675 12.3465 0.0000 0.0000 0.0000
# 3 19.4257 12.3465 73.4266 0.0000 0.0000 0.0000
# 4 0.0000 0.0000 0.0000 13.4663 0.0000 0.0000
# 5 0.0000 0.0000 0.0000 0.0000 21.2767 0.0000
# 6 0.0000 0.0000 0.0000 0.0000 0.0000 15.3870
#
#
#
# Elastic Compliance Matrix: (Units=1/GPa)
#
#
# Indices 1 2 3 4 5 6 
#
# 1 0.010689 -0.006254 -0.001776 0.000000 0.000000 0.000000
# 2 -0.006254 0.026084 -0.002732 0.000000 0.000000 0.000000
# 3 -0.001776 -0.002732 0.014548 0.000000 0.000000 0.000000
# 4 0.000000 0.000000 0.000000 0.074260 0.000000 0.000000
# 5 0.000000 0.000000 0.000000 0.000000 0.047000 0.000000
# 6 0.000000 0.000000 0.000000 0.000000 0.000000 0.064990
#
#
# Mechanical properties :
#
#
# Convention : Reuss Voigt Hill
#
# Bulk Modulus (GPa) = 33.55830 39.58835 36.57332
# Shear Modulus (GPa) = 18.58547 21.55394 20.06970
#
# Velocity S-wave (km/s) = 3.20688 3.45350 3.33247
# Velocity P-wave (km/s) = 5.68166 6.14882 5.91985
#
# Compressibility (1/GPa) = 0.02979889
#
# Stress axis : x y z
#
# Youngs Moduli (GPa) = 93.54981 38.33731 68.73638
#
# Poissons Ratio (x) = 0.23974 0.12211
# Poissons Ratio (y) = 0.58502 0.18776
# Poissons Ratio (z) = 0.16619 0.10472
#
# Static dielectric constant tensor:
#      x y z
#    x 1.635690 0.000000 0.000000 
#    y 0.000000 1.625910 0.000000 
#    z 0.000000 0.000000 1.630650 
# 
# From -- ./inp_files/21829.got.cif
#   From: 2010.05.17/outbox.cif.g08.bks.cpg/sg71_11_cif.got.tgz:21829.got - 2010.06.03 16:22:01.
