data_PCOD9518266
_publ_section_title
;
Structure prediction by ZEFSAII (Michael W. Deem and Ramdas Pophale) SiO2 
 PCOD9518266
Probable space group: I M M M
;
_chemical_formula_sum "Si O2"
_cell_formula_units_Z 104
_cell_length_a 27.426363
_cell_length_b 9.257407
_cell_length_c 24.414515
_cell_angle_alpha 90.000000
_cell_angle_beta 90.000000
_cell_angle_gamma 90.000000
_cell_volume 6198.772233
_symmetry_space_group_name_H-M "I M M M"
_symmetry_group_IT_number 71
_symmetry_cell_setting 'orthorhombic'
loop_
_space_group_symop_operation_xyz
x,y,z
-x,-y,z
x,-y,-z
-x,y,-z
-x,-y,-z
x,y,-z
-x,y,z
x,-y,z
1/2+x,1/2+y,1/2+z
1/2-x,1/2-y,1/2+z
1/2+x,1/2-y,1/2-z
1/2-x,1/2+y,1/2-z
1/2-x,1/2-y,1/2-z
1/2+x,1/2+y,1/2-z
1/2-x,1/2+y,1/2+z
1/2+x,1/2-y,1/2+z
loop_
_atom_site_type_symbol
_atom_site_label
_atom_site_fract_x
_atom_site_fract_y
_atom_site_fract_z
Si Si1 0.000000 0.175042 0.436418
Si Si2 0.703023 0.830551 0.313959
Si Si3 0.943960 0.332346 0.235992
Si Si4 0.443342 0.160436 0.434664
Si Si5 0.684998 0.669720 0.800437
Si Si6 0.580700 0.673516 0.152823
Si Si7 0.881833 0.830602 0.855678
O O1 0.951408 0.214975 0.400780
O O2 0.000000 0.226288 0.500000
O O3 0.000000 0.000000 0.438789
O O4 0.687806 0.766825 0.254294
O O5 0.760685 0.813027 0.324279
O O6 0.671105 0.740978 0.356242
O O7 0.691766 0.000000 0.315472
O O8 0.928898 0.500000 0.239044
O O9 0.940553 0.257941 0.295156
O O10 0.911068 0.243969 0.194082
O O11 0.000000 0.327636 0.217482
O O12 0.440198 0.159886 0.500000
O O13 0.500000 0.178761 0.420038
O O14 0.411267 0.284272 0.408979
O O15 0.428089 0.000000 0.414371
O O16 0.679979 0.500000 0.784118
O O17 0.639262 0.701455 0.840517
O O18 0.574343 0.500000 0.159259
O O19 0.879397 0.000000 0.847610
#
# Coordination Sequence:
#
# PCOD9518266 Si02
#       7
#     8  16  16  16  16  16  16
#     4   9  18  32  53  81 109 139 174 211 258 313
#     4  10  19  31  48  71 103 139 175 215 261 313
#     4  11  22  33  47  72 105 137 170 209 261 318
#     4   9  19  37  58  77 100 134 174 214 259 310
#     4   9  18  31  48  73 103 136 174 216 260 313
#     4  10  18  31  52  76 103 135 169 211 260 312
#     4  12  23  33  49  75 106 139 176 215 258 308
#
# _framework density 16.777515999999999
#
# number of rings (size 3 to 8) (size 9 to 14) (size 15 to 20)
#    0.000    1.923    2.308    3.231    0.000    4.000 
#    0.000    0.769    0.000    1.846    0.000    4.308 
#    0.000    0.000    0.000    0.000    0.000    0.000 
#
# Total GULP energy -289853.334949 kJ/mol
# GULP energy per Si atom -5574.102595 kJ/mol
# Density = 1.673933 g / cm^3
# Si number density = 16.777516 Si / 1000 Ang^3
#
#
#
# Elastic Constant Matrix: (Units=GPa)
#
#
# Indices 1 2 3 4 5 6 
#
# 1 119.2011 55.6491 41.8880 0.0000 0.0000 0.0000
# 2 55.6491 82.8808 24.4249 0.0000 0.0000 0.0000
# 3 41.8880 24.4249 68.0685 0.0000 0.0000 0.0000
# 4 0.0000 0.0000 0.0000 20.4050 0.0000 0.0000
# 5 0.0000 0.0000 0.0000 0.0000 -8.7636 0.0000
# 6 0.0000 0.0000 0.0000 0.0000 0.0000 20.2681
#
#
#
# Elastic Compliance Matrix: (Units=1/GPa)
#
#
# Indices 1 2 3 4 5 6 
#
# 1 0.014052 -0.007701 -0.005884 0.000000 0.000000 0.000000
# 2 -0.007701 0.017713 -0.001617 0.000000 0.000000 0.000000
# 3 -0.005884 -0.001617 0.018892 0.000000 0.000000 0.000000
# 4 0.000000 0.000000 0.000000 0.049008 0.000000 0.000000
# 5 0.000000 0.000000 0.000000 0.000000 -0.114108 0.000000
# 6 0.000000 0.000000 0.000000 0.000000 0.000000 0.049339
#
#
# Mechanical properties :
#
#
# Convention : Reuss Voigt Hill
#
# Bulk Modulus (GPa) = 49.37467 57.11937 53.24702
# Shear Modulus (GPa) = 69.39642 16.26111 42.82877
#
# Velocity S-wave (km/s) = 6.43837 3.11661 5.05795
# Velocity P-wave (km/s) = 9.20668 6.86076 8.11890
#
# Compressibility (1/GPa) = 0.02025330
#
# Stress axis : x y z
#
# Youngs Moduli (GPa) = 71.16367 56.45655 52.93205
#
# Poissons Ratio (x) = 0.43478 0.31145
# Poissons Ratio (y) = 0.54804 0.08558
# Poissons Ratio (z) = 0.41873 0.09128
#
# Static dielectric constant tensor:
#      x y z
#    x 1.619820 0.000000 0.000000 
#    y 0.000000 1.562130 0.000000 
#    z 0.000000 0.000000 1.563620 
# 
# From -- ./inp_files/61961.got.cif
#   From: 2010.05.17/outbox.cif.g08.bks.cpg/sg71_31_cif.got.tgz:61961.got - 2010.06.03 16:22:01.
