data_PCOD9518015
_publ_section_title
;
Structure prediction by ZEFSAII (Michael W. Deem and Ramdas Pophale) SiO2 
 PCOD9518015
Probable space group: I M M M
;
_chemical_formula_sum "Si O2"
_cell_formula_units_Z 120
_cell_length_a 15.390501
_cell_length_b 23.554153
_cell_length_c 17.562423
_cell_angle_alpha 90.000000
_cell_angle_beta 90.000000
_cell_angle_gamma 90.000000
_cell_volume 6366.557743
_symmetry_space_group_name_H-M "I M M M"
_symmetry_group_IT_number 71
_symmetry_cell_setting 'orthorhombic'
loop_
_space_group_symop_operation_xyz
x,y,z
-x,-y,z
x,-y,-z
-x,y,-z
-x,-y,-z
x,y,-z
-x,y,z
x,-y,z
1/2+x,1/2+y,1/2+z
1/2-x,1/2-y,1/2+z
1/2+x,1/2-y,1/2-z
1/2-x,1/2+y,1/2-z
1/2-x,1/2-y,1/2-z
1/2+x,1/2+y,1/2-z
1/2-x,1/2+y,1/2+z
1/2+x,1/2-y,1/2+z
loop_
_atom_site_type_symbol
_atom_site_label
_atom_site_fract_x
_atom_site_fract_y
_atom_site_fract_z
Si Si1 0.311316 0.792183 0.089522
Si Si2 0.605939 0.000000 0.914075
Si Si3 0.898240 0.818223 0.656199
Si Si4 0.395829 0.108156 0.181711
Si Si5 0.893744 0.435194 0.153266
Si Si6 0.605772 0.436895 0.088995
Si Si7 0.604471 0.177121 0.418063
Si Si8 0.170758 0.768622 0.195506
O O1 0.344235 0.728281 0.107953
O O2 0.367777 0.833780 0.142562
O O3 0.214979 0.800182 0.124187
O O4 0.318763 0.803971 0.000000
O O5 0.633636 0.056526 0.871467
O O6 0.500000 0.000000 0.913422
O O7 0.635835 0.000000 0.000000
O O8 0.866760 0.881769 0.636650
O O9 0.888134 0.803276 0.745773
O O10 0.000000 0.813219 0.635288
O O11 0.500000 0.108337 0.185060
O O12 0.365541 0.091575 0.266022
O O13 0.864323 0.500000 0.143115
O O14 0.867188 0.388103 0.092333
O O15 0.000000 0.437223 0.153597
O O16 0.500000 0.437759 0.092251
O O17 0.635532 0.500000 0.113664
O O18 0.628978 0.429351 0.000000
O O19 0.637331 0.199229 0.500000
O O20 0.500000 0.177513 0.420322
O O21 0.629084 0.214136 0.344805
O O22 0.250000 0.750000 0.250000
#
# Coordination Sequence:
#
# PCOD9518015 Si02
#       8
#    16   8  16  16  16  16  16  16
#     4  11  22  33  49  72 103 138 168 209 260 311
#     4   9  16  26  42  66  97 131 168 212 257 302
#     4  10  19  32  53  78 101 129 170 213 251 301
#     4  10  18  30  48  73 102 134 171 212 256 304
#     4   9  16  28  47  72 101 131 166 209 256 300
#     4   8  14  26  47  77 109 132 151 189 250 310
#     4  10  20  34  54  77 101 132 173 220 261 303
#     4  10  21  36  51  69 100 135 169 206 256 307
#
# _framework density 18.848490000000002
#
# number of rings (size 3 to 8) (size 9 to 14) (size 15 to 20)
#    0.000    2.333    0.667    4.000    0.000    3.467 
#    0.000    1.333    1.467    3.200    0.000    0.000 
#    0.000    0.000    0.000    8.800    0.000    0.000 
#
# Total GULP energy -334413.392785 kJ/mol
# GULP energy per Si atom -5573.556546 kJ/mol
# Density = 1.880559 g / cm^3
# Si number density = 18.848490 Si / 1000 Ang^3
#
#
#
# Elastic Constant Matrix: (Units=GPa)
#
#
# Indices 1 2 3 4 5 6 
#
# 1 16.9786 3.1880 6.9383 0.0000 0.0000 0.0000
# 2 3.1880 135.8144 50.1668 0.0000 0.0000 0.0000
# 3 6.9383 50.1668 99.9765 -0.0001 0.0000 0.0000
# 4 0.0000 0.0000 -0.0001 30.5898 0.0000 0.0000
# 5 0.0000 0.0000 0.0000 0.0000 17.9297 0.0000
# 6 0.0000 0.0000 0.0000 0.0000 0.0000 -43.1699
#
#
#
# Elastic Compliance Matrix: (Units=1/GPa)
#
#
# Indices 1 2 3 4 5 6 
#
# 1 0.060620 0.000161 -0.004288 0.000000 0.000000 0.000000
# 2 0.000161 0.009039 -0.004547 0.000000 0.000000 0.000000
# 3 -0.004288 -0.004547 0.012581 0.000000 0.000000 0.000000
# 4 0.000000 0.000000 0.000000 0.032691 0.000000 0.000000
# 5 0.000000 0.000000 0.000000 0.000000 0.055773 0.000000
# 6 0.000000 0.000000 0.000000 0.000000 0.000000 -0.023164
#
#
# Mechanical properties :
#
#
# Convention : Reuss Voigt Hill
#
# Bulk Modulus (GPa) = 15.41008 41.48397 28.44702
# Shear Modulus (GPa) = 26.80724 13.90170 20.35447
#
# Velocity S-wave (km/s) = 3.77536 2.71873 3.28975
# Velocity P-wave (km/s) = 5.21517 5.64910 5.43646
#
# Compressibility (1/GPa) = 0.06489258
#
# Stress axis : x y z
#
# Youngs Moduli (GPa) = 16.49634 110.63622 79.48282
#
# Poissons Ratio (x) = -0.01779 0.34079
# Poissons Ratio (y) = -0.00265 0.36138
# Poissons Ratio (z) = 0.07073 0.50302
#
# Static dielectric constant tensor:
#      x y z
#    x 1.691310 0.000000 0.000000 
#    y 0.000000 1.686640 0.000000 
#    z 0.000000 0.000000 1.665540 
# 
# From -- ./inp_files/46456.got.cif
#   From: 2010.05.17/outbox.cif.g08.bks.cpg/sg71_24_cif.got.tgz:46456.got - 2010.06.03 16:22:01.
