data_PCOD9518620
_publ_section_title
;
Structure prediction by ZEFSAII (Michael W. Deem and Ramdas Pophale) SiO2 
 PCOD9518620
Probable space group: I M M M
;
_chemical_formula_sum "Si O2"
_cell_formula_units_Z 64
_cell_length_a 21.300266
_cell_length_b 9.697347
_cell_length_c 14.204454
_cell_angle_alpha 90.000000
_cell_angle_beta 90.000000
_cell_angle_gamma 90.000000
_cell_volume 2934.016203
_symmetry_space_group_name_H-M "I M M M"
_symmetry_group_IT_number 71
_symmetry_cell_setting 'orthorhombic'
loop_
_space_group_symop_operation_xyz
x,y,z
-x,-y,z
x,-y,-z
-x,y,-z
-x,-y,-z
x,y,-z
-x,y,z
x,-y,z
1/2+x,1/2+y,1/2+z
1/2-x,1/2-y,1/2+z
1/2+x,1/2-y,1/2-z
1/2-x,1/2+y,1/2-z
1/2-x,1/2-y,1/2-z
1/2+x,1/2+y,1/2-z
1/2-x,1/2+y,1/2+z
1/2+x,1/2-y,1/2+z
loop_
_atom_site_type_symbol
_atom_site_label
_atom_site_fract_x
_atom_site_fract_y
_atom_site_fract_z
Si Si1 0.246027 0.834803 0.152269
Si Si2 0.116239 0.654656 0.358594
Si Si3 0.500000 0.658954 0.826613
Si Si4 0.000000 0.228993 0.897823
Si Si5 0.134007 0.652120 0.867085
O O1 0.250000 0.750000 0.250000
O O2 0.313909 0.813166 0.104447
O O3 0.184331 0.768551 0.106246
O O4 0.238840 0.000000 0.165984
O O5 0.097632 0.500000 0.388557
O O6 0.060925 0.763754 0.368202
O O7 0.127150 0.649395 0.245970
O O8 0.500000 0.500000 0.851835
O O9 0.500000 0.666330 0.709854
O O10 0.936053 0.315837 0.899637
O O11 0.000000 0.151864 0.000000
O O12 0.155416 0.500000 0.895706
#
# Coordination Sequence:
#
# PCOD9518620 Si02
#       5
#    16  16   8   8  16
#     4   9  16  26  41  59  78 101 129 164 207 253
#     4   8  15  27  41  57  80 108 133 160 202 257
#     4  10  19  28  42  64  86 110 143 181 215 246
#     4  10  21  33  43  57  81 115 153 188 219 251
#     4   9  17  28  42  58  74  98 137 180 214 245
#
# _framework density 21.813105
#
# number of rings (size 3 to 8) (size 9 to 14) (size 15 to 20)
#    0.000    3.000    0.000    3.000    0.000   14.250 
#    0.000    0.000    0.000    0.000    0.000    0.000 
#    0.000    0.000    0.000    1.125    0.000   19.750 
#
# Total GULP energy -178188.262844 kJ/mol
# GULP energy per Si atom -5568.383214 kJ/mol
# Density = 2.176346 g / cm^3
# Si number density = 21.813105 Si / 1000 Ang^3
#
#
#
# Elastic Constant Matrix: (Units=GPa)
#
#
# Indices 1 2 3 4 5 6 
#
# 1 204.4444 129.2170 15.8678 0.0000 0.0000 0.0000
# 2 129.2170 196.7503 6.3706 0.0000 0.0000 0.0000
# 3 15.8678 6.3706 88.9806 0.0000 0.0000 0.0000
# 4 0.0000 0.0000 0.0000 -19.3891 0.0000 0.0000
# 5 0.0000 0.0000 0.0000 0.0000 -47.8446 0.0000
# 6 0.0000 0.0000 0.0000 0.0000 0.0000 16.8798
#
#
#
# Elastic Compliance Matrix: (Units=1/GPa)
#
#
# Indices 1 2 3 4 5 6 
#
# 1 0.008472 -0.005528 -0.001115 0.000000 0.000000 0.000000
# 2 -0.005528 0.008701 0.000363 0.000000 0.000000 0.000000
# 3 -0.001115 0.000363 0.011411 0.000000 0.000000 0.000000
# 4 0.000000 0.000000 0.000000 -0.051575 0.000000 0.000000
# 5 0.000000 0.000000 0.000000 0.000000 -0.020901 0.000000
# 6 0.000000 0.000000 0.000000 0.000000 0.000000 0.059242
#
#
# Mechanical properties :
#
#
# Convention : Reuss Voigt Hill
#
# Bulk Modulus (GPa) = 62.40525 88.12068 75.26297
# Shear Modulus (GPa) = 150.37112 12.51054 81.44083
#
# Velocity S-wave (km/s) = 8.31179 2.39745 6.11693
# Velocity P-wave (km/s) = 10.99025 6.93898 9.19062
#
# Compressibility (1/GPa) = 0.01602429
#
# Stress axis : x y z
#
# Youngs Moduli (GPa) = 118.04261 114.92755 87.63275
#
# Poissons Ratio (x) = 0.63528 0.09771
# Poissons Ratio (y) = 0.65249 -0.03179
# Poissons Ratio (z) = 0.13161 -0.04169
#
# Static dielectric constant tensor:
#      x y z
#    x 1.810570 0.000000 0.000000 
#    y 0.000000 1.748840 0.000000 
#    z 0.000000 0.000000 1.845000 
# 
# From -- ./inp_files/60946.got.cif
#   From: 2010.05.17/outbox.cif.g08.bks.cpg/sg71_31_cif.got.tgz:60946.got - 2010.06.03 16:22:01.
