data_PCOD9518637
_publ_section_title
;
Structure prediction by ZEFSAII (Michael W. Deem and Ramdas Pophale) SiO2 
 PCOD9518637
Probable space group: I M M M
;
_chemical_formula_sum "Si O2"
_cell_formula_units_Z 88
_cell_length_a 15.273513
_cell_length_b 35.465051
_cell_length_c 7.329790
_cell_angle_alpha 90.000000
_cell_angle_beta 90.000000
_cell_angle_gamma 90.000000
_cell_volume 3970.370723
_symmetry_space_group_name_H-M "I M M M"
_symmetry_group_IT_number 71
_symmetry_cell_setting 'orthorhombic'
loop_
_space_group_symop_operation_xyz
x,y,z
-x,-y,z
x,-y,-z
-x,y,-z
-x,-y,-z
x,y,-z
-x,y,z
x,-y,z
1/2+x,1/2+y,1/2+z
1/2-x,1/2-y,1/2+z
1/2+x,1/2-y,1/2-z
1/2-x,1/2+y,1/2-z
1/2-x,1/2-y,1/2-z
1/2+x,1/2+y,1/2-z
1/2-x,1/2+y,1/2+z
1/2+x,1/2-y,1/2+z
loop_
_atom_site_type_symbol
_atom_site_label
_atom_site_fract_x
_atom_site_fract_y
_atom_site_fract_z
Si Si1 0.731189 0.653137 0.286539
Si Si2 0.595411 0.044211 0.778653
Si Si3 0.099295 0.220602 0.280709
Si Si4 0.900299 0.306168 0.277103
Si Si5 0.215328 0.071364 0.222461
Si Si6 0.101018 0.000000 0.777037
O O1 0.746814 0.646241 0.500000
O O2 0.666057 0.688261 0.272869
O O3 0.825272 0.665819 0.211083
O O4 0.692786 0.613717 0.216757
O O5 0.500000 0.058740 0.718241
O O6 0.684222 0.064088 0.720215
O O7 0.601009 0.000000 0.729650
O O8 0.595164 0.045819 0.000000
O O9 0.098384 0.221427 0.500000
O O10 0.122009 0.263145 0.221149
O O11 0.000000 0.212558 0.219258
O O12 0.899892 0.306545 0.500000
O O13 0.000000 0.314542 0.221693
O O14 0.152871 0.037455 0.283122
O O15 0.212415 0.069377 0.000000
O O16 0.000000 0.000000 0.720410
O O17 0.101700 0.000000 0.000000
#
# Coordination Sequence:
#
# PCOD9518637 Si02
#       6
#    16  16  16  16  16   8
#     4  10  19  28  45  73  97 116 145 195 240 263
#     4   8  12  19  33  51  75 110 144 172 206 254
#     4   9  18  33  50  64  85 123 161 186 219 277
#     4   8  15  29  47  67  93 124 153 179 219 279
#     4   9  16  25  36  56  86 114 143 179 220 265
#     4   9  16  26  37  47  72 118 153 170 206 266
#
# _framework density 22.164176999999999
#
# number of rings (size 3 to 8) (size 9 to 14) (size 15 to 20)
#    0.000    3.182    0.909    2.182    0.000    1.818 
#    0.000    5.455    0.000    1.636    0.000    0.636 
#    0.000    2.182    0.000    2.000    0.000    1.818 
#
# Total GULP energy -245546.816279 kJ/mol
# GULP energy per Si atom -5580.609461 kJ/mol
# Density = 2.211373 g / cm^3
# Si number density = 22.164177 Si / 1000 Ang^3
#
#
#
# Elastic Constant Matrix: (Units=GPa)
#
#
# Indices 1 2 3 4 5 6 
#
# 1 132.6886 91.9586 2.8005 0.0077 -0.0040 -0.0027
# 2 91.9586 141.0449 9.2527 0.0173 -0.0110 0.0022
# 3 2.8005 9.2527 81.4848 0.0588 0.0218 0.0038
# 4 0.0077 0.0173 0.0588 7.9384 -0.0221 0.0082
# 5 -0.0040 -0.0110 0.0218 -0.0221 -7.8201 0.0082
# 6 -0.0027 0.0022 0.0038 0.0082 0.0082 -0.0369
#
#
#
# Elastic Compliance Matrix: (Units=1/GPa)
#
#
# Indices 1 2 3 4 5 6 
#
# 1 0.013773 -0.009016 0.000550 0.000004 0.000006 -0.001486
# 2 -0.009016 0.013045 -0.001171 -0.000012 -0.000016 0.001319
# 3 0.000550 -0.001171 0.012386 -0.000091 0.000037 0.001151
# 4 0.000004 -0.000012 -0.000091 0.125941 -0.000327 0.027940
# 5 0.000006 -0.000016 0.000037 -0.000327 -0.127905 -0.028519
# 6 -0.001486 0.001319 0.001151 0.027940 -0.028519-27.089253
#
#
# Mechanical properties :
#
#
# Convention : Reuss Voigt Hill
#
# Bulk Modulus (GPa) = 50.17396 62.58244 56.37820
# Shear Modulus (GPa) = -0.18501 16.76337 8.28918
#
# Velocity S-wave (km/s) = -0.28923 2.75312 1.93598
# Velocity P-wave (km/s) = 4.75132 6.19705 5.52170
#
# Compressibility (1/GPa) = 0.01993066
#
# Stress axis : x y z
#
# Youngs Moduli (GPa) = 72.60451 76.65754 80.73415
#
# Poissons Ratio (x) = 0.69114 -0.04444
# Poissons Ratio (y) = 0.65460 0.09458
# Poissons Ratio (z) = -0.03997 0.08980
#
# Static dielectric constant tensor:
#      x y z
#    x 1.782710 0.000000 0.000020 
#    y 0.000000 1.798110 0.000000 
#    z 0.000020 0.000000 1.928450 
# 
# From -- ./inp_files/22532.got.cif
#   From: 2010.05.17/outbox.cif.g08.bks.cpg/sg71_12_cif.got.tgz:22532.got - 2010.06.03 16:22:01.
