data_PCOD9518326
_publ_section_title
;
Structure prediction by ZEFSAII (Michael W. Deem and Ramdas Pophale) SiO2 
 PCOD9518326
Probable space group: I M M M
;
_chemical_formula_sum "Si O2"
_cell_formula_units_Z 96
_cell_length_a 16.919794
_cell_length_b 18.578678
_cell_length_c 16.666486
_cell_angle_alpha 90.000000
_cell_angle_beta 90.000000
_cell_angle_gamma 90.000000
_cell_volume 5239.066617
_symmetry_space_group_name_H-M "I M M M"
_symmetry_group_IT_number 71
_symmetry_cell_setting 'orthorhombic'
loop_
_space_group_symop_operation_xyz
x,y,z
-x,-y,z
x,-y,-z
-x,y,-z
-x,-y,-z
x,y,-z
-x,y,z
x,-y,z
1/2+x,1/2+y,1/2+z
1/2-x,1/2-y,1/2+z
1/2+x,1/2-y,1/2-z
1/2-x,1/2+y,1/2-z
1/2-x,1/2-y,1/2-z
1/2+x,1/2+y,1/2-z
1/2-x,1/2+y,1/2+z
1/2+x,1/2-y,1/2+z
loop_
_atom_site_type_symbol
_atom_site_label
_atom_site_fract_x
_atom_site_fract_y
_atom_site_fract_z
Si Si1 0.905178 0.225712 0.821672
Si Si2 0.341723 0.788933 0.844061
Si Si3 0.214805 0.680391 0.090954
Si Si4 0.404082 0.419682 0.591762
Si Si5 0.000000 0.419840 0.756622
Si Si6 0.321229 0.086288 0.265714
Si Si7 0.000000 0.646035 0.590213
O O1 0.865797 0.245909 0.736870
O O2 0.865857 0.276906 0.888332
O O3 0.885356 0.144461 0.848210
O O4 0.000000 0.234282 0.816577
O O5 0.282381 0.739678 0.893210
O O6 0.303525 0.863969 0.811727
O O7 0.421184 0.808061 0.892155
O O8 0.223174 0.617025 0.156710
O O9 0.215874 0.654615 0.000000
O O10 0.377502 0.404864 0.500000
O O11 0.500000 0.421818 0.588988
O O12 0.376633 0.500000 0.614788
O O13 0.085745 0.392568 0.780856
O O14 0.000000 0.500000 0.786877
O O15 0.000000 0.413698 0.660003
O O16 0.315075 0.000000 0.254559
O O17 0.000000 0.618635 0.500000
#
# Coordination Sequence:
#
# PCOD9518326 Si02
#       7
#    16  16  16  16   8  16   8
#     4  10  18  32  53  75 101 138 177 214 260 318
#     4  10  20  37  53  78 105 137 180 225 266 316
#     4  11  23  35  52  78 111 142 175 222 269 319
#     4   8  14  25  43  70 103 133 162 203 254 309
#     4   8  16  31  51  78 110 136 171 216 253 310
#     4   9  18  34  56  78 105 145 182 218 265 317
#     4  10  18  31  56  77 100 135 173 218 269 316
#
# _framework density 18.323875000000001
#
# number of rings (size 3 to 8) (size 9 to 14) (size 15 to 20)
#    0.000    2.500    0.833    3.500    3.500    1.500 
#    0.000    3.333    0.000    4.000    0.000    0.000 
#    0.000    2.667    0.000    0.000    0.000    0.000 
#
# Total GULP energy -267388.624381 kJ/mol
# GULP energy per Si atom -5570.596341 kJ/mol
# Density = 1.828217 g / cm^3
# Si number density = 18.323875 Si / 1000 Ang^3
#
#
#
# Elastic Constant Matrix: (Units=GPa)
#
#
# Indices 1 2 3 4 5 6 
#
# 1 53.3996 4.7198 8.8702 0.0000 0.0000 0.0000
# 2 4.7198 90.8659 17.4736 0.0000 0.0000 0.0000
# 3 8.8702 17.4736 61.9724 0.0000 0.0000 0.0000
# 4 0.0000 0.0000 0.0000 11.1253 0.0000 0.0000
# 5 0.0000 0.0000 0.0000 0.0000 12.4687 0.0000
# 6 0.0000 0.0000 0.0000 0.0000 0.0000 17.8629
#
#
#
# Elastic Compliance Matrix: (Units=1/GPa)
#
#
# Indices 1 2 3 4 5 6 
#
# 1 0.019204 -0.000496 -0.002609 0.000000 0.000000 0.000000
# 2 -0.000496 0.011649 -0.003214 0.000000 0.000000 0.000000
# 3 -0.002609 -0.003214 0.017416 0.000000 0.000000 0.000000
# 4 0.000000 0.000000 0.000000 0.089885 0.000000 0.000000
# 5 0.000000 0.000000 0.000000 0.000000 0.080201 0.000000
# 6 0.000000 0.000000 0.000000 0.000000 0.000000 0.055982
#
#
# Mechanical properties :
#
#
# Convention : Reuss Voigt Hill
#
# Bulk Modulus (GPa) = 28.06460 29.81836 28.94148
# Shear Modulus (GPa) = 16.73080 19.96968 18.35024
#
# Velocity S-wave (km/s) = 3.02497 3.30482 3.16798
# Velocity P-wave (km/s) = 5.24878 5.55614 5.40465
#
# Compressibility (1/GPa) = 0.03563208
#
# Stress axis : x y z
#
# Youngs Moduli (GPa) = 52.07275 85.84461 57.41938
#
# Poissons Ratio (x) = 0.04256 0.14980
# Poissons Ratio (y) = 0.02582 0.18452
# Poissons Ratio (z) = 0.13585 0.27587
#
# Static dielectric constant tensor:
#      x y z
#    x 1.687680 0.000000 0.000000 
#    y 0.000000 1.648830 0.000000 
#    z 0.000000 0.000000 1.609560 
# 
# From -- ./inp_files/46340.got.cif
#   From: 2010.05.17/outbox.cif.g08.bks.cpg/sg71_24_cif.got.tgz:46340.got - 2010.06.03 16:22:01.
