data_PCOD9518641
_publ_section_title
;
Structure prediction by ZEFSAII (Michael W. Deem and Ramdas Pophale) SiO2 
 PCOD9518641
Probable space group: I M M M
;
_chemical_formula_sum "Si O2"
_cell_formula_units_Z 96
_cell_length_a 28.350026
_cell_length_b 9.057732
_cell_length_c 29.875897
_cell_angle_alpha 90.000000
_cell_angle_beta 90.000000
_cell_angle_gamma 90.000000
_cell_volume 7671.740102
_symmetry_space_group_name_H-M "I M M M"
_symmetry_group_IT_number 71
_symmetry_cell_setting 'orthorhombic'
loop_
_space_group_symop_operation_xyz
x,y,z
-x,-y,z
x,-y,-z
-x,y,-z
-x,-y,-z
x,y,-z
-x,y,z
x,-y,z
1/2+x,1/2+y,1/2+z
1/2-x,1/2-y,1/2+z
1/2+x,1/2-y,1/2-z
1/2-x,1/2+y,1/2-z
1/2-x,1/2-y,1/2-z
1/2+x,1/2+y,1/2-z
1/2-x,1/2+y,1/2+z
1/2+x,1/2-y,1/2+z
loop_
_atom_site_type_symbol
_atom_site_label
_atom_site_fract_x
_atom_site_fract_y
_atom_site_fract_z
Si Si1 0.741886 0.670259 0.179495
Si Si2 0.659724 0.824390 0.129362
Si Si3 0.600772 0.321732 0.948063
Si Si4 0.097313 0.324185 0.281621
Si Si5 0.821663 0.170333 0.229813
Si Si6 0.500000 0.322340 0.195618
Si Si7 0.000000 0.821241 0.590763
O O1 0.749844 0.500000 0.167341
O O2 0.709376 0.753017 0.143607
O O3 0.790247 0.752472 0.191820
O O4 0.710951 0.671301 0.225374
O O5 0.637672 0.752414 0.085344
O O6 0.623639 0.795636 0.170781
O O7 0.664382 0.000000 0.124887
O O8 0.603137 0.500000 0.943075
O O9 0.548091 0.273342 0.933210
O O10 0.608593 0.286105 0.000000
O O11 0.092241 0.500000 0.276804
O O12 0.131709 0.258854 0.243732
O O13 0.047175 0.244140 0.283055
O O14 0.831880 0.000000 0.219198
O O15 0.500000 0.500000 0.198226
O O16 0.500000 0.279032 0.142897
O O17 0.000000 0.000000 0.589139
#
# Coordination Sequence:
#
# PCOD9518641 Si02
#       7
#    16  16  16  16  16   8   8
#     4   9  16  26  41  58  76  95 117 144 180 224
#     4  10  19  29  41  56  75  96 120 152 192 235
#     4  10  19  31  45  58  72  93 124 162 203 246
#     4  10  19  29  40  55  76  99 124 154 190 229
#     4   9  16  26  40  58  77  96 118 145 180 221
#     4  11  19  28  43  57  72  98 130 163 198 236
#     4   9  17  29  44  57  69  89 123 163 203 244
#
# _framework density 12.513458
#
# number of rings (size 3 to 8) (size 9 to 14) (size 15 to 20)
#    0.000    2.333    1.667    2.500    0.000    6.667 
#    0.000    0.417    0.000    1.000    0.000    0.000 
#    0.000    0.000    0.000    0.000    0.000    0.000 
#
# Total GULP energy -267585.747406 kJ/mol
# GULP energy per Si atom -5574.703071 kJ/mol
# Density = 1.248498 g / cm^3
# Si number density = 12.513458 Si / 1000 Ang^3
#
#
#
# Elastic Constant Matrix: (Units=GPa)
#
#
# Indices 1 2 3 4 5 6 
#
# 1 99.0699 59.6864 58.4143 0.0000 0.0000 0.0000
# 2 59.6864 70.6218 35.9048 0.0000 0.0000 0.0000
# 3 58.4143 35.9048 56.8497 0.0000 0.0000 0.0000
# 4 0.0000 0.0000 0.0000 15.8619 0.0000 0.0000
# 5 0.0000 0.0000 0.0000 0.0000 13.0495 0.0000
# 6 0.0000 0.0000 0.0000 0.0000 0.0000 22.1309
#
#
#
# Elastic Compliance Matrix: (Units=1/GPa)
#
#
# Indices 1 2 3 4 5 6 
#
# 1 0.035446 -0.016851 -0.025779 0.000000 0.000000 0.000000
# 2 -0.016851 0.028868 -0.000917 0.000000 0.000000 0.000000
# 3 -0.025779 -0.000917 0.044658 0.000000 0.000000 0.000000
# 4 0.000000 0.000000 0.000000 0.063044 0.000000 0.000000
# 5 0.000000 0.000000 0.000000 0.000000 0.076631 0.000000
# 6 0.000000 0.000000 0.000000 0.000000 0.000000 0.045186
#
#
# Mechanical properties :
#
#
# Convention : Reuss Voigt Hill
#
# Bulk Modulus (GPa) = 45.70940 59.39471 52.55205
# Shear Modulus (GPa) = 12.87926 15.04418 13.96172
#
# Velocity S-wave (km/s) = 3.21165 3.47109 3.34389
# Velocity P-wave (km/s) = 7.09651 7.97699 7.54959
#
# Compressibility (1/GPa) = 0.02187734
#
# Stress axis : x y z
#
# Youngs Moduli (GPa) = 28.21187 34.64005 22.39246
#
# Poissons Ratio (x) = 0.58373 0.57725
# Poissons Ratio (y) = 0.47541 0.02054
# Poissons Ratio (z) = 0.72727 0.03178
#
# Static dielectric constant tensor:
#      x y z
#    x 1.395820 0.000000 0.000000 
#    y 0.000000 1.417140 0.000000 
#    z 0.000000 0.000000 1.377890 
# 
# From -- ./inp_files/61886.got.cif
#   From: 2010.05.17/outbox.cif.g08.bks.cpg/sg71_31_cif.got.tgz:61886.got - 2010.06.03 16:22:01.
