data_PCOD9518567
_publ_section_title
;
Structure prediction by ZEFSAII (Michael W. Deem and Ramdas Pophale) SiO2 
 PCOD9518567
Probable space group: I M M M
;
_chemical_formula_sum "Si O2"
_cell_formula_units_Z 96
_cell_length_a 24.342116
_cell_length_b 7.687431
_cell_length_c 26.269226
_cell_angle_alpha 90.000000
_cell_angle_beta 90.000000
_cell_angle_gamma 90.000000
_cell_volume 4915.716579
_symmetry_space_group_name_H-M "I M M M"
_symmetry_group_IT_number 71
_symmetry_cell_setting 'orthorhombic'
loop_
_space_group_symop_operation_xyz
x,y,z
-x,-y,z
x,-y,-z
-x,y,-z
-x,-y,-z
x,y,-z
-x,y,z
x,-y,z
1/2+x,1/2+y,1/2+z
1/2-x,1/2-y,1/2+z
1/2+x,1/2-y,1/2-z
1/2-x,1/2+y,1/2-z
1/2-x,1/2-y,1/2-z
1/2+x,1/2+y,1/2-z
1/2-x,1/2+y,1/2+z
1/2+x,1/2-y,1/2+z
loop_
_atom_site_type_symbol
_atom_site_label
_atom_site_fract_x
_atom_site_fract_y
_atom_site_fract_z
Si Si1 0.619233 0.786072 0.849134
Si Si2 0.383500 0.790209 0.345854
Si Si3 0.307084 0.209509 0.057724
Si Si4 0.500000 0.797051 0.818204
Si Si5 0.000000 0.203013 0.799222
Si Si6 0.681507 0.208756 0.557483
Si Si7 0.186065 0.291329 0.250116
O O1 0.648969 0.729111 0.900878
O O2 0.557020 0.724524 0.839994
O O3 0.655671 0.729195 0.800960
O O4 0.618790 0.000000 0.849075
O O5 0.445633 0.747959 0.330891
O O6 0.360410 0.725167 0.399798
O O7 0.344648 0.724911 0.300164
O O8 0.379250 0.000000 0.347006
O O9 0.244573 0.254586 0.072792
O O10 0.310437 0.000000 0.056368
O O11 0.315885 0.274473 0.000000
O O12 0.500000 0.789465 0.756651
O O13 0.500000 0.000000 0.832337
O O14 0.000000 0.000000 0.788473
O O15 0.673457 0.277475 0.500000
O O16 0.675670 0.000000 0.555039
O O17 0.180384 0.500000 0.249802
O O18 0.250000 0.250000 0.250000
#
# Coordination Sequence:
#
# PCOD9518567 Si02
#       7
#    16  16  16   8   8  16  16
#     4   9  17  30  50  72  96 132 174 207 243 299
#     4  10  20  36  55  73 100 139 173 203 252 311
#     4   9  17  30  49  75 107 138 167 205 255 302
#     4  10  18  36  57  69  95 140 178 208 252 308
#     4  12  24  36  53  78 103 130 170 219 260 302
#     4   9  18  33  54  79 103 131 171 211 247 296
#     4  10  19  30  47  72  99 129 164 204 250 302
#
# _framework density 19.529197
#
# number of rings (size 3 to 8) (size 9 to 14) (size 15 to 20)
#    0.000    2.333    1.667    1.750    0.000    1.333 
#    0.000    1.667    0.000    5.000    0.000    0.000 
#    0.000    3.333    0.000    0.000    0.000    0.000 
#
# Total GULP energy -267920.616041 kJ/mol
# GULP energy per Si atom -5581.679501 kJ/mol
# Density = 1.948475 g / cm^3
# Si number density = 19.529197 Si / 1000 Ang^3
#
#
#
# Elastic Constant Matrix: (Units=GPa)
#
#
# Indices 1 2 3 4 5 6 
#
# 1 186.9889 -7.9554 104.3489 0.0000 0.0000 0.0000
# 2 -7.9554 31.0316 1.1421 0.0000 0.0000 0.0000
# 3 104.3489 1.1421 124.2900 0.0000 0.0000 0.0000
# 4 0.0000 0.0000 0.0000 1.2003 0.0000 0.0000
# 5 0.0000 0.0000 0.0000 0.0000 20.6289 0.0000
# 6 0.0000 0.0000 0.0000 0.0000 0.0000 21.6284
#
#
#
# Elastic Compliance Matrix: (Units=1/GPa)
#
#
# Indices 1 2 3 4 5 6 
#
# 1 0.010328 0.002968 -0.008699 0.000000 0.000000 0.000000
# 2 0.002968 0.033089 -0.002796 0.000000 0.000000 0.000000
# 3 -0.008699 -0.002796 0.015374 0.000000 0.000000 0.000000
# 4 0.000000 0.000000 0.000000 0.833141 0.000000 0.000000
# 5 0.000000 0.000000 0.000000 0.000000 0.048476 0.000000
# 6 0.000000 0.000000 0.000000 0.000000 0.000000 0.046235
#
#
# Mechanical properties :
#
#
# Convention : Reuss Voigt Hill
#
# Bulk Modulus (GPa) = 23.95845 59.70907 41.83376
# Shear Modulus (GPa) = 4.91348 25.00986 14.96167
#
# Velocity S-wave (km/s) = 1.58790 3.58248 2.77089
# Velocity P-wave (km/s) = 3.95684 6.91035 5.63069
#
# Compressibility (1/GPa) = 0.04173892
#
# Stress axis : x y z
#
# Youngs Moduli (GPa) = 96.82026 30.22148 65.04328
#
# Poissons Ratio (x) = -0.08970 0.56579
# Poissons Ratio (y) = -0.28736 0.18185
# Poissons Ratio (z) = 0.84220 0.08449
#
# Static dielectric constant tensor:
#      x y z
#    x 1.654110 0.000000 0.000000 
#    y 0.000000 1.723500 0.000000 
#    z 0.000000 0.000000 1.694570 
# 
# From -- ./inp_files/57745.got.cif
#   From: 2010.05.17/outbox.cif.g08.bks.cpg/sg71_29_cif.got.tgz:57745.got - 2010.06.03 16:22:01.
