data_PCOD9518963
_publ_section_title
;
Structure prediction by ZEFSAII (Michael W. Deem and Ramdas Pophale) SiO2 
 PCOD9518963
Probable space group: I M M M
;
_chemical_formula_sum "Si O2"
_cell_formula_units_Z 104
_cell_length_a 9.195085
_cell_length_b 28.327712
_cell_length_c 22.677037
_cell_angle_alpha 90.000000
_cell_angle_beta 90.000000
_cell_angle_gamma 90.000000
_cell_volume 5906.817533
_symmetry_space_group_name_H-M "I M M M"
_symmetry_group_IT_number 71
_symmetry_cell_setting 'orthorhombic'
loop_
_space_group_symop_operation_xyz
x,y,z
-x,-y,z
x,-y,-z
-x,y,-z
-x,-y,-z
x,y,-z
-x,y,z
x,-y,z
1/2+x,1/2+y,1/2+z
1/2-x,1/2-y,1/2+z
1/2+x,1/2-y,1/2-z
1/2-x,1/2+y,1/2-z
1/2-x,1/2-y,1/2-z
1/2+x,1/2+y,1/2-z
1/2-x,1/2+y,1/2+z
1/2+x,1/2-y,1/2+z
loop_
_atom_site_type_symbol
_atom_site_label
_atom_site_fract_x
_atom_site_fract_y
_atom_site_fract_z
Si Si1 0.823070 0.945834 0.353813
Si Si2 0.339307 0.945444 0.111942
Si Si3 0.323353 0.642895 0.067552
Si Si4 0.834227 0.942003 0.000000
Si Si5 0.326616 0.414047 0.278615
Si Si6 0.170597 0.317029 0.715705
Si Si7 0.172672 0.217968 0.667032
O O1 0.774911 0.905551 0.399953
O O2 0.783535 0.928923 0.287741
O O3 0.000000 0.946410 0.355750
O O4 0.774760 0.000000 0.364506
O O5 0.500000 0.924123 0.118615
O O6 0.251360 0.944798 0.172288
O O7 0.357158 0.000000 0.095626
O O8 0.248284 0.924531 0.058166
O O9 0.500000 0.641055 0.065750
O O10 0.288527 0.687897 0.109048
O O11 0.271907 0.646334 0.000000
O O12 0.000000 0.926423 0.000000
O O13 0.837898 0.000000 0.000000
O O14 0.500000 0.417489 0.282353
O O15 0.270145 0.362084 0.294593
O O16 0.187295 0.274644 0.668502
O O17 0.226655 0.298680 0.779157
O O18 0.000000 0.329234 0.718759
O O19 0.000000 0.207938 0.679959
#
# Coordination Sequence:
#
# PCOD9518963 Si02
#       7
#    16  16  16   8  16  16  16
#     4   9  17  28  44  71 106 138 171 216 263 308
#     4  10  20  33  50  74 104 136 173 217 262 310
#     4   9  16  28  49  75 103 135 172 214 263 321
#     4   9  17  31  51  73  97 131 175 213 251 305
#     4  11  20  32  50  73 105 140 176 218 265 319
#     4  10  19  30  50  75 100 128 164 212 265 321
#     4   9  17  32  51  75 101 126 162 208 260 319
#
# _framework density 17.606774000000001
#
# number of rings (size 3 to 8) (size 9 to 14) (size 15 to 20)
#    0.000    2.385    1.538    2.077    0.000    3.385 
#    0.000    1.538    1.692    0.462    0.000    0.000 
#    0.000    1.231    0.000    0.000    0.000    0.000 
#
# Total GULP energy -289525.001739 kJ/mol
# GULP energy per Si atom -5567.788495 kJ/mol
# Density = 1.756670 g / cm^3
# Si number density = 17.606774 Si / 1000 Ang^3
#
#
#
# Elastic Constant Matrix: (Units=GPa)
#
#
# Indices 1 2 3 4 5 6 
#
# 1 59.3494 19.6449 35.8636 0.0000 0.0000 0.0000
# 2 19.6449 76.3931 51.9638 0.0000 0.0000 0.0000
# 3 35.8636 51.9638 132.8620 0.0000 0.0000 0.0000
# 4 0.0000 0.0000 0.0000 14.8973 0.0000 0.0000
# 5 0.0000 0.0000 0.0000 0.0000 12.4595 0.0000
# 6 0.0000 0.0000 0.0000 0.0000 0.0000 21.7538
#
#
#
# Elastic Compliance Matrix: (Units=1/GPa)
#
#
# Indices 1 2 3 4 5 6 
#
# 1 0.020364 -0.002041 -0.004699 0.000000 0.000000 0.000000
# 2 -0.002041 0.018039 -0.006505 0.000000 0.000000 0.000000
# 3 -0.004699 -0.006505 0.011339 0.000000 0.000000 0.000000
# 4 0.000000 0.000000 0.000000 0.067126 0.000000 0.000000
# 5 0.000000 0.000000 0.000000 0.000000 0.080260 0.000000
# 6 0.000000 0.000000 0.000000 0.000000 0.000000 0.045969
#
#
# Mechanical properties :
#
#
# Convention : Reuss Voigt Hill
#
# Bulk Modulus (GPa) = 43.00217 53.72768 48.36493
# Shear Modulus (GPa) = 18.02857 20.56426 19.29642
#
# Velocity S-wave (km/s) = 3.20340 3.42127 3.31413
# Velocity P-wave (km/s) = 6.17730 6.79620 6.49413
#
# Compressibility (1/GPa) = 0.02325464
#
# Stress axis : x y z
#
# Youngs Moduli (GPa) = 49.10577 55.43397 88.19115
#
# Poissons Ratio (x) = 0.11311 0.41440
# Poissons Ratio (y) = 0.10020 0.57365
# Poissons Ratio (z) = 0.23074 0.36058
#
# Static dielectric constant tensor:
#      x y z
#    x 1.606650 0.000000 0.000000 
#    y 0.000000 1.674240 0.000000 
#    z 0.000000 0.000000 1.591460 
# 
# From -- ./inp_files/51196.got.cif
#   From: 2010.05.17/outbox.cif.g08.bks.cpg/sg71_26_cif.got.tgz:51196.got - 2010.06.03 16:22:01.
