data_PCOD9518289
_publ_section_title
;
Structure prediction by ZEFSAII (Michael W. Deem and Ramdas Pophale) SiO2 
 PCOD9518289
Probable space group: I M M M
;
_chemical_formula_sum "Si O2"
_cell_formula_units_Z 64
_cell_length_a 36.605932
_cell_length_b 11.561428
_cell_length_c 7.515370
_cell_angle_alpha 90.000000
_cell_angle_beta 90.000000
_cell_angle_gamma 90.000000
_cell_volume 3180.631197
_symmetry_space_group_name_H-M "I M M M"
_symmetry_group_IT_number 71
_symmetry_cell_setting 'orthorhombic'
loop_
_space_group_symop_operation_xyz
x,y,z
-x,-y,z
x,-y,-z
-x,y,-z
-x,-y,-z
x,y,-z
-x,y,z
x,-y,z
1/2+x,1/2+y,1/2+z
1/2-x,1/2-y,1/2+z
1/2+x,1/2-y,1/2-z
1/2-x,1/2+y,1/2-z
1/2-x,1/2-y,1/2-z
1/2+x,1/2+y,1/2-z
1/2-x,1/2+y,1/2+z
1/2+x,1/2-y,1/2+z
loop_
_atom_site_type_symbol
_atom_site_label
_atom_site_fract_x
_atom_site_fract_y
_atom_site_fract_z
Si Si1 0.072954 0.246090 0.291165
Si Si2 0.042262 0.000000 0.213112
Si Si3 0.000000 0.633950 0.283159
Si Si4 0.144376 0.632382 0.715797
Si Si5 0.772579 0.632110 0.713520
O O1 0.074152 0.277609 0.500000
O O2 0.063878 0.112229 0.274410
O O3 0.112068 0.285227 0.217999
O O4 0.037172 0.308918 0.214950
O O5 0.000000 0.000000 0.278193
O O6 0.040821 0.000000 0.000000
O O7 0.000000 0.500000 0.242728
O O8 0.000000 0.647645 0.500000
O O9 0.146397 0.642434 0.500000
O O10 0.134033 0.500000 0.756296
O O11 0.185759 0.651239 0.779287
O O12 0.773446 0.623825 0.500000
O O13 0.761036 0.500000 0.774474
O O14 0.750000 0.750000 0.750000
#
# Coordination Sequence:
#
# PCOD9518289 Si02
#       5
#    16   8   8  16  16
#     4  10  18  31  53  76  97 124 165 209 247 295
#     4  11  23  37  49  63  97 143 175 203 245 295
#     4   9  16  25  45  78 102 115 146 203 256 289
#     4   8  15  30  53  79 104 128 159 207 261 302
#     4   9  18  34  55  79 108 141 175 212 258 313
#
# _framework density 20.121791999999999
#
# number of rings (size 3 to 8) (size 9 to 14) (size 15 to 20)
#    0.000    2.750    1.250    2.625    0.000    4.000 
#    2.250    1.250    0.000    5.250    0.000    0.000 
#    0.000    0.000    0.000    0.000    0.000    0.000 
#
# Total GULP energy -178316.099810 kJ/mol
# GULP energy per Si atom -5572.378119 kJ/mol
# Density = 2.007599 g / cm^3
# Si number density = 20.121792 Si / 1000 Ang^3
#
#
#
# Elastic Constant Matrix: (Units=GPa)
#
#
# Indices 1 2 3 4 5 6 
#
# 1 150.8455 116.7466 5.3550 0.0000 0.0000 0.0000
# 2 116.7466 160.7606 -8.9511 0.0004 0.0002 0.0001
# 3 5.3550 -8.9511 53.1255 0.0009 0.0003 0.0002
# 4 0.0000 0.0004 0.0009 -14.4181 0.0003 0.0001
# 5 0.0000 0.0002 0.0003 0.0003 2.2473 0.0001
# 6 0.0000 0.0001 0.0002 0.0001 0.0001 45.3686
#
#
#
# Elastic Compliance Matrix: (Units=1/GPa)
#
#
# Indices 1 2 3 4 5 6 
#
# 1 0.015775 -0.011654 -0.003554 -0.000001 0.000001 0.000000
# 2 -0.011654 0.014889 0.003683 0.000001 -0.000001 0.000000
# 3 -0.003554 0.003683 0.019802 0.000001 -0.000003 0.000000
# 4 -0.000001 0.000001 0.000001 -0.069357 0.000009 0.000000
# 5 0.000001 -0.000001 -0.000003 0.000009 0.444984 -0.000001
# 6 0.000000 0.000000 0.000000 0.000000 -0.000001 0.022042
#
#
# Mechanical properties :
#
#
# Convention : Reuss Voigt Hill
#
# Bulk Modulus (GPa) = 36.47322 65.67027 51.07175
# Shear Modulus (GPa) = 10.40969 23.41164 16.91066
#
# Velocity S-wave (km/s) = 2.27697 3.41471 2.90214
# Velocity P-wave (km/s) = 5.00783 6.94652 6.05527
#
# Compressibility (1/GPa) = 0.02741738
#
# Stress axis : x y z
#
# Youngs Moduli (GPa) = 63.39183 67.16511 50.49958
#
# Poissons Ratio (x) = 0.78273 0.17946
# Poissons Ratio (y) = 0.73876 -0.18600
# Poissons Ratio (z) = 0.22527 -0.24739
#
# Static dielectric constant tensor:
#      x y z
#    x 1.718340 0.000000 0.000000 
#    y 0.000000 1.697810 0.000000 
#    z 0.000000 0.000000 1.818950 
# 
# From -- ./inp_files/16168.got.cif
#   From: 2010.05.17/outbox.cif.g08.bks.cpg/sg71_9_cif.got.tgz:16168.got - 2010.06.03 16:22:01.
