data_PCOD9518187
_publ_section_title
;
Structure prediction by ZEFSAII (Michael W. Deem and Ramdas Pophale) SiO2 
 PCOD9518187
Probable space group: I M M M
;
_chemical_formula_sum "Si O2"
_cell_formula_units_Z 104
_cell_length_a 14.278467
_cell_length_b 15.192728
_cell_length_c 30.980476
_cell_angle_alpha 90.000000
_cell_angle_beta 90.000000
_cell_angle_gamma 90.000000
_cell_volume 6720.559508
_symmetry_space_group_name_H-M "I M M M"
_symmetry_group_IT_number 71
_symmetry_cell_setting 'orthorhombic'
loop_
_space_group_symop_operation_xyz
x,y,z
-x,-y,z
x,-y,-z
-x,y,-z
-x,-y,-z
x,y,-z
-x,y,z
x,-y,z
1/2+x,1/2+y,1/2+z
1/2-x,1/2-y,1/2+z
1/2+x,1/2-y,1/2-z
1/2-x,1/2+y,1/2-z
1/2-x,1/2-y,1/2-z
1/2+x,1/2+y,1/2-z
1/2-x,1/2+y,1/2+z
1/2+x,1/2-y,1/2+z
loop_
_atom_site_type_symbol
_atom_site_label
_atom_site_fract_x
_atom_site_fract_y
_atom_site_fract_z
Si Si1 0.890530 0.219665 0.618462
Si Si2 0.892719 0.606350 0.000000
Si Si3 0.780998 0.350552 0.250405
Si Si4 0.394786 0.105766 0.333907
Si Si5 0.894606 0.903106 0.298657
Si Si6 0.611537 0.898659 0.837794
Si Si7 0.768254 0.393819 0.916767
O O1 0.880192 0.170104 0.664824
O O2 0.866305 0.321792 0.627703
O O3 0.824272 0.165680 0.586310
O O4 0.000000 0.213815 0.606449
O O5 0.833583 0.628938 0.042556
O O6 0.899177 0.500000 0.000000
O O7 0.000000 0.639667 0.000000
O O8 0.750000 0.250000 0.250000
O O9 0.853690 0.363925 0.211464
O O10 0.685678 0.399538 0.236874
O O11 0.828206 0.380525 0.294775
O O12 0.500000 0.138789 0.341149
O O13 0.326523 0.127245 0.373337
O O14 0.398092 0.000000 0.332416
O O15 0.000000 0.892316 0.281155
O O16 0.889263 0.000000 0.319840
O O17 0.500000 0.888827 0.827691
O O18 0.626234 0.000000 0.851738
O O19 0.749436 0.500000 0.917725
#
# Coordination Sequence:
#
# PCOD9518187 Si02
#       7
#    16   8  16  16  16  16  16
#     4  10  19  32  48  68  92 123 162 196 231 279
#     4   9  18  32  51  75 106 137 157 181 225 284
#     4  12  20  29  43  62  90 122 159 204 244 277
#     4  10  19  29  43  63  87 116 153 194 231 269
#     4  10  19  30  43  59  83 118 157 193 230 274
#     4  10  20  33  48  66  92 125 161 204 250 288
#     4  10  18  31  49  72 100 129 157 186 226 279
#
# _framework density 15.474902
#
# number of rings (size 3 to 8) (size 9 to 14) (size 15 to 20)
#    0.000    1.769    3.077    2.769    0.000    4.615 
#    0.000    0.385    0.000    1.385    0.000    0.538 
#    0.000    3.077    0.000    0.000    0.000    0.000 
#
# Total GULP energy -289843.921310 kJ/mol
# GULP energy per Si atom -5573.921564 kJ/mol
# Density = 1.543968 g / cm^3
# Si number density = 15.474902 Si / 1000 Ang^3
#
#
#
# Elastic Constant Matrix: (Units=GPa)
#
#
# Indices 1 2 3 4 5 6 
#
# 1 99.6234 40.2606 37.4618 0.0000 0.0000 0.0000
# 2 40.2606 82.0848 14.6210 0.0000 0.0000 0.0000
# 3 37.4618 14.6210 47.2971 0.0000 0.0000 0.0000
# 4 0.0000 0.0000 0.0000 14.3140 0.0000 0.0000
# 5 0.0000 0.0000 0.0000 0.0000 17.2067 0.0000
# 6 0.0000 0.0000 0.0000 0.0000 0.0000 -9.7124
#
#
#
# Elastic Compliance Matrix: (Units=1/GPa)
#
#
# Indices 1 2 3 4 5 6 
#
# 1 0.016850 -0.006230 -0.011420 0.000000 0.000000 0.000000
# 2 -0.006230 0.015196 0.000237 0.000000 0.000000 0.000000
# 3 -0.011420 0.000237 0.030115 0.000000 0.000000 0.000000
# 4 0.000000 0.000000 0.000000 0.069862 0.000000 0.000000
# 5 0.000000 0.000000 0.000000 0.000000 0.058117 0.000000
# 6 0.000000 0.000000 0.000000 0.000000 0.000000 -0.102961
#
#
# Mechanical properties :
#
#
# Convention : Reuss Voigt Hill
#
# Bulk Modulus (GPa) = 36.58379 45.96579 41.27479
# Shear Modulus (GPa) = 38.13396 13.47244 25.80320
#
# Velocity S-wave (km/s) = 4.96950 2.95379 4.08784
# Velocity P-wave (km/s) = 7.52463 6.43437 7.00075
#
# Compressibility (1/GPa) = 0.02733451
#
# Stress axis : x y z
#
# Youngs Moduli (GPa) = 59.34712 65.80625 33.20609
#
# Poissons Ratio (x) = 0.41000 0.37922
# Poissons Ratio (y) = 0.36975 -0.00788
# Poissons Ratio (z) = 0.67775 -0.01561
#
# Static dielectric constant tensor:
#      x y z
#    x 1.549160 0.000000 0.000000 
#    y 0.000000 1.586470 0.000000 
#    z 0.000000 0.000000 1.482840 
# 
# From -- ./inp_files/70070.got.cif
#   From: 2010.05.17/outbox.cif.g08.bks.cpg/sg71_36_cif.got.tgz:70070.got - 2010.06.03 16:22:01.
