data_PCOD9518214
_publ_section_title
;
Structure prediction by ZEFSAII (Michael W. Deem and Ramdas Pophale) SiO2 
 PCOD9518214
Probable space group: I M M M
;
_chemical_formula_sum "Si O2"
_cell_formula_units_Z 112
_cell_length_a 25.929871
_cell_length_b 15.646532
_cell_length_c 15.273922
_cell_angle_alpha 90.000000
_cell_angle_beta 90.000000
_cell_angle_gamma 90.000000
_cell_volume 6196.821940
_symmetry_space_group_name_H-M "I M M M"
_symmetry_group_IT_number 71
_symmetry_cell_setting 'orthorhombic'
loop_
_space_group_symop_operation_xyz
x,y,z
-x,-y,z
x,-y,-z
-x,y,-z
-x,-y,-z
x,y,-z
-x,y,z
x,-y,z
1/2+x,1/2+y,1/2+z
1/2-x,1/2-y,1/2+z
1/2+x,1/2-y,1/2-z
1/2-x,1/2+y,1/2-z
1/2-x,1/2-y,1/2-z
1/2+x,1/2+y,1/2-z
1/2-x,1/2+y,1/2+z
1/2+x,1/2-y,1/2+z
loop_
_atom_site_type_symbol
_atom_site_label
_atom_site_fract_x
_atom_site_fract_y
_atom_site_fract_z
Si Si1 0.408454 0.599186 0.354606
Si Si2 0.444336 0.216653 0.398381
Si Si3 0.209239 0.899514 0.096531
Si Si4 0.348182 0.101594 0.604475
Si Si5 0.442737 0.400276 0.848080
Si Si6 0.665618 0.396833 0.094668
Si Si7 0.247211 0.348874 0.771217
O O1 0.416681 0.500000 0.386067
O O2 0.436689 0.680849 0.395460
O O3 0.348182 0.622027 0.368637
O O4 0.426951 0.599532 0.254113
O O5 0.446772 0.191955 0.500000
O O6 0.500000 0.196587 0.356763
O O7 0.395526 0.162374 0.365517
O O8 0.250045 0.886688 0.173670
O O9 0.206963 0.000000 0.084786
O O10 0.218243 0.859437 0.000000
O O11 0.337298 0.117828 0.500000
O O12 0.299866 0.123373 0.666852
O O13 0.359773 0.000000 0.611752
O O14 0.500000 0.363035 0.860667
O O15 0.446052 0.500000 0.874934
O O16 0.392707 0.362954 0.895521
O O17 0.662962 0.500000 0.096547
O O18 0.701724 0.372193 0.174293
O O19 0.687232 0.371050 0.000000
O O20 0.250000 0.250000 0.750000
#
# Coordination Sequence:
#
# PCOD9518214 Si02
#       7
#    16  16  16  16  16  16  16
#     4  10  18  31  50  76 113 154 189 221 268 334
#     4  10  21  35  52  78 110 143 185 234 283 338
#     4  10  20  34  53  75 104 142 180 217 259 316
#     4  10  22  40  61  83 109 145 190 240 289 336
#     4   9  17  29  48  75 107 144 182 217 256 309
#     4  10  20  35  55  78 107 144 184 222 261 318
#     4  12  23  35  55  80 108 139 177 225 286 337
#
# _framework density 18.073779999999999
#
# number of rings (size 3 to 8) (size 9 to 14) (size 15 to 20)
#    0.000    1.857    1.429    3.429    0.000    5.714 
#    0.000    3.571    0.000    0.000    0.000    0.000 
#    0.000    0.571    0.000    3.000    0.000    0.143 
#
# Total GULP energy -311779.684185 kJ/mol
# GULP energy per Si atom -5567.494360 kJ/mol
# Density = 1.803264 g / cm^3
# Si number density = 18.073780 Si / 1000 Ang^3
#
#
#
# Elastic Constant Matrix: (Units=GPa)
#
#
# Indices 1 2 3 4 5 6 
#
# 1 119.6803 33.2320 48.8187 0.0000 0.0000 0.0000
# 2 33.2320 55.4408 19.9922 0.0000 0.0000 0.0000
# 3 48.8187 19.9922 84.2919 0.0000 0.0000 0.0000
# 4 0.0000 0.0000 0.0000 10.7688 0.0000 0.0000
# 5 0.0000 0.0000 0.0000 0.0000 9.9312 0.0000
# 6 0.0000 0.0000 0.0000 0.0000 0.0000 16.3913
#
#
#
# Elastic Compliance Matrix: (Units=1/GPa)
#
#
# Indices 1 2 3 4 5 6 
#
# 1 0.012172 -0.005198 -0.005816 0.000000 0.000000 0.000000
# 2 -0.005198 0.021944 -0.002194 0.000000 0.000000 0.000000
# 3 -0.005816 -0.002194 0.015753 0.000000 0.000000 0.000000
# 4 0.000000 0.000000 0.000000 0.092861 0.000000 0.000000
# 5 0.000000 0.000000 0.000000 0.000000 0.100693 0.000000
# 6 0.000000 0.000000 0.000000 0.000000 0.000000 0.061008
#
#
# Mechanical properties :
#
#
# Convention : Reuss Voigt Hill
#
# Bulk Modulus (GPa) = 42.64220 51.49985 47.07103
# Shear Modulus (GPa) = 14.76383 17.90958 16.33670
#
# Velocity S-wave (km/s) = 2.86118 3.15130 3.00974
# Velocity P-wave (km/s) = 5.87876 6.46506 6.17887
#
# Compressibility (1/GPa) = 0.02345095
#
# Stress axis : x y z
#
# Youngs Moduli (GPa) = 82.15835 45.56969 63.48178
#
# Poissons Ratio (x) = 0.23689 0.36924
# Poissons Ratio (y) = 0.42709 0.13928
# Poissons Ratio (z) = 0.47787 0.09998
#
# Static dielectric constant tensor:
#      x y z
#    x 1.694570 0.000000 0.000000 
#    y 0.000000 1.507490 0.000000 
#    z 0.000000 0.000000 1.665120 
# 
# From -- ./inp_files/34921.got.cif
#   From: 2010.05.17/outbox.cif.g08.bks.cpg/sg71_18_cif.got.tgz:34921.got - 2010.06.03 16:22:01.
