data_PCOD9518165
_publ_section_title
;
Structure prediction by ZEFSAII (Michael W. Deem and Ramdas Pophale) SiO2 
 PCOD9518165
Probable space group: I M M M
;
_chemical_formula_sum "Si O2"
_cell_formula_units_Z 80
_cell_length_a 7.776256
_cell_length_b 26.635912
_cell_length_c 24.953235
_cell_angle_alpha 90.000000
_cell_angle_beta 90.000000
_cell_angle_gamma 90.000000
_cell_volume 5168.505437
_symmetry_space_group_name_H-M "I M M M"
_symmetry_group_IT_number 71
_symmetry_cell_setting 'orthorhombic'
loop_
_space_group_symop_operation_xyz
x,y,z
-x,-y,z
x,-y,-z
-x,y,-z
-x,-y,-z
x,y,-z
-x,y,z
x,-y,z
1/2+x,1/2+y,1/2+z
1/2-x,1/2-y,1/2+z
1/2+x,1/2-y,1/2-z
1/2-x,1/2+y,1/2-z
1/2-x,1/2-y,1/2-z
1/2+x,1/2+y,1/2-z
1/2-x,1/2+y,1/2+z
1/2+x,1/2-y,1/2+z
loop_
_atom_site_type_symbol
_atom_site_label
_atom_site_fract_x
_atom_site_fract_y
_atom_site_fract_z
Si Si1 0.795982 0.758799 0.616618
Si Si2 0.292021 0.557137 0.107971
Si Si3 0.204500 0.200347 0.215652
Si Si4 0.789235 0.144235 0.684373
Si Si5 0.198181 0.229648 0.500000
Si Si6 0.299649 0.883837 0.500000
O O1 0.772057 0.712000 0.656501
O O2 0.730532 0.809045 0.646874
O O3 0.723088 0.753878 0.556848
O O4 0.000000 0.767122 0.610893
O O5 0.500000 0.555838 0.109477
O O6 0.228907 0.500000 0.110390
O O7 0.233866 0.592845 0.156623
O O8 0.242241 0.583910 0.052572
O O9 0.250000 0.250000 0.250000
O O10 0.266287 0.155676 0.254628
O O11 0.000000 0.196714 0.211372
O O12 0.000000 0.145181 0.684469
O O13 0.200670 0.168924 0.500000
O O14 0.000000 0.247422 0.500000
O O15 0.500000 0.871031 0.500000
#
# Coordination Sequence:
#
# PCOD9518165 Si02
#       6
#    16  16  16  16   8   8
#     4   9  16  27  43  59  77 100 129 164 198 235
#     4  10  19  32  48  59  71 102 145 176 202 241
#     4   9  16  26  40  57  79 101 126 159 196 240
#     4   8  14  26  42  58  74  96 128 166 198 229
#     4  10  18  31  47  58  78 109 139 169 200 240
#     4  12  23  31  40  57  82 106 134 175 215 245
#
# _framework density 15.478363
#
# number of rings (size 3 to 8) (size 9 to 14) (size 15 to 20)
#    0.000    2.600    2.000    3.000    0.000    2.400 
#    0.000    1.000    0.000    0.000    0.000    0.000 
#    0.000    0.000    0.000    0.900    0.000   20.800 
#
# Total GULP energy -222770.078549 kJ/mol
# GULP energy per Si atom -5569.251964 kJ/mol
# Density = 1.544313 g / cm^3
# Si number density = 15.478363 Si / 1000 Ang^3
#
#
#
# Elastic Constant Matrix: (Units=GPa)
#
#
# Indices 1 2 3 4 5 6 
#
# 1 21.6530 -6.0040 -1.2765 0.0000 0.0000 0.0000
# 2 -6.0040 49.3406 54.8305 0.0000 0.0000 0.0000
# 3 -1.2765 54.8305 144.4103 0.0000 0.0000 0.0000
# 4 0.0000 0.0000 0.0000 14.0946 0.0000 0.0000
# 5 0.0000 0.0000 0.0000 0.0000 14.1012 0.0000
# 6 0.0000 0.0000 0.0000 0.0000 0.0000 7.3148
#
#
#
# Elastic Compliance Matrix: (Units=1/GPa)
#
#
# Indices 1 2 3 4 5 6 
#
# 1 0.048606 0.009406 -0.003142 0.000000 0.000000 0.000000
# 2 0.009406 0.036880 -0.013920 0.000000 0.000000 0.000000
# 3 -0.003142 -0.013920 0.012182 0.000000 0.000000 0.000000
# 4 0.000000 0.000000 0.000000 0.070949 0.000000 0.000000
# 5 0.000000 0.000000 0.000000 0.000000 0.070916 0.000000
# 6 0.000000 0.000000 0.000000 0.000000 0.000000 0.136709
#
#
# Mechanical properties :
#
#
# Convention : Reuss Voigt Hill
#
# Bulk Modulus (GPa) = 12.14229 34.50043 23.32136
# Shear Modulus (GPa) = 11.93299 18.29238 15.11269
#
# Velocity S-wave (km/s) = 2.77960 3.44147 3.12809
# Velocity P-wave (km/s) = 4.26184 6.17490 5.30532
#
# Compressibility (1/GPa) = 0.08235681
#
# Stress axis : x y z
#
# Youngs Moduli (GPa) = 20.57370 27.11466 82.08769
#
# Poissons Ratio (x) = -0.25503 0.25788
# Poissons Ratio (y) = -0.19351 1.14265
# Poissons Ratio (z) = 0.06463 0.37743
#
# Static dielectric constant tensor:
#      x y z
#    x 1.583210 0.000000 0.000000 
#    y 0.000000 1.498420 0.000000 
#    z 0.000000 0.000000 1.559340 
# 
# From -- ./inp_files/13067.got.cif
#   From: 2010.05.17/outbox.cif.g08.bks.cpg/sg71_7_cif.got.tgz:13067.got - 2010.06.03 16:22:01.
