data_PCOD9518946
_publ_section_title
;
Structure prediction by ZEFSAII (Michael W. Deem and Ramdas Pophale) SiO2 
 PCOD9518946
Probable space group: I M M M
;
_chemical_formula_sum "Si O2"
_cell_formula_units_Z 88
_cell_length_a 26.709568
_cell_length_b 11.585772
_cell_length_c 16.778493
_cell_angle_alpha 90.000000
_cell_angle_beta 90.000000
_cell_angle_gamma 90.000000
_cell_volume 5192.120851
_symmetry_space_group_name_H-M "I M M M"
_symmetry_group_IT_number 71
_symmetry_cell_setting 'orthorhombic'
loop_
_space_group_symop_operation_xyz
x,y,z
-x,-y,z
x,-y,-z
-x,y,-z
-x,-y,-z
x,y,-z
-x,y,z
x,-y,z
1/2+x,1/2+y,1/2+z
1/2-x,1/2-y,1/2+z
1/2+x,1/2-y,1/2-z
1/2-x,1/2+y,1/2-z
1/2-x,1/2-y,1/2-z
1/2+x,1/2+y,1/2-z
1/2-x,1/2+y,1/2+z
1/2+x,1/2-y,1/2+z
loop_
_atom_site_type_symbol
_atom_site_label
_atom_site_fract_x
_atom_site_fract_y
_atom_site_fract_z
Si Si1 0.318203 0.139974 0.904892
Si Si2 0.095341 0.779609 0.317747
Si Si3 0.708253 0.369442 0.594823
Si Si4 0.600195 0.363306 0.362075
Si Si5 0.500000 0.770665 0.409562
Si Si6 0.056600 0.000000 0.405555
Si Si7 0.500000 0.133805 0.233514
O O1 0.358876 0.205441 0.852003
O O2 0.261972 0.179335 0.879444
O O3 0.320801 0.000000 0.895707
O O4 0.325599 0.163049 0.000000
O O5 0.102097 0.839768 0.232049
O O6 0.082961 0.883910 0.376838
O O7 0.048174 0.696005 0.303702
O O8 0.713576 0.378878 0.500000
O O9 0.705184 0.500000 0.628556
O O10 0.653951 0.315229 0.608841
O O11 0.597298 0.500000 0.379678
O O12 0.550887 0.304242 0.398709
O O13 0.500000 0.819566 0.500000
O O14 0.500000 0.850172 0.330113
O O15 0.054070 0.000000 0.500000
O O16 0.000000 0.000000 0.371391
O O17 0.500000 0.000000 0.214370
#
# Coordination Sequence:
#
# PCOD9518946 Si02
#       7
#    16  16  16  16   8   8   8
#     4   9  18  33  52  73  98 131 174 220 256 298
#     4  11  20  34  53  75 106 134 172 215 257 309
#     4   8  15  29  48  71 100 134 171 211 258 303
#     4  10  19  30  49  75 109 140 168 213 260 305
#     4  10  21  33  52  80 105 137 175 209 253 307
#     4  11  22  36  54  74 104 144 174 205 261 323
#     4  10  22  37  54  75 104 138 169 213 262 300
#
# _framework density 16.948758000000002
#
# number of rings (size 3 to 8) (size 9 to 14) (size 15 to 20)
#    0.000    2.273    1.818    3.000    0.000    2.364 
#    0.000    0.000    0.000    2.182    2.364    0.000 
#    0.000    0.000    0.000    0.000    0.000    0.000 
#
# Total GULP energy -244935.777798 kJ/mol
# GULP energy per Si atom -5566.722223 kJ/mol
# Density = 1.691018 g / cm^3
# Si number density = 16.948758 Si / 1000 Ang^3
#
#
#
# Elastic Constant Matrix: (Units=GPa)
#
#
# Indices 1 2 3 4 5 6 
#
# 1 151.3940 30.8638 29.4517 0.0000 0.0000 0.0000
# 2 30.8638 60.6294 10.2925 0.0000 0.0000 0.0000
# 3 29.4517 10.2925 52.8915 0.0000 0.0000 0.0000
# 4 0.0000 0.0000 0.0000 5.1358 0.0000 0.0000
# 5 0.0000 0.0000 0.0000 0.0000 27.5272 0.0000
# 6 0.0000 0.0000 0.0000 0.0000 0.0000 8.9292
#
#
#
# Elastic Compliance Matrix: (Units=1/GPa)
#
#
# Indices 1 2 3 4 5 6 
#
# 1 0.008050 -0.003451 -0.003811 0.000000 0.000000 0.000000
# 2 -0.003451 0.018537 -0.001686 0.000000 0.000000 0.000000
# 3 -0.003811 -0.001686 0.021357 0.000000 0.000000 0.000000
# 4 0.000000 0.000000 0.000000 0.194713 0.000000 0.000000
# 5 0.000000 0.000000 0.000000 0.000000 0.036328 0.000000
# 6 0.000000 0.000000 0.000000 0.000000 0.000000 0.111992
#
#
# Mechanical properties :
#
#
# Convention : Reuss Voigt Hill
#
# Bulk Modulus (GPa) = 33.27976 45.12565 39.20270
# Shear Modulus (GPa) = 11.93637 21.27222 16.60430
#
# Velocity S-wave (km/s) = 2.65667 3.54657 3.13337
# Velocity P-wave (km/s) = 5.39339 6.59192 6.02255
#
# Compressibility (1/GPa) = 0.03004830
#
# Stress axis : x y z
#
# Youngs Moduli (GPa) = 124.22027 53.94745 46.82367
#
# Poissons Ratio (x) = 0.18617 0.17845
# Poissons Ratio (y) = 0.42869 0.07892
# Poissons Ratio (z) = 0.47341 0.09093
#
# Static dielectric constant tensor:
#      x y z
#    x 1.614850 0.000000 0.000000 
#    y 0.000000 1.546630 0.000000 
#    z 0.000000 0.000000 1.575420 
# 
# From -- ./inp_files/40186.got.cif
#   From: 2010.05.17/outbox.cif.g08.bks.cpg/sg71_21_cif.got.tgz:40186.got - 2010.06.03 16:22:01.
