data_PCOD9518397
_publ_section_title
;
Structure prediction by ZEFSAII (Michael W. Deem and Ramdas Pophale) SiO2 
 PCOD9518397
Probable space group: I M M M
;
_chemical_formula_sum "Si O2"
_cell_formula_units_Z 96
_cell_length_a 7.464469
_cell_length_b 28.065279
_cell_length_c 22.443716
_cell_angle_alpha 90.000000
_cell_angle_beta 90.000000
_cell_angle_gamma 90.000000
_cell_volume 4701.788044
_symmetry_space_group_name_H-M "I M M M"
_symmetry_group_IT_number 71
_symmetry_cell_setting 'orthorhombic'
loop_
_space_group_symop_operation_xyz
x,y,z
-x,-y,z
x,-y,-z
-x,y,-z
-x,-y,-z
x,y,-z
-x,y,z
x,-y,z
1/2+x,1/2+y,1/2+z
1/2-x,1/2-y,1/2+z
1/2+x,1/2-y,1/2-z
1/2-x,1/2+y,1/2-z
1/2-x,1/2-y,1/2-z
1/2+x,1/2+y,1/2-z
1/2-x,1/2+y,1/2+z
1/2+x,1/2-y,1/2+z
loop_
_atom_site_type_symbol
_atom_site_label
_atom_site_fract_x
_atom_site_fract_y
_atom_site_fract_z
Si Si1 0.216341 0.707274 0.326881
Si Si2 0.784580 0.053903 0.780592
Si Si3 0.779899 0.554811 0.500000
Si Si4 0.793792 0.618440 0.391511
Si Si5 0.207420 0.412597 0.148336
Si Si6 0.280340 0.000000 0.430758
Si Si7 0.212790 0.313927 0.192876
O O1 0.284491 0.670106 0.375943
O O2 0.282985 0.691753 0.260801
O O3 0.260650 0.762414 0.336414
O O4 0.000000 0.703727 0.325336
O O5 0.712218 0.090032 0.829408
O O6 0.716805 0.065643 0.714735
O O7 0.000000 0.057332 0.779849
O O8 0.733971 0.000000 0.796750
O O9 0.720362 0.500000 0.500000
O O10 0.717856 0.584288 0.442255
O O11 0.000000 0.552941 0.500000
O O12 0.000000 0.626380 0.409167
O O13 0.282990 0.452362 0.103672
O O14 0.285898 0.359476 0.157202
O O15 0.000000 0.406621 0.130374
O O16 0.500000 0.000000 0.427192
O O17 0.231198 0.000000 0.500000
O O18 0.000000 0.322083 0.198705
#
# Coordination Sequence:
#
# PCOD9518397 Si02
#       7
#    16  16   8  16  16   8  16
#     4   9  17  29  47  72 100 131 166 208 258 303
#     4  11  22  32  46  75 108 133 165 209 259 310
#     4   9  18  32  53  79 101 131 175 222 261 300
#     4  10  19  34  54  75 100 133 178 218 257 306
#     4  10  18  32  54  76 101 134 171 209 253 304
#     4   9  18  32  55  83 105 130 169 214 259 301
#     4   9  17  29  46  73 103 130 165 205 255 308
#
# _framework density 20.417764999999999
#
# number of rings (size 3 to 8) (size 9 to 14) (size 15 to 20)
#    0.000    2.333    2.500    1.000    0.000    3.000 
#    0.000    0.417    1.833    2.500    0.000    0.000 
#    0.000    0.000    0.000    0.000    0.000    0.000 
#
# Total GULP energy -267804.582405 kJ/mol
# GULP energy per Si atom -5579.262133 kJ/mol
# Density = 2.037129 g / cm^3
# Si number density = 20.417765 Si / 1000 Ang^3
#
#
#
# Elastic Constant Matrix: (Units=GPa)
#
#
# Indices 1 2 3 4 5 6 
#
# 1 62.8709 4.8450 -5.9043 0.0000 0.0000 0.0000
# 2 4.8450 205.2795 68.8417 0.0000 0.0000 0.0000
# 3 -5.9043 68.8417 103.4580 0.0000 0.0000 0.0000
# 4 0.0000 0.0000 0.0000 25.9154 0.0000 0.0000
# 5 0.0000 0.0000 0.0000 0.0000 21.6144 0.0000
# 6 0.0000 0.0000 0.0000 0.0000 0.0000 14.2141
#
#
#
# Elastic Compliance Matrix: (Units=1/GPa)
#
#
# Indices 1 2 3 4 5 6 
#
# 1 0.016116 -0.000887 0.001510 0.000000 0.000000 0.000000
# 2 -0.000887 0.006319 -0.004256 0.000000 0.000000 0.000000
# 3 0.001510 -0.004256 0.012584 0.000000 0.000000 0.000000
# 4 0.000000 0.000000 0.000000 0.038587 0.000000 0.000000
# 5 0.000000 0.000000 0.000000 0.000000 0.046266 0.000000
# 6 0.000000 0.000000 0.000000 0.000000 0.000000 0.070353
#
#
# Mechanical properties :
#
#
# Convention : Reuss Voigt Hill
#
# Bulk Modulus (GPa) = 36.03126 56.35259 46.19193
# Shear Modulus (GPa) = 24.18491 32.60384 28.39438
#
# Velocity S-wave (km/s) = 3.44540 4.00038 3.73321
# Velocity P-wave (km/s) = 5.78904 6.99979 6.42301
#
# Compressibility (1/GPa) = 0.02775368
#
# Stress axis : x y z
#
# Youngs Moduli (GPa) = 62.05120 158.24076 79.46827
#
# Poissons Ratio (x) = 0.14030 -0.11997
# Poissons Ratio (y) = 0.05502 0.33819
# Poissons Ratio (z) = -0.09368 0.67341
#
# Static dielectric constant tensor:
#      x y z
#    x 1.805530 0.000000 0.000000 
#    y 0.000000 1.755440 0.000000 
#    z 0.000000 0.000000 1.685710 
# 
# From -- ./inp_files/57921.got.cif
#   From: 2010.05.17/outbox.cif.g08.bks.cpg/sg71_29_cif.got.tgz:57921.got - 2010.06.03 16:22:01.
