data_PCOD9518487
_publ_section_title
;
Structure prediction by ZEFSAII (Michael W. Deem and Ramdas Pophale) SiO2 
 PCOD9518487
Probable space group: I M M M
;
_chemical_formula_sum "Si O2"
_cell_formula_units_Z 84
_cell_length_a 17.220338
_cell_length_b 13.735121
_cell_length_c 20.462498
_cell_angle_alpha 90.000000
_cell_angle_beta 90.000000
_cell_angle_gamma 90.000000
_cell_volume 4839.860133
_symmetry_space_group_name_H-M "I M M M"
_symmetry_group_IT_number 71
_symmetry_cell_setting 'orthorhombic'
loop_
_space_group_symop_operation_xyz
x,y,z
-x,-y,z
x,-y,-z
-x,y,-z
-x,-y,-z
x,y,-z
-x,y,z
x,-y,z
1/2+x,1/2+y,1/2+z
1/2-x,1/2-y,1/2+z
1/2+x,1/2-y,1/2-z
1/2-x,1/2+y,1/2-z
1/2-x,1/2-y,1/2-z
1/2+x,1/2+y,1/2-z
1/2-x,1/2+y,1/2+z
1/2+x,1/2-y,1/2+z
loop_
_atom_site_type_symbol
_atom_site_label
_atom_site_fract_x
_atom_site_fract_y
_atom_site_fract_z
Si Si1 0.647185 0.614164 0.879965
Si Si2 0.323763 0.107326 0.577867
Si Si3 0.000000 0.871573 0.000000
Si Si4 0.136179 0.818061 0.901438
Si Si5 0.410262 0.256665 0.000000
Si Si6 0.410372 0.382803 0.262450
Si Si7 0.733915 0.116490 0.000000
O O1 0.624973 0.500000 0.887825
O O2 0.740116 0.618915 0.888568
O O3 0.608122 0.677582 0.936409
O O4 0.623182 0.647331 0.807679
O O5 0.309368 0.108802 0.500000
O O6 0.374752 0.201460 0.592772
O O7 0.355779 0.000000 0.594338
O O8 0.931993 0.868742 0.942916
O O9 0.134314 0.846404 0.826119
O O10 0.216000 0.846465 0.937725
O O11 0.500000 0.226932 0.000000
O O12 0.349272 0.168136 0.000000
O O13 0.500000 0.351474 0.267668
O O14 0.408356 0.500000 0.263676
O O15 0.729887 0.000000 0.000000
#
# Coordination Sequence:
#
# PCOD9518487 Si02
#       7
#    16  16   4  16   8  16   8
#     4  10  19  35  57  85 112 139 179 229 281 334
#     4  10  18  33  57  82 111 142 184 231 273 322
#     4  10  20  32  58  86 104 142 186 222 268 320
#     4  11  19  38  57  80 112 146 184 226 276 327
#     4  12  22  37  59  83 110 145 184 223 277 327
#     4  10  21  34  51  81 117 145 174 226 287 331
#     4  11  23  39  57  82 108 144 191 228 263 323
#
# _framework density 17.355874
#
# number of rings (size 3 to 8) (size 9 to 14) (size 15 to 20)
#    0.000    1.524    5.714    1.429    0.000    2.476 
#    0.000    2.381    0.000    0.000    0.000    0.000 
#    0.000    0.000    0.000    0.000    0.000    0.000 
#
# Total GULP energy -233843.339757 kJ/mol
# GULP energy per Si atom -5567.698566 kJ/mol
# Density = 1.731637 g / cm^3
# Si number density = 17.355874 Si / 1000 Ang^3
#
#
#
# Elastic Constant Matrix: (Units=GPa)
#
#
# Indices 1 2 3 4 5 6 
#
# 1 44.1703 9.7563 18.7405 0.0000 0.0000 0.0000
# 2 9.7563 74.1226 32.7589 0.0000 0.0000 0.0000
# 3 18.7405 32.7589 141.1848 0.0000 0.0000 0.0000
# 4 0.0000 0.0000 0.0000 81.3144 0.0000 0.0000
# 5 0.0000 0.0000 0.0000 0.0000 14.1915 0.0000
# 6 0.0000 0.0000 0.0000 0.0000 0.0000 25.1679
#
#
#
# Elastic Compliance Matrix: (Units=1/GPa)
#
#
# Indices 1 2 3 4 5 6 
#
# 1 0.024246 -0.001971 -0.002761 0.000000 0.000000 0.000000
# 2 -0.001971 0.015193 -0.003264 0.000000 0.000000 0.000000
# 3 -0.002761 -0.003264 0.008207 0.000000 0.000000 0.000000
# 4 0.000000 0.000000 0.000000 0.012298 0.000000 0.000000
# 5 0.000000 0.000000 0.000000 0.000000 0.070465 0.000000
# 6 0.000000 0.000000 0.000000 0.000000 0.000000 0.039733
#
#
# Mechanical properties :
#
#
# Convention : Reuss Voigt Hill
#
# Bulk Modulus (GPa) = 31.59103 42.44325 37.01714
# Shear Modulus (GPa) = 25.42139 37.34957 31.38548
#
# Velocity S-wave (km/s) = 3.83131 4.64398 4.25708
# Velocity P-wave (km/s) = 6.14926 7.29816 6.74821
#
# Compressibility (1/GPa) = 0.03165455
#
# Stress axis : x y z
#
# Youngs Moduli (GPa) = 41.24313 65.81998 121.85243
#
# Poissons Ratio (x) = 0.12974 0.33644
# Poissons Ratio (y) = 0.08130 0.39767
# Poissons Ratio (z) = 0.11387 0.21481
#
# Static dielectric constant tensor:
#      x y z
#    x 1.580970 0.000000 0.000000 
#    y 0.000000 1.626130 0.000000 
#    z 0.000000 0.000000 1.574260 
# 
# From -- ./inp_files/52942.got.cif
#   From: 2010.05.17/outbox.cif.g08.bks.cpg/sg71_27_cif.got.tgz:52942.got - 2010.06.03 16:22:01.
