data_PCOD9518460
_publ_section_title
;
Structure prediction by ZEFSAII (Michael W. Deem and Ramdas Pophale) SiO2 
 PCOD9518460
Probable space group: I M M M
;
_chemical_formula_sum "Si O2"
_cell_formula_units_Z 88
_cell_length_a 14.205769
_cell_length_b 19.761419
_cell_length_c 16.072923
_cell_angle_alpha 90.000000
_cell_angle_beta 90.000000
_cell_angle_gamma 90.000000
_cell_volume 4512.089848
_symmetry_space_group_name_H-M "I M M M"
_symmetry_group_IT_number 71
_symmetry_cell_setting 'orthorhombic'
loop_
_space_group_symop_operation_xyz
x,y,z
-x,-y,z
x,-y,-z
-x,y,-z
-x,-y,-z
x,y,-z
-x,y,z
x,-y,z
1/2+x,1/2+y,1/2+z
1/2-x,1/2-y,1/2+z
1/2+x,1/2-y,1/2-z
1/2-x,1/2+y,1/2-z
1/2-x,1/2-y,1/2-z
1/2+x,1/2+y,1/2-z
1/2-x,1/2+y,1/2+z
1/2+x,1/2-y,1/2+z
loop_
_atom_site_type_symbol
_atom_site_label
_atom_site_fract_x
_atom_site_fract_y
_atom_site_fract_z
Si Si1 0.605809 0.836430 0.858979
Si Si2 0.215346 0.209903 0.333397
Si Si3 0.887704 0.920442 0.737589
Si Si4 0.886244 0.500000 0.906230
Si Si5 0.606168 0.145300 0.658537
Si Si6 0.786993 0.080364 0.090936
O O1 0.500000 0.848515 0.889616
O O2 0.642026 0.760377 0.875483
O O3 0.603592 0.846213 0.758483
O O4 0.686804 0.884693 0.893219
O O5 0.250000 0.250000 0.250000
O O6 0.166493 0.138230 0.312678
O O7 0.314025 0.193963 0.377974
O O8 0.856839 0.905891 0.832846
O O9 0.000000 0.913594 0.727793
O O10 0.863447 0.000000 0.719169
O O11 0.862568 0.568807 0.859938
O O12 0.000000 0.500000 0.910586
O O13 0.848773 0.500000 0.000000
O O14 0.500000 0.156295 0.626988
O O15 0.772546 0.000000 0.090831
O O16 0.823412 0.100883 0.000000
#
# Coordination Sequence:
#
# PCOD9518460 Si02
#       6
#    16  16  16   8  16  16
#     4  10  20  34  53  79 107 139 179 220 268 317
#     4  10  18  33  53  79 106 137 174 227 265 314
#     4  10  20  34  55  81 109 140 179 224 271 322
#     4   9  18  32  50  78 110 136 165 206 258 316
#     4   9  18  30  52  78 103 137 170 210 261 313
#     4  10  21  36  53  77 109 144 182 224 268 319
#
# _framework density 19.503157000000002
#
# number of rings (size 3 to 8) (size 9 to 14) (size 15 to 20)
#    0.000    2.273    3.636    0.545    2.545    1.818 
#    0.000    3.636    0.000    0.000    0.000    0.000 
#    0.000    1.455    0.000    0.000    0.000    0.000 
#
# Total GULP energy -245134.762099 kJ/mol
# GULP energy per Si atom -5571.244593 kJ/mol
# Density = 1.945877 g / cm^3
# Si number density = 19.503157 Si / 1000 Ang^3
#
#
#
# Elastic Constant Matrix: (Units=GPa)
#
#
# Indices 1 2 3 4 5 6 
#
# 1 89.4094 36.2098 7.4062 0.0000 0.0000 0.0000
# 2 36.2098 53.5736 8.3762 0.0000 0.0000 0.0000
# 3 7.4062 8.3762 17.6319 0.0000 0.0000 0.0000
# 4 0.0000 0.0000 0.0000 -8.9657 0.0000 0.0000
# 5 0.0000 0.0000 0.0000 0.0000 2.9375 0.0000
# 6 0.0000 0.0000 0.0000 0.0000 0.0000 38.9269
#
#
#
# Elastic Compliance Matrix: (Units=1/GPa)
#
#
# Indices 1 2 3 4 5 6 
#
# 1 0.015444 -0.010180 -0.001651 0.000000 0.000000 0.000000
# 2 -0.010180 0.026874 -0.008491 0.000000 0.000000 0.000000
# 3 -0.001651 -0.008491 0.061443 0.000000 0.000000 0.000000
# 4 0.000000 0.000000 0.000000 -0.111536 0.000000 0.000000
# 5 0.000000 0.000000 0.000000 0.000000 0.340428 0.000000
# 6 0.000000 0.000000 0.000000 0.000000 0.000000 0.025689
#
#
# Mechanical properties :
#
#
# Convention : Reuss Voigt Hill
#
# Bulk Modulus (GPa) = 15.84360 29.39992 22.62176
# Shear Modulus (GPa) = 11.90405 13.82125 12.86265
#
# Velocity S-wave (km/s) = 2.47324 2.66497 2.57089
# Velocity P-wave (km/s) = 4.03697 4.95748 4.52071
#
# Compressibility (1/GPa) = 0.06311696
#
# Stress axis : x y z
#
# Youngs Moduli (GPa) = 64.74910 37.21029 16.27535
#
# Poissons Ratio (x) = 0.37882 0.02687
# Poissons Ratio (y) = 0.65918 0.13819
# Poissons Ratio (z) = 0.10690 0.31594
#
# Static dielectric constant tensor:
#      x y z
#    x 1.700310 0.000000 0.000000 
#    y 0.000000 1.679250 0.000000 
#    z 0.000000 0.000000 1.733130 
# 
# From -- ./inp_files/44683.got.cif
#   From: 2010.05.17/outbox.cif.g08.bks.cpg/sg71_23_cif.got.tgz:44683.got - 2010.06.03 16:22:01.
