data_PCOD9518949
_publ_section_title
;
Structure prediction by ZEFSAII (Michael W. Deem and Ramdas Pophale) SiO2 
 PCOD9518949
Probable space group: I M M M
;
_chemical_formula_sum "Si O2"
_cell_formula_units_Z 80
_cell_length_a 7.467196
_cell_length_b 14.821286
_cell_length_c 34.872725
_cell_angle_alpha 90.000000
_cell_angle_beta 90.000000
_cell_angle_gamma 90.000000
_cell_volume 3859.484701
_symmetry_space_group_name_H-M "I M M M"
_symmetry_group_IT_number 71
_symmetry_cell_setting 'orthorhombic'
loop_
_space_group_symop_operation_xyz
x,y,z
-x,-y,z
x,-y,-z
-x,y,-z
-x,-y,-z
x,y,-z
-x,y,z
x,-y,z
1/2+x,1/2+y,1/2+z
1/2-x,1/2-y,1/2+z
1/2+x,1/2-y,1/2-z
1/2-x,1/2+y,1/2-z
1/2-x,1/2-y,1/2-z
1/2+x,1/2+y,1/2-z
1/2-x,1/2+y,1/2+z
1/2+x,1/2-y,1/2+z
loop_
_atom_site_type_symbol
_atom_site_label
_atom_site_fract_x
_atom_site_fract_y
_atom_site_fract_z
Si Si1 0.783725 0.896593 0.245814
Si Si2 0.283693 0.895597 0.542608
Si Si3 0.212412 0.762405 0.311424
Si Si4 0.218545 0.395679 0.457331
Si Si5 0.208337 0.253992 0.603335
O O1 0.716985 0.840385 0.282949
O O2 0.737314 0.833511 0.209645
O O3 0.000000 0.899360 0.247592
O O4 0.720328 0.000000 0.243904
O O5 0.224617 0.864897 0.500000
O O6 0.500000 0.892336 0.543049
O O7 0.216751 0.834350 0.576936
O O8 0.230874 0.000000 0.546946
O O9 0.286594 0.760479 0.354463
O O10 0.000000 0.779723 0.314123
O O11 0.276531 0.366319 0.500000
O O12 0.268123 0.500000 0.452243
O O13 0.286290 0.332791 0.423352
O O14 0.000000 0.391826 0.457415
O O15 0.000000 0.278012 0.609446
#
# Coordination Sequence:
#
# PCOD9518949 Si02
#       5
#    16  16  16  16  16
#     4   9  18  34  53  69  92 129 165 197 240 295
#     4   9  19  35  51  68  96 135 172 202 237 283
#     4   9  19  33  49  74 102 124 155 202 250 295
#     4   8  14  25  41  63  93 126 156 187 228 279
#     4  10  19  30  49  76 100 123 157 204 250 288
#
# _framework density 20.728155999999998
#
# number of rings (size 3 to 8) (size 9 to 14) (size 15 to 20)
#    0.000    3.000    0.000    1.800    0.000    4.400 
#    0.000    5.000    0.000    0.600    0.000    2.800 
#    0.000    0.000    0.000    0.000    0.000    0.000 
#
# Total GULP energy -223157.625462 kJ/mol
# GULP energy per Si atom -5578.940637 kJ/mol
# Density = 2.068098 g / cm^3
# Si number density = 20.728156 Si / 1000 Ang^3
#
#
#
# Elastic Constant Matrix: (Units=GPa)
#
#
# Indices 1 2 3 4 5 6 
#
# 1 56.4718 -17.6129 -4.1769 0.0000 0.0000 0.0000
# 2 -17.6129 108.7967 82.9534 0.0000 0.0000 0.0000
# 3 -4.1769 82.9534 209.3694 0.0000 0.0000 0.0000
# 4 0.0000 0.0000 0.0000 52.2135 0.0000 0.0000
# 5 0.0000 0.0000 0.0000 0.0000 -113.6401 0.0000
# 6 0.0000 0.0000 0.0000 0.0000 0.0000 55.7293
#
#
#
# Elastic Compliance Matrix: (Units=1/GPa)
#
#
# Indices 1 2 3 4 5 6 
#
# 1 0.018856 0.003963 -0.001194 0.000000 0.000000 0.000000
# 2 0.003963 0.014003 -0.005469 0.000000 0.000000 0.000000
# 3 -0.001194 -0.005469 0.006919 0.000000 0.000000 0.000000
# 4 0.000000 0.000000 0.000000 0.019152 0.000000 0.000000
# 5 0.000000 0.000000 0.000000 0.000000 -0.008800 0.000000
# 6 0.000000 0.000000 0.000000 0.000000 0.000000 0.017944
#
#
# Mechanical properties :
#
#
# Convention : Reuss Voigt Hill
#
# Bulk Modulus (GPa) = 29.08869 55.21835 42.15352
# Shear Modulus (GPa) = 58.86968 19.75884 39.31426
#
# Velocity S-wave (km/s) = 5.33502 3.09080 4.35979
# Velocity P-wave (km/s) = 7.21206 6.27969 6.76197
#
# Compressibility (1/GPa) = 0.03437762
#
# Stress axis : x y z
#
# Youngs Moduli (GPa) = 53.03459 71.41398 144.52413
#
# Poissons Ratio (x) = -0.28300 0.17255
# Poissons Ratio (y) = -0.21017 0.79040
# Poissons Ratio (z) = 0.06332 0.39056
#
# Static dielectric constant tensor:
#      x y z
#    x 1.787580 0.000000 0.000000 
#    y 0.000000 1.715170 0.000000 
#    z 0.000000 0.000000 1.739100 
# 
# From -- ./inp_files/29670.got.cif
#   From: 2010.05.17/outbox.cif.g08.bks.cpg/sg71_15_cif.got.tgz:29670.got - 2010.06.03 16:22:01.
