data_PCOD9518255
_publ_section_title
;
Structure prediction by ZEFSAII (Michael W. Deem and Ramdas Pophale) SiO2 
 PCOD9518255
Probable space group: I M M M
;
_chemical_formula_sum "Si O2"
_cell_formula_units_Z 72
_cell_length_a 8.107768
_cell_length_b 21.411206
_cell_length_c 18.238063
_cell_angle_alpha 90.000000
_cell_angle_beta 90.000000
_cell_angle_gamma 90.000000
_cell_volume 3166.074680
_symmetry_space_group_name_H-M "I M M M"
_symmetry_group_IT_number 71
_symmetry_cell_setting 'orthorhombic'
loop_
_space_group_symop_operation_xyz
x,y,z
-x,-y,z
x,-y,-z
-x,y,-z
-x,-y,-z
x,y,-z
-x,y,z
x,-y,z
1/2+x,1/2+y,1/2+z
1/2-x,1/2-y,1/2+z
1/2+x,1/2-y,1/2-z
1/2-x,1/2+y,1/2-z
1/2-x,1/2-y,1/2-z
1/2+x,1/2+y,1/2-z
1/2-x,1/2+y,1/2+z
1/2+x,1/2-y,1/2+z
loop_
_atom_site_type_symbol
_atom_site_label
_atom_site_fract_x
_atom_site_fract_y
_atom_site_fract_z
Si Si1 0.500000 0.750180 0.916547
Si Si2 0.316396 0.748132 0.332085
Si Si3 0.500000 0.903102 0.085826
Si Si4 0.802531 0.072385 0.657601
Si Si5 0.195366 0.429206 0.000000
Si Si6 0.312675 0.397212 0.322350
O O1 0.333977 0.726425 0.879160
O O2 0.500000 0.826408 0.910867
O O3 0.500000 0.732105 0.000000
O O4 0.500000 0.775526 0.339795
O O5 0.250000 0.750000 0.250000
O O6 0.329250 0.674313 0.348244
O O7 0.334390 0.924408 0.128233
O O8 0.500000 0.920107 0.000000
O O9 0.742889 0.097800 0.579230
O O10 0.759208 0.102207 0.736432
O O11 0.000000 0.073251 0.654732
O O12 0.745258 0.000000 0.662286
O O13 0.268747 0.500000 0.000000
O O14 0.000000 0.432986 0.000000
O O15 0.500000 0.424389 0.326868
#
# Coordination Sequence:
#
# PCOD9518255 Si02
#       6
#     8  16   8  16   8  16
#     4   9  18  32  50  75 100 124 162 209 244 283
#     4  10  18  31  52  74  97 131 164 199 245 296
#     4   9  18  32  51  75  99 126 160 202 250 293
#     4   9  17  31  50  70  96 130 166 201 239 286
#     4   9  17  27  43  71  99 127 163 203 241 277
#     4   9  19  32  50  76  99 127 164 204 243 291
#
# _framework density 22.741091999999998
#
# number of rings (size 3 to 8) (size 9 to 14) (size 15 to 20)
#    0.000    2.778    1.111    0.333    1.556    2.222 
#    0.000    4.444    2.444    1.333    0.000    3.111 
#    0.000    0.000    0.000    0.000    0.000    0.000 
#
# Total GULP energy -200835.881371 kJ/mol
# GULP energy per Si atom -5578.774483 kJ/mol
# Density = 2.268933 g / cm^3
# Si number density = 22.741092 Si / 1000 Ang^3
#
#
#
# Elastic Constant Matrix: (Units=GPa)
#
#
# Indices 1 2 3 4 5 6 
#
# 1 198.9017 13.8795 125.9688 0.0000 0.0000 0.0000
# 2 13.8795 64.7869 4.4716 0.0000 0.0000 0.0000
# 3 125.9688 4.4716 206.5206 0.0000 0.0000 0.0000
# 4 0.0000 0.0000 0.0000 15.4641 0.0000 0.0000
# 5 0.0000 0.0000 0.0000 0.0000 45.2207 0.0000
# 6 0.0000 0.0000 0.0000 0.0000 0.0000 1.7792
#
#
#
# Elastic Compliance Matrix: (Units=1/GPa)
#
#
# Indices 1 2 3 4 5 6 
#
# 1 0.008323 -0.001435 -0.005046 0.000000 0.000000 0.000000
# 2 -0.001435 0.015706 0.000535 0.000000 0.000000 0.000000
# 3 -0.005046 0.000535 0.007908 0.000000 0.000000 0.000000
# 4 0.000000 0.000000 0.000000 0.064666 0.000000 0.000000
# 5 0.000000 0.000000 0.000000 0.000000 0.022114 0.000000
# 6 0.000000 0.000000 0.000000 0.000000 0.000000 0.562060
#
#
# Mechanical properties :
#
#
# Convention : Reuss Voigt Hill
#
# Bulk Modulus (GPa) = 49.88469 84.31654 67.10062
# Shear Modulus (GPa) = 7.14949 34.21875 20.68412
#
# Velocity S-wave (km/s) = 1.77502 3.88327 3.01914
# Velocity P-wave (km/s) = 5.11708 7.56727 6.45941
#
# Compressibility (1/GPa) = 0.02004623
#
# Stress axis : x y z
#
# Youngs Moduli (GPa) = 120.14360 63.67121 126.44957
#
# Poissons Ratio (x) = 0.09136 0.63804
# Poissons Ratio (y) = 0.17239 -0.06767
# Poissons Ratio (z) = 0.60622 -0.03407
#
# Static dielectric constant tensor:
#      x y z
#    x 1.828890 0.000000 0.000000 
#    y 0.000000 1.951820 0.000000 
#    z 0.000000 0.000000 1.810960 
# 
# From -- ./inp_files/31687.got.cif
#   From: 2010.05.17/outbox.cif.g08.bks.cpg/sg71_16_cif.got.tgz:31687.got - 2010.06.03 16:22:01.
