data_PCOD9518145
_publ_section_title
;
Structure prediction by ZEFSAII (Michael W. Deem and Ramdas Pophale) SiO2 
 PCOD9518145
Probable space group: I M M M
;
_chemical_formula_sum "Si O2"
_cell_formula_units_Z 120
_cell_length_a 20.182999
_cell_length_b 24.321365
_cell_length_c 14.738819
_cell_angle_alpha 90.000000
_cell_angle_beta 90.000000
_cell_angle_gamma 90.000000
_cell_volume 7234.963253
_symmetry_space_group_name_H-M "I M M M"
_symmetry_group_IT_number 71
_symmetry_cell_setting 'orthorhombic'
loop_
_space_group_symop_operation_xyz
x,y,z
-x,-y,z
x,-y,-z
-x,y,-z
-x,-y,-z
x,y,-z
-x,y,z
x,-y,z
1/2+x,1/2+y,1/2+z
1/2-x,1/2-y,1/2+z
1/2+x,1/2-y,1/2-z
1/2-x,1/2+y,1/2-z
1/2-x,1/2-y,1/2-z
1/2+x,1/2+y,1/2-z
1/2-x,1/2+y,1/2+z
1/2+x,1/2-y,1/2+z
loop_
_atom_site_type_symbol
_atom_site_label
_atom_site_fract_x
_atom_site_fract_y
_atom_site_fract_z
Si Si1 0.224155 0.346550 0.895709
Si Si2 0.685758 0.243121 0.101615
Si Si3 0.927013 0.811378 0.107430
Si Si4 0.285074 0.640852 0.393923
Si Si5 0.579339 0.062846 0.000000
Si Si6 0.608806 0.791793 0.723830
Si Si7 0.925625 0.406474 0.700312
Si Si8 0.217909 0.562874 0.754716
O O1 0.285046 0.304270 0.894057
O O2 0.167961 0.315688 0.837852
O O3 0.237039 0.403519 0.844792
O O4 0.203845 0.354071 0.000000
O O5 0.745169 0.198619 0.114156
O O6 0.636622 0.234165 0.183863
O O7 0.658584 0.233629 0.000000
O O8 0.861867 0.847149 0.130408
O O9 0.924772 0.755435 0.164996
O O10 0.000000 0.837280 0.120534
O O11 0.920247 0.798369 0.000000
O O12 0.281385 0.624252 0.500000
O O13 0.249871 0.597379 0.328209
O O14 0.594655 0.093469 0.906374
O O15 0.500000 0.058126 0.000000
O O16 0.606486 0.000000 0.000000
O O17 0.571082 0.845965 0.757206
O O18 0.862498 0.435178 0.746402
O O19 0.000000 0.431192 0.707458
O O20 0.239505 0.500000 0.753837
#
# Coordination Sequence:
#
# PCOD9518145 Si02
#       8
#    16  16  16  16   8  16  16  16
#     4  10  19  32  50  74 103 135 169 212 260 301
#     4  10  18  30  53  80 105 135 167 206 260 314
#     4  10  20  33  52  78 106 137 171 206 254 315
#     4  10  19  34  55  79 106 132 166 215 263 314
#     4   9  18  32  46  58  82 128 175 209 240 284
#     4  11  18  29  50  76 107 135 169 208 250 301
#     4  10  21  33  47  69 100 137 173 208 249 293
#     4  11  23  35  52  75  99 136 178 218 256 298
#
# _framework density 16.586124999999999
#
# number of rings (size 3 to 8) (size 9 to 14) (size 15 to 20)
#    0.000    1.800    4.000    2.400    1.867    1.333 
#    0.000    0.000    0.000    4.000    0.000    5.600 
#    0.000    0.000    0.000    4.800    0.000    0.000 
#
# Total GULP energy -334386.885390 kJ/mol
# GULP energy per Si atom -5573.114757 kJ/mol
# Density = 1.654837 g / cm^3
# Si number density = 16.586125 Si / 1000 Ang^3
#
#
#
# Elastic Constant Matrix: (Units=GPa)
#
#
# Indices 1 2 3 4 5 6 
#
# 1 57.5711 23.6244 20.1129 0.0000 0.0000 0.0000
# 2 23.6244 89.2054 42.5369 0.0000 0.0000 0.0000
# 3 20.1129 42.5369 82.0134 0.0000 0.0000 0.0000
# 4 0.0000 0.0000 0.0000 -0.3346 0.0000 0.0000
# 5 0.0000 0.0000 0.0000 0.0000 17.4497 0.0000
# 6 0.0000 0.0000 0.0000 0.0000 0.0000 0.7644
#
#
#
# Elastic Compliance Matrix: (Units=1/GPa)
#
#
# Indices 1 2 3 4 5 6 
#
# 1 0.019981 -0.003926 -0.002864 0.000000 0.000000 0.000000
# 2 -0.003926 0.015665 -0.007162 0.000000 0.000000 0.000000
# 3 -0.002864 -0.007162 0.016610 0.000000 0.000000 0.000000
# 4 0.000000 0.000000 0.000000 -2.988621 0.000000 0.000000
# 5 0.000000 0.000000 0.000000 0.000000 0.057308 0.000000
# 6 0.000000 0.000000 0.000000 0.000000 0.000000 1.308299
#
#
# Mechanical properties :
#
#
# Convention : Reuss Voigt Hill
#
# Bulk Modulus (GPa) = 41.06340 44.59314 42.82827
# Shear Modulus (GPa) = -3.25789 13.07693 4.90952
#
# Velocity S-wave (km/s) = -1.40303 2.81094 1.72234
# Velocity P-wave (km/s) = 4.71028 6.12204 5.46197
#
# Compressibility (1/GPa) = 0.02435258
#
# Stress axis : x y z
#
# Youngs Moduli (GPa) = 50.04643 63.83689 60.20443
#
# Poissons Ratio (x) = 0.25063 0.17242
# Poissons Ratio (y) = 0.19648 0.43118
# Poissons Ratio (z) = 0.14333 0.45719
#
# Static dielectric constant tensor:
#      x y z
#    x 1.583520 0.000000 0.000000 
#    y 0.000000 1.552360 0.000000 
#    z 0.000000 0.000000 1.566430 
# 
# From -- ./inp_files/38588.got.cif
#   From: 2010.05.17/outbox.cif.g08.bks.cpg/sg71_20_cif.got.tgz:38588.got - 2010.06.03 16:22:01.
