data_PCOD9518271
_publ_section_title
;
Structure prediction by ZEFSAII (Michael W. Deem and Ramdas Pophale) SiO2 
 PCOD9518271
Probable space group: I M M M
;
_chemical_formula_sum "Si O2"
_cell_formula_units_Z 112
_cell_length_a 15.141932
_cell_length_b 16.210681
_cell_length_c 20.435856
_cell_angle_alpha 90.000000
_cell_angle_beta 90.000000
_cell_angle_gamma 90.000000
_cell_volume 5016.206250
_symmetry_space_group_name_H-M "I M M M"
_symmetry_group_IT_number 71
_symmetry_cell_setting 'orthorhombic'
loop_
_space_group_symop_operation_xyz
x,y,z
-x,-y,z
x,-y,-z
-x,y,-z
-x,-y,-z
x,y,-z
-x,y,z
x,-y,z
1/2+x,1/2+y,1/2+z
1/2-x,1/2-y,1/2+z
1/2+x,1/2-y,1/2-z
1/2-x,1/2+y,1/2-z
1/2-x,1/2-y,1/2-z
1/2+x,1/2+y,1/2-z
1/2-x,1/2+y,1/2+z
1/2+x,1/2-y,1/2+z
loop_
_atom_site_type_symbol
_atom_site_label
_atom_site_fract_x
_atom_site_fract_y
_atom_site_fract_z
Si Si1 0.794852 0.410428 0.111700
Si Si2 0.098569 0.672683 0.389375
Si Si3 0.717544 0.588986 0.758760
Si Si4 0.401295 0.256434 0.758100
Si Si5 0.722809 0.406914 0.398848
Si Si6 0.403029 0.366424 0.076548
Si Si7 0.897287 0.749987 0.898782
O O1 0.825918 0.500000 0.088235
O O2 0.799912 0.410074 0.191435
O O3 0.689466 0.403238 0.100402
O O4 0.844575 0.332407 0.081247
O O5 0.109978 0.683287 0.310298
O O6 0.178705 0.620810 0.418119
O O7 0.103032 0.767173 0.414132
O O8 0.000000 0.640979 0.402792
O O9 0.672417 0.500000 0.771520
O O10 0.666260 0.672056 0.775388
O O11 0.726823 0.591115 0.680637
O O12 0.500000 0.287728 0.770139
O O13 0.395273 0.244017 0.680700
O O14 0.700597 0.500000 0.420480
O O15 0.654346 0.334093 0.417039
O O16 0.500000 0.392345 0.103513
O O17 0.405443 0.384711 0.000000
O O18 0.000000 0.751167 0.918773
#
# Coordination Sequence:
#
# PCOD9518271 Si02
#       7
#    16  16  16  16  16  16  16
#     4  11  21  34  54  78 106 144 183 219 266 320
#     4  10  18  31  52  77 106 142 180 218 268 324
#     4   9  17  27  43  71 107 141 177 219 257 306
#     4   9  16  27  46  70 102 144 181 213 256 314
#     4  10  19  32  52  79 110 143 178 216 262 319
#     4  10  21  37  57  81 109 141 180 227 274 318
#     4  10  20  34  52  77 110 144 178 219 263 311
#
# _framework density 22.327629999999999
#
# number of rings (size 3 to 8) (size 9 to 14) (size 15 to 20)
#    0.000    2.143    2.857    0.857    0.000    4.000 
#    0.000    5.000    0.000    6.000    0.000    3.000 
#    0.000    1.143    0.000    0.000    0.000    0.000 
#
# Total GULP energy -312234.539188 kJ/mol
# GULP energy per Si atom -5575.616771 kJ/mol
# Density = 2.227681 g / cm^3
# Si number density = 22.327630 Si / 1000 Ang^3
#
#
#
# Elastic Constant Matrix: (Units=GPa)
#
#
# Indices 1 2 3 4 5 6 
#
# 1 136.6095 92.8595 3.5526 0.0000 0.0000 0.0000
# 2 92.8595 147.9193 -0.0344 0.0000 0.0000 0.0000
# 3 3.5526 -0.0344 67.1064 0.0000 0.0000 0.0000
# 4 0.0000 0.0000 0.0000 -11.6916 0.0000 0.0000
# 5 0.0000 0.0000 0.0000 0.0000 1.3924 0.0000
# 6 0.0000 0.0000 0.0000 0.0000 0.0000 -23.3983
#
#
#
# Elastic Compliance Matrix: (Units=1/GPa)
#
#
# Indices 1 2 3 4 5 6 
#
# 1 0.012800 -0.008036 -0.000682 0.000000 0.000000 0.000000
# 2 -0.008036 0.011805 0.000431 0.000000 0.000000 0.000000
# 3 -0.000682 0.000431 0.014938 0.000000 0.000000 0.000000
# 4 0.000000 0.000000 0.000000 -0.085532 0.000000 0.000000
# 5 0.000000 0.000000 0.000000 0.000000 0.718160 0.000000
# 6 0.000000 0.000000 0.000000 0.000000 0.000000 -0.042738
#
#
# Mechanical properties :
#
#
# Convention : Reuss Voigt Hill
#
# Bulk Modulus (GPa) = 43.53264 60.48784 52.01024
# Shear Modulus (GPa) = 7.64920 10.27767 8.96344
#
# Velocity S-wave (km/s) = 1.85292 2.14782 2.00580
# Velocity P-wave (km/s) = 4.91094 5.77067 5.35808
#
# Compressibility (1/GPa) = 0.02297127
#
# Stress axis : x y z
#
# Youngs Moduli (GPa) = 78.12452 84.70900 66.94326
#
# Poissons Ratio (x) = 0.68069 0.04564
# Poissons Ratio (y) = 0.62778 -0.02888
# Poissons Ratio (z) = 0.05326 -0.03655
#
# Static dielectric constant tensor:
#      x y z
#    x 1.831840 0.000000 0.000000 
#    y 0.000000 1.829220 0.000000 
#    z 0.000000 0.000000 1.901420 
# 
# From -- ./inp_files/40360.got.cif
#   From: 2010.05.17/outbox.cif.g08.bks.cpg/sg71_21_cif.got.tgz:40360.got - 2010.06.03 16:22:01.
