data_PCOD9518480
_publ_section_title
;
Structure prediction by ZEFSAII (Michael W. Deem and Ramdas Pophale) SiO2 
 PCOD9518480
Probable space group: I M M M
;
_chemical_formula_sum "Si O2"
_cell_formula_units_Z 72
_cell_length_a 18.709187
_cell_length_b 26.056889
_cell_length_c 7.734664
_cell_angle_alpha 90.000000
_cell_angle_beta 90.000000
_cell_angle_gamma 90.000000
_cell_volume 3770.673520
_symmetry_space_group_name_H-M "I M M M"
_symmetry_group_IT_number 71
_symmetry_cell_setting 'orthorhombic'
loop_
_space_group_symop_operation_xyz
x,y,z
-x,-y,z
x,-y,-z
-x,y,-z
-x,-y,-z
x,y,-z
-x,y,z
x,-y,z
1/2+x,1/2+y,1/2+z
1/2-x,1/2-y,1/2+z
1/2+x,1/2-y,1/2-z
1/2-x,1/2+y,1/2-z
1/2-x,1/2-y,1/2-z
1/2+x,1/2+y,1/2-z
1/2-x,1/2+y,1/2+z
1/2+x,1/2-y,1/2+z
loop_
_atom_site_type_symbol
_atom_site_label
_atom_site_fract_x
_atom_site_fract_y
_atom_site_fract_z
Si Si1 0.414473 0.398940 0.500000
Si Si2 0.084319 0.704940 0.696294
Si Si3 0.665037 0.897907 0.709128
Si Si4 0.086540 0.219526 0.000000
Si Si5 0.582177 0.000000 0.288765
Si Si6 0.681607 0.439469 0.201946
O O1 0.500000 0.401694 0.500000
O O2 0.390690 0.339292 0.500000
O O3 0.381659 0.425478 0.669212
O O4 0.089998 0.723601 0.500000
O O5 0.129831 0.653440 0.719195
O O6 0.108163 0.748001 0.831999
O O7 0.000000 0.693148 0.730201
O O8 0.659870 0.895471 0.500000
O O9 0.747830 0.907388 0.751295
O O10 0.621766 0.948318 0.767553
O O11 0.000000 0.218244 0.000000
O O12 0.500000 0.000000 0.234813
O O13 0.584109 0.000000 0.500000
O O14 0.699293 0.500000 0.216129
O O15 0.664717 0.429517 0.000000
#
# Coordination Sequence:
#
# PCOD9518480 Si02
#       6
#     8  16  16   8   8  16
#     4  11  25  44  69  94 113 146 203 257 312 379
#     4  10  20  34  57  87 121 164 209 248 291 340
#     4  10  18  33  56  83 123 168 203 241 289 348
#     4   9  20  41  62  84 118 157 200 258 310 347
#     4   9  16  26  49  85 119 161 212 245 275 333
#     4  10  22  41  64  91 125 162 192 237 309 373
#
# _framework density 19.094732
#
# number of rings (size 3 to 8) (size 9 to 14) (size 15 to 20)
#    0.000    2.111    2.222    1.000    1.556    3.111 
#    0.000    5.000    0.000    2.000    0.000    0.000 
#    0.000    0.000    0.000    0.000    0.000    0.000 
#
# Total GULP energy -201039.687132 kJ/mol
# GULP energy per Si atom -5584.435754 kJ/mol
# Density = 1.905127 g / cm^3
# Si number density = 19.094732 Si / 1000 Ang^3
#
#
#
# Elastic Constant Matrix: (Units=GPa)
#
#
# Indices 1 2 3 4 5 6 
#
# 1 82.5490 13.4882 47.4500 0.0000 0.0000 0.0000
# 2 13.4882 50.2198 31.5711 0.0000 0.0000 0.0000
# 3 47.4500 31.5711 83.8196 0.0000 0.0000 0.0000
# 4 0.0000 0.0000 0.0000 40.3237 0.0000 0.0000
# 5 0.0000 0.0000 0.0000 0.0000 18.8131 0.0000
# 6 0.0000 0.0000 0.0000 0.0000 0.0000 -27.2414
#
#
#
# Elastic Compliance Matrix: (Units=1/GPa)
#
#
# Indices 1 2 3 4 5 6 
#
# 1 0.018120 0.002073 -0.011039 0.000000 0.000000 0.000000
# 2 0.002073 0.026327 -0.011090 0.000000 0.000000 0.000000
# 3 -0.011039 -0.011090 0.022356 0.000000 0.000000 0.000000
# 4 0.000000 0.000000 0.000000 0.024799 0.000000 0.000000
# 5 0.000000 0.000000 0.000000 0.000000 0.053154 0.000000
# 6 0.000000 0.000000 0.000000 0.000000 0.000000 -0.036709
#
#
# Mechanical properties :
#
#
# Convention : Reuss Voigt Hill
#
# Bulk Modulus (GPa) = 37.46319 44.62302 41.04311
# Shear Modulus (GPa) = 31.83539 14.65102 23.24321
#
# Velocity S-wave (km/s) = 4.08761 2.77299 3.49271
# Velocity P-wave (km/s) = 6.47613 5.80281 6.14870
#
# Compressibility (1/GPa) = 0.02669287
#
# Stress axis : x y z
#
# Youngs Moduli (GPa) = 55.18620 37.98327 44.73015
#
# Poissons Ratio (x) = -0.07873 0.49376
# Poissons Ratio (y) = -0.11438 0.49604
# Poissons Ratio (z) = 0.60918 0.42122
#
# Static dielectric constant tensor:
#      x y z
#    x 1.642320 0.000000 0.000000 
#    y 0.000000 1.628200 0.000000 
#    z 0.000000 0.000000 1.680770 
# 
# From -- ./inp_files/8025.got.cif
#   From: 2010.05.17/outbox.cif.g08.bks.cpg/sg71_5_cif.got.tgz:8025.got - 2010.06.03 16:22:01.
