data_PCOD9518960
_publ_section_title
;
Structure prediction by ZEFSAII (Michael W. Deem and Ramdas Pophale) SiO2 
 PCOD9518960
Probable space group: I M M M
;
_chemical_formula_sum "Si O2"
_cell_formula_units_Z 80
_cell_length_a 23.594395
_cell_length_b 8.028629
_cell_length_c 24.435865
_cell_angle_alpha 90.000000
_cell_angle_beta 90.000000
_cell_angle_gamma 90.000000
_cell_volume 4628.901642
_symmetry_space_group_name_H-M "I M M M"
_symmetry_group_IT_number 71
_symmetry_cell_setting 'orthorhombic'
loop_
_space_group_symop_operation_xyz
x,y,z
-x,-y,z
x,-y,-z
-x,y,-z
-x,-y,-z
x,y,-z
-x,y,z
x,-y,z
1/2+x,1/2+y,1/2+z
1/2-x,1/2-y,1/2+z
1/2+x,1/2-y,1/2-z
1/2-x,1/2+y,1/2-z
1/2-x,1/2-y,1/2-z
1/2+x,1/2+y,1/2-z
1/2-x,1/2+y,1/2+z
1/2+x,1/2-y,1/2+z
loop_
_atom_site_type_symbol
_atom_site_label
_atom_site_fract_x
_atom_site_fract_y
_atom_site_fract_z
Si Si1 0.431351 0.307997 0.258869
Si Si2 0.256824 0.000000 0.933614
Si Si3 0.431494 0.813579 0.622774
Si Si4 0.166975 0.812984 0.434569
Si Si5 0.065764 0.302279 0.637978
Si Si6 0.373968 0.500000 0.434339
O O1 0.500000 0.306445 0.259058
O O2 0.412889 0.500000 0.262840
O O3 0.414411 0.211346 0.313586
O O4 0.415139 0.233160 0.200364
O O5 0.290588 0.166075 0.916674
O O6 0.191671 0.000000 0.916163
O O7 0.256390 0.000000 0.000000
O O8 0.500000 0.799341 0.619899
O O9 0.404277 0.664669 0.588679
O O10 0.415884 0.000000 0.604430
O O11 0.158616 0.796869 0.500000
O O12 0.107838 0.786718 0.403562
O O13 0.188592 0.000000 0.423835
O O14 0.067773 0.500000 0.628091
O O15 0.000000 0.247932 0.632557
O O16 0.376423 0.500000 0.500000
#
# Coordination Sequence:
#
# PCOD9518960 Si02
#       6
#    16   8  16  16  16   8
#     4   9  16  29  50  77 109 143 180 214 253 315
#     4   9  20  39  57  75 101 138 189 234 267 314
#     4  10  20  35  56  84 116 146 174 210 264 326
#     4  10  20  35  55  77 104 143 185 227 277 322
#     4  10  19  30  49  81 114 143 179 223 270 323
#     4  11  23  38  59  83 108 141 182 225 267 317
#
# _framework density 17.282717999999999
#
# number of rings (size 3 to 8) (size 9 to 14) (size 15 to 20)
#    0.000    2.200    2.000    1.500    0.000    6.000 
#    0.000    5.000    0.000    1.200    0.000    0.000 
#    0.000    0.000    0.000    0.000    0.000    0.000 
#
# Total GULP energy -223026.087837 kJ/mol
# GULP energy per Si atom -5575.652196 kJ/mol
# Density = 1.724338 g / cm^3
# Si number density = 17.282718 Si / 1000 Ang^3
#
#
#
# Elastic Constant Matrix: (Units=GPa)
#
#
# Indices 1 2 3 4 5 6 
#
# 1 67.1829 58.2562 31.4714 0.0000 0.0000 0.0000
# 2 58.2562 150.0168 47.4475 0.0000 0.0000 0.0000
# 3 31.4714 47.4475 57.2239 0.0000 0.0000 0.0000
# 4 0.0000 0.0000 0.0000 23.1123 0.0000 0.0000
# 5 0.0000 0.0000 0.0000 0.0000 -12.3199 0.0000
# 6 0.0000 0.0000 0.0000 0.0000 0.0000 10.2061
#
#
#
# Elastic Compliance Matrix: (Units=1/GPa)
#
#
# Indices 1 2 3 4 5 6 
#
# 1 0.024674 -0.007170 -0.007625 0.000000 0.000000 0.000000
# 2 -0.007170 0.011119 -0.005276 0.000000 0.000000 0.000000
# 3 -0.007625 -0.005276 0.026043 0.000000 0.000000 0.000000
# 4 0.000000 0.000000 0.000000 0.043267 0.000000 0.000000
# 5 0.000000 0.000000 0.000000 0.000000 -0.081169 0.000000
# 6 0.000000 0.000000 0.000000 0.000000 0.000000 0.097981
#
#
# Mechanical properties :
#
#
# Convention : Reuss Voigt Hill
#
# Bulk Modulus (GPa) = 46.09496 60.97486 53.53491
# Shear Modulus (GPa) = 29.53551 13.34960 21.44256
#
# Velocity S-wave (km/s) = 4.13844 2.78227 3.52617
# Velocity P-wave (km/s) = 7.04022 6.75861 6.90085
#
# Compressibility (1/GPa) = 0.02169435
#
# Stress axis : x y z
#
# Youngs Moduli (GPa) = 40.52870 89.93626 38.39766
#
# Poissons Ratio (x) = 0.64485 0.29277
# Poissons Ratio (y) = 0.29059 0.20259
# Poissons Ratio (z) = 0.30902 0.47451
#
# Static dielectric constant tensor:
#      x y z
#    x 1.562830 0.000000 0.000000 
#    y 0.000000 1.606650 0.000000 
#    z 0.000000 0.000000 1.578800 
# 
# From -- ./inp_files/50395.got.cif
#   From: 2010.05.17/outbox.cif.g08.bks.cpg/sg71_26_cif.got.tgz:50395.got - 2010.06.03 16:22:01.
