data_PCOD9518112
_publ_section_title
;
Structure prediction by ZEFSAII (Michael W. Deem and Ramdas Pophale) SiO2 
 PCOD9518112
Probable space group: I M M M
;
_chemical_formula_sum "Si O2"
_cell_formula_units_Z 72
_cell_length_a 16.579016
_cell_length_b 23.376748
_cell_length_c 9.005719
_cell_angle_alpha 90.000000
_cell_angle_beta 90.000000
_cell_angle_gamma 90.000000
_cell_volume 3490.287788
_symmetry_space_group_name_H-M "I M M M"
_symmetry_group_IT_number 71
_symmetry_cell_setting 'orthorhombic'
loop_
_space_group_symop_operation_xyz
x,y,z
-x,-y,z
x,-y,-z
-x,y,-z
-x,-y,-z
x,y,-z
-x,y,z
x,-y,z
1/2+x,1/2+y,1/2+z
1/2-x,1/2-y,1/2+z
1/2+x,1/2-y,1/2-z
1/2-x,1/2+y,1/2-z
1/2-x,1/2-y,1/2-z
1/2+x,1/2+y,1/2-z
1/2-x,1/2+y,1/2+z
1/2+x,1/2-y,1/2+z
loop_
_atom_site_type_symbol
_atom_site_label
_atom_site_fract_x
_atom_site_fract_y
_atom_site_fract_z
Si Si1 0.000000 0.240466 0.177266
Si Si2 0.827437 0.566555 0.678204
Si Si3 0.328754 0.393616 0.834870
Si Si4 0.164651 0.757098 0.667776
Si Si5 0.000000 0.114415 0.681427
Si Si6 0.000000 0.429890 0.673785
O O1 0.916139 0.263770 0.247732
O O2 0.000000 0.173227 0.224694
O O3 0.000000 0.246468 0.000000
O O4 0.830978 0.569086 0.500000
O O5 0.820516 0.500000 0.720674
O O6 0.747803 0.596798 0.733571
O O7 0.913877 0.588617 0.737942
O O8 0.343296 0.325683 0.843914
O O9 0.415861 0.417170 0.785805
O O10 0.310106 0.415430 0.000000
O O11 0.167414 0.733131 0.500000
O O12 0.250000 0.750000 0.750000
O O13 0.000000 0.125550 0.500000
O O14 0.000000 0.500000 0.676245
O O15 0.000000 0.413382 0.500000
#
# Coordination Sequence:
#
# PCOD9518112 Si02
#       6
#     8  16  16  16   8   8
#     4  10  18  30  51  76  99 128 164 202 248 297
#     4   9  17  30  49  71  94 123 161 201 238 283
#     4   9  18  32  50  71  96 125 157 197 242 287
#     4  10  20  35  53  74 100 131 168 206 245 294
#     4   8  16  32  49  66  93 129 165 196 232 289
#     4   7  12  26  46  65  88 121 157 190 228 277
#
# _framework density 20.628672999999999
#
# number of rings (size 3 to 8) (size 9 to 14) (size 15 to 20)
#    0.000    3.000    0.000    4.333    0.000    4.889 
#    0.000    2.222    0.000   10.667    0.000    0.000 
#    0.000    0.000    0.000    0.000    0.000    0.000 
#
# Total GULP energy -200461.098826 kJ/mol
# GULP energy per Si atom -5568.363856 kJ/mol
# Density = 2.058172 g / cm^3
# Si number density = 20.628673 Si / 1000 Ang^3
#
#
#
# Elastic Constant Matrix: (Units=GPa)
#
#
# Indices 1 2 3 4 5 6 
#
# 1 218.0919 9.0633 67.7734 0.0000 0.0000 0.0000
# 2 9.0633 18.0657 0.5482 0.0000 0.0000 0.0000
# 3 67.7734 0.5482 82.8944 0.0000 0.0000 0.0000
# 4 0.0000 0.0000 0.0000 6.9017 0.0000 0.0000
# 5 0.0000 0.0000 0.0000 0.0000 20.0069 0.0000
# 6 0.0000 0.0000 0.0000 0.0000 0.0000 23.9161
#
#
#
# Elastic Compliance Matrix: (Units=1/GPa)
#
#
# Indices 1 2 3 4 5 6 
#
# 1 0.006306 -0.003008 -0.005136 0.000000 0.000000 0.000000
# 2 -0.003008 0.056799 0.002084 0.000000 0.000000 0.000000
# 3 -0.005136 0.002084 0.016249 0.000000 0.000000 0.000000
# 4 0.000000 0.000000 0.000000 0.144892 0.000000 0.000000
# 5 0.000000 0.000000 0.000000 0.000000 0.049983 0.000000
# 6 0.000000 0.000000 0.000000 0.000000 0.000000 0.041813
#
#
# Mechanical properties :
#
#
# Convention : Reuss Voigt Hill
#
# Bulk Modulus (GPa) = 14.87348 52.64687 33.76018
# Shear Modulus (GPa) = 14.26235 26.27610 20.26922
#
# Velocity S-wave (km/s) = 2.63227 3.57286 3.13801
# Velocity P-wave (km/s) = 4.05761 6.52664 5.43421
#
# Compressibility (1/GPa) = 0.06723376
#
# Stress axis : x y z
#
# Youngs Moduli (GPa) = 158.57204 17.60588 61.54253
#
# Poissons Ratio (x) = 0.05296 0.31609
# Poissons Ratio (y) = 0.47697 -0.12823
# Poissons Ratio (z) = 0.81443 -0.03668
#
# Static dielectric constant tensor:
#      x y z
#    x 1.825400 0.000000 0.000000 
#    y 0.000000 1.779620 0.000000 
#    z 0.000000 0.000000 1.719410 
# 
# From -- ./inp_files/6530.got.cif
#   From: 2010.05.17/outbox.cif.g08.bks.cpg/sg71_4_cif.got.tgz:6530.got - 2010.06.03 16:22:01.
