data_PCOD9518663
_publ_section_title
;
Structure prediction by ZEFSAII (Michael W. Deem and Ramdas Pophale) SiO2 
 PCOD9518663
Probable space group: I M M M
;
_chemical_formula_sum "Si O2"
_cell_formula_units_Z 128
_cell_length_a 24.640568
_cell_length_b 19.691757
_cell_length_c 15.084065
_cell_angle_alpha 90.000000
_cell_angle_beta 90.000000
_cell_angle_gamma 90.000000
_cell_volume 7319.030851
_symmetry_space_group_name_H-M "I M M M"
_symmetry_group_IT_number 71
_symmetry_cell_setting 'orthorhombic'
loop_
_space_group_symop_operation_xyz
x,y,z
-x,-y,z
x,-y,-z
-x,y,-z
-x,-y,-z
x,y,-z
-x,y,z
x,-y,z
1/2+x,1/2+y,1/2+z
1/2-x,1/2-y,1/2+z
1/2+x,1/2-y,1/2-z
1/2-x,1/2+y,1/2-z
1/2-x,1/2-y,1/2-z
1/2+x,1/2+y,1/2-z
1/2-x,1/2+y,1/2+z
1/2+x,1/2-y,1/2+z
loop_
_atom_site_type_symbol
_atom_site_label
_atom_site_fract_x
_atom_site_fract_y
_atom_site_fract_z
Si Si1 0.938420 0.077586 0.608584
Si Si2 0.889603 0.924574 0.892956
Si Si3 0.334594 0.799548 0.607075
Si Si4 0.561018 0.282061 0.608521
Si Si5 0.770423 0.718314 0.394639
Si Si6 0.842075 0.832873 0.398567
Si Si7 0.238923 0.577139 0.859610
Si Si8 0.737303 0.574399 0.348233
O O1 0.936806 0.077801 0.500000
O O2 0.892589 0.128206 0.643451
O O3 0.000000 0.094536 0.634342
O O4 0.926291 0.000000 0.635002
O O5 0.922845 0.858690 0.863533
O O6 0.826215 0.915213 0.869564
O O7 0.906729 0.000000 0.861151
O O8 0.893052 0.925636 0.000000
O O9 0.335647 0.795642 0.500000
O O10 0.392382 0.770714 0.637852
O O11 0.286250 0.749677 0.639376
O O12 0.313745 0.875098 0.629359
O O13 0.561429 0.281998 0.500000
O O14 0.500000 0.265336 0.637160
O O15 0.770376 0.731101 0.500000
O O16 0.819439 0.763482 0.356861
O O17 0.770758 0.638508 0.381705
O O18 0.858492 0.818041 0.500000
O O19 0.790222 0.883320 0.401135
O O20 0.232586 0.500000 0.892558
O O21 0.253945 0.573538 0.756501
O O22 0.752392 0.500000 0.384379
#
# Coordination Sequence:
#
# PCOD9518663 Si02
#       8
#    16  16  16  16  16  16  16  16
#     4   8  13  22  38  60  85 112 140 169 201 238
#     4   9  16  27  44  64  89 120 148 178 216 257
#     4   9  17  29  44  64  89 117 147 179 222 265
#     4   9  16  27  44  65  88 113 147 188 220 256
#     4   9  16  28  44  63  86 112 141 173 215 260
#     4   9  17  27  42  64  87 111 143 178 208 249
#     4  10  20  30  42  63  87 114 146 179 218 260
#     4  10  19  29  42  63  88 114 145 176 212 260
#
# _framework density 17.488652999999999
#
# number of rings (size 3 to 8) (size 9 to 14) (size 15 to 20)
#    0.000    2.875    1.250    2.250    0.000    4.500 
#    0.000    1.250    0.000    1.125    0.000    3.500 
#    0.000    1.500    0.000    4.875    0.000    0.125 
#
# Total GULP energy -356599.778473 kJ/mol
# GULP energy per Si atom -5571.871539 kJ/mol
# Density = 1.744885 g / cm^3
# Si number density = 17.488653 Si / 1000 Ang^3
#
#
#
# Elastic Constant Matrix: (Units=GPa)
#
#
# Indices 1 2 3 4 5 6 
#
# 1 93.5553 56.3500 -0.2611 0.0000 0.0000 0.0000
# 2 56.3500 118.1322 -6.3386 0.0000 0.0000 0.0000
# 3 -0.2611 -6.3386 22.9167 0.0000 0.0000 0.0000
# 4 0.0000 0.0000 0.0000 108.9933 0.0000 0.0000
# 5 0.0000 0.0000 0.0000 0.0000 0.9909 0.0000
# 6 0.0000 0.0000 0.0000 0.0000 0.0000 8.5438
#
#
#
# Elastic Compliance Matrix: (Units=1/GPa)
#
#
# Indices 1 2 3 4 5 6 
#
# 1 0.015074 -0.007290 -0.001844 0.000000 0.000000 0.000000
# 2 -0.007290 0.012118 0.003269 0.000000 0.000000 0.000000
# 3 -0.001844 0.003269 0.044519 0.000000 0.000000 0.000000
# 4 0.000000 0.000000 0.000000 0.009175 0.000000 0.000000
# 5 0.000000 0.000000 0.000000 0.000000 1.009142 0.000000
# 6 0.000000 0.000000 0.000000 0.000000 0.000000 0.117043
#
#
# Mechanical properties :
#
#
# Convention : Reuss Voigt Hill
#
# Bulk Modulus (GPa) = 16.67208 37.12275 26.89742
# Shear Modulus (GPa) = 4.03618 36.02920 20.03269
#
# Velocity S-wave (km/s) = 1.52082 4.54381 3.38815
# Velocity P-wave (km/s) = 3.55495 6.98578 5.54251
#
# Compressibility (1/GPa) = 0.05998052
#
# Stress axis : x y z
#
# Youngs Moduli (GPa) = 66.33788 82.52426 22.46211
#
# Poissons Ratio (x) = 0.60156 0.04143
# Poissons Ratio (y) = 0.48357 -0.07342
# Poissons Ratio (z) = 0.12236 -0.26974
#
# Static dielectric constant tensor:
#      x y z
#    x 1.587080 0.000000 0.000000 
#    y 0.000000 1.633100 0.000000 
#    z 0.000000 0.000000 1.669290 
# 
# From -- ./inp_files/48486.got.cif
#   From: 2010.05.17/outbox.cif.g08.bks.cpg/sg71_25_cif.got.tgz:48486.got - 2010.06.03 16:22:01.
