data_PCOD9518494
_publ_section_title
;
Structure prediction by ZEFSAII (Michael W. Deem and Ramdas Pophale) SiO2 
 PCOD9518494
Probable space group: I M M M
;
_chemical_formula_sum "Si O2"
_cell_formula_units_Z 50
_cell_length_a 25.747340
_cell_length_b 7.774059
_cell_length_c 13.169852
_cell_angle_alpha 90.000000
_cell_angle_beta 90.000000
_cell_angle_gamma 90.000000
_cell_volume 2636.095227
_symmetry_space_group_name_H-M "I M M M"
_symmetry_group_IT_number 71
_symmetry_cell_setting 'orthorhombic'
loop_
_space_group_symop_operation_xyz
x,y,z
-x,-y,z
x,-y,-z
-x,y,-z
-x,-y,-z
x,y,-z
-x,y,z
x,-y,z
1/2+x,1/2+y,1/2+z
1/2-x,1/2-y,1/2+z
1/2+x,1/2-y,1/2-z
1/2-x,1/2+y,1/2-z
1/2-x,1/2-y,1/2-z
1/2+x,1/2+y,1/2-z
1/2-x,1/2+y,1/2+z
1/2+x,1/2-y,1/2+z
loop_
_atom_site_type_symbol
_atom_site_label
_atom_site_fract_x
_atom_site_fract_y
_atom_site_fract_z
Si Si1 0.590858 0.500000 0.674110
Si Si2 0.166586 0.309064 0.121766
Si Si3 0.781931 0.301541 0.377116
Si Si4 0.500000 0.500000 0.500000
Si Si5 0.135223 0.000000 0.378711
O O1 0.625525 0.666760 0.651245
O O2 0.544795 0.500000 0.592051
O O3 0.587608 0.500000 0.798174
O O4 0.151342 0.500000 0.154840
O O5 0.224910 0.263246 0.156444
O O6 0.168656 0.310129 0.000000
O O7 0.779087 0.302967 0.500000
O O8 0.790399 0.500000 0.346845
O O9 0.827885 0.165885 0.356416
O O10 0.122579 0.000000 0.500000
#
# Coordination Sequence:
#
# PCOD9518494 Si02
#       5
#     8  16  16   2   8
#     4  12  24  42  65  81 122 158 211 274 312 353
#     4  10  18  33  58  89 123 166 205 248 306 375
#     4   9  16  30  54  86 132 168 200 235 291 378
#     4  12  28  52  68  92 108 162 228 282 322 350
#     4  10  22  38  57  92 127 165 196 244 305 387
#
# _framework density 18.967447
#
# number of rings (size 3 to 8) (size 9 to 14) (size 15 to 20)
#    0.000    1.920    4.800    0.000    0.000    2.560 
#    0.000    2.000    0.000    0.000    0.000    0.000 
#    0.000    7.680    0.000    0.000    0.000    0.000 
#
# Total GULP energy -139216.360008 kJ/mol
# GULP energy per Si atom -5568.654400 kJ/mol
# Density = 1.892428 g / cm^3
# Si number density = 18.967447 Si / 1000 Ang^3
#
#
#
# Elastic Constant Matrix: (Units=GPa)
#
#
# Indices 1 2 3 4 5 6 
#
# 1 89.6323 39.7362 72.8844 0.0000 0.0000 0.0000
# 2 39.7362 159.2281 36.7505 0.0000 0.0000 0.0000
# 3 72.8844 36.7505 128.4295 0.0000 0.0000 0.0000
# 4 0.0000 0.0000 0.0000 -89.7791 0.0000 0.0000
# 5 0.0000 0.0000 0.0000 0.0000 32.8174 0.0000
# 6 0.0000 0.0000 0.0000 0.0000 0.0000 -2.9108
#
#
#
# Elastic Compliance Matrix: (Units=1/GPa)
#
#
# Indices 1 2 3 4 5 6 
#
# 1 0.021799 -0.002768 -0.011579 0.000000 0.000000 0.000000
# 2 -0.002768 0.007076 -0.000454 0.000000 0.000000 0.000000
# 3 -0.011579 -0.000454 0.014488 0.000000 0.000000 0.000000
# 4 0.000000 0.000000 0.000000 -0.011138 0.000000 0.000000
# 5 0.000000 0.000000 0.000000 0.000000 0.030472 0.000000
# 6 0.000000 0.000000 0.000000 0.000000 0.000000 -0.343543
#
#
# Mechanical properties :
#
#
# Convention : Reuss Voigt Hill
#
# Bulk Modulus (GPa) = 72.67061 75.11469 73.89265
# Shear Modulus (GPa) = -20.27098 3.22007 -8.52545
#
# Velocity S-wave (km/s) = -3.27268 1.30437 -2.12239
# Velocity P-wave (km/s) = 4.91080 6.47737 5.74771
#
# Compressibility (1/GPa) = 0.01376072
#
# Stress axis : x y z
#
# Youngs Moduli (GPa) = 45.87303 141.32714 69.02442
#
# Poissons Ratio (x) = 0.39114 0.79925
# Poissons Ratio (y) = 0.12696 0.03135
# Poissons Ratio (z) = 0.53118 0.06418
#
# Static dielectric constant tensor:
#      x y z
#    x 1.587440 0.000000 0.000000 
#    y 0.000000 1.653150 0.000000 
#    z 0.000000 0.000000 1.785600 
# 
# From -- ./inp_files/5270.got.cif
#   From: 2010.05.17/outbox.cif.g08.bks.cpg/sg71_3_cif.got.tgz:5270.got - 2010.06.03 16:22:01.
