data_PCOD9518408
_publ_section_title
;
Structure prediction by ZEFSAII (Michael W. Deem and Ramdas Pophale) SiO2 
 PCOD9518408
Probable space group: I M M M
;
_chemical_formula_sum "Si O2"
_cell_formula_units_Z 104
_cell_length_a 19.221905
_cell_length_b 18.110073
_cell_length_c 17.404901
_cell_angle_alpha 90.000000
_cell_angle_beta 90.000000
_cell_angle_gamma 90.000000
_cell_volume 6058.821875
_symmetry_space_group_name_H-M "I M M M"
_symmetry_group_IT_number 71
_symmetry_cell_setting 'orthorhombic'
loop_
_space_group_symop_operation_xyz
x,y,z
-x,-y,z
x,-y,-z
-x,y,-z
-x,-y,-z
x,y,-z
-x,y,z
x,-y,z
1/2+x,1/2+y,1/2+z
1/2-x,1/2-y,1/2+z
1/2+x,1/2-y,1/2-z
1/2-x,1/2+y,1/2-z
1/2-x,1/2-y,1/2-z
1/2+x,1/2+y,1/2-z
1/2-x,1/2+y,1/2+z
1/2+x,1/2-y,1/2+z
loop_
_atom_site_type_symbol
_atom_site_label
_atom_site_fract_x
_atom_site_fract_y
_atom_site_fract_z
Si Si1 0.918276 0.277163 0.195549
Si Si2 0.420898 0.582663 0.091923
Si Si3 0.270965 0.585329 0.315151
Si Si4 0.825955 0.809764 0.318953
Si Si5 0.500000 0.089590 0.086253
Si Si6 0.392921 0.084616 0.786679
Si Si7 0.202539 0.776108 0.909044
O O1 0.877920 0.239890 0.267849
O O2 0.911606 0.363538 0.215654
O O3 0.871209 0.254406 0.122810
O O4 0.000000 0.257068 0.190592
O O5 0.500000 0.595360 0.119503
O O6 0.399548 0.500000 0.117865
O O7 0.370238 0.646013 0.119156
O O8 0.422511 0.581448 0.000000
O O9 0.294155 0.500000 0.319974
O O10 0.297636 0.628648 0.240102
O O11 0.187913 0.585918 0.306681
O O12 0.292679 0.637432 0.386075
O O13 0.763390 0.764301 0.358760
O O14 0.565626 0.111134 0.137839
O O15 0.500000 0.000000 0.080745
O O16 0.500000 0.119308 0.000000
O O17 0.413212 0.000000 0.771647
O O18 0.211184 0.764629 0.000000
#
# Coordination Sequence:
#
# PCOD9518408 Si02
#       7
#    16  16  16  16   8  16  16
#     4  11  21  37  58  80 108 148 194 233 281 340
#     4   9  18  32  50  75 108 142 175 218 277 337
#     4  10  20  36  58  81 106 140 183 230 279 334
#     4  11  19  36  55  83 106 141 183 236 277 336
#     4   9  18  30  46  74 111 143 176 219 271 331
#     4  10  18  32  54  79 108 146 185 226 274 329
#     4  11  23  38  56  82 117 149 185 237 289 342
#
# _framework density 17.165053
#
# number of rings (size 3 to 8) (size 9 to 14) (size 15 to 20)
#    0.000    1.769    3.846    2.769    0.000    1.231 
#    0.000    1.538    0.000    5.538    0.000    5.385 
#    0.000    0.000    0.000    0.000    0.000    0.000 
#
# Total GULP energy -289887.283812 kJ/mol
# GULP energy per Si atom -5574.755458 kJ/mol
# Density = 1.712598 g / cm^3
# Si number density = 17.165053 Si / 1000 Ang^3
#
#
#
# Elastic Constant Matrix: (Units=GPa)
#
#
# Indices 1 2 3 4 5 6 
#
# 1 99.4073 43.3649 33.7614 0.0000 0.0000 0.0000
# 2 43.3649 103.5153 38.4985 0.0000 0.0000 0.0000
# 3 33.7614 38.4985 75.8125 0.0000 0.0000 0.0000
# 4 0.0000 0.0000 0.0000 18.0169 0.0000 0.0000
# 5 0.0000 0.0000 0.0000 0.0000 17.9305 0.0000
# 6 0.0000 0.0000 0.0000 0.0000 0.0000 -3.8117
#
#
#
# Elastic Compliance Matrix: (Units=1/GPa)
#
#
# Indices 1 2 3 4 5 6 
#
# 1 0.013126 -0.004099 -0.003764 0.000000 0.000000 0.000000
# 2 -0.004099 0.013190 -0.004873 0.000000 0.000000 0.000000
# 3 -0.003764 -0.004873 0.017341 0.000000 0.000000 0.000000
# 4 0.000000 0.000000 0.000000 0.055503 0.000000 0.000000
# 5 0.000000 0.000000 0.000000 0.000000 0.055771 0.000000
# 6 0.000000 0.000000 0.000000 0.000000 0.000000 -0.262348
#
#
# Mechanical properties :
#
#
# Convention : Reuss Voigt Hill
#
# Bulk Modulus (GPa) = 54.98753 56.66497 55.82625
# Shear Modulus (GPa) = -65.89001 17.30115 -24.29443
#
# Velocity S-wave (km/s) = -6.20238 3.17823 -3.76619
# Velocity P-wave (km/s) = 4.38047 6.82288 3.69887
#
# Compressibility (1/GPa) = 0.01818594
#
# Stress axis : x y z
#
# Youngs Moduli (GPa) = 76.18433 75.81679 57.66706
#
# Poissons Ratio (x) = 0.31077 0.21705
# Poissons Ratio (y) = 0.31228 0.28098
# Poissons Ratio (z) = 0.28675 0.36942
#
# Static dielectric constant tensor:
#      x y z
#    x 1.599150 0.000000 0.000000 
#    y 0.000000 1.619860 0.000000 
#    z 0.000000 0.000000 1.573100 
# 
# From -- ./inp_files/46130.got.cif
#   From: 2010.05.17/outbox.cif.g08.bks.cpg/sg71_24_cif.got.tgz:46130.got - 2010.06.03 16:22:01.
