data_PCOD9518498
_publ_section_title
;
Structure prediction by ZEFSAII (Michael W. Deem and Ramdas Pophale) SiO2 
 PCOD9518498
Probable space group: I M M M
;
_chemical_formula_sum "Si O2"
_cell_formula_units_Z 84
_cell_length_a 14.875897
_cell_length_b 16.633036
_cell_length_c 18.919870
_cell_angle_alpha 90.000000
_cell_angle_beta 90.000000
_cell_angle_gamma 90.000000
_cell_volume 4681.368604
_symmetry_space_group_name_H-M "I M M M"
_symmetry_group_IT_number 71
_symmetry_cell_setting 'orthorhombic'
loop_
_space_group_symop_operation_xyz
x,y,z
-x,-y,z
x,-y,-z
-x,y,-z
-x,-y,-z
x,y,-z
-x,y,z
x,-y,z
1/2+x,1/2+y,1/2+z
1/2-x,1/2-y,1/2+z
1/2+x,1/2-y,1/2-z
1/2-x,1/2+y,1/2-z
1/2-x,1/2-y,1/2-z
1/2+x,1/2+y,1/2-z
1/2-x,1/2+y,1/2+z
1/2+x,1/2-y,1/2+z
loop_
_atom_site_type_symbol
_atom_site_label
_atom_site_fract_x
_atom_site_fract_y
_atom_site_fract_z
Si Si1 0.856319 0.410748 0.224959
Si Si2 0.099795 0.244599 0.158393
Si Si3 0.000000 0.000000 0.311594
Si Si4 0.848373 0.860863 0.295543
Si Si5 0.783465 0.745824 0.420868
Si Si6 0.103739 0.590763 0.390733
O O1 0.878059 0.500000 0.198431
O O2 0.896466 0.338140 0.180296
O O3 0.748678 0.398018 0.224046
O O4 0.889307 0.404779 0.305515
O O5 0.121085 0.194243 0.229565
O O6 0.181265 0.231811 0.104448
O O7 0.000000 0.223358 0.132938
O O8 0.921249 0.929214 0.309728
O O9 0.830370 0.804148 0.363520
O O10 0.786324 0.779807 0.500000
O O11 0.834571 0.661060 0.419476
O O12 0.130799 0.500000 0.411078
O O13 0.000000 0.602588 0.411141
#
# Coordination Sequence:
#
# PCOD9518498 Si02
#       6
#    16  16   4  16  16  16
#     4  10  18  33  59  89 118 146 184 242 303 350
#     4  11  21  38  64  89 118 151 201 252 300 362
#     4  12  24  36  69  92 121 148 214 264 312 348
#     4  11  21  39  59  90 116 156 196 253 298 360
#     4  11  24  41  59  84 123 165 200 245 300 361
#     4  10  20  34  57  87 117 151 191 237 293 360
#
# _framework density 17.943470999999999
#
# number of rings (size 3 to 8) (size 9 to 14) (size 15 to 20)
#    0.000    1.333    5.714    1.714    1.333    2.286 
#    0.000    1.905    0.000    0.000    0.000    4.667 
#    0.000    0.000    0.000    0.000    0.000    0.000 
#
# Total GULP energy -233985.696223 kJ/mol
# GULP energy per Si atom -5571.088005 kJ/mol
# Density = 1.790263 g / cm^3
# Si number density = 17.943471 Si / 1000 Ang^3
#
#
#
# Elastic Constant Matrix: (Units=GPa)
#
#
# Indices 1 2 3 4 5 6 
#
# 1 126.9693 46.1705 16.4373 0.0000 0.0000 0.0000
# 2 46.1705 109.8857 26.1461 0.0000 0.0000 0.0000
# 3 16.4373 26.1461 50.9459 0.0000 0.0000 0.0000
# 4 0.0000 0.0000 0.0000 4.5880 0.0000 0.0000
# 5 0.0000 0.0000 0.0000 0.0000 -8.6533 0.0000
# 6 0.0000 0.0000 0.0000 0.0000 0.0000 28.5209
#
#
#
# Elastic Compliance Matrix: (Units=1/GPa)
#
#
# Indices 1 2 3 4 5 6 
#
# 1 0.009354 -0.003659 -0.001140 0.000000 0.000000 0.000000
# 2 -0.003659 0.011797 -0.004874 0.000000 0.000000 0.000000
# 3 -0.001140 -0.004874 0.022498 0.000000 0.000000 0.000000
# 4 0.000000 0.000000 0.000000 0.217958 0.000000 0.000000
# 5 0.000000 0.000000 0.000000 0.000000 -0.115562 0.000000
# 6 0.000000 0.000000 0.000000 0.000000 0.000000 0.035062
#
#
# Mechanical properties :
#
#
# Convention : Reuss Voigt Hill
#
# Bulk Modulus (GPa) = 41.14712 51.70097 46.42405
# Shear Modulus (GPa) = 23.97454 18.16092 21.06773
#
# Velocity S-wave (km/s) = 3.65926 3.18483 3.43026
# Velocity P-wave (km/s) = 6.39022 6.51153 6.45116
#
# Compressibility (1/GPa) = 0.02430304
#
# Stress axis : x y z
#
# Youngs Moduli (GPa) = 106.90538 84.76375 44.44843
#
# Poissons Ratio (x) = 0.31015 0.05068
# Poissons Ratio (y) = 0.39117 0.21665
# Poissons Ratio (z) = 0.12189 0.41315
#
# Static dielectric constant tensor:
#      x y z
#    x 1.619700 0.000000 0.000000 
#    y 0.000000 1.605930 0.000000 
#    z 0.000000 0.000000 1.605470 
# 
# From -- ./inp_files/37753.got.cif
#   From: 2010.05.17/outbox.cif.g08.bks.cpg/sg71_19_cif.got.tgz:37753.got - 2010.06.03 16:22:01.
