data_PCOD9518563
_publ_section_title
;
Structure prediction by ZEFSAII (Michael W. Deem and Ramdas Pophale) SiO2 
 PCOD9518563
Probable space group: I M M M
;
_chemical_formula_sum "Si O2"
_cell_formula_units_Z 68
_cell_length_a 10.414412
_cell_length_b 17.364350
_cell_length_c 21.627541
_cell_angle_alpha 90.000000
_cell_angle_beta 90.000000
_cell_angle_gamma 90.000000
_cell_volume 3911.113593
_symmetry_space_group_name_H-M "I M M M"
_symmetry_group_IT_number 71
_symmetry_cell_setting 'orthorhombic'
loop_
_space_group_symop_operation_xyz
x,y,z
-x,-y,z
x,-y,-z
-x,y,-z
-x,-y,-z
x,y,-z
-x,y,z
x,-y,z
1/2+x,1/2+y,1/2+z
1/2-x,1/2-y,1/2+z
1/2+x,1/2-y,1/2-z
1/2-x,1/2+y,1/2-z
1/2-x,1/2-y,1/2-z
1/2+x,1/2+y,1/2-z
1/2-x,1/2+y,1/2+z
1/2+x,1/2-y,1/2+z
loop_
_atom_site_type_symbol
_atom_site_label
_atom_site_fract_x
_atom_site_fract_y
_atom_site_fract_z
Si Si1 0.722426 0.584468 0.500000
Si Si2 0.264930 0.663948 0.123060
Si Si3 0.845835 0.000000 0.573848
Si Si4 0.500000 0.388915 0.597626
Si Si5 0.500000 0.768043 0.662824
Si Si6 0.347678 0.752805 0.000000
Si Si7 0.500000 0.500000 0.282450
Si Si8 0.000000 0.163202 0.714423
O O1 0.784183 0.500000 0.500000
O O2 0.625994 0.590637 0.558264
O O3 0.816941 0.656509 0.500000
O O4 0.283726 0.575990 0.102451
O O5 0.375333 0.680354 0.173045
O O6 0.127766 0.682478 0.152730
O O7 0.288521 0.714789 0.061558
O O8 0.826600 0.000000 0.500000
O O9 0.000000 0.000000 0.583906
O O10 0.500000 0.298399 0.610714
O O11 0.500000 0.434192 0.661663
O O12 0.500000 0.720802 0.727035
O O13 0.500000 0.737561 0.000000
O O14 0.500000 0.571805 0.232006
#
# Coordination Sequence:
#
# PCOD9518563 Si02
#       8
#     8  16   8   8   8   8   4   8
#     4  11  20  35  62  93 126 156 198 268 319 361
#     4  12  23  42  65  96 126 167 215 263 317 376
#     4  11  21  38  66  93 123 165 214 257 314 385
#     4  10  18  35  61  91 120 156 204 255 316 371
#     4  11  25  39  61  94 129 164 212 261 316 367
#     4  12  23  39  66  92 126 169 211 258 322 384
#     4  10  20  37  62  95 114 162 226 258 290 368
#     4  11  23  41  65  90 127 175 217 255 302 385
#
# _framework density 17.386353
#
# number of rings (size 3 to 8) (size 9 to 14) (size 15 to 20)
#    0.000    0.824    7.059    1.765    0.000    1.176 
#    0.000    0.588    0.000    0.000    6.118    0.000 
#    0.000    0.000    0.000    0.000    0.000    0.000 
#
# Total GULP energy -189333.833696 kJ/mol
# GULP energy per Si atom -5568.642168 kJ/mol
# Density = 1.734678 g / cm^3
# Si number density = 17.386353 Si / 1000 Ang^3
#
#
#
# Elastic Constant Matrix: (Units=GPa)
#
#
# Indices 1 2 3 4 5 6 
#
# 1 132.6900 58.1448 59.5871 0.0000 0.0000 0.0000
# 2 58.1448 146.9233 49.5725 0.0000 0.0000 0.0000
# 3 59.5871 49.5725 123.8023 0.0000 0.0000 0.0000
# 4 0.0000 0.0000 0.0000 24.4023 0.0000 0.0000
# 5 0.0000 0.0000 0.0000 0.0000 -1.6327 0.0000
# 6 0.0000 0.0000 0.0000 0.0000 0.0000 20.5451
#
#
#
# Elastic Compliance Matrix: (Units=1/GPa)
#
#
# Indices 1 2 3 4 5 6 
#
# 1 0.010553 -0.002847 -0.003939 0.000000 0.000000 0.000000
# 2 -0.002847 0.008638 -0.002088 0.000000 0.000000 0.000000
# 3 -0.003939 -0.002088 0.010810 0.000000 0.000000 0.000000
# 4 0.000000 0.000000 0.000000 0.040980 0.000000 0.000000
# 5 0.000000 0.000000 0.000000 0.000000 -0.612487 0.000000
# 6 0.000000 0.000000 0.000000 0.000000 0.000000 0.048673
#
#
# Mechanical properties :
#
#
# Convention : Reuss Voigt Hill
#
# Bulk Modulus (GPa) = 81.62709 82.00271 81.81490
# Shear Modulus (GPa) = -10.61568 24.40371 6.89401
#
# Velocity S-wave (km/s) = -2.47366 3.75055 1.99344
# Velocity P-wave (km/s) = 6.23636 8.12544 7.24276
#
# Compressibility (1/GPa) = 0.01225083
#
# Stress axis : x y z
#
# Youngs Moduli (GPa) = 94.76001 115.77216 92.51110
#
# Poissons Ratio (x) = 0.32963 0.36441
# Poissons Ratio (y) = 0.26980 0.19319
# Poissons Ratio (z) = 0.37327 0.24176
#
# Static dielectric constant tensor:
#      x y z
#    x 1.563390 0.000000 0.000000 
#    y 0.000000 1.602790 0.000000 
#    z 0.000000 0.000000 1.590240 
# 
# From -- ./inp_files/50082.got.cif
#   From: 2010.05.17/outbox.cif.g08.bks.cpg/sg71_26_cif.got.tgz:50082.got - 2010.06.03 16:22:01.
