data_PCOD9518155
_publ_section_title
;
Structure prediction by ZEFSAII (Michael W. Deem and Ramdas Pophale) SiO2 
 PCOD9518155
Probable space group: I M M M
;
_chemical_formula_sum "Si O2"
_cell_formula_units_Z 90
_cell_length_a 21.391854
_cell_length_b 17.894982
_cell_length_c 14.234763
_cell_angle_alpha 90.000000
_cell_angle_beta 90.000000
_cell_angle_gamma 90.000000
_cell_volume 5449.164675
_symmetry_space_group_name_H-M "I M M M"
_symmetry_group_IT_number 71
_symmetry_cell_setting 'orthorhombic'
loop_
_space_group_symop_operation_xyz
x,y,z
-x,-y,z
x,-y,-z
-x,y,-z
-x,-y,-z
x,y,-z
-x,y,z
x,-y,z
1/2+x,1/2+y,1/2+z
1/2-x,1/2-y,1/2+z
1/2+x,1/2-y,1/2-z
1/2-x,1/2+y,1/2-z
1/2-x,1/2-y,1/2-z
1/2+x,1/2+y,1/2-z
1/2-x,1/2+y,1/2+z
1/2+x,1/2-y,1/2+z
loop_
_atom_site_type_symbol
_atom_site_label
_atom_site_fract_x
_atom_site_fract_y
_atom_site_fract_z
Si Si1 0.218583 0.219815 0.108299
Si Si2 0.500000 0.000000 0.500000
Si Si3 0.000000 0.345758 0.102989
Si Si4 0.115557 0.302997 0.768191
Si Si5 0.779094 0.414868 0.283763
Si Si6 0.571141 0.692621 0.109650
Si Si7 0.201456 0.130981 0.392852
O O1 0.164535 0.249374 0.177124
O O2 0.244592 0.141234 0.144617
O O3 0.272868 0.283257 0.113291
O O4 0.198027 0.216396 0.000000
O O5 0.500000 0.933514 0.579851
O O6 0.061047 0.324108 0.160500
O O7 0.000000 0.307903 0.000000
O O8 0.154740 0.375626 0.737641
O O9 0.086423 0.260087 0.679723
O O10 0.784336 0.500000 0.315723
O O11 0.739472 0.411712 0.186709
O O12 0.500000 0.666153 0.125715
O O13 0.627177 0.633383 0.123976
O O14 0.575951 0.715429 0.000000
O O15 0.213913 0.105662 0.500000
#
# Coordination Sequence:
#
# PCOD9518155 Si02
#       7
#    16   2   8  16  16  16  16
#     4  10  19  34  53  74 102 138 181 228 260 309
#     4   8  24  40  48  76 126 148 170 216 282 316
#     4  10  22  36  53  77 112 149 173 218 265 320
#     4  11  19  35  55  79 104 142 184 215 262 314
#     4  11  22  32  50  78 106 140 177 215 270 323
#     4  10  18  30  55  84 104 128 169 221 267 308
#     4   9  17  34  53  73 103 132 168 221 269 311
#
# _framework density 16.516292
#
# number of rings (size 3 to 8) (size 9 to 14) (size 15 to 20)
#    0.267    1.600    4.444    1.600    1.244    1.422 
#    0.000    0.000    0.000    0.533    0.000    4.356 
#    0.000    3.556    0.000    0.000    0.000    0.000 
#
# Total GULP energy -250566.581265 kJ/mol
# GULP energy per Si atom -5568.146250 kJ/mol
# Density = 1.647870 g / cm^3
# Si number density = 16.516292 Si / 1000 Ang^3
#
#
#
# Elastic Constant Matrix: (Units=GPa)
#
#
# Indices 1 2 3 4 5 6 
#
# 1 73.5141 -6.5794 0.6012 0.0000 0.0000 0.0000
# 2 -6.5794 55.6062 -4.0798 0.0000 0.0000 0.0000
# 3 0.6012 -4.0798 42.7149 0.0000 0.0000 0.0000
# 4 0.0000 0.0000 0.0000 14.7749 0.0000 0.0000
# 5 0.0000 0.0000 0.0000 0.0000 18.8857 0.0000
# 6 0.0000 0.0000 0.0000 0.0000 0.0000 3.9848
#
#
#
# Elastic Compliance Matrix: (Units=1/GPa)
#
#
# Indices 1 2 3 4 5 6 
#
# 1 0.013748 0.001624 -0.000038 0.000000 0.000000 0.000000
# 2 0.001624 0.018302 0.001725 0.000000 0.000000 0.000000
# 3 -0.000038 0.001725 0.023576 0.000000 0.000000 0.000000
# 4 0.000000 0.000000 0.000000 0.067682 0.000000 0.000000
# 5 0.000000 0.000000 0.000000 0.000000 0.052950 0.000000
# 6 0.000000 0.000000 0.000000 0.000000 0.000000 0.250954
#
#
# Mechanical properties :
#
#
# Convention : Reuss Voigt Hill
#
# Bulk Modulus (GPa) = 16.06459 16.85768 16.46114
# Shear Modulus (GPa) = 11.32910 19.65530 15.49220
#
# Velocity S-wave (km/s) = 2.62188 3.45346 3.06599
# Velocity P-wave (km/s) = 4.34894 5.11182 4.74573
#
# Compressibility (1/GPa) = 0.06224872
#
# Stress axis : x y z
#
# Youngs Moduli (GPa) = 72.73529 54.63785 42.41539
#
# Poissons Ratio (x) = -0.08873 0.00163
# Poissons Ratio (y) = -0.11812 -0.07318
# Poissons Ratio (z) = 0.00279 -0.09426
#
# Static dielectric constant tensor:
#      x y z
#    x 1.567710 0.000000 0.000000 
#    y 0.000000 1.532600 0.000000 
#    z 0.000000 0.000000 1.565430 
# 
# From -- ./inp_files/38052.got.cif
#   From: 2010.05.17/outbox.cif.g08.bks.cpg/sg71_20_cif.got.tgz:38052.got - 2010.06.03 16:22:01.
