data_PCOD9518224
_publ_section_title
;
Structure prediction by ZEFSAII (Michael W. Deem and Ramdas Pophale) SiO2 
 PCOD9518224
Probable space group: I M M M
;
_chemical_formula_sum "Si O2"
_cell_formula_units_Z 80
_cell_length_a 29.816708
_cell_length_b 8.618173
_cell_length_c 15.632080
_cell_angle_alpha 90.000000
_cell_angle_beta 90.000000
_cell_angle_gamma 90.000000
_cell_volume 4016.906001
_symmetry_space_group_name_H-M "I M M M"
_symmetry_group_IT_number 71
_symmetry_cell_setting 'orthorhombic'
loop_
_space_group_symop_operation_xyz
x,y,z
-x,-y,z
x,-y,-z
-x,y,-z
-x,-y,-z
x,y,-z
-x,y,z
x,-y,z
1/2+x,1/2+y,1/2+z
1/2-x,1/2-y,1/2+z
1/2+x,1/2-y,1/2-z
1/2-x,1/2+y,1/2-z
1/2-x,1/2-y,1/2-z
1/2+x,1/2+y,1/2-z
1/2-x,1/2+y,1/2+z
1/2+x,1/2-y,1/2+z
loop_
_atom_site_type_symbol
_atom_site_label
_atom_site_fract_x
_atom_site_fract_y
_atom_site_fract_z
Si Si1 0.320510 0.685456 0.095258
Si Si2 0.732443 0.314988 0.659487
Si Si3 0.355290 0.817025 0.723083
Si Si4 0.946408 0.326224 0.595014
Si Si5 0.448518 0.319931 0.270320
O O1 0.323607 0.500000 0.105739
O O2 0.268432 0.737583 0.097349
O O3 0.344322 0.761327 0.178615
O O4 0.337308 0.727347 0.000000
O O5 0.736019 0.500000 0.655386
O O6 0.750000 0.250000 0.750000
O O7 0.680776 0.264296 0.660741
O O8 0.405872 0.773712 0.695460
O O9 0.348287 0.000000 0.720664
O O10 0.931329 0.285142 0.500000
O O11 0.929021 0.500000 0.618405
O O12 0.940545 0.201055 0.668404
O O13 0.000000 0.341948 0.590225
O O14 0.500000 0.265935 0.288002
O O15 0.445665 0.500000 0.293768
#
# Coordination Sequence:
#
# PCOD9518224 Si02
#       5
#    16  16  16  16  16
#     4  10  20  34  52  74 100 127 158 197 239 285
#     4  10  18  31  51  72  97 125 156 193 237 290
#     4  11  21  33  50  69  94 128 165 201 240 289
#     4   8  14  25  39  53  71  99 137 180 225 270
#     4  10  20  32  45  62  86 117 156 201 243 281
#
# _framework density 19.915825999999999
#
# number of rings (size 3 to 8) (size 9 to 14) (size 15 to 20)
#    0.000    2.200    0.000    7.800    0.000    4.000 
#    0.000    2.000    0.000    0.000    0.000    0.000 
#    0.000    0.800    0.000    8.400    0.000    3.600 
#
# Total GULP energy -222851.356038 kJ/mol
# GULP energy per Si atom -5571.283901 kJ/mol
# Density = 1.987050 g / cm^3
# Si number density = 19.915826 Si / 1000 Ang^3
#
#
#
# Elastic Constant Matrix: (Units=GPa)
#
#
# Indices 1 2 3 4 5 6 
#
# 1 145.1436 24.6223 14.4516 0.0000 0.0000 0.0000
# 2 24.6223 58.0289 5.1216 0.0000 0.0000 0.0000
# 3 14.4516 5.1216 17.5664 0.0000 0.0000 0.0000
# 4 0.0000 0.0000 0.0000 10.7154 0.0000 0.0000
# 5 0.0000 0.0000 0.0000 0.0000 2.6746 0.0000
# 6 0.0000 0.0000 0.0000 0.0000 0.0000 30.8468
#
#
#
# Elastic Compliance Matrix: (Units=1/GPa)
#
#
# Indices 1 2 3 4 5 6 
#
# 1 0.007944 -0.002868 -0.005699 0.000000 0.000000 0.000000
# 2 -0.002868 0.018723 -0.003100 0.000000 0.000000 0.000000
# 3 -0.005699 -0.003100 0.062519 0.000000 0.000000 0.000000
# 4 0.000000 0.000000 0.000000 0.093323 0.000000 0.000000
# 5 0.000000 0.000000 0.000000 0.000000 0.373891 0.000000
# 6 0.000000 0.000000 0.000000 0.000000 0.000000 0.032418
#
#
# Mechanical properties :
#
#
# Convention : Reuss Voigt Hill
#
# Bulk Modulus (GPa) = 15.18530 34.34775 24.76653
# Shear Modulus (GPa) = 7.88517 20.61692 14.25105
#
# Velocity S-wave (km/s) = 1.99194 3.22095 2.67790
# Velocity P-wave (km/s) = 3.59607 5.57822 4.69299
#
# Compressibility (1/GPa) = 0.06585315
#
# Stress axis : x y z
#
# Youngs Moduli (GPa) = 125.88709 53.40987 15.99515
#
# Poissons Ratio (x) = 0.15316 0.09116
# Poissons Ratio (y) = 0.36099 0.04958
# Poissons Ratio (z) = 0.71743 0.16555
#
# Static dielectric constant tensor:
#      x y z
#    x 1.813980 0.000000 0.000000 
#    y 0.000000 1.698250 0.000000 
#    z 0.000000 0.000000 1.693100 
# 
# From -- ./inp_files/49131.got.cif
#   From: 2010.05.17/outbox.cif.g08.bks.cpg/sg71_25_cif.got.tgz:49131.got - 2010.06.03 16:22:01.
