data_PCOD9518077
_publ_section_title
;
Structure prediction by ZEFSAII (Michael W. Deem and Ramdas Pophale) SiO2 
 PCOD9518077
Probable space group: I M M M
;
_chemical_formula_sum "Si O2"
_cell_formula_units_Z 72
_cell_length_a 24.747324
_cell_length_b 18.271652
_cell_length_c 7.387680
_cell_angle_alpha 90.000000
_cell_angle_beta 90.000000
_cell_angle_gamma 90.000000
_cell_volume 3340.520451
_symmetry_space_group_name_H-M "I M M M"
_symmetry_group_IT_number 71
_symmetry_cell_setting 'orthorhombic'
loop_
_space_group_symop_operation_xyz
x,y,z
-x,-y,z
x,-y,-z
-x,y,-z
-x,-y,-z
x,y,-z
-x,y,z
x,-y,z
1/2+x,1/2+y,1/2+z
1/2-x,1/2-y,1/2+z
1/2+x,1/2-y,1/2-z
1/2-x,1/2+y,1/2-z
1/2-x,1/2-y,1/2-z
1/2+x,1/2+y,1/2-z
1/2-x,1/2+y,1/2+z
1/2+x,1/2-y,1/2+z
loop_
_atom_site_type_symbol
_atom_site_label
_atom_site_fract_x
_atom_site_fract_y
_atom_site_fract_z
Si Si1 0.237900 0.085114 0.779977
Si Si2 0.439017 0.791497 0.214344
Si Si3 0.062142 0.000000 0.221068
Si Si4 0.359289 0.915853 0.221027
Si Si5 0.373624 0.643953 0.717735
O O1 0.298381 0.105370 0.721536
O O2 0.188159 0.134902 0.718232
O O3 0.227950 0.000000 0.729541
O O4 0.238222 0.086375 0.000000
O O5 0.500000 0.784663 0.287300
O O6 0.404212 0.859450 0.286483
O O7 0.404658 0.717712 0.235827
O O8 0.443919 0.803887 0.000000
O O9 0.092909 0.073037 0.280131
O O10 0.000000 0.000000 0.278099
O O11 0.062734 0.000000 0.000000
O O12 0.368936 0.000000 0.274391
O O13 0.359266 0.914771 0.000000
O O14 0.372093 0.640509 0.500000
#
# Coordination Sequence:
#
# PCOD9518077 Si02
#       5
#    16  16   8  16  16
#     4   8  13  25  47  74  97 116 151 201 240 272
#     4  10  21  34  46  67 100 130 158 195 236 279
#     4   9  16  26  43  67  91 119 158 194 220 259
#     4   8  15  29  50  72  93 121 157 198 241 281
#     4  10  18  30  50  73  95 123 158 196 236 278
#
# _framework density 21.553526000000002
#
# number of rings (size 3 to 8) (size 9 to 14) (size 15 to 20)
#    0.000    3.000    1.111    2.000    0.000    2.667 
#    0.000    2.778    0.000    2.667    0.000    4.667 
#    0.000    0.000    0.000    0.000    0.000    0.000 
#
# Total GULP energy -200973.679516 kJ/mol
# GULP energy per Si atom -5582.602209 kJ/mol
# Density = 2.150447 g / cm^3
# Si number density = 21.553526 Si / 1000 Ang^3
#
#
#
# Elastic Constant Matrix: (Units=GPa)
#
#
# Indices 1 2 3 4 5 6 
#
# 1 201.3628 131.6476 10.4504 0.0000 0.0000 0.0000
# 2 131.6476 151.3532 0.5658 0.0000 0.0000 0.0000
# 3 10.4504 0.5658 73.9962 0.0000 0.0000 0.0000
# 4 0.0000 0.0000 0.0000 1.8483 0.0000 0.0000
# 5 0.0000 0.0000 0.0000 0.0000 1.4428 0.0000
# 6 0.0000 0.0000 0.0000 0.0000 0.0000 21.2051
#
#
#
# Elastic Compliance Matrix: (Units=1/GPa)
#
#
# Indices 1 2 3 4 5 6 
#
# 1 0.011694 -0.010165 -0.001574 0.000000 0.000000 0.000000
# 2 -0.010165 0.015444 0.001318 0.000000 0.000000 0.000000
# 3 -0.001574 0.001318 0.013726 0.000000 0.000000 0.000000
# 4 0.000000 0.000000 0.000000 0.541025 0.000000 0.000000
# 5 0.000000 0.000000 0.000000 0.000000 0.693103 0.000000
# 6 0.000000 0.000000 0.000000 0.000000 0.000000 0.047159
#
#
# Mechanical properties :
#
#
# Convention : Reuss Voigt Hill
#
# Bulk Modulus (GPa) = 49.94760 79.11551 64.53156
# Shear Modulus (GPa) = 3.70462 23.83580 13.77021
#
# Velocity S-wave (km/s) = 1.31245 3.32910 2.53036
# Velocity P-wave (km/s) = 5.05181 7.18077 6.20823
#
# Compressibility (1/GPa) = 0.02002098
#
# Stress axis : x y z
#
# Youngs Moduli (GPa) = 85.51500 64.74963 72.85234
#
# Poissons Ratio (x) = 0.65821 0.11465
# Poissons Ratio (y) = 0.86930 -0.09599
# Poissons Ratio (z) = 0.13458 -0.08531
#
# Static dielectric constant tensor:
#      x y z
#    x 1.783370 0.000000 0.000000 
#    y 0.000000 1.726700 0.000000 
#    z 0.000000 0.000000 1.863520 
# 
# From -- ./inp_files/12165.got.cif
#   From: 2010.05.17/outbox.cif.g08.bks.cpg/sg71_7_cif.got.tgz:12165.got - 2010.06.03 16:22:01.
