data_PCOD9518194
_publ_section_title
;
Structure prediction by ZEFSAII (Michael W. Deem and Ramdas Pophale) SiO2 
 PCOD9518194
Probable space group: I M M M
;
_chemical_formula_sum "Si O2"
_cell_formula_units_Z 116
_cell_length_a 7.483691
_cell_length_b 24.046512
_cell_length_c 29.735515
_cell_angle_alpha 90.000000
_cell_angle_beta 90.000000
_cell_angle_gamma 90.000000
_cell_volume 5351.104124
_symmetry_space_group_name_H-M "I M M M"
_symmetry_group_IT_number 71
_symmetry_cell_setting 'orthorhombic'
loop_
_space_group_symop_operation_xyz
x,y,z
-x,-y,z
x,-y,-z
-x,y,-z
-x,-y,-z
x,y,-z
-x,y,z
x,-y,z
1/2+x,1/2+y,1/2+z
1/2-x,1/2-y,1/2+z
1/2+x,1/2-y,1/2-z
1/2-x,1/2+y,1/2-z
1/2-x,1/2-y,1/2-z
1/2+x,1/2+y,1/2-z
1/2-x,1/2+y,1/2+z
1/2+x,1/2-y,1/2+z
loop_
_atom_site_type_symbol
_atom_site_label
_atom_site_fract_x
_atom_site_fract_y
_atom_site_fract_z
Si Si1 0.713669 0.268491 0.801127
Si Si2 0.000000 0.500000 0.060118
Si Si3 0.287851 0.061442 0.211091
Si Si4 0.786478 0.693284 0.948694
Si Si5 0.792100 0.321993 0.549698
Si Si6 0.719926 0.839966 0.853411
Si Si7 0.215090 0.894331 0.690203
Si Si8 0.205475 0.919392 0.593562
O O1 0.500000 0.271050 0.806737
O O2 0.750000 0.250000 0.750000
O O3 0.779424 0.219693 0.833848
O O4 0.783663 0.330699 0.809127
O O5 0.842845 0.451830 0.062422
O O6 0.500000 0.059409 0.202971
O O7 0.219362 0.111277 0.179885
O O8 0.262786 0.076685 0.263245
O O9 0.214126 0.000000 0.201912
O O10 0.716663 0.755526 0.942273
O O11 0.712154 0.646383 0.916299
O O12 0.000000 0.695175 0.944311
O O13 0.741267 0.677075 0.000000
O O14 0.712786 0.332510 0.500000
O O15 0.718526 0.348219 0.595355
O O16 0.000000 0.337903 0.547288
O O17 0.500000 0.839070 0.853389
O O18 0.270828 0.926266 0.645107
O O19 0.000000 0.892203 0.687821
O O20 0.000000 0.937193 0.588963
#
# Coordination Sequence:
#
# PCOD9518194 Si02
#       8
#    16   4  16  16  16  16  16  16
#     4  10  18  31  49  74 106 140 176 223 282 343
#     4  12  26  44  61  88 116 150 210 256 301 350
#     4  10  21  34  53  75 101 147 195 235 284 344
#     4  10  20  37  60  88 119 147 185 238 293 359
#     4   9  17  31  56  84 110 146 186 227 289 360
#     4   9  17  32  51  76 111 143 181 236 285 344
#     4  10  22  36  54  79 109 143 188 237 289 346
#     4  11  24  42  62  85 114 155 200 253 305 351
#
# _framework density 21.677769999999999
#
# number of rings (size 3 to 8) (size 9 to 14) (size 15 to 20)
#    0.000    2.069    2.069    1.448    1.931    3.310 
#    0.000    2.069    0.000    1.241    0.000    2.897 
#    0.000    0.000    0.000    4.690    0.000    4.966 
#
# Total GULP energy -323552.827864 kJ/mol
# GULP energy per Si atom -5578.497032 kJ/mol
# Density = 2.162843 g / cm^3
# Si number density = 21.677770 Si / 1000 Ang^3
#
#
#
# Elastic Constant Matrix: (Units=GPa)
#
#
# Indices 1 2 3 4 5 6 
#
# 1 82.7867 2.0225 -1.2537 0.0000 0.0000 0.0000
# 2 2.0225 57.5651 3.0491 0.0000 0.0000 0.0000
# 3 -1.2537 3.0491 100.9414 0.0000 0.0000 0.0000
# 4 0.0000 0.0000 0.0000 -47.3660 0.0000 0.0000
# 5 0.0000 0.0000 0.0000 0.0000 9.6922 0.0000
# 6 0.0000 0.0000 0.0000 0.0000 0.0000 6.5651
#
#
#
# Elastic Compliance Matrix: (Units=1/GPa)
#
#
# Indices 1 2 3 4 5 6 
#
# 1 0.012092 -0.000434 0.000163 0.000000 0.000000 0.000000
# 2 -0.000434 0.017415 -0.000531 0.000000 0.000000 0.000000
# 3 0.000163 -0.000531 0.009925 0.000000 0.000000 0.000000
# 4 0.000000 0.000000 0.000000 -0.021112 0.000000 0.000000
# 5 0.000000 0.000000 0.000000 0.000000 0.103176 0.000000
# 6 0.000000 0.000000 0.000000 0.000000 0.000000 0.152322
#
#
# Mechanical properties :
#
#
# Convention : Reuss Voigt Hill
#
# Bulk Modulus (GPa) = 26.43486 27.65876 27.04681
# Shear Modulus (GPa) = 17.35928 9.60994 13.48461
#
# Velocity S-wave (km/s) = 2.83289 2.10777 2.49679
# Velocity P-wave (km/s) = 4.78762 4.32555 4.56243
#
# Compressibility (1/GPa) = 0.03782884
#
# Stress axis : x y z
#
# Youngs Moduli (GPa) = 82.69728 57.42171 100.75746
#
# Poissons Ratio (x) = 0.02489 -0.01645
# Poissons Ratio (y) = 0.03585 0.05355
# Poissons Ratio (z) = -0.01350 0.03052
#
# Static dielectric constant tensor:
#      x y z
#    x 1.044480 0.000000 0.000000 
#    y 0.000000 1.771690 0.000000 
#    z 0.000000 0.000000 1.820270 
# 
# From -- ./inp_files/68474.got.cif
#   From: 2010.05.17/outbox.cif.g08.bks.cpg/sg71_35_cif.got.tgz:68474.got - 2010.06.03 16:22:01.
