data_PCOD9518218
_publ_section_title
;
Structure prediction by ZEFSAII (Michael W. Deem and Ramdas Pophale) SiO2 
 PCOD9518218
Probable space group: I M M M
;
_chemical_formula_sum "Si O2"
_cell_formula_units_Z 88
_cell_length_a 23.500227
_cell_length_b 7.495723
_cell_length_c 25.486708
_cell_angle_alpha 90.000000
_cell_angle_beta 90.000000
_cell_angle_gamma 90.000000
_cell_volume 4489.513995
_symmetry_space_group_name_H-M "I M M M"
_symmetry_group_IT_number 71
_symmetry_cell_setting 'orthorhombic'
loop_
_space_group_symop_operation_xyz
x,y,z
-x,-y,z
x,-y,-z
-x,y,-z
-x,-y,-z
x,y,-z
-x,y,z
x,-y,z
1/2+x,1/2+y,1/2+z
1/2-x,1/2-y,1/2+z
1/2+x,1/2-y,1/2-z
1/2-x,1/2+y,1/2-z
1/2-x,1/2-y,1/2-z
1/2+x,1/2+y,1/2-z
1/2-x,1/2+y,1/2+z
1/2+x,1/2-y,1/2+z
loop_
_atom_site_type_symbol
_atom_site_label
_atom_site_fract_x
_atom_site_fract_y
_atom_site_fract_z
Si Si1 0.500000 0.286731 0.060210
Si Si2 0.934240 0.717930 0.853090
Si Si3 0.112830 0.711441 0.372638
Si Si4 0.066071 0.717500 0.264274
Si Si5 0.346754 0.213192 0.440462
Si Si6 0.217198 0.714442 0.559651
O O1 0.500000 0.500000 0.058170
O O2 0.443552 0.231980 0.091830
O O3 0.500000 0.219497 0.000000
O O4 0.933585 0.500000 0.853402
O O5 0.916529 0.773568 0.794239
O O6 0.892091 0.781460 0.898401
O O7 0.000000 0.770723 0.861481
O O8 0.122132 0.500000 0.366424
O O9 0.100884 0.783162 0.314379
O O10 0.167819 0.784512 0.402664
O O11 0.067426 0.500000 0.264753
O O12 0.000000 0.767956 0.271609
O O13 0.353653 0.283369 0.500000
O O14 0.281664 0.245748 0.423784
O O15 0.645530 0.000000 0.443157
O O16 0.209905 0.781708 0.500000
O O17 0.211751 0.500000 0.557562
#
# Coordination Sequence:
#
# PCOD9518218 Si02
#       6
#     8  16  16  16  16  16
#     4  11  23  33  43  67 101 127 148 187 242 282
#     4   8  14  25  44  71  97 117 145 188 233 276
#     4  10  18  31  51  70  87 117 164 201 224 264
#     4   8  13  24  44  69  91 113 147 191 234 268
#     4   9  17  29  46  68  93 122 153 186 228 278
#     4   9  18  31  46  64  88 120 155 192 231 268
#
# _framework density 19.601230999999999
#
# number of rings (size 3 to 8) (size 9 to 14) (size 15 to 20)
#    0.000    3.000    0.909    1.909    0.000    2.545 
#    0.000    4.545    0.000    1.636    0.000    2.545 
#    0.000    0.000    0.000    0.000    0.000    0.000 
#
# Total GULP energy -245396.136385 kJ/mol
# GULP energy per Si atom -5577.184918 kJ/mol
# Density = 1.955662 g / cm^3
# Si number density = 19.601231 Si / 1000 Ang^3
#
#
#
# Elastic Constant Matrix: (Units=GPa)
#
#
# Indices 1 2 3 4 5 6 
#
# 1 149.0671 -1.9081 133.9430 0.0000 0.0000 0.0000
# 2 -1.9081 53.5044 3.3133 0.0000 0.0000 0.0000
# 3 133.9430 3.3133 177.6582 0.0000 0.0000 0.0000
# 4 0.0000 0.0000 0.0000 -2.9423 0.0000 0.0000
# 5 0.0000 0.0000 0.0000 0.0000 44.1528 0.0000
# 6 0.0000 0.0000 0.0000 0.0000 0.0000 17.1739
#
#
#
# Elastic Compliance Matrix: (Units=1/GPa)
#
#
# Indices 1 2 3 4 5 6 
#
# 1 0.020956 0.001728 -0.015832 0.000000 0.000000 0.000000
# 2 0.001728 0.018854 -0.001654 0.000000 0.000000 0.000000
# 3 -0.015832 -0.001654 0.017596 0.000000 0.000000 0.000000
# 4 0.000000 0.000000 0.000000 -0.339866 0.000000 0.000000
# 5 0.000000 0.000000 0.000000 0.000000 0.022649 0.000000
# 6 0.000000 0.000000 0.000000 0.000000 0.000000 0.058228
#
#
# Mechanical properties :
#
#
# Convention : Reuss Voigt Hill
#
# Bulk Modulus (GPa) = 38.62583 72.32512 55.47548
# Shear Modulus (GPa) = -30.97174 28.00231 -1.48472
#
# Velocity S-wave (km/s) = -3.97935 3.78378 -0.87127
# Velocity P-wave (km/s) = 1.16834 7.48784 5.22985
#
# Compressibility (1/GPa) = 0.02588941
#
# Stress axis : x y z
#
# Youngs Moduli (GPa) = 47.71933 53.03889 56.83219
#
# Poissons Ratio (x) = -0.09164 0.89975
# Poissons Ratio (y) = -0.08245 0.09401
# Poissons Ratio (z) = 0.75547 0.08774
#
# Static dielectric constant tensor:
#      x y z
#    x 1.652450 0.000000 0.000000 
#    y 0.000000 1.745520 0.000000 
#    z 0.000000 0.000000 1.701960 
# 
# From -- ./inp_files/61119.got.cif
#   From: 2010.05.17/outbox.cif.g08.bks.cpg/sg71_31_cif.got.tgz:61119.got - 2010.06.03 16:22:01.
