data_PCOD9518629
_publ_section_title
;
Structure prediction by ZEFSAII (Michael W. Deem and Ramdas Pophale) SiO2 
 PCOD9518629
Probable space group: I M M M
;
_chemical_formula_sum "Si O2"
_cell_formula_units_Z 88
_cell_length_a 29.356820
_cell_length_b 7.389906
_cell_length_c 18.482999
_cell_angle_alpha 90.000000
_cell_angle_beta 90.000000
_cell_angle_gamma 90.000000
_cell_volume 4009.778327
_symmetry_space_group_name_H-M "I M M M"
_symmetry_group_IT_number 71
_symmetry_cell_setting 'orthorhombic'
loop_
_space_group_symop_operation_xyz
x,y,z
-x,-y,z
x,-y,-z
-x,y,-z
-x,-y,-z
x,y,-z
-x,y,z
x,-y,z
1/2+x,1/2+y,1/2+z
1/2-x,1/2-y,1/2+z
1/2+x,1/2-y,1/2-z
1/2-x,1/2+y,1/2-z
1/2-x,1/2-y,1/2-z
1/2+x,1/2+y,1/2-z
1/2-x,1/2+y,1/2+z
1/2+x,1/2-y,1/2+z
loop_
_atom_site_type_symbol
_atom_site_label
_atom_site_fract_x
_atom_site_fract_y
_atom_site_fract_z
Si Si1 0.371528 0.216484 0.315960
Si Si2 0.312656 0.793800 0.086287
Si Si3 0.595831 0.221439 0.842791
Si Si4 0.950708 0.720436 0.917104
Si Si5 0.213508 0.783437 0.083090
Si Si6 0.000000 0.720962 0.585231
O O1 0.387704 0.279496 0.237122
O O2 0.408867 0.287347 0.371790
O O3 0.323207 0.250876 0.354225
O O4 0.374946 0.000000 0.312047
O O5 0.361321 0.717913 0.108736
O O6 0.263556 0.711646 0.105531
O O7 0.312514 0.000000 0.115916
O O8 0.311580 0.801656 0.000000
O O9 0.546487 0.279228 0.873416
O O10 0.593336 0.000000 0.843868
O O11 0.949492 0.500000 0.917149
O O12 0.000000 0.773233 0.887271
O O13 0.947687 0.777520 0.000000
O O14 0.217900 0.000000 0.076985
O O15 0.201613 0.720181 0.000000
O O16 0.000000 0.500000 0.585501
O O17 0.000000 0.774320 0.500000
#
# Coordination Sequence:
#
# PCOD9518629 Si02
#       6
#    16  16  16  16  16   8
#     4  10  19  28  43  69  99 123 147 190 241 281
#     4   8  14  27  45  62  85 121 161 193 225 275
#     4   9  17  26  40  66  96 124 153 190 237 282
#     4   8  14  24  38  56  80 114 150 178 213 268
#     4   9  18  32  49  66  87 123 166 198 224 267
#     4   9  16  26  42  66  98 131 158 190 233 277
#
# _framework density 21.946349999999999
#
# number of rings (size 3 to 8) (size 9 to 14) (size 15 to 20)
#    0.000    3.182    0.000    2.727    1.273    4.000 
#    0.000    0.000    0.000    0.545    0.000    2.545 
#    0.000    2.909    0.000    0.000    0.000    0.364 
#
# Total GULP energy -245105.220417 kJ/mol
# GULP energy per Si atom -5570.573191 kJ/mol
# Density = 2.189640 g / cm^3
# Si number density = 21.946350 Si / 1000 Ang^3
#
#
#
# Elastic Constant Matrix: (Units=GPa)
#
#
# Indices 1 2 3 4 5 6 
#
# 1 254.9782 4.2982 115.4904 0.0000 0.0000 0.0000
# 2 4.2982 75.1252 2.8042 0.0000 0.0000 0.0000
# 3 115.4904 2.8042 96.8532 0.0000 0.0000 0.0000
# 4 0.0000 0.0000 0.0000 3.3166 0.0000 0.0000
# 5 0.0000 0.0000 0.0000 0.0000 143.0551 0.0000
# 6 0.0000 0.0000 0.0000 0.0000 0.0000 8.9674
#
#
#
# Elastic Compliance Matrix: (Units=1/GPa)
#
#
# Indices 1 2 3 4 5 6 
#
# 1 0.008529 -0.000108 -0.010167 0.000000 0.000000 0.000000
# 2 -0.000108 0.013327 -0.000257 0.000000 0.000000 0.000000
# 3 -0.010167 -0.000257 0.022455 0.000000 0.000000 0.000000
# 4 0.000000 0.000000 0.000000 0.301516 0.000000 0.000000
# 5 0.000000 0.000000 0.000000 0.000000 0.006990 0.000000
# 6 0.000000 0.000000 0.000000 0.000000 0.000000 0.111516
#
#
# Mechanical properties :
#
#
# Convention : Reuss Voigt Hill
#
# Bulk Modulus (GPa) = 43.01520 74.68247 58.84883
# Shear Modulus (GPa) = 10.13900 51.35874 30.74887
#
# Velocity S-wave (km/s) = 2.15173 4.84280 3.74718
# Velocity P-wave (km/s) = 5.08094 8.08541 6.75240
#
# Compressibility (1/GPa) = 0.02324760
#
# Stress axis : x y z
#
# Youngs Moduli (GPa) = 117.25226 75.03621 44.53296
#
# Poissons Ratio (x) = 0.00814 0.45275
# Poissons Ratio (y) = 0.01272 0.01142
# Poissons Ratio (z) = 1.19206 0.01925
#
# Static dielectric constant tensor:
#      x y z
#    x 1.823840 0.000000 0.000000 
#    y 0.000000 1.905620 0.000000 
#    z 0.000000 0.000000 1.794940 
# 
# From -- ./inp_files/49230.got.cif
#   From: 2010.05.17/outbox.cif.g08.bks.cpg/sg71_25_cif.got.tgz:49230.got - 2010.06.03 16:22:01.
