data_PCOD9518652
_publ_section_title
;
Structure prediction by ZEFSAII (Michael W. Deem and Ramdas Pophale) SiO2 
 PCOD9518652
Probable space group: I M M M
;
_chemical_formula_sum "Si O2"
_cell_formula_units_Z 104
_cell_length_a 20.645007
_cell_length_b 7.501511
_cell_length_c 25.647946
_cell_angle_alpha 90.000000
_cell_angle_beta 90.000000
_cell_angle_gamma 90.000000
_cell_volume 3972.065263
_symmetry_space_group_name_H-M "I M M M"
_symmetry_group_IT_number 71
_symmetry_cell_setting 'orthorhombic'
loop_
_space_group_symop_operation_xyz
x,y,z
-x,-y,z
x,-y,-z
-x,y,-z
-x,-y,-z
x,y,-z
-x,y,z
x,-y,z
1/2+x,1/2+y,1/2+z
1/2-x,1/2-y,1/2+z
1/2+x,1/2-y,1/2-z
1/2-x,1/2+y,1/2-z
1/2-x,1/2-y,1/2-z
1/2+x,1/2+y,1/2-z
1/2-x,1/2+y,1/2+z
1/2+x,1/2-y,1/2+z
loop_
_atom_site_type_symbol
_atom_site_label
_atom_site_fract_x
_atom_site_fract_y
_atom_site_fract_z
Si Si1 0.599309 0.702873 0.169344
Si Si2 0.626321 0.708216 0.276571
Si Si3 0.755906 0.285642 0.943200
Si Si4 0.101665 0.783439 0.556612
Si Si5 0.923510 0.718569 0.000000
Si Si6 0.251715 0.792196 0.828390
Si Si7 0.422506 0.203804 0.387575
O O1 0.574817 0.500000 0.169079
O O2 0.588235 0.784573 0.226705
O O3 0.578526 0.782437 0.113473
O O4 0.678398 0.701546 0.169171
O O5 0.635768 0.500000 0.264443
O O6 0.697891 0.783610 0.289071
O O7 0.591337 0.713771 0.331823
O O8 0.762378 0.500000 0.942603
O O9 0.678619 0.245267 0.943899
O O10 0.778107 0.219112 0.886833
O O11 0.780314 0.224179 0.000000
O O12 0.075923 0.722937 0.500000
O O13 0.094580 0.000000 0.557398
O O14 0.898772 0.778540 0.943305
O O15 0.918314 0.500000 0.000000
O O16 0.000000 0.762489 0.000000
O O17 0.262902 0.000000 0.817663
O O18 0.500000 0.199475 0.392679
O O19 0.398928 0.000000 0.384175
#
# Coordination Sequence:
#
# PCOD9518652 Si02
#       7
#    16  16  16  16   8  16  16
#     4   9  17  30  46  62  88 125 161 193 225 270
#     4  10  21  33  44  65  95 125 153 184 231 287
#     4   8  14  26  42  57  76 109 153 192 228 270
#     4   7  10  19  38  60  77 100 141 188 221 245
#     4   7  12  28  53  75  91 109 141 189 241 285
#     4  10  19  29  41  61  90 122 157 193 232 273
#     4   9  18  34  56  76  92 114 149 196 243 286
#
# _framework density 26.182853000000001
#
# number of rings (size 3 to 8) (size 9 to 14) (size 15 to 20)
#    0.000    3.308    0.000    3.692    0.000    2.462 
#    1.385    0.385    0.000    1.385    0.000    0.000 
#    0.000    0.615    0.000    7.692    0.000    1.385 
#
# Total GULP energy -290149.970843 kJ/mol
# GULP energy per Si atom -5579.807132 kJ/mol
# Density = 2.612326 g / cm^3
# Si number density = 26.182853 Si / 1000 Ang^3
#
#
#
# Elastic Constant Matrix: (Units=GPa)
#
#
# Indices 1 2 3 4 5 6 
#
# 1 71.2717 2.1609 34.3887 0.0000 0.0000 0.0000
# 2 2.1609 75.3349 23.6173 0.0000 0.0000 0.0000
# 3 34.3887 23.6173 308.3208 0.0000 0.0000 0.0000
# 4 0.0000 0.0000 0.0000 22.0745 0.0000 0.0000
# 5 0.0000 0.0000 0.0000 0.0000 18.0149 0.0000
# 6 0.0000 0.0000 0.0000 0.0000 0.0000 -48.2435
#
#
#
# Elastic Compliance Matrix: (Units=1/GPa)
#
#
# Indices 1 2 3 4 5 6 
#
# 1 0.014830 0.000095 -0.001661 0.000000 0.000000 0.000000
# 2 0.000095 0.013601 -0.001052 0.000000 0.000000 0.000000
# 3 -0.001661 -0.001052 0.003509 0.000000 0.000000 0.000000
# 4 0.000000 0.000000 0.000000 0.045301 0.000000 0.000000
# 5 0.000000 0.000000 0.000000 0.000000 0.055509 0.000000
# 6 0.000000 0.000000 0.000000 0.000000 0.000000 -0.020728
#
#
# Mechanical properties :
#
#
# Convention : Reuss Voigt Hill
#
# Bulk Modulus (GPa) = 37.44853 63.91791 50.68322
# Shear Modulus (GPa) = 39.63211 24.68656 32.15933
#
# Velocity S-wave (km/s) = 3.89481 3.07392 3.50846
# Velocity P-wave (km/s) = 5.87876 6.08800 5.98429
#
# Compressibility (1/GPa) = 0.02670332
#
# Stress axis : x y z
#
# Youngs Moduli (GPa) = 67.43314 73.52253 284.95763
#
# Poissons Ratio (x) = -0.00702 0.47341
# Poissons Ratio (y) = -0.00644 0.29992
# Poissons Ratio (z) = 0.11203 0.07738
#
# Static dielectric constant tensor:
#      x y z
#    x 2.097270 0.000000 0.000000 
#    y 0.000000 2.044330 0.000000 
#    z 0.000000 0.000000 2.164590 
# 
# From -- ./inp_files/67078.got.cif
#   From: 2010.05.17/outbox.cif.g08.bks.cpg/sg71_34_cif.got.tgz:67078.got - 2010.06.03 16:22:01.
