data_PCOD9518510
_publ_section_title
;
Structure prediction by ZEFSAII (Michael W. Deem and Ramdas Pophale) SiO2 
 PCOD9518510
Probable space group: I M M M
;
_chemical_formula_sum "Si O2"
_cell_formula_units_Z 96
_cell_length_a 23.047074
_cell_length_b 28.564084
_cell_length_c 8.743565
_cell_angle_alpha 90.000000
_cell_angle_beta 90.000000
_cell_angle_gamma 90.000000
_cell_volume 5756.051100
_symmetry_space_group_name_H-M "I M M M"
_symmetry_group_IT_number 71
_symmetry_cell_setting 'orthorhombic'
loop_
_space_group_symop_operation_xyz
x,y,z
-x,-y,z
x,-y,-z
-x,y,-z
-x,-y,-z
x,y,-z
-x,y,z
x,-y,z
1/2+x,1/2+y,1/2+z
1/2-x,1/2-y,1/2+z
1/2+x,1/2-y,1/2-z
1/2-x,1/2+y,1/2-z
1/2-x,1/2-y,1/2-z
1/2+x,1/2+y,1/2-z
1/2-x,1/2+y,1/2+z
1/2+x,1/2-y,1/2+z
loop_
_atom_site_type_symbol
_atom_site_label
_atom_site_fract_x
_atom_site_fract_y
_atom_site_fract_z
Si Si1 0.200087 0.860861 0.181310
Si Si2 0.500000 0.764550 0.314527
Si Si3 0.000000 0.369538 0.680205
Si Si4 0.765011 0.446745 0.815355
Si Si5 0.117724 0.396828 0.821999
Si Si6 0.305074 0.805416 0.678850
Si Si7 0.879653 0.218162 0.813538
O O1 0.217706 0.909716 0.257501
O O2 0.252953 0.825877 0.222596
O O3 0.142560 0.833041 0.234004
O O4 0.197158 0.867470 0.000000
O O5 0.500000 0.766672 0.500000
O O6 0.500000 0.817838 0.256363
O O7 0.442424 0.736563 0.264617
O O8 0.057907 0.396482 0.732284
O O9 0.000000 0.363339 0.500000
O O10 0.754431 0.500000 0.767605
O O11 0.829221 0.429278 0.765519
O O12 0.765543 0.444472 0.000000
O O13 0.144101 0.344328 0.816458
O O14 0.106482 0.408122 0.000000
O O15 0.287165 0.801689 0.500000
O O16 0.332185 0.756930 0.733591
O O17 0.879656 0.218746 0.000000
#
# Coordination Sequence:
#
# PCOD9518510 Si02
#       7
#    16   8   8  16  16  16  16
#     4  10  19  29  45  74 102 122 148 192 250 295
#     4  10  18  34  52  63  90 139 178 200 218 257
#     4  12  22  30  43  69 100 128 163 200 238 280
#     4   9  19  37  57  73  89 117 160 202 241 291
#     4   9  17  31  51  68  88 124 166 201 232 273
#     4   9  16  29  47  67  92 129 169 195 222 272
#     4   9  17  29  47  69  94 128 168 197 225 272
#
# _framework density 16.678101000000002
#
# number of rings (size 3 to 8) (size 9 to 14) (size 15 to 20)
#    0.000    2.500    1.667    2.750    0.000    3.000 
#    0.000    2.917    0.000    2.500    0.000    0.583 
#    0.000    4.667    0.000    0.000    0.000    0.000 
#
# Total GULP energy -267548.723223 kJ/mol
# GULP energy per Si atom -5573.931734 kJ/mol
# Density = 1.664014 g / cm^3
# Si number density = 16.678101 Si / 1000 Ang^3
#
#
#
# Elastic Constant Matrix: (Units=GPa)
#
#
# Indices 1 2 3 4 5 6 
#
# 1 32.6502 38.5674 5.9082 0.0000 0.0000 0.0000
# 2 38.5674 120.1785 14.6514 0.0000 0.0000 0.0000
# 3 5.9082 14.6514 17.8125 0.0000 0.0000 0.0000
# 4 0.0000 0.0000 0.0000 17.2821 0.0000 0.0000
# 5 0.0000 0.0000 0.0000 0.0000 15.0823 0.0000
# 6 0.0000 0.0000 0.0000 0.0000 0.0000 11.1412
#
#
#
# Elastic Compliance Matrix: (Units=1/GPa)
#
#
# Indices 1 2 3 4 5 6 
#
# 1 0.049548 -0.015446 -0.003729 0.000000 0.000000 0.000000
# 2 -0.015446 0.014064 -0.006444 0.000000 0.000000 0.000000
# 3 -0.003729 -0.006444 0.062678 0.000000 0.000000 0.000000
# 4 0.000000 0.000000 0.000000 0.057863 0.000000 0.000000
# 5 0.000000 0.000000 0.000000 0.000000 0.066303 0.000000
# 6 0.000000 0.000000 0.000000 0.000000 0.000000 0.089757
#
#
# Mechanical properties :
#
#
# Convention : Reuss Voigt Hill
#
# Bulk Modulus (GPa) = 13.32454 32.09945 22.71200
# Shear Modulus (GPa) = 12.00568 16.13541 14.07055
#
# Velocity S-wave (km/s) = 2.68591 3.11378 2.90772
# Velocity P-wave (km/s) = 4.19826 5.67589 4.99205
#
# Compressibility (1/GPa) = 0.07504948
#
# Stress axis : x y z
#
# Youngs Moduli (GPa) = 20.18246 71.10579 15.95457
#
# Poissons Ratio (x) = 1.09831 0.05950
# Poissons Ratio (y) = 0.31174 0.10282
# Poissons Ratio (z) = 0.07527 0.45824
#
# Static dielectric constant tensor:
#      x y z
#    x 1.569080 0.000000 0.000000 
#    y 0.000000 1.569060 0.000000 
#    z 0.000000 0.000000 1.565520 
# 
# From -- ./inp_files/13203.got.cif
#   From: 2010.05.17/outbox.cif.g08.bks.cpg/sg71_7_cif.got.tgz:13203.got - 2010.06.03 16:22:01.
