data_PCOD9518082
_publ_section_title
;
Structure prediction by ZEFSAII (Michael W. Deem and Ramdas Pophale) SiO2 
 PCOD9518082
Probable space group: I M M M
;
_chemical_formula_sum "Si O2"
_cell_formula_units_Z 104
_cell_length_a 28.981471
_cell_length_b 22.039880
_cell_length_c 7.430171
_cell_angle_alpha 90.000000
_cell_angle_beta 90.000000
_cell_angle_gamma 90.000000
_cell_volume 4746.007929
_symmetry_space_group_name_H-M "I M M M"
_symmetry_group_IT_number 71
_symmetry_cell_setting 'orthorhombic'
loop_
_space_group_symop_operation_xyz
x,y,z
-x,-y,z
x,-y,-z
-x,y,-z
-x,-y,-z
x,y,-z
-x,y,z
x,-y,z
1/2+x,1/2+y,1/2+z
1/2-x,1/2-y,1/2+z
1/2+x,1/2-y,1/2-z
1/2-x,1/2+y,1/2-z
1/2-x,1/2-y,1/2-z
1/2+x,1/2+y,1/2-z
1/2-x,1/2+y,1/2+z
1/2+x,1/2-y,1/2+z
loop_
_atom_site_type_symbol
_atom_site_label
_atom_site_fract_x
_atom_site_fract_y
_atom_site_fract_z
Si Si1 0.201688 0.682898 0.717718
Si Si2 0.051894 0.380821 0.279891
Si Si3 0.854163 0.434346 0.719517
Si Si4 0.444883 0.255037 0.788775
Si Si5 0.054144 0.000000 0.279883
Si Si6 0.806940 0.818696 0.790249
Si Si7 0.399923 0.375718 0.791651
O O1 0.202287 0.682976 0.500000
O O2 0.174113 0.624173 0.779806
O O3 0.180034 0.747637 0.769734
O O4 0.254704 0.678794 0.782915
O O5 0.050928 0.379254 0.500000
O O6 0.092689 0.425138 0.227277
O O7 0.064173 0.312439 0.217877
O O8 0.000000 0.395876 0.222020
O O9 0.852704 0.433533 0.500000
O O10 0.836603 0.500000 0.778152
O O11 0.500000 0.263282 0.781175
O O12 0.421350 0.314451 0.708429
O O13 0.430948 0.252252 0.000000
O O14 0.080621 0.061019 0.218123
O O15 0.055339 0.000000 0.500000
O O16 0.000000 0.000000 0.228557
O O17 0.845185 0.863647 0.712515
O O18 0.804550 0.833166 0.000000
O O19 0.415046 0.375986 0.000000
#
# Coordination Sequence:
#
# PCOD9518082 Si02
#       7
#    16  16  16  16   8  16  16
#     4   9  18  34  53  73  95 126 166 206 249 297
#     4   8  13  20  32  57  92 121 145 181 231 279
#     4   9  16  26  42  65  93 125 159 190 227 281
#     4   8  13  22  40  66  92 120 157 198 237 278
#     4   9  18  32  51  77 107 139 179 221 258 307
#     4  10  20  33  51  75  98 123 161 211 260 302
#     4  10  18  30  50  74 100 132 167 206 253 303
#
# _framework density 21.913153000000001
#
# number of rings (size 3 to 8) (size 9 to 14) (size 15 to 20)
#    0.000    3.000    0.000    2.769    0.000    5.231 
#    1.385    1.923    0.000    2.769    0.000    0.000 
#    0.000    0.000    0.000    5.538    0.000    4.923 
#
# Total GULP energy -290129.421098 kJ/mol
# GULP energy per Si atom -5579.411944 kJ/mol
# Density = 2.186328 g / cm^3
# Si number density = 21.913153 Si / 1000 Ang^3
#
#
#
# Elastic Constant Matrix: (Units=GPa)
#
#
# Indices 1 2 3 4 5 6 
#
# 1 76.6627 73.9048 -8.2144 0.0000 0.0000 0.0000
# 2 73.9048 131.1096 -4.0476 0.0000 0.0000 0.0000
# 3 -8.2144 -4.0476 66.5146 0.0000 0.0000 0.0000
# 4 0.0000 0.0000 0.0000 -4.1312 0.0000 0.0000
# 5 0.0000 0.0000 0.0000 0.0000 -9.3317 0.0000
# 6 0.0000 0.0000 0.0000 0.0000 0.0000 26.6096
#
#
#
# Elastic Compliance Matrix: (Units=1/GPa)
#
#
# Indices 1 2 3 4 5 6 
#
# 1 0.029008 -0.016271 0.002592 0.000000 0.000000 0.000000
# 2 -0.016271 0.016769 -0.000989 0.000000 0.000000 0.000000
# 3 0.002592 -0.000989 0.015294 0.000000 0.000000 0.000000
# 4 0.000000 0.000000 0.000000 -0.242063 0.000000 0.000000
# 5 0.000000 0.000000 0.000000 0.000000 -0.107162 0.000000
# 6 0.000000 0.000000 0.000000 0.000000 0.000000 0.037580
#
#
# Mechanical properties :
#
#
# Convention : Reuss Voigt Hill
#
# Bulk Modulus (GPa) = 31.51150 44.17472 37.84311
# Shear Modulus (GPa) = -23.73503 16.80563 -3.46470
#
# Velocity S-wave (km/s) = -3.29468 2.77234 -1.25878
# Velocity P-wave (km/s) = 0.24866 5.51820 3.89799
#
# Compressibility (1/GPa) = 0.03173444
#
# Stress axis : x y z
#
# Youngs Moduli (GPa) = 34.47338 59.63522 65.38406
#
# Poissons Ratio (x) = 0.97034 -0.16949
# Poissons Ratio (y) = 0.56093 0.06467
# Poissons Ratio (z) = -0.08936 0.05898
#
# Static dielectric constant tensor:
#      x y z
#    x 1.793820 0.000000 0.000000 
#    y 0.000000 1.790480 0.000000 
#    z 0.000000 0.000000 1.861050 
# 
# From -- ./inp_files/16986.got.cif
#   From: 2010.05.17/outbox.cif.g08.bks.cpg/sg71_9_cif.got.tgz:16986.got - 2010.06.03 16:22:01.
