data_PCOD9518995
_publ_section_title
;
Structure prediction by ZEFSAII (Michael W. Deem and Ramdas Pophale) SiO2 
 PCOD9518995
Probable space group: I M M M
;
_chemical_formula_sum "Si O2"
_cell_formula_units_Z 88
_cell_length_a 9.001136
_cell_length_b 29.578189
_cell_length_c 19.084818
_cell_angle_alpha 90.000000
_cell_angle_beta 90.000000
_cell_angle_gamma 90.000000
_cell_volume 5081.090450
_symmetry_space_group_name_H-M "I M M M"
_symmetry_group_IT_number 71
_symmetry_cell_setting 'orthorhombic'
loop_
_space_group_symop_operation_xyz
x,y,z
-x,-y,z
x,-y,-z
-x,y,-z
-x,-y,-z
x,y,-z
-x,y,z
x,-y,z
1/2+x,1/2+y,1/2+z
1/2-x,1/2-y,1/2+z
1/2+x,1/2-y,1/2-z
1/2-x,1/2+y,1/2-z
1/2-x,1/2-y,1/2-z
1/2+x,1/2+y,1/2-z
1/2-x,1/2+y,1/2+z
1/2+x,1/2-y,1/2+z
loop_
_atom_site_type_symbol
_atom_site_label
_atom_site_fract_x
_atom_site_fract_y
_atom_site_fract_z
Si Si1 0.672096 0.738729 0.000000
Si Si2 0.821515 0.595109 0.917932
Si Si3 0.169187 0.348802 0.500000
Si Si4 0.678313 0.344851 0.203102
Si Si5 0.830649 0.000000 0.584312
Si Si6 0.675112 0.237589 0.355886
Si Si7 0.324564 0.654076 0.356642
O O1 0.671388 0.793675 0.000000
O O2 0.761064 0.723941 0.068206
O O3 0.500000 0.723760 0.000000
O O4 0.751767 0.628917 0.861403
O O5 0.757857 0.545583 0.898636
O O6 0.000000 0.595850 0.913847
O O7 0.780981 0.604564 0.000000
O O8 0.245774 0.362584 0.572902
O O9 0.000000 0.363766 0.500000
O O10 0.500000 0.346412 0.198277
O O11 0.732600 0.293042 0.197158
O O12 0.723235 0.363317 0.280015
O O13 0.840883 0.000000 0.500000
O O14 0.000000 0.000000 0.612121
O O15 0.500000 0.228162 0.349589
O O16 0.696245 0.291459 0.352351
O O17 0.500000 0.646095 0.364299
#
# Coordination Sequence:
#
# PCOD9518995 Si02
#       7
#     8  16   8  16   8  16  16
#     4   9  17  29  43  61  83 112 155 200 239 287
#     4  10  21  36  53  74 101 133 167 202 245 293
#     4   9  17  29  49  69  85 112 155 202 243 289
#     4  11  22  33  47  69  97 127 163 205 248 292
#     4   9  17  33  57  79  99 126 161 198 241 293
#     4  10  19  31  46  63  88 124 163 205 252 297
#     4   9  19  34  49  66  91 126 164 205 252 299
#
# _framework density 17.319116000000001
#
# number of rings (size 3 to 8) (size 9 to 14) (size 15 to 20)
#    0.000    2.273    0.000    3.000    1.273    6.545 
#    0.000    0.000    0.000    0.000    0.000    0.000 
#    0.000    0.727    0.000    7.636    0.000    3.636 
#
# Total GULP energy -245341.657667 kJ/mol
# GULP energy per Si atom -5575.946765 kJ/mol
# Density = 1.727970 g / cm^3
# Si number density = 17.319116 Si / 1000 Ang^3
#
#
#
# Elastic Constant Matrix: (Units=GPa)
#
#
# Indices 1 2 3 4 5 6 
#
# 1 73.1052 22.5038 57.8874 0.0000 0.0000 0.0000
# 2 22.5038 32.8500 15.7264 0.0000 0.0000 0.0000
# 3 57.8874 15.7264 133.7418 -0.0001 0.0000 0.0000
# 4 0.0000 0.0000 -0.0001 9.3631 0.0000 0.0000
# 5 0.0000 0.0000 0.0000 0.0000 20.8241 0.0000
# 6 0.0000 0.0000 0.0000 0.0000 0.0000 18.3039
#
#
#
# Elastic Compliance Matrix: (Units=1/GPa)
#
#
# Indices 1 2 3 4 5 6 
#
# 1 0.024937 -0.012626 -0.009309 0.000000 0.000000 0.000000
# 2 -0.012626 0.038650 0.000920 0.000000 0.000000 0.000000
# 3 -0.009309 0.000920 0.011398 0.000000 0.000000 0.000000
# 4 0.000000 0.000000 0.000000 0.106802 0.000000 0.000000
# 5 0.000000 0.000000 0.000000 0.000000 0.048021 0.000000
# 6 0.000000 0.000000 0.000000 0.000000 0.000000 0.054633
#
#
# Mechanical properties :
#
#
# Convention : Reuss Voigt Hill
#
# Bulk Modulus (GPa) = 30.34392 47.99247 39.16820
# Shear Modulus (GPa) = 14.81675 19.27018 17.04346
#
# Velocity S-wave (km/s) = 2.92809 3.33926 3.14041
# Velocity P-wave (km/s) = 5.38425 6.52981 5.98450
#
# Compressibility (1/GPa) = 0.03295553
#
# Stress axis : x y z
#
# Youngs Moduli (GPa) = 40.10185 25.87293 87.73543
#
# Poissons Ratio (x) = 0.32668 0.81669
# Poissons Ratio (y) = 0.50634 -0.08074
# Poissons Ratio (z) = 0.37329 -0.02381
#
# Static dielectric constant tensor:
#      x y z
#    x 1.576300 0.000000 0.000000 
#    y 0.000000 1.590850 0.000000 
#    z 0.000000 0.000000 1.660160 
# 
# From -- ./inp_files/8915.got.cif
#   From: 2010.05.17/outbox.cif.g08.bks.cpg/sg71_5_cif.got.tgz:8915.got - 2010.06.03 16:22:01.
