data_PCOD9518382
_publ_section_title
;
Structure prediction by ZEFSAII (Michael W. Deem and Ramdas Pophale) SiO2 
 PCOD9518382
Probable space group: I M M M
;
_chemical_formula_sum "Si O2"
_cell_formula_units_Z 92
_cell_length_a 7.616179
_cell_length_b 25.584922
_cell_length_c 28.864713
_cell_angle_alpha 90.000000
_cell_angle_beta 90.000000
_cell_angle_gamma 90.000000
_cell_volume 5624.559088
_symmetry_space_group_name_H-M "I M M M"
_symmetry_group_IT_number 71
_symmetry_cell_setting 'orthorhombic'
loop_
_space_group_symop_operation_xyz
x,y,z
-x,-y,z
x,-y,-z
-x,y,-z
-x,-y,-z
x,y,-z
-x,y,z
x,-y,z
1/2+x,1/2+y,1/2+z
1/2-x,1/2-y,1/2+z
1/2+x,1/2-y,1/2-z
1/2-x,1/2+y,1/2-z
1/2-x,1/2-y,1/2-z
1/2+x,1/2+y,1/2-z
1/2-x,1/2+y,1/2+z
1/2+x,1/2-y,1/2+z
loop_
_atom_site_type_symbol
_atom_site_label
_atom_site_fract_x
_atom_site_fract_y
_atom_site_fract_z
Si Si1 0.212573 0.332896 0.751977
Si Si2 0.788723 0.500000 0.552954
Si Si3 0.000000 0.274773 0.500000
Si Si4 0.795875 0.094785 0.880818
Si Si5 0.796472 0.441880 0.280122
Si Si6 0.707402 0.248579 0.826170
Si Si7 0.703807 0.293015 0.421268
O O1 0.279558 0.391973 0.746854
O O2 0.262914 0.302011 0.798171
O O3 0.273665 0.297420 0.708394
O O4 0.000000 0.333739 0.749575
O O5 0.728503 0.500000 0.500000
O O6 0.726520 0.550985 0.580133
O O7 0.000000 0.500000 0.553419
O O8 0.156198 0.276740 0.540373
O O9 0.705934 0.074783 0.834119
O O10 0.737669 0.150260 0.900992
O O11 0.000000 0.100167 0.868843
O O12 0.717934 0.500000 0.275246
O O13 0.000000 0.445669 0.266047
O O14 0.500000 0.240846 0.832242
O O15 0.791877 0.244381 0.876356
O O16 0.500000 0.297498 0.437444
#
# Coordination Sequence:
#
# PCOD9518382 Si02
#       7
#    16   8   4  16  16  16  16
#     4   9  18  30  49  76 105 134 175 219 266 325
#     4  11  25  37  51  63  81 121 173 225 278 324
#     4  12  26  40  60  75 106 140 181 230 276 332
#     4  11  23  35  49  69  94 126 170 225 275 318
#     4  10  19  32  51  72  99 137 177 214 265 326
#     4  10  18  32  53  77 104 137 172 219 270 322
#     4  11  24  39  57  78 104 137 178 226 276 325
#
# _framework density 16.356839000000001
#
# number of rings (size 3 to 8) (size 9 to 14) (size 15 to 20)
#    0.000    1.652    3.478    1.565    3.652    2.087 
#    0.000    0.000    0.000    0.000    0.000    0.000 
#    0.000    0.000    0.000    1.565    0.000   13.304 
#
# Total GULP energy -256198.355926 kJ/mol
# GULP energy per Si atom -5569.529477 kJ/mol
# Density = 1.631961 g / cm^3
# Si number density = 16.356839 Si / 1000 Ang^3
#
#
#
# Elastic Constant Matrix: (Units=GPa)
#
#
# Indices 1 2 3 4 5 6 
#
# 1 67.8831 13.2123 20.3499 0.0000 0.0000 0.0000
# 2 13.2123 84.6238 55.9681 0.0000 0.0000 0.0000
# 3 20.3499 55.9681 96.3393 0.0000 0.0000 0.0000
# 4 0.0000 0.0000 0.0000 -6.0601 0.0000 0.0000
# 5 0.0000 0.0000 0.0000 0.0000 19.0732 0.0000
# 6 0.0000 0.0000 0.0000 0.0000 0.0000 11.3128
#
#
#
# Elastic Compliance Matrix: (Units=1/GPa)
#
#
# Indices 1 2 3 4 5 6 
#
# 1 0.015736 -0.000420 -0.003080 0.000000 0.000000 0.000000
# 2 -0.000420 0.019202 -0.011066 0.000000 0.000000 0.000000
# 3 -0.003080 -0.011066 0.017460 0.000000 0.000000 0.000000
# 4 0.000000 0.000000 0.000000 -0.165015 0.000000 0.000000
# 5 0.000000 0.000000 0.000000 0.000000 0.052430 0.000000
# 6 0.000000 0.000000 0.000000 0.000000 0.000000 0.088395
#
#
# Mechanical properties :
#
#
# Convention : Reuss Voigt Hill
#
# Bulk Modulus (GPa) = 42.98344 47.54520 45.26432
# Shear Modulus (GPa) = 76.81010 15.48625 46.14817
#
# Velocity S-wave (km/s) = 6.86010 3.08031 5.31739
# Velocity P-wave (km/s) = 9.43841 6.46387 8.08904
#
# Compressibility (1/GPa) = 0.02326478
#
# Stress axis : x y z
#
# Youngs Moduli (GPa) = 63.54747 52.07889 57.27492
#
# Poissons Ratio (x) = 0.02186 0.17641
# Poissons Ratio (y) = 0.02668 0.63383
# Poissons Ratio (z) = 0.19573 0.57633
#
# Static dielectric constant tensor:
#      x y z
#    x 1.611020 0.000000 0.000000 
#    y 0.000000 1.573450 0.000000 
#    z 0.000000 0.000000 1.529940 
# 
# From -- ./inp_files/63474.got.cif
#   From: 2010.05.17/outbox.cif.g08.bks.cpg/sg71_32_cif.got.tgz:63474.got - 2010.06.03 16:22:01.
