data_PCOD9518181
_publ_section_title
;
Structure prediction by ZEFSAII (Michael W. Deem and Ramdas Pophale) SiO2 
 PCOD9518181
Probable space group: I M M M
;
_chemical_formula_sum "Si O2"
_cell_formula_units_Z 112
_cell_length_a 29.182533
_cell_length_b 18.150622
_cell_length_c 13.988695
_cell_angle_alpha 90.000000
_cell_angle_beta 90.000000
_cell_angle_gamma 90.000000
_cell_volume 7409.547712
_symmetry_space_group_name_H-M "I M M M"
_symmetry_group_IT_number 71
_symmetry_cell_setting 'orthorhombic'
loop_
_space_group_symop_operation_xyz
x,y,z
-x,-y,z
x,-y,-z
-x,y,-z
-x,-y,-z
x,y,-z
-x,y,z
x,-y,z
1/2+x,1/2+y,1/2+z
1/2-x,1/2-y,1/2+z
1/2+x,1/2-y,1/2-z
1/2-x,1/2+y,1/2-z
1/2-x,1/2-y,1/2-z
1/2+x,1/2+y,1/2-z
1/2-x,1/2+y,1/2+z
1/2+x,1/2-y,1/2+z
loop_
_atom_site_type_symbol
_atom_site_label
_atom_site_fract_x
_atom_site_fract_y
_atom_site_fract_z
Si Si1 0.203878 0.321053 0.612906
Si Si2 0.944962 0.000000 0.395390
Si Si3 0.717334 0.082828 0.292355
Si Si4 0.945398 0.870401 0.750637
Si Si5 0.444290 0.500000 0.391922
Si Si6 0.860769 0.783810 0.280657
Si Si7 0.798789 0.734168 0.888291
Si Si8 0.817027 0.081236 0.387075
O O1 0.200730 0.337013 0.500000
O O2 0.214953 0.389226 0.682831
O O3 0.157730 0.283811 0.654953
O O4 0.246347 0.263095 0.626209
O O5 0.936442 0.924998 0.338433
O O6 0.924122 0.000000 0.500000
O O7 0.000000 0.000000 0.403285
O O8 0.696322 0.149220 0.355253
O O9 0.769071 0.080376 0.331204
O O10 0.698249 0.000000 0.302819
O O11 0.931179 0.924766 0.837816
O O12 0.913893 0.798378 0.742609
O O13 0.000000 0.855459 0.756517
O O14 0.500000 0.500000 0.389521
O O15 0.428121 0.500000 0.500000
O O16 0.831757 0.778811 0.182676
O O17 0.845818 0.854670 0.340916
O O18 0.809184 0.742920 0.000000
O O19 0.808876 0.093830 0.500000
O O20 0.838054 0.000000 0.375350
#
# Coordination Sequence:
#
# PCOD9518181 Si02
#       8
#    16   8  16  16   8  16  16  16
#     4  10  19  33  49  67  93 125 154 183 228 279
#     4   8  15  29  44  59  85 120 155 195 238 265
#     4  10  18  31  49  68  92 120 152 192 228 263
#     4   9  19  31  44  64  89 118 156 199 235 272
#     4   8  15  31  50  63  83 120 161 201 244 279
#     4  11  19  31  47  64  90 124 159 192 231 275
#     4  10  19  33  49  67  92 121 152 188 231 276
#     4  10  19  28  42  66  92 120 158 197 229 264
#
# _framework density 15.115633000000001
#
# number of rings (size 3 to 8) (size 9 to 14) (size 15 to 20)
#    0.000    2.286    2.857    2.571    2.000    2.857 
#    0.000    0.000    0.000    0.000    0.000    0.000 
#    0.000    9.143    0.000   10.286    0.000    0.000 
#
# Total GULP energy -311800.102179 kJ/mol
# GULP energy per Si atom -5567.858967 kJ/mol
# Density = 1.508123 g / cm^3
# Si number density = 15.115633 Si / 1000 Ang^3
#
#
#
# Elastic Constant Matrix: (Units=GPa)
#
#
# Indices 1 2 3 4 5 6 
#
# 1 61.0969 20.2426 17.7890 0.0000 0.0000 0.0000
# 2 20.2426 57.1647 16.4152 0.0000 0.0000 0.0000
# 3 17.7890 16.4152 96.2002 0.0000 0.0000 0.0000
# 4 0.0000 0.0000 0.0000 13.8180 0.0000 0.0000
# 5 0.0000 0.0000 0.0000 0.0000 9.7827 0.0000
# 6 0.0000 0.0000 0.0000 0.0000 0.0000 18.4245
#
#
#
# Elastic Compliance Matrix: (Units=1/GPa)
#
#
# Indices 1 2 3 4 5 6 
#
# 1 0.019098 -0.006045 -0.002500 0.000000 0.000000 0.000000
# 2 -0.006045 0.020308 -0.002347 0.000000 0.000000 0.000000
# 3 -0.002500 -0.002347 0.011258 0.000000 0.000000 0.000000
# 4 0.000000 0.000000 0.000000 0.072369 0.000000 0.000000
# 5 0.000000 0.000000 0.000000 0.000000 0.102221 0.000000
# 6 0.000000 0.000000 0.000000 0.000000 0.000000 0.054276
#
#
# Mechanical properties :
#
#
# Convention : Reuss Voigt Hill
#
# Bulk Modulus (GPa) = 34.62720 35.92840 35.27780
# Shear Modulus (GPa) = 16.08020 19.07270 17.57645
#
# Velocity S-wave (km/s) = 3.26515 3.55602 3.41368
# Velocity P-wave (km/s) = 6.09696 6.37816 6.23915
#
# Compressibility (1/GPa) = 0.02887903
#
# Stress axis : x y z
#
# Youngs Moduli (GPa) = 52.36094 49.24166 88.82686
#
# Poissons Ratio (x) = 0.29766 0.22208
# Poissons Ratio (y) = 0.31652 0.20852
# Poissons Ratio (z) = 0.13091 0.11559
#
# Static dielectric constant tensor:
#      x y z
#    x 1.520120 0.000000 0.000000 
#    y 0.000000 1.513730 0.000000 
#    z 0.000000 0.000000 1.522420 
# 
# From -- ./inp_files/41211.got.cif
#   From: 2010.05.17/outbox.cif.g08.bks.cpg/sg71_21_cif.got.tgz:41211.got - 2010.06.03 16:22:01.
