data_PCOD9518797
_publ_section_title
;
Structure prediction by ZEFSAII (Michael W. Deem and Ramdas Pophale) SiO2 
 PCOD9518797
Probable space group: I M M M
;
_chemical_formula_sum "Si O2"
_cell_formula_units_Z 104
_cell_length_a 31.007639
_cell_length_b 8.656875
_cell_length_c 23.267241
_cell_angle_alpha 90.000000
_cell_angle_beta 90.000000
_cell_angle_gamma 90.000000
_cell_volume 6245.608164
_symmetry_space_group_name_H-M "I M M M"
_symmetry_group_IT_number 71
_symmetry_cell_setting 'orthorhombic'
loop_
_space_group_symop_operation_xyz
x,y,z
-x,-y,z
x,-y,-z
-x,y,-z
-x,-y,-z
x,y,-z
-x,y,z
x,-y,z
1/2+x,1/2+y,1/2+z
1/2-x,1/2-y,1/2+z
1/2+x,1/2-y,1/2-z
1/2-x,1/2+y,1/2-z
1/2-x,1/2-y,1/2-z
1/2+x,1/2+y,1/2-z
1/2-x,1/2+y,1/2+z
1/2+x,1/2-y,1/2+z
loop_
_atom_site_type_symbol
_atom_site_label
_atom_site_fract_x
_atom_site_fract_y
_atom_site_fract_z
Si Si1 0.376448 0.810965 0.433570
Si Si2 0.809167 0.316293 0.433104
Si Si3 0.450468 0.813756 0.215738
Si Si4 0.781393 0.321452 0.069781
Si Si5 0.450252 0.311647 0.000000
Si Si6 0.548940 0.188322 0.652303
Si Si7 0.603740 0.684622 0.888130
O O1 0.382901 0.763875 0.500000
O O2 0.328701 0.761999 0.412778
O O3 0.414867 0.759111 0.392294
O O4 0.375622 0.000000 0.433500
O O5 0.813555 0.263926 0.500000
O O6 0.813220 0.500000 0.432067
O O7 0.761381 0.269039 0.412900
O O8 0.847765 0.242466 0.397458
O O9 0.500000 0.768600 0.202087
O O10 0.441764 0.766831 0.281752
O O11 0.418075 0.744932 0.169718
O O12 0.448348 0.000000 0.213471
O O13 0.776906 0.500000 0.087601
O O14 0.782806 0.319217 0.000000
O O15 0.424746 0.261232 0.057005
O O16 0.450436 0.500000 0.000000
O O17 0.500000 0.260565 0.000000
O O18 0.500000 0.237059 0.637864
O O19 0.548994 0.000000 0.651135
O O20 0.603366 0.500000 0.888280
#
# Coordination Sequence:
#
# PCOD9518797 Si02
#       7
#    16  16  16  16   8  16  16
#     4   8  13  22  40  69  99 125 155 190 227 269
#     4  10  19  30  45  66  93 120 150 187 231 283
#     4   9  18  32  47  64  90 125 161 192 226 272
#     4   8  14  25  42  64  92 123 153 186 226 271
#     4   9  18  30  43  63  89 113 139 179 232 279
#     4   8  14  25  42  65  95 129 159 188 226 271
#     4  11  20  31  48  67  90 118 152 195 237 277
#
# _framework density 16.651702
#
# number of rings (size 3 to 8) (size 9 to 14) (size 15 to 20)
#    0.000    3.000    0.769    3.231    0.000    1.846 
#    0.000    1.538    0.000    3.692    0.000    0.000 
#    0.000    0.000    0.000    9.385    0.000    9.538 
#
# Total GULP energy -289667.352849 kJ/mol
# GULP energy per Si atom -5570.526016 kJ/mol
# Density = 1.661380 g / cm^3
# Si number density = 16.651702 Si / 1000 Ang^3
#
#
#
# Elastic Constant Matrix: (Units=GPa)
#
#
# Indices 1 2 3 4 5 6 
#
# 1 174.2784 28.6091 90.5607 0.0000 0.0000 0.0000
# 2 28.6091 14.6784 19.1903 0.0000 0.0000 0.0000
# 3 90.5607 19.1903 81.2280 0.0000 0.0000 0.0000
# 4 0.0000 0.0000 0.0000 10.2893 0.0000 0.0000
# 5 0.0000 0.0000 0.0000 0.0000 17.6545 0.0000
# 6 0.0000 0.0000 0.0000 0.0000 0.0000 13.6081
#
#
#
# Elastic Compliance Matrix: (Units=1/GPa)
#
#
# Indices 1 2 3 4 5 6 
#
# 1 0.014666 -0.010429 -0.013888 0.000000 0.000000 0.000000
# 2 -0.010429 0.105991 -0.013413 0.000000 0.000000 0.000000
# 3 -0.013888 -0.013413 0.030963 0.000000 0.000000 0.000000
# 4 0.000000 0.000000 0.000000 0.097188 0.000000 0.000000
# 5 0.000000 0.000000 0.000000 0.000000 0.056643 0.000000
# 6 0.000000 0.000000 0.000000 0.000000 0.000000 0.073485
#
#
# Mechanical properties :
#
#
# Convention : Reuss Voigt Hill
#
# Bulk Modulus (GPa) = 13.13016 60.76720 36.94868
# Shear Modulus (GPa) = 10.42138 17.09870 13.76004
#
# Velocity S-wave (km/s) = 2.50440 3.20792 2.87774
# Velocity P-wave (km/s) = 4.03299 7.09178 5.76881
#
# Compressibility (1/GPa) = 0.07616053
#
# Stress axis : x y z
#
# Youngs Moduli (GPa) = 68.18289 9.43479 32.29658
#
# Poissons Ratio (x) = 0.09840 0.44852
# Poissons Ratio (y) = 0.71111 0.43319
# Poissons Ratio (z) = 0.94689 0.12655
#
# Static dielectric constant tensor:
#      x y z
#    x 1.569670 0.000000 0.000000 
#    y 0.000000 1.562500 0.000000 
#    z 0.000000 0.000000 1.543210 
# 
# From -- ./inp_files/56683.got.cif
#   From: 2010.05.17/outbox.cif.g08.bks.cpg/sg71_29_cif.got.tgz:56683.got - 2010.06.03 16:22:01.
