data_PCOD9518003
_publ_section_title
;
Structure prediction by ZEFSAII (Michael W. Deem and Ramdas Pophale) SiO2 
 PCOD9518003
Probable space group: I M M M
;
_chemical_formula_sum "Si O2"
_cell_formula_units_Z 80
_cell_length_a 20.960776
_cell_length_b 19.471407
_cell_length_c 8.118530
_cell_angle_alpha 90.000000
_cell_angle_beta 90.000000
_cell_angle_gamma 90.000000
_cell_volume 3313.462741
_symmetry_space_group_name_H-M "I M M M"
_symmetry_group_IT_number 71
_symmetry_cell_setting 'orthorhombic'
loop_
_space_group_symop_operation_xyz
x,y,z
-x,-y,z
x,-y,-z
-x,y,-z
-x,-y,-z
x,y,-z
-x,y,z
x,-y,z
1/2+x,1/2+y,1/2+z
1/2-x,1/2-y,1/2+z
1/2+x,1/2-y,1/2-z
1/2-x,1/2+y,1/2-z
1/2-x,1/2-y,1/2-z
1/2+x,1/2+y,1/2-z
1/2-x,1/2+y,1/2+z
1/2+x,1/2-y,1/2+z
loop_
_atom_site_type_symbol
_atom_site_label
_atom_site_fract_x
_atom_site_fract_y
_atom_site_fract_z
Si Si1 0.616386 0.000000 0.310975
Si Si2 0.892768 0.357645 0.306206
Si Si3 0.123077 0.218924 0.191305
Si Si4 0.240409 0.000000 0.191854
Si Si5 0.923434 0.075123 0.308217
Si Si6 0.244940 0.850606 0.797760
O O1 0.581954 0.927586 0.274819
O O2 0.681495 0.000000 0.203620
O O3 0.636348 0.000000 0.500000
O O4 0.894568 0.369452 0.500000
O O5 0.916707 0.280802 0.271075
O O6 0.818769 0.349085 0.248294
O O7 0.094077 0.143382 0.210489
O O8 0.194453 0.205306 0.263926
O O9 0.128441 0.236273 0.000000
O O10 0.221323 0.073948 0.260676
O O11 0.223560 0.000000 0.000000
O O12 0.903917 0.082314 0.500000
O O13 0.000000 0.072394 0.307921
O O14 0.901241 0.000000 0.245159
O O15 0.243761 0.849288 0.000000
#
# Coordination Sequence:
#
# PCOD9518003 Si02
#       6
#     8  16  16   8  16  16
#     4  10  18  30  48  70  97 128 171 220 258 291
#     4  10  19  34  51  69 101 146 183 209 251 316
#     4  11  21  31  50  80 107 131 169 223 274 314
#     4   8  14  28  44  60  89 134 177 205 246 306
#     4   9  20  40  60  76 101 139 181 223 268 323
#     4   8  16  28  45  68 100 138 174 213 256 305
#
# _framework density 24.143926
#
# number of rings (size 3 to 8) (size 9 to 14) (size 15 to 20)
#    0.000    2.600    0.000    4.500    1.400    0.800 
#    0.000   10.000    0.000    0.000    0.000    0.700 
#    0.000    5.600    0.000    0.000    0.000    0.000 
#
# Total GULP energy -223164.384307 kJ/mol
# GULP energy per Si atom -5579.109608 kJ/mol
# Density = 2.408897 g / cm^3
# Si number density = 24.143926 Si / 1000 Ang^3
#
#
#
# Elastic Constant Matrix: (Units=GPa)
#
#
# Indices 1 2 3 4 5 6 
#
# 1 36.8410 3.8190 2.5321 0.0000 0.0000 0.0000
# 2 3.8190 186.6058 20.3551 0.0000 0.0000 0.0000
# 3 2.5321 20.3551 56.3239 0.0000 0.0000 0.0000
# 4 0.0000 0.0000 0.0000 34.7484 0.0000 0.0000
# 5 0.0000 0.0000 0.0000 0.0000 11.0802 0.0000
# 6 0.0000 0.0000 0.0000 0.0000 0.0000 9.5160
#
#
#
# Elastic Compliance Matrix: (Units=1/GPa)
#
#
# Indices 1 2 3 4 5 6 
#
# 1 0.027263 -0.000442 -0.001066 0.000000 0.000000 0.000000
# 2 -0.000442 0.005586 -0.001999 0.000000 0.000000 0.000000
# 3 -0.001066 -0.001999 0.018525 0.000000 0.000000 0.000000
# 4 0.000000 0.000000 0.000000 0.028778 0.000000 0.000000
# 5 0.000000 0.000000 0.000000 0.000000 0.090251 0.000000
# 6 0.000000 0.000000 0.000000 0.000000 0.000000 0.105086
#
#
# Mechanical properties :
#
#
# Convention : Reuss Voigt Hill
#
# Bulk Modulus (GPa) = 22.54265 37.02033 29.78149
# Shear Modulus (GPa) = 16.81869 27.93990 22.37929
#
# Velocity S-wave (km/s) = 2.64218 3.40549 3.04783
# Velocity P-wave (km/s) = 4.32033 5.55244 4.97468
#
# Compressibility (1/GPa) = 0.04436037
#
# Stress axis : x y z
#
# Youngs Moduli (GPa) = 36.68014 179.02001 53.98187
#
# Poissons Ratio (x) = 0.07907 0.05754
# Poissons Ratio (y) = 0.01620 0.10790
# Poissons Ratio (z) = 0.03910 0.35784
#
# Static dielectric constant tensor:
#      x y z
#    x 2.012540 0.000000 0.000000 
#    y 0.000000 2.041550 0.000000 
#    z 0.000000 0.000000 1.835890 
# 
# From -- ./inp_files/14752.got.cif
#   From: 2010.05.17/outbox.cif.g08.bks.cpg/sg71_8_cif.got.tgz:14752.got - 2010.06.03 16:22:01.
