data_PCOD9518528
_publ_section_title
;
Structure prediction by ZEFSAII (Michael W. Deem and Ramdas Pophale) SiO2 
 PCOD9518528
Probable space group: I M M M
;
_chemical_formula_sum "Si O2"
_cell_formula_units_Z 84
_cell_length_a 27.398182
_cell_length_b 11.478722
_cell_length_c 12.442638
_cell_angle_alpha 90.000000
_cell_angle_beta 90.000000
_cell_angle_gamma 90.000000
_cell_volume 3913.161305
_symmetry_space_group_name_H-M "I M M M"
_symmetry_group_IT_number 71
_symmetry_cell_setting 'orthorhombic'
loop_
_space_group_symop_operation_xyz
x,y,z
-x,-y,z
x,-y,-z
-x,y,-z
-x,-y,-z
x,y,-z
-x,y,z
x,-y,z
1/2+x,1/2+y,1/2+z
1/2-x,1/2-y,1/2+z
1/2+x,1/2-y,1/2-z
1/2-x,1/2+y,1/2-z
1/2-x,1/2-y,1/2-z
1/2+x,1/2+y,1/2-z
1/2-x,1/2+y,1/2+z
1/2+x,1/2-y,1/2+z
loop_
_atom_site_type_symbol
_atom_site_label
_atom_site_fract_x
_atom_site_fract_y
_atom_site_fract_z
Si Si1 0.791657 0.867001 0.871028
Si Si2 0.446760 0.289685 0.000000
Si Si3 0.406432 0.500000 0.000000
Si Si4 0.441377 0.500000 0.752652
Si Si5 0.919065 0.628704 0.686540
Si Si6 0.187406 0.367948 0.745617
Si Si7 0.441215 0.275073 0.621089
O O1 0.814543 0.748156 0.820550
O O2 0.736317 0.862585 0.825223
O O3 0.809901 0.000000 0.841500
O O4 0.792987 0.859705 0.000000
O O5 0.445257 0.215720 0.892899
O O6 0.500000 0.353107 0.000000
O O7 0.396134 0.363693 0.000000
O O8 0.428487 0.500000 0.122222
O O9 0.500000 0.500000 0.745858
O O10 0.423521 0.386007 0.689566
O O11 0.936200 0.500000 0.662767
O O12 0.860948 0.635710 0.673241
O O13 0.928726 0.662585 0.809579
O O14 0.187092 0.500000 0.797117
O O15 0.422028 0.276201 0.500000
O O16 0.500000 0.283333 0.615541
#
# Coordination Sequence:
#
# PCOD9518528 Si02
#       7
#    16   8   4   8  16  16  16
#     4   9  18  36  63  88 115 151 191 237 295 360
#     4  12  24  40  61  87 122 162 206 255 311 366
#     4  12  21  36  64  88 112 156 204 256 316 360
#     4  10  18  34  57  81 108 140 192 247 301 354
#     4  11  24  39  58  85 119 157 200 247 297 356
#     4   9  20  38  59  86 119 154 192 237 292 361
#     4  10  21  37  57  80 111 154 200 246 294 348
#
# _framework density 21.46602
#
# number of rings (size 3 to 8) (size 9 to 14) (size 15 to 20)
#    0.000    1.905    1.905    2.000    1.333    4.571 
#    3.429    2.857    0.000    0.000    0.000    0.000 
#    0.000    0.000    0.000    0.000    0.000    0.000 
#
# Total GULP energy -233877.145632 kJ/mol
# GULP energy per Si atom -5568.503467 kJ/mol
# Density = 2.141716 g / cm^3
# Si number density = 21.466020 Si / 1000 Ang^3
#
#
#
# Elastic Constant Matrix: (Units=GPa)
#
#
# Indices 1 2 3 4 5 6 
#
# 1 44.3786 15.4427 5.7750 0.0000 0.0000 0.0000
# 2 15.4427 123.3323 19.4885 0.0000 0.0000 0.0000
# 3 5.7750 19.4885 78.4867 0.0000 0.0000 0.0000
# 4 0.0000 0.0000 0.0000 -32.5017 0.0000 0.0000
# 5 0.0000 0.0000 0.0000 0.0000 -1.0750 0.0000
# 6 0.0000 0.0000 0.0000 0.0000 0.0000 21.3221
#
#
#
# Elastic Compliance Matrix: (Units=1/GPa)
#
#
# Indices 1 2 3 4 5 6 
#
# 1 0.023642 -0.002795 -0.001046 0.000000 0.000000 0.000000
# 2 -0.002795 0.008770 -0.001972 0.000000 0.000000 0.000000
# 3 -0.001046 -0.001972 0.013308 0.000000 0.000000 0.000000
# 4 0.000000 0.000000 0.000000 -0.030768 0.000000 0.000000
# 5 0.000000 0.000000 0.000000 0.000000 -0.930269 0.000000
# 6 0.000000 0.000000 0.000000 0.000000 0.000000 0.046900
#
#
# Mechanical properties :
#
#
# Convention : Reuss Voigt Hill
#
# Bulk Modulus (GPa) = 29.33034 36.40110 32.86572
# Shear Modulus (GPa) = -5.91416 11.24852 2.66718
#
# Velocity S-wave (km/s) = -1.66166 2.29162 1.11589
# Velocity P-wave (km/s) = 3.16414 4.89861 4.12360
#
# Compressibility (1/GPa) = 0.03409439
#
# Stress axis : x y z
#
# Youngs Moduli (GPa) = 42.29751 114.02839 75.14518
#
# Poissons Ratio (x) = 0.31872 0.07857
# Poissons Ratio (y) = 0.11822 0.14818
# Poissons Ratio (z) = 0.04422 0.22485
#
# Static dielectric constant tensor:
#      x y z
#    x 1.812580 0.000000 0.000000 
#    y 0.000000 1.848780 0.000000 
#    z 0.000000 0.000000 1.721100 
# 
# From -- ./inp_files/29790.got.cif
#   From: 2010.05.17/outbox.cif.g08.bks.cpg/sg71_15_cif.got.tgz:29790.got - 2010.06.03 16:22:01.
