data_PCOD9518676
_publ_section_title
;
Structure prediction by ZEFSAII (Michael W. Deem and Ramdas Pophale) SiO2 
 PCOD9518676
Probable space group: I M M M
;
_chemical_formula_sum "Si O2"
_cell_formula_units_Z 104
_cell_length_a 8.967305
_cell_length_b 33.478555
_cell_length_c 25.006072
_cell_angle_alpha 90.000000
_cell_angle_beta 90.000000
_cell_angle_gamma 90.000000
_cell_volume 7507.133231
_symmetry_space_group_name_H-M "I M M M"
_symmetry_group_IT_number 71
_symmetry_cell_setting 'orthorhombic'
loop_
_space_group_symop_operation_xyz
x,y,z
-x,-y,z
x,-y,-z
-x,y,-z
-x,-y,-z
x,y,-z
-x,y,z
x,-y,z
1/2+x,1/2+y,1/2+z
1/2-x,1/2-y,1/2+z
1/2+x,1/2-y,1/2-z
1/2-x,1/2+y,1/2-z
1/2-x,1/2-y,1/2-z
1/2+x,1/2+y,1/2-z
1/2-x,1/2+y,1/2+z
1/2+x,1/2-y,1/2+z
loop_
_atom_site_type_symbol
_atom_site_label
_atom_site_fract_x
_atom_site_fract_y
_atom_site_fract_z
Si Si1 0.822123 0.881498 0.835492
Si Si2 0.322956 0.764991 0.667628
Si Si3 0.176687 0.830745 0.058934
Si Si4 0.677499 0.188777 0.224667
Si Si5 0.669386 0.548450 0.500000
Si Si6 0.322578 0.047073 0.887509
Si Si7 0.677863 0.256214 0.059711
O O1 0.788090 0.858791 0.891511
O O2 0.751200 0.853132 0.790670
O O3 0.750739 0.924893 0.842902
O O4 0.000000 0.883897 0.829539
O O5 0.500000 0.758571 0.663323
O O6 0.295270 0.797083 0.714474
O O7 0.248306 0.723721 0.687939
O O8 0.255897 0.776411 0.610384
O O9 0.268397 0.789846 0.061935
O O10 0.000000 0.821038 0.062183
O O11 0.203656 0.848873 0.000000
O O12 0.500000 0.187508 0.215575
O O13 0.661236 0.500000 0.500000
O O14 0.500000 0.564369 0.500000
O O15 0.753264 0.558477 0.445231
O O16 0.500000 0.052757 0.889023
O O17 0.292150 0.000000 0.878931
O O18 0.500000 0.258073 0.065202
O O19 0.718487 0.271044 0.000000
#
# Coordination Sequence:
#
# PCOD9518676 Si02
#       7
#    16  16  16  16   8  16  16
#     4  11  21  31  47  66  83 105 139 176 217 263
#     4  10  19  31  46  63  84 112 143 174 211 251
#     4   9  18  30  41  56  80 106 135 173 215 257
#     4  10  20  32  46  63  84 110 141 176 213 254
#     4   9  17  31  49  65  81 103 135 173 215 265
#     4  10  21  35  48  62  82 107 136 173 217 263
#     4  10  19  29  43  63  85 110 140 174 213 254
#
# _framework density 13.853490000000001
#
# number of rings (size 3 to 8) (size 9 to 14) (size 15 to 20)
#    0.000    2.077    1.538    2.538    1.077    5.231 
#    0.000    0.000    0.000    0.000    0.000    0.000 
#    0.000    0.000    0.000    0.000    0.000    0.769 
#
# Total GULP energy -290135.596996 kJ/mol
# GULP energy per Si atom -5579.530711 kJ/mol
# Density = 1.382196 g / cm^3
# Si number density = 13.853490 Si / 1000 Ang^3
#
#
#
# Elastic Constant Matrix: (Units=GPa)
#
#
# Indices 1 2 3 4 5 6 
#
# 1 64.4399 40.1928 47.7794 0.0000 0.0000 0.0000
# 2 40.1928 62.3644 35.2335 0.0000 0.0000 0.0000
# 3 47.7794 35.2335 92.2003 0.0000 0.0000 0.0000
# 4 0.0000 0.0000 0.0000 22.4880 0.0000 0.0000
# 5 0.0000 0.0000 0.0000 0.0000 22.4469 0.0000
# 6 0.0000 0.0000 0.0000 0.0000 0.0000 18.5599
#
#
#
# Elastic Compliance Matrix: (Units=1/GPa)
#
#
# Indices 1 2 3 4 5 6 
#
# 1 0.033511 -0.015031 -0.011622 0.000000 0.000000 0.000000
# 2 -0.015031 0.027192 -0.002602 0.000000 0.000000 0.000000
# 3 -0.011622 -0.002602 0.017863 0.000000 0.000000 0.000000
# 4 0.000000 0.000000 0.000000 0.044468 0.000000 0.000000
# 5 0.000000 0.000000 0.000000 0.000000 0.044550 0.000000
# 6 0.000000 0.000000 0.000000 0.000000 0.000000 0.053880
#
#
# Mechanical properties :
#
#
# Convention : Reuss Voigt Hill
#
# Bulk Modulus (GPa) = 49.86023 51.71289 50.78656
# Shear Modulus (GPa) = 17.44240 19.08554 18.26397
#
# Velocity S-wave (km/s) = 3.55218 3.71572 3.63487
# Velocity P-wave (km/s) = 7.27277 7.47116 7.37263
#
# Compressibility (1/GPa) = 0.02005607
#
# Stress axis : x y z
#
# Youngs Moduli (GPa) = 29.84122 36.77533 55.98261
#
# Poissons Ratio (x) = 0.55278 0.65061
# Poissons Ratio (y) = 0.44855 0.14566
# Poissons Ratio (z) = 0.34680 0.09568
#
# Static dielectric constant tensor:
#      x y z
#    x 1.460690 0.000000 0.000000 
#    y 0.000000 1.452190 0.000000 
#    z 0.000000 0.000000 1.472670 
# 
# From -- ./inp_files/58215.got.cif
#   From: 2010.05.17/outbox.cif.g08.bks.cpg/sg71_30_cif.got.tgz:58215.got - 2010.06.03 16:22:01.
