data_PCOD9518442
_publ_section_title
;
Structure prediction by ZEFSAII (Michael W. Deem and Ramdas Pophale) SiO2 
 PCOD9518442
Probable space group: I M M M
;
_chemical_formula_sum "Si O2"
_cell_formula_units_Z 72
_cell_length_a 15.010160
_cell_length_b 25.207248
_cell_length_c 10.206224
_cell_angle_alpha 90.000000
_cell_angle_beta 90.000000
_cell_angle_gamma 90.000000
_cell_volume 3861.676164
_symmetry_space_group_name_H-M "I M M M"
_symmetry_group_IT_number 71
_symmetry_cell_setting 'orthorhombic'
loop_
_space_group_symop_operation_xyz
x,y,z
-x,-y,z
x,-y,-z
-x,y,-z
-x,-y,-z
x,y,-z
-x,y,z
x,-y,z
1/2+x,1/2+y,1/2+z
1/2-x,1/2-y,1/2+z
1/2+x,1/2-y,1/2-z
1/2-x,1/2+y,1/2-z
1/2-x,1/2-y,1/2-z
1/2+x,1/2+y,1/2-z
1/2-x,1/2+y,1/2+z
1/2+x,1/2-y,1/2+z
loop_
_atom_site_type_symbol
_atom_site_label
_atom_site_fract_x
_atom_site_fract_y
_atom_site_fract_z
Si Si1 0.906935 0.589503 0.500000
Si Si2 0.706219 0.622126 0.773834
Si Si3 0.102584 0.063228 0.500000
Si Si4 0.105435 0.772881 0.345160
Si Si5 0.600019 0.843688 0.734874
Si Si6 0.212859 0.060283 0.000000
O O1 0.905657 0.627466 0.374908
O O2 0.819551 0.555336 0.500000
O O3 0.000000 0.559662 0.500000
O O4 0.653377 0.585786 0.874965
O O5 0.661431 0.679985 0.781398
O O6 0.809334 0.630302 0.819900
O O7 0.695384 0.594764 0.631208
O O8 0.000000 0.081661 0.500000
O O9 0.103706 0.000000 0.500000
O O10 0.129426 0.766746 0.500000
O O11 0.116962 0.718043 0.266692
O O12 0.000000 0.785568 0.341411
O O13 0.500000 0.849279 0.673886
O O14 0.174565 0.000000 0.000000
#
# Coordination Sequence:
#
# PCOD9518442 Si02
#       6
#     8  16   8  16  16   8
#     4   8  14  28  52  78 109 144 182 221 263 329
#     4  11  21  37  60  86 117 150 193 240 285 341
#     4  11  24  43  66  86 105 145 205 253 290 337
#     4  10  18  32  57  86 115 149 195 238 277 333
#     4   9  17  31  53  86 121 154 183 219 278 347
#     4  10  22  37  54  80 114 147 183 238 298 334
#
# _framework density 18.644752
#
# number of rings (size 3 to 8) (size 9 to 14) (size 15 to 20)
#    0.000    2.111    2.222    2.000    0.000    0.222 
#    0.000    2.778    0.000    9.333    0.000    0.000 
#    0.000    0.000    0.000    0.000    0.000    0.000 
#
# Total GULP energy -200526.325135 kJ/mol
# GULP energy per Si atom -5570.175698 kJ/mol
# Density = 1.860232 g / cm^3
# Si number density = 18.644752 Si / 1000 Ang^3
#
#
#
# Elastic Constant Matrix: (Units=GPa)
#
#
# Indices 1 2 3 4 5 6 
#
# 1 129.7480 49.3774 53.2678 0.0001 0.0000 0.0000
# 2 49.3774 97.9529 32.2233 -0.0001 0.0000 0.0000
# 3 53.2678 32.2233 84.4935 0.0006 0.0000 0.0000
# 4 0.0001 -0.0001 0.0006 -114.1319 0.0005 -0.0003
# 5 0.0000 0.0000 0.0000 0.0005 30.8058 0.0000
# 6 0.0000 0.0000 0.0000 -0.0003 0.0000 26.0222
#
#
#
# Elastic Compliance Matrix: (Units=1/GPa)
#
#
# Indices 1 2 3 4 5 6 
#
# 1 0.011587 -0.003931 -0.005806 0.000000 0.000000 0.000000
# 2 -0.003931 0.013007 -0.002482 0.000000 0.000000 0.000000
# 3 -0.005806 -0.002482 0.016442 0.000000 0.000000 0.000000
# 4 0.000000 0.000000 0.000000 -0.008762 0.000000 0.000000
# 5 0.000000 0.000000 0.000000 0.000000 0.032461 0.000000
# 6 0.000000 0.000000 0.000000 0.000000 0.000000 0.038429
#
#
# Mechanical properties :
#
#
# Convention : Reuss Voigt Hill
#
# Bulk Modulus (GPa) = 60.24759 64.65905 62.45332
# Shear Modulus (GPa) = 37.55602 0.36094 18.95848
#
# Velocity S-wave (km/s) = 4.49296 0.44046 3.19223
# Velocity P-wave (km/s) = 7.70059 5.91722 6.86704
#
# Compressibility (1/GPa) = 0.01659817
#
# Stress axis : x y z
#
# Youngs Moduli (GPa) = 86.30615 76.88082 60.82010
#
# Poissons Ratio (x) = 0.30221 0.35309
# Poissons Ratio (y) = 0.33926 0.15098
# Poissons Ratio (z) = 0.50105 0.19084
#
# Static dielectric constant tensor:
#      x y z
#    x 1.700690 0.000000 0.000000 
#    y 0.000000 1.638360 0.000000 
#    z 0.000000 0.000000 1.631240 
# 
# From -- ./inp_files/6124.got.cif
#   From: 2010.05.17/outbox.cif.g08.bks.cpg/sg71_4_cif.got.tgz:6124.got - 2010.06.03 16:22:01.
