data_PCOD9518283
_publ_section_title
;
Structure prediction by ZEFSAII (Michael W. Deem and Ramdas Pophale) SiO2 
 PCOD9518283
Probable space group: I M M M
;
_chemical_formula_sum "Si O2"
_cell_formula_units_Z 96
_cell_length_a 12.135677
_cell_length_b 29.198028
_cell_length_c 14.981860
_cell_angle_alpha 90.000000
_cell_angle_beta 90.000000
_cell_angle_gamma 90.000000
_cell_volume 5308.639864
_symmetry_space_group_name_H-M "I M M M"
_symmetry_group_IT_number 71
_symmetry_cell_setting 'orthorhombic'
loop_
_space_group_symop_operation_xyz
x,y,z
-x,-y,z
x,-y,-z
-x,y,-z
-x,-y,-z
x,y,-z
-x,y,z
x,-y,z
1/2+x,1/2+y,1/2+z
1/2-x,1/2-y,1/2+z
1/2+x,1/2-y,1/2-z
1/2-x,1/2+y,1/2-z
1/2-x,1/2-y,1/2-z
1/2+x,1/2+y,1/2-z
1/2-x,1/2+y,1/2+z
1/2+x,1/2-y,1/2+z
loop_
_atom_site_type_symbol
_atom_site_label
_atom_site_fract_x
_atom_site_fract_y
_atom_site_fract_z
Si Si1 0.131970 0.131313 0.395671
Si Si2 0.220553 0.885646 0.108256
Si Si3 0.378095 0.806755 0.897225
Si Si4 0.367884 0.447004 0.247144
Si Si5 0.500000 0.330109 0.393094
Si Si6 0.500000 0.227075 0.607601
Si Si7 0.755314 0.277904 0.158420
O O1 0.166204 0.127290 0.500000
O O2 0.157279 0.087016 0.335147
O O3 0.184943 0.176407 0.352267
O O4 0.000000 0.136825 0.394867
O O5 0.317359 0.851584 0.140943
O O6 0.203018 0.930640 0.167354
O O7 0.109600 0.857103 0.129250
O O8 0.225476 0.893117 0.000000
O O9 0.500000 0.797048 0.858497
O O10 0.300288 0.762162 0.900402
O O11 0.391933 0.819407 0.000000
O O12 0.500000 0.442868 0.266532
O O13 0.347040 0.500000 0.225701
O O14 0.500000 0.325448 0.500000
O O15 0.500000 0.279283 0.356227
O O16 0.500000 0.226440 0.500000
O O17 0.618555 0.208898 0.637649
O O18 0.750000 0.250000 0.250000
#
# Coordination Sequence:
#
# PCOD9518283 Si02
#       7
#    16  16  16  16   8   8  16
#     4  10  22  39  58  79 110 151 191 235 284 333
#     4  10  18  31  52  81 116 150 179 218 275 342
#     4  10  20  34  53  76 110 153 189 217 256 326
#     4  10  21  36  56  82 108 137 182 239 293 344
#     4   9  16  28  49  74 107 147 180 207 257 330
#     4  11  22  36  54  79 115 158 192 222 270 336
#     4  12  24  34  54  83 118 149 186 233 278 332
#
# _framework density 18.083727
#
# number of rings (size 3 to 8) (size 9 to 14) (size 15 to 20)
#    0.000    1.667    2.500    3.000    2.333    2.000 
#    0.000    2.500    0.000    0.500    0.000    2.333 
#    0.000    2.000    0.000    0.000    0.000    0.000 
#
# Total GULP energy -267506.475337 kJ/mol
# GULP energy per Si atom -5573.051570 kJ/mol
# Density = 1.804257 g / cm^3
# Si number density = 18.083727 Si / 1000 Ang^3
#
#
#
# Elastic Constant Matrix: (Units=GPa)
#
#
# Indices 1 2 3 4 5 6 
#
# 1 75.7464 26.9679 28.8033 0.0000 0.0000 0.0000
# 2 26.9679 132.6909 53.7129 0.0000 0.0000 0.0000
# 3 28.8033 53.7129 85.6734 -0.0002 0.0000 0.0000
# 4 0.0000 0.0000 -0.0002 22.7135 0.0000 0.0000
# 5 0.0000 0.0000 0.0000 0.0000 16.4013 0.0000
# 6 0.0000 0.0000 0.0000 0.0000 0.0000 21.2158
#
#
#
# Elastic Compliance Matrix: (Units=1/GPa)
#
#
# Indices 1 2 3 4 5 6 
#
# 1 0.015323 -0.001379 -0.004287 0.000000 0.000000 0.000000
# 2 -0.001379 0.010223 -0.005946 0.000000 0.000000 0.000000
# 3 -0.004287 -0.005946 0.016841 0.000000 0.000000 0.000000
# 4 0.000000 0.000000 0.000000 0.044027 0.000000 0.000000
# 5 0.000000 0.000000 0.000000 0.000000 0.060971 0.000000
# 6 0.000000 0.000000 0.000000 0.000000 0.000000 0.047135
#
#
# Mechanical properties :
#
#
# Convention : Reuss Voigt Hill
#
# Bulk Modulus (GPa) = 52.18126 57.00876 54.59501
# Shear Modulus (GPa) = 22.30828 24.37456 23.34142
#
# Velocity S-wave (km/s) = 3.51609 3.67532 3.59659
# Velocity P-wave (km/s) = 6.73809 7.04301 6.89224
#
# Compressibility (1/GPa) = 0.01916397
#
# Stress axis : x y z
#
# Youngs Moduli (GPa) = 65.26111 97.81396 59.37732
#
# Poissons Ratio (x) = 0.13487 0.25456
# Poissons Ratio (y) = 0.08998 0.35306
# Poissons Ratio (z) = 0.27978 0.58161
#
# Static dielectric constant tensor:
#      x y z
#    x 1.664270 0.000000 0.000000 
#    y 0.000000 1.601890 0.000000 
#    z 0.000000 0.000000 -3.502360 
# 
# From -- ./inp_files/33249.got.cif
#   From: 2010.05.17/outbox.cif.g08.bks.cpg/sg71_17_cif.got.tgz:33249.got - 2010.06.03 16:22:01.
