data_PCOD9518337
_publ_section_title
;
Structure prediction by ZEFSAII (Michael W. Deem and Ramdas Pophale) SiO2 
 PCOD9518337
Probable space group: I M M M
;
_chemical_formula_sum "Si O2"
_cell_formula_units_Z 72
_cell_length_a 19.988979
_cell_length_b 28.751843
_cell_length_c 7.540652
_cell_angle_alpha 90.000000
_cell_angle_beta 90.000000
_cell_angle_gamma 90.000000
_cell_volume 4333.763411
_symmetry_space_group_name_H-M "I M M M"
_symmetry_group_IT_number 71
_symmetry_cell_setting 'orthorhombic'
loop_
_space_group_symop_operation_xyz
x,y,z
-x,-y,z
x,-y,-z
-x,y,-z
-x,-y,-z
x,y,-z
-x,y,z
x,-y,z
1/2+x,1/2+y,1/2+z
1/2-x,1/2-y,1/2+z
1/2+x,1/2-y,1/2-z
1/2-x,1/2+y,1/2-z
1/2-x,1/2-y,1/2-z
1/2+x,1/2+y,1/2-z
1/2-x,1/2+y,1/2+z
1/2+x,1/2-y,1/2+z
loop_
_atom_site_type_symbol
_atom_site_label
_atom_site_fract_x
_atom_site_fract_y
_atom_site_fract_z
Si Si1 0.145980 0.270686 0.287816
Si Si2 0.000000 0.265325 0.704305
Si Si3 0.078169 0.000000 0.717832
Si Si4 0.777941 0.178142 0.713462
Si Si5 0.000000 0.842431 0.788070
Si Si6 0.631578 0.402047 0.208937
O O1 0.139554 0.265199 0.500000
O O2 0.177711 0.222023 0.219894
O O3 0.201432 0.309845 0.254825
O O4 0.071623 0.279541 0.216208
O O5 0.000000 0.209104 0.708804
O O6 0.000000 0.281547 0.500000
O O7 0.114469 0.046959 0.780369
O O8 0.077773 0.000000 0.500000
O O9 0.000000 0.000000 0.770679
O O10 0.784327 0.177921 0.500000
O O11 0.808407 0.129831 0.781419
O O12 0.934847 0.870816 0.729405
O O13 0.000000 0.838389 0.000000
O O14 0.644427 0.408633 0.000000
#
# Coordination Sequence:
#
# PCOD9518337 Si02
#       6
#    16   8   8  16   8  16
#     4   9  17  28  44  62  82 108 141 174 207 250
#     4  10  18  32  47  61  82 115 148 178 211 247
#     4   9  16  26  48  68  78 105 152 189 203 234
#     4   9  17  28  43  60  84 113 138 170 210 251
#     4  12  22  27  39  64  87 114 145 181 216 251
#     4  10  18  32  47  60  82 115 150 180 211 249
#
# _framework density 16.613735999999999
#
# number of rings (size 3 to 8) (size 9 to 14) (size 15 to 20)
#    0.000    2.333    3.333    1.000    0.000    1.778 
#    0.000    1.111    0.000    0.000    0.000    0.000 
#    0.000    0.889    0.000   11.111    0.000    0.889 
#
# Total GULP energy -200731.232645 kJ/mol
# GULP energy per Si atom -5575.867573 kJ/mol
# Density = 1.657592 g / cm^3
# Si number density = 16.613736 Si / 1000 Ang^3
#
#
#
# Elastic Constant Matrix: (Units=GPa)
#
#
# Indices 1 2 3 4 5 6 
#
# 1 157.6122 75.4085 -1.8064 0.0000 0.0000 0.0000
# 2 75.4085 98.8859 2.0736 0.0000 0.0000 0.0000
# 3 -1.8064 2.0736 43.0864 0.0000 0.0000 0.0000
# 4 0.0000 0.0000 0.0000 -2.6937 0.0000 0.0000
# 5 0.0000 0.0000 0.0000 0.0000 14.5955 0.0000
# 6 0.0000 0.0000 0.0000 0.0000 0.0000 -61.3486
#
#
#
# Elastic Compliance Matrix: (Units=1/GPa)
#
#
# Indices 1 2 3 4 5 6 
#
# 1 0.010016 -0.007655 0.000788 0.000000 0.000000 0.000000
# 2 -0.007655 0.015973 -0.001090 0.000000 0.000000 0.000000
# 3 0.000788 -0.001090 0.023295 0.000000 0.000000 0.000000
# 4 0.000000 0.000000 0.000000 -0.371240 0.000000 0.000000
# 5 0.000000 0.000000 0.000000 0.000000 0.068514 0.000000
# 6 0.000000 0.000000 0.000000 0.000000 0.000000 -0.016300
#
#
# Mechanical properties :
#
#
# Convention : Reuss Voigt Hill
#
# Bulk Modulus (GPa) = 29.96555 50.10400 40.03478
# Shear Modulus (GPa) = -20.60096 5.03790 -7.78153
#
# Velocity S-wave (km/s) = -3.52518 1.74326 -2.16656
# Velocity P-wave (km/s) = 1.22744 5.85454 4.22979
#
# Compressibility (1/GPa) = 0.03337165
#
# Stress axis : x y z
#
# Youngs Moduli (GPa) = 99.84056 62.60683 42.92826
#
# Poissons Ratio (x) = 0.47922 -0.03384
# Poissons Ratio (y) = 0.76423 0.04678
# Poissons Ratio (z) = -0.07871 0.06822
#
# Static dielectric constant tensor:
#      x y z
#    x 1.583740 0.000000 0.000000 
#    y 0.000000 1.552910 0.000000 
#    z 0.000000 0.000000 1.631710 
# 
# From -- ./inp_files/10698.got.cif
#   From: 2010.05.17/outbox.cif.g08.bks.cpg/sg71_6_cif.got.tgz:10698.got - 2010.06.03 16:22:01.
