data_PCOD9518826
_publ_section_title
;
Structure prediction by ZEFSAII (Michael W. Deem and Ramdas Pophale) SiO2 
 PCOD9518826
Probable space group: I M M M
;
_chemical_formula_sum "Si O2"
_cell_formula_units_Z 96
_cell_length_a 29.266679
_cell_length_b 7.973436
_cell_length_c 25.300132
_cell_angle_alpha 90.000000
_cell_angle_beta 90.000000
_cell_angle_gamma 90.000000
_cell_volume 5903.937399
_symmetry_space_group_name_H-M "I M M M"
_symmetry_group_IT_number 71
_symmetry_cell_setting 'orthorhombic'
loop_
_space_group_symop_operation_xyz
x,y,z
-x,-y,z
x,-y,-z
-x,y,-z
-x,-y,-z
x,y,-z
-x,y,z
x,-y,z
1/2+x,1/2+y,1/2+z
1/2-x,1/2-y,1/2+z
1/2+x,1/2-y,1/2-z
1/2-x,1/2+y,1/2-z
1/2-x,1/2-y,1/2-z
1/2+x,1/2+y,1/2-z
1/2-x,1/2+y,1/2+z
1/2+x,1/2-y,1/2+z
loop_
_atom_site_type_symbol
_atom_site_label
_atom_site_fract_x
_atom_site_fract_y
_atom_site_fract_z
Si Si1 0.697414 0.500000 0.935823
Si Si2 0.555290 0.307061 0.745122
Si Si3 0.133303 0.309046 0.436951
Si Si4 0.635788 0.687287 0.437038
Si Si5 0.052664 0.304664 0.129924
Si Si6 0.801845 0.500000 0.935717
Si Si7 0.053112 0.795838 0.361814
O O1 0.669506 0.666600 0.920306
O O2 0.749617 0.500000 0.916949
O O3 0.698849 0.500000 0.000000
O O4 0.500000 0.308444 0.747960
O O5 0.570488 0.500000 0.739387
O O6 0.566882 0.212308 0.691429
O O7 0.569246 0.242579 0.802875
O O8 0.125825 0.290388 0.500000
O O9 0.148994 0.500000 0.427499
O O10 0.086561 0.275729 0.405714
O O11 0.628115 0.706232 0.500000
O O12 0.654185 0.500000 0.427887
O O13 0.588236 0.708898 0.406523
O O14 0.670208 0.834146 0.419882
O O15 0.053578 0.500000 0.115006
O O16 0.000000 0.244591 0.125492
O O17 0.800572 0.500000 0.000000
O O18 0.000000 0.747434 0.369365
O O19 0.054670 0.000000 0.362788
#
# Coordination Sequence:
#
# PCOD9518826 Si02
#       7
#     8  16  16  16  16   8  16
#     4   9  18  34  53  71  97 127 156 204 256 291
#     4   8  15  28  45  66  93 126 166 207 238 274
#     4  10  20  32  48  73 102 130 165 201 239 295
#     4  10  20  33  50  73 101 130 163 200 241 293
#     4  10  19  30  46  69 101 136 167 200 238 282
#     4   9  18  34  53  73  97 123 158 206 252 293
#     4   9  17  30  48  69  99 136 168 201 242 284
#
# _framework density 16.260335000000001
#
# number of rings (size 3 to 8) (size 9 to 14) (size 15 to 20)
#    0.000    2.667    1.667    1.500    0.000    3.333 
#    0.000    8.333    0.000    0.000    0.000    1.167 
#    0.000    0.000    0.000    0.000    0.000    0.000 
#
# Total GULP energy -267359.326886 kJ/mol
# GULP energy per Si atom -5569.985977 kJ/mol
# Density = 1.622333 g / cm^3
# Si number density = 16.260335 Si / 1000 Ang^3
#
#
#
# Elastic Constant Matrix: (Units=GPa)
#
#
# Indices 1 2 3 4 5 6 
#
# 1 93.2564 54.8671 35.9954 0.0000 0.0000 0.0000
# 2 54.8671 100.5870 36.6994 0.0000 0.0000 0.0000
# 3 35.9954 36.6994 41.2991 0.0000 0.0000 0.0000
# 4 0.0000 0.0000 0.0000 20.0285 0.0000 0.0000
# 5 0.0000 0.0000 0.0000 0.0000 -2.6145 0.0000
# 6 0.0000 0.0000 0.0000 0.0000 0.0000 7.7315
#
#
#
# Elastic Compliance Matrix: (Units=1/GPa)
#
#
# Indices 1 2 3 4 5 6 
#
# 1 0.018456 -0.006212 -0.010566 0.000000 0.000000 0.000000
# 2 -0.006212 0.016802 -0.009516 0.000000 0.000000 0.000000
# 3 -0.010566 -0.009516 0.041879 0.000000 0.000000 0.000000
# 4 0.000000 0.000000 0.000000 0.049929 0.000000 0.000000
# 5 0.000000 0.000000 0.000000 0.000000 -0.382481 0.000000
# 6 0.000000 0.000000 0.000000 0.000000 0.000000 0.129341
#
#
# Mechanical properties :
#
#
# Convention : Reuss Voigt Hill
#
# Bulk Modulus (GPa) = 40.73533 54.47402 47.60467
# Shear Modulus (GPa) = -76.56777 12.20115 -32.18331
#
# Velocity S-wave (km/s) = -6.86956 2.74225 -4.45371
# Velocity P-wave (km/s) = 6.14938 6.60306 1.70082
#
# Compressibility (1/GPa) = 0.02454871
#
# Stress axis : x y z
#
# Youngs Moduli (GPa) = 54.18189 59.51518 23.87840
#
# Poissons Ratio (x) = 0.36974 0.25229
# Poissons Ratio (y) = 0.33660 0.22724
# Poissons Ratio (z) = 0.57246 0.56637
#
# Static dielectric constant tensor:
#      x y z
#    x 1.518430 0.000000 0.000000 
#    y 0.000000 1.582170 0.000000 
#    z 0.000000 0.000000 1.542930 
# 
# From -- ./inp_files/61898.got.cif
#   From: 2010.05.17/outbox.cif.g08.bks.cpg/sg71_31_cif.got.tgz:61898.got - 2010.06.03 16:22:01.
