data_PCOD9518703
_publ_section_title
;
Structure prediction by ZEFSAII (Michael W. Deem and Ramdas Pophale) SiO2 
 PCOD9518703
Probable space group: I M M M
;
_chemical_formula_sum "Si O2"
_cell_formula_units_Z 80
_cell_length_a 27.350033
_cell_length_b 13.861702
_cell_length_c 14.262526
_cell_angle_alpha 90.000000
_cell_angle_beta 90.000000
_cell_angle_gamma 90.000000
_cell_volume 5407.180434
_symmetry_space_group_name_H-M "I M M M"
_symmetry_group_IT_number 71
_symmetry_cell_setting 'orthorhombic'
loop_
_space_group_symop_operation_xyz
x,y,z
-x,-y,z
x,-y,-z
-x,y,-z
-x,-y,-z
x,y,-z
-x,y,z
x,-y,z
1/2+x,1/2+y,1/2+z
1/2-x,1/2-y,1/2+z
1/2+x,1/2-y,1/2-z
1/2-x,1/2+y,1/2-z
1/2-x,1/2-y,1/2-z
1/2+x,1/2+y,1/2-z
1/2-x,1/2+y,1/2+z
1/2+x,1/2-y,1/2+z
loop_
_atom_site_type_symbol
_atom_site_label
_atom_site_fract_x
_atom_site_fract_y
_atom_site_fract_z
Si Si1 0.445948 0.116867 0.795516
Si Si2 0.249475 0.385770 0.723924
Si Si3 0.652487 0.116855 0.105635
Si Si4 0.208432 0.722305 0.890270
Si Si5 0.105432 0.613570 0.105795
O O1 0.500000 0.152543 0.820864
O O2 0.399901 0.151420 0.856475
O O3 0.432500 0.137494 0.687448
O O4 0.447015 0.000000 0.804656
O O5 0.257156 0.500000 0.720633
O O6 0.197165 0.361685 0.674740
O O7 0.244191 0.346450 0.829490
O O8 0.287802 0.324547 0.663000
O O9 0.650081 0.000000 0.103320
O O10 0.662060 0.150614 0.000000
O O11 0.154621 0.675518 0.884817
O O12 0.221259 0.730275 0.000000
O O13 0.118839 0.500000 0.118115
O O14 0.086252 0.624920 0.000000
#
# Coordination Sequence:
#
# PCOD9518703 Si02
#       5
#    16  16  16  16  16
#     4   9  16  25  37  55  79 107 141 177 210 248
#     4  10  19  31  45  63  89 118 146 177 214 255
#     4   9  16  26  39  54  77 110 142 170 204 246
#     4  10  19  29  45  66  85 113 150 180 211 256
#     4   9  16  27  42  59  83 113 142 173 211 254
#
# _framework density 14.795142
#
# number of rings (size 3 to 8) (size 9 to 14) (size 15 to 20)
#    0.000    2.600    2.000    1.200    0.000    3.200 
#    0.000    4.000    0.000    0.000    0.000    0.000 
#    0.000    0.800    0.000    4.400    0.000   11.600 
#
# Total GULP energy -222677.171106 kJ/mol
# GULP energy per Si atom -5566.929278 kJ/mol
# Density = 1.476147 g / cm^3
# Si number density = 14.795142 Si / 1000 Ang^3
#
#
#
# Elastic Constant Matrix: (Units=GPa)
#
#
# Indices 1 2 3 4 5 6 
#
# 1 28.3840 5.7891 -6.5518 0.0000 0.0000 0.0000
# 2 5.7891 49.6008 11.4092 0.0000 0.0000 0.0000
# 3 -6.5518 11.4092 58.5495 0.0000 0.0000 0.0000
# 4 0.0000 0.0000 0.0000 14.5849 0.0000 0.0000
# 5 0.0000 0.0000 0.0000 0.0000 12.2516 0.0000
# 6 0.0000 0.0000 0.0000 0.0000 0.0000 11.8391
#
#
#
# Elastic Compliance Matrix: (Units=1/GPa)
#
#
# Indices 1 2 3 4 5 6 
#
# 1 0.037598 -0.005607 0.005300 0.000000 0.000000 0.000000
# 2 -0.005607 0.021943 -0.004903 0.000000 0.000000 0.000000
# 3 0.005300 -0.004903 0.018628 0.000000 0.000000 0.000000
# 4 0.000000 0.000000 0.000000 0.068564 0.000000 0.000000
# 5 0.000000 0.000000 0.000000 0.000000 0.081622 0.000000
# 6 0.000000 0.000000 0.000000 0.000000 0.000000 0.084466
#
#
# Mechanical properties :
#
#
# Convention : Reuss Voigt Hill
#
# Bulk Modulus (GPa) = 14.76060 17.53639 16.14849
# Shear Modulus (GPa) = 14.45813 16.12763 15.29288
#
# Velocity S-wave (km/s) = 3.12945 3.30519 3.21852
# Velocity P-wave (km/s) = 4.80169 5.14240 4.97496
#
# Compressibility (1/GPa) = 0.06774793
#
# Stress axis : x y z
#
# Youngs Moduli (GPa) = 26.59707 45.57198 53.68219
#
# Poissons Ratio (x) = 0.25554 -0.28451
# Poissons Ratio (y) = 0.14914 0.26323
# Poissons Ratio (z) = -0.14096 0.22346
#
# Static dielectric constant tensor:
#      x y z
#    x 1.493090 0.000000 0.000000 
#    y 0.000000 1.475650 0.000000 
#    z 0.000000 0.000000 1.528380 
# 
# From -- ./inp_files/21866.got.cif
#   From: 2010.05.17/outbox.cif.g08.bks.cpg/sg71_11_cif.got.tgz:21866.got - 2010.06.03 16:22:01.
