data_PCOD9518002
_publ_section_title
;
Structure prediction by ZEFSAII (Michael W. Deem and Ramdas Pophale) SiO2 
 PCOD9518002
Probable space group: I M M M
;
_chemical_formula_sum "Si O2"
_cell_formula_units_Z 104
_cell_length_a 21.236422
_cell_length_b 8.611096
_cell_length_c 33.046992
_cell_angle_alpha 90.000000
_cell_angle_beta 90.000000
_cell_angle_gamma 90.000000
_cell_volume 6043.266036
_symmetry_space_group_name_H-M "I M M M"
_symmetry_group_IT_number 71
_symmetry_cell_setting 'orthorhombic'
loop_
_space_group_symop_operation_xyz
x,y,z
-x,-y,z
x,-y,-z
-x,y,-z
-x,-y,-z
x,y,-z
-x,y,z
x,-y,z
1/2+x,1/2+y,1/2+z
1/2-x,1/2-y,1/2+z
1/2+x,1/2-y,1/2-z
1/2-x,1/2+y,1/2-z
1/2-x,1/2-y,1/2-z
1/2+x,1/2+y,1/2-z
1/2-x,1/2+y,1/2+z
1/2+x,1/2-y,1/2+z
loop_
_atom_site_type_symbol
_atom_site_label
_atom_site_fract_x
_atom_site_fract_y
_atom_site_fract_z
Si Si1 0.820868 0.815401 0.343194
Si Si2 0.071536 0.185581 0.806137
Si Si3 0.838243 0.686095 0.430199
Si Si4 0.704340 0.812340 0.544875
Si Si5 0.430328 0.810841 0.000000
Si Si6 0.321139 0.187413 0.635857
Si Si7 0.428125 0.185959 0.215758
O O1 0.844847 0.769301 0.387530
O O2 0.747106 0.762607 0.345609
O O3 0.870070 0.745887 0.311222
O O4 0.819918 0.000000 0.337745
O O5 0.122824 0.245862 0.837541
O O6 0.081359 0.257900 0.761759
O O7 0.000000 0.225921 0.818844
O O8 0.075897 0.000000 0.802731
O O9 0.838286 0.500000 0.424689
O O10 0.773100 0.737609 0.450766
O O11 0.893106 0.734366 0.460207
O O12 0.678099 0.770664 0.500000
O O13 0.673052 0.768049 0.588110
O O14 0.709809 0.000000 0.545669
O O15 0.500000 0.749785 0.000000
O O16 0.431467 0.000000 0.000000
O O17 0.322261 0.000000 0.637471
O O18 0.500000 0.237000 0.203552
O O19 0.427642 0.000000 0.214383
#
# Coordination Sequence:
#
# PCOD9518002 Si02
#       7
#    16  16  16  16   8  16  16
#     4  10  21  36  53  77 108 139 174 220 268 312
#     4  10  21  37  57  80 106 137 172 213 262 317
#     4  10  18  30  48  70  96 131 174 217 262 309
#     4   9  17  31  52  75 103 135 168 212 261 308
#     4   9  18  30  43  63  93 129 170 215 258 301
#     4   9  19  34  53  80 108 138 176 216 262 313
#     4  10  21  37  57  79 103 138 181 219 261 316
#
# _framework density 17.209237999999999
#
# number of rings (size 3 to 8) (size 9 to 14) (size 15 to 20)
#    0.000    2.385    0.769    2.769    0.000    6.154 
#    0.000    1.538    0.000    3.692    0.000    3.231 
#    0.000    0.000    0.000    0.000    0.000    0.000 
#
# Total GULP energy -289707.054453 kJ/mol
# GULP energy per Si atom -5571.289509 kJ/mol
# Density = 1.717007 g / cm^3
# Si number density = 17.209238 Si / 1000 Ang^3
#
#
#
# Elastic Constant Matrix: (Units=GPa)
#
#
# Indices 1 2 3 4 5 6 
#
# 1 123.2932 33.5436 97.8586 0.0000 0.0000 0.0000
# 2 33.5436 21.0980 32.8137 0.0000 0.0000 0.0000
# 3 97.8586 32.8137 127.0833 0.0000 0.0000 0.0000
# 4 0.0000 0.0000 0.0000 27.5022 0.0000 0.0000
# 5 0.0000 0.0000 0.0000 0.0000 26.7244 0.0000
# 6 0.0000 0.0000 0.0000 0.0000 0.0000 21.9335
#
#
#
# Elastic Compliance Matrix: (Units=1/GPa)
#
#
# Indices 1 2 3 4 5 6 
#
# 1 0.023522 -0.015419 -0.014131 0.000000 0.000000 0.000000
# 2 -0.015419 0.089313 -0.011188 0.000000 0.000000 0.000000
# 3 -0.014131 -0.011188 0.021639 0.000000 0.000000 0.000000
# 4 0.000000 0.000000 0.000000 0.036361 0.000000 0.000000
# 5 0.000000 0.000000 0.000000 0.000000 0.037419 0.000000
# 6 0.000000 0.000000 0.000000 0.000000 0.000000 0.045592
#
#
# Mechanical properties :
#
#
# Convention : Reuss Voigt Hill
#
# Bulk Modulus (GPa) = 18.86882 66.65625 42.76254
# Shear Modulus (GPa) = 14.16478 22.38261 18.27369
#
# Velocity S-wave (km/s) = 2.87207 3.61032 3.26214
# Velocity P-wave (km/s) = 4.68898 7.49641 6.25231
#
# Compressibility (1/GPa) = 0.05299748
#
# Stress axis : x y z
#
# Youngs Moduli (GPa) = 42.51379 11.19660 46.21191
#
# Poissons Ratio (x) = 0.17263 0.65304
# Poissons Ratio (y) = 0.65550 0.51703
# Poissons Ratio (z) = 0.60078 0.12527
#
# Static dielectric constant tensor:
#      x y z
#    x 1.582920 0.000000 0.000000 
#    y 0.000000 1.581880 0.000000 
#    z 0.000000 0.000000 1.588560 
# 
# From -- ./inp_files/11547.got.cif
#   From: 2010.05.17/outbox.cif.g08.bks.cpg/sg71_6_cif.got.tgz:11547.got - 2010.06.03 16:22:01.
