data_PCOD9518621
_publ_section_title
;
Structure prediction by ZEFSAII (Michael W. Deem and Ramdas Pophale) SiO2 
 PCOD9518621
Probable space group: I M M M
;
_chemical_formula_sum "Si O2"
_cell_formula_units_Z 90
_cell_length_a 19.561622
_cell_length_b 30.695449
_cell_length_c 7.369034
_cell_angle_alpha 90.000000
_cell_angle_beta 90.000000
_cell_angle_gamma 90.000000
_cell_volume 4424.756881
_symmetry_space_group_name_H-M "I M M M"
_symmetry_group_IT_number 71
_symmetry_cell_setting 'orthorhombic'
loop_
_space_group_symop_operation_xyz
x,y,z
-x,-y,z
x,-y,-z
-x,y,-z
-x,-y,-z
x,y,-z
-x,y,z
x,-y,z
1/2+x,1/2+y,1/2+z
1/2-x,1/2-y,1/2+z
1/2+x,1/2-y,1/2-z
1/2-x,1/2+y,1/2-z
1/2-x,1/2-y,1/2-z
1/2+x,1/2+y,1/2-z
1/2-x,1/2+y,1/2+z
1/2+x,1/2-y,1/2+z
loop_
_atom_site_type_symbol
_atom_site_label
_atom_site_fract_x
_atom_site_fract_y
_atom_site_fract_z
Si Si1 0.000000 0.000000 0.500000
Si Si2 0.500000 0.898975 0.280203
Si Si3 0.352036 0.770388 0.779908
Si Si4 0.716920 0.584991 0.221971
Si Si5 0.864976 0.449798 0.779259
Si Si6 0.358500 0.500000 0.201640
Si Si7 0.000000 0.702869 0.710800
Si Si8 0.716045 0.681557 0.212464
O O1 0.938543 0.000000 0.655693
O O2 0.500000 0.899379 0.500000
O O3 0.431719 0.923690 0.219188
O O4 0.500000 0.849165 0.221357
O O5 0.428144 0.780185 0.713164
O O6 0.323632 0.723743 0.713369
O O7 0.296390 0.806820 0.727561
O O8 0.352327 0.770173 0.000000
O O9 0.793954 0.572330 0.274567
O O10 0.667852 0.545441 0.282435
O O11 0.700513 0.633741 0.287278
O O12 0.714158 0.587386 0.000000
O O13 0.866794 0.500000 0.720901
O O14 0.865817 0.449904 0.000000
O O15 0.323509 0.500000 0.000000
O O16 0.000000 0.716275 0.500000
O O17 0.698661 0.680373 0.000000
#
# Coordination Sequence:
#
# PCOD9518621 Si02
#       8
#     2   8  16  16  16   8   8  16
#     4   8  16  24  36  52  88 130 146 160 208 292
#     4  10  19  28  42  67  91 110 154 195 220 247
#     4   9  18  32  46  63  89 122 152 188 229 270
#     4   9  14  23  40  60  85 113 144 175 219 263
#     4   9  15  23  37  60  88 117 136 177 223 262
#     4   8  14  24  36  55  87 119 143 166 211 269
#     4  10  20  33  46  59  88 128 155 177 225 283
#     4   9  17  29  48  70  89 111 152 194 224 264
#
# _framework density 20.3401
#
# number of rings (size 3 to 8) (size 9 to 14) (size 15 to 20)
#    0.267    2.667    0.889    1.333    0.000    3.200 
#    0.000    0.889    1.956    1.067    0.000    0.622 
#    0.000    0.000    0.000    0.800    0.000    0.178 
#
# Total GULP energy -250680.692649 kJ/mol
# GULP energy per Si atom -5570.682059 kJ/mol
# Density = 2.029381 g / cm^3
# Si number density = 20.340100 Si / 1000 Ang^3
#
#
#
# Elastic Constant Matrix: (Units=GPa)
#
#
# Indices 1 2 3 4 5 6 
#
# 1 97.5262 68.3736 -7.7603 -0.0001 -0.0001 0.0009
# 2 68.3736 160.2215 -3.4513 0.0000 0.0000 0.0003
# 3 -7.7603 -3.4513 68.1915 -0.0005 -0.0010 -0.0009
# 4 -0.0001 0.0000 -0.0005 0.2206 -0.0001 0.0006
# 5 -0.0001 0.0000 -0.0010 -0.0001 2.0146 -0.0003
# 6 0.0009 0.0003 -0.0009 0.0006 -0.0003 91.3772
#
#
#
# Elastic Compliance Matrix: (Units=1/GPa)
#
#
# Indices 1 2 3 4 5 6 
#
# 1 0.014756 -0.006268 0.001362 0.000008 0.000002 0.000000
# 2 -0.006268 0.008910 -0.000262 -0.000003 -0.000001 0.000000
# 3 0.001362 -0.000262 0.014806 0.000034 0.000008 0.000000
# 4 0.000008 -0.000003 0.000034 4.532763 0.000337 -0.000028
# 5 0.000002 -0.000001 0.000008 0.000337 0.496372 0.000002
# 6 0.000000 0.000000 0.000000 -0.000028 0.000002 0.010944
#
#
# Mechanical properties :
#
#
# Convention : Reuss Voigt Hill
#
# Bulk Modulus (GPa) = 35.54050 48.91812 42.22931
# Shear Modulus (GPa) = 0.98073 36.64097 18.81085
#
# Velocity S-wave (km/s) = 0.69513 4.24891 3.04438
# Velocity P-wave (km/s) = 4.26091 6.94070 5.75885
#
# Compressibility (1/GPa) = 0.02813691
#
# Stress axis : x y z
#
# Youngs Moduli (GPa) = 67.76785 112.22765 67.53880
#
# Poissons Ratio (x) = 0.70342 -0.09199
# Poissons Ratio (y) = 0.42476 0.01772
# Poissons Ratio (z) = -0.09230 0.02944
#
# Static dielectric constant tensor:
#      x y z
#    x 1.683620 0.000000 0.000000 
#    y 0.000000 1.721360 0.000000 
#    z 0.000000 0.000000 1.827490 
# 
# From -- ./inp_files/11432.got.cif
#   From: 2010.05.17/outbox.cif.g08.bks.cpg/sg71_6_cif.got.tgz:11432.got - 2010.06.03 16:22:01.
