data_PCOD9518533
_publ_section_title
;
Structure prediction by ZEFSAII (Michael W. Deem and Ramdas Pophale) SiO2 
 PCOD9518533
Probable space group: I M M M
;
_chemical_formula_sum "Si O2"
_cell_formula_units_Z 88
_cell_length_a 18.753237
_cell_length_b 13.653238
_cell_length_c 19.023717
_cell_angle_alpha 90.000000
_cell_angle_beta 90.000000
_cell_angle_gamma 90.000000
_cell_volume 4870.878310
_symmetry_space_group_name_H-M "I M M M"
_symmetry_group_IT_number 71
_symmetry_cell_setting 'orthorhombic'
loop_
_space_group_symop_operation_xyz
x,y,z
-x,-y,z
x,-y,-z
-x,y,-z
-x,-y,-z
x,y,-z
-x,y,z
x,-y,z
1/2+x,1/2+y,1/2+z
1/2-x,1/2-y,1/2+z
1/2+x,1/2-y,1/2-z
1/2-x,1/2+y,1/2-z
1/2-x,1/2-y,1/2-z
1/2+x,1/2+y,1/2-z
1/2-x,1/2+y,1/2+z
1/2+x,1/2-y,1/2+z
loop_
_atom_site_type_symbol
_atom_site_label
_atom_site_fract_x
_atom_site_fract_y
_atom_site_fract_z
Si Si1 0.349306 0.696685 0.145238
Si Si2 0.208834 0.889165 0.788318
Si Si3 0.700872 0.258197 0.580133
Si Si4 0.585124 0.500000 0.918730
Si Si5 0.420054 0.884428 0.632190
Si Si6 0.381032 0.889488 0.205804
O O1 0.320818 0.672475 0.223517
O O2 0.279700 0.717416 0.097919
O O3 0.387645 0.599832 0.117289
O O4 0.394277 0.797359 0.154435
O O5 0.187927 0.842174 0.862277
O O6 0.294909 0.890624 0.785308
O O7 0.183130 0.000000 0.781663
O O8 0.697792 0.291649 0.500000
O O9 0.641730 0.175807 0.594746
O O10 0.500000 0.500000 0.916602
O O11 0.608938 0.500000 0.000000
O O12 0.500000 0.854690 0.610880
O O13 0.412683 0.872389 0.716699
O O14 0.411446 0.000000 0.618154
O O15 0.402040 0.000000 0.182572
#
# Coordination Sequence:
#
# PCOD9518533 Si02
#       6
#    16  16  16   8  16  16
#     4  11  19  37  61  87 109 148 197 234 282 346
#     4  10  18  34  58  83 110 144 192 242 279 330
#     4  11  22  35  54  82 113 151 192 232 283 341
#     4  11  26  42  58  88 122 146 178 240 307 354
#     4  10  20  33  50  77 113 147 182 229 280 332
#     4   9  17  32  56  84 114 143 183 238 283 318
#
# _framework density 18.066557
#
# number of rings (size 3 to 8) (size 9 to 14) (size 15 to 20)
#    0.000    1.727    4.545    1.636    1.273    1.818 
#    0.000    0.909    0.000    1.636    0.000    2.545 
#    0.000    0.000    0.000    0.000    0.000    0.000 
#
# Total GULP energy -245482.033741 kJ/mol
# GULP energy per Si atom -5579.137130 kJ/mol
# Density = 1.802544 g / cm^3
# Si number density = 18.066557 Si / 1000 Ang^3
#
#
#
# Elastic Constant Matrix: (Units=GPa)
#
#
# Indices 1 2 3 4 5 6 
#
# 1 21.4152 4.6203 10.0760 0.0000 0.0000 0.0000
# 2 4.6203 104.5580 25.0703 0.0000 0.0000 0.0000
# 3 10.0760 25.0703 90.3177 0.0000 0.0000 0.0000
# 4 0.0000 0.0000 0.0000 21.0008 0.0000 0.0000
# 5 0.0000 0.0000 0.0000 0.0000 5.6448 0.0000
# 6 0.0000 0.0000 0.0000 0.0000 0.0000 14.1920
#
#
#
# Elastic Compliance Matrix: (Units=1/GPa)
#
#
# Indices 1 2 3 4 5 6 
#
# 1 0.049366 -0.000922 -0.005251 0.000000 0.000000 0.000000
# 2 -0.000922 0.010263 -0.002746 0.000000 0.000000 0.000000
# 3 -0.005251 -0.002746 0.012420 0.000000 0.000000 0.000000
# 4 0.000000 0.000000 0.000000 0.047617 0.000000 0.000000
# 5 0.000000 0.000000 0.000000 0.000000 0.177155 0.000000
# 6 0.000000 0.000000 0.000000 0.000000 0.000000 0.070462
#
#
# Mechanical properties :
#
#
# Convention : Reuss Voigt Hill
#
# Bulk Modulus (GPa) = 18.44685 32.86934 25.65809
# Shear Modulus (GPa) = 12.40102 19.93580 16.16841
#
# Velocity S-wave (km/s) = 2.62278 3.32545 2.99479
# Velocity P-wave (km/s) = 4.40507 5.74263 5.11773
#
# Compressibility (1/GPa) = 0.05420981
#
# Stress axis : x y z
#
# Youngs Moduli (GPa) = 20.25702 97.43518 80.51468
#
# Poissons Ratio (x) = 0.08986 0.42281
# Poissons Ratio (y) = 0.01868 0.22109
# Poissons Ratio (z) = 0.10638 0.26755
#
# Static dielectric constant tensor:
#      x y z
#    x 1.611980 0.000000 0.000000 
#    y 0.000000 1.657710 0.000000 
#    z 0.000000 0.000000 1.607010 
# 
# From -- ./inp_files/36404.got.cif
#   From: 2010.05.17/outbox.cif.g08.bks.cpg/sg71_19_cif.got.tgz:36404.got - 2010.06.03 16:22:01.
