data_PCOD9518910
_publ_section_title
;
Structure prediction by ZEFSAII (Michael W. Deem and Ramdas Pophale) SiO2 
 PCOD9518910
Probable space group: I M M M
;
_chemical_formula_sum "Si O2"
_cell_formula_units_Z 96
_cell_length_a 7.599272
_cell_length_b 25.848618
_cell_length_c 24.597949
_cell_angle_alpha 90.000000
_cell_angle_beta 90.000000
_cell_angle_gamma 90.000000
_cell_volume 4831.791824
_symmetry_space_group_name_H-M "I M M M"
_symmetry_group_IT_number 71
_symmetry_cell_setting 'orthorhombic'
loop_
_space_group_symop_operation_xyz
x,y,z
-x,-y,z
x,-y,-z
-x,y,-z
-x,-y,-z
x,y,-z
-x,y,z
x,-y,z
1/2+x,1/2+y,1/2+z
1/2-x,1/2-y,1/2+z
1/2+x,1/2-y,1/2-z
1/2-x,1/2+y,1/2-z
1/2-x,1/2-y,1/2-z
1/2+x,1/2+y,1/2-z
1/2-x,1/2+y,1/2+z
1/2+x,1/2-y,1/2+z
loop_
_atom_site_type_symbol
_atom_site_label
_atom_site_fract_x
_atom_site_fract_y
_atom_site_fract_z
Si Si1 0.214433 0.940643 0.561616
Si Si2 0.211313 0.189023 0.245170
Si Si3 0.715999 0.348675 0.139118
Si Si4 0.293657 0.340851 0.626935
Si Si5 0.706173 0.741951 0.060497
Si Si6 0.287593 0.941434 0.938172
O O1 0.267595 0.925483 0.500000
O O2 0.271943 0.900190 0.607233
O O3 0.000000 0.940330 0.561785
O O4 0.269571 0.000000 0.571046
O O5 0.250000 0.250000 0.250000
O O6 0.276204 0.159656 0.299077
O O7 0.279431 0.168024 0.187518
O O8 0.000000 0.183156 0.244933
O O9 0.500000 0.348800 0.140301
O O10 0.776871 0.299577 0.103394
O O11 0.500000 0.329248 0.629096
O O12 0.217345 0.299071 0.585214
O O13 0.269689 0.398091 0.603852
O O14 0.500000 0.729163 0.055735
O O15 0.783356 0.739147 0.000000
O O16 0.500000 0.941543 0.938747
O O17 0.229486 0.000000 0.925468
O O18 0.229333 0.928994 0.000000
#
# Coordination Sequence:
#
# PCOD9518910 Si02
#       6
#    16  16  16  16  16  16
#     4   8  13  22  39  65  95 123 151 190 243 294
#     4  10  20  34  50  69  96 134 174 205 244 296
#     4   9  16  28  45  65  92 126 166 205 241 284
#     4  11  22  33  48  74 105 133 165 204 254 309
#     4  10  19  30  48  72  96 127 167 208 250 299
#     4   9  19  37  59  79  99 129 171 212 250 300
#
# _framework density 19.868404000000002
#
# number of rings (size 3 to 8) (size 9 to 14) (size 15 to 20)
#    0.000    2.500    1.667    2.500    0.000    5.667 
#    0.000    1.667    0.000    3.000    0.000    0.000 
#    0.000    2.000    0.000    9.167    0.000    8.333 
#
# Total GULP energy -267876.792655 kJ/mol
# GULP energy per Si atom -5580.766514 kJ/mol
# Density = 1.982318 g / cm^3
# Si number density = 19.868404 Si / 1000 Ang^3
#
#
#
# Elastic Constant Matrix: (Units=GPa)
#
#
# Indices 1 2 3 4 5 6 
#
# 1 38.9136 -14.2417 -1.7909 0.0000 0.0000 0.0000
# 2 -14.2417 93.8067 62.7596 0.0000 0.0000 0.0000
# 3 -1.7909 62.7596 147.6271 0.0000 0.0000 0.0000
# 4 0.0000 0.0000 0.0000 23.8561 0.0000 0.0000
# 5 0.0000 0.0000 0.0000 0.0000 9.5285 0.0000
# 6 0.0000 0.0000 0.0000 0.0000 0.0000 -1.4111
#
#
#
# Elastic Compliance Matrix: (Units=1/GPa)
#
#
# Indices 1 2 3 4 5 6 
#
# 1 0.027636 0.005550 -0.002024 0.000000 0.000000 0.000000
# 2 0.005550 0.016012 -0.006740 0.000000 0.000000 0.000000
# 3 -0.002024 -0.006740 0.009614 0.000000 0.000000 0.000000
# 4 0.000000 0.000000 0.000000 0.041918 0.000000 0.000000
# 5 0.000000 0.000000 0.000000 0.000000 0.104948 0.000000
# 6 0.000000 0.000000 0.000000 0.000000 0.000000 -0.708680
#
#
# Mechanical properties :
#
#
# Convention : Reuss Voigt Hill
#
# Bulk Modulus (GPa) = 21.35180 41.53346 31.44263
# Shear Modulus (GPa) = -10.27723 21.96941 5.84609
#
# Velocity S-wave (km/s) = -2.27681 3.32888 1.71721
# Velocity P-wave (km/s) = 1.96420 5.97703 4.44877
#
# Compressibility (1/GPa) = 0.04683447
#
# Stress axis : x y z
#
# Youngs Moduli (GPa) = 36.18474 62.45373 104.01005
#
# Poissons Ratio (x) = -0.34661 0.21053
# Poissons Ratio (y) = -0.20082 0.70099
# Poissons Ratio (z) = 0.07324 0.42092
#
# Static dielectric constant tensor:
#      x y z
#    x 1.789670 0.000000 0.000000 
#    y 0.000000 1.663320 0.000000 
#    z 0.000000 0.000000 1.705670 
# 
# From -- ./inp_files/12874.got.cif
#   From: 2010.05.17/outbox.cif.g08.bks.cpg/sg71_7_cif.got.tgz:12874.got - 2010.06.03 16:22:01.
