data_PCOD9518903
_publ_section_title
;
Structure prediction by ZEFSAII (Michael W. Deem and Ramdas Pophale) SiO2 
 PCOD9518903
Probable space group: I M M M
;
_chemical_formula_sum "Si O2"
_cell_formula_units_Z 72
_cell_length_a 9.492601
_cell_length_b 18.556491
_cell_length_c 19.369511
_cell_angle_alpha 90.000000
_cell_angle_beta 90.000000
_cell_angle_gamma 90.000000
_cell_volume 3411.927063
_symmetry_space_group_name_H-M "I M M M"
_symmetry_group_IT_number 71
_symmetry_cell_setting 'orthorhombic'
loop_
_space_group_symop_operation_xyz
x,y,z
-x,-y,z
x,-y,-z
-x,y,-z
-x,-y,-z
x,y,-z
-x,y,z
x,-y,z
1/2+x,1/2+y,1/2+z
1/2-x,1/2-y,1/2+z
1/2+x,1/2-y,1/2-z
1/2-x,1/2+y,1/2-z
1/2-x,1/2-y,1/2-z
1/2+x,1/2+y,1/2-z
1/2-x,1/2+y,1/2+z
1/2+x,1/2-y,1/2+z
loop_
_atom_site_type_symbol
_atom_site_label
_atom_site_fract_x
_atom_site_fract_y
_atom_site_fract_z
Si Si1 0.329449 0.583758 0.000000
Si Si2 0.339871 0.500000 0.399658
Si Si3 0.662176 0.860866 0.103444
Si Si4 0.839413 0.000000 0.732170
Si Si5 0.830940 0.797836 0.613519
Si Si6 0.664204 0.140183 0.729752
O O1 0.291436 0.634338 0.065386
O O2 0.279410 0.500000 0.000000
O O3 0.500000 0.580367 0.000000
O O4 0.500000 0.500000 0.423307
O O5 0.259098 0.573117 0.419187
O O6 0.343720 0.500000 0.315633
O O7 0.500000 0.877344 0.086018
O O8 0.696263 0.780072 0.079274
O O9 0.670583 0.855272 0.187287
O O10 0.751800 0.930960 0.710756
O O11 0.000000 0.000000 0.705884
O O12 0.743191 0.800891 0.684090
O O13 0.000000 0.800838 0.627058
O O14 0.500000 0.136358 0.711280
#
# Coordination Sequence:
#
# PCOD9518903 Si02
#       6
#     8   8  16   8  16  16
#     4   9  20  38  57  78 103 138 189 238 266 296
#     4   9  17  29  49  76 105 136 168 204 253 321
#     4   9  18  32  50  76 110 143 173 212 267 327
#     4   9  17  29  45  68 101 138 173 208 252 317
#     4  10  20  34  54  76 101 139 184 226 269 316
#     4  10  19  30  47  75 108 139 171 217 272 324
#
# _framework density 21.102443999999998
#
# number of rings (size 3 to 8) (size 9 to 14) (size 15 to 20)
#    0.000    2.556    0.000    2.000    1.556    4.444 
#    0.000    0.556    0.000    1.333    0.000    4.667 
#    0.000    0.000    0.000    0.000    0.000    0.000 
#
# Total GULP energy -200884.100804 kJ/mol
# GULP energy per Si atom -5580.113911 kJ/mol
# Density = 2.105441 g / cm^3
# Si number density = 21.102444 Si / 1000 Ang^3
#
#
#
# Elastic Constant Matrix: (Units=GPa)
#
#
# Indices 1 2 3 4 5 6 
#
# 1 106.1509 93.3404 42.8226 0.0000 0.0000 0.0000
# 2 93.3404 183.8190 32.3097 0.0000 0.0000 0.0000
# 3 42.8226 32.3097 98.1429 0.0000 0.0000 0.0000
# 4 0.0000 0.0000 0.0000 -32.7430 0.0000 0.0000
# 5 0.0000 0.0000 0.0000 0.0000 -9.6134 0.0000
# 6 0.0000 0.0000 0.0000 0.0000 0.0000 25.7772
#
#
#
# Elastic Compliance Matrix: (Units=1/GPa)
#
#
# Indices 1 2 3 4 5 6 
#
# 1 0.019529 -0.008936 -0.005579 0.000000 0.000000 0.000000
# 2 -0.008936 0.009863 0.000652 0.000000 0.000000 0.000000
# 3 -0.005579 0.000652 0.012409 0.000000 0.000000 0.000000
# 4 0.000000 0.000000 0.000000 -0.030541 0.000000 0.000000
# 5 0.000000 0.000000 0.000000 0.000000 -0.104022 0.000000
# 6 0.000000 0.000000 0.000000 0.000000 0.000000 0.038794
#
#
# Mechanical properties :
#
#
# Convention : Reuss Voigt Hill
#
# Bulk Modulus (GPa) = 71.04987 80.56202 75.80594
# Shear Modulus (GPa) = -232.00701 11.32685 -110.34008
#
# Velocity S-wave (km/s) = -10.49676 2.31931 -7.23888
# Velocity P-wave (km/s) = 10.63800 6.74031 5.81959
#
# Compressibility (1/GPa) = 0.01407462
#
# Stress axis : x y z
#
# Youngs Moduli (GPa) = 51.20715 101.38979 80.58700
#
# Poissons Ratio (x) = 0.90598 0.44961
# Poissons Ratio (y) = 0.45757 -0.05253
# Poissons Ratio (z) = 0.28569 -0.06610
#
# Static dielectric constant tensor:
#      x y z
#    x 1.689530 0.000000 0.000000 
#    y 0.000000 1.809290 0.000000 
#    z 0.000000 0.000000 1.793040 
# 
# From -- ./inp_files/8031.got.cif
#   From: 2010.05.17/outbox.cif.g08.bks.cpg/sg71_5_cif.got.tgz:8031.got - 2010.06.03 16:22:01.
