data_PCOD9518948
_publ_section_title
;
Structure prediction by ZEFSAII (Michael W. Deem and Ramdas Pophale) SiO2 
 PCOD9518948
Probable space group: I M M M
;
_chemical_formula_sum "Si O2"
_cell_formula_units_Z 88
_cell_length_a 20.953921
_cell_length_b 9.555183
_cell_length_c 26.056655
_cell_angle_alpha 90.000000
_cell_angle_beta 90.000000
_cell_angle_gamma 90.000000
_cell_volume 5217.025675
_symmetry_space_group_name_H-M "I M M M"
_symmetry_group_IT_number 71
_symmetry_cell_setting 'orthorhombic'
loop_
_space_group_symop_operation_xyz
x,y,z
-x,-y,z
x,-y,-z
-x,y,-z
-x,-y,-z
x,y,-z
-x,y,z
x,-y,z
1/2+x,1/2+y,1/2+z
1/2-x,1/2-y,1/2+z
1/2+x,1/2-y,1/2-z
1/2-x,1/2+y,1/2-z
1/2-x,1/2-y,1/2-z
1/2+x,1/2+y,1/2-z
1/2-x,1/2+y,1/2+z
1/2+x,1/2-y,1/2+z
loop_
_atom_site_type_symbol
_atom_site_label
_atom_site_fract_x
_atom_site_fract_y
_atom_site_fract_z
Si Si1 0.774423 0.833390 0.000000
Si Si2 0.304769 0.336941 0.692084
Si Si3 0.675937 0.332325 0.808193
Si Si4 0.000000 0.341663 0.938557
Si Si5 0.622968 0.662967 0.412294
Si Si6 0.641756 0.669096 0.000000
Si Si7 0.073166 0.829919 0.606976
O O1 0.818579 0.802952 0.950554
O O2 0.710037 0.744545 0.000000
O O3 0.759890 0.000000 0.000000
O O4 0.284298 0.500000 0.694006
O O5 0.334999 0.303697 0.747641
O O6 0.243085 0.242652 0.681205
O O7 0.353569 0.322276 0.645763
O O8 0.682617 0.500000 0.814401
O O9 0.620263 0.285198 0.846906
O O10 0.062907 0.259471 0.922202
O O11 0.000000 0.500000 0.918654
O O12 0.000000 0.346177 0.000000
O O13 0.606385 0.500000 0.422181
O O14 0.603113 0.707414 0.948316
O O15 0.649975 0.500000 0.000000
O O16 0.000000 0.780947 0.612165
O O17 0.071424 0.000000 0.608486
#
# Coordination Sequence:
#
# PCOD9518948 Si02
#       7
#     8  16  16   8  16   8  16
#     4  10  20  32  50  73  99 129 160 201 248 291
#     4   9  18  32  51  76 100 128 168 208 249 297
#     4   9  17  31  51  75 100 130 166 208 256 294
#     4  11  23  37  53  75 103 133 167 208 257 304
#     4  10  20  35  53  73 100 135 171 204 246 305
#     4  10  19  30  49  75  98 127 165 203 248 296
#     4   9  17  30  48  71 100 130 163 203 245 293
#
# _framework density 16.867847999999999
#
# number of rings (size 3 to 8) (size 9 to 14) (size 15 to 20)
#    0.000    2.455    0.909    1.636    0.000    2.909 
#    1.636    0.000    0.000    2.727    0.000    0.000 
#    0.000    0.000    0.000    0.000    0.000    0.000 
#
# Total GULP energy -245298.202425 kJ/mol
# GULP energy per Si atom -5574.959146 kJ/mol
# Density = 1.682946 g / cm^3
# Si number density = 16.867848 Si / 1000 Ang^3
#
#
#
# Elastic Constant Matrix: (Units=GPa)
#
#
# Indices 1 2 3 4 5 6 
#
# 1 142.2531 60.4573 83.8773 0.0000 0.0000 0.0000
# 2 60.4573 42.5409 44.0732 0.0000 0.0000 0.0000
# 3 83.8773 44.0732 113.4912 0.0000 0.0000 0.0000
# 4 0.0000 0.0000 0.0000 13.8461 0.0000 0.0000
# 5 0.0000 0.0000 0.0000 0.0000 11.7778 0.0000
# 6 0.0000 0.0000 0.0000 0.0000 0.0000 6.3111
#
#
#
# Elastic Compliance Matrix: (Units=1/GPa)
#
#
# Indices 1 2 3 4 5 6 
#
# 1 0.020128 -0.022075 -0.006304 0.000000 0.000000 0.000000
# 2 -0.022075 0.063540 -0.008361 0.000000 0.000000 0.000000
# 3 -0.006304 -0.008361 0.016717 0.000000 0.000000 0.000000
# 4 0.000000 0.000000 0.000000 0.072223 0.000000 0.000000
# 5 0.000000 0.000000 0.000000 0.000000 0.084905 0.000000
# 6 0.000000 0.000000 0.000000 0.000000 0.000000 0.158451
#
#
# Mechanical properties :
#
#
# Convention : Reuss Voigt Hill
#
# Bulk Modulus (GPa) = 37.16453 75.01121 56.08787
# Shear Modulus (GPa) = 10.03189 13.71217 11.87203
#
# Velocity S-wave (km/s) = 2.44136 2.85426 2.65585
# Velocity P-wave (km/s) = 5.47974 7.44506 6.53669
#
# Compressibility (1/GPa) = 0.02690737
#
# Stress axis : x y z
#
# Youngs Moduli (GPa) = 49.68152 15.73811 59.82045
#
# Poissons Ratio (x) = 0.34741 0.37708
# Poissons Ratio (y) = 1.09671 0.50013
# Poissons Ratio (z) = 0.31317 0.13158
#
# Static dielectric constant tensor:
#      x y z
#    x 1.532200 0.000000 0.000000 
#    y 0.000000 1.567020 0.000000 
#    z 0.000000 0.000000 1.582110 
# 
# From -- ./inp_files/61157.got.cif
#   From: 2010.05.17/outbox.cif.g08.bks.cpg/sg71_31_cif.got.tgz:61157.got - 2010.06.03 16:22:01.
