data_PCOD9518806
_publ_section_title
;
Structure prediction by ZEFSAII (Michael W. Deem and Ramdas Pophale) SiO2 
 PCOD9518806
Probable space group: I M M M
;
_chemical_formula_sum "Si O2"
_cell_formula_units_Z 96
_cell_length_a 22.824609
_cell_length_b 28.291854
_cell_length_c 9.329458
_cell_angle_alpha 90.000000
_cell_angle_beta 90.000000
_cell_angle_gamma 90.000000
_cell_volume 6024.502219
_symmetry_space_group_name_H-M "I M M M"
_symmetry_group_IT_number 71
_symmetry_cell_setting 'orthorhombic'
loop_
_space_group_symop_operation_xyz
x,y,z
-x,-y,z
x,-y,-z
-x,y,-z
-x,-y,-z
x,y,-z
-x,y,z
x,-y,z
1/2+x,1/2+y,1/2+z
1/2-x,1/2-y,1/2+z
1/2+x,1/2-y,1/2-z
1/2-x,1/2+y,1/2-z
1/2-x,1/2-y,1/2-z
1/2+x,1/2+y,1/2-z
1/2-x,1/2+y,1/2+z
1/2+x,1/2-y,1/2+z
loop_
_atom_site_type_symbol
_atom_site_label
_atom_site_fract_x
_atom_site_fract_y
_atom_site_fract_z
Si Si1 0.807700 0.142075 0.333381
Si Si2 0.816842 0.690862 0.834194
Si Si3 0.628272 0.105497 0.170580
Si Si4 0.500000 0.868678 0.171635
Si Si5 0.380541 0.286208 0.330481
Si Si6 0.731684 0.054411 0.327841
Si Si7 0.500000 0.232881 0.326664
O O1 0.823641 0.137808 0.500000
O O2 0.750742 0.176275 0.323315
O O3 0.859701 0.166802 0.248441
O O4 0.782204 0.091515 0.282835
O O5 0.851688 0.656941 0.727245
O O6 0.832692 0.744831 0.805535
O O7 0.835146 0.680992 0.000000
O O8 0.559364 0.102787 0.204569
O O9 0.671492 0.069634 0.251235
O O10 0.636252 0.101612 0.000000
O O11 0.500000 0.818490 0.253352
O O12 0.500000 0.859191 0.000000
O O13 0.383129 0.295252 0.500000
O O14 0.442232 0.262788 0.287072
O O15 0.724454 0.060503 0.500000
O O16 0.745845 0.000000 0.298692
O O17 0.500000 0.226532 0.500000
#
# Coordination Sequence:
#
# PCOD9518806 Si02
#       7
#    16  16  16   8  16  16   8
#     4   9  18  30  47  71  95 120 151 192 243 291
#     4   9  17  30  46  66  94 129 164 193 229 277
#     4  10  19  30  47  71  97 126 162 201 241 280
#     4  10  20  32  45  67  98 132 167 200 236 274
#     4  10  19  30  45  68  97 129 163 195 229 273
#     4   9  19  37  56  72  92 119 155 200 248 295
#     4  10  20  32  48  67  94 135 174 200 222 263
#
# _framework density 15.934926000000001
#
# number of rings (size 3 to 8) (size 9 to 14) (size 15 to 20)
#    0.000    2.500    1.667    2.000    0.000    5.000 
#    0.000    0.417    0.000    2.500    0.000    0.583 
#    0.000    4.667    0.000    0.000    0.000    0.000 
#
# Total GULP energy -267454.324054 kJ/mol
# GULP energy per Si atom -5571.965084 kJ/mol
# Density = 1.589866 g / cm^3
# Si number density = 15.934926 Si / 1000 Ang^3
#
#
#
# Elastic Constant Matrix: (Units=GPa)
#
#
# Indices 1 2 3 4 5 6 
#
# 1 31.5142 38.0642 14.7418 0.0000 0.0000 0.0000
# 2 38.0642 100.3235 29.5739 0.0000 0.0000 0.0000
# 3 14.7418 29.5739 19.1362 0.0000 0.0000 0.0000
# 4 0.0000 0.0000 0.0000 21.7098 0.0000 0.0000
# 5 0.0000 0.0000 0.0000 0.0000 21.2422 0.0000
# 6 0.0000 0.0000 0.0000 0.0000 0.0000 12.9193
#
#
#
# Elastic Compliance Matrix: (Units=1/GPa)
#
#
# Indices 1 2 3 4 5 6 
#
# 1 0.062964 -0.017617 -0.021280 0.000000 0.000000 0.000000
# 2 -0.017617 0.023238 -0.022341 0.000000 0.000000 0.000000
# 3 -0.021280 -0.022341 0.103178 0.000000 0.000000 0.000000
# 4 0.000000 0.000000 0.000000 0.046062 0.000000 0.000000
# 5 0.000000 0.000000 0.000000 0.000000 0.047076 0.000000
# 6 0.000000 0.000000 0.000000 0.000000 0.000000 0.077404
#
#
# Mechanical properties :
#
#
# Convention : Reuss Voigt Hill
#
# Bulk Modulus (GPa) = 14.94682 35.08153 25.01417
# Shear Modulus (GPa) = 9.90691 15.74719 12.82705
#
# Velocity S-wave (km/s) = 2.49612 3.14700 2.84027
# Velocity P-wave (km/s) = 4.20806 5.93870 5.14664
#
# Compressibility (1/GPa) = 0.06690387
#
# Stress axis : x y z
#
# Youngs Moduli (GPa) = 15.88205 43.03359 9.69201
#
# Poissons Ratio (x) = 0.75810 0.20625
# Poissons Ratio (y) = 0.27979 0.21653
# Poissons Ratio (z) = 0.33797 0.96143
#
# Static dielectric constant tensor:
#      x y z
#    x 1.542680 0.000000 0.000000 
#    y 0.000000 1.524280 0.000000 
#    z 0.000000 0.000000 1.538420 
# 
# From -- ./inp_files/13176.got.cif
#   From: 2010.05.17/outbox.cif.g08.bks.cpg/sg71_7_cif.got.tgz:13176.got - 2010.06.03 16:22:01.
