data_PCOD9518133
_publ_section_title
;
Structure prediction by ZEFSAII (Michael W. Deem and Ramdas Pophale) SiO2 
 PCOD9518133
Probable space group: I M M M
;
_chemical_formula_sum "Si O2"
_cell_formula_units_Z 80
_cell_length_a 26.847676
_cell_length_b 9.015891
_cell_length_c 18.395088
_cell_angle_alpha 90.000000
_cell_angle_beta 90.000000
_cell_angle_gamma 90.000000
_cell_volume 4452.636278
_symmetry_space_group_name_H-M "I M M M"
_symmetry_group_IT_number 71
_symmetry_cell_setting 'orthorhombic'
loop_
_space_group_symop_operation_xyz
x,y,z
-x,-y,z
x,-y,-z
-x,y,-z
-x,-y,-z
x,y,-z
-x,y,z
x,-y,z
1/2+x,1/2+y,1/2+z
1/2-x,1/2-y,1/2+z
1/2+x,1/2-y,1/2-z
1/2-x,1/2+y,1/2-z
1/2-x,1/2-y,1/2-z
1/2+x,1/2+y,1/2-z
1/2-x,1/2+y,1/2+z
1/2+x,1/2-y,1/2+z
loop_
_atom_site_type_symbol
_atom_site_label
_atom_site_fract_x
_atom_site_fract_y
_atom_site_fract_z
Si Si1 0.703520 0.829341 0.158431
Si Si2 0.000000 0.172285 0.586805
Si Si3 0.404307 0.677973 0.676671
Si Si4 0.093016 0.321028 0.664040
Si Si5 0.500000 0.319757 0.582565
Si Si6 0.196883 0.330102 0.164551
O O1 0.648307 0.781103 0.134643
O O2 0.750717 0.732351 0.136159
O O3 0.700805 0.826591 0.246947
O O4 0.711643 0.000000 0.136857
O O5 0.951278 0.254082 0.617116
O O6 0.000000 0.176373 0.500000
O O7 0.000000 0.000000 0.610855
O O8 0.404052 0.500000 0.685089
O O9 0.411215 0.754178 0.755055
O O10 0.450238 0.722918 0.625681
O O11 0.351142 0.732061 0.646137
O O12 0.090584 0.500000 0.667482
O O13 0.500000 0.500000 0.580672
O O14 0.500000 0.265451 0.500000
O O15 0.189135 0.500000 0.143059
#
# Coordination Sequence:
#
# PCOD9518133 Si02
#       6
#    16   8  16  16   8  16
#     4   8  15  27  44  70 100 129 161 198 244 293
#     4  11  24  39  54  74 102 135 170 207 250 302
#     4  10  18  30  52  77 102 132 167 210 255 300
#     4  10  20  34  54  78 104 132 166 209 250 295
#     4   9  19  34  50  70  96 129 170 211 250 294
#     4   9  16  26  43  70 103 133 161 199 247 298
#
# _framework density 17.966884
#
# number of rings (size 3 to 8) (size 9 to 14) (size 15 to 20)
#    0.000    2.600    0.000    3.900    0.000    7.200 
#    0.000    1.500    0.000    6.000    0.000    2.800 
#    0.000    0.000    0.000    0.000    0.000    0.000 
#
# Total GULP energy -223018.982037 kJ/mol
# GULP energy per Si atom -5575.474551 kJ/mol
# Density = 1.792599 g / cm^3
# Si number density = 17.966884 Si / 1000 Ang^3
#
#
#
# Elastic Constant Matrix: (Units=GPa)
#
#
# Indices 1 2 3 4 5 6 
#
# 1 181.2199 72.6248 46.3552 0.0000 0.0000 0.0000
# 2 72.6248 85.4960 26.5503 0.0000 0.0000 0.0000
# 3 46.3552 26.5503 34.9345 0.0000 0.0000 0.0000
# 4 0.0000 0.0000 0.0000 4.4183 0.0000 0.0000
# 5 0.0000 0.0000 0.0000 0.0000 -6.3634 0.0000
# 6 0.0000 0.0000 0.0000 0.0000 0.0000 34.9424
#
#
#
# Elastic Compliance Matrix: (Units=1/GPa)
#
#
# Indices 1 2 3 4 5 6 
#
# 1 0.010173 -0.005824 -0.009072 0.000000 0.000000 0.000000
# 2 -0.005824 0.018644 -0.006442 0.000000 0.000000 0.000000
# 3 -0.009072 -0.006442 0.045559 0.000000 0.000000 0.000000
# 4 0.000000 0.000000 0.000000 0.226334 0.000000 0.000000
# 5 0.000000 0.000000 0.000000 0.000000 -0.157149 0.000000
# 6 0.000000 0.000000 0.000000 0.000000 0.000000 0.028619
#
#
# Mechanical properties :
#
#
# Convention : Reuss Voigt Hill
#
# Bulk Modulus (GPa) = 31.54579 65.85676 48.70128
# Shear Modulus (GPa) = 22.18076 17.00746 19.59411
#
# Velocity S-wave (km/s) = 3.51741 3.08002 3.30596
# Velocity P-wave (km/s) = 5.83884 7.02729 6.46045
#
# Compressibility (1/GPa) = 0.03169995
#
# Stress axis : x y z
#
# Youngs Moduli (GPa) = 98.30179 53.63649 21.94973
#
# Poissons Ratio (x) = 0.31238 0.19913
# Poissons Ratio (y) = 0.57251 0.14139
# Poissons Ratio (z) = 0.89181 0.34551
#
# Static dielectric constant tensor:
#      x y z
#    x 1.628530 0.000000 0.000000 
#    y 0.000000 1.602550 0.000000 
#    z 0.000000 0.000000 1.589340 
# 
# From -- ./inp_files/48603.got.cif
#   From: 2010.05.17/outbox.cif.g08.bks.cpg/sg71_25_cif.got.tgz:48603.got - 2010.06.03 16:22:01.
