data_PCOD9518308
_publ_section_title
;
Structure prediction by ZEFSAII (Michael W. Deem and Ramdas Pophale) SiO2 
 PCOD9518308
Probable space group: I M M M
;
_chemical_formula_sum "Si O2"
_cell_formula_units_Z 88
_cell_length_a 16.735767
_cell_length_b 19.925090
_cell_length_c 15.451994
_cell_angle_alpha 90.000000
_cell_angle_beta 90.000000
_cell_angle_gamma 90.000000
_cell_volume 5152.647627
_symmetry_space_group_name_H-M "I M M M"
_symmetry_group_IT_number 71
_symmetry_cell_setting 'orthorhombic'
loop_
_space_group_symop_operation_xyz
x,y,z
-x,-y,z
x,-y,-z
-x,y,-z
-x,-y,-z
x,y,-z
-x,y,z
x,-y,z
1/2+x,1/2+y,1/2+z
1/2-x,1/2-y,1/2+z
1/2+x,1/2-y,1/2-z
1/2-x,1/2+y,1/2-z
1/2-x,1/2-y,1/2-z
1/2+x,1/2+y,1/2-z
1/2-x,1/2+y,1/2+z
1/2+x,1/2-y,1/2+z
loop_
_atom_site_type_symbol
_atom_site_label
_atom_site_fract_x
_atom_site_fract_y
_atom_site_fract_z
Si Si1 0.343282 0.824504 0.099195
Si Si2 0.095846 0.176194 0.346132
Si Si3 0.402648 0.422736 0.000000
Si Si4 0.096059 0.424406 0.745667
Si Si5 0.189304 0.789835 0.813600
Si Si6 0.403505 0.831048 0.400716
O O1 0.377378 0.749720 0.118998
O O2 0.380414 0.876210 0.167114
O O3 0.248460 0.824511 0.118857
O O4 0.360573 0.841037 0.000000
O O5 0.121226 0.119951 0.415386
O O6 0.136513 0.166893 0.252543
O O7 0.000000 0.176001 0.338759
O O8 0.375500 0.500000 0.000000
O O9 0.500000 0.423524 0.000000
O O10 0.126767 0.500000 0.736050
O O11 0.122387 0.389937 0.835459
O O12 0.000000 0.427052 0.748329
O O13 0.250000 0.750000 0.750000
O O14 0.133920 0.736684 0.862618
O O15 0.379124 0.841831 0.500000
O O16 0.500000 0.826755 0.398047
#
# Coordination Sequence:
#
# PCOD9518308 Si02
#       6
#    16  16   8  16  16  16
#     4  11  21  34  54  77 104 138 184 227 272 315
#     4  10  18  31  54  77 102 139 175 211 265 325
#     4   9  18  32  52  82 111 129 160 216 271 326
#     4  10  21  36  53  77 109 143 182 226 269 319
#     4  10  19  32  51  74 104 134 175 221 258 310
#     4  10  19  33  55  80 107 139 177 222 269 320
#
# _framework density 17.078599000000001
#
# number of rings (size 3 to 8) (size 9 to 14) (size 15 to 20)
#    0.000    1.909    4.545    1.636    0.000    1.818 
#    0.000    3.636    0.000    0.000    0.000    0.000 
#    0.000    0.000    0.000   16.364    0.000    0.000 
#
# Total GULP energy -245309.288767 kJ/mol
# GULP energy per Si atom -5575.211108 kJ/mol
# Density = 1.703973 g / cm^3
# Si number density = 17.078599 Si / 1000 Ang^3
#
#
#
# Elastic Constant Matrix: (Units=GPa)
#
#
# Indices 1 2 3 4 5 6 
#
# 1 33.6268 15.0426 17.9700 0.0000 0.0000 0.0000
# 2 15.0426 99.0100 44.0084 0.0000 0.0000 0.0000
# 3 17.9700 44.0084 107.9065 0.0000 0.0000 0.0000
# 4 0.0000 0.0000 0.0000 19.7524 0.0000 0.0000
# 5 0.0000 0.0000 0.0000 0.0000 25.0859 0.0000
# 6 0.0000 0.0000 0.0000 0.0000 0.0000 2.3695
#
#
#
# Elastic Compliance Matrix: (Units=1/GPa)
#
#
# Indices 1 2 3 4 5 6 
#
# 1 0.033445 -0.003183 -0.004272 0.000000 0.000000 0.000000
# 2 -0.003183 0.012639 -0.004625 0.000000 0.000000 0.000000
# 3 -0.004272 -0.004625 0.011865 0.000000 0.000000 0.000000
# 4 0.000000 0.000000 0.000000 0.050627 0.000000 0.000000
# 5 0.000000 0.000000 0.000000 0.000000 0.039863 0.000000
# 6 0.000000 0.000000 0.000000 0.000000 0.000000 0.422035
#
#
# Mechanical properties :
#
#
# Convention : Reuss Voigt Hill
#
# Bulk Modulus (GPa) = 29.59396 43.84281 36.71838
# Shear Modulus (GPa) = 8.25226 20.34304 14.29765
#
# Velocity S-wave (km/s) = 2.20055 3.45504 2.89652
# Velocity P-wave (km/s) = 4.88081 6.45316 5.72126
#
# Compressibility (1/GPa) = 0.03379068
#
# Stress axis : x y z
#
# Youngs Moduli (GPa) = 29.90013 79.11930 84.28295
#
# Poissons Ratio (x) = 0.25180 0.36003
# Poissons Ratio (y) = 0.09516 0.38979
# Poissons Ratio (z) = 0.12772 0.36590
#
# Static dielectric constant tensor:
#      x y z
#    x 1.598230 0.000000 0.000000 
#    y 0.000000 1.565440 0.000000 
#    z 0.000000 0.000000 1.587010 
# 
# From -- ./inp_files/36367.got.cif
#   From: 2010.05.17/outbox.cif.g08.bks.cpg/sg71_19_cif.got.tgz:36367.got - 2010.06.03 16:22:01.
