data_PCOD9518449
_publ_section_title
;
Structure prediction by ZEFSAII (Michael W. Deem and Ramdas Pophale) SiO2 
 PCOD9518449
Probable space group: I M M M
;
_chemical_formula_sum "Si O2"
_cell_formula_units_Z 120
_cell_length_a 22.706114
_cell_length_b 22.484267
_cell_length_c 14.817412
_cell_angle_alpha 90.000000
_cell_angle_beta 90.000000
_cell_angle_gamma 90.000000
_cell_volume 7564.738234
_symmetry_space_group_name_H-M "I M M M"
_symmetry_group_IT_number 71
_symmetry_cell_setting 'orthorhombic'
loop_
_space_group_symop_operation_xyz
x,y,z
-x,-y,z
x,-y,-z
-x,y,-z
-x,-y,-z
x,y,-z
-x,y,z
x,-y,z
1/2+x,1/2+y,1/2+z
1/2-x,1/2-y,1/2+z
1/2+x,1/2-y,1/2-z
1/2-x,1/2+y,1/2-z
1/2-x,1/2-y,1/2-z
1/2+x,1/2+y,1/2-z
1/2-x,1/2+y,1/2+z
1/2+x,1/2-y,1/2+z
loop_
_atom_site_type_symbol
_atom_site_label
_atom_site_fract_x
_atom_site_fract_y
_atom_site_fract_z
Si Si1 0.930780 0.744657 0.274137
Si Si2 0.749529 0.215655 0.894482
Si Si3 0.139132 0.364278 0.351774
Si Si4 0.817815 0.818715 0.285373
Si Si5 0.431254 0.829619 0.599251
Si Si6 0.152921 0.569191 0.164884
Si Si7 0.713896 0.431093 0.103640
Si Si8 0.933189 0.570238 0.500000
O O1 0.907419 0.688105 0.330224
O O2 0.885136 0.797115 0.292989
O O3 0.920160 0.721006 0.172549
O O4 0.000000 0.756496 0.287801
O O5 0.696069 0.168052 0.892580
O O6 0.795361 0.192704 0.817555
O O7 0.722406 0.276238 0.850569
O O8 0.768193 0.223480 0.000000
O O9 0.158603 0.399598 0.262462
O O10 0.104414 0.408444 0.415422
O O11 0.810982 0.884863 0.323705
O O12 0.418815 0.806380 0.500000
O O13 0.500000 0.845353 0.607044
O O14 0.393818 0.888660 0.615989
O O15 0.135234 0.500000 0.171980
O O16 0.215391 0.571630 0.114982
O O17 0.696722 0.500000 0.119438
O O18 0.698476 0.415265 0.000000
O O19 0.937290 0.500000 0.500000
O O20 0.000000 0.594695 0.500000
#
# Coordination Sequence:
#
# PCOD9518449 Si02
#       8
#    16  16  16  16  16  16  16   8
#     4   9  19  34  52  72  98 130 162 202 255 305
#     4  10  19  32  52  78 104 131 168 212 261 304
#     4  10  18  33  49  67  97 133 169 216 252 287
#     4  10  20  34  53  79 103 130 168 212 254 311
#     4   9  18  31  46  68  98 132 169 207 246 289
#     4  10  19  31  47  68  96 133 175 209 248 294
#     4  10  20  34  53  76 104 134 164 205 257 312
#     4  11  22  32  46  68  96 140 186 214 244 290
#
# _framework density 15.863073999999999
#
# number of rings (size 3 to 8) (size 9 to 14) (size 15 to 20)
#    0.000    2.200    2.000    1.600    1.867    2.133 
#    0.000    0.667    0.000    0.400    0.000    0.933 
#    0.000    0.000    0.000    4.533    0.000    0.000 
#
# Total GULP energy -334298.837658 kJ/mol
# GULP energy per Si atom -5571.647294 kJ/mol
# Density = 1.582697 g / cm^3
# Si number density = 15.863074 Si / 1000 Ang^3
#
#
#
# Elastic Constant Matrix: (Units=GPa)
#
#
# Indices 1 2 3 4 5 6 
#
# 1 53.9481 35.1516 26.3223 0.0000 0.0000 0.0000
# 2 35.1516 70.3919 28.6473 0.0000 0.0000 0.0000
# 3 26.3223 28.6473 89.7595 0.0000 0.0000 0.0000
# 4 0.0000 0.0000 0.0000 5.8971 0.0000 0.0000
# 5 0.0000 0.0000 0.0000 0.0000 23.1474 0.0000
# 6 0.0000 0.0000 0.0000 0.0000 0.0000 18.9957
#
#
#
# Elastic Compliance Matrix: (Units=1/GPa)
#
#
# Indices 1 2 3 4 5 6 
#
# 1 0.028947 -0.012643 -0.004454 0.000000 0.000000 0.000000
# 2 -0.012643 0.021849 -0.003266 0.000000 0.000000 0.000000
# 3 -0.004454 -0.003266 0.013489 0.000000 0.000000 0.000000
# 4 0.000000 0.000000 0.000000 0.169574 0.000000 0.000000
# 5 0.000000 0.000000 0.000000 0.000000 0.043201 0.000000
# 6 0.000000 0.000000 0.000000 0.000000 0.000000 0.052643
#
#
# Mechanical properties :
#
#
# Convention : Reuss Voigt Hill
#
# Bulk Modulus (GPa) = 42.44370 43.81576 43.12973
# Shear Modulus (GPa) = 13.21763 17.87327 15.54545
#
# Velocity S-wave (km/s) = 2.88971 3.36031 3.13385
# Velocity P-wave (km/s) = 6.16022 6.53734 6.35158
#
# Compressibility (1/GPa) = 0.02356062
#
# Stress axis : x y z
#
# Youngs Moduli (GPa) = 34.54550 45.76944 74.13333
#
# Poissons Ratio (x) = 0.57866 0.33018
# Poissons Ratio (y) = 0.43675 0.24209
# Poissons Ratio (z) = 0.15386 0.14946
#
# Static dielectric constant tensor:
#      x y z
#    x 1.520290 0.000000 0.000000 
#    y 0.000000 1.509120 0.000000 
#    z 0.000000 0.000000 1.558600 
# 
# From -- ./inp_files/38420.got.cif
#   From: 2010.05.17/outbox.cif.g08.bks.cpg/sg71_20_cif.got.tgz:38420.got - 2010.06.03 16:22:01.
