data_PCOD9518380
_publ_section_title
;
Structure prediction by ZEFSAII (Michael W. Deem and Ramdas Pophale) SiO2 
 PCOD9518380
Probable space group: I M M M
;
_chemical_formula_sum "Si O2"
_cell_formula_units_Z 128
_cell_length_a 18.524414
_cell_length_b 20.998399
_cell_length_c 20.215740
_cell_angle_alpha 90.000000
_cell_angle_beta 90.000000
_cell_angle_gamma 90.000000
_cell_volume 7863.579929
_symmetry_space_group_name_H-M "I M M M"
_symmetry_group_IT_number 71
_symmetry_cell_setting 'orthorhombic'
loop_
_space_group_symop_operation_xyz
x,y,z
-x,-y,z
x,-y,-z
-x,y,-z
-x,-y,-z
x,y,-z
-x,y,z
x,-y,z
1/2+x,1/2+y,1/2+z
1/2-x,1/2-y,1/2+z
1/2+x,1/2-y,1/2-z
1/2-x,1/2+y,1/2-z
1/2-x,1/2-y,1/2-z
1/2+x,1/2+y,1/2-z
1/2-x,1/2+y,1/2+z
1/2+x,1/2-y,1/2+z
loop_
_atom_site_type_symbol
_atom_site_label
_atom_site_fract_x
_atom_site_fract_y
_atom_site_fract_z
Si Si1 0.214457 0.203560 0.072928
Si Si2 0.226773 0.645403 0.925610
Si Si3 0.685092 0.814099 0.805587
Si Si4 0.584323 0.612286 0.426674
Si Si5 0.914251 0.071609 0.220232
Si Si6 0.080867 0.425664 0.887069
Si Si7 0.811457 0.167411 0.298926
Si Si8 0.916193 0.428750 0.272744
O O1 0.210650 0.279270 0.078952
O O2 0.265322 0.177808 0.130052
O O3 0.135706 0.173172 0.077988
O O4 0.243382 0.187863 0.000000
O O5 0.150990 0.609858 0.914060
O O6 0.286257 0.635965 0.868179
O O7 0.252791 0.631071 0.000000
O O8 0.737618 0.824011 0.742817
O O9 0.659530 0.740151 0.806507
O O10 0.625914 0.869027 0.802144
O O11 0.597749 0.582604 0.500000
O O12 0.500000 0.629122 0.425224
O O13 0.598614 0.574266 0.359204
O O14 0.866254 0.123363 0.258171
O O15 0.000000 0.083182 0.230102
O O16 0.897320 0.000000 0.243239
O O17 0.084233 0.500000 0.906214
O O18 0.085593 0.423042 0.807144
O O19 0.000000 0.401831 0.905913
O O20 0.887525 0.500000 0.289244
O O21 0.000000 0.426735 0.292346
#
# Coordination Sequence:
#
# PCOD9518380 Si02
#       8
#    16  16  16  16  16  16  16  16
#     4   9  18  32  48  71 101 130 162 201 246 295
#     4  10  20  33  49  68  96 132 164 202 250 297
#     4  10  18  32  53  75 100 130 164 207 248 288
#     4   9  17  30  48  71 102 137 167 195 232 286
#     4  10  21  35  51  73 101 133 168 208 251 290
#     4   9  18  31  45  66  99 133 165 202 241 289
#     4  10  20  33  50  76 101 125 168 211 249 292
#     4   9  18  32  51  76 103 131 163 199 244 295
#
# _framework density 16.277573
#
# number of rings (size 3 to 8) (size 9 to 14) (size 15 to 20)
#    0.000    2.500    2.500    0.750    0.000    2.750 
#    0.000    5.625    0.000    1.125    0.000    5.250 
#    0.000    0.000    0.000    0.000    0.000    0.000 
#
# Total GULP energy -356312.607966 kJ/mol
# GULP energy per Si atom -5567.384499 kJ/mol
# Density = 1.624052 g / cm^3
# Si number density = 16.277573 Si / 1000 Ang^3
#
#
#
# Elastic Constant Matrix: (Units=GPa)
#
#
# Indices 1 2 3 4 5 6 
#
# 1 56.1530 51.3135 40.3574 0.0000 0.0000 0.0000
# 2 51.3135 69.1606 39.6860 0.0000 0.0000 0.0000
# 3 40.3574 39.6860 98.5345 0.0000 0.0000 0.0000
# 4 0.0000 0.0000 0.0000 11.7774 0.0000 0.0000
# 5 0.0000 0.0000 0.0000 0.0000 24.8546 0.0000
# 6 0.0000 0.0000 0.0000 0.0000 0.0000 9.4604
#
#
#
# Elastic Compliance Matrix: (Units=1/GPa)
#
#
# Indices 1 2 3 4 5 6 
#
# 1 0.060572 -0.039935 -0.008725 0.000000 0.000000 0.000000
# 2 -0.039935 0.045134 -0.001822 0.000000 0.000000 0.000000
# 3 -0.008725 -0.001822 0.014456 0.000000 0.000000 0.000000
# 4 0.000000 0.000000 0.000000 0.084909 0.000000 0.000000
# 5 0.000000 0.000000 0.000000 0.000000 0.040234 0.000000
# 6 0.000000 0.000000 0.000000 0.000000 0.000000 0.105703
#
#
# Mechanical properties :
#
#
# Convention : Reuss Voigt Hill
#
# Bulk Modulus (GPa) = 52.08538 54.06243 53.07391
# Shear Modulus (GPa) = 10.90819 15.38456 13.14637
#
# Velocity S-wave (km/s) = 2.59151 3.07765 2.84498
# Velocity P-wave (km/s) = 6.40486 6.77600 6.59304
#
# Compressibility (1/GPa) = 0.01919925
#
# Stress axis : x y z
#
# Youngs Moduli (GPa) = 16.50923 22.15616 69.17564
#
# Poissons Ratio (x) = 0.88481 0.60353
# Poissons Ratio (y) = 0.65930 0.12603
# Poissons Ratio (z) = 0.14404 0.04037
#
# Static dielectric constant tensor:
#      x y z
#    x 1.519960 0.000000 0.000000 
#    y 0.000000 1.547250 0.000000 
#    z 0.000000 0.000000 1.579960 
# 
# From -- ./inp_files/54469.got.cif
#   From: 2010.05.17/outbox.cif.g08.bks.cpg/sg71_28_cif.got.tgz:54469.got - 2010.06.03 16:22:01.
