data_PCOD9518309
_publ_section_title
;
Structure prediction by ZEFSAII (Michael W. Deem and Ramdas Pophale) SiO2 
 PCOD9518309
Probable space group: I M M M
;
_chemical_formula_sum "Si O2"
_cell_formula_units_Z 56
_cell_length_a 25.692547
_cell_length_b 16.928421
_cell_length_c 7.516323
_cell_angle_alpha 90.000000
_cell_angle_beta 90.000000
_cell_angle_gamma 90.000000
_cell_volume 3269.106323
_symmetry_space_group_name_H-M "I M M M"
_symmetry_group_IT_number 71
_symmetry_cell_setting 'orthorhombic'
loop_
_space_group_symop_operation_xyz
x,y,z
-x,-y,z
x,-y,-z
-x,y,-z
-x,-y,-z
x,y,-z
-x,y,z
x,-y,z
1/2+x,1/2+y,1/2+z
1/2-x,1/2-y,1/2+z
1/2+x,1/2-y,1/2-z
1/2-x,1/2+y,1/2-z
1/2-x,1/2-y,1/2-z
1/2+x,1/2+y,1/2-z
1/2-x,1/2+y,1/2+z
1/2+x,1/2-y,1/2+z
loop_
_atom_site_type_symbol
_atom_site_label
_atom_site_fract_x
_atom_site_fract_y
_atom_site_fract_z
Si Si1 0.056210 0.649540 0.000000
Si Si2 0.000000 0.090274 0.715569
Si Si3 0.667593 0.911132 0.500000
Si Si4 0.083192 0.220559 0.712182
Si Si5 0.306343 0.784763 0.792411
O O1 0.061576 0.707432 0.829447
O O2 0.105040 0.592221 0.000000
O O3 0.000000 0.611083 0.000000
O O4 0.949032 0.142195 0.764508
O O5 0.000000 0.086345 0.500000
O O6 0.000000 0.000000 0.781155
O O7 0.685222 0.860837 0.329797
O O8 0.687003 0.000000 0.500000
O O9 0.074982 0.232181 0.500000
O O10 0.145526 0.224315 0.744760
O O11 0.250000 0.750000 0.750000
O O12 0.309429 0.804610 0.000000
#
# Coordination Sequence:
#
# PCOD9518309 Si02
#       5
#     8   8   8  16  16
#     4  10  18  31  54  78  98 138 177 215 261 326
#     4   9  16  29  49  73 104 138 170 212 268 317
#     4  10  22  37  54  82 114 137 174 231 280 319
#     4   9  18  31  49  74 104 136 177 217 260 318
#     4  10  19  35  59  81 102 143 188 223 265 329
#
# _framework density 17.130064999999998
#
# number of rings (size 3 to 8) (size 9 to 14) (size 15 to 20)
#    0.000    2.429    2.857    0.000    0.000    0.857 
#    0.000    2.857    0.000    0.000    0.000    8.000 
#    0.000    0.000    0.000    0.000    0.000    0.000 
#
# Total GULP energy -155980.073637 kJ/mol
# GULP energy per Si atom -5570.716916 kJ/mol
# Density = 1.709108 g / cm^3
# Si number density = 17.130065 Si / 1000 Ang^3
#
#
#
# Elastic Constant Matrix: (Units=GPa)
#
#
# Indices 1 2 3 4 5 6 
#
# 1 147.4005 57.3526 36.2650 0.0000 0.0000 0.0000
# 2 57.3526 118.5653 39.2856 0.0000 0.0000 0.0000
# 3 36.2650 39.2856 78.8860 0.0000 0.0000 0.0000
# 4 0.0000 0.0000 0.0000 10.4548 0.0000 0.0000
# 5 0.0000 0.0000 0.0000 0.0000 2.9186 0.0000
# 6 0.0000 0.0000 0.0000 0.0000 0.0000 13.2567
#
#
#
# Elastic Compliance Matrix: (Units=1/GPa)
#
#
# Indices 1 2 3 4 5 6 
#
# 1 0.008686 -0.003447 -0.002276 0.000000 0.000000 0.000000
# 2 -0.003447 0.011469 -0.004127 0.000000 0.000000 0.000000
# 3 -0.002276 -0.004127 0.015778 0.000000 0.000000 0.000000
# 4 0.000000 0.000000 0.000000 0.095650 0.000000 0.000000
# 5 0.000000 0.000000 0.000000 0.000000 0.342632 0.000000
# 6 0.000000 0.000000 0.000000 0.000000 0.000000 0.075433
#
#
# Mechanical properties :
#
#
# Convention : Reuss Voigt Hill
#
# Bulk Modulus (GPa) = 61.60596 67.85092 64.72844
# Shear Modulus (GPa) = 8.69929 19.45591 14.07760
#
# Velocity S-wave (km/s) = 2.25597 3.37378 2.86983
# Velocity P-wave (km/s) = 6.54428 7.40755 6.98926
#
# Compressibility (1/GPa) = 0.01623220
#
# Stress axis : x y z
#
# Youngs Moduli (GPa) = 115.13414 87.19093 63.37886
#
# Poissons Ratio (x) = 0.30056 0.14426
# Poissons Ratio (y) = 0.39689 0.26156
# Poissons Ratio (z) = 0.26206 0.35983
#
# Static dielectric constant tensor:
#      x y z
#    x 1.608860 0.000000 0.000000 
#    y 0.000000 1.534110 0.000000 
#    z 0.000000 0.000000 1.630340 
# 
# From -- ./inp_files/11905.got.cif
#   From: 2010.05.17/outbox.cif.g08.bks.cpg/sg71_6_cif.got.tgz:11905.got - 2010.06.03 16:22:01.
