data_PCOD9518468
_publ_section_title
;
Structure prediction by ZEFSAII (Michael W. Deem and Ramdas Pophale) SiO2 
 PCOD9518468
Probable space group: I M M M
;
_chemical_formula_sum "Si O2"
_cell_formula_units_Z 96
_cell_length_a 13.326844
_cell_length_b 14.454766
_cell_length_c 21.997091
_cell_angle_alpha 90.000000
_cell_angle_beta 90.000000
_cell_angle_gamma 90.000000
_cell_volume 4237.440675
_symmetry_space_group_name_H-M "I M M M"
_symmetry_group_IT_number 71
_symmetry_cell_setting 'orthorhombic'
loop_
_space_group_symop_operation_xyz
x,y,z
-x,-y,z
x,-y,-z
-x,y,-z
-x,-y,-z
x,y,-z
-x,y,z
x,-y,z
1/2+x,1/2+y,1/2+z
1/2-x,1/2-y,1/2+z
1/2+x,1/2-y,1/2-z
1/2-x,1/2+y,1/2-z
1/2-x,1/2-y,1/2-z
1/2+x,1/2+y,1/2-z
1/2-x,1/2+y,1/2+z
1/2+x,1/2-y,1/2+z
loop_
_atom_site_type_symbol
_atom_site_label
_atom_site_fract_x
_atom_site_fract_y
_atom_site_fract_z
Si Si1 0.679317 0.500000 0.361737
Si Si2 0.889041 0.000000 0.734097
Si Si3 0.119069 0.208825 0.270621
Si Si4 0.668950 0.310534 0.432865
Si Si5 0.104815 0.500000 0.361640
Si Si6 0.388334 0.166254 0.660314
Si Si7 0.377177 0.000000 0.573077
Si Si8 0.109962 0.295557 0.404138
O O1 0.603854 0.500000 0.306942
O O2 0.671973 0.411364 0.403656
O O3 0.789065 0.500000 0.328626
O O4 0.842963 0.102399 0.721977
O O5 0.000000 0.000000 0.704654
O O6 0.158912 0.280340 0.218859
O O7 0.121271 0.259695 0.335172
O O8 0.000000 0.196797 0.254242
O O9 0.627753 0.311098 0.500000
O O10 0.606982 0.248794 0.387608
O O11 0.784256 0.273390 0.434359
O O12 0.105080 0.407227 0.401321
O O13 0.000000 0.500000 0.325389
O O14 0.500000 0.134010 0.679463
O O15 0.344738 0.085934 0.616419
O O16 0.500000 0.000000 0.570487
O O17 0.346446 0.000000 0.500000
O O18 0.000000 0.263221 0.426682
#
# Coordination Sequence:
#
# PCOD9518468 Si02
#       8
#     8   8  16  16   8  16   8  16
#     4  10  19  34  51  77 106 144 181 222 267 324
#     4  10  18  33  54  80 115 145 174 217 269 328
#     4   9  18  33  56  80 107 141 175 220 274 328
#     4  11  22  35  54  79 109 145 184 227 271 324
#     4   8  16  32  51  72 103 136 172 222 268 311
#     4  10  20  35  54  79 108 142 181 220 267 323
#     4   9  18  33  52  73 104 145 181 214 255 308
#     4   9  19  36  56  79 106 140 182 229 280 330
#
# _framework density 22.655184999999999
#
# number of rings (size 3 to 8) (size 9 to 14) (size 15 to 20)
#    0.000    2.417    1.667    0.750    0.000    2.667 
#    0.000    4.167    0.000    6.500    0.000    0.000 
#    0.000    5.333    0.000    0.000    0.000    0.000 
#
# Total GULP energy -267233.673283 kJ/mol
# GULP energy per Si atom -5567.368193 kJ/mol
# Density = 2.260362 g / cm^3
# Si number density = 22.655185 Si / 1000 Ang^3
#
#
#
# Elastic Constant Matrix: (Units=GPa)
#
#
# Indices 1 2 3 4 5 6 
#
# 1 72.9698 -3.9406 2.6190 0.0000 0.0000 0.0000
# 2 -3.9406 71.1209 54.4510 0.0000 0.0000 0.0000
# 3 2.6190 54.4510 119.5486 0.0000 0.0000 0.0000
# 4 0.0000 0.0000 0.0000 10.6642 0.0000 0.0000
# 5 0.0000 0.0000 0.0000 0.0000 42.4001 0.0000
# 6 0.0000 0.0000 0.0000 0.0000 0.0000 22.5381
#
#
#
# Elastic Compliance Matrix: (Units=1/GPa)
#
#
# Indices 1 2 3 4 5 6 
#
# 1 0.013823 0.001532 -0.001001 0.000000 0.000000 0.000000
# 2 0.001532 0.021759 -0.009944 0.000000 0.000000 0.000000
# 3 -0.001001 -0.009944 0.012916 0.000000 0.000000 0.000000
# 4 0.000000 0.000000 0.000000 0.093771 0.000000 0.000000
# 5 0.000000 0.000000 0.000000 0.000000 0.023585 0.000000
# 6 0.000000 0.000000 0.000000 0.000000 0.000000 0.044369
#
#
# Mechanical properties :
#
#
# Convention : Reuss Voigt Hill
#
# Bulk Modulus (GPa) = 33.70149 41.09978 37.40064
# Shear Modulus (GPa) = 20.92582 29.15447 25.04015
#
# Velocity S-wave (km/s) = 3.04248 3.59120 3.32817
# Velocity P-wave (km/s) = 5.22019 5.94781 5.59584
#
# Compressibility (1/GPa) = 0.02967228
#
# Stress axis : x y z
#
# Youngs Moduli (GPa) = 72.34345 45.95854 77.42357
#
# Poissons Ratio (x) = -0.07041 0.07747
# Poissons Ratio (y) = -0.11083 0.76990
# Poissons Ratio (z) = 0.07239 0.45701
#
# Static dielectric constant tensor:
#      x y z
#    x 1.974800 0.000000 0.000000 
#    y 0.000000 1.855640 0.000000 
#    z 0.000000 0.000000 1.780580 
# 
# From -- ./inp_files/59891.got.cif
#   From: 2010.05.17/outbox.cif.g08.bks.cpg/sg71_30_cif.got.tgz:59891.got - 2010.06.03 16:22:01.
