data_PCOD9518445
_publ_section_title
;
Structure prediction by ZEFSAII (Michael W. Deem and Ramdas Pophale) SiO2 
 PCOD9518445
Probable space group: I M M M
;
_chemical_formula_sum "Si O2"
_cell_formula_units_Z 88
_cell_length_a 19.069511
_cell_length_b 8.016326
_cell_length_c 29.411112
_cell_angle_alpha 90.000000
_cell_angle_beta 90.000000
_cell_angle_gamma 90.000000
_cell_volume 4496.000718
_symmetry_space_group_name_H-M "I M M M"
_symmetry_group_IT_number 71
_symmetry_cell_setting 'orthorhombic'
loop_
_space_group_symop_operation_xyz
x,y,z
-x,-y,z
x,-y,-z
-x,y,-z
-x,-y,-z
x,y,-z
-x,y,z
x,-y,z
1/2+x,1/2+y,1/2+z
1/2-x,1/2-y,1/2+z
1/2+x,1/2-y,1/2-z
1/2-x,1/2+y,1/2-z
1/2-x,1/2-y,1/2-z
1/2+x,1/2+y,1/2-z
1/2-x,1/2+y,1/2+z
1/2+x,1/2-y,1/2+z
loop_
_atom_site_type_symbol
_atom_site_label
_atom_site_fract_x
_atom_site_fract_y
_atom_site_fract_z
Si Si1 0.793768 0.302466 0.053242
Si Si2 0.333537 0.297996 0.295307
Si Si3 0.919751 0.798046 0.115925
Si Si4 0.652599 0.182355 0.903098
Si Si5 0.583471 0.500000 0.051463
Si Si6 0.826468 0.805165 0.694044
O O1 0.778676 0.500000 0.056602
O O2 0.867942 0.267157 0.077004
O O3 0.733114 0.207168 0.080745
O O4 0.793561 0.255821 0.000000
O O5 0.324435 0.500000 0.296511
O O6 0.386724 0.250323 0.335169
O O7 0.257774 0.216871 0.303608
O O8 0.355009 0.255449 0.243676
O O9 0.000000 0.741811 0.111252
O O10 0.919089 0.000000 0.114015
O O11 0.610709 0.334111 0.924644
O O12 0.648667 0.200770 0.848839
O O13 0.628172 0.000000 0.917733
O O14 0.500000 0.500000 0.051065
O O15 0.611059 0.500000 0.000000
O O16 0.842427 0.000000 0.686066
#
# Coordination Sequence:
#
# PCOD9518445 Si02
#       6
#    16  16  16  16   8  16
#     4  11  23  39  60  88 121 159 212 267 311 368
#     4   9  18  32  53  84 121 161 207 257 315 373
#     4  10  21  37  56  83 122 166 214 265 317 376
#     4  12  23  40  68  99 129 163 208 261 312 368
#     4  11  26  48  70  96 131 165 203 251 315 393
#     4  10  18  32  57  89 125 156 203 261 310 365
#
# _framework density 19.572949000000001
#
# number of rings (size 3 to 8) (size 9 to 14) (size 15 to 20)
#    0.000    1.545    3.636    1.636    0.000    4.364 
#    0.000    3.636    0.000    0.000    0.000    0.000 
#    0.000    0.000    0.000    0.000    0.000    0.000 
#
# Total GULP energy -245851.710076 kJ/mol
# GULP energy per Si atom -5587.538865 kJ/mol
# Density = 1.952840 g / cm^3
# Si number density = 19.572949 Si / 1000 Ang^3
#
#
#
# Elastic Constant Matrix: (Units=GPa)
#
#
# Indices 1 2 3 4 5 6 
#
# 1 44.0501 15.3077 9.8462 0.0000 0.0000 0.0000
# 2 15.3077 83.9555 34.4016 0.0000 0.0000 0.0000
# 3 9.8462 34.4016 110.8951 0.0000 0.0000 0.0000
# 4 0.0000 0.0000 0.0000 18.8293 0.0000 0.0000
# 5 0.0000 0.0000 0.0000 0.0000 23.4189 0.0000
# 6 0.0000 0.0000 0.0000 0.0000 0.0000 11.0862
#
#
#
# Elastic Compliance Matrix: (Units=1/GPa)
#
#
# Indices 1 2 3 4 5 6 
#
# 1 0.024315 -0.004066 -0.000898 0.000000 0.000000 0.000000
# 2 -0.004066 0.014325 -0.004083 0.000000 0.000000 0.000000
# 3 -0.000898 -0.004083 0.010364 0.000000 0.000000 0.000000
# 4 0.000000 0.000000 0.000000 0.053109 0.000000 0.000000
# 5 0.000000 0.000000 0.000000 0.000000 0.042701 0.000000
# 6 0.000000 0.000000 0.000000 0.000000 0.000000 0.090202
#
#
# Mechanical properties :
#
#
# Convention : Reuss Voigt Hill
#
# Bulk Modulus (GPa) = 32.35020 39.77907 36.06464
# Shear Modulus (GPa) = 18.98170 22.62325 20.80247
#
# Velocity S-wave (km/s) = 3.11753 3.40346 3.26363
# Velocity P-wave (km/s) = 5.43346 5.98434 5.71554
#
# Compressibility (1/GPa) = 0.03091171
#
# Stress axis : x y z
#
# Youngs Moduli (GPa) = 41.12706 69.80607 96.48915
#
# Poissons Ratio (x) = 0.28380 0.08662
# Poissons Ratio (y) = 0.16720 0.39397
# Poissons Ratio (z) = 0.03692 0.28502
#
# Static dielectric constant tensor:
#      x y z
#    x 1.650450 0.000000 0.000000 
#    y 0.000000 1.689700 0.000000 
#    z 0.000000 0.000000 1.691990 
# 
# From -- ./inp_files/70346.got.cif
#   From: 2010.05.17/outbox.cif.g08.bks.cpg/sg71_36_cif.got.tgz:70346.got - 2010.06.03 16:22:01.
