data_PCOD9518529
_publ_section_title
;
Structure prediction by ZEFSAII (Michael W. Deem and Ramdas Pophale) SiO2 
 PCOD9518529
Probable space group: I M M M
;
_chemical_formula_sum "Si O2"
_cell_formula_units_Z 88
_cell_length_a 18.695317
_cell_length_b 19.445625
_cell_length_c 13.857311
_cell_angle_alpha 90.000000
_cell_angle_beta 90.000000
_cell_angle_gamma 90.000000
_cell_volume 5037.716269
_symmetry_space_group_name_H-M "I M M M"
_symmetry_group_IT_number 71
_symmetry_cell_setting 'orthorhombic'
loop_
_space_group_symop_operation_xyz
x,y,z
-x,-y,z
x,-y,-z
-x,y,-z
-x,-y,-z
x,y,-z
-x,y,z
x,-y,z
1/2+x,1/2+y,1/2+z
1/2-x,1/2-y,1/2+z
1/2+x,1/2-y,1/2-z
1/2-x,1/2+y,1/2-z
1/2-x,1/2-y,1/2-z
1/2+x,1/2+y,1/2-z
1/2-x,1/2+y,1/2+z
1/2+x,1/2-y,1/2+z
loop_
_atom_site_type_symbol
_atom_site_label
_atom_site_fract_x
_atom_site_fract_y
_atom_site_fract_z
Si Si1 0.829635 0.317624 0.891417
Si Si2 0.343856 0.841648 0.181792
Si Si3 0.315563 0.655393 0.388677
Si Si4 0.415263 0.580006 0.749762
Si Si5 0.657892 0.686952 0.110962
Si Si6 0.585544 0.081297 0.000000
O O1 0.861412 0.352634 0.795097
O O2 0.839893 0.235035 0.882142
O O3 0.743351 0.325994 0.887501
O O4 0.853280 0.338428 0.000000
O O5 0.258691 0.852775 0.168231
O O6 0.355676 0.761021 0.158747
O O7 0.382841 0.884454 0.097746
O O8 0.299857 0.641268 0.500000
O O9 0.375135 0.606113 0.345661
O O10 0.500000 0.589352 0.742005
O O11 0.400263 0.500000 0.767412
O O12 0.383317 0.627736 0.833375
O O13 0.635599 0.690980 0.000000
O O14 0.500000 0.090285 0.000000
O O15 0.602032 0.000000 0.000000
#
# Coordination Sequence:
#
# PCOD9518529 Si02
#       6
#    16  16  16  16  16   8
#     4   9  17  31  60  90 113 137 183 247 287 317
#     4  11  17  37  64  88 110 144 188 229 284 349
#     4  10  18  34  57  82 109 144 192 242 286 330
#     4  11  24  37  48  72 116 163 200 239 282 328
#     4  10  18  34  57  82 109 144 192 242 286 330
#     4  11  26  42  58  92 126 138 164 228 300 357
#
# _framework density 17.468232
#
# number of rings (size 3 to 8) (size 9 to 14) (size 15 to 20)
#    0.000    1.727    5.455    2.182    0.000    2.909 
#    0.000    1.818    0.000    1.091    0.000    1.273 
#    0.000    0.000    0.000    0.000    0.000    0.000 
#
# Total GULP energy -245336.326282 kJ/mol
# GULP energy per Si atom -5575.825597 kJ/mol
# Density = 1.742847 g / cm^3
# Si number density = 17.468232 Si / 1000 Ang^3
#
#
#
# Elastic Constant Matrix: (Units=GPa)
#
#
# Indices 1 2 3 4 5 6 
#
# 1 36.5070 50.7773 19.3845 0.0000 0.0000 0.0000
# 2 50.7773 82.6486 42.7635 0.0000 0.0000 0.0000
# 3 19.3845 42.7635 161.3395 0.0000 0.0000 0.0000
# 4 0.0000 0.0000 0.0000 23.4690 0.0000 0.0000
# 5 0.0000 0.0000 0.0000 0.0000 20.5398 0.0000
# 6 0.0000 0.0000 0.0000 0.0000 0.0000 22.7752
#
#
#
# Elastic Compliance Matrix: (Units=1/GPa)
#
#
# Indices 1 2 3 4 5 6 
#
# 1 0.201217 -0.128774 0.009956 0.000000 0.000000 0.000000
# 2 -0.128774 0.096435 -0.010089 0.000000 0.000000 0.000000
# 3 0.009956 -0.010089 0.007676 0.000000 0.000000 0.000000
# 4 0.000000 0.000000 0.000000 0.042609 0.000000 0.000000
# 5 0.000000 0.000000 0.000000 0.000000 0.048686 0.000000
# 6 0.000000 0.000000 0.000000 0.000000 0.000000 0.043907
#
#
# Mechanical properties :
#
#
# Convention : Reuss Voigt Hill
#
# Bulk Modulus (GPa) = 21.04607 56.26062 38.65335
# Shear Modulus (GPa) = 7.00102 24.52811 15.76457
#
# Velocity S-wave (km/s) = 2.00414 3.75127 3.00737
# Velocity P-wave (km/s) = 4.17490 7.14423 5.85106
#
# Compressibility (1/GPa) = 0.04751481
#
# Stress axis : x y z
#
# Youngs Moduli (GPa) = 4.96977 10.36967 130.27829
#
# Poissons Ratio (x) = 1.33535 -1.29709
# Poissons Ratio (y) = 0.63998 1.31431
# Poissons Ratio (z) = -0.04948 0.10461
#
# Static dielectric constant tensor:
#      x y z
#    x 1.569470 0.000000 0.000000 
#    y 0.000000 1.571580 0.000000 
#    z 0.000000 0.000000 1.644140 
# 
# From -- ./inp_files/37989.got.cif
#   From: 2010.05.17/outbox.cif.g08.bks.cpg/sg71_19_cif.got.tgz:37989.got - 2010.06.03 16:22:01.
