data_PCOD9518274
_publ_section_title
;
Structure prediction by ZEFSAII (Michael W. Deem and Ramdas Pophale) SiO2 
 PCOD9518274
Probable space group: I M M M
;
_chemical_formula_sum "Si O2"
_cell_formula_units_Z 68
_cell_length_a 15.960511
_cell_length_b 14.366134
_cell_length_c 13.437328
_cell_angle_alpha 90.000000
_cell_angle_beta 90.000000
_cell_angle_gamma 90.000000
_cell_volume 3081.056221
_symmetry_space_group_name_H-M "I M M M"
_symmetry_group_IT_number 71
_symmetry_cell_setting 'orthorhombic'
loop_
_space_group_symop_operation_xyz
x,y,z
-x,-y,z
x,-y,-z
-x,y,-z
-x,-y,-z
x,y,-z
-x,y,z
x,-y,z
1/2+x,1/2+y,1/2+z
1/2-x,1/2-y,1/2+z
1/2+x,1/2-y,1/2-z
1/2-x,1/2+y,1/2-z
1/2-x,1/2-y,1/2-z
1/2+x,1/2+y,1/2-z
1/2-x,1/2+y,1/2+z
1/2+x,1/2-y,1/2+z
loop_
_atom_site_type_symbol
_atom_site_label
_atom_site_fract_x
_atom_site_fract_y
_atom_site_fract_z
Si Si1 0.000000 0.148562 0.500000
Si Si2 0.500000 0.396265 0.784481
Si Si3 0.364451 0.112494 0.219592
Si Si4 0.375654 0.813372 0.000000
Si Si5 0.204825 0.896017 0.000000
Si Si6 0.327757 0.391754 0.719584
Si Si7 0.500000 0.886672 0.383958
O O1 0.000000 0.092465 0.599056
O O2 0.919383 0.215090 0.500000
O O3 0.500000 0.500000 0.735519
O O4 0.411514 0.346909 0.762910
O O5 0.396176 0.141233 0.108579
O O6 0.267188 0.143357 0.233643
O O7 0.420710 0.140137 0.314377
O O8 0.363622 0.000000 0.217632
O O9 0.275387 0.817876 0.000000
O O10 0.156154 0.891347 0.101562
O O11 0.247573 0.000000 0.000000
O O12 0.325806 0.500000 0.754916
O O13 0.500000 0.853924 0.500000
O O14 0.500000 0.000000 0.388871
#
# Coordination Sequence:
#
# PCOD9518274 Si02
#       7
#     4   8  16   8   8  16   8
#     4  12  25  36  47  72 100 142 192 234 257 302
#     4  10  21  39  54  70 100 139 186 234 270 300
#     4   9  16  30  53  83 113 139 170 211 267 329
#     4  10  18  31  52  78 106 136 167 215 270 311
#     4   8  14  29  54  87 116 129 156 207 267 339
#     4   8  15  29  53  81 104 131 167 214 268 319
#     4   9  17  27  40  68 109 143 173 212 251 302
#
# _framework density 22.070353000000001
#
# number of rings (size 3 to 8) (size 9 to 14) (size 15 to 20)
#    0.000    2.941    0.000    3.353    0.000    0.471 
#    2.118   10.882    0.000    0.000   12.235    0.000 
#    0.000    0.000    0.000    0.000    0.000    0.000 
#
# Total GULP energy -189275.015256 kJ/mol
# GULP energy per Si atom -5566.912213 kJ/mol
# Density = 2.202012 g / cm^3
# Si number density = 22.070353 Si / 1000 Ang^3
#
#
#
# Elastic Constant Matrix: (Units=GPa)
#
#
# Indices 1 2 3 4 5 6 
#
# 1 159.3062 15.0584 92.3302 0.0000 0.0000 0.0000
# 2 15.0584 67.1410 19.2304 0.0000 0.0000 0.0000
# 3 92.3302 19.2304 177.6844 0.0000 0.0000 0.0000
# 4 0.0000 0.0000 0.0000 11.9801 0.0000 0.0000
# 5 0.0000 0.0000 0.0000 0.0000 22.2327 0.0000
# 6 0.0000 0.0000 0.0000 0.0000 0.0000 37.0163
#
#
#
# Elastic Compliance Matrix: (Units=1/GPa)
#
#
# Indices 1 2 3 4 5 6 
#
# 1 0.009014 -0.000702 -0.004608 0.000000 0.000000 0.000000
# 2 -0.000702 0.015425 -0.001305 0.000000 0.000000 0.000000
# 3 -0.004608 -0.001305 0.008164 0.000000 0.000000 0.000000
# 4 0.000000 0.000000 0.000000 0.083472 0.000000 0.000000
# 5 0.000000 0.000000 0.000000 0.000000 0.044979 0.000000
# 6 0.000000 0.000000 0.000000 0.000000 0.000000 0.027015
#
#
# Mechanical properties :
#
#
# Convention : Reuss Voigt Hill
#
# Bulk Modulus (GPa) = 51.61641 73.04107 62.32874
# Shear Modulus (GPa) = 24.06668 32.74667 28.40667
#
# Velocity S-wave (km/s) = 3.30578 3.85611 3.59150
# Velocity P-wave (km/s) = 6.16514 7.27960 6.74543
#
# Compressibility (1/GPa) = 0.01937368
#
# Stress axis : x y z
#
# Youngs Moduli (GPa) = 110.93428 64.82919 122.49347
#
# Poissons Ratio (x) = 0.04550 0.56447
# Poissons Ratio (y) = 0.07786 0.15982
# Poissons Ratio (z) = 0.51120 0.08458
#
# Static dielectric constant tensor:
#      x y z
#    x 1.849150 0.000000 0.000000 
#    y 0.000000 1.823380 0.000000 
#    z 0.000000 0.000000 1.786900 
# 
# From -- ./inp_files/23563.got.cif
#   From: 2010.05.17/outbox.cif.g08.bks.cpg/sg71_12_cif.got.tgz:23563.got - 2010.06.03 16:22:01.
