data_PCOD9518805
_publ_section_title
;
Structure prediction by ZEFSAII (Michael W. Deem and Ramdas Pophale) SiO2 
 PCOD9518805
Probable space group: I M M M
;
_chemical_formula_sum "Si O2"
_cell_formula_units_Z 104
_cell_length_a 28.710979
_cell_length_b 9.639504
_cell_length_c 23.374448
_cell_angle_alpha 90.000000
_cell_angle_beta 90.000000
_cell_angle_gamma 90.000000
_cell_volume 6469.102807
_symmetry_space_group_name_H-M "I M M M"
_symmetry_group_IT_number 71
_symmetry_cell_setting 'orthorhombic'
loop_
_space_group_symop_operation_xyz
x,y,z
-x,-y,z
x,-y,-z
-x,y,-z
-x,-y,-z
x,y,-z
-x,y,z
x,-y,z
1/2+x,1/2+y,1/2+z
1/2-x,1/2-y,1/2+z
1/2+x,1/2-y,1/2-z
1/2-x,1/2+y,1/2-z
1/2-x,1/2-y,1/2-z
1/2+x,1/2+y,1/2-z
1/2-x,1/2+y,1/2+z
1/2+x,1/2-y,1/2+z
loop_
_atom_site_type_symbol
_atom_site_label
_atom_site_fract_x
_atom_site_fract_y
_atom_site_fract_z
Si Si1 0.801189 0.833762 0.680919
Si Si2 0.697754 0.838453 0.702990
Si Si3 0.444372 0.662565 0.768233
Si Si4 0.608530 0.332468 0.885015
Si Si5 0.596522 0.838284 0.663938
Si Si6 0.556008 0.655942 0.566068
Si Si7 0.554987 0.669752 0.000000
O O1 0.746272 0.806773 0.670934
O O2 0.809370 0.756928 0.741258
O O3 0.838887 0.788748 0.633136
O O4 0.807208 0.000000 0.688172
O O5 0.652259 0.824221 0.664768
O O6 0.700648 0.000000 0.721875
O O7 0.500000 0.675128 0.769614
O O8 0.432922 0.500000 0.757713
O O9 0.422799 0.700968 0.829600
O O10 0.423671 0.756288 0.718308
O O11 0.609793 0.500000 0.889977
O O12 0.583412 0.283901 0.943218
O O13 0.576338 0.769625 0.607493
O O14 0.584537 0.000000 0.668352
O O15 0.569308 0.675376 0.500000
O O16 0.500000 0.660496 0.568990
O O17 0.570211 0.500000 0.584073
O O18 0.554538 0.500000 0.000000
O O19 0.500000 0.711053 0.000000
#
# Coordination Sequence:
#
# PCOD9518805 Si02
#       7
#    16  16  16  16  16  16   8
#     4   9  16  29  49  69  92 122 161 200 236 285
#     4   9  18  30  45  69  99 125 154 194 239 284
#     4  10  19  30  45  68  97 126 159 198 239 284
#     4   9  16  27  45  68  94 126 161 198 244 291
#     4  11  21  31  46  71 101 128 156 192 241 294
#     4   9  19  36  55  72  92 123 163 201 234 275
#     4   9  16  26  42  68 101 129 157 201 252 295
#
# _framework density 16.076418
#
# number of rings (size 3 to 8) (size 9 to 14) (size 15 to 20)
#    0.000    2.538    1.538    1.846    0.000    5.231 
#    0.000    0.769    1.692    0.000    0.000    2.154 
#    0.000    3.692    0.000    0.000    0.000    0.000 
#
# Total GULP energy -289591.012296 kJ/mol
# GULP energy per Si atom -5569.057929 kJ/mol
# Density = 1.603983 g / cm^3
# Si number density = 16.076418 Si / 1000 Ang^3
#
#
#
# Elastic Constant Matrix: (Units=GPa)
#
#
# Indices 1 2 3 4 5 6 
#
# 1 95.0639 41.2396 68.4991 0.0000 0.0000 0.0000
# 2 41.2396 49.8540 48.4959 0.0000 0.0000 0.0000
# 3 68.4991 48.4959 93.4351 0.0000 0.0000 0.0000
# 4 0.0000 0.0000 0.0000 4.5504 0.0000 0.0000
# 5 0.0000 0.0000 0.0000 0.0000 24.9590 0.0000
# 6 0.0000 0.0000 0.0000 0.0000 0.0000 18.4068
#
#
#
# Elastic Compliance Matrix: (Units=1/GPa)
#
#
# Indices 1 2 3 4 5 6 
#
# 1 0.022970 -0.005292 -0.014093 0.000000 0.000000 0.000000
# 2 -0.005292 0.041733 -0.017781 0.000000 0.000000 0.000000
# 3 -0.014093 -0.017781 0.030264 0.000000 0.000000 0.000000
# 4 0.000000 0.000000 0.000000 0.219760 0.000000 0.000000
# 5 0.000000 0.000000 0.000000 0.000000 0.040066 0.000000
# 6 0.000000 0.000000 0.000000 0.000000 0.000000 0.054328
#
#
# Mechanical properties :
#
#
# Convention : Reuss Voigt Hill
#
# Bulk Modulus (GPa) = 48.46328 61.64689 55.05508
# Shear Modulus (GPa) = 10.19724 14.92445 12.56085
#
# Velocity S-wave (km/s) = 2.52126 3.05018 2.79824
# Velocity P-wave (km/s) = 6.21986 7.12981 6.69032
#
# Compressibility (1/GPa) = 0.02063418
#
# Stress axis : x y z
#
# Youngs Moduli (GPa) = 43.53593 23.96196 33.04306
#
# Poissons Ratio (x) = 0.12680 0.46567
# Poissons Ratio (y) = 0.23037 0.58755
# Poissons Ratio (z) = 0.61355 0.42608
#
# Static dielectric constant tensor:
#      x y z
#    x 1.568220 0.000000 0.000000 
#    y 0.000000 1.535450 0.000000 
#    z 0.000000 0.000000 1.513490 
# 
# From -- ./inp_files/56696.got.cif
#   From: 2010.05.17/outbox.cif.g08.bks.cpg/sg71_29_cif.got.tgz:56696.got - 2010.06.03 16:22:01.
