data_PCOD9518997
_publ_section_title
;
Structure prediction by ZEFSAII (Michael W. Deem and Ramdas Pophale) SiO2 
 PCOD9518997
Probable space group: I M M M
;
_chemical_formula_sum "Si O2"
_cell_formula_units_Z 104
_cell_length_a 8.985115
_cell_length_b 25.091730
_cell_length_c 20.932534
_cell_angle_alpha 90.000000
_cell_angle_beta 90.000000
_cell_angle_gamma 90.000000
_cell_volume 4719.283322
_symmetry_space_group_name_H-M "I M M M"
_symmetry_group_IT_number 71
_symmetry_cell_setting 'orthorhombic'
loop_
_space_group_symop_operation_xyz
x,y,z
-x,-y,z
x,-y,-z
-x,y,-z
-x,-y,-z
x,y,-z
-x,y,z
x,-y,z
1/2+x,1/2+y,1/2+z
1/2-x,1/2-y,1/2+z
1/2+x,1/2-y,1/2-z
1/2-x,1/2+y,1/2-z
1/2-x,1/2-y,1/2-z
1/2+x,1/2+y,1/2-z
1/2-x,1/2+y,1/2+z
1/2+x,1/2-y,1/2+z
loop_
_atom_site_type_symbol
_atom_site_label
_atom_site_fract_x
_atom_site_fract_y
_atom_site_fract_z
Si Si1 0.329179 0.114182 0.423590
Si Si2 0.172998 0.058580 0.897472
Si Si3 0.325924 0.169645 0.740774
Si Si4 0.325647 0.559588 0.241711
Si Si5 0.181141 0.500000 0.075490
Si Si6 0.322392 0.280958 0.124522
Si Si7 0.324633 0.167599 0.105902
O O1 0.337592 0.109629 0.500000
O O2 0.500000 0.120821 0.400824
O O3 0.234176 0.165716 0.408550
O O4 0.265657 0.057248 0.400129
O O5 0.179072 0.059184 0.819769
O O6 0.249442 0.113551 0.918515
O O7 0.000000 0.060265 0.915793
O O8 0.233532 0.000000 0.917422
O O9 0.500000 0.177578 0.729344
O O10 0.271576 0.110189 0.721672
O O11 0.236210 0.210694 0.696813
O O12 0.304388 0.170641 0.816950
O O13 0.500000 0.566852 0.224237
O O14 0.275682 0.500000 0.222659
O O15 0.000000 0.500000 0.081535
O O16 0.215248 0.500000 0.000000
O O17 0.500000 0.278350 0.126345
O O18 0.269501 0.227037 0.088748
O O19 0.500000 0.163567 0.091922
#
# Coordination Sequence:
#
# PCOD9518997 Si02
#       7
#    16  16  16  16   8  16  16
#     4   9  18  35  58  79  97 120 155 201 251 301
#     4   8  14  25  43  66  89 117 154 194 235 276
#     4  10  19  31  46  64  88 123 167 205 239 280
#     4   8  14  26  42  59  83 115 150 191 240 284
#     4   7  12  28  55  79  95 115 147 193 247 295
#     4  11  22  34  47  68  98 128 160 197 242 292
#     4   9  19  32  46  66  94 129 166 203 238 279
#
# _framework density 22.037246
#
# number of rings (size 3 to 8) (size 9 to 14) (size 15 to 20)
#    0.000    3.000    0.000    3.231    0.000    2.769 
#    1.385    3.462    0.000    1.385    0.000    0.000 
#    0.000    0.615    0.000    6.769    0.000    5.231 
#
# Total GULP energy -290026.569574 kJ/mol
# GULP energy per Si atom -5577.434030 kJ/mol
# Density = 2.198709 g / cm^3
# Si number density = 22.037246 Si / 1000 Ang^3
#
#
#
# Elastic Constant Matrix: (Units=GPa)
#
#
# Indices 1 2 3 4 5 6 
#
# 1 56.6248 67.1285 -6.0585 0.0000 0.0000 0.0000
# 2 67.1285 224.9528 7.7657 0.0000 0.0000 0.0000
# 3 -6.0585 7.7657 37.8206 0.0000 0.0000 0.0000
# 4 0.0000 0.0000 0.0000 17.8733 0.0000 0.0000
# 5 0.0000 0.0000 0.0000 0.0000 5.6195 0.0000
# 6 0.0000 0.0000 0.0000 0.0000 0.0000 35.3060
#
#
#
# Elastic Compliance Matrix: (Units=1/GPa)
#
#
# Indices 1 2 3 4 5 6 
#
# 1 0.028798 -0.008815 0.006423 0.000000 0.000000 0.000000
# 2 -0.008815 0.007176 -0.002885 0.000000 0.000000 0.000000
# 3 0.006423 -0.002885 0.028062 0.000000 0.000000 0.000000
# 4 0.000000 0.000000 0.000000 0.055949 0.000000 0.000000
# 5 0.000000 0.000000 0.000000 0.000000 0.177953 0.000000
# 6 0.000000 0.000000 0.000000 0.000000 0.000000 0.028324
#
#
# Mechanical properties :
#
#
# Convention : Reuss Voigt Hill
#
# Bulk Modulus (GPa) = 18.69851 50.78551 34.74201
# Shear Modulus (GPa) = 14.09866 28.46392 21.28129
#
# Velocity S-wave (km/s) = 2.53210 3.59782 3.11094
# Velocity P-wave (km/s) = 4.12942 6.35251 5.35754
#
# Compressibility (1/GPa) = 0.05348020
#
# Stress axis : x y z
#
# Youngs Moduli (GPa) = 34.72471 139.36123 35.63534
#
# Poissons Ratio (x) = 1.22852 -0.22889
# Poissons Ratio (y) = 0.30611 0.10283
# Poissons Ratio (z) = -0.22304 0.40213
#
# Static dielectric constant tensor:
#      x y z
#    x 1.737330 0.000000 0.000000 
#    y 0.000000 1.861040 0.000000 
#    z 0.000000 0.000000 1.896200 
# 
# From -- ./inp_files/13613.got.cif
#   From: 2010.05.17/outbox.cif.g08.bks.cpg/sg71_7_cif.got.tgz:13613.got - 2010.06.03 16:22:01.
