data_PCOD9518752
_publ_section_title
;
Structure prediction by ZEFSAII (Michael W. Deem and Ramdas Pophale) SiO2 
 PCOD9518752
Probable space group: I M M M
;
_chemical_formula_sum "Si O2"
_cell_formula_units_Z 96
_cell_length_a 23.641439
_cell_length_b 14.998119
_cell_length_c 14.068399
_cell_angle_alpha 90.000000
_cell_angle_beta 90.000000
_cell_angle_gamma 90.000000
_cell_volume 4988.332336
_symmetry_space_group_name_H-M "I M M M"
_symmetry_group_IT_number 71
_symmetry_cell_setting 'orthorhombic'
loop_
_space_group_symop_operation_xyz
x,y,z
-x,-y,z
x,-y,-z
-x,y,-z
-x,-y,-z
x,y,-z
-x,y,z
x,-y,z
1/2+x,1/2+y,1/2+z
1/2-x,1/2-y,1/2+z
1/2+x,1/2-y,1/2-z
1/2-x,1/2+y,1/2-z
1/2-x,1/2-y,1/2-z
1/2+x,1/2+y,1/2-z
1/2-x,1/2+y,1/2+z
1/2+x,1/2-y,1/2+z
loop_
_atom_site_type_symbol
_atom_site_label
_atom_site_fract_x
_atom_site_fract_y
_atom_site_fract_z
Si Si1 0.693231 0.406080 0.301013
Si Si2 0.567925 0.601917 0.107846
Si Si3 0.752831 0.371695 0.894708
Si Si4 0.616172 0.748705 0.748979
Si Si5 0.611838 0.898008 0.388329
Si Si6 0.704036 0.825284 0.894449
O O1 0.664647 0.500000 0.322927
O O2 0.714893 0.405373 0.191768
O O3 0.654293 0.319744 0.312556
O O4 0.750273 0.396536 0.361389
O O5 0.500000 0.599711 0.104363
O O6 0.586347 0.500000 0.132238
O O7 0.584592 0.679203 0.181266
O O8 0.588790 0.621561 0.000000
O O9 0.819247 0.390540 0.880254
O O10 0.739431 0.266847 0.894815
O O11 0.737351 0.404206 0.000000
O O12 0.587432 0.820018 0.678781
O O13 0.655506 0.808422 0.817932
O O14 0.598544 0.884578 0.500000
O O15 0.596224 0.000000 0.362642
O O16 0.682013 0.842168 0.000000
#
# Coordination Sequence:
#
# PCOD9518752 Si02
#       6
#    16  16  16  16  16  16
#     4  11  20  29  42  67 102 139 174 211 257 313
#     4   9  19  37  61  88 114 137 166 210 264 319
#     4   9  16  29  44  59  87 127 170 214 254 291
#     4  11  19  33  52  78 102 137 180 226 264 319
#     4  10  19  31  50  73  99 135 180 225 265 307
#     4  10  19  30  42  63  99 140 176 213 255 307
#
# _framework density 19.244909
#
# number of rings (size 3 to 8) (size 9 to 14) (size 15 to 20)
#    0.000    2.000    3.333    3.000    0.000    2.000 
#    0.000    0.000    0.000    4.000    0.000    3.500 
#    0.000    0.000    0.000    0.000    0.000    0.000 
#
# Total GULP energy -267563.597938 kJ/mol
# GULP energy per Si atom -5574.241624 kJ/mol
# Density = 1.920111 g / cm^3
# Si number density = 19.244909 Si / 1000 Ang^3
#
#
#
# Elastic Constant Matrix: (Units=GPa)
#
#
# Indices 1 2 3 4 5 6 
#
# 1 15.1666 6.7717 7.1997 0.0000 0.0000 0.0000
# 2 6.7717 126.5834 73.5095 0.0000 0.0000 0.0000
# 3 7.1997 73.5095 82.9073 0.0000 0.0000 0.0000
# 4 0.0000 0.0000 0.0000 -7.2141 0.0000 0.0000
# 5 0.0000 0.0000 0.0000 0.0000 20.0632 0.0000
# 6 0.0000 0.0000 0.0000 0.0000 0.0000 1.3368
#
#
#
# Elastic Compliance Matrix: (Units=1/GPa)
#
#
# Indices 1 2 3 4 5 6 
#
# 1 0.068781 -0.000435 -0.005587 0.000000 0.000000 0.000000
# 2 -0.000435 0.016288 -0.014404 0.000000 0.000000 0.000000
# 3 -0.005587 -0.014404 0.025318 0.000000 0.000000 0.000000
# 4 0.000000 0.000000 0.000000 -0.138617 0.000000 0.000000
# 5 0.000000 0.000000 0.000000 0.000000 0.049842 0.000000
# 6 0.000000 0.000000 0.000000 0.000000 0.000000 0.748059
#
#
# Mechanical properties :
#
#
# Convention : Reuss Voigt Hill
#
# Bulk Modulus (GPa) = 14.38135 44.40212 29.39173
# Shear Modulus (GPa) = 5.99735 11.98227 8.98981
#
# Velocity S-wave (km/s) = 1.76723 2.49794 2.16366
# Velocity P-wave (km/s) = 3.41367 5.60730 4.64193
#
# Compressibility (1/GPa) = 0.06953452
#
# Stress axis : x y z
#
# Youngs Moduli (GPa) = 14.53895 61.39598 39.49777
#
# Poissons Ratio (x) = 0.02669 0.22069
# Poissons Ratio (y) = 0.00632 0.56891
# Poissons Ratio (z) = 0.08124 0.88433
#
# Static dielectric constant tensor:
#      x y z
#    x 1.668950 0.000000 0.000000 
#    y 0.000000 1.706250 0.000000 
#    z 0.000000 0.000000 1.711880 
# 
# From -- ./inp_files/37837.got.cif
#   From: 2010.05.17/outbox.cif.g08.bks.cpg/sg71_19_cif.got.tgz:37837.got - 2010.06.03 16:22:01.
