data_PCOD9518096
_publ_section_title
;
Structure prediction by ZEFSAII (Michael W. Deem and Ramdas Pophale) SiO2 
 PCOD9518096
Probable space group: I M M M
;
_chemical_formula_sum "Si O2"
_cell_formula_units_Z 96
_cell_length_a 24.084797
_cell_length_b 22.882456
_cell_length_c 8.005609
_cell_angle_alpha 90.000000
_cell_angle_beta 90.000000
_cell_angle_gamma 90.000000
_cell_volume 4412.045689
_symmetry_space_group_name_H-M "I M M M"
_symmetry_group_IT_number 71
_symmetry_cell_setting 'orthorhombic'
loop_
_space_group_symop_operation_xyz
x,y,z
-x,-y,z
x,-y,-z
-x,y,-z
-x,-y,-z
x,y,-z
-x,y,z
x,-y,z
1/2+x,1/2+y,1/2+z
1/2-x,1/2-y,1/2+z
1/2+x,1/2-y,1/2-z
1/2-x,1/2+y,1/2-z
1/2-x,1/2-y,1/2-z
1/2+x,1/2+y,1/2-z
1/2-x,1/2+y,1/2+z
1/2+x,1/2-y,1/2+z
loop_
_atom_site_type_symbol
_atom_site_label
_atom_site_fract_x
_atom_site_fract_y
_atom_site_fract_z
Si Si1 0.165741 0.850909 0.301957
Si Si2 0.500000 0.091931 0.308379
Si Si3 0.500000 0.220742 0.811826
Si Si4 0.936785 0.932343 0.797990
Si Si5 0.114304 0.263102 0.196782
Si Si6 0.379896 0.897677 0.295420
Si Si7 0.759911 0.436263 0.795771
O O1 0.171200 0.846248 0.500000
O O2 0.110942 0.889166 0.263647
O O3 0.159203 0.785776 0.233520
O O4 0.219091 0.885803 0.235562
O O5 0.500000 0.071424 0.500000
O O6 0.500000 0.163226 0.304763
O O7 0.560609 0.077519 0.235250
O O8 0.443950 0.255366 0.779062
O O9 0.500000 0.198221 0.000000
O O10 0.000000 0.917346 0.744627
O O11 0.926062 0.000000 0.747451
O O12 0.936163 0.930555 0.000000
O O13 0.125548 0.329363 0.253973
O O14 0.105431 0.265662 0.000000
O O15 0.382128 0.899767 0.500000
O O16 0.323625 0.928732 0.242631
O O17 0.738664 0.500000 0.745827
O O18 0.760096 0.434241 0.000000
#
# Coordination Sequence:
#
# PCOD9518096 Si02
#       7
#    16   8   8  16  16  16  16
#     4  11  22  33  49  76 107 140 180 224 268 316
#     4   8  14  28  51  78 108 139 169 206 255 310
#     4  10  18  30  50  77 108 138 172 212 257 314
#     4   9  19  36  55  73  97 134 179 225 272 318
#     4  10  20  34  52  75 106 144 178 217 266 316
#     4   8  15  30  52  76 104 140 178 212 259 323
#     4   9  18  33  52  75 106 141 175 219 274 322
#
# _framework density 21.758616
#
# number of rings (size 3 to 8) (size 9 to 14) (size 15 to 20)
#    0.000    2.667    0.000    3.750    1.167    2.000 
#    0.000    1.250    0.000   11.500    0.000    0.000 
#    0.000   10.667    0.000    0.000    0.000    0.000 
#
# Total GULP energy -267844.084315 kJ/mol
# GULP energy per Si atom -5580.085090 kJ/mol
# Density = 2.170909 g / cm^3
# Si number density = 21.758616 Si / 1000 Ang^3
#
#
#
# Elastic Constant Matrix: (Units=GPa)
#
#
# Indices 1 2 3 4 5 6 
#
# 1 88.7123 25.9737 -0.5559 0.0000 0.0000 0.0000
# 2 25.9737 63.3715 5.8970 0.0000 0.0000 0.0000
# 3 -0.5559 5.8970 31.6354 0.0000 0.0000 0.0000
# 4 0.0000 0.0000 0.0000 8.6852 0.0000 0.0000
# 5 0.0000 0.0000 0.0000 0.0000 6.1335 0.0000
# 6 0.0000 0.0000 0.0000 0.0000 0.0000 29.7969
#
#
#
# Elastic Compliance Matrix: (Units=1/GPa)
#
#
# Indices 1 2 3 4 5 6 
#
# 1 0.012856 -0.005384 0.001229 0.000000 0.000000 0.000000
# 2 -0.005384 0.018313 -0.003508 0.000000 0.000000 0.000000
# 3 0.001229 -0.003508 0.032286 0.000000 0.000000 0.000000
# 4 0.000000 0.000000 0.000000 0.115139 0.000000 0.000000
# 5 0.000000 0.000000 0.000000 0.000000 0.163039 0.000000
# 6 0.000000 0.000000 0.000000 0.000000 0.000000 0.033561
#
#
# Mechanical properties :
#
#
# Convention : Reuss Voigt Hill
#
# Bulk Modulus (GPa) = 20.77703 27.37209 24.07456
# Shear Modulus (GPa) = 12.29824 19.08340 15.69082
#
# Velocity S-wave (km/s) = 2.38000 2.96472 2.68830
# Velocity P-wave (km/s) = 4.13789 4.93220 4.55240
#
# Compressibility (1/GPa) = 0.04813007
#
# Stress axis : x y z
#
# Youngs Moduli (GPa) = 77.78231 54.60590 30.97340
#
# Poissons Ratio (x) = 0.29399 -0.03808
# Poissons Ratio (y) = 0.41876 0.10866
# Poissons Ratio (z) = -0.09563 0.19157
#
# Static dielectric constant tensor:
#      x y z
#    x 1.812160 0.000000 0.000000 
#    y 0.000000 1.787520 0.000000 
#    z 0.000000 0.000000 1.795500 
# 
# From -- ./inp_files/12877.got.cif
#   From: 2010.05.17/outbox.cif.g08.bks.cpg/sg71_7_cif.got.tgz:12877.got - 2010.06.03 16:22:01.
