data_PCOD9518062
_publ_section_title
;
Structure prediction by ZEFSAII (Michael W. Deem and Ramdas Pophale) SiO2 
 PCOD9518062
Probable space group: I M M M
;
_chemical_formula_sum "Si O2"
_cell_formula_units_Z 72
_cell_length_a 12.841831
_cell_length_b 10.862457
_cell_length_c 30.296602
_cell_angle_alpha 90.000000
_cell_angle_beta 90.000000
_cell_angle_gamma 90.000000
_cell_volume 4226.189262
_symmetry_space_group_name_H-M "I M M M"
_symmetry_group_IT_number 71
_symmetry_cell_setting 'orthorhombic'
loop_
_space_group_symop_operation_xyz
x,y,z
-x,-y,z
x,-y,-z
-x,y,-z
-x,-y,-z
x,y,-z
-x,y,z
x,-y,z
1/2+x,1/2+y,1/2+z
1/2-x,1/2-y,1/2+z
1/2+x,1/2-y,1/2-z
1/2-x,1/2+y,1/2-z
1/2-x,1/2-y,1/2-z
1/2+x,1/2+y,1/2-z
1/2-x,1/2+y,1/2+z
1/2+x,1/2-y,1/2+z
loop_
_atom_site_type_symbol
_atom_site_label
_atom_site_fract_x
_atom_site_fract_y
_atom_site_fract_z
Si Si1 0.224079 0.500000 0.803479
Si Si2 0.615457 0.855589 0.000000
Si Si3 0.112422 0.645505 0.000000
Si Si4 0.377483 0.500000 0.885590
Si Si5 0.120426 0.000000 0.221906
Si Si6 0.622458 0.252729 0.337131
Si Si7 0.260181 0.730315 0.076644
O O1 0.314784 0.500000 0.840031
O O2 0.286779 0.500000 0.757599
O O3 0.158163 0.625602 0.812586
O O4 0.676286 0.821057 0.955175
O O5 0.500000 0.797357 0.000000
O O6 0.605462 0.000000 0.000000
O O7 0.172511 0.680279 0.043884
O O8 0.103771 0.500000 0.000000
O O9 0.000000 0.706001 0.000000
O O10 0.500000 0.500000 0.879493
O O11 0.338307 0.379382 0.910948
O O12 0.130190 0.874703 0.193178
O O13 0.000000 0.000000 0.239807
O O14 0.500000 0.239933 0.350051
O O15 0.699676 0.270584 0.379031
#
# Coordination Sequence:
#
# PCOD9518062 Si02
#       7
#     8   8   8   8   8  16  16
#     4  10  20  36  57  83 108 144 177 224 273 328
#     4  10  22  37  54  74 105 147 187 223 261 315
#     4  10  18  30  49  75 108 135 168 217 267 319
#     4  10  19  32  52  79 104 131 172 223 271 322
#     4  10  21  37  57  82 111 145 180 224 272 328
#     4  10  21  36  58  83 112 144 182 224 273 327
#     4  10  20  34  53  78 105 141 177 220 271 318
#
# _framework density 17.036625000000001
#
# number of rings (size 3 to 8) (size 9 to 14) (size 15 to 20)
#    0.000    2.000    1.111    2.667    1.556    0.000 
#    0.000    1.667    0.000    6.000    0.000    0.000 
#    0.000    0.000    0.000    0.000    0.000    0.000 
#
# Total GULP energy -200495.677789 kJ/mol
# GULP energy per Si atom -5569.324383 kJ/mol
# Density = 1.699785 g / cm^3
# Si number density = 17.036625 Si / 1000 Ang^3
#
#
#
# Elastic Constant Matrix: (Units=GPa)
#
#
# Indices 1 2 3 4 5 6 
#
# 1 122.4379 51.2499 35.8993 0.0000 0.0000 0.0000
# 2 51.2499 102.6846 46.7682 0.0001 0.0000 0.0000
# 3 35.8993 46.7682 75.1820 0.0000 0.0000 0.0000
# 4 0.0000 0.0001 0.0000-5606.2435 0.0000 0.0000
# 5 0.0000 0.0000 0.0000 0.0000 5.0470 0.0000
# 6 0.0000 0.0000 0.0000 0.0000 0.0000 27.5149
#
#
#
# Elastic Compliance Matrix: (Units=1/GPa)
#
#
# Indices 1 2 3 4 5 6 
#
# 1 0.010646 -0.004183 -0.002481 0.000000 0.000000 0.000000
# 2 -0.004183 0.015232 -0.007478 0.000000 0.000000 0.000000
# 3 -0.002481 -0.007478 0.019138 0.000000 0.000000 0.000000
# 4 0.000000 0.000000 0.000000 -0.000178 0.000000 0.000000
# 5 0.000000 0.000000 0.000000 0.000000 0.198137 0.000000
# 6 0.000000 0.000000 0.000000 0.000000 0.000000 0.036344
#
#
# Mechanical properties :
#
#
# Convention : Reuss Voigt Hill
#
# Bulk Modulus (GPa) = 59.76932 63.12658 61.44795
# Shear Modulus (GPa) = 15.96524 -1103.64386 -543.83931
#
# Velocity S-wave (km/s) = 3.06455 -25.47966 -17.88605
# Velocity P-wave (km/s) = 6.90514 28.78339 19.75857
#
# Compressibility (1/GPa) = 0.01673099
#
# Stress axis : x y z
#
# Youngs Moduli (GPa) = 93.93249 65.64963 52.25317
#
# Poissons Ratio (x) = 0.27464 0.12964
# Poissons Ratio (y) = 0.39295 0.39075
# Poissons Ratio (z) = 0.23305 0.49093
#
# Static dielectric constant tensor:
#      x y z
#    x 1.588160 0.000000 0.000000 
#    y 0.000000 1.561220 0.000000 
#    z 0.000000 0.000000 1.476520 
# 
# From -- ./inp_files/28407.got.cif
#   From: 2010.05.17/outbox.cif.g08.bks.cpg/sg71_15_cif.got.tgz:28407.got - 2010.06.03 16:22:01.
