data_PCOD9518810
_publ_section_title
;
Structure prediction by ZEFSAII (Michael W. Deem and Ramdas Pophale) SiO2 
 PCOD9518810
Probable space group: I M M M
;
_chemical_formula_sum "Si O2"
_cell_formula_units_Z 88
_cell_length_a 18.235549
_cell_length_b 26.176303
_cell_length_c 11.646679
_cell_angle_alpha 90.000000
_cell_angle_beta 90.000000
_cell_angle_gamma 90.000000
_cell_volume 5559.417089
_symmetry_space_group_name_H-M "I M M M"
_symmetry_group_IT_number 71
_symmetry_cell_setting 'orthorhombic'
loop_
_space_group_symop_operation_xyz
x,y,z
-x,-y,z
x,-y,-z
-x,y,-z
-x,-y,-z
x,y,-z
-x,y,z
x,-y,z
1/2+x,1/2+y,1/2+z
1/2-x,1/2-y,1/2+z
1/2+x,1/2-y,1/2-z
1/2-x,1/2+y,1/2-z
1/2-x,1/2-y,1/2-z
1/2+x,1/2+y,1/2-z
1/2-x,1/2+y,1/2+z
1/2+x,1/2-y,1/2+z
loop_
_atom_site_type_symbol
_atom_site_label
_atom_site_fract_x
_atom_site_fract_y
_atom_site_fract_z
Si Si1 0.087336 0.940919 0.000000
Si Si2 0.583513 0.000000 0.138837
Si Si3 0.681786 0.902140 0.139637
Si Si4 0.414143 0.500000 0.137417
Si Si5 0.655741 0.595460 0.266175
Si Si6 0.916598 0.306036 0.639184
Si Si7 0.412465 0.310551 0.863499
O O1 0.115367 0.912903 0.887165
O O2 0.000000 0.942456 0.000000
O O3 0.114755 0.000000 0.000000
O O4 0.628788 0.050585 0.169244
O O5 0.500000 0.000000 0.182443
O O6 0.579230 0.000000 0.000000
O O7 0.758438 0.907209 0.204732
O O8 0.640461 0.849695 0.171497
O O9 0.693599 0.902825 0.000000
O O10 0.500000 0.500000 0.175326
O O11 0.373448 0.450348 0.186240
O O12 0.413319 0.500000 0.000000
O O13 0.632572 0.648340 0.207672
O O14 0.918941 0.306057 0.500000
O O15 0.897288 0.248049 0.672335
O O16 0.000000 0.317438 0.678015
O O17 0.500000 0.319293 0.848392
O O18 0.397630 0.315571 0.000000
#
# Coordination Sequence:
#
# PCOD9518810 Si02
#       7
#     8   8  16   8  16  16  16
#     4  11  22  34  48  66  96 142 174 189 225 301
#     4   9  17  28  46  68  94 129 161 193 234 293
#     4  10  19  30  45  72 107 133 157 194 247 299
#     4  11  23  37  53  71  93 125 168 214 249 283
#     4  12  21  32  49  72 103 132 160 203 248 293
#     4   8  15  30  51  71  96 131 167 204 248 296
#     4   9  18  33  52  72  94 127 172 216 248 281
#
# _framework density 15.828996999999999
#
# number of rings (size 3 to 8) (size 9 to 14) (size 15 to 20)
#    0.000    2.091    1.818    4.364    0.000    4.364 
#    0.000    0.000    0.000    0.000    0.000    0.000 
#    0.000   26.909    0.000    0.000    0.000    0.000 
#
# Total GULP energy -245383.993802 kJ/mol
# GULP energy per Si atom -5576.908950 kJ/mol
# Density = 1.579297 g / cm^3
# Si number density = 15.828997 Si / 1000 Ang^3
#
#
#
# Elastic Constant Matrix: (Units=GPa)
#
#
# Indices 1 2 3 4 5 6 
#
# 1 141.6852 97.5317 44.2102 0.0000 0.0000 0.0000
# 2 97.5317 133.9857 41.7556 0.0000 0.0000 0.0000
# 3 44.2102 41.7556 51.0312 0.0000 0.0001 0.0000
# 4 0.0000 0.0000 0.0000 6.6332 0.0000 0.0000
# 5 0.0000 0.0000 0.0001 0.0000 -17.0658 0.0000
# 6 0.0000 0.0000 0.0000 0.0000 0.0000 11.8217
#
#
#
# Elastic Compliance Matrix: (Units=1/GPa)
#
#
# Indices 1 2 3 4 5 6 
#
# 1 0.015228 -0.009360 -0.005534 0.000000 0.000000 0.000000
# 2 -0.009360 0.015772 -0.004796 0.000000 0.000000 0.000000
# 3 -0.005534 -0.004796 0.028314 0.000000 0.000000 0.000000
# 4 0.000000 0.000000 0.000000 0.150758 0.000000 0.000000
# 5 0.000000 0.000000 0.000000 0.000000 -0.058597 0.000000
# 6 0.000000 0.000000 0.000000 0.000000 0.000000 0.084590
#
#
# Mechanical properties :
#
#
# Convention : Reuss Voigt Hill
#
# Bulk Modulus (GPa) = 50.16513 77.07746 63.62130
# Shear Modulus (GPa) = 17.72492 9.82478 13.77485
#
# Velocity S-wave (km/s) = 3.34993 2.49405 2.95316
# Velocity P-wave (km/s) = 6.83546 7.55601 7.20475
#
# Compressibility (1/GPa) = 0.01993416
#
# Stress axis : x y z
#
# Youngs Moduli (GPa) = 65.66919 63.40495 35.31837
#
# Poissons Ratio (x) = 0.59349 0.19544
# Poissons Ratio (y) = 0.61468 0.16938
# Poissons Ratio (z) = 0.36338 0.30408
#
# Static dielectric constant tensor:
#      x y z
#    x 1.522910 0.000000 0.000000 
#    y 0.000000 1.536190 0.000000 
#    z 0.000000 0.000000 1.504080 
# 
# From -- ./inp_files/22378.got.cif
#   From: 2010.05.17/outbox.cif.g08.bks.cpg/sg71_12_cif.got.tgz:22378.got - 2010.06.03 16:22:01.
