data_PCOD9518322
_publ_section_title
;
Structure prediction by ZEFSAII (Michael W. Deem and Ramdas Pophale) SiO2 
 PCOD9518322
Probable space group: I M M M
;
_chemical_formula_sum "Si O2"
_cell_formula_units_Z 66
_cell_length_a 7.621207
_cell_length_b 25.999099
_cell_length_c 15.856994
_cell_angle_alpha 90.000000
_cell_angle_beta 90.000000
_cell_angle_gamma 90.000000
_cell_volume 3141.976390
_symmetry_space_group_name_H-M "I M M M"
_symmetry_group_IT_number 71
_symmetry_cell_setting 'orthorhombic'
loop_
_space_group_symop_operation_xyz
x,y,z
-x,-y,z
x,-y,-z
-x,y,-z
-x,-y,-z
x,y,-z
-x,y,z
x,-y,z
1/2+x,1/2+y,1/2+z
1/2-x,1/2-y,1/2+z
1/2+x,1/2-y,1/2-z
1/2-x,1/2+y,1/2-z
1/2-x,1/2-y,1/2-z
1/2+x,1/2+y,1/2-z
1/2-x,1/2+y,1/2+z
1/2+x,1/2-y,1/2+z
loop_
_atom_site_type_symbol
_atom_site_label
_atom_site_fract_x
_atom_site_fract_y
_atom_site_fract_z
Si Si1 0.000000 0.000000 0.000000
Si Si2 0.714634 0.440832 0.000000
Si Si3 0.795454 0.144817 0.163536
Si Si4 0.809562 0.584723 0.500000
Si Si5 0.214616 0.133938 0.350181
Si Si6 0.212187 0.248399 0.596493
O O1 0.846924 0.955377 0.000000
O O2 0.770123 0.408850 0.917382
O O3 0.772008 0.500000 0.000000
O O4 0.500000 0.440972 0.000000
O O5 0.704741 0.120186 0.082928
O O6 0.727729 0.126062 0.254040
O O7 0.779449 0.206455 0.156297
O O8 0.000000 0.130943 0.158229
O O9 0.000000 0.559833 0.500000
O O10 0.268702 0.191012 0.379117
O O11 0.000000 0.133987 0.350073
O O12 0.266880 0.259144 0.500000
O O13 0.000000 0.249463 0.599186
#
# Coordination Sequence:
#
# PCOD9518322 Si02
#       6
#     2   8  16   8  16  16
#     4  12  26  52  72  98 124 166 226 276 318 386
#     4   9  16  31  52  80 111 154 209 264 321 383
#     4  11  21  36  57  91 128 166 209 264 318 391
#     4  12  25  46  70  94 131 172 210 268 332 380
#     4   9  18  32  52  83 125 164 211 268 324 384
#     4  10  18  31  55  83 122 167 208 260 326 389
#
# _framework density 21.005886
#
# number of rings (size 3 to 8) (size 9 to 14) (size 15 to 20)
#    0.000    1.818    3.636    1.636    0.000    0.000 
#    2.182    1.212    0.000    0.000    0.000    0.000 
#    0.000    8.727    0.000    0.121    0.000    0.121 
#
# Total GULP energy -184175.839506 kJ/mol
# GULP energy per Si atom -5581.086046 kJ/mol
# Density = 2.095808 g / cm^3
# Si number density = 21.005886 Si / 1000 Ang^3
#
#
#
# Elastic Constant Matrix: (Units=GPa)
#
#
# Indices 1 2 3 4 5 6 
#
# 1 82.0187 19.1851 16.4279 0.0000 0.0000 0.0000
# 2 19.1851 153.6145 82.8075 0.0000 0.0000 0.0000
# 3 16.4279 82.8075 191.1874 0.0001 0.0000 0.0001
# 4 0.0000 0.0000 0.0001 10.5565 0.0000 0.0000
# 5 0.0000 0.0000 0.0000 0.0000 -3.7592 0.0000
# 6 0.0000 0.0000 0.0001 0.0000 0.0000 39.0502
#
#
#
# Elastic Compliance Matrix: (Units=1/GPa)
#
#
# Indices 1 2 3 4 5 6 
#
# 1 0.012599 -0.001291 -0.000523 0.000000 0.000000 0.000000
# 2 -0.001291 0.008625 -0.003625 0.000000 0.000000 0.000000
# 3 -0.000523 -0.003625 0.006845 0.000000 0.000000 0.000000
# 4 0.000000 0.000000 0.000000 0.094729 0.000000 0.000000
# 5 0.000000 0.000000 0.000000 0.000000 -0.266016 0.000000
# 6 0.000000 0.000000 0.000000 0.000000 0.000000 0.025608
#
#
# Mechanical properties :
#
#
# Convention : Reuss Voigt Hill
#
# Bulk Modulus (GPa) = 58.17069 73.74018 65.95544
# Shear Modulus (GPa) = -49.50480 29.72951 -9.88765
#
# Velocity S-wave (km/s) = -4.85986 3.76612 -2.17194
# Velocity P-wave (km/s) = 1.93348 7.35475 5.01767
#
# Compressibility (1/GPa) = 0.01719079
#
# Stress axis : x y z
#
# Youngs Moduli (GPa) = 79.36990 115.94144 146.08400
#
# Poissons Ratio (x) = 0.14974 0.07643
# Poissons Ratio (y) = 0.10250 0.52951
# Poissons Ratio (z) = 0.04153 0.42026
#
# Static dielectric constant tensor:
#      x y z
#    x 1.786560 0.000000 0.000000 
#    y 0.000000 1.705730 0.000000 
#    z 0.000000 0.000000 1.752590 
# 
# From -- ./inp_files/14234.got.cif
#   From: 2010.05.17/outbox.cif.g08.bks.cpg/sg71_8_cif.got.tgz:14234.got - 2010.06.03 16:22:01.
