data_PCOD9518760
_publ_section_title
;
Structure prediction by ZEFSAII (Michael W. Deem and Ramdas Pophale) SiO2 
 PCOD9518760
Probable space group: I M M M
;
_chemical_formula_sum "Si O2"
_cell_formula_units_Z 80
_cell_length_a 27.153111
_cell_length_b 24.344274
_cell_length_c 8.654796
_cell_angle_alpha 90.000000
_cell_angle_beta 90.000000
_cell_angle_gamma 90.000000
_cell_volume 5721.017262
_symmetry_space_group_name_H-M "I M M M"
_symmetry_group_IT_number 71
_symmetry_cell_setting 'orthorhombic'
loop_
_space_group_symop_operation_xyz
x,y,z
-x,-y,z
x,-y,-z
-x,y,-z
-x,-y,-z
x,y,-z
-x,y,z
x,-y,z
1/2+x,1/2+y,1/2+z
1/2-x,1/2-y,1/2+z
1/2+x,1/2-y,1/2-z
1/2-x,1/2+y,1/2-z
1/2-x,1/2-y,1/2-z
1/2+x,1/2+y,1/2-z
1/2-x,1/2+y,1/2+z
1/2+x,1/2-y,1/2+z
loop_
_atom_site_type_symbol
_atom_site_label
_atom_site_fract_x
_atom_site_fract_y
_atom_site_fract_z
Si Si1 0.795677 0.214640 0.185360
Si Si2 0.443887 0.115292 0.813356
Si Si3 0.356029 0.815390 0.685792
Si Si4 0.742263 0.883537 0.314957
Si Si5 0.782351 0.500000 0.685426
Si Si6 0.603043 0.000000 0.811980
O O1 0.750000 0.250000 0.250000
O O2 0.842406 0.252526 0.227933
O O3 0.786637 0.154547 0.253815
O O4 0.792852 0.212307 0.000000
O O5 0.500000 0.123951 0.761679
O O6 0.405462 0.160575 0.756480
O O7 0.424056 0.055516 0.761041
O O8 0.443572 0.114936 0.000000
O O9 0.358815 0.818256 0.500000
O O10 0.309402 0.853841 0.733228
O O11 0.743246 0.884319 0.500000
O O12 0.741882 0.944555 0.248535
O O13 0.781234 0.500000 0.500000
O O14 0.839893 0.500000 0.736070
O O15 0.602377 0.000000 0.000000
#
# Coordination Sequence:
#
# PCOD9518760 Si02
#       6
#    16  16  16  16   8   8
#     4   9  17  29  44  62  81 105 136 171 212 259
#     4  10  19  30  44  60  79 107 146 187 221 255
#     4   9  18  30  43  59  81 106 135 175 218 257
#     4  10  19  30  43  62  85 109 138 176 214 254
#     4  11  19  28  45  63  82 116 147 176 215 256
#     4   9  17  29  42  57  77 107 145 184 220 248
#
# _framework density 13.983528
#
# number of rings (size 3 to 8) (size 9 to 14) (size 15 to 20)
#    0.000    2.400    2.000    3.000    0.000    5.600 
#    0.000    0.500    0.000    1.200    0.000    0.000 
#    0.000    0.000    0.000    0.900    0.000   16.800 
#
# Total GULP energy -222880.805802 kJ/mol
# GULP energy per Si atom -5572.020145 kJ/mol
# Density = 1.395170 g / cm^3
# Si number density = 13.983528 Si / 1000 Ang^3
#
#
#
# Elastic Constant Matrix: (Units=GPa)
#
#
# Indices 1 2 3 4 5 6 
#
# 1 74.1231 69.3862 20.9654 0.0000 0.0000 0.0000
# 2 69.3862 130.7033 35.7585 0.0000 0.0000 0.0000
# 3 20.9654 35.7585 29.1631 0.0000 0.0000 0.0000
# 4 0.0000 0.0000 0.0000 22.9603 0.0000 0.0000
# 5 0.0000 0.0000 0.0000 0.0000 17.7092 0.0000
# 6 0.0000 0.0000 0.0000 0.0000 0.0000 14.3757
#
#
#
# Elastic Compliance Matrix: (Units=1/GPa)
#
#
# Indices 1 2 3 4 5 6 
#
# 1 0.026965 -0.013560 -0.002758 0.000000 0.000000 0.000000
# 2 -0.013560 0.018332 -0.012730 0.000000 0.000000 0.000000
# 3 -0.002758 -0.012730 0.051882 0.000000 0.000000 0.000000
# 4 0.000000 0.000000 0.000000 0.043554 0.000000 0.000000
# 5 0.000000 0.000000 0.000000 0.000000 0.056468 0.000000
# 6 0.000000 0.000000 0.000000 0.000000 0.000000 0.069562
#
#
# Mechanical properties :
#
#
# Convention : Reuss Voigt Hill
#
# Bulk Modulus (GPa) = 25.58698 54.02329 39.80514
# Shear Modulus (GPa) = 14.79791 18.20099 16.49945
#
# Velocity S-wave (km/s) = 3.25659 3.61169 3.43872
# Velocity P-wave (km/s) = 5.69896 7.49064 6.65537
#
# Compressibility (1/GPa) = 0.03908237
#
# Stress axis : x y z
#
# Youngs Moduli (GPa) = 37.08541 54.54866 19.27466
#
# Poissons Ratio (x) = 0.73969 0.05316
# Poissons Ratio (y) = 0.50288 0.24536
# Poissons Ratio (z) = 0.10229 0.69440
#
# Static dielectric constant tensor:
#      x y z
#    x 1.430360 0.000000 0.000000 
#    y 0.000000 1.464910 0.000000 
#    z 0.000000 0.000000 1.474210 
# 
# From -- ./inp_files/10251.got.cif
#   From: 2010.05.17/outbox.cif.g08.bks.cpg/sg71_6_cif.got.tgz:10251.got - 2010.06.03 16:22:01.
