data_PCOD9518739
_publ_section_title
;
Structure prediction by ZEFSAII (Michael W. Deem and Ramdas Pophale) SiO2 
 PCOD9518739
Probable space group: I M M M
;
_chemical_formula_sum "Si O2"
_cell_formula_units_Z 90
_cell_length_a 7.343745
_cell_length_b 26.257500
_cell_length_c 22.023629
_cell_angle_alpha 90.000000
_cell_angle_beta 90.000000
_cell_angle_gamma 90.000000
_cell_volume 4246.780797
_symmetry_space_group_name_H-M "I M M M"
_symmetry_group_IT_number 71
_symmetry_cell_setting 'orthorhombic'
loop_
_space_group_symop_operation_xyz
x,y,z
-x,-y,z
x,-y,-z
-x,y,-z
-x,-y,-z
x,y,-z
-x,y,z
x,-y,z
1/2+x,1/2+y,1/2+z
1/2-x,1/2-y,1/2+z
1/2+x,1/2-y,1/2-z
1/2-x,1/2+y,1/2-z
1/2-x,1/2-y,1/2-z
1/2+x,1/2+y,1/2-z
1/2-x,1/2+y,1/2+z
1/2+x,1/2-y,1/2+z
loop_
_atom_site_type_symbol
_atom_site_label
_atom_site_fract_x
_atom_site_fract_y
_atom_site_fract_z
Si Si1 0.778398 0.747071 0.432669
Si Si2 0.781940 0.707062 0.302105
Si Si3 0.210535 0.408035 0.298412
Si Si4 0.775361 0.500000 0.385646
Si Si5 0.000000 0.000000 0.000000
Si Si6 0.221380 0.864959 0.433554
Si Si7 0.720033 0.555965 0.835356
O O1 0.721100 0.727787 0.500000
O O2 0.716840 0.721830 0.369933
O O3 0.724512 0.806259 0.428550
O O4 0.000000 0.744909 0.432865
O O5 0.750000 0.750000 0.250000
O O6 0.712981 0.649385 0.290718
O O7 0.000000 0.705214 0.304763
O O8 0.278087 0.449140 0.347304
O O9 0.222328 0.434162 0.233097
O O10 0.000000 0.400794 0.315088
O O11 0.661008 0.500000 0.446930
O O12 0.000000 0.500000 0.392512
O O13 0.275422 0.884244 0.500000
O O14 0.286905 0.899947 0.379481
O O15 0.000000 0.864942 0.431884
O O16 0.500000 0.557120 0.836149
O O17 0.777957 0.500000 0.855672
#
# Coordination Sequence:
#
# PCOD9518739 Si02
#       7
#    16  16  16   8   2  16  16
#     4   8  14  27  47  70  97 131 174 216 265 336
#     4  10  20  34  54  83 112 147 190 238 297 357
#     4  10  21  37  57  80 115 155 195 245 305 366
#     4  10  23  45  67  96 130 164 209 264 321 387
#     4  12  26  44  76  98 124 168 216 264 328 404
#     4   8  14  25  42  69 105 139 171 222 284 336
#     4  10  19  29  49  77 103 138 186 234 283 342
#
# _framework density 21.192522
#
# number of rings (size 3 to 8) (size 9 to 14) (size 15 to 20)
#    0.000    2.667    0.889    2.267    1.244    2.489 
#    1.600    1.778    0.000    1.067    0.000    6.222 
#    0.000    0.000    0.000    0.000    0.000    0.000 
#
# Total GULP energy -250632.490566 kJ/mol
# GULP energy per Si atom -5569.610901 kJ/mol
# Density = 2.114429 g / cm^3
# Si number density = 21.192522 Si / 1000 Ang^3
#
#
#
# Elastic Constant Matrix: (Units=GPa)
#
#
# Indices 1 2 3 4 5 6 
#
# 1 87.8788 12.9862 10.9687 0.0000 0.0000 0.0000
# 2 12.9862 93.2167 28.7517 0.0000 0.0000 0.0000
# 3 10.9687 28.7517 95.9014 -0.0001 0.0000 0.0000
# 4 0.0000 0.0000 -0.0001 -13.6779 0.0000 0.0000
# 5 0.0000 0.0000 0.0000 0.0000 -9.1540 0.0000
# 6 0.0000 0.0000 0.0000 0.0000 0.0000 4.4665
#
#
#
# Elastic Compliance Matrix: (Units=1/GPa)
#
#
# Indices 1 2 3 4 5 6 
#
# 1 0.011694 -0.001341 -0.000936 0.000000 0.000000 0.000000
# 2 -0.001341 0.011974 -0.003437 0.000000 0.000000 0.000000
# 3 -0.000936 -0.003437 0.011565 0.000000 0.000000 0.000000
# 4 0.000000 0.000000 0.000000 -0.073111 0.000000 0.000000
# 5 0.000000 0.000000 0.000000 0.000000 -0.109241 0.000000
# 6 0.000000 0.000000 0.000000 0.000000 0.000000 0.223891
#
#
# Mechanical properties :
#
#
# Convention : Reuss Voigt Hill
#
# Bulk Modulus (GPa) = 42.00327 42.49000 42.24664
# Shear Modulus (GPa) = 52.01086 11.27959 31.64522
#
# Velocity S-wave (km/s) = 4.95937 2.30954 3.86842
# Velocity P-wave (km/s) = 7.25649 5.21585 6.31909
#
# Compressibility (1/GPa) = 0.02380767
#
# Stress axis : x y z
#
# Youngs Moduli (GPa) = 85.51258 83.51109 86.46986
#
# Poissons Ratio (x) = 0.11195 0.08090
# Poissons Ratio (y) = 0.11463 0.29717
# Poissons Ratio (z) = 0.08001 0.28700
#
# Static dielectric constant tensor:
#      x y z
#    x 1.852780 0.000000 0.000000 
#    y 0.000000 1.760460 0.000000 
#    z 0.000000 0.000000 1.737810 
# 
# From -- ./inp_files/50606.got.cif
#   From: 2010.05.17/outbox.cif.g08.bks.cpg/sg71_26_cif.got.tgz:50606.got - 2010.06.03 16:22:01.
