data_PCOD9518182
_publ_section_title
;
Structure prediction by ZEFSAII (Michael W. Deem and Ramdas Pophale) SiO2 
 PCOD9518182
Probable space group: I M M M
;
_chemical_formula_sum "Si O2"
_cell_formula_units_Z 112
_cell_length_a 12.981864
_cell_length_b 18.779801
_cell_length_c 25.751027
_cell_angle_alpha 90.000000
_cell_angle_beta 90.000000
_cell_angle_gamma 90.000000
_cell_volume 6278.018559
_symmetry_space_group_name_H-M "I M M M"
_symmetry_group_IT_number 71
_symmetry_cell_setting 'orthorhombic'
loop_
_space_group_symop_operation_xyz
x,y,z
-x,-y,z
x,-y,-z
-x,y,-z
-x,-y,-z
x,y,-z
-x,y,z
x,-y,z
1/2+x,1/2+y,1/2+z
1/2-x,1/2-y,1/2+z
1/2+x,1/2-y,1/2-z
1/2-x,1/2+y,1/2-z
1/2-x,1/2-y,1/2-z
1/2+x,1/2+y,1/2-z
1/2-x,1/2+y,1/2+z
1/2+x,1/2-y,1/2+z
loop_
_atom_site_type_symbol
_atom_site_label
_atom_site_fract_x
_atom_site_fract_y
_atom_site_fract_z
Si Si1 0.614868 0.085470 0.624777
Si Si2 0.616364 0.359664 0.214694
Si Si3 0.377215 0.177032 0.940793
Si Si4 0.216171 0.414507 0.349273
Si Si5 0.272476 0.301055 0.116941
Si Si6 0.668517 0.080933 0.738442
Si Si7 0.618815 0.306558 0.325835
O O1 0.500000 0.099436 0.604357
O O2 0.706101 0.130686 0.599152
O O3 0.617311 0.108767 0.685943
O O4 0.632829 0.000000 0.623242
O O5 0.500000 0.388198 0.215559
O O6 0.643799 0.324889 0.159715
O O7 0.709198 0.414327 0.225851
O O8 0.624512 0.304750 0.263064
O O9 0.500000 0.182711 0.935811
O O10 0.335632 0.119718 0.899480
O O11 0.325027 0.252224 0.926082
O O12 0.352238 0.157263 0.000000
O O13 0.216424 0.500000 0.350256
O O14 0.157756 0.388297 0.296260
O O15 0.330506 0.381835 0.342792
O O16 0.190857 0.251063 0.147218
O O17 0.633490 0.000000 0.742600
O O18 0.500000 0.300052 0.340991
#
# Coordination Sequence:
#
# PCOD9518182 Si02
#       7
#    16  16  16  16  16  16  16
#     4   9  17  29  48  76 107 134 158 187 228 283
#     4   9  16  25  40  65  95 127 163 200 236 278
#     4  10  22  38  54  72  93 121 161 208 253 290
#     4   9  18  32  50  72  99 131 166 202 239 281
#     4  10  18  31  49  68  94 128 162 199 242 291
#     4   8  15  27  42  67 103 136 162 188 225 279
#     4   9  17  28  44  69  99 130 163 196 234 284
#
# _framework density 17.840024
#
# number of rings (size 3 to 8) (size 9 to 14) (size 15 to 20)
#    0.000    2.857    0.000    1.286    0.000    2.857 
#    0.000    5.000    0.000   12.429    0.000    6.000 
#    0.000    0.000    0.000    0.000    0.000    0.000 
#
# Total GULP energy -311746.276840 kJ/mol
# GULP energy per Si atom -5566.897801 kJ/mol
# Density = 1.779942 g / cm^3
# Si number density = 17.840024 Si / 1000 Ang^3
#
#
#
# Elastic Constant Matrix: (Units=GPa)
#
#
# Indices 1 2 3 4 5 6 
#
# 1 68.1410 9.1791 4.0863 0.0000 0.0000 0.0000
# 2 9.1791 54.2046 14.3366 0.0000 0.0000 0.0000
# 3 4.0863 14.3366 35.3885 0.0000 0.0000 0.0000
# 4 0.0000 0.0000 0.0000 16.0466 0.0000 0.0000
# 5 0.0000 0.0000 0.0000 0.0000 18.0761 0.0000
# 6 0.0000 0.0000 0.0000 0.0000 0.0000 15.1860
#
#
#
# Elastic Compliance Matrix: (Units=1/GPa)
#
#
# Indices 1 2 3 4 5 6 
#
# 1 0.015038 -0.002338 -0.000789 0.000000 0.000000 0.000000
# 2 -0.002338 0.021026 -0.008248 0.000000 0.000000 0.000000
# 3 -0.000789 -0.008248 0.031690 0.000000 0.000000 0.000000
# 4 0.000000 0.000000 0.000000 0.062318 0.000000 0.000000
# 5 0.000000 0.000000 0.000000 0.000000 0.055322 0.000000
# 6 0.000000 0.000000 0.000000 0.000000 0.000000 0.065850
#
#
# Mechanical properties :
#
#
# Convention : Reuss Voigt Hill
#
# Bulk Modulus (GPa) = 22.22038 23.65979 22.94009
# Shear Modulus (GPa) = 17.30127 18.53721 17.91924
#
# Velocity S-wave (km/s) = 3.11754 3.22697 3.17273
# Velocity P-wave (km/s) = 5.04392 5.21301 5.12916
#
# Compressibility (1/GPa) = 0.04500373
#
# Stress axis : x y z
#
# Youngs Moduli (GPa) = 66.49956 47.56011 31.55532
#
# Poissons Ratio (x) = 0.11118 0.02491
# Poissons Ratio (y) = 0.15546 0.26027
# Poissons Ratio (z) = 0.05249 0.39228
#
# Static dielectric constant tensor:
#      x y z
#    x 1.615400 0.000000 0.000000 
#    y 0.000000 1.634750 0.000000 
#    z 0.000000 0.000000 1.621840 
# 
# From -- ./inp_files/64793.got.cif
#   From: 2010.05.17/outbox.cif.g08.bks.cpg/sg71_33_cif.got.tgz:64793.got - 2010.06.03 16:22:01.
