data_PCOD9518128
_publ_section_title
;
Structure prediction by ZEFSAII (Michael W. Deem and Ramdas Pophale) SiO2 
 PCOD9518128
Probable space group: I M M M
;
_chemical_formula_sum "Si O2"
_cell_formula_units_Z 72
_cell_length_a 25.835795
_cell_length_b 10.164967
_cell_length_c 16.268299
_cell_angle_alpha 90.000000
_cell_angle_beta 90.000000
_cell_angle_gamma 90.000000
_cell_volume 4272.380742
_symmetry_space_group_name_H-M "I M M M"
_symmetry_group_IT_number 71
_symmetry_cell_setting 'orthorhombic'
loop_
_space_group_symop_operation_xyz
x,y,z
-x,-y,z
x,-y,-z
-x,y,-z
-x,-y,-z
x,y,-z
-x,y,z
x,-y,z
1/2+x,1/2+y,1/2+z
1/2-x,1/2-y,1/2+z
1/2+x,1/2-y,1/2-z
1/2-x,1/2+y,1/2-z
1/2-x,1/2-y,1/2-z
1/2+x,1/2+y,1/2-z
1/2-x,1/2+y,1/2+z
1/2+x,1/2-y,1/2+z
loop_
_atom_site_type_symbol
_atom_site_label
_atom_site_fract_x
_atom_site_fract_y
_atom_site_fract_z
Si Si1 0.557954 0.000000 0.215566
Si Si2 0.442303 0.500000 0.851328
Si Si3 0.062227 0.000000 0.094440
Si Si4 0.172753 0.000000 0.407518
Si Si5 0.158527 0.500000 0.599891
Si Si6 0.302246 0.249126 0.197975
Si Si7 0.088305 0.778675 0.778085
O O1 0.601516 0.000000 0.143550
O O2 0.565082 0.132687 0.269514
O O3 0.500000 0.000000 0.180809
O O4 0.500000 0.500000 0.888427
O O5 0.390262 0.500000 0.905039
O O6 0.436100 0.371279 0.793470
O O7 0.080299 0.132088 0.141574
O O8 0.000000 0.000000 0.098245
O O9 0.078886 0.000000 0.000000
O O10 0.193463 0.124960 0.359579
O O11 0.190583 0.000000 0.500000
O O12 0.156081 0.500000 0.500000
O O13 0.187967 0.374875 0.638564
O O14 0.250000 0.250000 0.250000
O O15 0.351141 0.260261 0.259172
#
# Coordination Sequence:
#
# PCOD9518128 Si02
#       7
#     8   8   8   8   8  16  16
#     4  10  18  30  52  76 103 140 169 195 239 301
#     4   9  16  29  50  73 101 134 161 192 240 301
#     4  10  19  33  53  75 101 130 163 213 267 301
#     4  10  20  33  51  77 103 127 165 211 248 286
#     4  10  21  35  52  79 109 132 165 210 251 295
#     4  10  20  36  55  72  97 136 173 206 249 298
#     4   9  18  32  50  73  98 128 172 209 241 301
#
# _framework density 16.852429999999998
#
# number of rings (size 3 to 8) (size 9 to 14) (size 15 to 20)
#    0.000    2.333    0.000    4.667    0.000    0.444 
#    0.000    3.889    0.000   10.000    0.000    0.000 
#    0.000    0.000    0.000    0.000    0.000    0.000 
#
# Total GULP energy -200597.082035 kJ/mol
# GULP energy per Si atom -5572.141168 kJ/mol
# Density = 1.681407 g / cm^3
# Si number density = 16.852430 Si / 1000 Ang^3
#
#
#
# Elastic Constant Matrix: (Units=GPa)
#
#
# Indices 1 2 3 4 5 6 
#
# 1 128.1418 47.4594 52.0203 0.0000 0.0000 0.0000
# 2 47.4594 175.4121 67.9264 0.0000 0.0000 0.0000
# 3 52.0203 67.9264 126.9480 0.0000 0.0000 0.0000
# 4 0.0000 0.0000 0.0000 19.4705 0.0000 0.0000
# 5 0.0000 0.0000 0.0000 0.0000 5.7289 0.0000
# 6 0.0000 0.0000 0.0000 0.0000 0.0000 0.7189
#
#
#
# Elastic Compliance Matrix: (Units=1/GPa)
#
#
# Indices 1 2 3 4 5 6 
#
# 1 0.009610 -0.001356 -0.003212 0.000000 0.000000 0.000000
# 2 -0.001356 0.007382 -0.003394 0.000000 0.000000 0.000000
# 3 -0.003212 -0.003394 0.011010 0.000000 0.000000 0.000000
# 4 0.000000 0.000000 0.000000 0.051360 0.000000 0.000000
# 5 0.000000 0.000000 0.000000 0.000000 0.174552 0.000000
# 6 0.000000 0.000000 0.000000 0.000000 0.000000 1.391099
#
#
# Mechanical properties :
#
#
# Convention : Reuss Voigt Hill
#
# Bulk Modulus (GPa) = 82.80533 85.03488 83.92011
# Shear Modulus (GPa) = 3.00307 22.72338 12.86322
#
# Velocity S-wave (km/s) = 1.33636 3.67601 2.76576
# Velocity P-wave (km/s) = 7.18494 8.28163 7.75270
#
# Compressibility (1/GPa) = 0.01207652
#
# Stress axis : x y z
#
# Youngs Moduli (GPa) = 104.05568 135.46128 90.82825
#
# Poissons Ratio (x) = 0.18371 0.29178
# Poissons Ratio (y) = 0.14112 0.30830
# Poissons Ratio (z) = 0.33427 0.45979
#
# Static dielectric constant tensor:
#      x y z
#    x 1.575790 0.000000 0.000000 
#    y 0.000000 1.600890 0.000000 
#    z 0.000000 0.000000 1.542460 
# 
# From -- ./inp_files/40028.got.cif
#   From: 2010.05.17/outbox.cif.g08.bks.cpg/sg71_21_cif.got.tgz:40028.got - 2010.06.03 16:22:01.
