data_PCOD9518500
_publ_section_title
;
Structure prediction by ZEFSAII (Michael W. Deem and Ramdas Pophale) SiO2 
 PCOD9518500
Probable space group: I M M M
;
_chemical_formula_sum "Si O2"
_cell_formula_units_Z 100
_cell_length_a 22.466891
_cell_length_b 7.491838
_cell_length_c 30.274938
_cell_angle_alpha 90.000000
_cell_angle_beta 90.000000
_cell_angle_gamma 90.000000
_cell_volume 5095.826331
_symmetry_space_group_name_H-M "I M M M"
_symmetry_group_IT_number 71
_symmetry_cell_setting 'orthorhombic'
loop_
_space_group_symop_operation_xyz
x,y,z
-x,-y,z
x,-y,-z
-x,y,-z
-x,-y,-z
x,y,-z
-x,y,z
x,-y,z
1/2+x,1/2+y,1/2+z
1/2-x,1/2-y,1/2+z
1/2+x,1/2-y,1/2-z
1/2-x,1/2+y,1/2-z
1/2-x,1/2-y,1/2-z
1/2+x,1/2+y,1/2-z
1/2-x,1/2+y,1/2+z
1/2+x,1/2-y,1/2+z
loop_
_atom_site_type_symbol
_atom_site_label
_atom_site_fract_x
_atom_site_fract_y
_atom_site_fract_z
Si Si1 0.681241 0.710850 0.759474
Si Si2 0.210828 0.217284 0.098482
Si Si3 0.390430 0.717788 0.328993
Si Si4 0.715534 0.703959 0.500000
Si Si5 0.835083 0.296069 0.640460
Si Si6 0.353018 0.718138 0.000000
Si Si7 0.000000 0.500000 0.835679
Si Si8 0.933960 0.206435 0.579495
O O1 0.673903 0.500000 0.764246
O O2 0.750000 0.750000 0.750000
O O3 0.640668 0.763967 0.718013
O O4 0.667832 0.791689 0.806982
O O5 0.158168 0.257486 0.132666
O O6 0.199355 0.281676 0.048259
O O7 0.274623 0.280244 0.118233
O O8 0.214411 0.000000 0.096610
O O9 0.401431 0.500000 0.329701
O O10 0.447656 0.841598 0.335102
O O11 0.693061 0.500000 0.500000
O O12 0.787124 0.706416 0.500000
O O13 0.838132 0.500000 0.625818
O O14 0.896008 0.210957 0.623937
O O15 0.390535 0.780106 0.042103
O O16 0.346639 0.500000 0.000000
O O17 0.000000 0.284797 0.582225
O O18 0.940873 0.000000 0.566851
#
# Coordination Sequence:
#
# PCOD9518500 Si02
#       8
#    16  16  16   8  16   8   4  16
#     4  11  22  37  62  92 125 160 199 257 312 368
#     4   9  18  35  60  90 123 159 197 256 317 375
#     4  10  23  44  66  95 131 168 213 262 316 378
#     4  10  18  33  59  89 123 154 191 248 328 381
#     4  11  21  35  57  84 119 155 205 260 309 360
#     4  10  19  32  52  80 110 155 207 258 305 363
#     4  12  26  44  72  99 126 176 216 257 310 394
#     4  10  21  37  52  73 112 165 211 250 305 367
#
# _framework density 19.623902999999999
#
# number of rings (size 3 to 8) (size 9 to 14) (size 15 to 20)
#    0.000    1.760    3.200    1.440    2.240    1.280 
#    4.320    0.000    0.000    2.400    0.000    2.800 
#    0.000    0.000    0.000    0.000    0.000    0.000 
#
# Total GULP energy -278406.455729 kJ/mol
# GULP energy per Si atom -5568.129115 kJ/mol
# Density = 1.957924 g / cm^3
# Si number density = 19.623903 Si / 1000 Ang^3
#
#
#
# Elastic Constant Matrix: (Units=GPa)
#
#
# Indices 1 2 3 4 5 6 
#
# 1 90.1375 19.0305 32.9804 0.0000 0.0000 0.0000
# 2 19.0305 73.6759 8.4640 0.0000 0.0000 0.0000
# 3 32.9804 8.4640 137.3782 0.0000 0.0000 0.0000
# 4 0.0000 0.0000 0.0000 -18.6111 0.0000 0.0000
# 5 0.0000 0.0000 0.0000 0.0000 0.0459 0.0000
# 6 0.0000 0.0000 0.0000 0.0000 0.0000 29.4115
#
#
#
# Elastic Compliance Matrix: (Units=1/GPa)
#
#
# Indices 1 2 3 4 5 6 
#
# 1 0.012776 -0.002969 -0.002884 0.000000 0.000000 0.000000
# 2 -0.002969 0.014360 -0.000172 0.000000 0.000000 0.000000
# 3 -0.002884 -0.000172 0.007982 0.000000 0.000000 0.000000
# 4 0.000000 0.000000 0.000000 -0.053731 0.000000 0.000000
# 5 0.000000 0.000000 0.000000 0.000000 21.794840 0.000000
# 6 0.000000 0.000000 0.000000 0.000000 0.000000 0.034000
#
#
# Mechanical properties :
#
#
# Convention : Reuss Voigt Hill
#
# Bulk Modulus (GPa) = 43.35022 46.90459 45.12740
# Shear Modulus (GPa) = 0.22904 18.21702 9.22303
#
# Velocity S-wave (km/s) = 0.34201 3.05012 2.17028
# Velocity P-wave (km/s) = 4.72170 6.02976 5.41537
#
# Compressibility (1/GPa) = 0.02306794
#
# Stress axis : x y z
#
# Youngs Moduli (GPa) = 78.27001 69.64005 125.27863
#
# Poissons Ratio (x) = 0.20675 0.36134
# Poissons Ratio (y) = 0.23237 0.02155
# Poissons Ratio (z) = 0.22575 0.01198
#
# Static dielectric constant tensor:
#      x y z
#    x 1.653090 0.000000 0.000000 
#    y 0.000000 1.807920 0.000000 
#    z 0.000000 0.000000 1.738240 
# 
# From -- ./inp_files/66492.got.cif
#   From: 2010.05.17/outbox.cif.g08.bks.cpg/sg71_34_cif.got.tgz:66492.got - 2010.06.03 16:22:01.
