data_PCOD9518871
_publ_section_title
;
Structure prediction by ZEFSAII (Michael W. Deem and Ramdas Pophale) SiO2 
 PCOD9518871
Probable space group: I M M M
;
_chemical_formula_sum "Si O2"
_cell_formula_units_Z 120
_cell_length_a 23.072415
_cell_length_b 18.257600
_cell_length_c 17.437105
_cell_angle_alpha 90.000000
_cell_angle_beta 90.000000
_cell_angle_gamma 90.000000
_cell_volume 7345.326847
_symmetry_space_group_name_H-M "I M M M"
_symmetry_group_IT_number 71
_symmetry_cell_setting 'orthorhombic'
loop_
_space_group_symop_operation_xyz
x,y,z
-x,-y,z
x,-y,-z
-x,y,-z
-x,-y,-z
x,y,-z
-x,y,z
x,-y,z
1/2+x,1/2+y,1/2+z
1/2-x,1/2-y,1/2+z
1/2+x,1/2-y,1/2-z
1/2-x,1/2+y,1/2-z
1/2-x,1/2-y,1/2-z
1/2+x,1/2+y,1/2-z
1/2-x,1/2+y,1/2+z
1/2+x,1/2-y,1/2+z
loop_
_atom_site_type_symbol
_atom_site_label
_atom_site_fract_x
_atom_site_fract_y
_atom_site_fract_z
Si Si1 0.615151 0.864308 0.822370
Si Si2 0.431028 0.917505 0.661715
Si Si3 0.273169 0.086914 0.914857
Si Si4 0.668215 0.582765 0.302476
Si Si5 0.681534 0.735939 0.257805
Si Si6 0.933317 0.118584 0.086716
Si Si7 0.000000 0.411883 0.592375
Si Si8 0.880548 0.724601 0.086592
O O1 0.601712 0.906061 0.742637
O O2 0.667114 0.896814 0.872415
O O3 0.640221 0.785541 0.795829
O O4 0.556592 0.873378 0.871411
O O5 0.500000 0.910145 0.675454
O O6 0.410496 0.852568 0.606173
O O7 0.420107 0.000000 0.633014
O O8 0.219272 0.105965 0.861210
O O9 0.269150 0.000000 0.922780
O O10 0.270218 0.120190 0.000000
O O11 0.678862 0.500000 0.274409
O O12 0.667979 0.650252 0.244172
O O13 0.609405 0.584818 0.351385
O O14 0.750000 0.750000 0.250000
O O15 0.663853 0.758175 0.344830
O O16 0.924841 0.206706 0.090412
O O17 0.000000 0.099653 0.099129
O O18 0.916593 0.096183 0.000000
O O19 0.000000 0.500000 0.611372
O O20 0.000000 0.406448 0.500000
O O21 0.856643 0.723884 0.000000
#
# Coordination Sequence:
#
# PCOD9518871 Si02
#       8
#    16  16  16  16  16  16   8  16
#     4  11  20  34  54  73 110 148 185 221 271 330
#     4  10  19  30  47  70 100 140 181 220 262 309
#     4  10  19  30  48  76 108 142 177 214 263 325
#     4  10  20  34  51  72 102 134 173 222 264 313
#     4  10  20  38  54  76 103 139 186 223 268 329
#     4   9  17  30  48  69  97 131 163 200 254 316
#     4  11  22  36  56  88 126 154 184 229 282 346
#     4   9  19  33  50  71  98 134 176 219 262 307
#
# _framework density 16.336917
#
# number of rings (size 3 to 8) (size 9 to 14) (size 15 to 20)
#    0.000    2.067    2.000    2.400    0.000    3.733 
#    1.200    1.333    0.000    0.000    0.000    0.000 
#    0.000    3.733    0.000    0.000    0.000    0.000 
#
# Total GULP energy -334333.390556 kJ/mol
# GULP energy per Si atom -5572.223176 kJ/mol
# Density = 1.629973 g / cm^3
# Si number density = 16.336917 Si / 1000 Ang^3
#
#
#
# Elastic Constant Matrix: (Units=GPa)
#
#
# Indices 1 2 3 4 5 6 
#
# 1 78.8405 25.4750 14.5272 0.0000 0.0000 0.0000
# 2 25.4750 98.6587 6.1401 0.0000 0.0000 0.0000
# 3 14.5272 6.1401 34.5460 0.0000 0.0000 0.0000
# 4 0.0000 0.0000 0.0000 16.2344 0.0000 0.0000
# 5 0.0000 0.0000 0.0000 0.0000 39.0537 0.0000
# 6 0.0000 0.0000 0.0000 0.0000 0.0000 17.6200
#
#
#
# Elastic Compliance Matrix: (Units=1/GPa)
#
#
# Indices 1 2 3 4 5 6 
#
# 1 0.014846 -0.003483 -0.005624 0.000000 0.000000 0.000000
# 2 -0.003483 0.011067 -0.000502 0.000000 0.000000 0.000000
# 3 -0.005624 -0.000502 0.031401 0.000000 0.000000 0.000000
# 4 0.000000 0.000000 0.000000 0.061598 0.000000 0.000000
# 5 0.000000 0.000000 0.000000 0.000000 0.025606 0.000000
# 6 0.000000 0.000000 0.000000 0.000000 0.000000 0.056754
#
#
# Mechanical properties :
#
#
# Convention : Reuss Voigt Hill
#
# Bulk Modulus (GPa) = 26.25023 33.81441 30.03232
# Shear Modulus (GPa) = 21.44203 25.64182 23.54192
#
# Velocity S-wave (km/s) = 3.62676 3.96607 3.80020
# Velocity P-wave (km/s) = 5.80007 6.45879 6.13827
#
# Compressibility (1/GPa) = 0.03809490
#
# Stress axis : x y z
#
# Youngs Moduli (GPa) = 67.36001 90.36162 31.84606
#
# Poissons Ratio (x) = 0.31476 0.17909
# Poissons Ratio (y) = 0.23464 0.01599
# Poissons Ratio (z) = 0.37881 0.04538
#
# Static dielectric constant tensor:
#      x y z
#    x 1.537510 0.000000 0.000000 
#    y 0.000000 1.603820 0.000000 
#    z 0.000000 0.000000 1.363060 
# 
# From -- ./inp_files/47569.got.cif
#   From: 2010.05.17/outbox.cif.g08.bks.cpg/sg71_24_cif.got.tgz:47569.got - 2010.06.03 16:22:01.
