data_PCOD9518750
_publ_section_title
;
Structure prediction by ZEFSAII (Michael W. Deem and Ramdas Pophale) SiO2 
 PCOD9518750
Probable space group: I M M M
;
_chemical_formula_sum "Si O2"
_cell_formula_units_Z 88
_cell_length_a 28.566663
_cell_length_b 12.622705
_cell_length_c 15.627028
_cell_angle_alpha 90.000000
_cell_angle_beta 90.000000
_cell_angle_gamma 90.000000
_cell_volume 5634.927522
_symmetry_space_group_name_H-M "I M M M"
_symmetry_group_IT_number 71
_symmetry_cell_setting 'orthorhombic'
loop_
_space_group_symop_operation_xyz
x,y,z
-x,-y,z
x,-y,-z
-x,y,-z
-x,-y,-z
x,y,-z
-x,y,z
x,-y,z
1/2+x,1/2+y,1/2+z
1/2-x,1/2-y,1/2+z
1/2+x,1/2-y,1/2-z
1/2-x,1/2+y,1/2-z
1/2-x,1/2-y,1/2-z
1/2+x,1/2+y,1/2-z
1/2-x,1/2+y,1/2+z
1/2+x,1/2-y,1/2+z
loop_
_atom_site_type_symbol
_atom_site_label
_atom_site_fract_x
_atom_site_fract_y
_atom_site_fract_z
Si Si1 0.176831 0.248354 0.097563
Si Si2 0.447062 0.695683 0.281971
Si Si3 0.727360 0.375166 0.099405
Si Si4 0.055864 0.000000 0.906000
Si Si5 0.147317 0.873209 0.734578
Si Si6 0.418702 0.125195 0.596809
O O1 0.226193 0.305997 0.112647
O O2 0.166189 0.166252 0.173219
O O3 0.135053 0.335010 0.100737
O O4 0.176491 0.204756 0.000000
O O5 0.500000 0.676442 0.250292
O O6 0.434705 0.605479 0.352632
O O7 0.403158 0.682104 0.218971
O O8 0.444818 0.806213 0.332097
O O9 0.738228 0.500000 0.113099
O O10 0.685721 0.345201 0.163285
O O11 0.713260 0.363332 0.000000
O O12 0.000000 0.000000 0.915455
O O13 0.077778 0.000000 0.000000
O O14 0.141439 0.000000 0.733689
O O15 0.435754 0.149655 0.500000
O O16 0.422179 0.000000 0.609773
#
# Coordination Sequence:
#
# PCOD9518750 Si02
#       6
#    16  16  16   8  16  16
#     4   9  17  29  45  66  92 121 145 172 217 269
#     4  10  19  30  42  59  85 119 153 185 224 265
#     4   9  17  30  49  68  87 113 147 185 225 269
#     4   9  16  26  40  56  77 111 151 179 206 258
#     4  10  19  30  44  66  90 117 151 186 221 259
#     4   9  17  28  42  62  89 118 150 184 216 256
#
# _framework density 15.616882
#
# number of rings (size 3 to 8) (size 9 to 14) (size 15 to 20)
#    0.000    2.636    0.909    1.636    0.000    4.727 
#    0.000    0.909    0.000    0.545    0.000    2.545 
#    0.000    0.000    0.000    6.545    0.000    0.000 
#
# Total GULP energy -245071.011834 kJ/mol
# GULP energy per Si atom -5569.795723 kJ/mol
# Density = 1.558134 g / cm^3
# Si number density = 15.616882 Si / 1000 Ang^3
#
#
#
# Elastic Constant Matrix: (Units=GPa)
#
#
# Indices 1 2 3 4 5 6 
#
# 1 113.9575 13.7800 44.0133 0.0000 0.0000 0.0000
# 2 13.7800 40.5268 11.8314 0.0000 0.0000 0.0000
# 3 44.0133 11.8314 40.4957 0.0000 0.0000 0.0000
# 4 0.0000 0.0000 0.0000 18.3349 0.0000 0.0000
# 5 0.0000 0.0000 0.0000 0.0000 16.0945 0.0000
# 6 0.0000 0.0000 0.0000 0.0000 0.0000 16.6326
#
#
#
# Elastic Compliance Matrix: (Units=1/GPa)
#
#
# Indices 1 2 3 4 5 6 
#
# 1 0.015129 -0.000376 -0.016333 0.000000 0.000000 0.000000
# 2 -0.000376 0.026985 -0.007476 0.000000 0.000000 0.000000
# 3 -0.016333 -0.007476 0.044630 0.000000 0.000000 0.000000
# 4 0.000000 0.000000 0.000000 0.054541 0.000000 0.000000
# 5 0.000000 0.000000 0.000000 0.000000 0.062133 0.000000
# 6 0.000000 0.000000 0.000000 0.000000 0.000000 0.060123
#
#
# Mechanical properties :
#
#
# Convention : Reuss Voigt Hill
#
# Bulk Modulus (GPa) = 26.05879 37.13661 31.59770
# Shear Modulus (GPa) = 15.39871 18.56943 16.98407
#
# Velocity S-wave (km/s) = 3.14352 3.45202 3.30137
# Velocity P-wave (km/s) = 5.46792 6.30238 5.89992
#
# Compressibility (1/GPa) = 0.03837477
#
# Stress axis : x y z
#
# Youngs Moduli (GPa) = 66.09810 37.05727 22.40630
#
# Poissons Ratio (x) = 0.01393 0.36597
# Poissons Ratio (y) = 0.02484 0.16750
# Poissons Ratio (z) = 1.07961 0.27703
#
# Static dielectric constant tensor:
#      x y z
#    x 1.546020 0.000000 0.000000 
#    y 0.000000 1.516490 0.000000 
#    z 0.000000 0.000000 1.522250 
# 
# From -- ./inp_files/28599.got.cif
#   From: 2010.05.17/outbox.cif.g08.bks.cpg/sg71_15_cif.got.tgz:28599.got - 2010.06.03 16:22:01.
