data_PCOD9518040
_publ_section_title
;
Structure prediction by ZEFSAII (Michael W. Deem and Ramdas Pophale) SiO2 
 PCOD9518040
Probable space group: I M M M
;
_chemical_formula_sum "Si O2"
_cell_formula_units_Z 84
_cell_length_a 30.081520
_cell_length_b 12.161418
_cell_length_c 14.496736
_cell_angle_alpha 90.000000
_cell_angle_beta 90.000000
_cell_angle_gamma 90.000000
_cell_volume 5303.398031
_symmetry_space_group_name_H-M "I M M M"
_symmetry_group_IT_number 71
_symmetry_cell_setting 'orthorhombic'
loop_
_space_group_symop_operation_xyz
x,y,z
-x,-y,z
x,-y,-z
-x,y,-z
-x,-y,-z
x,y,-z
-x,y,z
x,-y,z
1/2+x,1/2+y,1/2+z
1/2-x,1/2-y,1/2+z
1/2+x,1/2-y,1/2-z
1/2-x,1/2+y,1/2-z
1/2-x,1/2-y,1/2-z
1/2+x,1/2+y,1/2-z
1/2-x,1/2+y,1/2+z
1/2+x,1/2-y,1/2+z
loop_
_atom_site_type_symbol
_atom_site_label
_atom_site_fract_x
_atom_site_fract_y
_atom_site_fract_z
Si Si1 0.100116 0.000000 0.393690
Si Si2 0.684690 0.124985 0.000000
Si Si3 0.202207 0.760412 0.798537
Si Si4 0.840259 0.000000 0.793345
Si Si5 0.720210 0.722622 0.500000
Si Si6 0.870916 0.628749 0.686555
Si Si7 0.551938 0.734343 0.892429
Si Si8 0.662223 0.500000 0.500000
O O1 0.070701 0.110247 0.388159
O O2 0.120170 0.000000 0.500000
O O3 0.131103 0.000000 0.301831
O O4 0.654365 0.139032 0.088814
O O5 0.727119 0.202311 0.000000
O O6 0.702132 0.000000 0.000000
O O7 0.250000 0.750000 0.750000
O O8 0.207490 0.723207 0.904111
O O9 0.162576 0.690427 0.754574
O O10 0.188505 0.888620 0.792153
O O11 0.861771 0.000000 0.898429
O O12 0.693815 0.606677 0.500000
O O13 0.876182 0.500000 0.708138
O O14 0.917582 0.690005 0.672167
O O15 0.500000 0.737387 0.868648
O O16 0.556294 0.770219 0.000000
#
# Coordination Sequence:
#
# PCOD9518040 Si02
#       8
#     8   8  16   8   8  16  16   4
#     4  10  19  34  56  84 114 144 174 212 276 333
#     4  10  18  30  49  72 103 136 181 221 257 300
#     4  11  22  34  53  76 107 140 181 222 264 315
#     4  10  20  35  54  77 107 140 184 224 264 322
#     4  10  18  32  51  75 101 141 177 218 261 311
#     4  11  22  34  52  76 106 144 182 223 262 307
#     4  10  20  35  54  80 112 143 175 214 269 331
#     4   8  18  30  52  76  97 138 185 222 262 296
#
# _framework density 15.838901
#
# number of rings (size 3 to 8) (size 9 to 14) (size 15 to 20)
#    0.000    1.714    5.238    0.286    1.333    1.524 
#    1.714    1.429    0.000    0.000    0.000    3.333 
#    0.000    1.524    0.000    0.000    0.000    0.000 
#
# Total GULP energy -233948.038706 kJ/mol
# GULP energy per Si atom -5570.191398 kJ/mol
# Density = 1.580285 g / cm^3
# Si number density = 15.838901 Si / 1000 Ang^3
#
#
#
# Elastic Constant Matrix: (Units=GPa)
#
#
# Indices 1 2 3 4 5 6 
#
# 1 102.4790 44.2138 60.0558 0.0000 0.0000 0.0000
# 2 44.2138 84.7010 37.7043 0.0000 0.0000 0.0000
# 3 60.0558 37.7043 124.9989 0.0000 0.0000 0.0000
# 4 0.0000 0.0000 0.0000 16.9610 0.0000 0.0000
# 5 0.0000 0.0000 0.0000 0.0000 -138.9202 0.0000
# 6 0.0000 0.0000 0.0000 0.0000 0.0000 15.9329
#
#
#
# Elastic Compliance Matrix: (Units=1/GPa)
#
#
# Indices 1 2 3 4 5 6 
#
# 1 0.015543 -0.005532 -0.005799 0.000000 0.000000 0.000000
# 2 -0.005532 0.015606 -0.002050 0.000000 0.000000 0.000000
# 3 -0.005799 -0.002050 0.011404 0.000000 0.000000 0.000000
# 4 0.000000 0.000000 0.000000 0.058959 0.000000 0.000000
# 5 0.000000 0.000000 0.000000 0.000000 -0.007198 0.000000
# 6 0.000000 0.000000 0.000000 0.000000 0.000000 0.062763
#
#
# Mechanical properties :
#
#
# Convention : Reuss Voigt Hill
#
# Bulk Modulus (GPa) = 63.32085 66.23631 64.77858
# Shear Modulus (GPa) = 26.44051 -9.85827 8.29112
#
# Velocity S-wave (km/s) = 4.09019 -2.49752 2.29042
# Velocity P-wave (km/s) = 7.89753 5.79592 6.92690
#
# Compressibility (1/GPa) = 0.01579259
#
# Stress axis : x y z
#
# Youngs Moduli (GPa) = 64.33613 64.07650 87.68497
#
# Poissons Ratio (x) = 0.35448 0.50849
# Poissons Ratio (y) = 0.35592 0.17971
# Poissons Ratio (z) = 0.37309 0.13133
#
# Static dielectric constant tensor:
#      x y z
#    x 1.503950 0.000000 0.000000 
#    y 0.000000 1.528340 0.000000 
#    z 0.000000 0.000000 1.572300 
# 
# From -- ./inp_files/22569.got.cif
#   From: 2010.05.17/outbox.cif.g08.bks.cpg/sg71_12_cif.got.tgz:22569.got - 2010.06.03 16:22:01.
