data_PCOD9518890
_publ_section_title
;
Structure prediction by ZEFSAII (Michael W. Deem and Ramdas Pophale) SiO2 
 PCOD9518890
Probable space group: I M M M
;
_chemical_formula_sum "Si O2"
_cell_formula_units_Z 88
_cell_length_a 33.165543
_cell_length_b 9.127074
_cell_length_c 17.658972
_cell_angle_alpha 90.000000
_cell_angle_beta 90.000000
_cell_angle_gamma 90.000000
_cell_volume 5345.447910
_symmetry_space_group_name_H-M "I M M M"
_symmetry_group_IT_number 71
_symmetry_cell_setting 'orthorhombic'
loop_
_space_group_symop_operation_xyz
x,y,z
-x,-y,z
x,-y,-z
-x,y,-z
-x,-y,-z
x,y,-z
-x,y,z
x,-y,z
1/2+x,1/2+y,1/2+z
1/2-x,1/2-y,1/2+z
1/2+x,1/2-y,1/2-z
1/2-x,1/2+y,1/2-z
1/2-x,1/2-y,1/2-z
1/2+x,1/2+y,1/2-z
1/2-x,1/2+y,1/2+z
1/2+x,1/2-y,1/2+z
loop_
_atom_site_type_symbol
_atom_site_label
_atom_site_fract_x
_atom_site_fract_y
_atom_site_fract_z
Si Si1 0.951043 0.830681 0.000000
Si Si2 0.693701 0.667578 0.305725
Si Si3 0.383444 0.175719 0.757308
Si Si4 0.346079 0.175160 0.917063
Si Si5 0.732332 0.667156 0.863356
Si Si6 0.952475 0.822748 0.833377
O O1 0.939647 0.769082 0.082010
O O2 0.000000 0.832820 0.000000
O O3 0.937648 0.000000 0.000000
O O4 0.685119 0.500000 0.327885
O O5 0.653147 0.759343 0.292887
O O6 0.715248 0.663388 0.223049
O O7 0.725863 0.745118 0.360333
O O8 0.372955 0.216289 0.844472
O O9 0.424444 0.247041 0.728020
O O10 0.384466 0.000000 0.751574
O O11 0.302845 0.252160 0.908735
O O12 0.339994 0.000000 0.912316
O O13 0.363420 0.209586 0.000000
O O14 0.738013 0.500000 0.888214
O O15 0.000000 0.791518 0.823314
O O16 0.948039 0.000000 0.831252
#
# Coordination Sequence:
#
# PCOD9518890 Si02
#       6
#     8  16  16  16  16  16
#     4   7  12  26  49  73  93 117 149 181 217 273
#     4   9  16  27  44  65  90 121 154 187 230 287
#     4  10  19  30  47  72  99 126 160 204 247 284
#     4   9  18  32  48  66  92 129 170 206 241 286
#     4   9  16  26  43  67  91 115 149 195 242 281
#     4   9  17  31  52  75  98 125 157 192 234 290
#
# _framework density 16.462606000000001
#
# number of rings (size 3 to 8) (size 9 to 14) (size 15 to 20)
#    0.000    3.000    0.000    2.727    0.000    5.818 
#    0.000    0.455    2.000    2.182    0.000    3.818 
#    0.000    0.000    0.000    0.000    0.000    0.000 
#
# Total GULP energy -244960.311990 kJ/mol
# GULP energy per Si atom -5567.279818 kJ/mol
# Density = 1.642514 g / cm^3
# Si number density = 16.462606 Si / 1000 Ang^3
#
#
#
# Elastic Constant Matrix: (Units=GPa)
#
#
# Indices 1 2 3 4 5 6 
#
# 1 87.9694 47.0428 56.3765 0.0000 0.0000 0.0000
# 2 47.0428 54.5277 39.3039 0.0000 0.0000 0.0000
# 3 56.3765 39.3039 95.3079 0.0000 0.0000 0.0000
# 4 0.0000 0.0000 0.0000 16.3655 0.0000 0.0000
# 5 0.0000 0.0000 0.0000 0.0000 16.3237 0.0000
# 6 0.0000 0.0000 0.0000 0.0000 0.0000 29.2398
#
#
#
# Elastic Compliance Matrix: (Units=1/GPa)
#
#
# Indices 1 2 3 4 5 6 
#
# 1 0.025096 -0.015583 -0.008418 0.000000 0.000000 0.000000
# 2 -0.015583 0.035773 -0.005535 0.000000 0.000000 0.000000
# 3 -0.008418 -0.005535 0.017754 0.000000 0.000000 0.000000
# 4 0.000000 0.000000 0.000000 0.061104 0.000000 0.000000
# 5 0.000000 0.000000 0.000000 0.000000 0.061261 0.000000
# 6 0.000000 0.000000 0.000000 0.000000 0.000000 0.034200
#
#
# Mechanical properties :
#
#
# Convention : Reuss Voigt Hill
#
# Bulk Modulus (GPa) = 51.14870 58.13904 54.64387
# Shear Modulus (GPa) = 16.62364 18.72459 17.67412
#
# Velocity S-wave (km/s) = 3.18115 3.37620 3.28013
# Velocity P-wave (km/s) = 6.68057 7.11272 6.90003
#
# Compressibility (1/GPa) = 0.01955084
#
# Stress axis : x y z
#
# Youngs Moduli (GPa) = 39.84718 27.95441 56.32407
#
# Poissons Ratio (x) = 0.43561 0.47416
# Poissons Ratio (y) = 0.62094 0.31173
# Poissons Ratio (z) = 0.33545 0.15472
#
# Static dielectric constant tensor:
#      x y z
#    x 1.527700 0.000000 0.000000 
#    y 0.000000 1.554250 0.000000 
#    z 0.000000 0.000000 1.581680 
# 
# From -- ./inp_files/16683.got.cif
#   From: 2010.05.17/outbox.cif.g08.bks.cpg/sg71_9_cif.got.tgz:16683.got - 2010.06.03 16:22:01.
