data_PCOD9518710
_publ_section_title
;
Structure prediction by ZEFSAII (Michael W. Deem and Ramdas Pophale) SiO2 
 PCOD9518710
Probable space group: I M M M
;
_chemical_formula_sum "Si O2"
_cell_formula_units_Z 104
_cell_length_a 23.048586
_cell_length_b 8.166187
_cell_length_c 29.525408
_cell_angle_alpha 90.000000
_cell_angle_beta 90.000000
_cell_angle_gamma 90.000000
_cell_volume 5557.244639
_symmetry_space_group_name_H-M "I M M M"
_symmetry_group_IT_number 71
_symmetry_cell_setting 'orthorhombic'
loop_
_space_group_symop_operation_xyz
x,y,z
-x,-y,z
x,-y,-z
-x,y,-z
-x,-y,-z
x,y,-z
-x,y,z
x,-y,z
1/2+x,1/2+y,1/2+z
1/2-x,1/2-y,1/2+z
1/2+x,1/2-y,1/2-z
1/2-x,1/2+y,1/2-z
1/2-x,1/2-y,1/2-z
1/2+x,1/2+y,1/2-z
1/2-x,1/2+y,1/2+z
1/2+x,1/2-y,1/2+z
loop_
_atom_site_type_symbol
_atom_site_label
_atom_site_fract_x
_atom_site_fract_y
_atom_site_fract_z
Si Si1 0.430772 0.176125 0.101294
Si Si2 0.365681 0.198600 0.360167
Si Si3 0.934715 0.303074 0.227096
Si Si4 0.125241 0.807907 0.685604
Si Si5 0.929291 0.000000 0.447626
Si Si6 0.567208 0.800079 0.551905
Si Si7 0.245598 0.303098 0.197351
O O1 0.500000 0.175062 0.095384
O O2 0.416231 0.203459 0.153696
O O3 0.407403 0.334559 0.075523
O O4 0.408289 0.000000 0.085671
O O5 0.416218 0.234511 0.323923
O O6 0.387647 0.256429 0.409390
O O7 0.306972 0.257918 0.334590
O O8 0.360147 0.000000 0.363354
O O9 0.931566 0.500000 0.232174
O O10 0.890749 0.225068 0.262550
O O11 0.000000 0.248846 0.236971
O O12 0.191720 0.761754 0.676693
O O13 0.116867 0.000000 0.676150
O O14 0.915025 0.000000 0.500000
O O15 0.000000 0.000000 0.443533
O O16 0.580588 0.750171 0.500000
O O17 0.500000 0.752664 0.561843
O O18 0.567934 0.000000 0.552635
O O19 0.240353 0.500000 0.198828
O O20 0.250000 0.250000 0.250000
#
# Coordination Sequence:
#
# PCOD9518710 Si02
#       7
#    16  16  16  16   8  16  16
#     4  10  20  34  54  80 108 141 180 218 269 333
#     4   9  16  28  44  64  95 132 166 211 256 309
#     4  10  19  29  45  69  95 127 167 207 256 316
#     4  11  21  32  47  68  99 138 178 219 264 318
#     4   9  18  34  56  82 112 140 170 218 270 316
#     4   8  13  22  40  68  99 129 161 202 259 320
#     4  10  20  33  49  68  94 134 178 217 257 313
#
# _framework density 18.714310999999999
#
# number of rings (size 3 to 8) (size 9 to 14) (size 15 to 20)
#    0.000    2.385    2.308    1.846    0.000    4.923 
#    0.000    1.538    0.000    0.923    0.000    0.000 
#    0.000    2.462    0.000    8.462    0.000    7.692 
#
# Total GULP energy -289740.849763 kJ/mol
# GULP energy per Si atom -5571.939419 kJ/mol
# Density = 1.867172 g / cm^3
# Si number density = 18.714311 Si / 1000 Ang^3
#
#
#
# Elastic Constant Matrix: (Units=GPa)
#
#
# Indices 1 2 3 4 5 6 
#
# 1 79.4852 13.4505 31.5800 0.0000 0.0000 0.0000
# 2 13.4505 50.9449 28.8568 0.0000 0.0000 0.0000
# 3 31.5800 28.8568 113.5941 0.0000 0.0000 0.0000
# 4 0.0000 0.0000 0.0000 11.1451 0.0000 0.0000
# 5 0.0000 0.0000 0.0000 0.0000 22.0037 0.0000
# 6 0.0000 0.0000 0.0000 0.0000 0.0000 6.4641
#
#
#
# Elastic Compliance Matrix: (Units=1/GPa)
#
#
# Indices 1 2 3 4 5 6 
#
# 1 0.014280 -0.001777 -0.003518 0.000000 0.000000 0.000000
# 2 -0.001777 0.023149 -0.005387 0.000000 0.000000 0.000000
# 3 -0.003518 -0.005387 0.011150 0.000000 0.000000 0.000000
# 4 0.000000 0.000000 0.000000 0.089726 0.000000 0.000000
# 5 0.000000 0.000000 0.000000 0.000000 0.045447 0.000000
# 6 0.000000 0.000000 0.000000 0.000000 0.000000 0.154701
#
#
# Mechanical properties :
#
#
# Convention : Reuss Voigt Hill
#
# Bulk Modulus (GPa) = 36.74530 43.53319 40.13924
# Shear Modulus (GPa) = 13.55424 19.26503 16.40963
#
# Velocity S-wave (km/s) = 2.69415 3.21195 2.96438
# Velocity P-wave (km/s) = 5.41806 6.08835 5.76296
#
# Compressibility (1/GPa) = 0.02721437
#
# Stress axis : x y z
#
# Youngs Moduli (GPa) = 70.03013 43.19752 89.68761
#
# Poissons Ratio (x) = 0.07677 0.31555
# Poissons Ratio (y) = 0.12446 0.48312
# Poissons Ratio (z) = 0.24639 0.23269
#
# Static dielectric constant tensor:
#      x y z
#    x 1.659990 0.000000 0.000000 
#    y 0.000000 1.688250 0.000000 
#    z 0.000000 0.000000 1.657420 
# 
# From -- ./inp_files/66821.got.cif
#   From: 2010.05.17/outbox.cif.g08.bks.cpg/sg71_34_cif.got.tgz:66821.got - 2010.06.03 16:22:01.
