data_PCOD9518143
_publ_section_title
;
Structure prediction by ZEFSAII (Michael W. Deem and Ramdas Pophale) SiO2 
 PCOD9518143
Probable space group: I M M M
;
_chemical_formula_sum "Si O2"
_cell_formula_units_Z 104
_cell_length_a 7.722920
_cell_length_b 27.467629
_cell_length_c 23.977039
_cell_angle_alpha 90.000000
_cell_angle_beta 90.000000
_cell_angle_gamma 90.000000
_cell_volume 5086.256509
_symmetry_space_group_name_H-M "I M M M"
_symmetry_group_IT_number 71
_symmetry_cell_setting 'orthorhombic'
loop_
_space_group_symop_operation_xyz
x,y,z
-x,-y,z
x,-y,-z
-x,y,-z
-x,-y,-z
x,y,-z
-x,y,z
x,-y,z
1/2+x,1/2+y,1/2+z
1/2-x,1/2-y,1/2+z
1/2+x,1/2-y,1/2-z
1/2-x,1/2+y,1/2-z
1/2-x,1/2-y,1/2-z
1/2+x,1/2+y,1/2-z
1/2-x,1/2+y,1/2+z
1/2+x,1/2-y,1/2+z
loop_
_atom_site_type_symbol
_atom_site_label
_atom_site_fract_x
_atom_site_fract_y
_atom_site_fract_z
Si Si1 0.786927 0.443633 0.238489
Si Si2 0.792939 0.000000 0.062690
Si Si3 0.305995 0.132463 0.646843
Si Si4 0.202655 0.410069 0.359623
Si Si5 0.707067 0.323098 0.438428
Si Si6 0.294425 0.446210 0.934000
Si Si7 0.712199 0.211208 0.436751
O O1 0.733543 0.500000 0.227645
O O2 0.727711 0.401657 0.195302
O O3 0.725368 0.426933 0.299837
O O4 0.000000 0.444204 0.236056
O O5 0.738260 0.952501 0.096264
O O6 0.000000 0.000000 0.060029
O O7 0.723513 0.000000 0.000000
O O8 0.500000 0.146455 0.665605
O O9 0.312075 0.094609 0.596016
O O10 0.224568 0.178970 0.615487
O O11 0.255017 0.359725 0.388482
O O12 0.000000 0.406765 0.350098
O O13 0.770485 0.340204 0.500000
O O14 0.500000 0.320745 0.442012
O O15 0.766181 0.267487 0.430384
O O16 0.500000 0.439239 0.923562
O O17 0.245935 0.500000 0.913671
O O18 0.269755 0.444805 0.000000
O O19 0.763926 0.195181 0.500000
O O20 0.500000 0.208928 0.435831
#
# Coordination Sequence:
#
# PCOD9518143 Si02
#       7
#    16   8  16  16  16  16  16
#     4   9  18  33  50  71 103 139 170 208 262 305
#     4  11  23  37  55  81 109 133 164 209 260 311
#     4  10  18  30  53  77  95 126 178 223 250 295
#     4  11  21  35  54  76 106 140 173 208 251 308
#     4   9  18  34  54  75 104 137 166 206 262 314
#     4   9  18  31  44  63  98 136 163 201 266 325
#     4   8  15  29  50  77 105 131 164 213 268 309
#
# _framework density 20.44726
#
# number of rings (size 3 to 8) (size 9 to 14) (size 15 to 20)
#    0.000    2.538    0.769    3.462    0.000    4.615 
#    0.000    3.846    0.000    0.923    0.000    0.000 
#    0.000    0.000    0.000    0.000    0.000    0.000 
#
# Total GULP energy -289850.320153 kJ/mol
# GULP energy per Si atom -5574.044618 kJ/mol
# Density = 2.040072 g / cm^3
# Si number density = 20.447260 Si / 1000 Ang^3
#
#
#
# Elastic Constant Matrix: (Units=GPa)
#
#
# Indices 1 2 3 4 5 6 
#
# 1 22.5678 4.6506 2.4482 0.0000 0.0000 0.0000
# 2 4.6506 118.5956 83.8945 0.0000 0.0000 0.0000
# 3 2.4482 83.8945 137.0759 0.0000 0.0000 0.0000
# 4 0.0000 0.0000 0.0000 31.2868 0.0000 0.0000
# 5 0.0000 0.0000 0.0000 0.0000 28.3987 0.0000
# 6 0.0000 0.0000 0.0000 0.0000 0.0000 29.4631
#
#
#
# Elastic Compliance Matrix: (Units=1/GPa)
#
#
# Indices 1 2 3 4 5 6 
#
# 1 0.044690 -0.002095 0.000484 0.000000 0.000000 0.000000
# 2 -0.002095 0.014968 -0.009124 0.000000 0.000000 0.000000
# 3 0.000484 -0.009124 0.012870 0.000000 0.000000 0.000000
# 4 0.000000 0.000000 0.000000 0.031962 0.000000 0.000000
# 5 0.000000 0.000000 0.000000 0.000000 0.035213 0.000000
# 6 0.000000 0.000000 0.000000 0.000000 0.000000 0.033941
#
#
# Mechanical properties :
#
#
# Convention : Reuss Voigt Hill
#
# Bulk Modulus (GPa) = 19.58482 51.13619 35.36051
# Shear Modulus (GPa) = 23.57007 30.31281 26.94144
#
# Velocity S-wave (km/s) = 3.39886 3.85449 3.63382
# Velocity P-wave (km/s) = 5.00020 6.69870 5.91078
#
# Compressibility (1/GPa) = 0.05105996
#
# Stress axis : x y z
#
# Youngs Moduli (GPa) = 22.37628 66.80860 77.69735
#
# Poissons Ratio (x) = 0.13995 -0.03760
# Poissons Ratio (y) = 0.04687 0.70887
# Poissons Ratio (z) = -0.01083 0.60953
#
# Static dielectric constant tensor:
#      x y z
#    x 1.777200 0.000000 0.000000 
#    y 0.000000 1.732030 0.000000 
#    z 0.000000 0.000000 1.772970 
# 
# From -- ./inp_files/57981.got.cif
#   From: 2010.05.17/outbox.cif.g08.bks.cpg/sg71_29_cif.got.tgz:57981.got - 2010.06.03 16:22:01.
