data_PCOD9518344
_publ_section_title
;
Structure prediction by ZEFSAII (Michael W. Deem and Ramdas Pophale) SiO2 
 PCOD9518344
Probable space group: I M M M
;
_chemical_formula_sum "Si O2"
_cell_formula_units_Z 104
_cell_length_a 17.920228
_cell_length_b 18.055480
_cell_length_c 18.503627
_cell_angle_alpha 90.000000
_cell_angle_beta 90.000000
_cell_angle_gamma 90.000000
_cell_volume 5987.002434
_symmetry_space_group_name_H-M "I M M M"
_symmetry_group_IT_number 71
_symmetry_cell_setting 'orthorhombic'
loop_
_space_group_symop_operation_xyz
x,y,z
-x,-y,z
x,-y,-z
-x,y,-z
-x,-y,-z
x,y,-z
-x,y,z
x,-y,z
1/2+x,1/2+y,1/2+z
1/2-x,1/2-y,1/2+z
1/2+x,1/2-y,1/2-z
1/2-x,1/2+y,1/2-z
1/2-x,1/2-y,1/2-z
1/2+x,1/2+y,1/2-z
1/2-x,1/2+y,1/2+z
1/2+x,1/2-y,1/2+z
loop_
_atom_site_type_symbol
_atom_site_label
_atom_site_fract_x
_atom_site_fract_y
_atom_site_fract_z
Si Si1 0.124833 0.324550 0.835782
Si Si2 0.915724 0.153348 0.159351
Si Si3 0.849950 0.085297 0.301408
Si Si4 0.000000 0.587917 0.917151
Si Si5 0.781462 0.191327 0.584878
Si Si6 0.243223 0.863953 0.916725
Si Si7 0.688918 0.079708 0.778020
O O1 0.092918 0.242000 0.833346
O O2 0.200459 0.327727 0.882394
O O3 0.142258 0.353828 0.755751
O O4 0.069953 0.379675 0.875482
O O5 0.902971 0.115148 0.237419
O O6 0.843751 0.133339 0.109517
O O7 0.000000 0.136272 0.132940
O O8 0.839877 0.144338 0.366646
O O9 0.768504 0.082662 0.263129
O O10 0.867960 0.000000 0.322762
O O11 0.000000 0.500000 0.917160
O O12 0.000000 0.614574 0.000000
O O13 0.787795 0.172863 0.500000
O O14 0.777824 0.280831 0.591014
O O15 0.290976 0.911901 0.861368
O O16 0.247084 0.885466 0.000000
O O17 0.653720 0.000000 0.762615
#
# Coordination Sequence:
#
# PCOD9518344 Si02
#       7
#    16  16  16   8  16  16  16
#     4  10  18  32  48  71  99 135 172 201 233 288
#     4  10  19  32  49  71  97 136 171 200 237 290
#     4   9  18  31  48  70  95 124 165 212 251 291
#     4  11  22  32  44  70 110 144 166 195 236 286
#     4   9  17  30  49  72  97 126 159 201 251 296
#     4   9  18  31  48  74 102 127 161 207 249 291
#     4   9  17  30  49  69  94 128 165 207 251 290
#
# _framework density 17.370963
#
# number of rings (size 3 to 8) (size 9 to 14) (size 15 to 20)
#    0.000    2.538    0.769    1.846    0.000    6.154 
#    0.000    0.000    0.000    0.462    0.000    5.923 
#    0.000    1.846    0.000    0.000    0.000    0.000 
#
# Total GULP energy -289495.505994 kJ/mol
# GULP energy per Si atom -5567.221269 kJ/mol
# Density = 1.733143 g / cm^3
# Si number density = 17.370963 Si / 1000 Ang^3
#
#
#
# Elastic Constant Matrix: (Units=GPa)
#
#
# Indices 1 2 3 4 5 6 
#
# 1 20.2600 3.7247 9.4053 0.0000 0.0000 0.0000
# 2 3.7247 29.5786 17.2316 0.0000 0.0000 0.0000
# 3 9.4053 17.2316 101.8327 0.0000 0.0000 0.0000
# 4 0.0000 0.0000 0.0000 23.2742 0.0000 0.0000
# 5 0.0000 0.0000 0.0000 0.0000 15.9822 0.0000
# 6 0.0000 0.0000 0.0000 0.0000 0.0000 18.8229
#
#
#
# Elastic Compliance Matrix: (Units=1/GPa)
#
#
# Indices 1 2 3 4 5 6 
#
# 1 0.052027 -0.004163 -0.004101 0.000000 0.000000 0.000000
# 2 -0.004163 0.037839 -0.006018 0.000000 0.000000 0.000000
# 3 -0.004101 -0.006018 0.011217 0.000000 0.000000 0.000000
# 4 0.000000 0.000000 0.000000 0.042966 0.000000 0.000000
# 5 0.000000 0.000000 0.000000 0.000000 0.062570 0.000000
# 6 0.000000 0.000000 0.000000 0.000000 0.000000 0.053127
#
#
# Mechanical properties :
#
#
# Convention : Reuss Voigt Hill
#
# Bulk Modulus (GPa) = 13.78941 23.59939 18.69440
# Shear Modulus (GPa) = 16.00091 19.70317 17.85204
#
# Velocity S-wave (km/s) = 3.03830 3.37153 3.20924
# Velocity P-wave (km/s) = 4.50154 5.36389 4.95152
#
# Compressibility (1/GPa) = 0.07251941
#
# Stress axis : x y z
#
# Youngs Moduli (GPa) = 19.22069 26.42807 89.14897
#
# Poissons Ratio (x) = 0.11001 0.36559
# Poissons Ratio (y) = 0.08001 0.53653
# Poissons Ratio (z) = 0.07882 0.15905
#
# Static dielectric constant tensor:
#      x y z
#    x 1.566920 0.000000 0.000000 
#    y 0.000000 1.609480 0.000000 
#    z 0.000000 0.000000 1.583210 
# 
# From -- ./inp_files/46119.got.cif
#   From: 2010.05.17/outbox.cif.g08.bks.cpg/sg71_24_cif.got.tgz:46119.got - 2010.06.03 16:22:01.
