data_PCOD9518321
_publ_section_title
;
Structure prediction by ZEFSAII (Michael W. Deem and Ramdas Pophale) SiO2 
 PCOD9518321
Probable space group: I M M M
;
_chemical_formula_sum "Si O2"
_cell_formula_units_Z 80
_cell_length_a 24.162985
_cell_length_b 7.478947
_cell_length_c 22.316988
_cell_angle_alpha 90.000000
_cell_angle_beta 90.000000
_cell_angle_gamma 90.000000
_cell_volume 4032.985121
_symmetry_space_group_name_H-M "I M M M"
_symmetry_group_IT_number 71
_symmetry_cell_setting 'orthorhombic'
loop_
_space_group_symop_operation_xyz
x,y,z
-x,-y,z
x,-y,-z
-x,y,-z
-x,-y,-z
x,y,-z
-x,y,z
x,-y,z
1/2+x,1/2+y,1/2+z
1/2-x,1/2-y,1/2+z
1/2+x,1/2-y,1/2-z
1/2-x,1/2+y,1/2-z
1/2-x,1/2-y,1/2-z
1/2+x,1/2+y,1/2-z
1/2-x,1/2+y,1/2+z
1/2+x,1/2-y,1/2+z
loop_
_atom_site_type_symbol
_atom_site_label
_atom_site_fract_x
_atom_site_fract_y
_atom_site_fract_z
Si Si1 0.933932 0.000000 0.570633
Si Si2 0.368170 0.783465 0.853419
Si Si3 0.063552 0.780981 0.000000
Si Si4 0.769219 0.716676 0.563647
Si Si5 0.684993 0.211999 0.266799
Si Si6 0.150753 0.788593 0.902453
O O1 0.911429 0.171870 0.607483
O O2 0.917238 0.000000 0.500000
O O3 0.000000 0.000000 0.571876
O O4 0.309157 0.735785 0.883152
O O5 0.357742 0.727594 0.784909
O O6 0.376809 0.000000 0.857338
O O7 0.097986 0.722809 0.059582
O O8 0.000000 0.720139 0.000000
O O9 0.061580 0.000000 0.000000
O O10 0.793444 0.771478 0.500000
O O11 0.766438 0.500000 0.564442
O O12 0.707524 0.786226 0.570166
O O13 0.750000 0.250000 0.250000
O O14 0.661685 0.270028 0.331405
O O15 0.682573 0.000000 0.266449
O O16 0.150348 0.000000 0.914155
#
# Coordination Sequence:
#
# PCOD9518321 Si02
#       6
#     8  16   8  16  16  16
#     4  11  26  46  68  94 122 159 213 265 313 371
#     4  10  22  39  61  91 128 165 204 253 315 383
#     4   9  18  34  57  85 117 159 211 260 302 351
#     4   9  15  27  50  81 114 152 194 242 306 370
#     4  11  22  35  56  89 127 164 200 246 314 382
#     4  10  18  31  55  83 116 157 202 253 302 360
#
# _framework density 19.836421999999999
#
# number of rings (size 3 to 8) (size 9 to 14) (size 15 to 20)
#    0.000    2.000    3.000    1.200    2.800    1.600 
#    0.000    2.500    0.000    2.400    0.000    0.000 
#    0.000    0.000    0.000    0.000    0.000    0.000 
#
# Total GULP energy -222815.997312 kJ/mol
# GULP energy per Si atom -5570.399933 kJ/mol
# Density = 1.979127 g / cm^3
# Si number density = 19.836422 Si / 1000 Ang^3
#
#
#
# Elastic Constant Matrix: (Units=GPa)
#
#
# Indices 1 2 3 4 5 6 
#
# 1 129.3648 22.7867 67.3767 0.0000 0.0000 0.0000
# 2 22.7867 72.1579 9.1711 0.0000 0.0000 0.0000
# 3 67.3767 9.1711 158.1943 0.0000 0.0000 0.0000
# 4 0.0000 0.0000 0.0000 19.3067 0.0000 0.0000
# 5 0.0000 0.0000 0.0000 0.0000 13.0396 0.0000
# 6 0.0000 0.0000 0.0000 0.0000 0.0000 12.9212
#
#
#
# Elastic Compliance Matrix: (Units=1/GPa)
#
#
# Indices 1 2 3 4 5 6 
#
# 1 0.010450 -0.002755 -0.004291 0.000000 0.000000 0.000000
# 2 -0.002755 0.014688 0.000322 0.000000 0.000000 0.000000
# 3 -0.004291 0.000322 0.008130 0.000000 0.000000 0.000000
# 4 0.000000 0.000000 0.000000 0.051796 0.000000 0.000000
# 5 0.000000 0.000000 0.000000 0.000000 0.076690 0.000000
# 6 0.000000 0.000000 0.000000 0.000000 0.000000 0.077392
#
#
# Mechanical properties :
#
#
# Convention : Reuss Voigt Hill
#
# Bulk Modulus (GPa) = 50.45431 62.04288 56.24860
# Shear Modulus (GPa) = 19.29010 26.41232 22.85121
#
# Velocity S-wave (km/s) = 3.12181 3.65294 3.39777
# Velocity P-wave (km/s) = 6.20360 7.00979 6.61898
#
# Compressibility (1/GPa) = 0.01981991
#
# Stress axis : x y z
#
# Youngs Moduli (GPa) = 95.69138 68.08504 122.99600
#
# Poissons Ratio (x) = 0.18755 0.52780
# Poissons Ratio (y) = 0.26360 -0.03958
# Poissons Ratio (z) = 0.41063 -0.02191
#
# Static dielectric constant tensor:
#      x y z
#    x 1.708490 0.000000 0.000000 
#    y 0.000000 1.718890 0.000000 
#    z 0.000000 0.000000 1.881500 
# 
# From -- ./inp_files/55457.got.cif
#   From: 2010.05.17/outbox.cif.g08.bks.cpg/sg71_28_cif.got.tgz:55457.got - 2010.06.03 16:22:01.
