data_PCOD9518686
_publ_section_title
;
Structure prediction by ZEFSAII (Michael W. Deem and Ramdas Pophale) SiO2 
 PCOD9518686
Probable space group: I M M M
;
_chemical_formula_sum "Si O2"
_cell_formula_units_Z 88
_cell_length_a 23.075296
_cell_length_b 7.428245
_cell_length_c 21.958163
_cell_angle_alpha 90.000000
_cell_angle_beta 90.000000
_cell_angle_gamma 90.000000
_cell_volume 3763.825711
_symmetry_space_group_name_H-M "I M M M"
_symmetry_group_IT_number 71
_symmetry_cell_setting 'orthorhombic'
loop_
_space_group_symop_operation_xyz
x,y,z
-x,-y,z
x,-y,-z
-x,y,-z
-x,-y,-z
x,y,-z
-x,y,z
x,-y,z
1/2+x,1/2+y,1/2+z
1/2-x,1/2-y,1/2+z
1/2+x,1/2-y,1/2-z
1/2-x,1/2+y,1/2-z
1/2-x,1/2-y,1/2-z
1/2+x,1/2+y,1/2-z
1/2-x,1/2+y,1/2+z
1/2+x,1/2-y,1/2+z
loop_
_atom_site_type_symbol
_atom_site_label
_atom_site_fract_x
_atom_site_fract_y
_atom_site_fract_z
Si Si1 0.568780 0.203575 0.166414
Si Si2 0.071288 0.000000 0.428937
Si Si3 0.904652 0.281357 0.933461
Si Si4 0.085490 0.296325 0.197808
Si Si5 0.766060 0.789391 0.936176
Si Si6 0.782821 0.785748 0.811160
O O1 0.500000 0.188490 0.156568
O O2 0.590662 0.328502 0.111644
O O3 0.574244 0.282851 0.235187
O O4 0.593998 0.000000 0.165911
O O5 0.089024 0.000000 0.500000
O O6 0.000000 0.000000 0.429131
O O7 0.906986 0.500000 0.931479
O O8 0.931193 0.218369 0.868797
O O9 0.836639 0.226352 0.934600
O O10 0.928532 0.226139 0.000000
O O11 0.062501 0.500000 0.200989
O O12 0.154668 0.301847 0.192936
O O13 0.748614 0.717677 0.870564
O O14 0.750872 0.000000 0.937844
O O15 0.746572 0.707116 0.000000
O O16 0.750000 0.750000 0.750000
O O17 0.791874 0.000000 0.817901
#
# Coordination Sequence:
#
# PCOD9518686 Si02
#       6
#    16   8  16  16  16  16
#     4   9  18  32  51  76 104 133 165 203 250 302
#     4   9  18  32  52  78 103 127 161 207 252 300
#     4   8  13  22  38  61  88 117 151 192 231 267
#     4   9  17  29  46  68  95 126 160 197 242 291
#     4   8  14  25  40  58  80 107 142 184 227 269
#     4  10  19  29  44  66  91 119 154 196 240 287
#
# _framework density 23.380468
#
# number of rings (size 3 to 8) (size 9 to 14) (size 15 to 20)
#    0.000    3.182    0.000    0.545    1.273    1.091 
#    0.000    1.818    0.000    1.636    0.000    6.364 
#    0.000    2.182    0.000    0.182    0.000    0.000 
#
# Total GULP energy -245063.166080 kJ/mol
# GULP energy per Si atom -5569.617411 kJ/mol
# Density = 2.332725 g / cm^3
# Si number density = 23.380468 Si / 1000 Ang^3
#
#
#
# Elastic Constant Matrix: (Units=GPa)
#
#
# Indices 1 2 3 4 5 6 
#
# 1 24.6349 -5.0218 18.3758 0.0000 0.0000 0.0000
# 2 -5.0218 105.5492 49.4008 0.0000 0.0000 0.0000
# 3 18.3758 49.4008 301.3901 0.0000 0.0000 0.0000
# 4 0.0000 0.0000 0.0000 5.7457 0.0000 0.0000
# 5 0.0000 0.0000 0.0000 0.0000 6.5920 0.0000
# 6 0.0000 0.0000 0.0000 0.0000 0.0000 -4.1453
#
#
#
# Elastic Compliance Matrix: (Units=1/GPa)
#
#
# Indices 1 2 3 4 5 6 
#
# 1 0.043759 0.003607 -0.003259 0.000000 0.000000 0.000000
# 2 0.003607 0.010559 -0.001951 0.000000 0.000000 0.000000
# 3 -0.003259 -0.001951 0.003836 0.000000 0.000000 0.000000
# 4 0.000000 0.000000 0.000000 0.174045 0.000000 0.000000
# 5 0.000000 0.000000 0.000000 0.000000 0.151699 0.000000
# 6 0.000000 0.000000 0.000000 0.000000 0.000000 -0.241240
#
#
# Mechanical properties :
#
#
# Convention : Reuss Voigt Hill
#
# Bulk Modulus (GPa) = 18.19848 61.89820 40.04834
# Shear Modulus (GPa) = 30.45432 26.22644 28.34038
#
# Velocity S-wave (km/s) = 3.61301 3.35285 3.48536
# Velocity P-wave (km/s) = 5.02052 6.44365 5.77608
#
# Compressibility (1/GPa) = 0.05494964
#
# Stress axis : x y z
#
# Youngs Moduli (GPa) = 22.85223 94.70720 260.66041
#
# Poissons Ratio (x) = -0.34165 0.84957
# Poissons Ratio (y) = -0.08244 0.50846
# Poissons Ratio (z) = 0.07448 0.18474
#
# Static dielectric constant tensor:
#      x y z
#    x 1.870940 0.000000 0.000000 
#    y 0.000000 1.802960 0.000000 
#    z 0.000000 0.000000 1.978730 
# 
# From -- ./inp_files/11363.got.cif
#   From: 2010.05.17/outbox.cif.g08.bks.cpg/sg71_6_cif.got.tgz:11363.got - 2010.06.03 16:22:01.
