data_PCOD9518079
_publ_section_title
;
Structure prediction by ZEFSAII (Michael W. Deem and Ramdas Pophale) SiO2 
 PCOD9518079
Probable space group: I M M M
;
_chemical_formula_sum "Si O2"
_cell_formula_units_Z 92
_cell_length_a 24.359858
_cell_length_b 29.191343
_cell_length_c 7.453351
_cell_angle_alpha 90.000000
_cell_angle_beta 90.000000
_cell_angle_gamma 90.000000
_cell_volume 5300.055315
_symmetry_space_group_name_H-M "I M M M"
_symmetry_group_IT_number 71
_symmetry_cell_setting 'orthorhombic'
loop_
_space_group_symop_operation_xyz
x,y,z
-x,-y,z
x,-y,-z
-x,y,-z
-x,-y,-z
x,y,-z
-x,y,z
x,-y,z
1/2+x,1/2+y,1/2+z
1/2-x,1/2-y,1/2+z
1/2+x,1/2-y,1/2-z
1/2-x,1/2+y,1/2-z
1/2-x,1/2-y,1/2-z
1/2+x,1/2+y,1/2-z
1/2-x,1/2+y,1/2+z
1/2+x,1/2-y,1/2+z
loop_
_atom_site_type_symbol
_atom_site_label
_atom_site_fract_x
_atom_site_fract_y
_atom_site_fract_z
Si Si1 0.062922 0.500000 0.784180
Si Si2 0.335141 0.764043 0.784080
Si Si3 0.128211 0.408496 0.292287
Si Si4 0.062849 0.319729 0.719692
Si Si5 0.729339 0.323918 0.211736
Si Si6 0.751317 0.925309 0.792655
Si Si7 0.283784 0.500000 0.000000
O O1 0.093603 0.545243 0.719946
O O2 0.000000 0.500000 0.724676
O O3 0.064315 0.500000 0.000000
O O4 0.395366 0.779591 0.725097
O O5 0.311321 0.715722 0.717385
O O6 0.290420 0.803090 0.738303
O O7 0.335895 0.761536 0.000000
O O8 0.138251 0.396321 0.500000
O O9 0.092051 0.366810 0.218600
O O10 0.188728 0.418550 0.219701
O O11 0.061304 0.320396 0.500000
O O12 0.000000 0.316062 0.779861
O O13 0.724274 0.374069 0.292658
O O14 0.720308 0.328631 0.000000
O O15 0.780417 0.959970 0.658465
O O16 0.749155 0.941761 0.000000
#
# Coordination Sequence:
#
# PCOD9518079 Si02
#       7
#     8  16  16  16  16  16   4
#     4  11  24  35  43  58  82 115 158 211 262 300
#     4   9  17  30  48  72 100 127 167 214 255 310
#     4  10  20  33  49  64  83 119 168 214 257 300
#     4   9  16  28  47  69  93 124 162 210 259 302
#     4  10  18  30  50  73  97 131 167 211 262 306
#     4  11  22  36  53  75 101 129 169 216 260 310
#     4  12  24  36  52  76 103 138 169 212 268 320
#
# _framework density 17.358309999999999
#
# number of rings (size 3 to 8) (size 9 to 14) (size 15 to 20)
#    0.000    2.000    2.609    2.087    2.435    3.478 
#    0.000    0.000    0.000    0.522    0.000    0.000 
#    0.000    0.000    0.000    1.565    0.000    2.783 
#
# Total GULP energy -256196.372244 kJ/mol
# GULP energy per Si atom -5569.486353 kJ/mol
# Density = 1.731880 g / cm^3
# Si number density = 17.358310 Si / 1000 Ang^3
#
#
#
# Elastic Constant Matrix: (Units=GPa)
#
#
# Indices 1 2 3 4 5 6 
#
# 1 42.0052 26.1935 -0.8208 0.0000 0.0000 0.0000
# 2 26.1935 116.2193 13.5973 0.0000 0.0000 0.0000
# 3 -0.8208 13.5973 80.7317 0.0000 0.0000 0.0000
# 4 0.0000 0.0000 0.0000 21.8223 0.0000 0.0000
# 5 0.0000 0.0000 0.0000 0.0000 7.7738 0.0000
# 6 0.0000 0.0000 0.0000 0.0000 0.0000 10.7578
#
#
#
# Elastic Compliance Matrix: (Units=1/GPa)
#
#
# Indices 1 2 3 4 5 6 
#
# 1 0.027847 -0.006436 0.001367 0.000000 0.000000 0.000000
# 2 -0.006436 0.010265 -0.001794 0.000000 0.000000 0.000000
# 3 0.001367 -0.001794 0.012703 0.000000 0.000000 0.000000
# 4 0.000000 0.000000 0.000000 0.045825 0.000000 0.000000
# 5 0.000000 0.000000 0.000000 0.000000 0.128637 0.000000
# 6 0.000000 0.000000 0.000000 0.000000 0.000000 0.092956
#
#
# Mechanical properties :
#
#
# Convention : Reuss Voigt Hill
#
# Bulk Modulus (GPa) = 26.96296 35.21068 31.08682
# Shear Modulus (GPa) = 14.52136 21.40321 17.96228
#
# Velocity S-wave (km/s) = 2.89548 3.51525 3.22031
# Velocity P-wave (km/s) = 5.17159 6.06669 5.63693
#
# Compressibility (1/GPa) = 0.03708791
#
# Stress axis : x y z
#
# Youngs Moduli (GPa) = 35.91096 97.41935 78.72269
#
# Poissons Ratio (x) = 0.62699 -0.10762
# Poissons Ratio (y) = 0.23112 0.14125
# Poissons Ratio (z) = -0.04909 0.17480
#
# Static dielectric constant tensor:
#      x y z
#    x 1.579590 0.000000 0.000000 
#    y 0.000000 1.597010 0.000000 
#    z 0.000000 0.000000 1.646640 
# 
# From -- ./inp_files/15490.got.cif
#   From: 2010.05.17/outbox.cif.g08.bks.cpg/sg71_8_cif.got.tgz:15490.got - 2010.06.03 16:22:01.
