data_PCOD9518909
_publ_section_title
;
Structure prediction by ZEFSAII (Michael W. Deem and Ramdas Pophale) SiO2 
 PCOD9518909
Probable space group: I M M M
;
_chemical_formula_sum "Si O2"
_cell_formula_units_Z 80
_cell_length_a 14.866571
_cell_length_b 35.051259
_cell_length_c 7.677268
_cell_angle_alpha 90.000000
_cell_angle_beta 90.000000
_cell_angle_gamma 90.000000
_cell_volume 4000.563171
_symmetry_space_group_name_H-M "I M M M"
_symmetry_group_IT_number 71
_symmetry_cell_setting 'orthorhombic'
loop_
_space_group_symop_operation_xyz
x,y,z
-x,-y,z
x,-y,-z
-x,y,-z
-x,-y,-z
x,y,-z
-x,y,z
x,-y,z
1/2+x,1/2+y,1/2+z
1/2-x,1/2-y,1/2+z
1/2+x,1/2-y,1/2-z
1/2-x,1/2+y,1/2-z
1/2-x,1/2-y,1/2-z
1/2+x,1/2+y,1/2-z
1/2-x,1/2+y,1/2+z
1/2+x,1/2-y,1/2+z
loop_
_atom_site_type_symbol
_atom_site_label
_atom_site_fract_x
_atom_site_fract_y
_atom_site_fract_z
Si Si1 0.609358 0.230323 0.702987
Si Si2 0.899544 0.646250 0.296877
Si Si3 0.280157 0.615298 0.291233
Si Si4 0.601607 0.456971 0.790395
Si Si5 0.395458 0.312866 0.286672
O O1 0.632947 0.227191 0.500000
O O2 0.500000 0.232745 0.714436
O O3 0.633412 0.190308 0.789067
O O4 0.641238 0.271399 0.771804
O O5 0.908451 0.636540 0.500000
O O6 0.820875 0.620203 0.220869
O O7 0.000000 0.644120 0.218462
O O8 0.275571 0.619979 0.500000
O O9 0.328398 0.575447 0.258413
O O10 0.339929 0.650743 0.225784
O O11 0.500000 0.447451 0.729092
O O12 0.623312 0.500000 0.729811
O O13 0.598652 0.458081 0.000000
O O14 0.394404 0.311752 0.500000
O O15 0.500000 0.316831 0.235322
#
# Coordination Sequence:
#
# PCOD9518909 Si02
#       5
#    16  16  16  16  16
#     4   8  14  26  43  60  82 119 163 199 234 279
#     4   9  18  31  44  62  93 128 161 202 244 270
#     4  10  19  30  48  72  94 122 161 197 229 272
#     4   9  19  36  55  75 101 126 142 168 222 285
#     4   8  14  25  41  63  91 118 148 194 243 278
#
# _framework density 19.997183
#
# number of rings (size 3 to 8) (size 9 to 14) (size 15 to 20)
#    0.000    3.200    0.000    2.400    0.000    3.200 
#    0.000    2.000    0.000    4.200    0.000    4.200 
#    0.000    0.000    0.000    0.000    0.000    0.000 
#
# Total GULP energy -223029.423948 kJ/mol
# GULP energy per Si atom -5575.735599 kJ/mol
# Density = 1.995167 g / cm^3
# Si number density = 19.997183 Si / 1000 Ang^3
#
#
#
# Elastic Constant Matrix: (Units=GPa)
#
#
# Indices 1 2 3 4 5 6 
#
# 1 122.0190 101.7612 5.8489 0.0015 0.0012 0.0005
# 2 101.7612 135.5758 0.5152 -0.0026 0.0029 0.0010
# 3 5.8489 0.5152 30.8204 -0.0132 0.0300 0.0007
# 4 0.0015 -0.0026 -0.0132 23.3794 0.0024 0.0003
# 5 0.0012 0.0029 0.0300 0.0024 5.3141 0.0006
# 6 0.0005 0.0010 0.0007 0.0003 0.0006 25.8808
#
#
#
# Elastic Compliance Matrix: (Units=1/GPa)
#
#
# Indices 1 2 3 4 5 6 
#
# 1 0.022386 -0.016788 -0.003968 -0.000006 0.000026 0.000000
# 2 -0.016788 0.019966 0.002852 0.000005 -0.000023 -0.000001
# 3 -0.003968 0.002852 0.033151 0.000019 -0.000188 -0.000001
# 4 -0.000006 0.000005 0.000019 0.042773 -0.000019 0.000000
# 5 0.000026 -0.000023 -0.000188 -0.000019 0.188178 -0.000005
# 6 0.000000 -0.000001 -0.000001 0.000000 -0.000005 0.038639
#
#
# Mechanical properties :
#
#
# Convention : Reuss Voigt Hill
#
# Bulk Modulus (GPa) = 25.19090 56.07396 40.63243
# Shear Modulus (GPa) = 12.68612 22.93421 17.81016
#
# Velocity S-wave (km/s) = 2.52145 3.39022 2.98759
# Velocity P-wave (km/s) = 4.59364 6.58989 5.68015
#
# Compressibility (1/GPa) = 0.03969688
#
# Stress axis : x y z
#
# Youngs Moduli (GPa) = 44.67048 50.08603 30.16456
#
# Poissons Ratio (x) = 0.84083 0.11968
# Poissons Ratio (y) = 0.74991 -0.08603
# Poissons Ratio (z) = 0.17724 -0.14285
#
# Static dielectric constant tensor:
#      x y z
#    x 1.757380 0.000000 0.000000 
#    y 0.000000 1.692980 0.000000 
#    z 0.000000 0.000000 1.734310 
# 
# From -- ./inp_files/22135.got.cif
#   From: 2010.05.17/outbox.cif.g08.bks.cpg/sg71_12_cif.got.tgz:22135.got - 2010.06.03 16:22:01.
