data_PCOD9518830
_publ_section_title
;
Structure prediction by ZEFSAII (Michael W. Deem and Ramdas Pophale) SiO2 
 PCOD9518830
Probable space group: I M M M
;
_chemical_formula_sum "Si O2"
_cell_formula_units_Z 88
_cell_length_a 21.481913
_cell_length_b 7.757185
_cell_length_c 28.611127
_cell_angle_alpha 90.000000
_cell_angle_beta 90.000000
_cell_angle_gamma 90.000000
_cell_volume 4767.734550
_symmetry_space_group_name_H-M "I M M M"
_symmetry_group_IT_number 71
_symmetry_cell_setting 'orthorhombic'
loop_
_space_group_symop_operation_xyz
x,y,z
-x,-y,z
x,-y,-z
-x,y,-z
-x,-y,-z
x,y,-z
-x,y,z
x,-y,z
1/2+x,1/2+y,1/2+z
1/2-x,1/2-y,1/2+z
1/2+x,1/2-y,1/2-z
1/2-x,1/2+y,1/2-z
1/2-x,1/2-y,1/2-z
1/2+x,1/2+y,1/2-z
1/2-x,1/2+y,1/2+z
1/2+x,1/2-y,1/2+z
loop_
_atom_site_type_symbol
_atom_site_label
_atom_site_fract_x
_atom_site_fract_y
_atom_site_fract_z
Si Si1 0.070081 0.000000 0.556779
Si Si2 0.165808 0.295672 0.444526
Si Si3 0.249126 0.199697 0.135038
Si Si4 0.135132 0.205749 0.193962
Si Si5 0.000000 0.294634 0.804837
Si Si6 0.000000 0.293802 0.697495
Si Si7 0.863634 0.795433 0.698554
O O1 0.108916 0.171015 0.569109
O O2 0.066497 0.000000 0.500000
O O3 0.000000 0.000000 0.575407
O O4 0.175879 0.278859 0.500000
O O5 0.153893 0.500000 0.434915
O O6 0.224999 0.234742 0.414311
O O7 0.189879 0.278238 0.161472
O O8 0.308733 0.211619 0.169070
O O9 0.233318 0.000000 0.126805
O O10 0.065902 0.237879 0.174618
O O11 0.138199 0.271148 0.247652
O O12 0.143641 0.000000 0.197768
O O13 0.000000 0.500000 0.802926
O O14 0.000000 0.226309 0.751299
O O15 0.066956 0.236154 0.678723
O O16 0.000000 0.500000 0.697514
O O17 0.852749 0.000000 0.698382
#
# Coordination Sequence:
#
# PCOD9518830 Si02
#       7
#     8  16  16  16   8   8  16
#     4   9  18  34  56  78 100 129 167 211 257 302
#     4   9  19  36  55  75 101 131 166 210 254 299
#     4  10  20  33  49  71  97 127 162 200 245 295
#     4   9  18  32  49  69  97 130 161 196 240 289
#     4   9  17  29  47  71  94 123 160 200 239 282
#     4   9  17  31  47  61  90 131 166 199 240 284
#     4  10  19  30  46  69  96 127 164 202 240 286
#
# _framework density 18.457404
#
# number of rings (size 3 to 8) (size 9 to 14) (size 15 to 20)
#    0.000    2.636    0.000    1.636    1.273    4.000 
#    1.636    1.818    0.000    0.000    0.000    0.636 
#    0.000    5.091    0.000    0.000    0.000    0.000 
#
# Total GULP energy -245274.644070 kJ/mol
# GULP energy per Si atom -5574.423729 kJ/mol
# Density = 1.841539 g / cm^3
# Si number density = 18.457404 Si / 1000 Ang^3
#
#
#
# Elastic Constant Matrix: (Units=GPa)
#
#
# Indices 1 2 3 4 5 6 
#
# 1 125.1271 -0.4565 53.1507 0.0000 0.0000 0.0000
# 2 -0.4565 40.9316 16.4335 0.0000 0.0000 0.0000
# 3 53.1507 16.4335 67.5049 0.0000 0.0000 0.0000
# 4 0.0000 0.0000 0.0000 8.0343 0.0000 0.0000
# 5 0.0000 0.0000 0.0000 0.0000 7.4120 0.0000
# 6 0.0000 0.0000 0.0000 0.0000 0.0000 12.3097
#
#
#
# Elastic Compliance Matrix: (Units=1/GPa)
#
#
# Indices 1 2 3 4 5 6 
#
# 1 0.012752 0.004625 -0.011166 0.000000 0.000000 0.000000
# 2 0.004625 0.028755 -0.010642 0.000000 0.000000 0.000000
# 3 -0.011166 -0.010642 0.026196 0.000000 0.000000 0.000000
# 4 0.000000 0.000000 0.000000 0.124466 0.000000 0.000000
# 5 0.000000 0.000000 0.000000 0.000000 0.134917 0.000000
# 6 0.000000 0.000000 0.000000 0.000000 0.000000 0.081237
#
#
# Mechanical properties :
#
#
# Convention : Reuss Voigt Hill
#
# Bulk Modulus (GPa) = 29.99626 41.31320 35.65473
# Shear Modulus (GPa) = 11.01803 16.51360 13.76581
#
# Velocity S-wave (km/s) = 2.44589 2.99438 2.73392
# Velocity P-wave (km/s) = 4.92579 5.86401 5.41526
#
# Compressibility (1/GPa) = 0.03333748
#
# Stress axis : x y z
#
# Youngs Moduli (GPa) = 78.41954 34.77628 38.17315
#
# Poissons Ratio (x) = -0.16085 0.42626
# Poissons Ratio (y) = -0.36272 0.40624
# Poissons Ratio (z) = 0.87566 0.37009
#
# Static dielectric constant tensor:
#      x y z
#    x 1.662410 0.000000 0.000000 
#    y 0.000000 1.659100 0.000000 
#    z 0.000000 0.000000 1.658330 
# 
# From -- ./inp_files/51097.got.cif
#   From: 2010.05.17/outbox.cif.g08.bks.cpg/sg71_26_cif.got.tgz:51097.got - 2010.06.03 16:22:01.
