data_PCOD9518562
_publ_section_title
;
Structure prediction by ZEFSAII (Michael W. Deem and Ramdas Pophale) SiO2 
 PCOD9518562
Probable space group: I M M M
;
_chemical_formula_sum "Si O2"
_cell_formula_units_Z 96
_cell_length_a 14.060553
_cell_length_b 15.538948
_cell_length_c 21.195637
_cell_angle_alpha 90.000000
_cell_angle_beta 90.000000
_cell_angle_gamma 90.000000
_cell_volume 4630.954225
_symmetry_space_group_name_H-M "I M M M"
_symmetry_group_IT_number 71
_symmetry_cell_setting 'orthorhombic'
loop_
_space_group_symop_operation_xyz
x,y,z
-x,-y,z
x,-y,-z
-x,y,-z
-x,-y,-z
x,y,-z
-x,y,z
x,-y,z
1/2+x,1/2+y,1/2+z
1/2-x,1/2-y,1/2+z
1/2+x,1/2-y,1/2-z
1/2-x,1/2+y,1/2-z
1/2-x,1/2-y,1/2-z
1/2+x,1/2+y,1/2-z
1/2-x,1/2+y,1/2+z
1/2+x,1/2-y,1/2+z
loop_
_atom_site_type_symbol
_atom_site_label
_atom_site_fract_x
_atom_site_fract_y
_atom_site_fract_z
Si Si1 0.725793 0.402738 0.426392
Si Si2 0.895020 0.752245 0.127286
Si Si3 0.390888 0.134309 0.155898
Si Si4 0.897485 0.645080 0.000000
Si Si5 0.318810 0.598090 0.000000
Si Si6 0.723172 0.844796 0.724751
Si Si7 0.609041 0.341581 0.863474
O O1 0.715561 0.379230 0.500000
O O2 0.689605 0.500000 0.418361
O O3 0.671741 0.334694 0.382146
O O4 0.835135 0.399428 0.404922
O O5 0.855444 0.679378 0.173171
O O6 0.000000 0.779524 0.147722
O O7 0.897951 0.706593 0.060183
O O8 0.500000 0.107011 0.161438
O O9 0.327570 0.108821 0.216928
O O10 0.390778 0.238661 0.149135
O O11 0.796251 0.598173 0.000000
O O12 0.000000 0.597862 0.000000
O O13 0.354963 0.641782 0.935063
O O14 0.353640 0.500000 0.000000
O O15 0.750000 0.750000 0.750000
O O16 0.815245 0.879773 0.687156
O O17 0.500000 0.371973 0.856535
#
# Coordination Sequence:
#
# PCOD9518562 Si02
#       7
#    16  16  16   8   8  16  16
#     4  11  23  38  56  84 123 156 191 241 294 351
#     4  11  20  35  62  87 113 150 196 243 287 341
#     4  10  21  38  62  88 114 151 198 246 292 342
#     4  10  20  36  62  88 109 149 201 244 286 333
#     4  12  23  39  60  84 125 161 190 239 295 351
#     4  10  18  35  61  87 113 143 190 248 287 337
#     4  10  21  36  59  88 116 150 196 244 288 341
#
# _framework density 20.730067999999999
#
# number of rings (size 3 to 8) (size 9 to 14) (size 15 to 20)
#    0.000    1.500    5.833    0.750    1.167    2.500 
#    0.000    2.500    0.000    0.000    0.000    0.000 
#    0.000    0.000    0.000    0.000    0.000    0.000 
#
# Total GULP energy -267730.588064 kJ/mol
# GULP energy per Si atom -5577.720585 kJ/mol
# Density = 2.068289 g / cm^3
# Si number density = 20.730068 Si / 1000 Ang^3
#
#
#
# Elastic Constant Matrix: (Units=GPa)
#
#
# Indices 1 2 3 4 5 6 
#
# 1 158.4199 19.2035 39.7898 0.0000 0.0000 0.0000
# 2 19.2035 43.4527 8.0312 0.0000 0.0000 0.0000
# 3 39.7898 8.0312 77.3770 0.0000 0.0000 0.0000
# 4 0.0000 0.0000 0.0000 17.1236 0.0000 0.0000
# 5 0.0000 0.0000 0.0000 0.0000 16.7568 0.0000
# 6 0.0000 0.0000 0.0000 0.0000 0.0000 2.0003
#
#
#
# Elastic Compliance Matrix: (Units=1/GPa)
#
#
# Indices 1 2 3 4 5 6 
#
# 1 0.007540 -0.002667 -0.003600 0.000000 0.000000 0.000000
# 2 -0.002667 0.024407 -0.001162 0.000000 0.000000 0.000000
# 3 -0.003600 -0.001162 0.014896 0.000000 0.000000 0.000000
# 4 0.000000 0.000000 0.000000 0.058399 0.000000 0.000000
# 5 0.000000 0.000000 0.000000 0.000000 0.059677 0.000000
# 6 0.000000 0.000000 0.000000 0.000000 0.000000 0.499921
#
#
# Mechanical properties :
#
#
# Convention : Reuss Voigt Hill
#
# Bulk Modulus (GPa) = 31.26538 45.92205 38.59371
# Shear Modulus (GPa) = 7.24260 21.32449 14.28355
#
# Velocity S-wave (km/s) = 1.87119 3.21078 2.62778
# Velocity P-wave (km/s) = 4.44785 5.99549 5.27870
#
# Compressibility (1/GPa) = 0.03198426
#
# Stress axis : x y z
#
# Youngs Moduli (GPa) = 132.62742 40.97218 67.13288
#
# Poissons Ratio (x) = 0.10926 0.24171
# Poissons Ratio (y) = 0.35368 0.07800
# Poissons Ratio (z) = 0.47752 0.04761
#
# Static dielectric constant tensor:
#      x y z
#    x 1.812700 0.000000 0.000000 
#    y 0.000000 1.744240 0.000000 
#    z 0.000000 0.000000 1.621810 
# 
# From -- ./inp_files/53018.got.cif
#   From: 2010.05.17/outbox.cif.g08.bks.cpg/sg71_27_cif.got.tgz:53018.got - 2010.06.03 16:22:01.
