data_PCOD9518511
_publ_section_title
;
Structure prediction by ZEFSAII (Michael W. Deem and Ramdas Pophale) SiO2 
 PCOD9518511
Probable space group: I M M M
;
_chemical_formula_sum "Si O2"
_cell_formula_units_Z 96
_cell_length_a 7.935942
_cell_length_b 24.442324
_cell_length_c 26.031199
_cell_angle_alpha 90.000000
_cell_angle_beta 90.000000
_cell_angle_gamma 90.000000
_cell_volume 5049.346265
_symmetry_space_group_name_H-M "I M M M"
_symmetry_group_IT_number 71
_symmetry_cell_setting 'orthorhombic'
loop_
_space_group_symop_operation_xyz
x,y,z
-x,-y,z
x,-y,-z
-x,y,-z
-x,-y,-z
x,y,-z
-x,y,z
x,-y,z
1/2+x,1/2+y,1/2+z
1/2-x,1/2-y,1/2+z
1/2+x,1/2-y,1/2-z
1/2-x,1/2+y,1/2-z
1/2-x,1/2-y,1/2-z
1/2+x,1/2+y,1/2-z
1/2-x,1/2+y,1/2+z
1/2+x,1/2-y,1/2+z
loop_
_atom_site_type_symbol
_atom_site_label
_atom_site_fract_x
_atom_site_fract_y
_atom_site_fract_z
Si Si1 0.299793 0.887336 0.344518
Si Si2 0.196953 0.500000 0.318793
Si Si3 0.297367 0.813073 0.748660
Si Si4 0.292991 0.880944 0.848372
Si Si5 0.205579 0.694858 0.558772
Si Si6 0.307873 0.500000 0.203205
Si Si7 0.203350 0.180865 0.441368
O O1 0.500000 0.892078 0.338623
O O2 0.234911 0.843863 0.302254
O O3 0.262132 0.863255 0.400346
O O4 0.226786 0.946185 0.330181
O O5 0.267342 0.556924 0.340636
O O6 0.206292 0.500000 0.256710
O O7 0.000000 0.500000 0.332785
O O8 0.500000 0.816066 0.748366
O O9 0.250000 0.750000 0.750000
O O10 0.239105 0.845492 0.799100
O O11 0.500000 0.881639 0.848252
O O12 0.238592 0.849717 0.899874
O O13 0.258056 0.684005 0.500000
O O14 0.257954 0.757035 0.572609
O O15 0.000000 0.694801 0.559112
O O16 0.500000 0.500000 0.220167
O O17 0.258601 0.170197 0.500000
O O18 0.000000 0.180919 0.441197
#
# Coordination Sequence:
#
# PCOD9518511 Si02
#       7
#    16   8  16  16  16   8  16
#     4  11  22  37  56  79 108 141 177 221 271 323
#     4  10  18  34  53  71 103 144 180 217 268 322
#     4  10  20  32  49  74 104 138 173 216 270 323
#     4   9  16  28  47  69 100 141 177 213 261 313
#     4   8  14  26  47  76 108 141 177 217 263 311
#     4  12  24  38  57  78 103 141 182 224 266 319
#     4   9  18  34  56  80 108 142 178 220 268 318
#
# _framework density 19.012363000000001
#
# number of rings (size 3 to 8) (size 9 to 14) (size 15 to 20)
#    0.000    2.333    1.667    3.250    0.000    3.000 
#    0.000    0.833    0.000    5.000    0.000    0.000 
#    0.000    0.667    0.000    0.000    0.000    0.000 
#
# Total GULP energy -267882.695977 kJ/mol
# GULP energy per Si atom -5580.889500 kJ/mol
# Density = 1.896909 g / cm^3
# Si number density = 19.012363 Si / 1000 Ang^3
#
#
#
# Elastic Constant Matrix: (Units=GPa)
#
#
# Indices 1 2 3 4 5 6 
#
# 1 16.9234 2.3209 -2.9079 0.0000 0.0000 0.0000
# 2 2.3209 161.0252 70.4460 0.0000 0.0000 0.0000
# 3 -2.9079 70.4460 95.7558 0.0000 0.0000 0.0000
# 4 0.0000 0.0000 0.0000 21.9851 0.0000 0.0000
# 5 0.0000 0.0000 0.0000 0.0000 14.2558 0.0000
# 6 0.0000 0.0000 0.0000 0.0000 0.0000 16.8298
#
#
#
# Elastic Compliance Matrix: (Units=1/GPa)
#
#
# Indices 1 2 3 4 5 6 
#
# 1 0.060050 -0.002453 0.003628 0.000000 0.000000 0.000000
# 2 -0.002453 0.009258 -0.006885 0.000000 0.000000 0.000000
# 3 0.003628 -0.006885 0.015619 0.000000 0.000000 0.000000
# 4 0.000000 0.000000 0.000000 0.045485 0.000000 0.000000
# 5 0.000000 0.000000 0.000000 0.000000 0.070147 0.000000
# 6 0.000000 0.000000 0.000000 0.000000 0.000000 0.059418
#
#
# Mechanical properties :
#
#
# Convention : Reuss Voigt Hill
#
# Bulk Modulus (GPa) = 13.60433 45.93584 29.77008
# Shear Modulus (GPa) = 16.89767 24.20383 20.55075
#
# Velocity S-wave (km/s) = 2.98446 3.57186 3.29129
# Velocity P-wave (km/s) = 4.36430 6.42063 5.48960
#
# Compressibility (1/GPa) = 0.07350603
#
# Stress axis : x y z
#
# Youngs Moduli (GPa) = 16.65292 108.01764 64.02558
#
# Poissons Ratio (x) = 0.26494 -0.23228
# Poissons Ratio (y) = 0.04084 0.44083
# Poissons Ratio (z) = -0.06042 0.74373
#
# Static dielectric constant tensor:
#      x y z
#    x 1.708880 0.000000 0.000000 
#    y 0.000000 1.642340 0.000000 
#    z 0.000000 0.000000 1.644340 
# 
# From -- ./inp_files/57753.got.cif
#   From: 2010.05.17/outbox.cif.g08.bks.cpg/sg71_29_cif.got.tgz:57753.got - 2010.06.03 16:22:01.
