data_PCOD9518060
_publ_section_title
;
Structure prediction by ZEFSAII (Michael W. Deem and Ramdas Pophale) SiO2 
 PCOD9518060
Probable space group: I M M M
;
_chemical_formula_sum "Si O2"
_cell_formula_units_Z 116
_cell_length_a 23.446094
_cell_length_b 7.364979
_cell_length_c 32.654963
_cell_angle_alpha 90.000000
_cell_angle_beta 90.000000
_cell_angle_gamma 90.000000
_cell_volume 5638.858682
_symmetry_space_group_name_H-M "I M M M"
_symmetry_group_IT_number 71
_symmetry_cell_setting 'orthorhombic'
loop_
_space_group_symop_operation_xyz
x,y,z
-x,-y,z
x,-y,-z
-x,y,-z
-x,-y,-z
x,y,-z
-x,y,z
x,-y,z
1/2+x,1/2+y,1/2+z
1/2-x,1/2-y,1/2+z
1/2+x,1/2-y,1/2-z
1/2-x,1/2+y,1/2-z
1/2-x,1/2-y,1/2-z
1/2+x,1/2+y,1/2-z
1/2-x,1/2+y,1/2+z
1/2+x,1/2-y,1/2+z
loop_
_atom_site_type_symbol
_atom_site_label
_atom_site_fract_x
_atom_site_fract_y
_atom_site_fract_z
Si Si1 0.827948 0.719832 0.547788
Si Si2 0.774163 0.283532 0.704982
Si Si3 0.665261 0.279745 0.659195
Si Si4 0.666226 0.000000 0.500000
Si Si5 0.598109 0.781262 0.193091
Si Si6 0.563760 0.221624 0.102342
Si Si7 0.801650 0.218057 0.931008
Si Si8 0.061621 0.784855 0.214929
O O1 0.828200 0.780483 0.500000
O O2 0.830718 0.500000 0.546994
O O3 0.883072 0.780870 0.573948
O O4 0.766621 0.764379 0.568040
O O5 0.778488 0.500000 0.699093
O O6 0.750000 0.250000 0.750000
O O7 0.725894 0.211969 0.675280
O O8 0.837167 0.212494 0.697525
O O9 0.665921 0.500000 0.663399
O O10 0.666149 0.242541 0.611374
O O11 0.614398 0.212524 0.688299
O O12 0.670368 0.159132 0.465000
O O13 0.572406 0.720569 0.149749
O O14 0.569089 0.736801 0.236273
O O15 0.598024 0.000000 0.191066
O O16 0.500000 0.275809 0.088558
O O17 0.564929 0.000000 0.101968
O O18 0.804614 0.000000 0.938541
O O19 0.000000 0.709749 0.202911
O O20 0.060704 0.000000 0.207275
#
# Coordination Sequence:
#
# PCOD9518060 Si02
#       8
#    16  16  16   4  16  16  16  16
#     4   9  16  29  51  74 100 135 174 221 280 334
#     4  10  18  30  49  74 104 141 181 224 276 329
#     4   9  18  34  54  76 109 145 181 223 278 329
#     4  12  22  36  60  94 118 140 182 220 284 348
#     4  10  19  31  49  73 102 140 180 227 278 328
#     4   9  17  28  45  71 100 134 182 230 272 326
#     4  10  20  37  59  84 116 148 176 225 282 339
#     4  10  20  34  53  75 103 143 188 226 262 316
#
# _framework density 20.571539000000001
#
# number of rings (size 3 to 8) (size 9 to 14) (size 15 to 20)
#    0.000    2.345    2.069    1.448    0.000    4.414 
#    2.483    1.379    4.552    0.000    0.000    1.448 
#    0.000    3.310    0.000    0.000    0.000    0.000 
#
# Total GULP energy -323139.227669 kJ/mol
# GULP energy per Si atom -5571.365994 kJ/mol
# Density = 2.052472 g / cm^3
# Si number density = 20.571539 Si / 1000 Ang^3
#
#
#
# Elastic Constant Matrix: (Units=GPa)
#
#
# Indices 1 2 3 4 5 6 
#
# 1 89.1530 2.0175 32.4275 0.0000 0.0000 0.0000
# 2 2.0175 78.5454 9.2858 0.0000 0.0000 0.0000
# 3 32.4275 9.2858 107.9890 0.0000 0.0000 0.0000
# 4 0.0000 0.0000 0.0000 9.2975 0.0000 0.0000
# 5 0.0000 0.0000 0.0000 0.0000 45.4763 0.0000
# 6 0.0000 0.0000 0.0000 0.0000 0.0000 -2.8233
#
#
#
# Elastic Compliance Matrix: (Units=1/GPa)
#
#
# Indices 1 2 3 4 5 6 
#
# 1 0.012593 0.000125 -0.003792 0.000000 0.000000 0.000000
# 2 0.000125 0.012863 -0.001144 0.000000 0.000000 0.000000
# 3 -0.003792 -0.001144 0.010497 0.000000 0.000000 0.000000
# 4 0.000000 0.000000 0.000000 0.107556 0.000000 0.000000
# 5 0.000000 0.000000 0.000000 0.000000 0.021989 0.000000
# 6 0.000000 0.000000 0.000000 0.000000 0.000000 -0.354200
#
#
# Mechanical properties :
#
#
# Convention : Reuss Voigt Hill
#
# Bulk Modulus (GPa) = 37.97670 40.34990 39.16330
# Shear Modulus (GPa) = -29.35971 25.85389 -1.75291
#
# Velocity S-wave (km/s) = -3.78193 3.54895 -0.92410
# Velocity P-wave (km/s) = 0.75484 6.03742 4.23560
#
# Compressibility (1/GPa) = 0.02633193
#
# Stress axis : x y z
#
# Youngs Moduli (GPa) = 79.40788 77.73946 95.26258
#
# Poissons Ratio (x) = -0.00971 0.36126
# Poissons Ratio (y) = -0.00992 0.10894
# Poissons Ratio (z) = 0.30114 0.08890
#
# Static dielectric constant tensor:
#      x y z
#    x 1.733770 0.000000 0.000000 
#    y 0.000000 1.818200 0.000000 
#    z 0.000000 0.000000 1.742710 
# 
# From -- ./inp_files/71056.got.cif
#   From: 2010.05.17/outbox.cif.g08.bks.cpg/sg71_36_cif.got.tgz:71056.got - 2010.06.03 16:22:01.
