data_PCOD9518191
_publ_section_title
;
Structure prediction by ZEFSAII (Michael W. Deem and Ramdas Pophale) SiO2 
 PCOD9518191
Probable space group: I M M M
;
_chemical_formula_sum "Si O2"
_cell_formula_units_Z 64
_cell_length_a 10.738617
_cell_length_b 35.894809
_cell_length_c 7.792399
_cell_angle_alpha 90.000000
_cell_angle_beta 90.000000
_cell_angle_gamma 90.000000
_cell_volume 3003.662842
_symmetry_space_group_name_H-M "I M M M"
_symmetry_group_IT_number 71
_symmetry_cell_setting 'orthorhombic'
loop_
_space_group_symop_operation_xyz
x,y,z
-x,-y,z
x,-y,-z
-x,y,-z
-x,-y,-z
x,y,-z
-x,y,z
x,-y,z
1/2+x,1/2+y,1/2+z
1/2-x,1/2-y,1/2+z
1/2+x,1/2-y,1/2-z
1/2-x,1/2+y,1/2-z
1/2-x,1/2-y,1/2-z
1/2+x,1/2+y,1/2-z
1/2-x,1/2+y,1/2+z
1/2+x,1/2-y,1/2+z
loop_
_atom_site_type_symbol
_atom_site_label
_atom_site_fract_x
_atom_site_fract_y
_atom_site_fract_z
Si Si1 0.000000 0.812326 0.747738
Si Si2 0.500000 0.769178 0.792458
Si Si3 0.724490 0.904353 0.703216
Si Si4 0.500000 0.395253 0.208874
Si Si5 0.233816 0.679114 0.699954
Si Si6 0.500000 0.041904 0.204046
O O1 0.000000 0.855708 0.807845
O O2 0.855987 0.813655 0.686198
O O3 0.000000 0.769540 0.807389
O O4 0.621194 0.793818 0.755815
O O5 0.500000 0.760861 0.000000
O O6 0.721009 0.898557 0.500000
O O7 0.868141 0.914288 0.748999
O O8 0.695372 0.864069 0.784468
O O9 0.622728 0.935017 0.746504
O O10 0.500000 0.387529 0.000000
O O11 0.269800 0.685914 0.500000
O O12 0.500000 0.000000 0.276461
O O13 0.500000 0.039415 0.000000
#
# Coordination Sequence:
#
# PCOD9518191 Si02
#       6
#     8   8  16   8  16   8
#     4  10  18  31  49  73 103 141 187 233 277 328
#     4  10  20  32  47  69 102 143 184 233 288 332
#     4  10  20  37  61  86 112 146 187 228 272 328
#     4   8  17  33  55  82 110 142 183 231 278 322
#     4  10  20  34  52  76 106 142 183 229 281 331
#     4  11  24  41  61  87 119 150 178 217 270 324
#
# _framework density 21.307319
#
# number of rings (size 3 to 8) (size 9 to 14) (size 15 to 20)
#    0.000    2.125    0.000    3.375    0.000    3.000 
#    0.000    5.000    0.000    3.750    0.000    0.000 
#    0.000    0.000    0.000    0.000    0.000    0.000 
#
# Total GULP energy -178139.908761 kJ/mol
# GULP energy per Si atom -5566.872149 kJ/mol
# Density = 2.125882 g / cm^3
# Si number density = 21.307319 Si / 1000 Ang^3
#
#
#
# Elastic Constant Matrix: (Units=GPa)
#
#
# Indices 1 2 3 4 5 6 
#
# 1 205.3501 106.7193 31.2723 0.0309 -0.0001 0.0000
# 2 106.7193 148.6312 14.8079 0.0406 0.0007 0.0014
# 3 31.2723 14.8079 66.9912 0.1429 -0.0058 0.0053
# 4 0.0309 0.0406 0.1429 -80.1906 0.0065 -0.0106
# 5 -0.0001 0.0007 -0.0058 0.0065 14.2184 0.0126
# 6 0.0000 0.0014 0.0053 -0.0106 0.0126 -20.3066
#
#
#
# Elastic Compliance Matrix: (Units=1/GPa)
#
#
# Indices 1 2 3 4 5 6 
#
# 1 0.008182 -0.005618 -0.002578 -0.000004 -0.000001 -0.000001
# 2 -0.005618 0.010737 0.000249 0.000004 0.000000 0.000001
# 3 -0.002578 0.000249 0.016075 0.000028 0.000007 0.000004
# 4 -0.000004 0.000004 0.000028 -0.012470 0.000006 0.000007
# 5 -0.000001 0.000000 0.000007 0.000006 0.070331 0.000044
# 6 -0.000001 0.000001 0.000004 0.000007 0.000044 -0.049245
#
#
# Mechanical properties :
#
#
# Convention : Reuss Voigt Hill
#
# Bulk Modulus (GPa) = 52.35152 80.73016 66.54084
# Shear Modulus (GPa) = 75.90698 0.62244 38.26471
#
# Velocity S-wave (km/s) = 5.97513 0.54107 4.24234
# Velocity P-wave (km/s) = 8.49859 6.19363 7.43596
#
# Compressibility (1/GPa) = 0.01910164
#
# Stress axis : x y z
#
# Youngs Moduli (GPa) = 122.22176 93.13627 62.20670
#
# Poissons Ratio (x) = 0.52323 0.16034
# Poissons Ratio (y) = 0.68663 -0.01550
# Poissons Ratio (z) = 0.31504 -0.02321
#
# Static dielectric constant tensor:
#      x y z
#    x 1.814500 0.000000 0.000000 
#    y 0.000000 1.723480 0.000000 
#    z 0.000000 0.000000 1.895050 
# 
# From -- ./inp_files/3835.got.cif
#   From: 2010.05.17/outbox.cif.g08.bks.cpg/sg71_2_cif.got.tgz:3835.got - 2010.06.03 16:22:01.
