data_PCOD9518656
_publ_section_title
;
Structure prediction by ZEFSAII (Michael W. Deem and Ramdas Pophale) SiO2 
 PCOD9518656
Probable space group: I M M M
;
_chemical_formula_sum "Si O2"
_cell_formula_units_Z 104
_cell_length_a 23.660642
_cell_length_b 37.770611
_cell_length_c 9.001057
_cell_angle_alpha 90.000000
_cell_angle_beta 90.000000
_cell_angle_gamma 90.000000
_cell_volume 8044.036761
_symmetry_space_group_name_H-M "I M M M"
_symmetry_group_IT_number 71
_symmetry_cell_setting 'orthorhombic'
loop_
_space_group_symop_operation_xyz
x,y,z
-x,-y,z
x,-y,-z
-x,y,-z
-x,-y,-z
x,y,-z
-x,y,z
x,-y,z
1/2+x,1/2+y,1/2+z
1/2-x,1/2-y,1/2+z
1/2+x,1/2-y,1/2-z
1/2-x,1/2+y,1/2-z
1/2-x,1/2-y,1/2-z
1/2+x,1/2+y,1/2-z
1/2-x,1/2+y,1/2+z
1/2+x,1/2-y,1/2+z
loop_
_atom_site_type_symbol
_atom_site_label
_atom_site_fract_x
_atom_site_fract_y
_atom_site_fract_z
Si Si1 0.200473 0.226065 0.821017
Si Si2 0.562617 0.151850 0.178053
Si Si3 0.624878 0.787634 0.671954
Si Si4 0.881763 0.458112 0.823430
Si Si5 0.260268 0.835192 0.326613
Si Si6 0.328630 0.894621 0.178388
Si Si7 0.500000 0.957177 0.168139
O O1 0.250000 0.250000 0.750000
O O2 0.143388 0.247876 0.784855
O O3 0.211376 0.187386 0.753807
O O4 0.206330 0.225643 0.000000
O O5 0.500000 0.141920 0.232136
O O6 0.579903 0.190990 0.232236
O O7 0.613179 0.125743 0.224230
O O8 0.562073 0.151382 0.000000
O O9 0.607253 0.787641 0.500000
O O10 0.682969 0.810701 0.681334
O O11 0.873063 0.500000 0.796059
O O12 0.835377 0.433495 0.746129
O O13 0.942674 0.448160 0.753362
O O14 0.882755 0.452418 0.000000
O O15 0.247771 0.840625 0.500000
O O16 0.278010 0.871265 0.245213
O O17 0.325708 0.895391 0.000000
O O18 0.500000 0.000000 0.158246
O O19 0.500000 0.942471 0.000000
#
# Coordination Sequence:
#
# PCOD9518656 Si02
#       7
#    16  16  16  16  16  16   8
#     4   9  15  23  36  53  71  88 109 134 163 199
#     4   9  18  29  38  50  68  89 113 142 173 207
#     4   8  15  25  36  51  68  87 110 135 161 197
#     4  10  20  32  43  55  70  86 108 140 177 215
#     4   9  16  26  38  53  72  89 108 133 166 206
#     4  10  19  29  42  55  70  90 113 141 175 215
#     4   9  17  29  43  55  65  79 103 135 169 207
#
# _framework density 12.928832
#
# number of rings (size 3 to 8) (size 9 to 14) (size 15 to 20)
#    0.000    2.846    0.000    3.000    1.077    7.077 
#    0.000    0.000    0.000    0.000    0.000    0.000 
#    0.000    0.000    0.000    0.000    0.000    0.000 
#
# Total GULP energy -289485.862708 kJ/mol
# GULP energy per Si atom -5567.035821 kJ/mol
# Density = 1.289940 g / cm^3
# Si number density = 12.928832 Si / 1000 Ang^3
#
#
#
# Elastic Constant Matrix: (Units=GPa)
#
#
# Indices 1 2 3 4 5 6 
#
# 1 7.8746 15.0554 8.1792 0.0000 0.0001 0.0000
# 2 15.0554 69.9514 36.1203 0.0000 0.0001 0.0000
# 3 8.1792 36.1203 49.9308 0.0007 0.0007 0.0000
# 4 0.0000 0.0000 0.0007 20.6852 0.0000 0.0001
# 5 0.0001 0.0001 0.0007 0.0000 13.2948 0.0000
# 6 0.0000 0.0000 0.0000 0.0001 0.0000 20.6203
#
#
#
# Elastic Compliance Matrix: (Units=1/GPa)
#
#
# Indices 1 2 3 4 5 6 
#
# 1 0.216026 -0.045050 -0.002798 0.000000 -0.000001 0.000000
# 2 -0.045050 0.032214 -0.015925 0.000000 0.000001 0.000000
# 3 -0.002798 -0.015925 0.032006 -0.000001 -0.000002 0.000000
# 4 0.000000 0.000000 -0.000001 0.048344 0.000000 0.000000
# 5 -0.000001 0.000001 -0.000002 0.000000 0.075217 0.000000
# 6 0.000000 0.000000 0.000000 0.000000 0.000000 0.048496
#
#
# Mechanical properties :
#
#
# Convention : Reuss Voigt Hill
#
# Bulk Modulus (GPa) = 6.54871 27.38517 16.96694
# Shear Modulus (GPa) = 7.92711 15.48021 11.70366
#
# Velocity S-wave (km/s) = 2.47884 3.46401 3.01198
# Velocity P-wave (km/s) = 3.64267 6.10136 5.02472
#
# Compressibility (1/GPa) = 0.15270179
#
# Stress axis : x y z
#
# Youngs Moduli (GPa) = 4.62908 31.04210 31.24415
#
# Poissons Ratio (x) = 1.39843 0.08742
# Poissons Ratio (y) = 0.20854 0.49755
# Poissons Ratio (z) = 0.01295 0.49433
#
# Static dielectric constant tensor:
#      x y z
#    x 1.406790 0.000000 0.000000 
#    y 0.000000 1.460720 0.000000 
#    z 0.000000 0.000000 1.432730 
# 
# From -- ./inp_files/15783.got.cif
#   From: 2010.05.17/outbox.cif.g08.bks.cpg/sg71_8_cif.got.tgz:15783.got - 2010.06.03 16:22:01.
