data_PCOD9518400
_publ_section_title
;
Structure prediction by ZEFSAII (Michael W. Deem and Ramdas Pophale) SiO2 
 PCOD9518400
Probable space group: I M M M
;
_chemical_formula_sum "Si O2"
_cell_formula_units_Z 104
_cell_length_a 29.512662
_cell_length_b 21.432371
_cell_length_c 8.209938
_cell_angle_alpha 90.000000
_cell_angle_beta 90.000000
_cell_angle_gamma 90.000000
_cell_volume 5193.001880
_symmetry_space_group_name_H-M "I M M M"
_symmetry_group_IT_number 71
_symmetry_cell_setting 'orthorhombic'
loop_
_space_group_symop_operation_xyz
x,y,z
-x,-y,z
x,-y,-z
-x,y,-z
-x,-y,-z
x,y,-z
-x,y,z
x,-y,z
1/2+x,1/2+y,1/2+z
1/2-x,1/2-y,1/2+z
1/2+x,1/2-y,1/2-z
1/2-x,1/2+y,1/2-z
1/2-x,1/2-y,1/2-z
1/2+x,1/2+y,1/2-z
1/2-x,1/2+y,1/2+z
1/2+x,1/2-y,1/2+z
loop_
_atom_site_type_symbol
_atom_site_label
_atom_site_fract_x
_atom_site_fract_y
_atom_site_fract_z
Si Si1 0.448043 0.296184 0.690579
Si Si2 0.947549 0.423681 0.000000
Si Si3 0.856649 0.745269 0.307949
Si Si4 0.054793 0.931667 0.311135
Si Si5 0.812385 0.380614 0.189981
Si Si6 0.399194 0.072329 0.823981
Si Si7 0.727115 0.314924 0.804545
O O1 0.447504 0.280942 0.500000
O O2 0.500000 0.288157 0.750828
O O3 0.409149 0.257333 0.778267
O O4 0.434794 0.369079 0.714272
O O5 0.923594 0.400715 0.164640
O O6 0.944091 0.500000 0.000000
O O7 0.000000 0.406909 0.000000
O O8 0.848523 0.733422 0.500000
O O9 0.837394 0.686543 0.209185
O O10 0.825410 0.805225 0.260243
O O11 0.069184 0.924038 0.500000
O O12 0.000000 0.934547 0.311376
O O13 0.070859 0.000000 0.252567
O O14 0.845546 0.424282 0.291372
O O15 0.761209 0.369117 0.252962
O O16 0.812175 0.399392 0.000000
O O17 0.412995 0.000000 0.831374
O O18 0.409734 0.101418 0.000000
O O19 0.750000 0.250000 0.750000
O O20 0.729607 0.318918 0.000000
#
# Coordination Sequence:
#
# PCOD9518400 Si02
#       7
#    16   8  16  16  16  16  16
#     4  10  20  32  46  67  97 132 167 204 250 300
#     4   9  18  34  54  76 104 138 176 220 266 310
#     4  10  19  32  50  73 101 132 172 213 255 308
#     4   8  14  26  45  67  88 114 153 198 240 282
#     4  10  18  32  54  77 104 133 165 209 266 318
#     4  10  20  34  54  81 109 139 179 222 268 322
#     4   8  16  29  48  74  98 123 157 200 248 300
#
# _framework density 20.026951
#
# number of rings (size 3 to 8) (size 9 to 14) (size 15 to 20)
#    0.000    2.692    0.769    1.846    0.000    2.769 
#    0.000    3.846    0.000    2.769    0.000    2.154 
#    0.000    0.000    0.000    0.000    0.000    0.000 
#
# Total GULP energy -289541.404109 kJ/mol
# GULP energy per Si atom -5568.103925 kJ/mol
# Density = 1.998137 g / cm^3
# Si number density = 20.026951 Si / 1000 Ang^3
#
#
#
# Elastic Constant Matrix: (Units=GPa)
#
#
# Indices 1 2 3 4 5 6 
#
# 1 92.1736 7.6994 24.5392 0.0000 0.0000 0.0000
# 2 7.6994 14.8493 2.7154 0.0000 0.0000 0.0000
# 3 24.5392 2.7154 77.2847 0.0000 0.0000 0.0000
# 4 0.0000 0.0000 0.0000 4.5207 0.0000 0.0000
# 5 0.0000 0.0000 0.0000 0.0000 11.6458 0.0000
# 6 0.0000 0.0000 0.0000 0.0000 0.0000 22.1730
#
#
#
# Elastic Compliance Matrix: (Units=1/GPa)
#
#
# Indices 1 2 3 4 5 6 
#
# 1 0.012313 -0.005706 -0.003709 0.000000 0.000000 0.000000
# 2 -0.005706 0.070423 -0.000663 0.000000 0.000000 0.000000
# 3 -0.003709 -0.000663 0.014140 0.000000 0.000000 0.000000
# 4 0.000000 0.000000 0.000000 0.221206 0.000000 0.000000
# 5 0.000000 0.000000 0.000000 0.000000 0.085868 0.000000
# 6 0.000000 0.000000 0.000000 0.000000 0.000000 0.045100
#
#
# Mechanical properties :
#
#
# Convention : Reuss Voigt Hill
#
# Bulk Modulus (GPa) = 13.03427 28.24619 20.64023
# Shear Modulus (GPa) = 10.10550 17.62480 13.86515
#
# Velocity S-wave (km/s) = 2.24876 2.96979 2.63406
# Velocity P-wave (km/s) = 3.64212 5.08864 4.42489
#
# Compressibility (1/GPa) = 0.07672085
#
# Stress axis : x y z
#
# Youngs Moduli (GPa) = 81.21344 14.19986 70.72051
#
# Poissons Ratio (x) = 0.08103 0.26231
# Poissons Ratio (y) = 0.46342 0.04685
# Poissons Ratio (z) = 0.30123 0.00941
#
# Static dielectric constant tensor:
#      x y z
#    x 1.744300 0.000000 0.000000 
#    y 0.000000 1.747230 0.000000 
#    z 0.000000 0.000000 1.747580 
# 
# From -- ./inp_files/17262.got.cif
#   From: 2010.05.17/outbox.cif.g08.bks.cpg/sg71_9_cif.got.tgz:17262.got - 2010.06.03 16:22:01.
