data_PCOD9518478
_publ_section_title
;
Structure prediction by ZEFSAII (Michael W. Deem and Ramdas Pophale) SiO2 
 PCOD9518478
Probable space group: I M M M
;
_chemical_formula_sum "Si O2"
_cell_formula_units_Z 88
_cell_length_a 19.318523
_cell_length_b 19.057846
_cell_length_c 14.073428
_cell_angle_alpha 90.000000
_cell_angle_beta 90.000000
_cell_angle_gamma 90.000000
_cell_volume 5181.406053
_symmetry_space_group_name_H-M "I M M M"
_symmetry_group_IT_number 71
_symmetry_cell_setting 'orthorhombic'
loop_
_space_group_symop_operation_xyz
x,y,z
-x,-y,z
x,-y,-z
-x,y,-z
-x,-y,-z
x,y,-z
-x,y,z
x,-y,z
1/2+x,1/2+y,1/2+z
1/2-x,1/2-y,1/2+z
1/2+x,1/2-y,1/2-z
1/2-x,1/2+y,1/2-z
1/2-x,1/2-y,1/2-z
1/2+x,1/2+y,1/2-z
1/2-x,1/2+y,1/2+z
1/2+x,1/2-y,1/2+z
loop_
_atom_site_type_symbol
_atom_site_label
_atom_site_fract_x
_atom_site_fract_y
_atom_site_fract_z
Si Si1 0.000000 0.923254 0.761256
Si Si2 0.613303 0.173501 0.694263
Si Si3 0.276574 0.921250 0.387947
Si Si4 0.500000 0.081990 0.607201
Si Si5 0.083415 0.272642 0.394643
Si Si6 0.500000 0.717853 0.385777
Si Si7 0.385061 0.608350 0.892685
O O1 0.934607 0.918104 0.690181
O O2 0.000000 0.857043 0.832375
O O3 0.000000 0.000000 0.808437
O O4 0.687254 0.147055 0.657485
O O5 0.565842 0.108462 0.663647
O O6 0.614018 0.186071 0.806271
O O7 0.568758 0.238297 0.648526
O O8 0.294317 0.919496 0.500000
O O9 0.193883 0.914509 0.379195
O O10 0.296526 0.000000 0.352813
O O11 0.500000 0.112631 0.500000
O O12 0.500000 0.000000 0.599378
O O13 0.099103 0.300681 0.500000
O O14 0.109146 0.192727 0.390339
O O15 0.000000 0.271096 0.383361
O O16 0.500000 0.711725 0.500000
O O17 0.406922 0.586857 0.000000
#
# Coordination Sequence:
#
# PCOD9518478 Si02
#       7
#     8  16  16   8  16   8  16
#     4  12  22  36  56  78 106 141 179 220 269 318
#     4  11  18  34  56  76 106 143 174 214 263 312
#     4  10  21  34  51  81 115 141 170 217 272 320
#     4  10  19  30  49  78 105 134 176 217 260 313
#     4  10  18  33  56  81 108 135 175 224 266 307
#     4  11  22  37  54  79 105 138 185 220 253 311
#     4  10  19  35  56  82 109 135 173 219 269 321
#
# _framework density 16.983806999999999
#
# number of rings (size 3 to 8) (size 9 to 14) (size 15 to 20)
#    0.000    1.545    4.545    3.545    0.000    3.818 
#    0.000    0.000    0.000    2.727    0.000    0.000 
#    0.000    0.000    0.000    0.000    0.000    0.000 
#
# Total GULP energy -245238.142198 kJ/mol
# GULP energy per Si atom -5573.594141 kJ/mol
# Density = 1.694515 g / cm^3
# Si number density = 16.983807 Si / 1000 Ang^3
#
#
#
# Elastic Constant Matrix: (Units=GPa)
#
#
# Indices 1 2 3 4 5 6 
#
# 1 53.4745 31.9110 33.6814 0.0000 0.0000 0.0000
# 2 31.9110 105.4307 60.3765 0.0000 0.0000 0.0000
# 3 33.6814 60.3765 119.9382 0.0000 0.0000 0.0000
# 4 0.0000 0.0000 0.0000 10.4501 0.0000 0.0000
# 5 0.0000 0.0000 0.0000 0.0000 22.7206 0.0000
# 6 0.0000 0.0000 0.0000 0.0000 0.0000 5.9100
#
#
#
# Elastic Compliance Matrix: (Units=1/GPa)
#
#
# Indices 1 2 3 4 5 6 
#
# 1 0.024369 -0.004857 -0.004398 0.000000 0.000000 0.000000
# 2 -0.004857 0.014295 -0.005832 0.000000 0.000000 0.000000
# 3 -0.004398 -0.005832 0.012509 0.000000 0.000000 0.000000
# 4 0.000000 0.000000 0.000000 0.095693 0.000000 0.000000
# 5 0.000000 0.000000 0.000000 0.000000 0.044013 0.000000
# 6 0.000000 0.000000 0.000000 0.000000 0.000000 0.169206
#
#
# Mechanical properties :
#
#
# Convention : Reuss Voigt Hill
#
# Bulk Modulus (GPa) = 47.62415 58.97568 53.29991
# Shear Modulus (GPa) = 12.58627 18.00777 15.29702
#
# Velocity S-wave (km/s) = 2.72522 3.25974 3.00439
# Velocity P-wave (km/s) = 6.16476 6.99771 6.59440
#
# Compressibility (1/GPa) = 0.02099775
#
# Stress axis : x y z
#
# Youngs Moduli (GPa) = 41.03513 69.95557 79.94510
#
# Poissons Ratio (x) = 0.33978 0.35163
# Poissons Ratio (y) = 0.19931 0.46624
# Poissons Ratio (z) = 0.18049 0.40798
#
# Static dielectric constant tensor:
#      x y z
#    x 1.718590 0.000000 0.000000 
#    y 0.000000 1.591010 0.000000 
#    z 0.000000 0.000000 1.572770 
# 
# From -- ./inp_files/36426.got.cif
#   From: 2010.05.17/outbox.cif.g08.bks.cpg/sg71_19_cif.got.tgz:36426.got - 2010.06.03 16:22:01.
