data_PCOD9518229
_publ_section_title
;
Structure prediction by ZEFSAII (Michael W. Deem and Ramdas Pophale) SiO2 
 PCOD9518229
Probable space group: I M M M
;
_chemical_formula_sum "Si O2"
_cell_formula_units_Z 96
_cell_length_a 23.504218
_cell_length_b 13.037616
_cell_length_c 20.702189
_cell_angle_alpha 90.000000
_cell_angle_beta 90.000000
_cell_angle_gamma 90.000000
_cell_volume 6343.957446
_symmetry_space_group_name_H-M "I M M M"
_symmetry_group_IT_number 71
_symmetry_cell_setting 'orthorhombic'
loop_
_space_group_symop_operation_xyz
x,y,z
-x,-y,z
x,-y,-z
-x,y,-z
-x,-y,-z
x,y,-z
-x,y,z
x,-y,z
1/2+x,1/2+y,1/2+z
1/2-x,1/2-y,1/2+z
1/2+x,1/2-y,1/2-z
1/2-x,1/2+y,1/2-z
1/2-x,1/2-y,1/2-z
1/2+x,1/2+y,1/2-z
1/2-x,1/2+y,1/2+z
1/2+x,1/2-y,1/2+z
loop_
_atom_site_type_symbol
_atom_site_label
_atom_site_fract_x
_atom_site_fract_y
_atom_site_fract_z
Si Si1 0.934179 0.618771 0.887539
Si Si2 0.213609 0.121833 0.809084
Si Si3 0.784147 0.879901 0.575640
Si Si4 0.328818 0.749206 0.426795
Si Si5 0.065513 0.380551 0.268327
Si Si6 0.170898 0.251741 0.688095
O O1 0.922202 0.500000 0.905293
O O2 0.889067 0.695305 0.918015
O O3 0.928781 0.626618 0.809628
O O4 0.000000 0.640081 0.904338
O O5 0.182383 0.163156 0.873283
O O6 0.184326 0.175806 0.747650
O O7 0.278247 0.164426 0.811437
O O8 0.212517 0.000000 0.804067
O O9 0.798794 0.868705 0.500000
O O10 0.720453 0.834717 0.584163
O O11 0.823389 0.813340 0.622663
O O12 0.785316 0.000000 0.592299
O O13 0.322633 0.710866 0.500000
O O14 0.075467 0.500000 0.285139
O O15 0.111401 0.307817 0.301111
O O16 0.000000 0.355406 0.284230
#
# Coordination Sequence:
#
# PCOD9518229 Si02
#       6
#    16  16  16  16  16  16
#     4   9  17  29  46  69  96 125 159 200 240 275
#     4  10  20  31  46  71  96 122 159 198 233 273
#     4   9  18  31  48  72  99 124 151 188 237 288
#     4  10  19  31  46  66  96 132 162 193 234 275
#     4   9  17  30  50  74  98 123 152 191 238 282
#     4  10  18  31  51  73  94 122 153 193 236 283
#
# _framework density 15.13251
#
# number of rings (size 3 to 8) (size 9 to 14) (size 15 to 20)
#    0.000    2.500    1.667    2.500    0.000    1.667 
#    0.000    0.833    0.000    5.500    0.000    3.500 
#    0.000    0.000    0.000    0.000    0.000    0.000 
#
# Total GULP energy -267639.290778 kJ/mol
# GULP energy per Si atom -5575.818558 kJ/mol
# Density = 1.509807 g / cm^3
# Si number density = 15.132510 Si / 1000 Ang^3
#
#
#
# Elastic Constant Matrix: (Units=GPa)
#
#
# Indices 1 2 3 4 5 6 
#
# 1 72.2545 54.5400 39.1861 0.0000 0.0000 0.0000
# 2 54.5400 108.9249 48.5309 0.0000 0.0000 0.0000
# 3 39.1861 48.5309 59.7559 0.0000 0.0000 0.0000
# 4 0.0000 0.0000 0.0000 19.0777 0.0000 0.0000
# 5 0.0000 0.0000 0.0000 0.0000 20.1451 0.0000
# 6 0.0000 0.0000 0.0000 0.0000 0.0000 20.7786
#
#
#
# Elastic Compliance Matrix: (Units=1/GPa)
#
#
# Indices 1 2 3 4 5 6 
#
# 1 0.025553 -0.008350 -0.009975 0.000000 0.000000 0.000000
# 2 -0.008350 0.017115 -0.008424 0.000000 0.000000 0.000000
# 3 -0.009975 -0.008424 0.030118 0.000000 0.000000 0.000000
# 4 0.000000 0.000000 0.000000 0.052417 0.000000 0.000000
# 5 0.000000 0.000000 0.000000 0.000000 0.049640 0.000000
# 6 0.000000 0.000000 0.000000 0.000000 0.000000 0.048126
#
#
# Mechanical properties :
#
#
# Convention : Reuss Voigt Hill
#
# Bulk Modulus (GPa) = 51.84934 58.38325 55.11629
# Shear Modulus (GPa) = 17.67427 18.57884 18.12655
#
# Velocity S-wave (km/s) = 3.42126 3.50772 3.46476
# Velocity P-wave (km/s) = 7.06715 7.42095 7.24621
#
# Compressibility (1/GPa) = 0.01928665
#
# Stress axis : x y z
#
# Youngs Moduli (GPa) = 39.13459 58.42809 33.20294
#
# Poissons Ratio (x) = 0.48789 0.33120
# Poissons Ratio (y) = 0.32678 0.27971
# Poissons Ratio (z) = 0.39037 0.49221
#
# Static dielectric constant tensor:
#      x y z
#    x 1.484980 0.000000 0.000000 
#    y 0.000000 1.474860 0.000000 
#    z 0.000000 0.000000 1.511420 
# 
# From -- ./inp_files/24214.got.cif
#   From: 2010.05.17/outbox.cif.g08.bks.cpg/sg71_13_cif.got.tgz:24214.got - 2010.06.03 16:22:01.
