data_PCOD9518953
_publ_section_title
;
Structure prediction by ZEFSAII (Michael W. Deem and Ramdas Pophale) SiO2 
 PCOD9518953
Probable space group: I M M M
;
_chemical_formula_sum "Si O2"
_cell_formula_units_Z 104
_cell_length_a 28.927529
_cell_length_b 8.857734
_cell_length_c 21.113403
_cell_angle_alpha 90.000000
_cell_angle_beta 90.000000
_cell_angle_gamma 90.000000
_cell_volume 5409.937018
_symmetry_space_group_name_H-M "I M M M"
_symmetry_group_IT_number 71
_symmetry_cell_setting 'orthorhombic'
loop_
_space_group_symop_operation_xyz
x,y,z
-x,-y,z
x,-y,-z
-x,y,-z
-x,-y,-z
x,y,-z
-x,y,z
x,-y,z
1/2+x,1/2+y,1/2+z
1/2-x,1/2-y,1/2+z
1/2+x,1/2-y,1/2-z
1/2-x,1/2+y,1/2-z
1/2-x,1/2-y,1/2-z
1/2+x,1/2+y,1/2-z
1/2-x,1/2+y,1/2+z
1/2+x,1/2-y,1/2+z
loop_
_atom_site_type_symbol
_atom_site_label
_atom_site_fract_x
_atom_site_fract_y
_atom_site_fract_z
Si Si1 0.180352 0.665607 0.929003
Si Si2 0.430281 0.174712 0.431337
Si Si3 0.500000 0.683865 0.074647
Si Si4 0.213477 0.173485 0.816094
Si Si5 0.087559 0.180375 0.662644
Si Si6 0.945911 0.672730 0.208604
Si Si7 0.679946 0.820371 0.197267
O O1 0.193815 0.500000 0.902283
O O2 0.125090 0.668873 0.932379
O O3 0.196173 0.801629 0.886353
O O4 0.198634 0.675380 0.000000
O O5 0.445099 0.239583 0.500000
O O6 0.442053 0.239672 0.362430
O O7 0.446905 0.000000 0.429889
O O8 0.500000 0.500000 0.074913
O O9 0.546630 0.730230 0.113748
O O10 0.500000 0.730520 0.000000
O O11 0.266961 0.225701 0.817530
O O12 0.179542 0.267411 0.770535
O O13 0.212648 0.000000 0.795354
O O14 0.074595 0.233458 0.733626
O O15 0.139383 0.246840 0.655743
O O16 0.089577 0.000000 0.659425
O O17 0.926416 0.500000 0.208313
O O18 0.000000 0.661399 0.222050
O O19 0.676116 0.000000 0.192494
#
# Coordination Sequence:
#
# PCOD9518953 Si02
#       7
#    16  16   8  16  16  16  16
#     4   9  17  30  49  71 100 142 186 224 262 309
#     4   8  15  28  45  68 100 140 184 222 255 294
#     4   9  20  40  63  85 110 141 180 232 293 353
#     4  10  20  34  53  80 110 144 183 226 275 325
#     4  11  21  36  59  84 108 139 180 228 281 340
#     4  10  19  30  49  77 107 139 175 220 270 316
#     4  10  21  36  55  79 111 143 175 221 276 337
#
# _framework density 19.223884999999999
#
# number of rings (size 3 to 8) (size 9 to 14) (size 15 to 20)
#    0.000    2.385    0.769    3.231    0.000    3.692 
#    0.000    2.308    0.000    7.846    0.000    1.077 
#    0.000    0.000    0.000    0.000    0.000    0.000 
#
# Total GULP energy -289499.823236 kJ/mol
# GULP energy per Si atom -5567.304293 kJ/mol
# Density = 1.918013 g / cm^3
# Si number density = 19.223885 Si / 1000 Ang^3
#
#
#
# Elastic Constant Matrix: (Units=GPa)
#
#
# Indices 1 2 3 4 5 6 
#
# 1 97.5923 25.2854 44.1119 0.0000 0.0000 0.0000
# 2 25.2854 36.3105 19.0979 0.0000 0.0000 0.0000
# 3 44.1119 19.0979 92.4999 0.0000 0.0000 0.0000
# 4 0.0000 0.0000 0.0000 19.7855 0.0000 0.0000
# 5 0.0000 0.0000 0.0000 0.0000 13.5526 0.0000
# 6 0.0000 0.0000 0.0000 0.0000 0.0000 21.3199
#
#
#
# Elastic Compliance Matrix: (Units=1/GPa)
#
#
# Indices 1 2 3 4 5 6 
#
# 1 0.014605 -0.007300 -0.005458 0.000000 0.000000 0.000000
# 2 -0.007300 0.034544 -0.003651 0.000000 0.000000 0.000000
# 3 -0.005458 -0.003651 0.014167 0.000000 0.000000 0.000000
# 4 0.000000 0.000000 0.000000 0.050542 0.000000 0.000000
# 5 0.000000 0.000000 0.000000 0.000000 0.073786 0.000000
# 6 0.000000 0.000000 0.000000 0.000000 0.000000 0.046904
#
#
# Mechanical properties :
#
#
# Convention : Reuss Voigt Hill
#
# Bulk Modulus (GPa) = 32.78775 44.82146 38.80461
# Shear Modulus (GPa) = 18.01592 20.12544 19.07068
#
# Velocity S-wave (km/s) = 3.06463 3.23909 3.15307
# Velocity P-wave (km/s) = 5.44200 6.11188 5.78664
#
# Compressibility (1/GPa) = 0.03049919
#
# Stress axis : x y z
#
# Youngs Moduli (GPa) = 68.46989 28.94874 70.58495
#
# Poissons Ratio (x) = 0.21132 0.38523
# Poissons Ratio (y) = 0.49982 0.25770
# Poissons Ratio (z) = 0.37369 0.10569
#
# Static dielectric constant tensor:
#      x y z
#    x 1.701550 0.000000 0.000000 
#    y 0.000000 1.685780 0.000000 
#    z 0.000000 0.000000 1.717040 
# 
# From -- ./inp_files/56284.got.cif
#   From: 2010.05.17/outbox.cif.g08.bks.cpg/sg71_29_cif.got.tgz:56284.got - 2010.06.03 16:22:01.
