data_PCOD9518501
_publ_section_title
;
Structure prediction by ZEFSAII (Michael W. Deem and Ramdas Pophale) SiO2 
 PCOD9518501
Probable space group: I M M M
;
_chemical_formula_sum "Si O2"
_cell_formula_units_Z 104
_cell_length_a 21.750707
_cell_length_b 8.149511
_cell_length_c 29.591623
_cell_angle_alpha 90.000000
_cell_angle_beta 90.000000
_cell_angle_gamma 90.000000
_cell_volume 5245.340841
_symmetry_space_group_name_H-M "I M M M"
_symmetry_group_IT_number 71
_symmetry_cell_setting 'orthorhombic'
loop_
_space_group_symop_operation_xyz
x,y,z
-x,-y,z
x,-y,-z
-x,y,-z
-x,-y,-z
x,y,-z
-x,y,z
x,-y,z
1/2+x,1/2+y,1/2+z
1/2-x,1/2-y,1/2+z
1/2+x,1/2-y,1/2-z
1/2-x,1/2+y,1/2-z
1/2-x,1/2-y,1/2-z
1/2+x,1/2+y,1/2-z
1/2-x,1/2+y,1/2+z
1/2+x,1/2-y,1/2+z
loop_
_atom_site_type_symbol
_atom_site_label
_atom_site_fract_x
_atom_site_fract_y
_atom_site_fract_z
Si Si1 0.157941 0.305708 0.131369
Si Si2 0.599091 0.690759 0.813472
Si Si3 0.388875 0.304525 0.947334
Si Si4 0.429871 0.698292 0.552239
Si Si5 0.296584 0.192827 0.126565
Si Si6 0.929543 0.301249 0.787263
Si Si7 0.500000 0.796454 0.114901
O O1 0.167301 0.500000 0.136564
O O2 0.118588 0.272368 0.086523
O O3 0.224387 0.224203 0.128668
O O4 0.116909 0.246280 0.173659
O O5 0.582932 0.500000 0.821432
O O6 0.667325 0.724042 0.831760
O O7 0.589878 0.734865 0.761562
O O8 0.553298 0.792088 0.845403
O O9 0.401846 0.500000 0.943028
O O10 0.327967 0.264830 0.918661
O O11 0.445763 0.214663 0.923636
O O12 0.382494 0.264409 0.000000
O O13 0.418582 0.744055 0.500000
O O14 0.500000 0.747598 0.563831
O O15 0.426965 0.500000 0.554864
O O16 0.308974 0.000000 0.127934
O O17 0.928288 0.500000 0.785717
O O18 0.000000 0.251120 0.796834
#
# Coordination Sequence:
#
# PCOD9518501 Si02
#       7
#    16  16  16  16  16  16   8
#     4  11  23  40  61  86 118 156 197 245 296 351
#     4  11  21  37  61  88 117 153 198 241 288 352
#     4  10  20  36  60  89 121 156 197 246 297 354
#     4   9  19  37  61  89 120 153 190 236 291 351
#     4  11  24  41  59  81 114 157 200 247 298 352
#     4  10  22  39  60  89 122 151 186 237 297 353
#     4  10  18  33  59  91 121 151 192 241 291 343
#
# _framework density 19.827119
#
# number of rings (size 3 to 8) (size 9 to 14) (size 15 to 20)
#    0.000    1.692    0.769    5.769    0.000    4.615 
#    0.000    4.231    0.000    3.692    0.000    0.000 
#    0.000    0.000    0.000    0.000    0.000    0.000 
#
# Total GULP energy -289612.967985 kJ/mol
# GULP energy per Si atom -5569.480154 kJ/mol
# Density = 1.978199 g / cm^3
# Si number density = 19.827119 Si / 1000 Ang^3
#
#
#
# Elastic Constant Matrix: (Units=GPa)
#
#
# Indices 1 2 3 4 5 6 
#
# 1 152.2584 9.9127 83.3805 0.0000 0.0000 0.0000
# 2 9.9127 36.3298 11.2752 0.0000 0.0000 0.0000
# 3 83.3805 11.2752 123.3274 0.0000 0.0000 0.0000
# 4 0.0000 0.0000 0.0000 23.5181 0.0000 0.0000
# 5 0.0000 0.0000 0.0000 0.0000 19.9043 0.0000
# 6 0.0000 0.0000 0.0000 0.0000 0.0000 -23.0652
#
#
#
# Elastic Compliance Matrix: (Units=1/GPa)
#
#
# Indices 1 2 3 4 5 6 
#
# 1 0.010445 -0.000678 -0.007000 0.000000 0.000000 0.000000
# 2 -0.000678 0.028373 -0.002136 0.000000 0.000000 0.000000
# 3 -0.007000 -0.002136 0.013036 0.000000 0.000000 0.000000
# 4 0.000000 0.000000 0.000000 0.042520 0.000000 0.000000
# 5 0.000000 0.000000 0.000000 0.000000 0.050240 0.000000
# 6 0.000000 0.000000 0.000000 0.000000 0.000000 -0.043355
#
#
# Mechanical properties :
#
#
# Convention : Reuss Voigt Hill
#
# Bulk Modulus (GPa) = 31.02886 57.89471 44.46179
# Shear Modulus (GPa) = 37.98527 17.89461 27.93994
#
# Velocity S-wave (km/s) = 4.38176 3.00748 3.75797
# Velocity P-wave (km/s) = 6.42522 6.42830 6.42676
#
# Compressibility (1/GPa) = 0.03222806
#
# Stress axis : x y z
#
# Youngs Moduli (GPa) = 95.73704 35.24434 76.70819
#
# Poissons Ratio (x) = 0.02388 0.53696
# Poissons Ratio (y) = 0.06486 0.16384
# Poissons Ratio (z) = 0.67016 0.07528
#
# Static dielectric constant tensor:
#      x y z
#    x 1.664680 0.000000 0.000000 
#    y 0.000000 1.752540 0.000000 
#    z 0.000000 0.000000 1.662500 
# 
# From -- ./inp_files/66420.got.cif
#   From: 2010.05.17/outbox.cif.g08.bks.cpg/sg71_34_cif.got.tgz:66420.got - 2010.06.03 16:22:01.
