data_PCOD9518376
_publ_section_title
;
Structure prediction by ZEFSAII (Michael W. Deem and Ramdas Pophale) SiO2 
 PCOD9518376
Probable space group: I M M M
;
_chemical_formula_sum "Si O2"
_cell_formula_units_Z 64
_cell_length_a 28.615992
_cell_length_b 14.168482
_cell_length_c 8.483118
_cell_angle_alpha 90.000000
_cell_angle_beta 90.000000
_cell_angle_gamma 90.000000
_cell_volume 3439.439199
_symmetry_space_group_name_H-M "I M M M"
_symmetry_group_IT_number 71
_symmetry_cell_setting 'orthorhombic'
loop_
_space_group_symop_operation_xyz
x,y,z
-x,-y,z
x,-y,-z
-x,y,-z
-x,-y,-z
x,y,-z
-x,y,z
x,-y,z
1/2+x,1/2+y,1/2+z
1/2-x,1/2-y,1/2+z
1/2+x,1/2-y,1/2-z
1/2-x,1/2+y,1/2-z
1/2-x,1/2-y,1/2-z
1/2+x,1/2+y,1/2-z
1/2-x,1/2+y,1/2+z
1/2+x,1/2-y,1/2+z
loop_
_atom_site_type_symbol
_atom_site_label
_atom_site_fract_x
_atom_site_fract_y
_atom_site_fract_z
Si Si1 0.397071 0.796402 0.812346
Si Si2 0.089297 0.500000 0.181984
Si Si3 0.291571 0.186780 0.687943
Si Si4 0.555911 0.394146 0.312051
Si Si5 0.189640 0.500000 0.320350
O O1 0.421620 0.895529 0.754735
O O2 0.344833 0.788869 0.738940
O O3 0.422973 0.699397 0.766760
O O4 0.392778 0.803695 0.000000
O O5 0.145354 0.500000 0.204173
O O6 0.075259 0.500000 0.000000
O O7 0.290383 0.177873 0.500000
O O8 0.250000 0.250000 0.750000
O O9 0.281620 0.090367 0.778894
O O10 0.565118 0.388411 0.500000
O O11 0.500000 0.391817 0.290118
O O12 0.571856 0.500000 0.258962
O O13 0.172527 0.500000 0.500000
#
# Coordination Sequence:
#
# PCOD9518376 Si02
#       5
#    16   8  16  16   8
#     4  11  21  35  56  84 115 146 185 231 283 340
#     4  10  18  32  55  79 106 144 184 222 269 326
#     4  11  21  36  55  78 108 144 186 230 277 330
#     4   9  19  38  62  85 112 149 191 233 282 340
#     4  10  18  32  52  75 103 138 177 217 270 329
#
# _framework density 18.607683999999999
#
# number of rings (size 3 to 8) (size 9 to 14) (size 15 to 20)
#    0.000    1.750    0.000   10.500    0.000    1.000 
#    2.250    1.875    0.000    3.750    0.000    0.000 
#    0.000    0.000    0.000    0.000    0.000    0.000 
#
# Total GULP energy -178182.077233 kJ/mol
# GULP energy per Si atom -5568.189914 kJ/mol
# Density = 1.856533 g / cm^3
# Si number density = 18.607684 Si / 1000 Ang^3
#
#
#
# Elastic Constant Matrix: (Units=GPa)
#
#
# Indices 1 2 3 4 5 6 
#
# 1 27.2905 41.8872 21.7426 0.0000 0.0000 0.0000
# 2 41.8872 171.6182 29.0037 0.0000 0.0000 0.0000
# 3 21.7426 29.0037 90.0719 0.0000 0.0000 0.0000
# 4 0.0000 0.0000 0.0000 29.9553 0.0000 0.0000
# 5 0.0000 0.0000 0.0000 0.0000 20.2304 0.0000
# 6 0.0000 0.0000 0.0000 0.0000 0.0000 31.9435
#
#
#
# Elastic Compliance Matrix: (Units=1/GPa)
#
#
# Indices 1 2 3 4 5 6 
#
# 1 0.068765 -0.014783 -0.011839 0.000000 0.000000 0.000000
# 2 -0.014783 0.009340 0.000561 0.000000 0.000000 0.000000
# 3 -0.011839 0.000561 0.013779 0.000000 0.000000 0.000000
# 4 0.000000 0.000000 0.000000 0.033383 0.000000 0.000000
# 5 0.000000 0.000000 0.000000 0.000000 0.049430 0.000000
# 6 0.000000 0.000000 0.000000 0.000000 0.000000 0.031305
#
#
# Mechanical properties :
#
#
# Convention : Reuss Voigt Hill
#
# Bulk Modulus (GPa) = 25.14942 52.69415 38.92179
# Shear Modulus (GPa) = 18.42443 29.51566 23.97004
#
# Velocity S-wave (km/s) = 3.15008 3.98704 3.59302
# Velocity P-wave (km/s) = 5.17452 7.04097 6.17863
#
# Compressibility (1/GPa) = 0.03976235
#
# Stress axis : x y z
#
# Youngs Moduli (GPa) = 14.54239 107.06463 72.57159
#
# Poissons Ratio (x) = 1.58270 0.85918
# Poissons Ratio (y) = 0.21498 -0.04070
# Poissons Ratio (z) = 0.17217 -0.06004
#
# Static dielectric constant tensor:
#      x y z
#    x 1.610380 0.000000 0.000000 
#    y 0.000000 1.677580 0.000000 
#    z 0.000000 0.000000 1.627040 
# 
# From -- ./inp_files/16177.got.cif
#   From: 2010.05.17/outbox.cif.g08.bks.cpg/sg71_9_cif.got.tgz:16177.got - 2010.06.03 16:22:01.
