data_PCOD9518845
_publ_section_title
;
Structure prediction by ZEFSAII (Michael W. Deem and Ramdas Pophale) SiO2 
 PCOD9518845
Probable space group: I M M M
;
_chemical_formula_sum "Si O2"
_cell_formula_units_Z 56
_cell_length_a 28.854453
_cell_length_b 18.568607
_cell_length_c 5.481255
_cell_angle_alpha 90.000000
_cell_angle_beta 90.000000
_cell_angle_gamma 90.000000
_cell_volume 2936.785161
_symmetry_space_group_name_H-M "I M M M"
_symmetry_group_IT_number 71
_symmetry_cell_setting 'orthorhombic'
loop_
_space_group_symop_operation_xyz
x,y,z
-x,-y,z
x,-y,-z
-x,y,-z
-x,-y,-z
x,y,-z
-x,y,z
x,-y,z
1/2+x,1/2+y,1/2+z
1/2-x,1/2-y,1/2+z
1/2+x,1/2-y,1/2-z
1/2-x,1/2+y,1/2-z
1/2-x,1/2-y,1/2-z
1/2+x,1/2+y,1/2-z
1/2-x,1/2+y,1/2+z
1/2+x,1/2-y,1/2+z
loop_
_atom_site_type_symbol
_atom_site_label
_atom_site_fract_x
_atom_site_fract_y
_atom_site_fract_z
Si Si1 0.331735 0.500000 0.000000
Si Si2 0.309563 0.656847 0.000000
Si Si3 0.882565 0.420247 0.000000
Si Si4 0.772659 0.851394 0.000000
Si Si5 0.055048 0.722482 0.000000
Si Si6 0.331342 0.500000 0.500000
Si Si7 0.336613 0.874248 0.000000
Si Si8 0.100156 0.768567 0.500000
O O1 0.299911 0.428853 0.000000
O O2 0.359170 0.500000 0.250598
O O3 0.289183 0.686853 0.748728
O O4 0.364935 0.664464 0.000000
O O5 0.852615 0.411820 0.248011
O O6 0.903842 0.500000 0.000000
O O7 0.919831 0.355675 0.000000
O O8 0.718227 0.863869 0.000000
O O9 0.799854 0.928251 0.000000
O O10 0.071532 0.761568 0.750469
O O11 0.000000 0.714732 0.000000
O O12 0.363700 0.798351 0.000000
#
# Coordination Sequence:
#
# PCOD9518845 Si02
#       8
#     4   8   8   8   8   4   8   8
#     4   8  16  30  44  68  97 126 170 204 241 290
#     4  10  19  33  51  74 105 138 178 218 253 303
#     4  10  21  35  53  77 106 141 179 222 270 306
#     4  10  19  30  46  71 102 145 178 216 250 294
#     4  10  21  39  59  80 104 130 172 223 271 335
#     4   8  16  26  40  62  92 128 174 212 236 276
#     4  10  21  34  47  75 108 141 183 218 254 308
#     4  10  21  36  55  78 104 134 171 216 271 321
#
# _framework density 19.068470999999999
#
# number of rings (size 3 to 8) (size 9 to 14) (size 15 to 20)
#    0.000    2.286    0.000    2.571    2.000    1.429 
#    2.571    0.000    0.000    5.143    0.000    3.000 
#    0.000    0.000    0.000    0.000    0.000    0.000 
#
# Total GULP energy -156019.016676 kJ/mol
# GULP energy per Si atom -5572.107738 kJ/mol
# Density = 1.902507 g / cm^3
# Si number density = 19.068471 Si / 1000 Ang^3
#
#
#
# Elastic Constant Matrix: (Units=GPa)
#
#
# Indices 1 2 3 4 5 6 
#
# 1 125.8715 14.7518 71.8090 0.0000 0.0000 0.0000
# 2 14.7518 31.5833 19.5798 0.0000 0.0000 0.0000
# 3 71.8090 19.5798 234.9610 0.0000 0.0000 0.0000
# 4 0.0000 0.0000 0.0000 -16.4967 0.0000 0.0000
# 5 0.0000 0.0000 0.0000 0.0000 33.2513 0.0000
# 6 0.0000 0.0000 0.0000 0.0000 0.0000 6.8893
#
#
#
# Elastic Compliance Matrix: (Units=1/GPa)
#
#
# Indices 1 2 3 4 5 6 
#
# 1 0.009866 -0.002888 -0.002775 0.000000 0.000000 0.000000
# 2 -0.002888 0.034233 -0.001970 0.000000 0.000000 0.000000
# 3 -0.002775 -0.001970 0.005268 0.000000 0.000000 0.000000
# 4 0.000000 0.000000 0.000000 -0.060618 0.000000 0.000000
# 5 0.000000 0.000000 0.000000 0.000000 0.030074 0.000000
# 6 0.000000 0.000000 0.000000 0.000000 0.000000 0.145152
#
#
# Mechanical properties :
#
#
# Convention : Reuss Voigt Hill
#
# Bulk Modulus (GPa) = 29.32434 67.18856 48.25645
# Shear Modulus (GPa) = 26.23200 23.81380 25.02290
#
# Velocity S-wave (km/s) = 3.71303 3.53775 3.62645
# Velocity P-wave (km/s) = 5.81326 7.21107 6.54956
#
# Compressibility (1/GPa) = 0.03410136
#
# Stress axis : x y z
#
# Youngs Moduli (GPa) = 101.35858 29.21192 189.81964
#
# Poissons Ratio (x) = 0.08437 0.52667
# Poissons Ratio (y) = 0.29273 0.37395
# Poissons Ratio (z) = 0.28123 0.05755
#
# Static dielectric constant tensor:
#      x y z
#    x 1.593300 0.000000 0.000000 
#    y 0.000000 1.739970 0.000000 
#    z 0.000000 0.000000 1.830480 
# 
# From -- ./inp_files/1277.got.cif
#   From: 2010.05.17/outbox.cif.g08.bks.cpg/sg71_1_cif.got.tgz:1277.got - 2010.06.03 16:22:01.
