data_PCOD9518541
_publ_section_title
;
Structure prediction by ZEFSAII (Michael W. Deem and Ramdas Pophale) SiO2 
 PCOD9518541
Probable space group: I M M M
;
_chemical_formula_sum "Si O2"
_cell_formula_units_Z 72
_cell_length_a 9.033721
_cell_length_b 17.963089
_cell_length_c 24.219223
_cell_angle_alpha 90.000000
_cell_angle_beta 90.000000
_cell_angle_gamma 90.000000
_cell_volume 3930.138915
_symmetry_space_group_name_H-M "I M M M"
_symmetry_group_IT_number 71
_symmetry_cell_setting 'orthorhombic'
loop_
_space_group_symop_operation_xyz
x,y,z
-x,-y,z
x,-y,-z
-x,y,-z
-x,-y,-z
x,y,-z
-x,y,z
x,-y,z
1/2+x,1/2+y,1/2+z
1/2-x,1/2-y,1/2+z
1/2+x,1/2-y,1/2-z
1/2-x,1/2+y,1/2-z
1/2-x,1/2-y,1/2-z
1/2+x,1/2+y,1/2-z
1/2-x,1/2+y,1/2+z
1/2+x,1/2-y,1/2+z
loop_
_atom_site_type_symbol
_atom_site_label
_atom_site_fract_x
_atom_site_fract_y
_atom_site_fract_z
Si Si1 0.324377 0.000000 0.436248
Si Si2 0.327043 0.386638 0.500000
Si Si3 0.822211 0.416225 0.381493
Si Si4 0.320894 0.228785 0.808410
Si Si5 0.168231 0.142164 0.391850
Si Si6 0.339264 0.742437 0.000000
O O1 0.268121 0.071930 0.404033
O O2 0.500000 0.000000 0.439069
O O3 0.266521 0.000000 0.500000
O O4 0.500000 0.405281 0.500000
O O5 0.252008 0.411679 0.557718
O O6 0.295587 0.298538 0.500000
O O7 0.792221 0.500000 0.359376
O O8 0.776312 0.348052 0.340635
O O9 0.000000 0.409010 0.388646
O O10 0.500000 0.225360 0.803552
O O11 0.250000 0.250000 0.750000
O O12 0.281514 0.299349 0.846370
O O13 0.163976 0.190719 0.447232
O O14 0.000000 0.117688 0.379263
O O15 0.500000 0.783406 0.000000
#
# Coordination Sequence:
#
# PCOD9518541 Si02
#       6
#     8   8  16  16  16   8
#     4  11  23  35  53  89 129 153 183 236 297 352
#     4  12  23  33  55  92 129 154 184 237 298 352
#     4  10  21  40  64  87 116 156 199 237 281 349
#     4  10  22  41  63  86 113 152 201 246 291 342
#     4  10  20  37  61  83 111 154 199 239 284 350
#     4  10  18  34  60  84 112 153 199 238 283 353
#
# _framework density 18.319963000000001
#
# number of rings (size 3 to 8) (size 9 to 14) (size 15 to 20)
#    0.000    1.667    3.333    1.667    0.000    4.889 
#    2.000    0.000    0.000    0.000    0.000    0.000 
#    0.000    0.000    0.000    0.000    0.000    0.000 
#
# Total GULP energy -200716.841401 kJ/mol
# GULP energy per Si atom -5575.467817 kJ/mol
# Density = 1.827827 g / cm^3
# Si number density = 18.319963 Si / 1000 Ang^3
#
#
#
# Elastic Constant Matrix: (Units=GPa)
#
#
# Indices 1 2 3 4 5 6 
#
# 1 42.8665 55.7534 37.9345 0.0000 0.0000 0.0000
# 2 55.7534 158.1596 81.3410 0.0000 0.0000 0.0000
# 3 37.9345 81.3410 153.8888 0.0000 0.0000 0.0000
# 4 0.0000 0.0000 0.0000 2.7574 0.0000 0.0000
# 5 0.0000 0.0000 0.0000 0.0000 22.4773 0.0000
# 6 0.0000 0.0000 0.0000 0.0000 0.0000 5.2760
#
#
#
# Elastic Compliance Matrix: (Units=1/GPa)
#
#
# Indices 1 2 3 4 5 6 
#
# 1 0.044549 -0.013811 -0.003682 0.000000 0.000000 0.000000
# 2 -0.013811 0.012965 -0.003448 0.000000 0.000000 0.000000
# 3 -0.003682 -0.003448 0.009228 0.000000 0.000000 0.000000
# 4 0.000000 0.000000 0.000000 0.362666 0.000000 0.000000
# 5 0.000000 0.000000 0.000000 0.000000 0.044489 0.000000
# 6 0.000000 0.000000 0.000000 0.000000 0.000000 0.189536
#
#
# Mechanical properties :
#
#
# Convention : Reuss Voigt Hill
#
# Bulk Modulus (GPa) = 40.22424 78.33031 59.27728
# Shear Modulus (GPa) = 7.00671 18.09454 12.55062
#
# Velocity S-wave (km/s) = 1.95779 3.14617 2.62024
# Velocity P-wave (km/s) = 5.20718 7.48649 6.44834
#
# Compressibility (1/GPa) = 0.02486063
#
# Stress axis : x y z
#
# Youngs Moduli (GPa) = 22.44735 77.13316 108.36081
#
# Poissons Ratio (x) = 1.06525 0.39895
# Poissons Ratio (y) = 0.31001 0.37366
# Poissons Ratio (z) = 0.08264 0.26598
#
# Static dielectric constant tensor:
#      x y z
#    x 1.642930 0.000000 0.000000 
#    y 0.000000 1.651020 0.000000 
#    z 0.000000 0.000000 1.555650 
# 
# From -- ./inp_files/42116.got.cif
#   From: 2010.05.17/outbox.cif.g08.bks.cpg/sg71_22_cif.got.tgz:42116.got - 2010.06.03 16:22:01.
