data_PCOD9518317
_publ_section_title
;
Structure prediction by ZEFSAII (Michael W. Deem and Ramdas Pophale) SiO2 
 PCOD9518317
Probable space group: I M M M
;
_chemical_formula_sum "Si O2"
_cell_formula_units_Z 68
_cell_length_a 14.812918
_cell_length_b 19.089051
_cell_length_c 9.960926
_cell_angle_alpha 90.000000
_cell_angle_beta 90.000000
_cell_angle_gamma 90.000000
_cell_volume 2816.596730
_symmetry_space_group_name_H-M "I M M M"
_symmetry_group_IT_number 71
_symmetry_cell_setting 'orthorhombic'
loop_
_space_group_symop_operation_xyz
x,y,z
-x,-y,z
x,-y,-z
-x,y,-z
-x,-y,-z
x,y,-z
-x,y,z
x,-y,z
1/2+x,1/2+y,1/2+z
1/2-x,1/2-y,1/2+z
1/2+x,1/2-y,1/2-z
1/2-x,1/2+y,1/2-z
1/2-x,1/2-y,1/2-z
1/2+x,1/2+y,1/2-z
1/2-x,1/2+y,1/2+z
1/2+x,1/2-y,1/2+z
loop_
_atom_site_type_symbol
_atom_site_label
_atom_site_fract_x
_atom_site_fract_y
_atom_site_fract_z
Si Si1 0.399558 0.396025 0.000000
Si Si2 0.890377 0.375683 0.707527
Si Si3 0.152361 0.744704 0.500000
Si Si4 0.397319 0.319871 0.500000
Si Si5 0.339843 0.830307 0.500000
Si Si6 0.610348 0.575915 0.713348
Si Si7 0.157904 0.500000 0.500000
O O1 0.353831 0.419195 0.136556
O O2 0.500000 0.426308 0.000000
O O3 0.409394 0.312831 0.000000
O O4 0.864451 0.303702 0.629521
O O5 0.857081 0.371298 0.861581
O O6 0.850472 0.438410 0.618084
O O7 0.000000 0.382091 0.705016
O O8 0.247304 0.785387 0.500000
O O9 0.500000 0.346265 0.500000
O O10 0.403637 0.237839 0.500000
O O11 0.355735 0.358304 0.628714
O O12 0.500000 0.578776 0.723352
O O13 0.633153 0.500000 0.653032
#
# Coordination Sequence:
#
# PCOD9518317 Si02
#       7
#     8  16   8   8   8  16   4
#     4  10  18  31  55  81 108 151 213 261 297 358
#     4  11  22  42  71 101 131 172 227 280 337 407
#     4  11  23  40  63  90 135 179 215 263 339 402
#     4  10  19  33  53  79 115 155 201 246 302 369
#     4  12  25  39  63  97 141 171 213 275 344 398
#     4   9  17  29  49  76 107 145 194 251 298 341
#     4  10  23  44  74 102 126 166 223 290 351 404
#
# _framework density 24.142610999999999
#
# number of rings (size 3 to 8) (size 9 to 14) (size 15 to 20)
#    0.000    1.647    0.000    6.706    0.000    5.176 
#    0.000    1.176   25.882    0.000    0.000    0.000 
#    0.000    0.000    0.000    0.118    0.000    0.000 
#
# Total GULP energy -189450.981944 kJ/mol
# GULP energy per Si atom -5572.087704 kJ/mol
# Density = 2.408766 g / cm^3
# Si number density = 24.142611 Si / 1000 Ang^3
#
#
#
# Elastic Constant Matrix: (Units=GPa)
#
#
# Indices 1 2 3 4 5 6 
#
# 1 75.3299 -0.6100 -1.2746 0.0000 0.0000 0.0000
# 2 -0.6100 167.0733 76.1062 0.0000 0.0000 0.0000
# 3 -1.2746 76.1062 231.8603 0.0000 0.0000 0.0000
# 4 0.0000 0.0000 0.0000 92.6410 0.0000 0.0000
# 5 0.0000 0.0000 0.0000 0.0000 5.9610 0.0000
# 6 0.0000 0.0000 0.0000 0.0000 0.0000 10.7122
#
#
#
# Elastic Compliance Matrix: (Units=1/GPa)
#
#
# Indices 1 2 3 4 5 6 
#
# 1 0.013276 0.000018 0.000067 0.000000 0.000000 0.000000
# 2 0.000018 0.007038 -0.002310 0.000000 0.000000 0.000000
# 3 0.000067 -0.002310 0.005072 0.000000 0.000000 0.000000
# 4 0.000000 0.000000 0.000000 0.010794 0.000000 0.000000
# 5 0.000000 0.000000 0.000000 0.000000 0.167756 0.000000
# 6 0.000000 0.000000 0.000000 0.000000 0.000000 0.093352
#
#
# Mechanical properties :
#
#
# Convention : Reuss Voigt Hill
#
# Bulk Modulus (GPa) = 47.76566 69.18966 58.47766
# Shear Modulus (GPa) = 16.19611 48.53230 32.36421
#
# Velocity S-wave (km/s) = 2.59289 4.48843 3.66531
# Velocity P-wave (km/s) = 5.36580 7.45535 6.49516
#
# Compressibility (1/GPa) = 0.02093554
#
# Stress axis : x y z
#
# Youngs Moduli (GPa) = 75.32266 142.09158 197.17874
#
# Poissons Ratio (x) = -0.00254 -0.01323
# Poissons Ratio (y) = -0.00135 0.45548
# Poissons Ratio (z) = -0.00505 0.32823
#
# Static dielectric constant tensor:
#      x y z
#    x 2.508590 0.000000 0.000000 
#    y 0.000000 1.860660 0.000000 
#    z 0.000000 0.000000 2.109060 
# 
# From -- ./inp_files/7725.got.cif
#   From: 2010.05.17/outbox.cif.g08.bks.cpg/sg71_4_cif.got.tgz:7725.got - 2010.06.03 16:22:01.
