data_PCOD9518286
_publ_section_title
;
Structure prediction by ZEFSAII (Michael W. Deem and Ramdas Pophale) SiO2 
 PCOD9518286
Probable space group: I M M M
;
_chemical_formula_sum "Si O2"
_cell_formula_units_Z 104
_cell_length_a 28.267473
_cell_length_b 18.661067
_cell_length_c 11.821302
_cell_angle_alpha 90.000000
_cell_angle_beta 90.000000
_cell_angle_gamma 90.000000
_cell_volume 6235.751080
_symmetry_space_group_name_H-M "I M M M"
_symmetry_group_IT_number 71
_symmetry_cell_setting 'orthorhombic'
loop_
_space_group_symop_operation_xyz
x,y,z
-x,-y,z
x,-y,-z
-x,y,-z
-x,-y,-z
x,y,-z
-x,y,z
x,-y,z
1/2+x,1/2+y,1/2+z
1/2-x,1/2-y,1/2+z
1/2+x,1/2-y,1/2-z
1/2-x,1/2+y,1/2-z
1/2-x,1/2-y,1/2-z
1/2+x,1/2+y,1/2-z
1/2-x,1/2+y,1/2+z
1/2+x,1/2-y,1/2+z
loop_
_atom_site_type_symbol
_atom_site_label
_atom_site_fract_x
_atom_site_fract_y
_atom_site_fract_z
Si Si1 0.052892 0.260106 0.793010
Si Si2 0.405574 0.651216 0.134320
Si Si3 0.234222 0.584829 0.865989
Si Si4 0.348332 0.186063 0.634251
Si Si5 0.446224 0.500000 0.862064
Si Si6 0.312161 0.332997 0.277352
Si Si7 0.153915 0.083587 0.000000
Si Si8 0.947660 0.147715 0.000000
O O1 0.060799 0.213814 0.680139
O O2 0.099257 0.309078 0.811801
O O3 0.055690 0.200414 0.892201
O O4 0.000000 0.292239 0.797186
O O5 0.422471 0.573241 0.175586
O O6 0.354492 0.662278 0.187336
O O7 0.404451 0.651017 0.000000
O O8 0.239501 0.500000 0.843469
O O9 0.180667 0.613025 0.849598
O O10 0.267327 0.632478 0.784966
O O11 0.245821 0.596553 0.000000
O O12 0.354080 0.198472 0.500000
O O13 0.315256 0.250356 0.682330
O O14 0.500000 0.500000 0.824397
O O15 0.445511 0.500000 0.000000
O O16 0.325164 0.378820 0.388413
O O17 0.097383 0.096774 0.000000
O O18 0.164567 0.000000 0.000000
O O19 0.000000 0.113894 0.000000
#
# Coordination Sequence:
#
# PCOD9518286 Si02
#       8
#    16  16  16  16   8  16   8   8
#     4  10  18  31  53  74  98 130 170 212 253 303
#     4  10  20  30  46  69  98 135 173 213 250 294
#     4  10  22  36  55  80 104 133 169 214 268 315
#     4  10  18  35  56  77 104 135 173 213 253 309
#     4   9  18  30  40  57  89 133 173 204 244 286
#     4  11  20  36  52  74 103 136 174 213 251 308
#     4  12  22  33  50  74 104 140 177 216 258 295
#     4  10  18  33  48  68  98 135 174 209 251 298
#
# _framework density 16.678023
#
# number of rings (size 3 to 8) (size 9 to 14) (size 15 to 20)
#    0.000    1.769    4.615    1.846    2.154    1.077 
#    0.000    0.000    1.692    0.462    0.000    2.154 
#    0.000    0.000    0.000    5.538    0.000    0.000 
#
# Total GULP energy -289883.886095 kJ/mol
# GULP energy per Si atom -5574.690117 kJ/mol
# Density = 1.664006 g / cm^3
# Si number density = 16.678023 Si / 1000 Ang^3
#
#
#
# Elastic Constant Matrix: (Units=GPa)
#
#
# Indices 1 2 3 4 5 6 
#
# 1 98.6413 28.5848 27.8476 0.0000 0.0000 0.0000
# 2 28.5848 31.2746 9.8938 0.0000 0.0000 0.0000
# 3 27.8476 9.8938 65.1234 0.0000 0.0000 0.0000
# 4 0.0000 0.0000 0.0000 15.4934 0.0000 0.0000
# 5 0.0000 0.0000 0.0000 0.0000 -1.1138 0.0000
# 6 0.0000 0.0000 0.0000 0.0000 0.0000 6.7934
#
#
#
# Elastic Compliance Matrix: (Units=1/GPa)
#
#
# Indices 1 2 3 4 5 6 
#
# 1 0.014968 -0.012244 -0.004540 0.000000 0.000000 0.000000
# 2 -0.012244 0.043605 -0.001389 0.000000 0.000000 0.000000
# 3 -0.004540 -0.001389 0.017508 0.000000 0.000000 0.000000
# 4 0.000000 0.000000 0.000000 0.064543 0.000000 0.000000
# 5 0.000000 0.000000 0.000000 0.000000 -0.897835 0.000000
# 6 0.000000 0.000000 0.000000 0.000000 0.000000 0.147201
#
#
# Mechanical properties :
#
#
# Convention : Reuss Voigt Hill
#
# Bulk Modulus (GPa) = 25.16710 36.41017 30.78864
# Shear Modulus (GPa) = -8.92190 12.81549 1.94679
#
# Velocity S-wave (km/s) = -2.31541 2.77502 1.08158
# Velocity P-wave (km/s) = 2.82393 5.66977 4.47889
#
# Compressibility (1/GPa) = 0.03973442
#
# Stress axis : x y z
#
# Youngs Moduli (GPa) = 66.81092 22.93302 57.11697
#
# Poissons Ratio (x) = 0.28079 0.25932
# Poissons Ratio (y) = 0.81803 0.07933
# Poissons Ratio (z) = 0.30333 0.03185
#
# Static dielectric constant tensor:
#      x y z
#    x 1.584430 0.000000 0.000000 
#    y 0.000000 1.520340 0.000000 
#    z 0.000000 0.000000 1.571730 
# 
# From -- ./inp_files/30230.got.cif
#   From: 2010.05.17/outbox.cif.g08.bks.cpg/sg71_16_cif.got.tgz:30230.got - 2010.06.03 16:22:01.
