data_PCOD9518192
_publ_section_title
;
Structure prediction by ZEFSAII (Michael W. Deem and Ramdas Pophale) SiO2 
 PCOD9518192
Probable space group: I M M M
;
_chemical_formula_sum "Si O2"
_cell_formula_units_Z 104
_cell_length_a 7.454964
_cell_length_b 20.271920
_cell_length_c 31.600938
_cell_angle_alpha 90.000000
_cell_angle_beta 90.000000
_cell_angle_gamma 90.000000
_cell_volume 4775.737065
_symmetry_space_group_name_H-M "I M M M"
_symmetry_group_IT_number 71
_symmetry_cell_setting 'orthorhombic'
loop_
_space_group_symop_operation_xyz
x,y,z
-x,-y,z
x,-y,-z
-x,y,-z
-x,-y,-z
x,y,-z
-x,y,z
x,-y,z
1/2+x,1/2+y,1/2+z
1/2-x,1/2-y,1/2+z
1/2+x,1/2-y,1/2-z
1/2-x,1/2+y,1/2-z
1/2-x,1/2-y,1/2-z
1/2+x,1/2+y,1/2-z
1/2-x,1/2+y,1/2+z
1/2+x,1/2-y,1/2+z
loop_
_atom_site_type_symbol
_atom_site_label
_atom_site_fract_x
_atom_site_fract_y
_atom_site_fract_z
Si Si1 0.207532 0.876708 0.315906
Si Si2 0.781166 0.000000 0.259350
Si Si3 0.805337 0.766122 0.797642
Si Si4 0.299133 0.000000 0.450923
Si Si5 0.219878 0.142157 0.127479
Si Si6 0.780911 0.230945 0.950627
Si Si7 0.782422 0.629308 0.910741
Si Si8 0.718194 0.500000 0.660887
O O1 0.275076 0.934054 0.284758
O O2 0.308193 0.807343 0.315673
O O3 0.219541 0.894359 0.364759
O O4 0.000000 0.863535 0.304547
O O5 0.725269 0.000000 0.210356
O O6 0.000000 0.000000 0.260636
O O7 0.750000 0.750000 0.750000
O O8 0.715120 0.812520 0.832790
O O9 0.000000 0.797407 0.792818
O O10 0.217425 0.930406 0.439445
O O11 0.500000 0.000000 0.430549
O O12 0.320808 0.000000 0.500000
O O13 0.274899 0.173699 0.082545
O O14 0.000000 0.144673 0.127069
O O15 0.273500 0.067196 0.137453
O O16 0.722956 0.299890 0.928678
O O17 0.000000 0.230949 0.951549
O O18 0.723948 0.225270 0.000000
O O19 0.000000 0.633941 0.910431
O O20 0.500000 0.500000 0.661711
#
# Coordination Sequence:
#
# PCOD9518192 Si02
#       8
#    16   8  16   8  16  16  16   8
#     4  11  21  34  52  75 104 141 182 222 263 316
#     4   9  19  33  48  71 103 142 185 217 261 320
#     4  11  21  35  54  79 109 140 178 220 265 319
#     4   9  17  28  47  75 101 135 184 227 264 317
#     4   9  17  30  49  74 102 133 173 214 259 316
#     4   9  16  28  48  73 102 136 171 213 266 318
#     4  10  18  31  49  73 105 138 175 220 268 318
#     4   9  16  29  48  68  97 135 168 207 257 313
#
# _framework density 21.776743
#
# number of rings (size 3 to 8) (size 9 to 14) (size 15 to 20)
#    0.000    2.231    1.538    2.769    0.000    4.308 
#    0.000    1.538    0.000    4.615    0.000    1.615 
#    0.000    0.000    0.000    1.385    0.000    1.538 
#
# Total GULP energy -289844.103288 kJ/mol
# GULP energy per Si atom -5573.925063 kJ/mol
# Density = 2.172718 g / cm^3
# Si number density = 21.776743 Si / 1000 Ang^3
#
#
#
# Elastic Constant Matrix: (Units=GPa)
#
#
# Indices 1 2 3 4 5 6 
#
# 1 64.1992 0.9411 1.3761 0.0000 0.0000 0.0000
# 2 0.9411 183.1720 89.2184 0.0000 0.0000 0.0000
# 3 1.3761 89.2184 162.0289 0.0000 0.0000 0.0000
# 4 0.0000 0.0000 0.0000 20.6706 0.0000 0.0000
# 5 0.0000 0.0000 0.0000 0.0000 11.8532 0.0000
# 6 0.0000 0.0000 0.0000 0.0000 0.0000 -3.2285
#
#
#
# Elastic Compliance Matrix: (Units=1/GPa)
#
#
# Indices 1 2 3 4 5 6 
#
# 1 0.015579 -0.000021 -0.000121 0.000000 0.000000 0.000000
# 2 -0.000021 0.007460 -0.004108 0.000000 0.000000 0.000000
# 3 -0.000121 -0.004108 0.008435 0.000000 0.000000 0.000000
# 4 0.000000 0.000000 0.000000 0.048378 0.000000 0.000000
# 5 0.000000 0.000000 0.000000 0.000000 0.084366 0.000000
# 6 0.000000 0.000000 0.000000 0.000000 0.000000 -0.309739
#
#
# Mechanical properties :
#
#
# Convention : Reuss Voigt Hill
#
# Bulk Modulus (GPa) = 43.52536 65.83012 54.67774
# Shear Modulus (GPa) = -38.65073 27.05002 -5.80036
#
# Velocity S-wave (km/s) = -4.21748 3.52824 -1.63381
# Velocity P-wave (km/s) = 1.91983 6.84786 4.64798
#
# Compressibility (1/GPa) = 0.02297511
#
# Stress axis : x y z
#
# Youngs Moduli (GPa) = 64.18725 134.04495 118.55979
#
# Poissons Ratio (x) = 0.00286 0.01430
# Poissons Ratio (y) = 0.00137 0.48700
# Poissons Ratio (z) = 0.00774 0.55061
#
# Static dielectric constant tensor:
#      x y z
#    x 1.965480 0.000000 0.000000 
#    y 0.000000 1.792420 0.000000 
#    z 0.000000 0.000000 1.576910 
# 
# From -- ./inp_files/68324.got.cif
#   From: 2010.05.17/outbox.cif.g08.bks.cpg/sg71_35_cif.got.tgz:68324.got - 2010.06.03 16:22:01.
