data_PCOD9518604
_publ_section_title
;
Structure prediction by ZEFSAII (Michael W. Deem and Ramdas Pophale) SiO2 
 PCOD9518604
Probable space group: I M M M
;
_chemical_formula_sum "Si O2"
_cell_formula_units_Z 112
_cell_length_a 33.907104
_cell_length_b 17.903840
_cell_length_c 13.274230
_cell_angle_alpha 90.000000
_cell_angle_beta 90.000000
_cell_angle_gamma 90.000000
_cell_volume 8058.351827
_symmetry_space_group_name_H-M "I M M M"
_symmetry_group_IT_number 71
_symmetry_cell_setting 'orthorhombic'
loop_
_space_group_symop_operation_xyz
x,y,z
-x,-y,z
x,-y,-z
-x,y,-z
-x,-y,-z
x,y,-z
-x,y,z
x,-y,z
1/2+x,1/2+y,1/2+z
1/2-x,1/2-y,1/2+z
1/2+x,1/2-y,1/2-z
1/2-x,1/2+y,1/2-z
1/2-x,1/2-y,1/2-z
1/2+x,1/2+y,1/2-z
1/2-x,1/2+y,1/2+z
1/2+x,1/2-y,1/2+z
loop_
_atom_site_type_symbol
_atom_site_label
_atom_site_fract_x
_atom_site_fract_y
_atom_site_fract_z
Si Si1 0.544347 0.589661 0.828522
Si Si2 0.375034 0.655415 0.883505
Si Si3 0.336641 0.412759 0.617863
Si Si4 0.928665 0.910059 0.109865
Si Si5 0.231306 0.331751 0.121743
Si Si6 0.665112 0.500000 0.878077
Si Si7 0.755729 0.500000 0.878633
Si Si8 0.691125 0.711865 0.240484
O O1 0.500000 0.602268 0.865577
O O2 0.552887 0.500000 0.842795
O O3 0.578389 0.640990 0.874861
O O4 0.546794 0.606981 0.709028
O O5 0.357093 0.575255 0.849171
O O6 0.351285 0.713830 0.815040
O O7 0.364936 0.667982 0.000000
O O8 0.326311 0.407139 0.500000
O O9 0.333981 0.500000 0.646003
O O10 0.382802 0.389341 0.625801
O O11 0.310437 0.358243 0.683515
O O12 0.928797 0.000000 0.103936
O O13 0.941933 0.881816 0.000000
O O14 0.226565 0.419582 0.148731
O O15 0.275059 0.305145 0.157472
O O16 0.202311 0.282051 0.190117
O O17 0.227081 0.322670 0.000000
O O18 0.710191 0.500000 0.845604
O O19 0.664919 0.500000 0.000000
O O20 0.755126 0.500000 0.000000
#
# Coordination Sequence:
#
# PCOD9518604 Si02
#       8
#    16  16  16  16  16   8   8  16
#     4  10  19  28  39  59  87 118 154 194 232 261
#     4  11  20  30  44  62  83 115 157 194 224 259
#     4   9  17  27  41  61  84 111 146 187 223 257
#     4   8  14  25  39  54  74 104 145 187 221 256
#     4  10  21  33  45  67  90 111 143 187 232 272
#     4   9  16  26  43  60  77 107 153 194 214 248
#     4   9  16  30  48  63  84 111 142 182 227 268
#     4  11  20  29  47  65  84 116 147 190 229 262
#
# _framework density 13.898624
#
# number of rings (size 3 to 8) (size 9 to 14) (size 15 to 20)
#    0.000    2.286    3.571    1.714    2.000    0.571 
#    0.000    2.143    0.000    0.000    0.000    0.000 
#    0.000    0.000    0.000    0.643    0.000    5.643 
#
# Total GULP energy -311891.564806 kJ/mol
# GULP energy per Si atom -5569.492229 kJ/mol
# Density = 1.386699 g / cm^3
# Si number density = 13.898624 Si / 1000 Ang^3
#
#
#
# Elastic Constant Matrix: (Units=GPa)
#
#
# Indices 1 2 3 4 5 6 
#
# 1 66.2808 30.8643 26.7907 0.0000 0.0000 0.0000
# 2 30.8643 58.5143 27.6989 0.0000 0.0000 0.0000
# 3 26.7907 27.6989 69.7832 0.0000 0.0000 0.0000
# 4 0.0000 0.0000 0.0000 16.7336 0.0000 0.0000
# 5 0.0000 0.0000 0.0000 0.0000 12.7677 0.0000
# 6 0.0000 0.0000 0.0000 0.0000 0.0000 17.0435
#
#
#
# Elastic Compliance Matrix: (Units=1/GPa)
#
#
# Indices 1 2 3 4 5 6 
#
# 1 0.021105 -0.008985 -0.004536 0.000000 0.000000 0.000000
# 2 -0.008985 0.024869 -0.006422 0.000000 0.000000 0.000000
# 3 -0.004536 -0.006422 0.018621 0.000000 0.000000 0.000000
# 4 0.000000 0.000000 0.000000 0.059760 0.000000 0.000000
# 5 0.000000 0.000000 0.000000 0.000000 0.078323 0.000000
# 6 0.000000 0.000000 0.000000 0.000000 0.000000 0.058673
#
#
# Mechanical properties :
#
#
# Convention : Reuss Voigt Hill
#
# Bulk Modulus (GPa) = 40.47131 40.58735 40.52933
# Shear Modulus (GPa) = 16.15656 16.59058 16.37357
#
# Velocity S-wave (km/s) = 3.41318 3.45872 3.43603
# Velocity P-wave (km/s) = 6.68695 6.72430 6.70565
#
# Compressibility (1/GPa) = 0.02470886
#
# Stress axis : x y z
#
# Youngs Moduli (GPa) = 47.38299 40.21092 53.70419
#
# Poissons Ratio (x) = 0.36128 0.24360
# Poissons Ratio (y) = 0.42572 0.34488
# Poissons Ratio (z) = 0.21493 0.25823
#
# Static dielectric constant tensor:
#      x y z
#    x 1.479600 0.000000 0.000000 
#    y 0.000000 1.440250 0.000000 
#    z 0.000000 0.000000 1.522520 
# 
# From -- ./inp_files/41230.got.cif
#   From: 2010.05.17/outbox.cif.g08.bks.cpg/sg71_21_cif.got.tgz:41230.got - 2010.06.03 16:22:01.
