data_PCOD9518131
_publ_section_title
;
Structure prediction by ZEFSAII (Michael W. Deem and Ramdas Pophale) SiO2 
 PCOD9518131
Probable space group: I M M M
;
_chemical_formula_sum "Si O2"
_cell_formula_units_Z 104
_cell_length_a 7.617813
_cell_length_b 21.260146
_cell_length_c 31.362434
_cell_angle_alpha 90.000000
_cell_angle_beta 90.000000
_cell_angle_gamma 90.000000
_cell_volume 5079.328608
_symmetry_space_group_name_H-M "I M M M"
_symmetry_group_IT_number 71
_symmetry_cell_setting 'orthorhombic'
loop_
_space_group_symop_operation_xyz
x,y,z
-x,-y,z
x,-y,-z
-x,y,-z
-x,-y,-z
x,y,-z
-x,y,z
x,-y,z
1/2+x,1/2+y,1/2+z
1/2-x,1/2-y,1/2+z
1/2+x,1/2-y,1/2-z
1/2-x,1/2+y,1/2-z
1/2-x,1/2-y,1/2-z
1/2+x,1/2+y,1/2-z
1/2-x,1/2+y,1/2+z
1/2+x,1/2-y,1/2+z
loop_
_atom_site_type_symbol
_atom_site_label
_atom_site_fract_x
_atom_site_fract_y
_atom_site_fract_z
Si Si1 0.286981 0.641264 0.130862
Si Si2 0.203603 0.787032 0.868793
Si Si3 0.291009 0.136805 0.951745
Si Si4 0.211727 0.814418 0.775855
Si Si5 0.214553 0.071578 0.716640
Si Si6 0.700553 0.000000 0.948307
Si Si7 0.285926 0.572821 0.953374
O O1 0.500000 0.642443 0.130863
O O2 0.224835 0.712294 0.134822
O O3 0.232843 0.597579 0.170228
O O4 0.224747 0.612794 0.086316
O O5 0.268911 0.813339 0.913980
O O6 0.281563 0.812642 0.824280
O O7 0.000000 0.803672 0.868570
O O8 0.500000 0.128035 0.956020
O O9 0.218541 0.067970 0.937794
O O10 0.226606 0.152984 0.000000
O O11 0.250000 0.750000 0.750000
O O12 0.273457 0.875840 0.750331
O O13 0.000000 0.817689 0.777722
O O14 0.000000 0.070887 0.717332
O O15 0.272815 0.000000 0.723985
O O16 0.500000 0.000000 0.931484
O O17 0.693460 0.000000 0.000000
O O18 0.500000 0.573762 0.952876
O O19 0.234519 0.500000 0.948904
O O20 0.229798 0.595711 0.000000
#
# Coordination Sequence:
#
# PCOD9518131 Si02
#       7
#    16  16  16  16  16   8  16
#     4  10  18  30  52  76  97 133 180 218 256 310
#     4  11  23  35  49  76 111 144 175 211 260 317
#     4   9  18  35  59  82 104 135 177 220 261 312
#     4  10  20  36  56  77 104 142 180 218 266 319
#     4   9  17  31  54  80 100 126 175 232 274 312
#     4   7  12  28  55  81 101 127 169 219 263 303
#     4   8  14  25  43  71 103 126 154 209 267 304
#
# _framework density 20.475145999999999
#
# number of rings (size 3 to 8) (size 9 to 14) (size 15 to 20)
#    0.000    2.692    1.538    2.308    0.000    3.385 
#    1.385    1.923    0.000    4.615    0.000    1.077 
#    0.000    0.000    0.000    0.000    0.000    0.000 
#
# Total GULP energy -289923.182268 kJ/mol
# GULP energy per Si atom -5575.445813 kJ/mol
# Density = 2.042854 g / cm^3
# Si number density = 20.475146 Si / 1000 Ang^3
#
#
#
# Elastic Constant Matrix: (Units=GPa)
#
#
# Indices 1 2 3 4 5 6 
#
# 1 41.0212 -3.5121 6.5847 0.0000 0.0000 0.0000
# 2 -3.5121 138.5937 85.5344 0.0000 0.0000 0.0000
# 3 6.5847 85.5344 171.2332 0.0000 0.0000 0.0000
# 4 0.0000 0.0000 0.0000 42.3715 0.0000 0.0000
# 5 0.0000 0.0000 0.0000 0.0000 5.6174 0.0000
# 6 0.0000 0.0000 0.0000 0.0000 0.0000 28.9586
#
#
#
# Elastic Compliance Matrix: (Units=1/GPa)
#
#
# Indices 1 2 3 4 5 6 
#
# 1 0.024823 0.001761 -0.001834 0.000000 0.000000 0.000000
# 2 0.001761 0.010556 -0.005341 0.000000 0.000000 0.000000
# 3 -0.001834 -0.005341 0.008578 0.000000 0.000000 0.000000
# 4 0.000000 0.000000 0.000000 0.023601 0.000000 0.000000
# 5 0.000000 0.000000 0.000000 0.000000 0.178017 0.000000
# 6 0.000000 0.000000 0.000000 0.000000 0.000000 0.034532
#
#
# Mechanical properties :
#
#
# Convention : Reuss Voigt Hill
#
# Bulk Modulus (GPa) = 30.18463 58.67357 44.42910
# Shear Modulus (GPa) = 16.55749 32.87225 24.71487
#
# Velocity S-wave (km/s) = 2.84678 4.01118 3.47806
# Velocity P-wave (km/s) = 5.05763 7.08315 6.15429
#
# Compressibility (1/GPa) = 0.03312944
#
# Stress axis : x y z
#
# Youngs Moduli (GPa) = 40.28552 94.73283 116.57338
#
# Poissons Ratio (x) = -0.16683 0.21382
# Poissons Ratio (y) = -0.07094 0.62258
# Poissons Ratio (z) = 0.07389 0.50594
#
# Static dielectric constant tensor:
#      x y z
#    x 1.785950 0.000000 0.000000 
#    y 0.000000 1.707550 0.000000 
#    z 0.000000 0.000000 1.735970 
# 
# From -- ./inp_files/51165.got.cif
#   From: 2010.05.17/outbox.cif.g08.bks.cpg/sg71_26_cif.got.tgz:51165.got - 2010.06.03 16:22:01.
