data_PCOD9518740
_publ_section_title
;
Structure prediction by ZEFSAII (Michael W. Deem and Ramdas Pophale) SiO2 
 PCOD9518740
Probable space group: I M M M
;
_chemical_formula_sum "Si O2"
_cell_formula_units_Z 128
_cell_length_a 20.594912
_cell_length_b 19.132699
_cell_length_c 19.125001
_cell_angle_alpha 90.000000
_cell_angle_beta 90.000000
_cell_angle_gamma 90.000000
_cell_volume 7535.943718
_symmetry_space_group_name_H-M "I M M M"
_symmetry_group_IT_number 71
_symmetry_cell_setting 'orthorhombic'
loop_
_space_group_symop_operation_xyz
x,y,z
-x,-y,z
x,-y,-z
-x,y,-z
-x,-y,-z
x,y,-z
-x,y,z
x,-y,z
1/2+x,1/2+y,1/2+z
1/2-x,1/2-y,1/2+z
1/2+x,1/2-y,1/2-z
1/2-x,1/2+y,1/2-z
1/2-x,1/2-y,1/2-z
1/2+x,1/2+y,1/2-z
1/2-x,1/2+y,1/2+z
1/2+x,1/2-y,1/2+z
loop_
_atom_site_type_symbol
_atom_site_label
_atom_site_fract_x
_atom_site_fract_y
_atom_site_fract_z
Si Si1 0.810384 0.337471 0.921818
Si Si2 0.716481 0.919472 0.290682
Si Si3 0.924048 0.917690 0.829098
Si Si4 0.327189 0.677643 0.583447
Si Si5 0.842878 0.801855 0.420396
Si Si6 0.929010 0.583734 0.419217
Si Si7 0.371111 0.420181 0.176762
Si Si8 0.186778 0.661103 0.347916
O O1 0.818776 0.394470 0.861611
O O2 0.837699 0.260599 0.903304
O O3 0.732559 0.324962 0.925472
O O4 0.832247 0.357416 0.000000
O O5 0.794301 0.917490 0.303327
O O6 0.700129 0.863199 0.230900
O O7 0.700224 0.000000 0.271994
O O8 0.879323 0.869525 0.877086
O O9 0.909372 0.902721 0.747590
O O10 0.000000 0.907737 0.843883
O O11 0.908044 0.000000 0.839784
O O12 0.328888 0.667645 0.500000
O O13 0.255549 0.658199 0.611733
O O14 0.863070 0.783387 0.500000
O O15 0.881259 0.865595 0.385500
O O16 0.841453 0.737555 0.366196
O O17 0.923260 0.606260 0.500000
O O18 0.929591 0.500000 0.418518
O O19 0.867361 0.609860 0.377931
O O20 0.000000 0.607888 0.392821
O O21 0.386159 0.500000 0.156538
#
# Coordination Sequence:
#
# PCOD9518740 Si02
#       8
#    16  16  16  16  16  16  16  16
#     4   8  17  32  49  73 104 135 167 212 265 311
#     4  10  19  29  49  79 104 134 175 212 254 306
#     4  10  21  36  52  72 104 142 178 219 268 317
#     4  10  20  33  53  77 102 135 176 217 262 315
#     4   9  18  30  49  77 103 134 171 208 258 310
#     4   9  18  32  48  66  95 138 174 199 242 299
#     4   9  18  33  51  72  99 133 174 218 261 305
#     4  11  19  30  51  77 109 133 166 213 255 307
#
# _framework density 16.985264999999998
#
# number of rings (size 3 to 8) (size 9 to 14) (size 15 to 20)
#    0.000    2.500    1.250    2.625    1.750    3.000 
#    0.000    3.750    0.000    1.125    0.000    1.750 
#    0.000    0.000    0.000    5.375    0.000    2.000 
#
# Total GULP energy -356482.525474 kJ/mol
# GULP energy per Si atom -5570.039461 kJ/mol
# Density = 1.694661 g / cm^3
# Si number density = 16.985265 Si / 1000 Ang^3
#
#
#
# Elastic Constant Matrix: (Units=GPa)
#
#
# Indices 1 2 3 4 5 6 
#
# 1 39.9740 14.2535 8.0918 0.0000 0.0000 0.0000
# 2 14.2535 60.9769 44.6038 0.0000 0.0000 0.0000
# 3 8.0918 44.6038 69.7313 0.0000 0.0000 0.0000
# 4 0.0000 0.0000 0.0000 27.0000 0.0000 0.0000
# 5 0.0000 0.0000 0.0000 0.0000 4.5254 0.0000
# 6 0.0000 0.0000 0.0000 0.0000 0.0000 9.2828
#
#
#
# Elastic Compliance Matrix: (Units=1/GPa)
#
#
# Indices 1 2 3 4 5 6 
#
# 1 0.027401 -0.007666 0.001724 0.000000 0.000000 0.000000
# 2 -0.007666 0.032965 -0.020197 0.000000 0.000000 0.000000
# 3 0.001724 -0.020197 0.027060 0.000000 0.000000 0.000000
# 4 0.000000 0.000000 0.000000 0.037037 0.000000 0.000000
# 5 0.000000 0.000000 0.000000 0.000000 0.220977 0.000000
# 6 0.000000 0.000000 0.000000 0.000000 0.000000 0.107726
#
#
# Mechanical properties :
#
#
# Convention : Reuss Voigt Hill
#
# Bulk Modulus (GPa) = 28.45111 33.84224 31.14667
# Shear Modulus (GPa) = 9.66821 15.07718 12.37270
#
# Velocity S-wave (km/s) = 2.38840 2.98260 2.70189
# Velocity P-wave (km/s) = 4.93891 5.64171 5.30197
#
# Compressibility (1/GPa) = 0.03514802
#
# Stress axis : x y z
#
# Youngs Moduli (GPa) = 36.49535 30.33508 36.95553
#
# Poissons Ratio (x) = 0.23255 -0.06371
# Poissons Ratio (y) = 0.27977 0.74638
# Poissons Ratio (z) = -0.06292 0.61267
#
# Static dielectric constant tensor:
#      x y z
#    x 1.550300 0.000000 0.000000 
#    y 0.000000 1.599370 0.000000 
#    z 0.000000 0.000000 1.586470 
# 
# From -- ./inp_files/47724.got.cif
#   From: 2010.05.17/outbox.cif.g08.bks.cpg/sg71_24_cif.got.tgz:47724.got - 2010.06.03 16:22:01.
