data_PCOD9518069
_publ_section_title
;
Structure prediction by ZEFSAII (Michael W. Deem and Ramdas Pophale) SiO2 
 PCOD9518069
Probable space group: I M M M
;
_chemical_formula_sum "Si O2"
_cell_formula_units_Z 104
_cell_length_a 14.188180
_cell_length_b 19.719445
_cell_length_c 23.683340
_cell_angle_alpha 90.000000
_cell_angle_beta 90.000000
_cell_angle_gamma 90.000000
_cell_volume 6626.196748
_symmetry_space_group_name_H-M "I M M M"
_symmetry_group_IT_number 71
_symmetry_cell_setting 'orthorhombic'
loop_
_space_group_symop_operation_xyz
x,y,z
-x,-y,z
x,-y,-z
-x,y,-z
-x,-y,-z
x,y,-z
-x,y,z
x,-y,z
1/2+x,1/2+y,1/2+z
1/2-x,1/2-y,1/2+z
1/2+x,1/2-y,1/2-z
1/2-x,1/2+y,1/2-z
1/2-x,1/2-y,1/2-z
1/2+x,1/2+y,1/2-z
1/2-x,1/2+y,1/2+z
1/2+x,1/2-y,1/2+z
loop_
_atom_site_type_symbol
_atom_site_label
_atom_site_fract_x
_atom_site_fract_y
_atom_site_fract_z
Si Si1 0.385217 0.676430 0.061510
Si Si2 0.774001 0.081718 0.888558
Si Si3 0.607373 0.786846 0.763515
Si Si4 0.892706 0.082167 0.000000
Si Si5 0.107420 0.681934 0.396122
Si Si6 0.199011 0.143249 0.765623
Si Si7 0.887155 0.076749 0.340314
O O1 0.500000 0.677395 0.064030
O O2 0.355357 0.754359 0.068384
O O3 0.352763 0.630034 0.112951
O O4 0.357944 0.649925 0.000000
O O5 0.673046 0.116745 0.899225
O O6 0.807080 0.113326 0.828705
O O7 0.769000 0.000000 0.884442
O O8 0.839169 0.100587 0.942097
O O9 0.500000 0.802156 0.744963
O O10 0.606098 0.789251 0.831899
O O11 0.692334 0.838540 0.750110
O O12 0.640523 0.713357 0.741424
O O13 0.000000 0.107231 0.000000
O O14 0.895180 0.000000 0.000000
O O15 0.000000 0.666416 0.412380
O O16 0.158709 0.092056 0.719658
O O17 0.000000 0.085136 0.334554
O O18 0.868961 0.000000 0.358696
#
# Coordination Sequence:
#
# PCOD9518069 Si02
#       7
#    16  16  16   8  16  16  16
#     4   9  17  29  46  68  97 130 157 182 222 281
#     4  10  21  34  49  70  93 123 163 200 240 289
#     4   9  17  30  48  71  98 127 160 195 240 289
#     4   9  20  38  51  61  89 127 159 198 244 284
#     4   9  17  31  50  71  98 128 156 191 235 283
#     4  10  18  30  50  71  96 126 158 201 245 280
#     4  10  19  30  47  72 101 128 155 192 234 281
#
# _framework density 15.695278
#
# number of rings (size 3 to 8) (size 9 to 14) (size 15 to 20)
#    0.000    2.538    1.538    0.923    1.077    1.846 
#    0.000    3.077    0.000    2.769    0.000    0.000 
#    0.000    0.000    0.000    1.385    0.000    0.154 
#
# Total GULP energy -289542.269190 kJ/mol
# GULP energy per Si atom -5568.120561 kJ/mol
# Density = 1.565955 g / cm^3
# Si number density = 15.695278 Si / 1000 Ang^3
#
#
#
# Elastic Constant Matrix: (Units=GPa)
#
#
# Indices 1 2 3 4 5 6 
#
# 1 62.9116 39.2538 33.0987 0.0000 0.0000 0.0000
# 2 39.2538 67.3166 36.6263 0.0000 0.0000 0.0000
# 3 33.0987 36.6263 75.8552 0.0000 0.0000 0.0000
# 4 0.0000 0.0000 0.0000 17.4961 0.0000 0.0000
# 5 0.0000 0.0000 0.0000 0.0000 14.2451 0.0000
# 6 0.0000 0.0000 0.0000 0.0000 0.0000 15.1930
#
#
#
# Elastic Compliance Matrix: (Units=1/GPa)
#
#
# Indices 1 2 3 4 5 6 
#
# 1 0.026626 -0.012485 -0.005590 0.000000 0.000000 0.000000
# 2 -0.012485 0.026003 -0.007108 0.000000 0.000000 0.000000
# 3 -0.005590 -0.007108 0.019054 0.000000 0.000000 0.000000
# 4 0.000000 0.000000 0.000000 0.057155 0.000000 0.000000
# 5 0.000000 0.000000 0.000000 0.000000 0.070200 0.000000
# 6 0.000000 0.000000 0.000000 0.000000 0.000000 0.065820
#
#
# Mechanical properties :
#
#
# Convention : Reuss Voigt Hill
#
# Bulk Modulus (GPa) = 46.90844 47.11565 47.01205
# Shear Modulus (GPa) = 15.51213 15.86047 15.68630
#
# Velocity S-wave (km/s) = 3.14718 3.18232 3.16480
# Velocity P-wave (km/s) = 6.56949 6.60205 6.58579
#
# Compressibility (1/GPa) = 0.02131813
#
# Stress axis : x y z
#
# Youngs Moduli (GPa) = 37.55700 38.45768 52.48271
#
# Poissons Ratio (x) = 0.48014 0.29337
# Poissons Ratio (y) = 0.46890 0.37302
# Poissons Ratio (z) = 0.20993 0.27334
#
# Static dielectric constant tensor:
#      x y z
#    x 1.526300 0.000000 0.000000 
#    y 0.000000 1.524390 0.000000 
#    z 0.000000 0.000000 1.529650 
# 
# From -- ./inp_files/60080.got.cif
#   From: 2010.05.17/outbox.cif.g08.bks.cpg/sg71_31_cif.got.tgz:60080.got - 2010.06.03 16:22:01.
