data_PCOD9518608
_publ_section_title
;
Structure prediction by ZEFSAII (Michael W. Deem and Ramdas Pophale) SiO2 
 PCOD9518608
Probable space group: I M M M
;
_chemical_formula_sum "Si O2"
_cell_formula_units_Z 80
_cell_length_a 25.961350
_cell_length_b 8.440734
_cell_length_c 20.516108
_cell_angle_alpha 90.000000
_cell_angle_beta 90.000000
_cell_angle_gamma 90.000000
_cell_volume 4495.753209
_symmetry_space_group_name_H-M "I M M M"
_symmetry_group_IT_number 71
_symmetry_cell_setting 'orthorhombic'
loop_
_space_group_symop_operation_xyz
x,y,z
-x,-y,z
x,-y,-z
-x,y,-z
-x,-y,-z
x,y,-z
-x,y,z
x,-y,z
1/2+x,1/2+y,1/2+z
1/2-x,1/2-y,1/2+z
1/2+x,1/2-y,1/2-z
1/2-x,1/2+y,1/2-z
1/2-x,1/2-y,1/2-z
1/2+x,1/2+y,1/2-z
1/2-x,1/2+y,1/2+z
1/2+x,1/2-y,1/2+z
loop_
_atom_site_type_symbol
_atom_site_label
_atom_site_fract_x
_atom_site_fract_y
_atom_site_fract_z
Si Si1 0.241741 0.818915 0.000000
Si Si2 0.669024 0.811431 0.247687
Si Si3 0.942782 0.183611 0.744857
Si Si4 0.257100 0.691740 0.354144
Si Si5 0.134632 0.315424 0.000000
Si Si6 0.556884 0.181035 0.383740
O O1 0.253322 0.749117 0.071986
O O2 0.180157 0.808127 0.000000
O O3 0.260969 0.000000 0.000000
O O4 0.611466 0.762894 0.226688
O O5 0.690690 0.746570 0.317080
O O6 0.710369 0.758347 0.193224
O O7 0.671163 0.000000 0.252274
O O8 0.941549 0.202814 0.823122
O O9 0.000000 0.247367 0.724807
O O10 0.941099 0.000000 0.726313
O O11 0.258890 0.500000 0.356949
O O12 0.099612 0.293205 0.937033
O O13 0.153214 0.500000 0.000000
O O14 0.500000 0.189922 0.414048
O O15 0.562797 0.000000 0.357837
#
# Coordination Sequence:
#
# PCOD9518608 Si02
#       6
#     8  16  16  16   8  16
#     4  10  20  33  47  65  91 121 152 187 229 276
#     4  10  19  32  51  73  96 124 158 195 234 277
#     4  10  20  32  46  66  92 120 151 190 234 278
#     4   9  19  34  51  71  96 126 158 193 234 279
#     4  10  19  28  40  60  86 117 153 190 225 263
#     4   9  17  29  43  59  83 117 155 192 227 263
#
# _framework density 17.794571000000001
#
# number of rings (size 3 to 8) (size 9 to 14) (size 15 to 20)
#    0.000    2.400    0.000    2.700    0.000    8.000 
#    0.000    0.000    0.000    3.000    0.000    0.700 
#    0.000    5.600    0.000    0.000    0.000    0.000 
#
# Total GULP energy -222720.472907 kJ/mol
# GULP energy per Si atom -5568.011823 kJ/mol
# Density = 1.775407 g / cm^3
# Si number density = 17.794571 Si / 1000 Ang^3
#
#
#
# Elastic Constant Matrix: (Units=GPa)
#
#
# Indices 1 2 3 4 5 6 
#
# 1 100.1840 9.5627 26.3186 0.0000 0.0000 0.0000
# 2 9.5627 12.7862 7.1831 0.0000 0.0000 0.0000
# 3 26.3186 7.1831 83.5071 0.0000 0.0000 0.0000
# 4 0.0000 0.0000 0.0000 14.9624 0.0000 0.0000
# 5 0.0000 0.0000 0.0000 0.0000 19.2100 0.0000
# 6 0.0000 0.0000 0.0000 0.0000 0.0000 25.1768
#
#
#
# Elastic Compliance Matrix: (Units=1/GPa)
#
#
# Indices 1 2 3 4 5 6 
#
# 1 0.011427 -0.006854 -0.003012 0.000000 0.000000 0.000000
# 2 -0.006854 0.086292 -0.005262 0.000000 0.000000 0.000000
# 3 -0.003012 -0.005262 0.013377 0.000000 0.000000 0.000000
# 4 0.000000 0.000000 0.000000 0.066834 0.000000 0.000000
# 5 0.000000 0.000000 0.000000 0.000000 0.052056 0.000000
# 6 0.000000 0.000000 0.000000 0.000000 0.000000 0.039719
#
#
# Mechanical properties :
#
#
# Convention : Reuss Voigt Hill
#
# Bulk Modulus (GPa) = 12.37026 31.40067 21.88547
# Shear Modulus (GPa) = 15.29479 22.09737 18.69608
#
# Velocity S-wave (km/s) = 2.93494 3.52775 3.24491
# Velocity P-wave (km/s) = 4.29557 5.85473 5.13468
#
# Compressibility (1/GPa) = 0.08083902
#
# Stress axis : x y z
#
# Youngs Moduli (GPa) = 87.51132 11.58857 74.75556
#
# Poissons Ratio (x) = 0.07943 0.22515
# Poissons Ratio (y) = 0.59982 0.39340
# Poissons Ratio (z) = 0.26357 0.06098
#
# Static dielectric constant tensor:
#      x y z
#    x 1.651550 0.000000 0.000000 
#    y 0.000000 1.645360 0.000000 
#    z 0.000000 0.000000 1.624570 
# 
# From -- ./inp_files/12425.got.cif
#   From: 2010.05.17/outbox.cif.g08.bks.cpg/sg71_7_cif.got.tgz:12425.got - 2010.06.03 16:22:01.
