data_PCOD9518878
_publ_section_title
;
Structure prediction by ZEFSAII (Michael W. Deem and Ramdas Pophale) SiO2 
 PCOD9518878
Probable space group: I M M M
;
_chemical_formula_sum "Si O2"
_cell_formula_units_Z 88
_cell_length_a 18.229815
_cell_length_b 27.813923
_cell_length_c 9.801911
_cell_angle_alpha 90.000000
_cell_angle_beta 90.000000
_cell_angle_gamma 90.000000
_cell_volume 4969.987132
_symmetry_space_group_name_H-M "I M M M"
_symmetry_group_IT_number 71
_symmetry_cell_setting 'orthorhombic'
loop_
_space_group_symop_operation_xyz
x,y,z
-x,-y,z
x,-y,-z
-x,y,-z
-x,-y,-z
x,y,-z
-x,y,z
x,-y,z
1/2+x,1/2+y,1/2+z
1/2-x,1/2-y,1/2+z
1/2+x,1/2-y,1/2-z
1/2-x,1/2+y,1/2-z
1/2-x,1/2-y,1/2-z
1/2+x,1/2+y,1/2-z
1/2-x,1/2+y,1/2+z
1/2+x,1/2-y,1/2+z
loop_
_atom_site_type_symbol
_atom_site_label
_atom_site_fract_x
_atom_site_fract_y
_atom_site_fract_z
Si Si1 0.082463 0.793617 0.335125
Si Si2 0.584376 0.907319 0.206111
Si Si3 0.587118 0.054241 0.500000
Si Si4 0.220796 0.856395 0.664501
Si Si5 0.738352 0.055155 0.151982
Si Si6 0.154442 0.692648 0.340600
O O1 0.078254 0.792368 0.500000
O O2 0.140777 0.834932 0.302591
O O3 0.116062 0.741890 0.296620
O O4 0.000000 0.800310 0.282037
O O5 0.500000 0.921342 0.178121
O O6 0.601375 0.915367 0.365831
O O7 0.650056 0.938175 0.143598
O O8 0.598270 0.852230 0.166289
O O9 0.500000 0.047388 0.500000
O O10 0.620183 0.000000 0.500000
O O11 0.230608 0.857499 0.500000
O O12 0.232611 0.907920 0.735485
O O13 0.279814 0.821963 0.739835
O O14 0.755038 0.000000 0.183594
O O15 0.766796 0.067249 0.000000
O O16 0.178530 0.696859 0.500000
#
# Coordination Sequence:
#
# PCOD9518878 Si02
#       6
#    16  16   8  16  16  16
#     4   9  18  34  56  81 107 136 174 217 261 310
#     4  10  19  30  47  71 101 137 177 217 254 296
#     4   9  18  30  42  60  92 134 171 211 262 296
#     4  10  20  34  56  81 105 137 173 215 263 310
#     4  10  22  37  53  74 101 136 176 220 266 314
#     4  10  20  33  52  77 108 146 177 208 254 307
#
# _framework density 17.706282999999999
#
# number of rings (size 3 to 8) (size 9 to 14) (size 15 to 20)
#    0.000    2.273    0.000    3.818    5.091    3.636 
#    0.000    1.818    0.000    4.909    0.000    3.818 
#    0.000    0.000    0.000    0.000    0.000    0.000 
#
# Total GULP energy -245207.422743 kJ/mol
# GULP energy per Si atom -5572.895971 kJ/mol
# Density = 1.766598 g / cm^3
# Si number density = 17.706283 Si / 1000 Ang^3
#
#
#
# Elastic Constant Matrix: (Units=GPa)
#
#
# Indices 1 2 3 4 5 6 
#
# 1 99.6379 59.5038 46.9557 0.0000 0.0000 0.0000
# 2 59.5038 94.4011 44.8571 0.0000 0.0000 0.0000
# 3 46.9557 44.8571 107.0454 0.0000 0.0000 0.0000
# 4 0.0000 0.0000 0.0000 -5.2960 -0.0001 0.0000
# 5 0.0000 0.0000 0.0000 -0.0001 6.3195 0.0000
# 6 0.0000 0.0000 0.0000 0.0000 0.0000 1.3215
#
#
#
# Elastic Compliance Matrix: (Units=1/GPa)
#
#
# Indices 1 2 3 4 5 6 
#
# 1 0.017223 -0.009073 -0.003753 0.000000 0.000000 0.000000
# 2 -0.009073 0.018006 -0.003566 0.000000 0.000000 0.000000
# 3 -0.003753 -0.003566 0.012482 0.000000 0.000000 0.000000
# 4 0.000000 0.000000 0.000000 -0.188821 -0.000002 0.000000
# 5 0.000000 0.000000 0.000000 -0.000002 0.158241 0.000001
# 6 0.000000 0.000000 0.000000 0.000000 0.000001 0.756711
#
#
# Mechanical properties :
#
#
# Convention : Reuss Voigt Hill
#
# Bulk Modulus (GPa) = 66.98534 67.07975 67.03255
# Shear Modulus (GPa) = 6.16065 10.45351 8.30708
#
# Velocity S-wave (km/s) = 1.86733 2.43242 2.16836
# Velocity P-wave (km/s) = 6.52401 6.77169 6.64901
#
# Compressibility (1/GPa) = 0.01492864
#
# Stress axis : x y z
#
# Youngs Moduli (GPa) = 58.06024 55.53570 80.11362
#
# Poissons Ratio (x) = 0.50388 0.30067
# Poissons Ratio (y) = 0.52679 0.28565
# Poissons Ratio (z) = 0.21790 0.19802
#
# Static dielectric constant tensor:
#      x y z
#    x 1.615470 0.000000 0.000000 
#    y 0.000000 1.609940 0.000000 
#    z 0.000000 0.000000 1.651530 
# 
# From -- ./inp_files/10957.got.cif
#   From: 2010.05.17/outbox.cif.g08.bks.cpg/sg71_6_cif.got.tgz:10957.got - 2010.06.03 16:22:01.
