data_PCOD9518545
_publ_section_title
;
Structure prediction by ZEFSAII (Michael W. Deem and Ramdas Pophale) SiO2 
 PCOD9518545
Probable space group: I M M M
;
_chemical_formula_sum "Si O2"
_cell_formula_units_Z 88
_cell_length_a 17.433269
_cell_length_b 23.243093
_cell_length_c 11.660355
_cell_angle_alpha 90.000000
_cell_angle_beta 90.000000
_cell_angle_gamma 90.000000
_cell_volume 4724.811908
_symmetry_space_group_name_H-M "I M M M"
_symmetry_group_IT_number 71
_symmetry_cell_setting 'orthorhombic'
loop_
_space_group_symop_operation_xyz
x,y,z
-x,-y,z
x,-y,-z
-x,y,-z
-x,-y,-z
x,y,-z
-x,y,z
x,-y,z
1/2+x,1/2+y,1/2+z
1/2-x,1/2-y,1/2+z
1/2+x,1/2-y,1/2-z
1/2-x,1/2+y,1/2-z
1/2-x,1/2-y,1/2-z
1/2+x,1/2+y,1/2-z
1/2-x,1/2+y,1/2+z
1/2+x,1/2-y,1/2+z
loop_
_atom_site_type_symbol
_atom_site_label
_atom_site_fract_x
_atom_site_fract_y
_atom_site_fract_z
Si Si1 0.593126 0.564733 0.500000
Si Si2 0.408475 0.366566 0.272213
Si Si3 0.407674 0.761414 0.362757
Si Si4 0.500000 0.933466 0.863441
Si Si5 0.787700 0.068912 0.635302
Si Si6 0.639052 0.121585 0.270416
Si Si7 0.410832 0.937567 0.500000
O O1 0.622345 0.500000 0.500000
O O2 0.500000 0.563464 0.500000
O O3 0.614949 0.597546 0.385113
O O4 0.500000 0.372122 0.255971
O O5 0.392800 0.300413 0.305253
O O6 0.363038 0.394805 0.167558
O O7 0.388615 0.761376 0.500000
O O8 0.500000 0.772426 0.356254
O O9 0.364016 0.810126 0.289903
O O10 0.577502 0.901392 0.821497
O O11 0.500000 0.000000 0.818719
O O12 0.500000 0.935310 0.000000
O O13 0.767915 0.078979 0.500000
O O14 0.723245 0.093431 0.723408
O O15 0.797307 0.000000 0.650354
O O16 0.606380 0.097652 0.388865
O O17 0.500000 0.946162 0.500000
O O18 0.371598 0.000000 0.500000
#
# Coordination Sequence:
#
# PCOD9518545 Si02
#       7
#     8  16  16   8  16  16   8
#     4   9  16  31  57  85 109 141 196 253 303 365
#     4  10  21  38  60  85 117 162 206 255 314 366
#     4  10  18  34  61  93 121 152 198 251 301 362
#     4  11  24  41  59  85 127 172 207 244 298 369
#     4  11  24  40  59  88 124 158 204 264 316 363
#     4  12  21  37  61  90 121 160 200 249 303 359
#     4  11  18  27  55  91 114 145 197 246 295 346
#
# _framework density 18.625080000000001
#
# number of rings (size 3 to 8) (size 9 to 14) (size 15 to 20)
#    0.000    1.364    4.545    2.182    0.000    2.182 
#    1.636    1.818    0.000    0.000    0.000    0.000 
#    0.000    0.000    0.000    0.000    0.000    0.000 
#
# Total GULP energy -245293.735982 kJ/mol
# GULP energy per Si atom -5574.857636 kJ/mol
# Density = 1.858269 g / cm^3
# Si number density = 18.625080 Si / 1000 Ang^3
#
#
#
# Elastic Constant Matrix: (Units=GPa)
#
#
# Indices 1 2 3 4 5 6 
#
# 1 69.9813 47.1784 27.1873 0.0000 0.0000 0.0000
# 2 47.1784 148.7772 32.5835 0.0000 0.0000 0.0000
# 3 27.1873 32.5835 62.9896 0.0000 0.0000 0.0000
# 4 0.0000 0.0000 0.0000 29.6938 0.0000 0.0000
# 5 0.0000 0.0000 0.0000 0.0000 -8.1701 0.0000
# 6 0.0000 0.0000 0.0000 0.0000 0.0000 27.6480
#
#
#
# Elastic Compliance Matrix: (Units=1/GPa)
#
#
# Indices 1 2 3 4 5 6 
#
# 1 0.020026 -0.005027 -0.006043 0.000000 0.000000 0.000000
# 2 -0.005027 0.008842 -0.002404 0.000000 0.000000 0.000000
# 3 -0.006043 -0.002404 0.019728 0.000000 0.000000 0.000000
# 4 0.000000 0.000000 0.000000 0.033677 0.000000 0.000000
# 5 0.000000 0.000000 0.000000 0.000000 -0.122397 0.000000
# 6 0.000000 0.000000 0.000000 0.000000 0.000000 0.036169
#
#
# Mechanical properties :
#
#
# Convention : Reuss Voigt Hill
#
# Bulk Modulus (GPa) = 46.19535 55.07184 50.63360
# Shear Modulus (GPa) = 165.51037 21.48761 93.49899
#
# Velocity S-wave (km/s) = 9.43701 3.40029 7.09292
# Velocity P-wave (km/s) = 11.98330 6.71184 9.71206
#
# Compressibility (1/GPa) = 0.02164720
#
# Stress axis : x y z
#
# Youngs Moduli (GPa) = 49.93449 113.09567 50.69034
#
# Poissons Ratio (x) = 0.56853 0.30634
# Poissons Ratio (y) = 0.25102 0.12187
# Poissons Ratio (z) = 0.30177 0.27190
#
# Static dielectric constant tensor:
#      x y z
#    x 1.700590 0.000000 0.000000 
#    y 0.000000 1.705080 0.000000 
#    z 0.000000 0.000000 1.620440 
# 
# From -- ./inp_files/23986.got.cif
#   From: 2010.05.17/outbox.cif.g08.bks.cpg/sg71_12_cif.got.tgz:23986.got - 2010.06.03 16:22:01.
