data_PCOD9518226
_publ_section_title
;
Structure prediction by ZEFSAII (Michael W. Deem and Ramdas Pophale) SiO2 
 PCOD9518226
Probable space group: I M M M
;
_chemical_formula_sum "Si O2"
_cell_formula_units_Z 96
_cell_length_a 7.504006
_cell_length_b 26.796336
_cell_length_c 23.935129
_cell_angle_alpha 90.000000
_cell_angle_beta 90.000000
_cell_angle_gamma 90.000000
_cell_volume 4812.872535
_symmetry_space_group_name_H-M "I M M M"
_symmetry_group_IT_number 71
_symmetry_cell_setting 'orthorhombic'
loop_
_space_group_symop_operation_xyz
x,y,z
-x,-y,z
x,-y,-z
-x,y,-z
-x,-y,-z
x,y,-z
-x,y,z
x,-y,z
1/2+x,1/2+y,1/2+z
1/2-x,1/2-y,1/2+z
1/2+x,1/2-y,1/2-z
1/2-x,1/2+y,1/2-z
1/2-x,1/2-y,1/2-z
1/2+x,1/2+y,1/2-z
1/2-x,1/2+y,1/2+z
1/2+x,1/2-y,1/2+z
loop_
_atom_site_type_symbol
_atom_site_label
_atom_site_fract_x
_atom_site_fract_y
_atom_site_fract_z
Si Si1 0.800686 0.152184 0.369149
Si Si2 0.788095 0.248389 0.062984
Si Si3 0.282136 0.557076 0.685025
Si Si4 0.296627 0.347595 0.370760
Si Si5 0.212340 0.308274 0.250605
Si Si6 0.718059 0.557160 0.186061
O O1 0.732147 0.199376 0.404134
O O2 0.797788 0.170230 0.305080
O O3 0.716366 0.097385 0.359529
O O4 0.000000 0.144258 0.390311
O O5 0.716197 0.198619 0.094221
O O6 0.000000 0.240935 0.060349
O O7 0.718151 0.252330 0.000000
O O8 0.500000 0.559111 0.685095
O O9 0.231029 0.500000 0.673379
O O10 0.217217 0.597245 0.639397
O O11 0.226786 0.568469 0.749460
O O12 0.500000 0.354574 0.390692
O O13 0.295804 0.328699 0.307037
O O14 0.250000 0.250000 0.250000
O O15 0.000000 0.317241 0.250071
O O16 0.500000 0.559327 0.186005
O O17 0.768595 0.500000 0.174452
#
# Coordination Sequence:
#
# PCOD9518226 Si02
#       6
#    16  16  16  16  16  16
#     4  11  20  32  53  77 101 131 167 207 248 296
#     4  10  22  37  51  69  97 134 172 214 262 303
#     4   8  13  23  43  72 102 131 163 196 236 290
#     4  10  18  31  51  72  98 133 170 206 246 296
#     4  12  22  31  46  73 106 135 162 198 249 304
#     4   8  14  25  44  73 105 131 157 193 241 296
#
# _framework density 19.946507
#
# number of rings (size 3 to 8) (size 9 to 14) (size 15 to 20)
#    0.000    2.167    3.333    3.000    0.000    0.333 
#    0.000    0.000    0.000    4.500    0.000    7.000 
#    0.000    0.000    0.000    3.000    0.000    3.333 
#
# Total GULP energy -267353.021597 kJ/mol
# GULP energy per Si atom -5569.854617 kJ/mol
# Density = 1.990111 g / cm^3
# Si number density = 19.946507 Si / 1000 Ang^3
#
#
#
# Elastic Constant Matrix: (Units=GPa)
#
#
# Indices 1 2 3 4 5 6 
#
# 1 68.9180 3.3379 -1.8675 0.0000 0.0000 0.0000
# 2 3.3379 194.0617 67.0061 0.0000 0.0000 0.0000
# 3 -1.8675 67.0061 95.2626 0.0000 0.0000 0.0000
# 4 0.0000 0.0000 0.0000 9.6308 0.0000 0.0000
# 5 0.0000 0.0000 0.0000 0.0000 7.2669 0.0000
# 6 0.0000 0.0000 0.0000 0.0000 0.0000 8.3035
#
#
#
# Elastic Compliance Matrix: (Units=1/GPa)
#
#
# Indices 1 2 3 4 5 6 
#
# 1 0.014549 -0.000461 0.000609 0.000000 0.000000 0.000000
# 2 -0.000461 0.006821 -0.004806 0.000000 0.000000 0.000000
# 3 0.000609 -0.004806 0.013890 0.000000 0.000000 0.000000
# 4 0.000000 0.000000 0.000000 0.103834 0.000000 0.000000
# 5 0.000000 0.000000 0.000000 0.000000 0.137611 0.000000
# 6 0.000000 0.000000 0.000000 0.000000 0.000000 0.120432
#
#
# Mechanical properties :
#
#
# Convention : Reuss Voigt Hill
#
# Bulk Modulus (GPa) = 38.54515 55.02171 46.78343
# Shear Modulus (GPa) = 12.04532 24.35794 18.20163
#
# Velocity S-wave (km/s) = 2.46007 3.49831 3.02408
# Velocity P-wave (km/s) = 5.23788 6.63039 5.97484
#
# Compressibility (1/GPa) = 0.02594360
#
# Stress axis : x y z
#
# Youngs Moduli (GPa) = 68.73417 146.61658 71.99408
#
# Poissons Ratio (x) = 0.06753 -0.04386
# Poissons Ratio (y) = 0.03166 0.34604
# Poissons Ratio (z) = -0.04187 0.70471
#
# Static dielectric constant tensor:
#      x y z
#    x 1.800140 0.000000 0.000000 
#    y 0.000000 1.828200 0.000000 
#    z 0.000000 0.000000 1.678650 
# 
# From -- ./inp_files/10821.got.cif
#   From: 2010.05.17/outbox.cif.g08.bks.cpg/sg71_6_cif.got.tgz:10821.got - 2010.06.03 16:22:01.
