data_PCOD9518361
_publ_section_title
;
Structure prediction by ZEFSAII (Michael W. Deem and Ramdas Pophale) SiO2 
 PCOD9518361
Probable space group: I M M M
;
_chemical_formula_sum "Si O2"
_cell_formula_units_Z 64
_cell_length_a 9.800904
_cell_length_b 13.438441
_cell_length_c 31.458997
_cell_angle_alpha 90.000000
_cell_angle_beta 90.000000
_cell_angle_gamma 90.000000
_cell_volume 4143.428951
_symmetry_space_group_name_H-M "I M M M"
_symmetry_group_IT_number 71
_symmetry_cell_setting 'orthorhombic'
loop_
_space_group_symop_operation_xyz
x,y,z
-x,-y,z
x,-y,-z
-x,y,-z
-x,-y,-z
x,y,-z
-x,y,z
x,-y,z
1/2+x,1/2+y,1/2+z
1/2-x,1/2-y,1/2+z
1/2+x,1/2-y,1/2-z
1/2-x,1/2+y,1/2-z
1/2-x,1/2-y,1/2-z
1/2+x,1/2+y,1/2-z
1/2-x,1/2+y,1/2+z
1/2+x,1/2-y,1/2+z
loop_
_atom_site_type_symbol
_atom_site_label
_atom_site_fract_x
_atom_site_fract_y
_atom_site_fract_z
Si Si1 0.343549 0.879261 0.000000
Si Si2 0.157376 0.882339 0.920620
Si Si3 0.795674 0.215933 0.830498
Si Si4 0.500000 0.210989 0.792948
Si Si5 0.500000 0.388568 0.270198
Si Si6 0.000000 0.382289 0.798679
O O1 0.259986 0.850971 0.957865
O O2 0.500000 0.844432 0.000000
O O3 0.345576 0.000000 0.000000
O O4 0.175591 0.816813 0.878519
O O5 0.000000 0.874773 0.935112
O O6 0.181392 0.000000 0.910587
O O7 0.636877 0.207545 0.820186
O O8 0.869606 0.320513 0.817638
O O9 0.871446 0.137866 0.799592
O O10 0.500000 0.316335 0.769296
O O11 0.500000 0.135460 0.752539
O O12 0.500000 0.500000 0.256297
O O13 0.000000 0.500000 0.807933
#
# Coordination Sequence:
#
# PCOD9518361 Si02
#       6
#     8  16  16   8   8   8
#     4   9  19  31  47  77 107 128 154 191 242 303
#     4  10  18  32  51  71 100 135 164 194 236 291
#     4  10  20  33  49  74  99 129 171 208 240 296
#     4  10  22  32  46  73 101 130 169 210 251 289
#     4  10  18  34  52  66  95 133 171 208 246 293
#     4  10  20  36  52  68  98 134 170 212 251 286
#
# _framework density 15.446144
#
# number of rings (size 3 to 8) (size 9 to 14) (size 15 to 20)
#    0.000    2.375    2.500    4.125    1.750    6.500 
#    0.000    0.000    0.000    0.000    0.000    1.750 
#    0.000    1.000    0.000    0.000    0.000    0.000 
#
# Total GULP energy -178307.980406 kJ/mol
# GULP energy per Si atom -5572.124388 kJ/mol
# Density = 1.541099 g / cm^3
# Si number density = 15.446144 Si / 1000 Ang^3
#
#
#
# Elastic Constant Matrix: (Units=GPa)
#
#
# Indices 1 2 3 4 5 6 
#
# 1 142.6489 15.3275 43.9241 0.0000 0.0000 0.0000
# 2 15.3275 55.6641 20.1891 0.0000 0.0000 0.0000
# 3 43.9241 20.1891 64.7126 0.0000 0.0000 0.0000
# 4 0.0000 0.0000 0.0000 24.7859 0.0000 0.0000
# 5 0.0000 0.0000 0.0000 0.0000 71.6890 0.0000
# 6 0.0000 0.0000 0.0000 0.0000 0.0000 -19.9561
#
#
#
# Elastic Compliance Matrix: (Units=1/GPa)
#
#
# Indices 1 2 3 4 5 6 
#
# 1 0.008867 -0.000292 -0.005927 0.000000 0.000000 0.000000
# 2 -0.000292 0.020267 -0.006125 0.000000 0.000000 0.000000
# 3 -0.005927 -0.006125 0.021387 0.000000 0.000000 0.000000
# 4 0.000000 0.000000 0.000000 0.040346 0.000000 0.000000
# 5 0.000000 0.000000 0.000000 0.000000 0.013949 0.000000
# 6 0.000000 0.000000 0.000000 0.000000 0.000000 -0.050110
#
#
# Mechanical properties :
#
#
# Convention : Reuss Voigt Hill
#
# Bulk Modulus (GPa) = 38.71068 46.87854 42.79461
# Shear Modulus (GPa) = 56.81592 27.54276 42.17934
#
# Velocity S-wave (km/s) = 6.07150 4.22731 5.23131
# Velocity P-wave (km/s) = 8.61782 7.36495 8.01590
#
# Compressibility (1/GPa) = 0.02583267
#
# Stress axis : x y z
#
# Youngs Moduli (GPa) = 112.78180 49.34211 46.75750
#
# Poissons Ratio (x) = 0.01439 0.27715
# Poissons Ratio (y) = 0.03290 0.28638
# Poissons Ratio (z) = 0.66849 0.30221
#
# Static dielectric constant tensor:
#      x y z
#    x 1.527500 0.000000 0.000000 
#    y 0.000000 1.502630 0.000000 
#    z 0.000000 0.000000 1.500030 
# 
# From -- ./inp_files/67822.got.cif
#   From: 2010.05.17/outbox.cif.g08.bks.cpg/sg71_34_cif.got.tgz:67822.got - 2010.06.03 16:22:01.
