data_PCOD9518756
_publ_section_title
;
Structure prediction by ZEFSAII (Michael W. Deem and Ramdas Pophale) SiO2 
 PCOD9518756
Probable space group: I M M M
;
_chemical_formula_sum "Si O2"
_cell_formula_units_Z 88
_cell_length_a 26.045283
_cell_length_b 7.605345
_cell_length_c 25.526255
_cell_angle_alpha 90.000000
_cell_angle_beta 90.000000
_cell_angle_gamma 90.000000
_cell_volume 5056.326431
_symmetry_space_group_name_H-M "I M M M"
_symmetry_group_IT_number 71
_symmetry_cell_setting 'orthorhombic'
loop_
_space_group_symop_operation_xyz
x,y,z
-x,-y,z
x,-y,-z
-x,y,-z
-x,-y,-z
x,y,-z
-x,y,z
x,-y,z
1/2+x,1/2+y,1/2+z
1/2-x,1/2-y,1/2+z
1/2+x,1/2-y,1/2-z
1/2-x,1/2+y,1/2-z
1/2-x,1/2-y,1/2-z
1/2+x,1/2+y,1/2-z
1/2-x,1/2+y,1/2+z
1/2+x,1/2-y,1/2+z
loop_
_atom_site_type_symbol
_atom_site_label
_atom_site_fract_x
_atom_site_fract_y
_atom_site_fract_z
Si Si1 0.901172 0.800117 0.381694
Si Si2 0.000000 0.700370 0.438436
Si Si3 0.799034 0.784805 0.439995
Si Si4 0.245986 0.789052 0.334027
Si Si5 0.333382 0.787960 0.743841
Si Si6 0.441909 0.796739 0.769886
O O1 0.853507 0.728394 0.414927
O O2 0.921752 0.707061 0.329697
O O3 0.949644 0.796813 0.419405
O O4 0.888087 0.000000 0.366198
O O5 0.000000 0.500000 0.417094
O O6 0.000000 0.690555 0.500000
O O7 0.791702 0.725326 0.500000
O O8 0.759659 0.729625 0.394074
O O9 0.799192 0.000000 0.441776
O O10 0.294552 0.721178 0.300942
O O11 0.195307 0.749002 0.299139
O O12 0.250044 0.000000 0.335281
O O13 0.391720 0.719080 0.740854
O O14 0.335937 0.000000 0.739952
O O15 0.500000 0.720811 0.766593
O O16 0.446188 0.000000 0.753629
#
# Coordination Sequence:
#
# PCOD9518756 Si02
#       6
#    16   8  16  16  16  16
#     4  11  20  30  44  60  79 106 143 180 211 245
#     4  11  23  35  43  53  75 109 147 185 220 247
#     4   9  17  28  42  61  84 107 134 173 215 249
#     4   9  16  28  45  63  82 105 137 174 211 253
#     4   9  17  28  44  63  82 106 137 173 212 254
#     4  10  19  30  43  59  84 112 139 173 213 254
#
# _framework density 17.403939000000001
#
# number of rings (size 3 to 8) (size 9 to 14) (size 15 to 20)
#    0.000    2.273    2.727    1.364    0.000    1.455 
#    0.000    0.000    0.000    1.636    0.000    0.000 
#    0.000    0.727    0.000   10.182    0.000    0.000 
#
# Total GULP energy -245120.700889 kJ/mol
# GULP energy per Si atom -5570.925020 kJ/mol
# Density = 1.736433 g / cm^3
# Si number density = 17.403939 Si / 1000 Ang^3
#
#
#
# Elastic Constant Matrix: (Units=GPa)
#
#
# Indices 1 2 3 4 5 6 
#
# 1 137.0994 5.0606 69.8737 0.0000 0.0000 0.0000
# 2 5.0606 42.7269 -0.2049 0.0000 0.0000 0.0000
# 3 69.8737 -0.2049 98.4580 0.0000 0.0000 0.0000
# 4 0.0000 0.0000 0.0000 9.9847 0.0000 0.0000
# 5 0.0000 0.0000 0.0000 0.0000 23.7305 0.0000
# 6 0.0000 0.0000 0.0000 0.0000 0.0000 9.3277
#
#
#
# Elastic Compliance Matrix: (Units=1/GPa)
#
#
# Indices 1 2 3 4 5 6 
#
# 1 0.011511 -0.001403 -0.008172 0.000000 0.000000 0.000000
# 2 -0.001403 0.023576 0.001044 0.000000 0.000000 0.000000
# 3 -0.008172 0.001044 0.015958 0.000000 0.000000 0.000000
# 4 0.000000 0.000000 0.000000 0.100153 0.000000 0.000000
# 5 0.000000 0.000000 0.000000 0.000000 0.042140 0.000000
# 6 0.000000 0.000000 0.000000 0.000000 0.000000 0.107208
#
#
# Mechanical properties :
#
#
# Convention : Reuss Voigt Hill
#
# Bulk Modulus (GPa) = 29.42514 47.52701 38.47608
# Shear Modulus (GPa) = 15.20068 22.17891 18.68979
#
# Velocity S-wave (km/s) = 2.95855 3.57369 3.28057
# Velocity P-wave (km/s) = 5.34926 6.66302 6.04195
#
# Compressibility (1/GPa) = 0.03398454
#
# Stress axis : x y z
#
# Youngs Moduli (GPa) = 86.87704 42.41677 62.66414
#
# Poissons Ratio (x) = 0.05949 0.51207
# Poissons Ratio (y) = 0.12185 -0.06545
# Poissons Ratio (z) = 0.70993 -0.04430
#
# Static dielectric constant tensor:
#      x y z
#    x 1.634630 0.000000 0.000000 
#    y 0.000000 1.727000 0.000000 
#    z 0.000000 0.000000 1.599850 
# 
# From -- ./inp_files/56579.got.cif
#   From: 2010.05.17/outbox.cif.g08.bks.cpg/sg71_29_cif.got.tgz:56579.got - 2010.06.03 16:22:01.
