data_PCOD9518508
_publ_section_title
;
Structure prediction by ZEFSAII (Michael W. Deem and Ramdas Pophale) SiO2 
 PCOD9518508
Probable space group: I M M M
;
_chemical_formula_sum "Si O2"
_cell_formula_units_Z 68
_cell_length_a 21.627555
_cell_length_b 17.601943
_cell_length_c 10.330032
_cell_angle_alpha 90.000000
_cell_angle_beta 90.000000
_cell_angle_gamma 90.000000
_cell_volume 3932.508792
_symmetry_space_group_name_H-M "I M M M"
_symmetry_group_IT_number 71
_symmetry_cell_setting 'orthorhombic'
loop_
_space_group_symop_operation_xyz
x,y,z
-x,-y,z
x,-y,-z
-x,y,-z
-x,-y,-z
x,y,-z
-x,y,z
x,-y,z
1/2+x,1/2+y,1/2+z
1/2-x,1/2-y,1/2+z
1/2+x,1/2-y,1/2-z
1/2-x,1/2+y,1/2-z
1/2-x,1/2-y,1/2-z
1/2+x,1/2+y,1/2-z
1/2-x,1/2+y,1/2+z
1/2+x,1/2-y,1/2+z
loop_
_atom_site_type_symbol
_atom_site_label
_atom_site_fract_x
_atom_site_fract_y
_atom_site_fract_z
Si Si1 0.283053 0.000000 0.500000
Si Si2 0.169896 0.240981 0.000000
Si Si3 0.000000 0.251530 0.345038
Si Si4 0.621244 0.661686 0.751747
Si Si5 0.074275 0.000000 0.846190
Si Si6 0.500000 0.084216 0.724363
Si Si7 0.097837 0.609133 0.000000
Si Si8 0.208029 0.845102 0.500000
O O1 0.338572 0.935586 0.500000
O O2 0.232090 0.931443 0.500000
O O3 0.158730 0.192099 0.872003
O O4 0.115009 0.302920 0.000000
O O5 0.235004 0.285309 0.000000
O O6 0.939528 0.212314 0.282083
O O7 0.000000 0.341811 0.314571
O O8 0.000000 0.239018 0.500000
O O9 0.600116 0.575956 0.720127
O O10 0.665837 0.666325 0.874402
O O11 0.000000 0.000000 0.835522
O O12 0.089539 0.000000 0.000000
O O13 0.558220 0.089805 0.626915
O O14 0.500000 0.000000 0.786118
#
# Coordination Sequence:
#
# PCOD9518508 Si02
#       8
#     4   8   8  16   8   8   8   8
#     4  10  20  39  58  91 122 158 222 264 310 364
#     4  11  23  39  65  92 121 172 224 261 312 375
#     4  12  25  41  65  95 130 165 210 263 327 389
#     4  12  23  43  64  95 129 171 218 265 324 382
#     4  11  23  37  64  99 131 163 210 274 329 378
#     4  11  20  35  62  95 127 153 195 269 330 368
#     4  10  18  33  63  95 116 150 212 269 312 365
#     4  11  25  41  63  90 129 177 213 269 314 387
#
# _framework density 17.291761000000001
#
# number of rings (size 3 to 8) (size 9 to 14) (size 15 to 20)
#    0.000    0.824    7.059    1.765    0.000    0.706 
#    0.000    1.176    0.000    0.000    6.118    0.000 
#    0.000    0.000    0.000    0.000    0.000    0.000 
#
# Total GULP energy -189302.892337 kJ/mol
# GULP energy per Si atom -5567.732128 kJ/mol
# Density = 1.725240 g / cm^3
# Si number density = 17.291761 Si / 1000 Ang^3
#
#
#
# Elastic Constant Matrix: (Units=GPa)
#
#
# Indices 1 2 3 4 5 6 
#
# 1 126.7041 58.8911 62.6582 0.0000 0.0000 0.0000
# 2 58.8911 154.2507 58.7400 0.0000 0.0000 0.0000
# 3 62.6582 58.7400 134.8722 0.0000 0.0000 0.0000
# 4 0.0000 0.0000 0.0000 4.6676 0.0000 0.0000
# 5 0.0000 0.0000 0.0000 0.0000 4.6592 0.0000
# 6 0.0000 0.0000 0.0000 0.0000 0.0000 22.7783
#
#
#
# Elastic Compliance Matrix: (Units=1/GPa)
#
#
# Indices 1 2 3 4 5 6 
#
# 1 0.011132 -0.002734 -0.003981 0.000000 0.000000 0.000000
# 2 -0.002734 0.008443 -0.002407 0.000000 0.000000 0.000000
# 3 -0.003981 -0.002407 0.010312 0.000000 0.000000 0.000000
# 4 0.000000 0.000000 0.000000 0.214243 0.000000 0.000000
# 5 0.000000 0.000000 0.000000 0.000000 0.214627 0.000000
# 6 0.000000 0.000000 0.000000 0.000000 0.000000 0.043901
#
#
# Mechanical properties :
#
#
# Convention : Reuss Voigt Hill
#
# Bulk Modulus (GPa) = 85.88559 86.26728 86.07644
# Shear Modulus (GPa) = 9.52773 22.12354 15.82564
#
# Velocity S-wave (km/s) = 2.34988 3.58079 3.02853
# Velocity P-wave (km/s) = 7.55903 8.19107 7.88139
#
# Compressibility (1/GPa) = 0.01164340
#
# Stress axis : x y z
#
# Youngs Moduli (GPa) = 89.83290 118.43513 96.97278
#
# Poissons Ratio (x) = 0.32381 0.38603
# Poissons Ratio (y) = 0.24561 0.23343
# Poissons Ratio (z) = 0.35761 0.28509
#
# Static dielectric constant tensor:
#      x y z
#    x 1.557360 0.000000 0.000000 
#    y 0.000000 1.605170 0.000000 
#    z 0.000000 0.000000 1.569900 
# 
# From -- ./inp_files/9708.got.cif
#   From: 2010.05.17/outbox.cif.g08.bks.cpg/sg71_5_cif.got.tgz:9708.got - 2010.06.03 16:22:01.
