data_PCOD9518642
_publ_section_title
;
Structure prediction by ZEFSAII (Michael W. Deem and Ramdas Pophale) SiO2 
 PCOD9518642
Probable space group: I M M M
;
_chemical_formula_sum "Si O2"
_cell_formula_units_Z 104
_cell_length_a 8.799952
_cell_length_b 28.924172
_cell_length_c 33.524583
_cell_angle_alpha 90.000000
_cell_angle_beta 90.000000
_cell_angle_gamma 90.000000
_cell_volume 8533.056539
_symmetry_space_group_name_H-M "I M M M"
_symmetry_group_IT_number 71
_symmetry_cell_setting 'orthorhombic'
loop_
_space_group_symop_operation_xyz
x,y,z
-x,-y,z
x,-y,-z
-x,y,-z
-x,-y,-z
x,y,-z
-x,y,z
x,-y,z
1/2+x,1/2+y,1/2+z
1/2-x,1/2-y,1/2+z
1/2+x,1/2-y,1/2-z
1/2-x,1/2+y,1/2-z
1/2-x,1/2-y,1/2-z
1/2+x,1/2+y,1/2-z
1/2-x,1/2+y,1/2+z
1/2+x,1/2-y,1/2+z
loop_
_atom_site_type_symbol
_atom_site_label
_atom_site_fract_x
_atom_site_fract_y
_atom_site_fract_z
Si Si1 0.825310 0.680923 0.227772
Si Si2 0.325302 0.764370 0.812384
Si Si3 0.180941 0.500000 0.717621
Si Si4 0.818630 0.850466 0.852379
Si Si5 0.318270 0.086906 0.082947
Si Si6 0.682953 0.444812 0.500000
Si Si7 0.817991 0.000000 0.129673
Si Si8 0.181342 0.096211 0.769834
O O1 0.750358 0.714779 0.195429
O O2 0.825687 0.709911 0.269293
O O3 0.732518 0.634908 0.238220
O O4 0.000000 0.670398 0.217966
O O5 0.500000 0.760019 0.825190
O O6 0.233313 0.798986 0.840730
O O7 0.265442 0.500000 0.675073
O O8 0.235272 0.547778 0.737331
O O9 0.000000 0.500000 0.712488
O O10 0.737320 0.868885 0.891960
O O11 0.778152 0.883132 0.813996
O O12 0.000000 0.853031 0.856946
O O13 0.500000 0.085027 0.081584
O O14 0.250780 0.044299 0.108070
O O15 0.249725 0.079822 0.039074
O O16 0.723660 0.500000 0.500000
O O17 0.500000 0.442448 0.500000
O O18 0.000000 0.000000 0.126808
O O19 0.000000 0.090030 0.769275
#
# Coordination Sequence:
#
# PCOD9518642 Si02
#       8
#    16  16   8  16  16   8   8  16
#     4   9  16  26  39  55  75  96 121 147 179 218
#     4   9  16  26  40  57  76  95 119 146 179 218
#     4  12  22  30  41  57  76  98 126 158 191 225
#     4  10  19  30  44  59  77  97 119 147 186 227
#     4  12  23  34  48  63  77  93 120 154 189 229
#     4  11  23  37  51  61  76  98 122 150 188 233
#     4  12  22  33  45  58  74  96 121 150 188 230
#     4  10  19  29  41  55  75  99 124 151 185 223
#
# _framework density 12.187896
#
# number of rings (size 3 to 8) (size 9 to 14) (size 15 to 20)
#    0.000    1.615    2.308    4.846    0.000    5.231 
#    0.000    0.000    0.000    0.000    0.000    0.000 
#    0.000    0.000    0.000    0.000    0.000    0.000 
#
# Total GULP energy -290101.376932 kJ/mol
# GULP energy per Si atom -5578.872633 kJ/mol
# Density = 1.216016 g / cm^3
# Si number density = 12.187896 Si / 1000 Ang^3
#
#
#
# Elastic Constant Matrix: (Units=GPa)
#
#
# Indices 1 2 3 4 5 6 
#
# 1 85.4414 33.2902 26.4758 0.0000 0.0000 0.0000
# 2 33.2902 73.3943 40.0145 0.0000 0.0000 0.0000
# 3 26.4758 40.0145 40.0510 0.0000 0.0000 0.0000
# 4 0.0000 0.0000 0.0000 9.8915 0.0000 0.0000
# 5 0.0000 0.0000 0.0000 0.0000 15.9461 0.0000
# 6 0.0000 0.0000 0.0000 0.0000 0.0000 21.8007
#
#
#
# Elastic Compliance Matrix: (Units=1/GPa)
#
#
# Indices 1 2 3 4 5 6 
#
# 1 0.015029 -0.003076 -0.006862 0.000000 0.000000 0.000000
# 2 -0.003076 0.030555 -0.028494 0.000000 0.000000 0.000000
# 3 -0.006862 -0.028494 0.057972 0.000000 0.000000 0.000000
# 4 0.000000 0.000000 0.000000 0.101097 0.000000 0.000000
# 5 0.000000 0.000000 0.000000 0.000000 0.062711 0.000000
# 6 0.000000 0.000000 0.000000 0.000000 0.000000 0.045870
#
#
# Mechanical properties :
#
#
# Convention : Reuss Voigt Hill
#
# Bulk Modulus (GPa) = 37.46319 44.27195 40.86757
# Shear Modulus (GPa) = 12.53149 16.13473 14.33311
#
# Velocity S-wave (km/s) = 3.21002 3.64240 3.43302
# Velocity P-wave (km/s) = 6.67411 7.35478 7.02270
#
# Compressibility (1/GPa) = 0.02669287
#
# Stress axis : x y z
#
# Youngs Moduli (GPa) = 66.53995 32.72789 17.24959
#
# Poissons Ratio (x) = 0.10066 0.11837
# Poissons Ratio (y) = 0.20465 0.49151
# Poissons Ratio (z) = 0.45659 0.93255
#
# Static dielectric constant tensor:
#      x y z
#    x 1.405840 0.000000 0.000000 
#    y 0.000000 1.422600 0.000000 
#    z 0.000000 0.000000 1.377000 
# 
# From -- ./inp_files/68595.got.cif
#   From: 2010.05.17/outbox.cif.g08.bks.cpg/sg71_35_cif.got.tgz:68595.got - 2010.06.03 16:22:01.
