data_PCOD9518162
_publ_section_title
;
Structure prediction by ZEFSAII (Michael W. Deem and Ramdas Pophale) SiO2 
 PCOD9518162
Probable space group: I M M M
;
_chemical_formula_sum "Si O2"
_cell_formula_units_Z 96
_cell_length_a 29.162917
_cell_length_b 9.371399
_cell_length_c 28.501394
_cell_angle_alpha 90.000000
_cell_angle_beta 90.000000
_cell_angle_gamma 90.000000
_cell_volume 7789.354916
_symmetry_space_group_name_H-M "I M M M"
_symmetry_group_IT_number 71
_symmetry_cell_setting 'orthorhombic'
loop_
_space_group_symop_operation_xyz
x,y,z
-x,-y,z
x,-y,-z
-x,y,-z
-x,-y,-z
x,y,-z
-x,y,z
x,-y,z
1/2+x,1/2+y,1/2+z
1/2-x,1/2-y,1/2+z
1/2+x,1/2-y,1/2-z
1/2-x,1/2+y,1/2-z
1/2-x,1/2-y,1/2-z
1/2+x,1/2+y,1/2-z
1/2-x,1/2+y,1/2+z
1/2+x,1/2-y,1/2+z
loop_
_atom_site_type_symbol
_atom_site_label
_atom_site_fract_x
_atom_site_fract_y
_atom_site_fract_z
Si Si1 0.275528 0.667788 0.602647
Si Si2 0.807823 0.170350 0.000000
Si Si3 0.905077 0.671389 0.000000
Si Si4 0.226469 0.835781 0.680627
Si Si5 0.553910 0.668169 0.411228
Si Si6 0.368316 0.668065 0.338267
Si Si7 0.678755 0.835745 0.741162
O O1 0.265140 0.500000 0.608931
O O2 0.280086 0.699103 0.547655
O O3 0.239711 0.760419 0.632018
O O4 0.325862 0.691663 0.625721
O O5 0.853979 0.262718 0.000000
O O6 0.819701 0.000000 0.000000
O O7 0.930411 0.734286 0.954330
O O8 0.904371 0.500000 0.000000
O O9 0.273715 0.833194 0.711128
O O10 0.189808 0.749724 0.711484
O O11 0.213245 0.000000 0.674516
O O12 0.500000 0.684747 0.402265
O O13 0.562474 0.500000 0.423004
O O14 0.585375 0.701355 0.366284
O O15 0.367869 0.500000 0.326257
O O16 0.358053 0.759671 0.292245
O O17 0.667446 0.000000 0.750426
#
# Coordination Sequence:
#
# PCOD9518162 Si02
#       7
#    16   8   8  16  16  16  16
#     4   9  16  26  41  55  71  93 120 152 184 219
#     4  10  18  31  45  56  72  99 130 156 187 231
#     4  12  23  31  42  57  74  92 120 162 204 237
#     4   9  16  25  37  54  75  94 114 141 175 215
#     4  10  20  34  48  57  69  94 126 157 193 240
#     4   9  16  27  42  57  71  89 116 150 187 225
#     4   9  16  25  38  55  74  93 114 138 174 220
#
# _framework density 12.324512
#
# number of rings (size 3 to 8) (size 9 to 14) (size 15 to 20)
#    0.000    2.500    1.667    2.000    0.000    6.667 
#    0.000    0.000    0.000    0.000    0.000    0.000 
#    0.000    0.000    0.000    0.000    0.000    0.000 
#
# Total GULP energy -267478.746138 kJ/mol
# GULP energy per Si atom -5572.473878 kJ/mol
# Density = 1.229646 g / cm^3
# Si number density = 12.324512 Si / 1000 Ang^3
#
#
#
# Elastic Constant Matrix: (Units=GPa)
#
#
# Indices 1 2 3 4 5 6 
#
# 1 41.8635 45.4860 49.0334 0.0000 0.0000 0.0000
# 2 45.4860 88.0490 69.9289 0.0000 0.0000 0.0000
# 3 49.0334 69.9289 95.3870 0.0000 0.0000 0.0000
# 4 0.0000 0.0000 0.0000 19.0647 0.0000 0.0000
# 5 0.0000 0.0000 0.0000 0.0000 3.6105 0.0000
# 6 0.0000 0.0000 0.0000 0.0000 0.0000 10.3934
#
#
#
# Elastic Compliance Matrix: (Units=1/GPa)
#
#
# Indices 1 2 3 4 5 6 
#
# 1 0.070501 -0.018283 -0.022837 0.000000 0.000000 0.000000
# 2 -0.018283 0.031927 -0.014008 0.000000 0.000000 0.000000
# 3 -0.022837 -0.014008 0.032492 0.000000 0.000000 0.000000
# 4 0.000000 0.000000 0.000000 0.052453 0.000000 0.000000
# 5 0.000000 0.000000 0.000000 0.000000 0.276972 0.000000
# 6 0.000000 0.000000 0.000000 0.000000 0.000000 0.096215
#
#
# Mechanical properties :
#
#
# Convention : Reuss Voigt Hill
#
# Bulk Modulus (GPa) = 40.54468 61.57735 51.06101
# Shear Modulus (GPa) = 7.36334 10.67046 9.01690
#
# Velocity S-wave (km/s) = 2.44694 2.94563 2.70779
# Velocity P-wave (km/s) = 6.39940 7.85116 7.16216
#
# Compressibility (1/GPa) = 0.02466415
#
# Stress axis : x y z
#
# Youngs Moduli (GPa) = 14.18414 31.32098 30.77654
#
# Poissons Ratio (x) = 0.57265 0.70285
# Poissons Ratio (y) = 0.25933 0.43111
# Poissons Ratio (z) = 0.32393 0.43874
#
# Static dielectric constant tensor:
#      x y z
#    x 1.370880 0.000000 0.000000 
#    y 0.000000 1.414480 0.000000 
#    z 0.000000 0.000000 1.392050 
# 
# From -- ./inp_files/71230.got.cif
#   From: 2010.05.17/outbox.cif.g08.bks.cpg/sg71_36_cif.got.tgz:71230.got - 2010.06.03 16:22:01.
