data_PCOD9518719
_publ_section_title
;
Structure prediction by ZEFSAII (Michael W. Deem and Ramdas Pophale) SiO2 
 PCOD9518719
Probable space group: I M M M
;
_chemical_formula_sum "Si O2"
_cell_formula_units_Z 112
_cell_length_a 18.860245
_cell_length_b 15.534801
_cell_length_c 17.679141
_cell_angle_alpha 90.000000
_cell_angle_beta 90.000000
_cell_angle_gamma 90.000000
_cell_volume 5179.814224
_symmetry_space_group_name_H-M "I M M M"
_symmetry_group_IT_number 71
_symmetry_cell_setting 'orthorhombic'
loop_
_space_group_symop_operation_xyz
x,y,z
-x,-y,z
x,-y,-z
-x,y,-z
-x,-y,-z
x,y,-z
-x,y,z
x,-y,z
1/2+x,1/2+y,1/2+z
1/2-x,1/2-y,1/2+z
1/2+x,1/2-y,1/2-z
1/2-x,1/2+y,1/2-z
1/2-x,1/2-y,1/2-z
1/2+x,1/2+y,1/2-z
1/2-x,1/2+y,1/2+z
1/2+x,1/2-y,1/2+z
loop_
_atom_site_type_symbol
_atom_site_label
_atom_site_fract_x
_atom_site_fract_y
_atom_site_fract_z
Si Si1 0.286860 0.671954 0.912833
Si Si2 0.120534 0.729606 0.698473
Si Si3 0.581043 0.143698 0.582712
Si Si4 0.809196 0.406396 0.795250
Si Si5 0.077679 0.171938 0.154738
Si Si6 0.383110 0.902019 0.085128
Si Si7 0.782110 0.857910 0.084912
O O1 0.354346 0.708533 0.868658
O O2 0.253292 0.603774 0.855864
O O3 0.234233 0.755158 0.912283
O O4 0.297774 0.647119 0.000000
O O5 0.184539 0.676998 0.741223
O O6 0.082545 0.783210 0.763063
O O7 0.083805 0.652727 0.652667
O O8 0.613025 0.125137 0.500000
O O9 0.500000 0.114862 0.582612
O O10 0.621916 0.101194 0.651558
O O11 0.579730 0.246532 0.597301
O O12 0.806633 0.500000 0.757456
O O13 0.151743 0.122536 0.139610
O O14 0.000000 0.129528 0.146525
O O15 0.296675 0.897466 0.094505
O O16 0.405730 0.000000 0.087902
O O17 0.396746 0.867931 0.000000
O O18 0.804912 0.880904 0.000000
#
# Coordination Sequence:
#
# PCOD9518719 Si02
#       7
#    16  16  16  16  16  16  16
#     4  10  19  32  50  70  92 125 162 199 244 293
#     4  10  19  33  49  68  96 128 163 199 240 288
#     4   9  17  29  43  60  90 133 170 191 215 266
#     4  11  21  29  43  70 101 128 155 195 243 286
#     4  10  19  29  46  69  94 125 166 206 237 274
#     4   9  18  31  50  76 100 124 157 200 251 303
#     4   9  16  28  48  71  96 125 159 196 237 291
#
# _framework density 21.622396999999999
#
# number of rings (size 3 to 8) (size 9 to 14) (size 15 to 20)
#    0.000    2.286    2.857    3.000    2.000    2.286 
#    0.000    0.714    0.000    3.429    0.000    3.000 
#    0.000    0.000    0.000    1.286    0.000    0.000 
#
# Total GULP energy -312130.304203 kJ/mol
# GULP energy per Si atom -5573.755432 kJ/mol
# Density = 2.157318 g / cm^3
# Si number density = 21.622397 Si / 1000 Ang^3
#
#
#
# Elastic Constant Matrix: (Units=GPa)
#
#
# Indices 1 2 3 4 5 6 
#
# 1 46.1209 -2.6154 5.3881 0.0000 0.0000 0.0000
# 2 -2.6154 25.8999 -3.0828 0.0000 0.0000 0.0000
# 3 5.3881 -3.0828 123.5889 0.0000 0.0000 0.0000
# 4 0.0000 0.0000 0.0000 18.6534 0.0000 0.0000
# 5 0.0000 0.0000 0.0000 0.0000 4.3055 0.0000
# 6 0.0000 0.0000 0.0000 0.0000 0.0000 3.2319
#
#
#
# Elastic Compliance Matrix: (Units=1/GPa)
#
#
# Indices 1 2 3 4 5 6 
#
# 1 0.021907 0.002105 -0.000903 0.000000 0.000000 0.000000
# 2 0.002105 0.038927 0.000879 0.000000 0.000000 0.000000
# 3 -0.000903 0.000879 0.008153 0.000000 0.000000 0.000000
# 4 0.000000 0.000000 0.000000 0.053609 0.000000 0.000000
# 5 0.000000 0.000000 0.000000 0.000000 0.232262 0.000000
# 6 0.000000 0.000000 0.000000 0.000000 0.000000 0.309413
#
#
# Mechanical properties :
#
#
# Convention : Reuss Voigt Hill
#
# Bulk Modulus (GPa) = 13.67059 21.66550 17.66804
# Shear Modulus (GPa) = 7.30469 18.29949 12.80209
#
# Velocity S-wave (km/s) = 1.84001 2.91232 2.43590
# Velocity P-wave (km/s) = 3.29398 4.62066 4.01253
#
# Compressibility (1/GPa) = 0.07314972
#
# Stress axis : x y z
#
# Youngs Moduli (GPa) = 45.64759 25.68890 122.65989
#
# Poissons Ratio (x) = -0.05407 0.11071
# Poissons Ratio (y) = -0.09608 -0.10785
# Poissons Ratio (z) = 0.04120 -0.02259
#
# Static dielectric constant tensor:
#      x y z
#    x 1.840160 0.000000 0.000000 
#    y 0.000000 1.807200 0.000000 
#    z 0.000000 0.000000 1.823350 
# 
# From -- ./inp_files/46410.got.cif
#   From: 2010.05.17/outbox.cif.g08.bks.cpg/sg71_24_cif.got.tgz:46410.got - 2010.06.03 16:22:01.
