data_PCOD9518236
_publ_section_title
;
Structure prediction by ZEFSAII (Michael W. Deem and Ramdas Pophale) SiO2 
 PCOD9518236
Probable space group: I M M M
;
_chemical_formula_sum "Si O2"
_cell_formula_units_Z 96
_cell_length_a 20.075633
_cell_length_b 19.162048
_cell_length_c 14.189149
_cell_angle_alpha 90.000000
_cell_angle_beta 90.000000
_cell_angle_gamma 90.000000
_cell_volume 5458.427179
_symmetry_space_group_name_H-M "I M M M"
_symmetry_group_IT_number 71
_symmetry_cell_setting 'orthorhombic'
loop_
_space_group_symop_operation_xyz
x,y,z
-x,-y,z
x,-y,-z
-x,y,-z
-x,-y,-z
x,y,-z
-x,y,z
x,-y,z
1/2+x,1/2+y,1/2+z
1/2-x,1/2-y,1/2+z
1/2+x,1/2-y,1/2-z
1/2-x,1/2+y,1/2-z
1/2-x,1/2-y,1/2-z
1/2+x,1/2+y,1/2-z
1/2-x,1/2+y,1/2+z
1/2+x,1/2-y,1/2+z
loop_
_atom_site_type_symbol
_atom_site_label
_atom_site_fract_x
_atom_site_fract_y
_atom_site_fract_z
Si Si1 0.078196 0.269508 0.892183
Si Si2 0.230676 0.419659 0.609687
Si Si3 0.070364 0.920501 0.311065
Si Si4 0.200973 0.683524 0.231750
Si Si5 0.209030 0.918113 0.387893
Si Si6 0.110113 0.894684 0.104344
O O1 0.130852 0.296821 0.815763
O O2 0.091483 0.186613 0.895133
O O3 0.000000 0.282034 0.871065
O O4 0.091237 0.295360 0.000000
O O5 0.212962 0.413010 0.500000
O O6 0.218193 0.500000 0.639044
O O7 0.195730 0.361536 0.672915
O O8 0.310582 0.406455 0.616032
O O9 0.137431 0.889764 0.352996
O O10 0.077043 0.923776 0.198217
O O11 0.000000 0.886060 0.335421
O O12 0.068910 0.000000 0.347303
O O13 0.250000 0.750000 0.250000
O O14 0.236936 0.630518 0.159955
O O15 0.212727 0.915682 0.500000
O O16 0.215239 0.000000 0.358600
O O17 0.091566 0.921510 0.000000
#
# Coordination Sequence:
#
# PCOD9518236 Si02
#       6
#    16  16  16  16  16  16
#     4  10  21  36  54  80 116 153 188 230 283 339
#     4  10  20  34  55  84 116 146 180 227 281 334
#     4  10  19  30  45  69 103 142 182 221 267 325
#     4  12  21  34  58  86 110 144 187 236 280 334
#     4  10  21  36  53  74 102 139 185 235 282 329
#     4  10  18  31  51  75 107 144 180 219 269 328
#
# _framework density 17.587484
#
# number of rings (size 3 to 8) (size 9 to 14) (size 15 to 20)
#    0.000    1.667    3.333    2.000    0.000    3.000 
#    0.000    2.500    0.000    2.500    0.000    7.000 
#    0.000    0.000    0.000    0.000    0.000    0.000 
#
# Total GULP energy -267643.005046 kJ/mol
# GULP energy per Si atom -5575.895938 kJ/mol
# Density = 1.754745 g / cm^3
# Si number density = 17.587484 Si / 1000 Ang^3
#
#
#
# Elastic Constant Matrix: (Units=GPa)
#
#
# Indices 1 2 3 4 5 6 
#
# 1 94.4425 45.6928 39.5534 0.0000 0.0000 0.0000
# 2 45.6928 81.0676 46.6022 0.0000 0.0000 0.0000
# 3 39.5534 46.6022 81.1436 0.0000 0.0000 0.0000
# 4 0.0000 0.0000 0.0000 28.0044 0.0000 0.0000
# 5 0.0000 0.0000 0.0000 0.0000 9.7554 0.0000
# 6 0.0000 0.0000 0.0000 0.0000 0.0000 20.8461
#
#
#
# Elastic Compliance Matrix: (Units=1/GPa)
#
#
# Indices 1 2 3 4 5 6 
#
# 1 0.015281 -0.006466 -0.003735 0.000000 0.000000 0.000000
# 2 -0.006466 0.021151 -0.008996 0.000000 0.000000 0.000000
# 3 -0.003735 -0.008996 0.019311 0.000000 0.000000 0.000000
# 4 0.000000 0.000000 0.000000 0.035709 0.000000 0.000000
# 5 0.000000 0.000000 0.000000 0.000000 0.102508 0.000000
# 6 0.000000 0.000000 0.000000 0.000000 0.000000 0.047971
#
#
# Mechanical properties :
#
#
# Convention : Reuss Voigt Hill
#
# Bulk Modulus (GPa) = 57.63844 57.81673 57.72758
# Shear Modulus (GPa) = 17.47599 20.04151 18.75875
#
# Velocity S-wave (km/s) = 3.15566 3.37936 3.26942
# Velocity P-wave (km/s) = 6.79125 6.94060 6.86633
#
# Compressibility (1/GPa) = 0.01734953
#
# Stress axis : x y z
#
# Youngs Moduli (GPa) = 65.44039 47.27940 51.78402
#
# Poissons Ratio (x) = 0.30569 0.19343
# Poissons Ratio (y) = 0.42312 0.46583
# Poissons Ratio (z) = 0.24445 0.42531
#
# Static dielectric constant tensor:
#      x y z
#    x 1.613910 0.000000 0.000000 
#    y 0.000000 1.599420 0.000000 
#    z 0.000000 0.000000 1.630560 
# 
# From -- ./inp_files/38234.got.cif
#   From: 2010.05.17/outbox.cif.g08.bks.cpg/sg71_20_cif.got.tgz:38234.got - 2010.06.03 16:22:01.
