data_PCOD9518929
_publ_section_title
;
Structure prediction by ZEFSAII (Michael W. Deem and Ramdas Pophale) SiO2 
 PCOD9518929
Probable space group: I M M M
;
_chemical_formula_sum "Si O2"
_cell_formula_units_Z 72
_cell_length_a 17.901762
_cell_length_b 8.089681
_cell_length_c 26.407753
_cell_angle_alpha 90.000000
_cell_angle_beta 90.000000
_cell_angle_gamma 90.000000
_cell_volume 3824.358745
_symmetry_space_group_name_H-M "I M M M"
_symmetry_group_IT_number 71
_symmetry_cell_setting 'orthorhombic'
loop_
_space_group_symop_operation_xyz
x,y,z
-x,-y,z
x,-y,-z
-x,y,-z
-x,-y,-z
x,y,-z
-x,y,z
x,-y,z
1/2+x,1/2+y,1/2+z
1/2-x,1/2-y,1/2+z
1/2+x,1/2-y,1/2-z
1/2-x,1/2+y,1/2-z
1/2-x,1/2-y,1/2-z
1/2+x,1/2+y,1/2-z
1/2-x,1/2+y,1/2+z
1/2+x,1/2-y,1/2+z
loop_
_atom_site_type_symbol
_atom_site_label
_atom_site_fract_x
_atom_site_fract_y
_atom_site_fract_z
Si Si1 0.413521 0.197750 0.000000
Si Si2 0.738657 0.800306 0.692360
Si Si3 0.421001 0.806363 0.659335
Si Si4 0.132296 0.803997 0.056203
Si Si5 0.701937 0.301310 0.913744
O O1 0.366662 0.250176 0.050179
O O2 0.500000 0.258531 0.000000
O O3 0.415627 0.000000 0.000000
O O4 0.750000 0.750000 0.750000
O O5 0.656071 0.733132 0.679223
O O6 0.794125 0.749413 0.646073
O O7 0.737804 0.000000 0.690226
O O8 0.500000 0.732533 0.675988
O O9 0.412321 0.790177 0.599245
O O10 0.421358 0.000000 0.673054
O O11 0.220571 0.767796 0.063471
O O12 0.120222 0.000000 0.062211
O O13 0.110342 0.754403 0.000000
O O14 0.705926 0.500000 0.915269
#
# Coordination Sequence:
#
# PCOD9518929 Si02
#       5
#     8  16  16  16  16
#     4  11  23  37  55  83 116 147 184 233 289 339
#     4   9  19  35  56  81 104 136 182 227 273 328
#     4   9  19  35  52  72 101 136 175 217 262 315
#     4  10  19  30  48  75 106 138 172 210 253 306
#     4  10  20  35  56  79 107 143 184 224 267 327
#
# _framework density 18.826685000000001
#
# number of rings (size 3 to 8) (size 9 to 14) (size 15 to 20)
#    0.000    2.333    1.111    3.000    0.000    7.556 
#    0.000    3.333    0.000    4.000    0.000    0.000 
#    0.000    0.000    0.000    0.000    0.000    0.000 
#
# Total GULP energy -200507.427731 kJ/mol
# GULP energy per Si atom -5569.650770 kJ/mol
# Density = 1.878384 g / cm^3
# Si number density = 18.826685 Si / 1000 Ang^3
#
#
#
# Elastic Constant Matrix: (Units=GPa)
#
#
# Indices 1 2 3 4 5 6 
#
# 1 115.1051 1.8884 57.8851 0.0000 0.0000 0.0000
# 2 1.8884 20.3951 7.1528 0.0000 0.0000 0.0000
# 3 57.8851 7.1528 142.6022 0.0000 0.0000 0.0000
# 4 0.0000 0.0000 0.0000 29.8862 0.0000 0.0000
# 5 0.0000 0.0000 0.0000 0.0000 -4.3394 0.0000
# 6 0.0000 0.0000 0.0000 0.0000 0.0000 12.4165
#
#
#
# Elastic Compliance Matrix: (Units=1/GPa)
#
#
# Indices 1 2 3 4 5 6 
#
# 1 0.010922 0.000553 -0.004461 0.000000 0.000000 0.000000
# 2 0.000553 0.049937 -0.002729 0.000000 0.000000 0.000000
# 3 -0.004461 -0.002729 0.008960 0.000000 0.000000 0.000000
# 4 0.000000 0.000000 0.000000 0.033460 0.000000 0.000000
# 5 0.000000 0.000000 0.000000 0.000000 -0.230447 0.000000
# 6 0.000000 0.000000 0.000000 0.000000 0.000000 0.080538
#
#
# Mechanical properties :
#
#
# Convention : Reuss Voigt Hill
#
# Bulk Modulus (GPa) = 17.68499 45.77279 31.72889
# Shear Modulus (GPa) = -344.68970 21.67107 -161.50931
#
# Velocity S-wave (km/s) = -13.54560 3.39644 -9.27220
# Velocity P-wave (km/s) = 15.33722 6.30449 9.88645
#
# Compressibility (1/GPa) = 0.05654514
#
# Stress axis : x y z
#
# Youngs Moduli (GPa) = 91.55697 20.02506 111.60284
#
# Poissons Ratio (x) = -0.01108 0.49789
# Poissons Ratio (y) = -0.05066 0.30461
# Poissons Ratio (z) = 0.40846 0.05466
#
# Static dielectric constant tensor:
#      x y z
#    x 1.684860 0.000000 0.000000 
#    y 0.000000 1.668650 0.000000 
#    z 0.000000 0.000000 1.689680 
# 
# From -- ./inp_files/8144.got.cif
#   From: 2010.05.17/outbox.cif.g08.bks.cpg/sg71_5_cif.got.tgz:8144.got - 2010.06.03 16:22:01.
