data_PCOD9518185
_publ_section_title
;
Structure prediction by ZEFSAII (Michael W. Deem and Ramdas Pophale) SiO2 
 PCOD9518185
Probable space group: I M M M
;
_chemical_formula_sum "Si O2"
_cell_formula_units_Z 104
_cell_length_a 13.187820
_cell_length_b 34.439994
_cell_length_c 14.743047
_cell_angle_alpha 90.000000
_cell_angle_beta 90.000000
_cell_angle_gamma 90.000000
_cell_volume 6696.121542
_symmetry_space_group_name_H-M "I M M M"
_symmetry_group_IT_number 71
_symmetry_cell_setting 'orthorhombic'
loop_
_space_group_symop_operation_xyz
x,y,z
-x,-y,z
x,-y,-z
-x,y,-z
-x,-y,-z
x,y,-z
-x,y,z
x,-y,z
1/2+x,1/2+y,1/2+z
1/2-x,1/2-y,1/2+z
1/2+x,1/2-y,1/2-z
1/2-x,1/2+y,1/2-z
1/2-x,1/2-y,1/2-z
1/2+x,1/2+y,1/2-z
1/2-x,1/2+y,1/2+z
1/2+x,1/2-y,1/2+z
loop_
_atom_site_type_symbol
_atom_site_label
_atom_site_fract_x
_atom_site_fract_y
_atom_site_fract_z
Si Si1 0.877155 0.894113 0.603199
Si Si2 0.880720 0.256871 0.394893
Si Si3 0.621587 0.318260 0.786657
Si Si4 0.785680 0.419546 0.606514
Si Si5 0.265305 0.670197 0.396682
Si Si6 0.880667 0.046190 0.240695
Si Si7 0.500000 0.045006 0.889875
O O1 0.839887 0.897044 0.500000
O O2 0.841915 0.854910 0.653649
O O3 0.854120 0.930682 0.667274
O O4 0.000000 0.892003 0.598943
O O5 0.871361 0.243855 0.500000
O O6 0.843386 0.222341 0.330163
O O7 0.819134 0.296532 0.385244
O O8 0.000000 0.263724 0.377780
O O9 0.500000 0.318132 0.791978
O O10 0.655107 0.323596 0.683436
O O11 0.774711 0.429960 0.500000
O O12 0.779600 0.372987 0.613084
O O13 0.694330 0.438173 0.663402
O O14 0.895322 0.434730 0.638960
O O15 0.305766 0.673386 0.500000
O O16 0.000000 0.054532 0.220052
O O17 0.870227 0.000000 0.250925
O O18 0.500000 0.000000 0.862637
O O19 0.500000 0.046568 0.000000
#
# Coordination Sequence:
#
# PCOD9518185 Si02
#       7
#    16  16  16  16  16  16   8
#     4   9  17  30  48  69  94 124 158 197 241 288
#     4   9  18  31  49  72  96 123 158 200 241 281
#     4  10  18  31  49  69  96 129 162 193 231 287
#     4  10  20  33  50  72 101 135 168 203 244 290
#     4  10  20  31  46  70  99 129 157 194 241 287
#     4  10  20  33  49  72 102 132 162 199 246 302
#     4   9  18  32  50  70  93 127 173 217 246 274
#
# _framework density 15.531378999999999
#
# number of rings (size 3 to 8) (size 9 to 14) (size 15 to 20)
#    0.000    2.385    1.538    1.385    1.077    3.692 
#    0.000    3.846    0.000    0.000    0.000    0.538 
#    0.000    1.846    0.000    0.000    0.000    0.000 
#
# Total GULP energy -289708.634762 kJ/mol
# GULP energy per Si atom -5571.319899 kJ/mol
# Density = 1.549603 g / cm^3
# Si number density = 15.531379 Si / 1000 Ang^3
#
#
#
# Elastic Constant Matrix: (Units=GPa)
#
#
# Indices 1 2 3 4 5 6 
#
# 1 49.3939 40.6934 40.5171 0.0000 0.0000 0.0000
# 2 40.6934 111.5379 60.3046 0.0000 0.0000 0.0000
# 3 40.5171 60.3046 100.3641 -0.0001 0.0006 0.0003
# 4 0.0000 0.0000 -0.0001 18.4065 0.0000 0.0000
# 5 0.0000 0.0000 0.0006 0.0000 16.6349 0.0000
# 6 0.0000 0.0000 0.0003 0.0000 0.0000 19.6438
#
#
#
# Elastic Compliance Matrix: (Units=1/GPa)
#
#
# Indices 1 2 3 4 5 6 
#
# 1 0.033912 -0.007362 -0.009267 0.000000 0.000000 0.000000
# 2 -0.007362 0.014878 -0.005967 0.000000 0.000000 0.000000
# 3 -0.009267 -0.005967 0.017290 0.000000 -0.000001 0.000000
# 4 0.000000 0.000000 0.000000 0.054329 0.000000 0.000000
# 5 0.000000 0.000000 -0.000001 0.000000 0.060115 0.000000
# 6 0.000000 0.000000 0.000000 0.000000 0.000000 0.050907
#
#
# Mechanical properties :
#
#
# Convention : Reuss Voigt Hill
#
# Bulk Modulus (GPa) = 47.87517 60.48070 54.17793
# Shear Modulus (GPa) = 17.63136 18.92243 18.27689
#
# Velocity S-wave (km/s) = 3.37294 3.49425 3.43413
# Velocity P-wave (km/s) = 6.78680 7.43675 7.11920
#
# Compressibility (1/GPa) = 0.02088765
#
# Stress axis : x y z
#
# Youngs Moduli (GPa) = 29.48787 67.21343 57.83607
#
# Poissons Ratio (x) = 0.49485 0.53595
# Poissons Ratio (y) = 0.21710 0.34513
# Poissons Ratio (z) = 0.27326 0.40109
#
# Static dielectric constant tensor:
#      x y z
#    x 1.497460 0.000000 0.000000 
#    y 0.000000 1.521040 0.000000 
#    z 0.000000 0.000000 1.513340 
# 
# From -- ./inp_files/22697.got.cif
#   From: 2010.05.17/outbox.cif.g08.bks.cpg/sg71_12_cif.got.tgz:22697.got - 2010.06.03 16:22:01.
