data_PCOD9518660
_publ_section_title
;
Structure prediction by ZEFSAII (Michael W. Deem and Ramdas Pophale) SiO2 
 PCOD9518660
Probable space group: I M M M
;
_chemical_formula_sum "Si O2"
_cell_formula_units_Z 88
_cell_length_a 18.875841
_cell_length_b 9.523168
_cell_length_c 29.313714
_cell_angle_alpha 90.000000
_cell_angle_beta 90.000000
_cell_angle_gamma 90.000000
_cell_volume 5269.368885
_symmetry_space_group_name_H-M "I M M M"
_symmetry_group_IT_number 71
_symmetry_cell_setting 'orthorhombic'
loop_
_space_group_symop_operation_xyz
x,y,z
-x,-y,z
x,-y,-z
-x,y,-z
-x,-y,-z
x,y,-z
-x,y,z
x,-y,z
1/2+x,1/2+y,1/2+z
1/2-x,1/2-y,1/2+z
1/2+x,1/2-y,1/2-z
1/2-x,1/2+y,1/2-z
1/2-x,1/2-y,1/2-z
1/2+x,1/2+y,1/2-z
1/2-x,1/2+y,1/2+z
1/2+x,1/2-y,1/2+z
loop_
_atom_site_type_symbol
_atom_site_label
_atom_site_fract_x
_atom_site_fract_y
_atom_site_fract_z
Si Si1 0.417660 0.166749 0.590311
Si Si2 0.000000 0.340458 0.653229
Si Si3 0.361969 0.336164 0.265259
Si Si4 0.000000 0.660306 0.764174
Si Si5 0.208175 0.333627 0.161469
Si Si6 0.914511 0.159550 0.000000
Si Si7 0.363401 0.337841 0.844790
O O1 0.500000 0.200454 0.603100
O O2 0.358882 0.192457 0.628885
O O3 0.396970 0.255040 0.545665
O O4 0.416217 0.000000 0.580056
O O5 0.000000 0.344292 0.708840
O O6 0.928184 0.259352 0.640219
O O7 0.000000 0.500000 0.636871
O O8 0.368378 0.500000 0.277085
O O9 0.431335 0.246716 0.278005
O O10 0.300803 0.262439 0.294097
O O11 0.356606 0.327891 0.210490
O O12 0.000000 0.500000 0.781488
O O13 0.208439 0.500000 0.173910
O O14 0.284204 0.304230 0.138302
O O15 0.000000 0.152234 0.000000
O O16 0.887050 0.000000 0.000000
O O17 0.380242 0.500000 0.855382
#
# Coordination Sequence:
#
# PCOD9518660 Si02
#       7
#    16   8  16   8  16   8  16
#     4   9  18  32  49  69  93 123 157 190 225 269
#     4   9  17  29  47  65  79 106 151 196 235 275
#     4  10  19  29  42  61  86 120 156 196 239 276
#     4   9  17  29  43  57  77 108 151 196 231 275
#     4  10  20  31  45  66  92 123 156 190 230 277
#     4   9  17  31  51  71  91 118 151 186 229 277
#     4   9  18  32  46  62  88 121 157 195 236 279
#
# _framework density 16.700292000000001
#
# number of rings (size 3 to 8) (size 9 to 14) (size 15 to 20)
#    0.000    2.636    0.000    1.909    1.273    5.455 
#    0.000    0.000    0.000    0.000    0.000    0.000 
#    0.000    0.727    0.000    8.364    0.000    3.273 
#
# Total GULP energy -245210.162417 kJ/mol
# GULP energy per Si atom -5572.958237 kJ/mol
# Density = 1.666228 g / cm^3
# Si number density = 16.700292 Si / 1000 Ang^3
#
#
#
# Elastic Constant Matrix: (Units=GPa)
#
#
# Indices 1 2 3 4 5 6 
#
# 1 113.7900 59.3380 16.4990 0.0000 0.0000 0.0000
# 2 59.3380 76.6641 23.6560 0.0000 0.0000 0.0000
# 3 16.4990 23.6560 34.0260 0.0000 0.0000 0.0000
# 4 0.0000 0.0000 0.0000 13.0620 0.0000 0.0000
# 5 0.0000 0.0000 0.0000 0.0000 11.6059 0.0000
# 6 0.0000 0.0000 0.0000 0.0000 0.0000 20.5139
#
#
#
# Elastic Compliance Matrix: (Units=1/GPa)
#
#
# Indices 1 2 3 4 5 6 
#
# 1 0.014762 -0.011735 0.001000 0.000000 0.000000 0.000000
# 2 -0.011735 0.025934 -0.012340 0.000000 0.000000 0.000000
# 3 0.001000 -0.012340 0.037484 0.000000 0.000000 0.000000
# 4 0.000000 0.000000 0.000000 0.076558 0.000000 0.000000
# 5 0.000000 0.000000 0.000000 0.000000 0.086163 0.000000
# 6 0.000000 0.000000 0.000000 0.000000 0.000000 0.048747
#
#
# Mechanical properties :
#
#
# Convention : Reuss Voigt Hill
#
# Bulk Modulus (GPa) = 31.22003 47.05179 39.13591
# Shear Modulus (GPa) = 14.43104 17.36885 15.89994
#
# Velocity S-wave (km/s) = 2.94278 3.22845 3.08892
# Velocity P-wave (km/s) = 5.50286 6.49096 6.01723
#
# Compressibility (1/GPa) = 0.03203072
#
# Stress axis : x y z
#
# Youngs Moduli (GPa) = 67.73974 38.55887 26.67826
#
# Poissons Ratio (x) = 0.45248 -0.02668
# Poissons Ratio (y) = 0.79490 0.32922
# Poissons Ratio (z) = -0.06775 0.47583
#
# Static dielectric constant tensor:
#      x y z
#    x 1.593040 0.000000 0.000000 
#    y 0.000000 1.561700 0.000000 
#    z 0.000000 0.000000 1.544990 
# 
# From -- ./inp_files/49300.got.cif
#   From: 2010.05.17/outbox.cif.g08.bks.cpg/sg71_25_cif.got.tgz:49300.got - 2010.06.03 16:22:01.
