data_PCOD9518464
_publ_section_title
;
Structure prediction by ZEFSAII (Michael W. Deem and Ramdas Pophale) SiO2 
 PCOD9518464
Probable space group: I M M M
;
_chemical_formula_sum "Si O2"
_cell_formula_units_Z 104
_cell_length_a 22.739805
_cell_length_b 14.710991
_cell_length_c 17.556227
_cell_angle_alpha 90.000000
_cell_angle_beta 90.000000
_cell_angle_gamma 90.000000
_cell_volume 5872.998008
_symmetry_space_group_name_H-M "I M M M"
_symmetry_group_IT_number 71
_symmetry_cell_setting 'orthorhombic'
loop_
_space_group_symop_operation_xyz
x,y,z
-x,-y,z
x,-y,-z
-x,y,-z
-x,-y,-z
x,y,-z
-x,y,z
x,-y,z
1/2+x,1/2+y,1/2+z
1/2-x,1/2-y,1/2+z
1/2+x,1/2-y,1/2-z
1/2-x,1/2+y,1/2-z
1/2-x,1/2-y,1/2-z
1/2+x,1/2+y,1/2-z
1/2-x,1/2+y,1/2+z
1/2+x,1/2-y,1/2+z
loop_
_atom_site_type_symbol
_atom_site_label
_atom_site_fract_x
_atom_site_fract_y
_atom_site_fract_z
Si Si1 0.713502 0.686056 0.089010
Si Si2 0.636858 0.165915 0.172787
Si Si3 0.361444 0.500000 0.087329
Si Si4 0.567903 0.166185 0.590550
Si Si5 0.682097 0.899502 0.328525
Si Si6 0.429723 0.500000 0.761792
Si Si7 0.430858 0.305118 0.282328
Si Si8 0.429883 0.000000 0.091366
O O1 0.676600 0.771902 0.118398
O O2 0.676007 0.592631 0.098062
O O3 0.773277 0.672755 0.136122
O O4 0.727263 0.695167 0.000000
O O5 0.674134 0.116782 0.239009
O O6 0.597603 0.236746 0.221647
O O7 0.599495 0.089863 0.128415
O O8 0.412243 0.500000 0.149896
O O9 0.382678 0.500000 0.000000
O O10 0.576206 0.170086 0.500000
O O11 0.500000 0.135864 0.604855
O O12 0.618503 0.107556 0.630600
O O13 0.575083 0.262480 0.633726
O O14 0.705703 0.000000 0.343334
O O15 0.500000 0.500000 0.752348
O O16 0.406349 0.593443 0.725695
O O17 0.500000 0.308028 0.265200
O O18 0.500000 0.000000 0.106331
O O19 0.421080 0.000000 0.000000
#
# Coordination Sequence:
#
# PCOD9518464 Si02
#       8
#    16  16   8  16  16   8  16   8
#     4  11  22  37  59  82 114 151 188 239 290 347
#     4  11  21  39  59  83 113 152 199 236 284 342
#     4  10  20  34  53  80 110 145 181 224 290 342
#     4   9  19  35  54  79 113 149 188 239 296 351
#     4  11  22  37  57  85 113 149 195 241 295 347
#     4  10  18  33  54  78 108 142 185 231 280 335
#     4   9  18  32  54  80 108 145 186 233 286 341
#     4  11  24  41  62  89 123 160 198 242 289 345
#
# _framework density 17.708162000000002
#
# number of rings (size 3 to 8) (size 9 to 14) (size 15 to 20)
#    0.000    1.769    3.077    1.846    0.000    2.000 
#    0.000    1.154    0.000    2.308    0.000    0.000 
#    0.000    0.000    0.000    0.000    0.000    0.000 
#
# Total GULP energy -289924.221155 kJ/mol
# GULP energy per Si atom -5575.465791 kJ/mol
# Density = 1.766786 g / cm^3
# Si number density = 17.708162 Si / 1000 Ang^3
#
#
#
# Elastic Constant Matrix: (Units=GPa)
#
#
# Indices 1 2 3 4 5 6 
#
# 1 45.4456 39.8050 28.9730 0.0000 0.0000 0.0000
# 2 39.8050 110.8001 35.4536 0.0000 0.0000 0.0000
# 3 28.9730 35.4536 82.2097 0.0000 0.0000 0.0000
# 4 0.0000 0.0000 0.0000 9.2941 0.0000 0.0000
# 5 0.0000 0.0000 0.0000 0.0000 29.7071 0.0000
# 6 0.0000 0.0000 0.0000 0.0000 0.0000 29.5084
#
#
#
# Elastic Compliance Matrix: (Units=1/GPa)
#
#
# Indices 1 2 3 4 5 6 
#
# 1 0.036462 -0.010426 -0.008354 0.000000 0.000000 0.000000
# 2 -0.010426 0.013451 -0.002127 0.000000 0.000000 0.000000
# 3 -0.008354 -0.002127 0.016025 0.000000 0.000000 0.000000
# 4 0.000000 0.000000 0.000000 0.107595 0.000000 0.000000
# 5 0.000000 0.000000 0.000000 0.000000 0.033662 0.000000
# 6 0.000000 0.000000 0.000000 0.000000 0.000000 0.033889
#
#
# Mechanical properties :
#
#
# Convention : Reuss Voigt Hill
#
# Bulk Modulus (GPa) = 41.44962 49.65761 45.55361
# Shear Modulus (GPa) = 17.18569 22.65016 19.91793
#
# Velocity S-wave (km/s) = 3.11866 3.58030 3.35742
# Velocity P-wave (km/s) = 6.03539 6.72269 6.38829
#
# Compressibility (1/GPa) = 0.02412567
#
# Stress axis : x y z
#
# Youngs Moduli (GPa) = 27.42565 74.34253 62.40130
#
# Poissons Ratio (x) = 0.77509 0.52130
# Poissons Ratio (y) = 0.28594 0.13270
# Poissons Ratio (z) = 0.22911 0.15809
#
# Static dielectric constant tensor:
#      x y z
#    x 1.604620 0.000000 0.000000 
#    y 0.000000 1.616030 0.000000 
#    z 0.000000 0.000000 1.576170 
# 
# From -- ./inp_files/47375.got.cif
#   From: 2010.05.17/outbox.cif.g08.bks.cpg/sg71_24_cif.got.tgz:47375.got - 2010.06.03 16:22:01.
