data_PCOD9518714
_publ_section_title
;
Structure prediction by ZEFSAII (Michael W. Deem and Ramdas Pophale) SiO2 
 PCOD9518714
Probable space group: I M M M
;
_chemical_formula_sum "Si O2"
_cell_formula_units_Z 104
_cell_length_a 14.054893
_cell_length_b 22.806197
_cell_length_c 20.863588
_cell_angle_alpha 90.000000
_cell_angle_beta 90.000000
_cell_angle_gamma 90.000000
_cell_volume 6687.586511
_symmetry_space_group_name_H-M "I M M M"
_symmetry_group_IT_number 71
_symmetry_cell_setting 'orthorhombic'
loop_
_space_group_symop_operation_xyz
x,y,z
-x,-y,z
x,-y,-z
-x,y,-z
-x,-y,-z
x,y,-z
-x,y,z
x,-y,z
1/2+x,1/2+y,1/2+z
1/2-x,1/2-y,1/2+z
1/2+x,1/2-y,1/2-z
1/2-x,1/2+y,1/2-z
1/2-x,1/2-y,1/2-z
1/2+x,1/2+y,1/2-z
1/2-x,1/2+y,1/2+z
1/2+x,1/2-y,1/2+z
loop_
_atom_site_type_symbol
_atom_site_label
_atom_site_fract_x
_atom_site_fract_y
_atom_site_fract_z
Si Si1 0.689447 0.358980 0.926824
Si Si2 0.890194 0.765078 0.255500
Si Si3 0.884272 0.601345 0.431080
Si Si4 0.609929 0.767590 0.097325
Si Si5 0.219235 0.659513 0.202935
Si Si6 0.000000 0.067430 0.422744
Si Si7 0.112678 0.566832 0.709572
O O1 0.662701 0.290048 0.926455
O O2 0.764119 0.363706 0.868973
O O3 0.595100 0.395876 0.906856
O O4 0.715944 0.375752 0.000000
O O5 0.887595 0.733486 0.325305
O O6 0.844031 0.718972 0.206247
O O7 0.820387 0.820135 0.266400
O O8 0.000000 0.779228 0.241475
O O9 0.852694 0.577149 0.500000
O O10 0.855379 0.669628 0.426175
O O11 0.855911 0.571581 0.364762
O O12 0.000000 0.599760 0.431317
O O13 0.500000 0.761631 0.077760
O O14 0.169655 0.611266 0.246483
O O15 0.000000 0.064512 0.500000
O O16 0.000000 0.000000 0.398737
O O17 0.123720 0.500000 0.731071
O O18 0.000000 0.581896 0.711735
#
# Coordination Sequence:
#
# PCOD9518714 Si02
#       7
#    16  16  16  16  16   8  16
#     4  10  19  29  45  71  97 124 162 204 247 296
#     4   9  17  30  49  71  97 125 160 196 239 292
#     4   9  16  25  42  69  98 126 151 183 233 289
#     4   9  14  24  44  68  94 121 150 185 229 292
#     4  10  19  30  50  72  94 129 166 201 241 287
#     4   9  18  32  46  62  94 136 164 192 250 316
#     4  10  20  34  50  68  96 133 169 202 239 290
#
# _framework density 15.551201000000001
#
# number of rings (size 3 to 8) (size 9 to 14) (size 15 to 20)
#    0.000    2.538    2.308    0.923    1.077    1.538 
#    0.000    1.538    0.000    1.846    0.000    1.077 
#    0.000    0.000    0.000    1.385    0.000    0.154 
#
# Total GULP energy -289541.404935 kJ/mol
# GULP energy per Si atom -5568.103941 kJ/mol
# Density = 1.551581 g / cm^3
# Si number density = 15.551201 Si / 1000 Ang^3
#
#
#
# Elastic Constant Matrix: (Units=GPa)
#
#
# Indices 1 2 3 4 5 6 
#
# 1 63.7948 30.8496 32.3874 0.0000 0.0000 0.0000
# 2 30.8496 58.4929 35.7026 0.0000 0.0000 0.0000
# 3 32.3874 35.7026 94.8209 0.0000 0.0000 0.0000
# 4 0.0000 0.0000 0.0000 10.6459 0.0000 0.0000
# 5 0.0000 0.0000 0.0000 0.0000 15.0066 0.0000
# 6 0.0000 0.0000 0.0000 0.0000 0.0000 15.1889
#
#
#
# Elastic Compliance Matrix: (Units=1/GPa)
#
#
# Indices 1 2 3 4 5 6 
#
# 1 0.022218 -0.009201 -0.004125 0.000000 0.000000 0.000000
# 2 -0.009201 0.026007 -0.006650 0.000000 0.000000 0.000000
# 3 -0.004125 -0.006650 0.014459 0.000000 0.000000 0.000000
# 4 0.000000 0.000000 0.000000 0.093933 0.000000 0.000000
# 5 0.000000 0.000000 0.000000 0.000000 0.066637 0.000000
# 6 0.000000 0.000000 0.000000 0.000000 0.000000 0.065837
#
#
# Mechanical properties :
#
#
# Convention : Reuss Voigt Hill
#
# Bulk Modulus (GPa) = 43.98619 46.10974 45.04797
# Shear Modulus (GPa) = 14.85351 16.04624 15.44987
#
# Velocity S-wave (km/s) = 3.09388 3.21570 3.15538
# Velocity P-wave (km/s) = 6.41163 6.59563 6.50428
#
# Compressibility (1/GPa) = 0.02273441
#
# Stress axis : x y z
#
# Youngs Moduli (GPa) = 45.00763 38.45051 69.16135
#
# Poissons Ratio (x) = 0.35376 0.28528
# Poissons Ratio (y) = 0.41409 0.45992
# Poissons Ratio (z) = 0.18565 0.25569
#
# Static dielectric constant tensor:
#      x y z
#    x 1.512250 0.000000 0.000000 
#    y 0.000000 1.533160 0.000000 
#    z 0.000000 0.000000 1.558470 
# 
# From -- ./inp_files/53366.got.cif
#   From: 2010.05.17/outbox.cif.g08.bks.cpg/sg71_27_cif.got.tgz:53366.got - 2010.06.03 16:22:01.
