data_PCOD9518661
_publ_section_title
;
Structure prediction by ZEFSAII (Michael W. Deem and Ramdas Pophale) SiO2 
 PCOD9518661
Probable space group: I M M M
;
_chemical_formula_sum "Si O2"
_cell_formula_units_Z 72
_cell_length_a 15.406554
_cell_length_b 34.000158
_cell_length_c 7.560821
_cell_angle_alpha 90.000000
_cell_angle_beta 90.000000
_cell_angle_gamma 90.000000
_cell_volume 3960.549104
_symmetry_space_group_name_H-M "I M M M"
_symmetry_group_IT_number 71
_symmetry_cell_setting 'orthorhombic'
loop_
_space_group_symop_operation_xyz
x,y,z
-x,-y,z
x,-y,-z
-x,y,-z
-x,-y,-z
x,y,-z
-x,y,z
x,-y,z
1/2+x,1/2+y,1/2+z
1/2-x,1/2-y,1/2+z
1/2+x,1/2-y,1/2-z
1/2-x,1/2+y,1/2-z
1/2-x,1/2-y,1/2-z
1/2+x,1/2+y,1/2-z
1/2-x,1/2+y,1/2+z
1/2+x,1/2-y,1/2+z
loop_
_atom_site_type_symbol
_atom_site_label
_atom_site_fract_x
_atom_site_fract_y
_atom_site_fract_z
Si Si1 0.105424 0.500000 0.703618
Si Si2 0.098277 0.271076 0.213987
Si Si3 0.403829 0.679912 0.792144
Si Si4 0.901022 0.585638 0.713302
Si Si5 0.279633 0.840792 0.711759
O O1 0.136481 0.500000 0.500000
O O2 0.128265 0.457451 0.781563
O O3 0.000000 0.500000 0.699924
O O4 0.113397 0.226720 0.276992
O O5 0.167183 0.302895 0.279268
O O6 0.000000 0.282528 0.266345
O O7 0.100825 0.270301 0.000000
O O8 0.500000 0.672564 0.714897
O O9 0.318645 0.658727 0.717669
O O10 0.409233 0.670251 0.000000
O O11 0.905281 0.582563 0.500000
O O12 0.835740 0.620426 0.756509
O O13 0.000000 0.593829 0.775024
O O14 0.273391 0.835756 0.500000
#
# Coordination Sequence:
#
# PCOD9518661 Si02
#       5
#     8  16  16  16  16
#     4   7  12  26  45  63  86 113 136 160 195 241
#     4   9  17  28  41  58  82 111 140 173 215 256
#     4   9  18  31  44  58  79 111 150 185 213 243
#     4   9  17  29  46  67  89 113 139 165 197 245
#     4  10  19  29  42  62  88 114 139 174 217 251
#
# _framework density 18.179297999999999
#
# number of rings (size 3 to 8) (size 9 to 14) (size 15 to 20)
#    0.000    3.000    0.000    2.667    0.000    3.111 
#    0.000    2.778    0.000    2.000    0.000    0.778 
#    0.000    6.222    0.000    0.000    0.000    0.000 
#
# Total GULP energy -200639.261891 kJ/mol
# GULP energy per Si atom -5573.312830 kJ/mol
# Density = 1.813792 g / cm^3
# Si number density = 18.179298 Si / 1000 Ang^3
#
#
#
# Elastic Constant Matrix: (Units=GPa)
#
#
# Indices 1 2 3 4 5 6 
#
# 1 148.4762 81.2882 6.9569 -0.0013 0.0027 -0.0001
# 2 81.2882 72.5746 -8.0493 -0.0002 0.0009 0.0005
# 3 6.9569 -8.0493 41.9011 -0.0138 0.0023 0.0013
# 4 -0.0013 -0.0002 -0.0138 -0.1078 -0.0032 0.0071
# 5 0.0027 0.0009 0.0023 -0.0032 7.1753 -0.0006
# 6 -0.0001 0.0005 0.0013 0.0071 -0.0006 9.6617
#
#
#
# Elastic Compliance Matrix: (Units=1/GPa)
#
#
# Indices 1 2 3 4 5 6 
#
# 1 0.019529 -0.022717 -0.007606 0.000785 -0.000002 0.000002
# 2 -0.022717 0.040504 0.011552 -0.001289 -0.000001 -0.000003
# 3 -0.007606 0.011552 0.027347 -0.003427 -0.000009 -0.000002
# 4 0.000785 -0.001289 -0.003427 -9.274750 -0.004078 0.006832
# 5 -0.000002 -0.000001 -0.000009 -0.004078 0.139365 0.000012
# 6 0.000002 -0.000003 -0.000002 0.006832 0.000012 0.103496
#
#
# Mechanical properties :
#
#
# Convention : Reuss Voigt Hill
#
# Bulk Modulus (GPa) = 20.06481 47.03817 33.55149
# Shear Modulus (GPa) = -0.56241 15.52959 7.48359
#
# Velocity S-wave (km/s) = -0.55681 2.92592 2.03113
# Velocity P-wave (km/s) = 3.26309 6.11109 4.89863
#
# Compressibility (1/GPa) = 0.04983850
#
# Stress axis : x y z
#
# Youngs Moduli (GPa) = 51.20707 24.68863 36.56755
#
# Poissons Ratio (x) = 0.56085 0.27813
# Poissons Ratio (y) = 1.16326 -0.42244
# Poissons Ratio (z) = 0.38948 -0.28521
#
# Static dielectric constant tensor:
#      x y z
#    x 1.657450 0.000000 0.000000 
#    y 0.000000 1.617920 0.000000 
#    z 0.000000 0.000000 1.694520 
# 
# From -- ./inp_files/6100.got.cif
#   From: 2010.05.17/outbox.cif.g08.bks.cpg/sg71_4_cif.got.tgz:6100.got - 2010.06.03 16:22:01.
