data_PCOD9518601
_publ_section_title
;
Structure prediction by ZEFSAII (Michael W. Deem and Ramdas Pophale) SiO2 
 PCOD9518601
Probable space group: I M M M
;
_chemical_formula_sum "Si O2"
_cell_formula_units_Z 72
_cell_length_a 9.189298
_cell_length_b 32.082897
_cell_length_c 18.847388
_cell_angle_alpha 90.000000
_cell_angle_beta 90.000000
_cell_angle_gamma 90.000000
_cell_volume 5556.573760
_symmetry_space_group_name_H-M "I M M M"
_symmetry_group_IT_number 71
_symmetry_cell_setting 'orthorhombic'
loop_
_space_group_symop_operation_xyz
x,y,z
-x,-y,z
x,-y,-z
-x,y,-z
-x,-y,-z
x,y,-z
-x,y,z
x,-y,z
1/2+x,1/2+y,1/2+z
1/2-x,1/2-y,1/2+z
1/2+x,1/2-y,1/2-z
1/2-x,1/2+y,1/2-z
1/2-x,1/2-y,1/2-z
1/2+x,1/2+y,1/2-z
1/2-x,1/2+y,1/2+z
1/2+x,1/2-y,1/2+z
loop_
_atom_site_type_symbol
_atom_site_label
_atom_site_fract_x
_atom_site_fract_y
_atom_site_fract_z
Si Si1 0.832456 0.500000 0.586180
Si Si2 0.173490 0.711746 0.209312
Si Si3 0.172853 0.914985 0.084532
Si Si4 0.326955 0.162951 0.844803
Si Si5 0.173869 0.247895 0.416962
O O1 0.831764 0.500000 0.500000
O O2 0.750045 0.457876 0.607619
O O3 0.000000 0.500000 0.609594
O O4 0.250000 0.750000 0.250000
O O5 0.200551 0.672883 0.261690
O O6 0.241808 0.714522 0.131403
O O7 0.000000 0.718081 0.206648
O O8 0.238349 0.875672 0.125416
O O9 0.000000 0.918090 0.094417
O O10 0.200431 0.909487 0.000000
O O11 0.500000 0.155752 0.854096
O O12 0.291119 0.205483 0.888149
O O13 0.207731 0.244900 0.500000
O O14 0.000000 0.242670 0.407181
#
# Coordination Sequence:
#
# PCOD9518601 Si02
#       5
#     8  16  16  16  16
#     4   9  17  29  43  55  71  99 128 153 188 231
#     4   9  17  28  40  54  74 100 129 161 196 232
#     4  10  19  28  39  57  78  98 125 162 196 225
#     4   9  17  28  40  54  74 101 131 160 191 229
#     4   9  17  28  41  57  77 101 130 164 198 232
#
# _framework density 12.957625
#
# number of rings (size 3 to 8) (size 9 to 14) (size 15 to 20)
#    0.000    2.778    0.000    3.667    0.000    8.444 
#    0.000    0.000    0.000    0.000    0.000    0.000 
#    0.000    0.000    0.000    1.000    0.000   18.667 
#
# Total GULP energy -200455.624365 kJ/mol
# GULP energy per Si atom -5568.211788 kJ/mol
# Density = 1.292813 g / cm^3
# Si number density = 12.957625 Si / 1000 Ang^3
#
#
#
# Elastic Constant Matrix: (Units=GPa)
#
#
# Indices 1 2 3 4 5 6 
#
# 1 65.3041 58.5985 50.3146 0.0000 0.0000 0.0000
# 2 58.5985 80.2833 47.3341 0.0000 0.0000 0.0000
# 3 50.3146 47.3341 88.4734 0.0000 0.0000 0.0000
# 4 0.0000 0.0000 0.0000 18.6022 0.0000 0.0000
# 5 0.0000 0.0000 0.0000 0.0000 22.5058 0.0000
# 6 0.0000 0.0000 0.0000 0.0000 0.0000 22.8992
#
#
#
# Elastic Compliance Matrix: (Units=1/GPa)
#
#
# Indices 1 2 3 4 5 6 
#
# 1 0.054261 -0.031277 -0.014124 0.000000 0.000000 0.000000
# 2 -0.031277 0.036224 -0.001593 0.000000 0.000000 0.000000
# 3 -0.014124 -0.001593 0.020188 0.000000 0.000000 0.000000
# 4 0.000000 0.000000 0.000000 0.053757 0.000000 0.000000
# 5 0.000000 0.000000 0.000000 0.000000 0.044433 0.000000
# 6 0.000000 0.000000 0.000000 0.000000 0.000000 0.043670
#
#
# Mechanical properties :
#
#
# Convention : Reuss Voigt Hill
#
# Bulk Modulus (GPa) = 59.93972 60.72836 60.33404
# Shear Modulus (GPa) = 14.20116 17.98900 16.09508
#
# Velocity S-wave (km/s) = 3.31413 3.73003 3.52821
# Velocity P-wave (km/s) = 7.81046 8.09441 7.95370
#
# Compressibility (1/GPa) = 0.01668343
#
# Stress axis : x y z
#
# Youngs Moduli (GPa) = 18.42937 27.60572 49.53520
#
# Poissons Ratio (x) = 0.86344 0.69966
# Poissons Ratio (y) = 0.57642 0.07891
# Poissons Ratio (z) = 0.26031 0.04398
#
# Static dielectric constant tensor:
#      x y z
#    x 1.431050 0.000000 0.000000 
#    y 0.000000 1.400610 0.000000 
#    z 0.000000 0.000000 1.437190 
# 
# From -- ./inp_files/8172.got.cif
#   From: 2010.05.17/outbox.cif.g08.bks.cpg/sg71_5_cif.got.tgz:8172.got - 2010.06.03 16:22:01.
