data_PCOD9518630
_publ_section_title
;
Structure prediction by ZEFSAII (Michael W. Deem and Ramdas Pophale) SiO2 
 PCOD9518630
Probable space group: I M M M
;
_chemical_formula_sum "Si O2"
_cell_formula_units_Z 88
_cell_length_a 31.119828
_cell_length_b 17.783633
_cell_length_c 7.370652
_cell_angle_alpha 90.000000
_cell_angle_beta 90.000000
_cell_angle_gamma 90.000000
_cell_volume 4079.092765
_symmetry_space_group_name_H-M "I M M M"
_symmetry_group_IT_number 71
_symmetry_cell_setting 'orthorhombic'
loop_
_space_group_symop_operation_xyz
x,y,z
-x,-y,z
x,-y,-z
-x,y,-z
-x,-y,-z
x,y,-z
-x,y,z
x,-y,z
1/2+x,1/2+y,1/2+z
1/2-x,1/2-y,1/2+z
1/2+x,1/2-y,1/2-z
1/2-x,1/2+y,1/2-z
1/2-x,1/2-y,1/2-z
1/2+x,1/2+y,1/2-z
1/2-x,1/2+y,1/2+z
1/2+x,1/2-y,1/2+z
loop_
_atom_site_type_symbol
_atom_site_label
_atom_site_fract_x
_atom_site_fract_y
_atom_site_fract_z
Si Si1 0.049258 0.417694 0.278855
Si Si2 0.195516 0.413582 0.218113
Si Si3 0.050310 0.000000 0.721248
Si Si4 0.711285 0.410124 0.794888
Si Si5 0.117385 0.301107 0.715894
Si Si6 0.883130 0.129778 0.277539
O O1 0.049730 0.416659 0.500000
O O2 0.065416 0.500000 0.223482
O O3 0.079150 0.352257 0.210990
O O4 0.000000 0.410039 0.223561
O O5 0.185311 0.500000 0.280566
O O6 0.242731 0.388699 0.287798
O O7 0.160378 0.350139 0.257048
O O8 0.198992 0.418360 0.000000
O O9 0.078697 0.926997 0.777470
O O10 0.049383 0.000000 0.500000
O O11 0.000000 0.000000 0.779146
O O12 0.714365 0.500000 0.807149
O O13 0.664590 0.394288 0.715307
O O14 0.710177 0.377862 0.000000
O O15 0.112095 0.294922 0.500000
O O16 0.113654 0.216111 0.782333
O O17 0.883192 0.125987 0.500000
#
# Coordination Sequence:
#
# PCOD9518630 Si02
#       6
#    16  16   8  16  16  16
#     4   8  14  25  40  57  81 116 149 172 207 268
#     4   9  18  31  47  66  88 122 163 194 222 268
#     4   9  16  26  42  66  97 129 159 197 242 279
#     4   8  13  25  44  60  81 119 161 189 216 272
#     4  10  19  28  43  70  98 119 146 192 242 278
#     4   9  16  26  41  63  91 122 154 189 232 281
#
# _framework density 21.573426000000001
#
# number of rings (size 3 to 8) (size 9 to 14) (size 15 to 20)
#    0.000    3.182    0.909    2.182    0.000    2.545 
#    0.000    3.636    0.000    0.545    0.000    3.182 
#    0.000    0.727    0.000    0.000    0.000    0.000 
#
# Total GULP energy -245206.738619 kJ/mol
# GULP energy per Si atom -5572.880423 kJ/mol
# Density = 2.152432 g / cm^3
# Si number density = 21.573426 Si / 1000 Ang^3
#
#
#
# Elastic Constant Matrix: (Units=GPa)
#
#
# Indices 1 2 3 4 5 6 
#
# 1 164.2283 122.4177 -2.4199 0.0000 0.0000 0.0000
# 2 122.4177 164.2297 3.2256 0.0000 0.0000 0.0000
# 3 -2.4199 3.2256 76.9009 0.0000 0.0000 0.0000
# 4 0.0000 0.0000 0.0000 2.9349 0.0000 0.0000
# 5 0.0000 0.0000 0.0000 0.0000 11.5603 0.0000
# 6 0.0000 0.0000 0.0000 0.0000 0.0000 -94.3701
#
#
#
# Elastic Compliance Matrix: (Units=1/GPa)
#
#
# Indices 1 2 3 4 5 6 
#
# 1 0.013760 -0.010274 0.000864 0.000000 0.000000 0.000000
# 2 -0.010274 0.013765 -0.000901 0.000000 0.000000 0.000000
# 3 0.000864 -0.000901 0.013069 0.000000 0.000000 0.000000
# 4 0.000000 0.000000 0.000000 0.340732 0.000000 0.000000
# 5 0.000000 0.000000 0.000000 0.000000 0.086503 0.000000
# 6 0.000000 0.000000 0.000000 0.000000 0.000000 -0.010597
#
#
# Mechanical properties :
#
#
# Convention : Reuss Voigt Hill
#
# Bulk Modulus (GPa) = 50.06863 72.42285 61.24574
# Shear Modulus (GPa) = 10.31969 2.83405 6.57687
#
# Velocity S-wave (km/s) = 2.18950 1.14740 1.74792
# Velocity P-wave (km/s) = 5.44525 5.94968 5.70304
#
# Compressibility (1/GPa) = 0.01997259
#
# Stress axis : x y z
#
# Youngs Moduli (GPa) = 72.67467 72.64910 76.51868
#
# Poissons Ratio (x) = 0.74638 -0.06611
# Poissons Ratio (y) = 0.74664 0.06892
# Poissons Ratio (z) = -0.06279 0.06543
#
# Static dielectric constant tensor:
#      x y z
#    x 1.786130 0.000000 0.000000 
#    y 0.000000 1.760440 0.000000 
#    z 0.000000 0.000000 1.909830 
# 
# From -- ./inp_files/16636.got.cif
#   From: 2010.05.17/outbox.cif.g08.bks.cpg/sg71_9_cif.got.tgz:16636.got - 2010.06.03 16:22:01.
