data_PCOD9518315
_publ_section_title
;
Structure prediction by ZEFSAII (Michael W. Deem and Ramdas Pophale) SiO2 
 PCOD9518315
Probable space group: I M M M
;
_chemical_formula_sum "Si O2"
_cell_formula_units_Z 64
_cell_length_a 7.967430
_cell_length_b 25.752998
_cell_length_c 15.143993
_cell_angle_alpha 90.000000
_cell_angle_beta 90.000000
_cell_angle_gamma 90.000000
_cell_volume 3107.323367
_symmetry_space_group_name_H-M "I M M M"
_symmetry_group_IT_number 71
_symmetry_cell_setting 'orthorhombic'
loop_
_space_group_symop_operation_xyz
x,y,z
-x,-y,z
x,-y,-z
-x,y,-z
-x,-y,-z
x,y,-z
-x,y,z
x,-y,z
1/2+x,1/2+y,1/2+z
1/2-x,1/2-y,1/2+z
1/2+x,1/2-y,1/2-z
1/2-x,1/2+y,1/2-z
1/2-x,1/2-y,1/2-z
1/2+x,1/2+y,1/2-z
1/2-x,1/2+y,1/2+z
1/2+x,1/2-y,1/2+z
loop_
_atom_site_type_symbol
_atom_site_label
_atom_site_fract_x
_atom_site_fract_y
_atom_site_fract_z
Si Si1 0.294260 0.887255 0.352081
Si Si2 0.692488 0.000000 0.636503
Si Si3 0.705434 0.807225 0.500000
Si Si4 0.307530 0.500000 0.333287
Si Si5 0.199977 0.189214 0.000000
Si Si6 0.699838 0.890294 0.149032
O O1 0.500000 0.889007 0.352901
O O2 0.242205 0.840317 0.414477
O O3 0.241830 0.881409 0.250105
O O4 0.234614 0.943766 0.386858
O O5 0.500000 0.000000 0.605810
O O6 0.696460 0.000000 0.743999
O O7 0.500000 0.806408 0.500000
O O8 0.765826 0.748108 0.500000
O O9 0.500000 0.500000 0.304261
O O10 0.271386 0.554000 0.381528
O O11 0.253358 0.156335 0.085167
O O12 0.000000 0.192125 0.000000
O O13 0.500000 0.895205 0.150179
#
# Coordination Sequence:
#
# PCOD9518315 Si02
#       6
#    16   8   8   8   8  16
#     4   8  15  29  51  78 107 139 172 212 261 309
#     4   8  14  27  49  79 111 140 173 207 250 311
#     4   9  18  32  50  77 110 138 175 225 264 299
#     4  10  18  31  54  83 110 134 166 209 261 317
#     4  11  23  36  51  75 104 138 182 225 264 307
#     4  10  20  36  56  78 106 139 174 213 260 313
#
# _framework density 20.596503999999999
#
# number of rings (size 3 to 8) (size 9 to 14) (size 15 to 20)
#    0.000    2.750    0.000    3.750    0.000    2.000 
#    0.000    5.000    0.000   13.500    0.000   14.000 
#    0.000    0.000    0.000    0.000    0.000    0.000 
#
# Total GULP energy -178515.110459 kJ/mol
# GULP energy per Si atom -5578.597202 kJ/mol
# Density = 2.054963 g / cm^3
# Si number density = 20.596504 Si / 1000 Ang^3
#
#
#
# Elastic Constant Matrix: (Units=GPa)
#
#
# Indices 1 2 3 4 5 6 
#
# 1 42.3205 14.8302 11.2244 0.0000 0.0000 0.0000
# 2 14.8302 245.5765 100.8788 0.0001 0.0000 0.0000
# 3 11.2244 100.8788 112.2547 0.0003 0.0000 0.0000
# 4 0.0000 0.0001 0.0003 34.9283 0.0000 0.0000
# 5 0.0000 0.0000 0.0000 0.0000 5.7593 0.0000
# 6 0.0000 0.0000 0.0000 0.0000 0.0000 17.6849
#
#
#
# Elastic Compliance Matrix: (Units=1/GPa)
#
#
# Indices 1 2 3 4 5 6 
#
# 1 0.024359 -0.000746 -0.001765 0.000000 0.000000 0.000000
# 2 -0.000746 0.006478 -0.005747 0.000000 0.000000 0.000000
# 3 -0.001765 -0.005747 0.014249 0.000000 0.000000 0.000000
# 4 0.000000 0.000000 0.000000 0.028630 0.000000 0.000000
# 5 0.000000 0.000000 0.000000 0.000000 0.173634 0.000000
# 6 0.000000 0.000000 0.000000 0.000000 0.000000 0.056545
#
#
# Mechanical properties :
#
#
# Convention : Reuss Voigt Hill
#
# Bulk Modulus (GPa) = 35.00194 72.66873 53.83533
# Shear Modulus (GPa) = 15.15455 29.88904 22.52180
#
# Velocity S-wave (km/s) = 2.71547 3.81356 3.31036
# Velocity P-wave (km/s) = 5.18293 7.39930 6.38797
#
# Compressibility (1/GPa) = 0.02856985
#
# Stress axis : x y z
#
# Youngs Moduli (GPa) = 41.05292 154.37467 70.17947
#
# Poissons Ratio (x) = 0.11513 0.12390
# Poissons Ratio (y) = 0.03062 0.40330
# Poissons Ratio (z) = 0.07248 0.88715
#
# Static dielectric constant tensor:
#      x y z
#    x 1.746500 0.000000 0.000000 
#    y 0.000000 1.745920 0.000000 
#    z 0.000000 0.000000 1.852400 
# 
# From -- ./inp_files/7575.got.cif
#   From: 2010.05.17/outbox.cif.g08.bks.cpg/sg71_4_cif.got.tgz:7575.got - 2010.06.03 16:22:01.
