data_PCOD9518918
_publ_section_title
;
Structure prediction by ZEFSAII (Michael W. Deem and Ramdas Pophale) SiO2 
 PCOD9518918
Probable space group: I M M M
;
_chemical_formula_sum "Si O2"
_cell_formula_units_Z 80
_cell_length_a 34.724231
_cell_length_b 14.920499
_cell_length_c 7.514780
_cell_angle_alpha 90.000000
_cell_angle_beta 90.000000
_cell_angle_gamma 90.000000
_cell_volume 3893.428965
_symmetry_space_group_name_H-M "I M M M"
_symmetry_group_IT_number 71
_symmetry_cell_setting 'orthorhombic'
loop_
_space_group_symop_operation_xyz
x,y,z
-x,-y,z
x,-y,-z
-x,y,-z
-x,-y,-z
x,y,-z
-x,y,z
x,-y,z
1/2+x,1/2+y,1/2+z
1/2-x,1/2-y,1/2+z
1/2+x,1/2-y,1/2-z
1/2-x,1/2+y,1/2-z
1/2-x,1/2-y,1/2-z
1/2+x,1/2+y,1/2-z
1/2-x,1/2+y,1/2+z
1/2+x,1/2-y,1/2+z
loop_
_atom_site_type_symbol
_atom_site_label
_atom_site_fract_x
_atom_site_fract_y
_atom_site_fract_z
Si Si1 0.745493 0.898505 0.288687
Si Si2 0.042785 0.896528 0.714907
Si Si3 0.042982 0.603511 0.217279
Si Si4 0.810119 0.759574 0.215327
Si Si5 0.603230 0.753585 0.291914
O O1 0.738957 0.904836 0.500000
O O2 0.786191 0.848398 0.263374
O O3 0.713731 0.827574 0.219493
O O4 0.744220 0.000000 0.217134
O O5 0.042978 0.894203 0.500000
O O6 0.077111 0.834619 0.779098
O O7 0.000000 0.866056 0.774075
O O8 0.047380 0.000000 0.769065
O O9 0.048503 0.500000 0.267218
O O10 0.076688 0.667292 0.284484
O O11 0.000000 0.631906 0.274427
O O12 0.042948 0.606818 0.000000
O O13 0.853937 0.758453 0.281519
O O14 0.810181 0.756890 0.000000
O O15 0.608595 0.775171 0.500000
#
# Coordination Sequence:
#
# PCOD9518918 Si02
#       5
#    16  16  16  16  16
#     4   9  18  34  54  71  91 125 163 194 230 282
#     4   9  19  35  51  67  92 129 168 200 233 276
#     4   8  14  25  42  66  95 124 153 185 224 273
#     4   9  19  33  48  72 101 123 151 195 242 285
#     4  10  19  30  48  74 100 124 153 195 243 284
#
# _framework density 20.547442
#
# number of rings (size 3 to 8) (size 9 to 14) (size 15 to 20)
#    0.000    3.000    0.000    1.800    0.000    4.400 
#    0.000    9.000    0.000    0.600    0.000    5.600 
#    0.000    0.000    0.000    0.000    0.000    0.000 
#
# Total GULP energy -223136.968303 kJ/mol
# GULP energy per Si atom -5578.424208 kJ/mol
# Density = 2.050068 g / cm^3
# Si number density = 20.547442 Si / 1000 Ang^3
#
#
#
# Elastic Constant Matrix: (Units=GPa)
#
#
# Indices 1 2 3 4 5 6 
#
# 1 176.0657 76.6290 -7.6228 0.0000 0.0000 0.0000
# 2 76.6290 126.9028 -6.5987 0.0000 0.0000 0.0000
# 3 -7.6228 -6.5987 51.2500 0.0000 0.0000 0.0002
# 4 0.0000 0.0000 0.0000 37.1532 0.0000 0.0000
# 5 0.0000 0.0000 0.0000 0.0000 18.2351 0.0000
# 6 0.0000 0.0000 0.0002 0.0000 0.0000 67.4099
#
#
#
# Elastic Compliance Matrix: (Units=1/GPa)
#
#
# Indices 1 2 3 4 5 6 
#
# 1 0.007720 -0.004633 0.000552 0.000000 0.000000 0.000000
# 2 -0.004633 0.010713 0.000690 0.000000 0.000000 0.000000
# 3 0.000552 0.000690 0.019683 0.000000 0.000000 0.000000
# 4 0.000000 0.000000 0.000000 0.026916 0.000000 0.000000
# 5 0.000000 0.000000 0.000000 0.000000 0.054839 0.000000
# 6 0.000000 0.000000 0.000000 0.000000 0.000000 0.014835
#
#
# Mechanical properties :
#
#
# Convention : Reuss Voigt Hill
#
# Bulk Modulus (GPa) = 31.91337 53.22595 42.56966
# Shear Modulus (GPa) = 32.90928 44.01371 38.46150
#
# Velocity S-wave (km/s) = 4.00637 4.63325 4.33117
# Velocity P-wave (km/s) = 6.08002 7.38802 6.76570
#
# Compressibility (1/GPa) = 0.03133483
#
# Stress axis : x y z
#
# Youngs Moduli (GPa) = 129.53410 93.34023 50.80495
#
# Poissons Ratio (x) = 0.43244 -0.02803
# Poissons Ratio (y) = 0.60012 -0.03507
# Poissons Ratio (z) = -0.07147 -0.06444
#
# Static dielectric constant tensor:
#      x y z
#    x 1.721070 0.000000 0.000000 
#    y 0.000000 1.714060 0.000000 
#    z 0.000000 0.000000 1.802490 
# 
# From -- ./inp_files/22133.got.cif
#   From: 2010.05.17/outbox.cif.g08.bks.cpg/sg71_12_cif.got.tgz:22133.got - 2010.06.03 16:22:01.
