data_PCOD9518522
_publ_section_title
;
Structure prediction by ZEFSAII (Michael W. Deem and Ramdas Pophale) SiO2 
 PCOD9518522
Probable space group: I M M M
;
_chemical_formula_sum "Si O2"
_cell_formula_units_Z 84
_cell_length_a 11.784353
_cell_length_b 17.574913
_cell_length_c 23.671154
_cell_angle_alpha 90.000000
_cell_angle_beta 90.000000
_cell_angle_gamma 90.000000
_cell_volume 4902.508530
_symmetry_space_group_name_H-M "I M M M"
_symmetry_group_IT_number 71
_symmetry_cell_setting 'orthorhombic'
loop_
_space_group_symop_operation_xyz
x,y,z
-x,-y,z
x,-y,-z
-x,y,-z
-x,-y,-z
x,y,-z
-x,y,z
x,-y,z
1/2+x,1/2+y,1/2+z
1/2-x,1/2-y,1/2+z
1/2+x,1/2-y,1/2-z
1/2-x,1/2+y,1/2-z
1/2-x,1/2-y,1/2-z
1/2+x,1/2+y,1/2-z
1/2-x,1/2+y,1/2+z
1/2+x,1/2-y,1/2+z
loop_
_atom_site_type_symbol
_atom_site_label
_atom_site_fract_x
_atom_site_fract_y
_atom_site_fract_z
Si Si1 0.635256 0.000000 0.628306
Si Si2 0.000000 0.172964 0.433855
Si Si3 0.248633 0.857835 0.567739
Si Si4 0.866114 0.147954 0.244017
Si Si5 0.500000 0.000000 0.841536
Si Si6 0.717362 0.000000 0.758550
Si Si7 0.230833 0.745078 0.337747
Si Si8 0.000000 0.329765 0.634764
O O1 0.680531 0.074652 0.595644
O O2 0.500000 0.000000 0.627989
O O3 0.676464 0.000000 0.693294
O O4 0.885426 0.128445 0.420392
O O5 0.000000 0.184492 0.500000
O O6 0.000000 0.258376 0.408782
O O7 0.266336 0.852964 0.500000
O O8 0.265592 0.778136 0.601261
O O9 0.797358 0.072146 0.231815
O O10 0.813250 0.184335 0.300524
O O11 0.835245 0.206826 0.194245
O O12 0.000000 0.137255 0.250374
O O13 0.609780 0.000000 0.800406
O O14 0.500000 0.920319 0.876411
O O15 0.121633 0.688439 0.336117
#
# Coordination Sequence:
#
# PCOD9518522 Si02
#       8
#     8   8  16  16   4   8  16   8
#     4  12  25  38  53  78 116 156 192 230 273 334
#     4   8  18  37  61  84 106 139 188 240 281 327
#     4  10  21  38  58  82 112 149 191 234 278 327
#     4  11  22  36  55  82 111 142 186 234 282 337
#     4  12  22  36  55  82 113 148 180 224 286 350
#     4  12  23  37  55  80 113 151 185 226 282 337
#     4  10  20  35  57  81 107 147 186 232 281 330
#     4  10  18  34  56  78 113 143 180 224 280 346
#
# _framework density 17.134086
#
# number of rings (size 3 to 8) (size 9 to 14) (size 15 to 20)
#    0.000    1.524    5.238    0.571    0.000    1.905 
#    1.714    1.667    0.000    0.000    0.000    0.667 
#    0.000    1.524    0.000    0.000    0.000    0.000 
#
# Total GULP energy -233938.934022 kJ/mol
# GULP energy per Si atom -5569.974620 kJ/mol
# Density = 1.709509 g / cm^3
# Si number density = 17.134086 Si / 1000 Ang^3
#
#
#
# Elastic Constant Matrix: (Units=GPa)
#
#
# Indices 1 2 3 4 5 6 
#
# 1 94.9534 52.4410 28.6539 0.0000 0.0000 0.0000
# 2 52.4410 66.9306 11.5795 0.0000 0.0000 0.0000
# 3 28.6539 11.5795 66.5008 0.0000 0.0000 0.0000
# 4 0.0000 0.0000 0.0000 7.9282 0.0000 0.0000
# 5 0.0000 0.0000 0.0000 0.0000 17.3105 0.0000
# 6 0.0000 0.0000 0.0000 0.0000 0.0000 26.4879
#
#
#
# Elastic Compliance Matrix: (Units=1/GPa)
#
#
# Indices 1 2 3 4 5 6 
#
# 1 0.020868 -0.015254 -0.006335 0.000000 0.000000 0.000000
# 2 -0.015254 0.026556 0.001949 0.000000 0.000000 0.000000
# 3 -0.006335 0.001949 0.017428 0.000000 0.000000 0.000000
# 4 0.000000 0.000000 0.000000 0.126133 0.000000 0.000000
# 5 0.000000 0.000000 0.000000 0.000000 0.057768 0.000000
# 6 0.000000 0.000000 0.000000 0.000000 0.000000 0.037753
#
#
# Mechanical properties :
#
#
# Convention : Reuss Voigt Hill
#
# Bulk Modulus (GPa) = 39.10896 45.97040 42.53968
# Shear Modulus (GPa) = 14.95616 19.39268 17.17442
#
# Velocity S-wave (km/s) = 2.95767 3.36790 3.16943
# Velocity P-wave (km/s) = 5.87695 6.48164 6.18669
#
# Compressibility (1/GPa) = 0.02556959
#
# Stress axis : x y z
#
# Youngs Moduli (GPa) = 47.92046 37.65692 57.37923
#
# Poissons Ratio (x) = 0.57443 0.36352
# Poissons Ratio (y) = 0.73099 -0.11182
# Poissons Ratio (z) = 0.30360 -0.07338
#
# Static dielectric constant tensor:
#      x y z
#    x 1.588920 0.000000 0.000000 
#    y 0.000000 1.598490 0.000000 
#    z 0.000000 0.000000 1.594740 
# 
# From -- ./inp_files/58786.got.cif
#   From: 2010.05.17/outbox.cif.g08.bks.cpg/sg71_30_cif.got.tgz:58786.got - 2010.06.03 16:22:01.
