data_PCOD9518125
_publ_section_title
;
Structure prediction by ZEFSAII (Michael W. Deem and Ramdas Pophale) SiO2 
 PCOD9518125
Probable space group: I M M M
;
_chemical_formula_sum "Si O2"
_cell_formula_units_Z 120
_cell_length_a 23.484545
_cell_length_b 21.903869
_cell_length_c 13.842770
_cell_angle_alpha 90.000000
_cell_angle_beta 90.000000
_cell_angle_gamma 90.000000
_cell_volume 7120.754072
_symmetry_space_group_name_H-M "I M M M"
_symmetry_group_IT_number 71
_symmetry_cell_setting 'orthorhombic'
loop_
_space_group_symop_operation_xyz
x,y,z
-x,-y,z
x,-y,-z
-x,y,-z
-x,-y,-z
x,y,-z
-x,y,z
x,-y,z
1/2+x,1/2+y,1/2+z
1/2-x,1/2-y,1/2+z
1/2+x,1/2-y,1/2-z
1/2-x,1/2+y,1/2-z
1/2-x,1/2-y,1/2-z
1/2+x,1/2+y,1/2-z
1/2-x,1/2+y,1/2+z
1/2+x,1/2-y,1/2+z
loop_
_atom_site_type_symbol
_atom_site_label
_atom_site_fract_x
_atom_site_fract_y
_atom_site_fract_z
Si Si1 0.932783 0.155555 0.110658
Si Si2 0.248792 0.208446 0.608474
Si Si3 0.609711 0.851808 0.884352
Si Si4 0.500000 0.069554 0.882674
Si Si5 0.433569 0.728485 0.797391
Si Si6 0.865961 0.872344 0.607548
Si Si7 0.228978 0.343448 0.689062
Si Si8 0.661175 0.570520 0.305172
O O1 0.918341 0.207908 0.188675
O O2 0.891016 0.099808 0.135213
O O3 0.000000 0.140486 0.124731
O O4 0.925069 0.174640 0.000000
O O5 0.272612 0.201163 0.500000
O O6 0.187280 0.174993 0.608934
O O7 0.241693 0.279952 0.633038
O O8 0.279877 0.176540 0.698912
O O9 0.557357 0.894927 0.854315
O O10 0.600552 0.786150 0.835483
O O11 0.671961 0.873279 0.852669
O O12 0.607750 0.844655 0.000000
O O13 0.500000 0.000000 0.848306
O O14 0.500000 0.068553 0.000000
O O15 0.500000 0.743143 0.802587
O O16 0.419086 0.669669 0.862369
O O17 0.871151 0.897527 0.500000
O O18 0.855030 0.920417 0.692193
O O19 0.282818 0.388068 0.679452
O O20 0.670430 0.500000 0.328150
#
# Coordination Sequence:
#
# PCOD9518125 Si02
#       8
#    16  16  16   8  16  16  16  16
#     4   9  20  38  56  74 101 135 170 215 263 306
#     4   9  17  31  50  72 102 133 165 207 260 316
#     4  11  20  32  52  77 107 139 169 208 256 304
#     4   9  20  36  52  74 105 143 180 205 239 303
#     4  10  18  30  51  80 107 129 165 212 260 313
#     4   9  17  31  52  76 102 132 164 207 264 313
#     4  10  20  32  49  77 105 136 172 210 259 307
#     4  10  22  37  51  73 104 138 180 218 248 299
#
# _framework density 16.852148
#
# number of rings (size 3 to 8) (size 9 to 14) (size 15 to 20)
#    0.000    2.333    2.000    0.800    1.867    3.200 
#    0.000    0.667    0.000    0.000    0.000    3.733 
#    0.000    3.733    0.000    0.000    0.000    0.000 
#
# Total GULP energy -334472.774086 kJ/mol
# GULP energy per Si atom -5574.546235 kJ/mol
# Density = 1.681379 g / cm^3
# Si number density = 16.852148 Si / 1000 Ang^3
#
#
#
# Elastic Constant Matrix: (Units=GPa)
#
#
# Indices 1 2 3 4 5 6 
#
# 1 70.3953 37.7009 36.3301 0.0000 0.0000 0.0000
# 2 37.7009 64.2567 18.3973 0.0000 0.0000 0.0000
# 3 36.3301 18.3973 90.8114 0.0000 0.0000 0.0000
# 4 0.0000 0.0000 0.0000 6.4599 0.0000 0.0000
# 5 0.0000 0.0000 0.0000 0.0000 22.6263 0.0000
# 6 0.0000 0.0000 0.0000 0.0000 0.0000 15.8689
#
#
#
# Elastic Compliance Matrix: (Units=1/GPa)
#
#
# Indices 1 2 3 4 5 6 
#
# 1 0.024599 -0.012330 -0.007343 0.000000 0.000000 0.000000
# 2 -0.012330 0.022701 0.000334 0.000000 0.000000 0.000000
# 3 -0.007343 0.000334 0.013882 0.000000 0.000000 0.000000
# 4 0.000000 0.000000 0.000000 0.154801 0.000000 0.000000
# 5 0.000000 0.000000 0.000000 0.000000 0.044196 0.000000
# 6 0.000000 0.000000 0.000000 0.000000 0.000000 0.063016
#
#
# Mechanical properties :
#
#
# Convention : Reuss Voigt Hill
#
# Bulk Modulus (GPa) = 44.43834 45.59112 45.01473
# Shear Modulus (GPa) = 13.53633 17.86002 15.69817
#
# Velocity S-wave (km/s) = 2.83722 3.25900 3.05540
# Velocity P-wave (km/s) = 6.09589 6.42447 6.26233
#
# Compressibility (1/GPa) = 0.02250309
#
# Stress axis : x y z
#
# Youngs Moduli (GPa) = 40.65251 44.04995 72.03649
#
# Poissons Ratio (x) = 0.54315 0.52896
# Poissons Ratio (y) = 0.50126 -0.02405
# Poissons Ratio (z) = 0.29851 -0.01470
#
# Static dielectric constant tensor:
#      x y z
#    x 1.585330 0.000000 0.000000 
#    y 0.000000 1.542490 0.000000 
#    z 0.000000 0.000000 1.590220 
# 
# From -- ./inp_files/38409.got.cif
#   From: 2010.05.17/outbox.cif.g08.bks.cpg/sg71_20_cif.got.tgz:38409.got - 2010.06.03 16:22:01.
