data_PCOD9518084
_publ_section_title
;
Structure prediction by ZEFSAII (Michael W. Deem and Ramdas Pophale) SiO2 
 PCOD9518084
Probable space group: I M M M
;
_chemical_formula_sum "Si O2"
_cell_formula_units_Z 80
_cell_length_a 20.919316
_cell_length_b 25.798414
_cell_length_c 8.736082
_cell_angle_alpha 90.000000
_cell_angle_beta 90.000000
_cell_angle_gamma 90.000000
_cell_volume 4714.733941
_symmetry_space_group_name_H-M "I M M M"
_symmetry_group_IT_number 71
_symmetry_cell_setting 'orthorhombic'
loop_
_space_group_symop_operation_xyz
x,y,z
-x,-y,z
x,-y,-z
-x,y,-z
-x,-y,-z
x,y,-z
-x,y,z
x,-y,z
1/2+x,1/2+y,1/2+z
1/2-x,1/2-y,1/2+z
1/2+x,1/2-y,1/2-z
1/2-x,1/2+y,1/2-z
1/2-x,1/2-y,1/2-z
1/2+x,1/2+y,1/2-z
1/2-x,1/2+y,1/2+z
1/2+x,1/2-y,1/2+z
loop_
_atom_site_type_symbol
_atom_site_label
_atom_site_fract_x
_atom_site_fract_y
_atom_site_fract_z
Si Si1 0.928110 0.779428 0.183526
Si Si2 0.621859 0.607862 0.682576
Si Si3 0.735235 0.112452 0.314921
Si Si4 0.267687 0.000000 0.679077
Si Si5 0.387920 0.500000 0.177744
Si Si6 0.190369 0.717978 0.682128
O O1 0.918252 0.840547 0.215822
O O2 0.874112 0.746531 0.267156
O O3 0.000000 0.763954 0.224942
O O4 0.919931 0.773161 0.000000
O O5 0.630116 0.603479 0.500000
O O6 0.691378 0.616657 0.758730
O O7 0.592857 0.554003 0.744197
O O8 0.735025 0.113540 0.500000
O O9 0.711512 0.055762 0.258910
O O10 0.696006 0.160242 0.249171
O O11 0.284894 0.000000 0.500000
O O12 0.190080 0.000000 0.687109
O O13 0.405830 0.500000 0.000000
O O14 0.196015 0.716740 0.500000
O O15 0.250000 0.750000 0.750000
#
# Coordination Sequence:
#
# PCOD9518084 Si02
#       6
#    16  16  16   8   8  16
#     4  10  22  39  56  76 105 140 178 224 276 325
#     4  10  18  30  50  74 101 135 178 222 267 317
#     4  10  18  31  52  78 108 139 172 216 266 318
#     4   7  14  27  45  72 103 134 166 204 258 310
#     4   9  17  29  46  68  99 137 177 220 265 310
#     4  12  23  35  54  80 108 141 181 223 267 317
#
# _framework density 16.968084999999999
#
# number of rings (size 3 to 8) (size 9 to 14) (size 15 to 20)
#    0.000    2.000    2.000    4.500    0.000    1.200 
#    0.000    2.000    0.000    3.000    0.000    0.700 
#    0.000    5.600    0.000    0.000    0.000    0.000 
#
# Total GULP energy -223152.201388 kJ/mol
# GULP energy per Si atom -5578.805035 kJ/mol
# Density = 1.692946 g / cm^3
# Si number density = 16.968085 Si / 1000 Ang^3
#
#
#
# Elastic Constant Matrix: (Units=GPa)
#
#
# Indices 1 2 3 4 5 6 
#
# 1 68.7661 49.4554 40.6450 0.0000 0.0000 0.0000
# 2 49.4554 143.6317 54.3495 0.0000 0.0000 0.0000
# 3 40.6450 54.3495 83.7446 0.0000 0.0000 0.0000
# 4 0.0000 0.0000 0.0000 29.5674 0.0000 0.0000
# 5 0.0000 0.0000 0.0000 0.0000 16.2456 0.0000
# 6 0.0000 0.0000 0.0000 0.0000 0.0000 12.4359
#
#
#
# Elastic Compliance Matrix: (Units=1/GPa)
#
#
# Indices 1 2 3 4 5 6 
#
# 1 0.022663 -0.004827 -0.007867 0.000000 0.000000 0.000000
# 2 -0.004827 0.010256 -0.004314 0.000000 0.000000 0.000000
# 3 -0.007867 -0.004314 0.018559 0.000000 0.000000 0.000000
# 4 0.000000 0.000000 0.000000 0.033821 0.000000 0.000000
# 5 0.000000 0.000000 0.000000 0.000000 0.061555 0.000000
# 6 0.000000 0.000000 0.000000 0.000000 0.000000 0.080412
#
#
# Mechanical properties :
#
#
# Convention : Reuss Voigt Hill
#
# Bulk Modulus (GPa) = 57.26158 65.00467 61.13313
# Shear Modulus (GPa) = 18.71939 21.76263 20.24101
#
# Velocity S-wave (km/s) = 3.32507 3.58517 3.45757
# Velocity P-wave (km/s) = 6.96860 7.45192 7.21431
#
# Compressibility (1/GPa) = 0.01746372
#
# Stress axis : x y z
#
# Youngs Moduli (GPa) = 44.12455 97.49953 53.88241
#
# Poissons Ratio (x) = 0.47058 0.42390
# Poissons Ratio (y) = 0.21297 0.23244
# Poissons Ratio (z) = 0.34713 0.42060
#
# Static dielectric constant tensor:
#      x y z
#    x 1.547770 0.000000 0.000000 
#    y 0.000000 1.610210 0.000000 
#    z 0.000000 0.000000 1.572930 
# 
# From -- ./inp_files/10230.got.cif
#   From: 2010.05.17/outbox.cif.g08.bks.cpg/sg71_6_cif.got.tgz:10230.got - 2010.06.03 16:22:01.
