data_PCOD9518544
_publ_section_title
;
Structure prediction by ZEFSAII (Michael W. Deem and Ramdas Pophale) SiO2 
 PCOD9518544
Probable space group: I M M M
;
_chemical_formula_sum "Si O2"
_cell_formula_units_Z 52
_cell_length_a 7.456582
_cell_length_b 26.338462
_cell_length_c 12.665411
_cell_angle_alpha 90.000000
_cell_angle_beta 90.000000
_cell_angle_gamma 90.000000
_cell_volume 2487.422148
_symmetry_space_group_name_H-M "I M M M"
_symmetry_group_IT_number 71
_symmetry_cell_setting 'orthorhombic'
loop_
_space_group_symop_operation_xyz
x,y,z
-x,-y,z
x,-y,-z
-x,y,-z
-x,-y,-z
x,y,-z
-x,y,z
x,-y,z
1/2+x,1/2+y,1/2+z
1/2-x,1/2-y,1/2+z
1/2+x,1/2-y,1/2-z
1/2-x,1/2+y,1/2-z
1/2-x,1/2-y,1/2-z
1/2+x,1/2+y,1/2-z
1/2-x,1/2+y,1/2+z
1/2+x,1/2-y,1/2+z
loop_
_atom_site_type_symbol
_atom_site_label
_atom_site_fract_x
_atom_site_fract_y
_atom_site_fract_z
Si Si1 0.793491 0.438828 0.000000
Si Si2 0.000000 0.689151 0.000000
Si Si3 0.282158 0.092413 0.268712
Si Si4 0.719210 0.000000 0.878838
Si Si5 0.703510 0.699794 0.815191
O O1 0.717710 0.421195 0.888010
O O2 0.798858 0.500000 0.000000
O O3 0.000000 0.418037 0.000000
O O4 0.844033 0.691666 0.091874
O O5 0.500000 0.090466 0.270988
O O6 0.221139 0.149047 0.244015
O O7 0.223869 0.049606 0.186578
O O8 0.500000 0.000000 0.879236
O O9 0.777930 0.000000 0.000000
O O10 0.500000 0.703419 0.853815
O O11 0.750000 0.750000 0.750000
#
# Coordination Sequence:
#
# PCOD9518544 Si02
#       5
#     8   4  16   8  16
#     4   9  15  26  53  90 120 160 217 263 334 403
#     4  12  24  48  76 103 142 181 232 290 366 412
#     4  10  18  34  61  92 130 178 224 283 345 408
#     4   9  18  33  56  94 135 180 231 279 342 419
#     4  12  25  46  71 103 141 184 233 291 354 422
#
# _framework density 20.905177999999999
#
# number of rings (size 3 to 8) (size 9 to 14) (size 15 to 20)
#    0.000    1.538    4.615    1.385    2.154    0.000 
#    2.769    0.769    0.000    1.846    0.000    0.000 
#    0.000    0.000    0.000    0.000    0.000    0.000 
#
# Total GULP energy -144805.336163 kJ/mol
# GULP energy per Si atom -5569.436006 kJ/mol
# Density = 2.085760 g / cm^3
# Si number density = 20.905178 Si / 1000 Ang^3
#
#
#
# Elastic Constant Matrix: (Units=GPa)
#
#
# Indices 1 2 3 4 5 6 
#
# 1 150.3695 15.5551 31.4321 0.0000 0.0000 0.0000
# 2 15.5551 165.2482 90.3747 0.0000 0.0000 0.0000
# 3 31.4321 90.3747 138.2785 -0.0002 0.0000 0.0000
# 4 0.0000 0.0000 -0.0002 6.8732 0.0000 0.0000
# 5 0.0000 0.0000 0.0000 0.0000 42.2723 0.0000
# 6 0.0000 0.0000 0.0000 0.0000 0.0000 16.6890
#
#
#
# Elastic Compliance Matrix: (Units=1/GPa)
#
#
# Indices 1 2 3 4 5 6 
#
# 1 0.006993 0.000329 -0.001804 0.000000 0.000000 0.000000
# 2 0.000329 0.009433 -0.006240 0.000000 0.000000 0.000000
# 3 -0.001804 -0.006240 0.011720 0.000000 0.000000 0.000000
# 4 0.000000 0.000000 0.000000 0.145493 0.000000 0.000000
# 5 0.000000 0.000000 0.000000 0.000000 0.023656 0.000000
# 6 0.000000 0.000000 0.000000 0.000000 0.000000 0.059920
#
#
# Mechanical properties :
#
#
# Convention : Reuss Voigt Hill
#
# Bulk Modulus (GPa) = 78.64582 80.95778 79.80180
# Shear Modulus (GPa) = 18.05800 34.26920 26.16360
#
# Velocity S-wave (km/s) = 2.94224 4.05318 3.54154
# Velocity P-wave (km/s) = 7.01743 7.79196 7.41481
#
# Compressibility (1/GPa) = 0.01271523
#
# Stress axis : x y z
#
# Youngs Moduli (GPa) = 142.99033 106.00822 85.32286
#
# Poissons Ratio (x) = -0.03483 0.15396
# Poissons Ratio (y) = -0.04698 0.53241
# Poissons Ratio (z) = 0.25801 0.66149
#
# Static dielectric constant tensor:
#      x y z
#    x 1.785210 0.000000 0.000000 
#    y 0.000000 1.799440 0.000000 
#    z 0.000000 0.000000 1.707130 
# 
# From -- ./inp_files/18215.got.cif
#   From: 2010.05.17/outbox.cif.g08.bks.cpg/sg71_10_cif.got.tgz:18215.got - 2010.06.03 16:22:01.
