data_PCOD9518262
_publ_section_title
;
Structure prediction by ZEFSAII (Michael W. Deem and Ramdas Pophale) SiO2 
 PCOD9518262
Probable space group: I M M M
;
_chemical_formula_sum "Si O2"
_cell_formula_units_Z 104
_cell_length_a 28.104618
_cell_length_b 8.760204
_cell_length_c 24.498559
_cell_angle_alpha 90.000000
_cell_angle_beta 90.000000
_cell_angle_gamma 90.000000
_cell_volume 6031.598805
_symmetry_space_group_name_H-M "I M M M"
_symmetry_group_IT_number 71
_symmetry_cell_setting 'orthorhombic'
loop_
_space_group_symop_operation_xyz
x,y,z
-x,-y,z
x,-y,-z
-x,y,-z
-x,-y,-z
x,y,-z
-x,y,z
x,-y,z
1/2+x,1/2+y,1/2+z
1/2-x,1/2-y,1/2+z
1/2+x,1/2-y,1/2-z
1/2-x,1/2+y,1/2-z
1/2-x,1/2-y,1/2-z
1/2+x,1/2+y,1/2-z
1/2-x,1/2+y,1/2+z
1/2+x,1/2-y,1/2+z
loop_
_atom_site_type_symbol
_atom_site_label
_atom_site_fract_x
_atom_site_fract_y
_atom_site_fract_z
Si Si1 0.677584 0.683601 0.348448
Si Si2 0.099832 0.183667 0.937047
Si Si3 0.359431 0.819217 0.765248
Si Si4 0.769195 0.182729 0.307587
Si Si5 0.443619 0.320739 0.174168
Si Si6 0.057699 0.677265 0.439593
Si Si7 0.000000 0.677101 0.066227
O O1 0.681723 0.500000 0.346002
O O2 0.643631 0.727690 0.398591
O O3 0.652914 0.742802 0.292803
O O4 0.730174 0.756652 0.350150
O O5 0.049276 0.246245 0.915855
O O6 0.097038 0.000000 0.937038
O O7 0.106349 0.234168 0.000000
O O8 0.322239 0.749393 0.809289
O O9 0.411916 0.776359 0.784697
O O10 0.352374 0.000000 0.761269
O O11 0.750000 0.250000 0.250000
O O12 0.769853 0.000000 0.306028
O O13 0.500000 0.289292 0.179570
O O14 0.435831 0.500000 0.183694
O O15 0.428733 0.276677 0.112418
O O16 0.074119 0.726961 0.500000
O O17 0.071661 0.500000 0.431449
O O18 0.000000 0.679790 0.441057
O O19 0.000000 0.500000 0.080922
O O20 0.000000 0.690313 0.000000
#
# Coordination Sequence:
#
# PCOD9518262 Si02
#       7
#    16  16  16  16  16  16   8
#     4  10  19  33  53  77 102 128 165 210 254 303
#     4   9  18  33  53  75 101 136 174 211 255 309
#     4  11  21  34  52  73 100 133 170 209 253 305
#     4  10  18  31  52  75  99 124 157 200 244 293
#     4  10  20  33  49  71 101 134 167 205 249 298
#     4   8  14  26  45  68  93 123 160 198 234 277
#     4   9  17  29  47  71  99 131 169 213 254 295
#
# _framework density 17.242526000000002
#
# number of rings (size 3 to 8) (size 9 to 14) (size 15 to 20)
#    0.000    2.385    0.000    6.231    0.000    3.385 
#    1.385    1.538    0.000    0.923    0.000    2.154 
#    0.000    0.000    0.000    0.000    0.000    0.000 
#
# Total GULP energy -289807.287434 kJ/mol
# GULP energy per Si atom -5573.217066 kJ/mol
# Density = 1.720328 g / cm^3
# Si number density = 17.242526 Si / 1000 Ang^3
#
#
#
# Elastic Constant Matrix: (Units=GPa)
#
#
# Indices 1 2 3 4 5 6 
#
# 1 78.8801 37.3630 33.4674 0.0000 0.0000 0.0000
# 2 37.3630 78.8649 20.7025 0.0000 0.0000 0.0000
# 3 33.4674 20.7025 47.9542 0.0000 0.0000 0.0000
# 4 0.0000 0.0000 0.0000 21.0034 0.0000 0.0000
# 5 0.0000 0.0000 0.0000 0.0000 27.8921 0.0000
# 6 0.0000 0.0000 0.0000 0.0000 0.0000 26.0977
#
#
#
# Elastic Compliance Matrix: (Units=1/GPa)
#
#
# Indices 1 2 3 4 5 6 
#
# 1 0.020827 -0.006825 -0.011589 0.000000 0.000000 0.000000
# 2 -0.006825 0.016537 -0.002376 0.000000 0.000000 0.000000
# 3 -0.011589 -0.002376 0.029967 0.000000 0.000000 0.000000
# 4 0.000000 0.000000 0.000000 0.047611 0.000000 0.000000
# 5 0.000000 0.000000 0.000000 0.000000 0.035852 0.000000
# 6 0.000000 0.000000 0.000000 0.000000 0.000000 0.038318
#
#
# Mechanical properties :
#
#
# Convention : Reuss Voigt Hill
#
# Bulk Modulus (GPa) = 38.83311 43.19610 41.01461
# Shear Modulus (GPa) = 20.89635 22.60973 21.75304
#
# Velocity S-wave (km/s) = 3.48502 3.62508 3.55574
# Velocity P-wave (km/s) = 6.22611 6.52902 6.37936
#
# Compressibility (1/GPa) = 0.02575122
#
# Stress axis : x y z
#
# Youngs Moduli (GPa) = 48.01423 60.47038 33.37007
#
# Poissons Ratio (x) = 0.41270 0.38672
# Poissons Ratio (y) = 0.32769 0.07929
# Poissons Ratio (z) = 0.55643 0.14369
#
# Static dielectric constant tensor:
#      x y z
#    x 1.617890 0.000000 0.000000 
#    y 0.000000 1.581960 0.000000 
#    z 0.000000 0.000000 1.595200 
# 
# From -- ./inp_files/56739.got.cif
#   From: 2010.05.17/outbox.cif.g08.bks.cpg/sg71_29_cif.got.tgz:56739.got - 2010.06.03 16:22:01.
