data_PCOD9518363
_publ_section_title
;
Structure prediction by ZEFSAII (Michael W. Deem and Ramdas Pophale) SiO2 
 PCOD9518363
Probable space group: I M M M
;
_chemical_formula_sum "Si O2"
_cell_formula_units_Z 96
_cell_length_a 24.049699
_cell_length_b 7.534355
_cell_length_c 26.516014
_cell_angle_alpha 90.000000
_cell_angle_beta 90.000000
_cell_angle_gamma 90.000000
_cell_volume 4804.674423
_symmetry_space_group_name_H-M "I M M M"
_symmetry_group_IT_number 71
_symmetry_cell_setting 'orthorhombic'
loop_
_space_group_symop_operation_xyz
x,y,z
-x,-y,z
x,-y,-z
-x,y,-z
-x,-y,-z
x,y,-z
-x,y,z
x,-y,z
1/2+x,1/2+y,1/2+z
1/2-x,1/2-y,1/2+z
1/2+x,1/2-y,1/2-z
1/2-x,1/2+y,1/2-z
1/2-x,1/2-y,1/2-z
1/2+x,1/2+y,1/2-z
1/2-x,1/2+y,1/2+z
1/2+x,1/2-y,1/2+z
loop_
_atom_site_type_symbol
_atom_site_label
_atom_site_fract_x
_atom_site_fract_y
_atom_site_fract_z
Si Si1 0.182948 0.783202 0.557006
Si Si2 0.113576 0.794013 0.650256
Si Si3 0.000000 0.781512 0.699129
Si Si4 0.500000 0.711496 0.684752
Si Si5 0.811063 0.283264 0.943162
Si Si6 0.622753 0.789937 0.346601
Si Si7 0.184759 0.711549 0.746447
O O1 0.168232 0.729980 0.500000
O O2 0.141892 0.716944 0.600316
O O3 0.246998 0.731416 0.566796
O O4 0.182647 0.000000 0.558241
O O5 0.055670 0.719772 0.671072
O O6 0.157504 0.786694 0.695896
O O7 0.102003 0.000000 0.638752
O O8 0.000000 0.722282 0.757357
O O9 0.000000 0.000000 0.700296
O O10 0.500000 0.500000 0.686970
O O11 0.443097 0.766447 0.657996
O O12 0.812316 0.500000 0.943756
O O13 0.850465 0.219753 0.898183
O O14 0.826069 0.225916 0.000000
O O15 0.652505 0.718934 0.296021
O O16 0.634422 0.000000 0.346567
O O17 0.177018 0.500000 0.744004
O O18 0.250000 0.750000 0.750000
#
# Coordination Sequence:
#
# PCOD9518363 Si02
#       7
#    16  16   8   8  16  16  16
#     4   8  14  26  48  76 103 132 165 204 252 300
#     4  10  18  32  51  72 102 136 172 210 249 298
#     4   9  18  31  48  70  99 137 172 203 250 297
#     4  11  21  35  52  71  99 138 171 204 253 301
#     4   8  14  27  48  73  98 124 159 205 254 298
#     4  10  20  34  52  75  99 128 169 211 246 293
#     4  11  22  33  49  75 104 131 163 206 258 307
#
# _framework density 19.980540999999999
#
# number of rings (size 3 to 8) (size 9 to 14) (size 15 to 20)
#    0.000    2.500    1.667    2.750    0.000    3.333 
#    0.000    1.250    0.000    6.000    0.000    2.333 
#    0.000    1.333    0.000    0.000    0.000    0.000 
#
# Total GULP energy -267938.964173 kJ/mol
# GULP energy per Si atom -5582.061754 kJ/mol
# Density = 1.993506 g / cm^3
# Si number density = 19.980541 Si / 1000 Ang^3
#
#
#
# Elastic Constant Matrix: (Units=GPa)
#
#
# Indices 1 2 3 4 5 6 
#
# 1 130.5053 -14.0764 87.8048 0.0000 0.0000 0.0000
# 2 -14.0764 48.7001 0.0075 0.0000 0.0000 0.0000
# 3 87.8048 0.0075 165.1635 0.0000 0.0000 0.0000
# 4 0.0000 0.0000 0.0000 6.3938 0.0000 0.0000
# 5 0.0000 0.0000 0.0000 0.0000 58.6876 0.0000
# 6 0.0000 0.0000 0.0000 0.0000 0.0000 9.5011
#
#
#
# Elastic Compliance Matrix: (Units=1/GPa)
#
#
# Indices 1 2 3 4 5 6 
#
# 1 0.012538 0.003625 -0.006666 0.000000 0.000000 0.000000
# 2 0.003625 0.021582 -0.001928 0.000000 0.000000 0.000000
# 3 -0.006666 -0.001928 0.009598 0.000000 0.000000 0.000000
# 4 0.000000 0.000000 0.000000 0.156402 0.000000 0.000000
# 5 0.000000 0.000000 0.000000 0.000000 0.017039 0.000000
# 6 0.000000 0.000000 0.000000 0.000000 0.000000 0.105251
#
#
# Mechanical properties :
#
#
# Convention : Reuss Voigt Hill
#
# Bulk Modulus (GPa) = 29.60246 54.64895 42.12571
# Shear Modulus (GPa) = 14.55142 32.95871 23.75507
#
# Velocity S-wave (km/s) = 2.70159 4.06586 3.45180
# Velocity P-wave (km/s) = 4.95775 7.03222 6.08405
#
# Compressibility (1/GPa) = 0.03378097
#
# Stress axis : x y z
#
# Youngs Moduli (GPa) = 79.75526 46.33496 104.18386
#
# Poissons Ratio (x) = -0.16797 0.69447
# Poissons Ratio (y) = -0.28913 0.20089
# Poissons Ratio (z) = 0.53164 0.08934
#
# Static dielectric constant tensor:
#      x y z
#    x 1.667170 0.000000 0.000000 
#    y 0.000000 1.790780 0.000000 
#    z 0.000000 0.000000 1.700530 
# 
# From -- ./inp_files/12899.got.cif
#   From: 2010.05.17/outbox.cif.g08.bks.cpg/sg71_7_cif.got.tgz:12899.got - 2010.06.03 16:22:01.
