data_PCOD9518189
_publ_section_title
;
Structure prediction by ZEFSAII (Michael W. Deem and Ramdas Pophale) SiO2 
 PCOD9518189
Probable space group: I M M M
;
_chemical_formula_sum "Si O2"
_cell_formula_units_Z 116
_cell_length_a 26.616960
_cell_length_b 28.591116
_cell_length_c 7.653623
_cell_angle_alpha 90.000000
_cell_angle_beta 90.000000
_cell_angle_gamma 90.000000
_cell_volume 5824.472855
_symmetry_space_group_name_H-M "I M M M"
_symmetry_group_IT_number 71
_symmetry_cell_setting 'orthorhombic'
loop_
_space_group_symop_operation_xyz
x,y,z
-x,-y,z
x,-y,-z
-x,y,-z
-x,-y,-z
x,y,-z
-x,y,z
x,-y,z
1/2+x,1/2+y,1/2+z
1/2-x,1/2-y,1/2+z
1/2+x,1/2-y,1/2-z
1/2-x,1/2+y,1/2-z
1/2-x,1/2-y,1/2-z
1/2+x,1/2+y,1/2-z
1/2-x,1/2+y,1/2+z
1/2+x,1/2-y,1/2+z
loop_
_atom_site_type_symbol
_atom_site_label
_atom_site_fract_x
_atom_site_fract_y
_atom_site_fract_z
Si Si1 0.222516 0.687868 0.202077
Si Si2 0.118157 0.728226 0.302479
Si Si3 0.665480 0.681930 0.213079
Si Si4 0.056349 0.361583 0.205973
Si Si5 0.839722 0.927668 0.703211
Si Si6 0.380035 0.949446 0.288711
Si Si7 0.870383 0.000000 0.000000
Si Si8 0.771278 0.418775 0.705503
O O1 0.175199 0.708667 0.300938
O O2 0.278519 0.697056 0.272606
O O3 0.218879 0.631693 0.209726
O O4 0.219031 0.702407 0.000000
O O5 0.100020 0.733358 0.500000
O O6 0.124924 0.780157 0.224591
O O7 0.084131 0.688096 0.220967
O O8 0.656494 0.627594 0.252429
O O9 0.667165 0.684476 0.000000
O O10 0.089921 0.404174 0.278801
O O11 0.000000 0.360160 0.279444
O O12 0.052203 0.371097 0.000000
O O13 0.855284 0.933487 0.500000
O O14 0.779943 0.939055 0.716176
O O15 0.866991 0.959433 0.844752
O O16 0.379808 0.947623 0.500000
O O17 0.322248 0.946821 0.231040
O O18 0.401605 0.000000 0.236299
O O19 0.761916 0.412497 0.500000
#
# Coordination Sequence:
#
# PCOD9518189 Si02
#       8
#    16  16  16  16  16  16   4  16
#     4  10  18  31  49  72 103 140 173 215 275 327
#     4  11  20  33  54  80 103 135 174 217 275 339
#     4   8  18  34  51  74 109 144 176 217 269 319
#     4  10  22  40  57  75 100 132 176 226 282 351
#     4  10  21  37  52  74 111 151 189 235 267 312
#     4  10  21  35  53  73  95 131 173 227 294 344
#     4  12  22  36  52  82 104 156 204 220 270 312
#     4  11  20  32  48  73 103 136 184 228 275 331
#
# _framework density 19.915966000000001
#
# number of rings (size 3 to 8) (size 9 to 14) (size 15 to 20)
#    0.000    1.931    2.069    3.517    0.966    0.828 
#    2.483    1.379    0.000    0.000    0.000    1.931 
#    0.000    0.000    0.000    1.241    0.000   11.172 
#
# Total GULP energy -323148.170634 kJ/mol
# GULP energy per Si atom -5571.520183 kJ/mol
# Density = 1.987064 g / cm^3
# Si number density = 19.915966 Si / 1000 Ang^3
#
#
#
# Elastic Constant Matrix: (Units=GPa)
#
#
# Indices 1 2 3 4 5 6 
#
# 1 35.0122 34.0833 -0.4490 0.0000 0.0000 0.0000
# 2 34.0833 99.1506 14.3510 0.0000 0.0000 0.0000
# 3 -0.4490 14.3510 82.3407 0.0000 0.0000 0.0000
# 4 0.0000 0.0000 0.0000 24.2491 0.0000 0.0000
# 5 0.0000 0.0000 0.0000 0.0000 4.4480 0.0000
# 6 0.0000 0.0000 0.0000 0.0000 0.0000 2.7529
#
#
#
# Elastic Compliance Matrix: (Units=1/GPa)
#
#
# Indices 1 2 3 4 5 6 
#
# 1 0.043601 -0.015411 0.002924 0.000000 0.000000 0.000000
# 2 -0.015411 0.015794 -0.002837 0.000000 0.000000 0.000000
# 3 0.002924 -0.002837 0.012655 0.000000 0.000000 0.000000
# 4 0.000000 0.000000 0.000000 0.041239 0.000000 0.000000
# 5 0.000000 0.000000 0.000000 0.000000 0.224819 0.000000
# 6 0.000000 0.000000 0.000000 0.000000 0.000000 0.363256
#
#
# Mechanical properties :
#
#
# Convention : Reuss Voigt Hill
#
# Bulk Modulus (GPa) = 24.15352 34.71934 29.43643
# Shear Modulus (GPa) = 6.70409 17.52454 12.11431
#
# Velocity S-wave (km/s) = 1.83671 2.96957 2.46899
# Velocity P-wave (km/s) = 4.08069 5.40634 4.78960
#
# Compressibility (1/GPa) = 0.04140183
#
# Stress axis : x y z
#
# Youngs Moduli (GPa) = 22.93503 63.31542 79.02009
#
# Poissons Ratio (x) = 0.97577 -0.23104
# Poissons Ratio (y) = 0.35346 0.22416
# Poissons Ratio (z) = -0.06706 0.17961
#
# Static dielectric constant tensor:
#      x y z
#    x 1.678250 0.000000 0.000000 
#    y 0.000000 1.769590 0.000000 
#    z 0.000000 0.000000 1.720310 
# 
# From -- ./inp_files/15634.got.cif
#   From: 2010.05.17/outbox.cif.g08.bks.cpg/sg71_8_cif.got.tgz:15634.got - 2010.06.03 16:22:01.
