data_PCOD9518156
_publ_section_title
;
Structure prediction by ZEFSAII (Michael W. Deem and Ramdas Pophale) SiO2 
 PCOD9518156
Probable space group: I M M M
;
_chemical_formula_sum "Si O2"
_cell_formula_units_Z 48
_cell_length_a 19.508665
_cell_length_b 19.524063
_cell_length_c 7.597914
_cell_angle_alpha 90.000000
_cell_angle_beta 90.000000
_cell_angle_gamma 90.000000
_cell_volume 2893.957341
_symmetry_space_group_name_H-M "I M M M"
_symmetry_group_IT_number 71
_symmetry_cell_setting 'orthorhombic'
loop_
_space_group_symop_operation_xyz
x,y,z
-x,-y,z
x,-y,-z
-x,y,-z
-x,-y,-z
x,y,-z
-x,y,z
x,-y,z
1/2+x,1/2+y,1/2+z
1/2-x,1/2-y,1/2+z
1/2+x,1/2-y,1/2-z
1/2-x,1/2+y,1/2-z
1/2-x,1/2-y,1/2-z
1/2+x,1/2+y,1/2-z
1/2-x,1/2+y,1/2+z
1/2+x,1/2-y,1/2+z
loop_
_atom_site_type_symbol
_atom_site_label
_atom_site_fract_x
_atom_site_fract_y
_atom_site_fract_z
Si Si1 0.922012 0.143703 0.000000
Si Si2 0.216904 0.324057 0.795651
Si Si3 0.778921 0.079492 0.000000
Si Si4 0.078345 0.259500 0.294257
O O1 0.913482 0.193606 0.831109
O O2 0.860947 0.090008 0.000000
O O3 0.000000 0.117041 0.000000
O O4 0.250000 0.250000 0.750000
O O5 0.248674 0.380472 0.668207
O O6 0.136109 0.313523 0.759837
O O7 0.229213 0.338547 0.000000
O O8 0.761059 0.000000 0.000000
O O9 0.087851 0.242112 0.500000
O O10 0.000000 0.283860 0.270303
#
# Coordination Sequence:
#
# PCOD9518156 Si02
#       4
#     8  16   8  16
#     4  10  20  35  56  85 115 149 191 232 285 345
#     4  12  20  35  61  85 111 152 198 243 284 337
#     4  12  26  39  55  86 124 157 191 238 293 342
#     4  10  18  30  55  90 115 140 187 244 287 330
#
# _framework density 16.586285
#
# number of rings (size 3 to 8) (size 9 to 14) (size 15 to 20)
#    0.000    1.000    8.333    0.000    0.000    1.000 
#    0.000    0.000    0.000    2.000    0.000    9.333 
#    0.000    0.000    0.000    0.000    0.000    0.000 
#
# Total GULP energy -133973.146312 kJ/mol
# GULP energy per Si atom -5582.214430 kJ/mol
# Density = 1.654853 g / cm^3
# Si number density = 16.586285 Si / 1000 Ang^3
#
#
#
# Elastic Constant Matrix: (Units=GPa)
#
#
# Indices 1 2 3 4 5 6 
#
# 1 103.7034 46.9232 38.4216 0.0000 0.0000 0.0000
# 2 46.9232 105.5195 55.9158 0.0000 0.0000 0.0000
# 3 38.4216 55.9158 159.7908 0.0000 0.0000 0.0000
# 4 0.0000 0.0000 0.0000 15.2597 0.0000 0.0000
# 5 0.0000 0.0000 0.0000 0.0000 24.9245 0.0000
# 6 0.0000 0.0000 0.0000 0.0000 0.0000 17.0469
#
#
#
# Elastic Compliance Matrix: (Units=1/GPa)
#
#
# Indices 1 2 3 4 5 6 
#
# 1 0.012281 -0.004783 -0.001279 0.000000 0.000000 0.000000
# 2 -0.004783 0.013497 -0.003573 0.000000 0.000000 0.000000
# 3 -0.001279 -0.003573 0.007816 0.000000 0.000000 0.000000
# 4 0.000000 0.000000 0.000000 0.065532 0.000000 0.000000
# 5 0.000000 0.000000 0.000000 0.000000 0.040121 0.000000
# 6 0.000000 0.000000 0.000000 0.000000 0.000000 0.058662
#
#
# Mechanical properties :
#
#
# Convention : Reuss Voigt Hill
#
# Bulk Modulus (GPa) = 69.81530 72.39276 71.10403
# Shear Modulus (GPa) = 22.52703 26.62975 24.57839
#
# Velocity S-wave (km/s) = 3.68934 4.01125 3.85366
# Velocity P-wave (km/s) = 7.76736 8.07431 7.92232
#
# Compressibility (1/GPa) = 0.01432351
#
# Stress axis : x y z
#
# Youngs Moduli (GPa) = 81.42533 74.08819 127.94193
#
# Poissons Ratio (x) = 0.35440 0.16365
# Poissons Ratio (y) = 0.38950 0.45714
# Poissons Ratio (z) = 0.10415 0.26472
#
# Static dielectric constant tensor:
#      x y z
#    x 1.609430 0.000000 0.000000 
#    y 0.000000 1.501110 0.000000 
#    z 0.000000 0.000000 1.566890 
# 
# From -- ./inp_files/7057.got.cif
#   From: 2010.05.17/outbox.cif.g08.bks.cpg/sg71_4_cif.got.tgz:7057.got - 2010.06.03 16:22:01.
