data_PCOD9518789
_publ_section_title
;
Structure prediction by ZEFSAII (Michael W. Deem and Ramdas Pophale) SiO2 
 PCOD9518789
Probable space group: I M M M
;
_chemical_formula_sum "Si O2"
_cell_formula_units_Z 104
_cell_length_a 13.891798
_cell_length_b 33.224430
_cell_length_c 14.141748
_cell_angle_alpha 90.000000
_cell_angle_beta 90.000000
_cell_angle_gamma 90.000000
_cell_volume 6527.082357
_symmetry_space_group_name_H-M "I M M M"
_symmetry_group_IT_number 71
_symmetry_cell_setting 'orthorhombic'
loop_
_space_group_symop_operation_xyz
x,y,z
-x,-y,z
x,-y,-z
-x,y,-z
-x,-y,-z
x,y,-z
-x,y,z
x,-y,z
1/2+x,1/2+y,1/2+z
1/2-x,1/2-y,1/2+z
1/2+x,1/2-y,1/2-z
1/2-x,1/2+y,1/2-z
1/2-x,1/2-y,1/2-z
1/2+x,1/2+y,1/2-z
1/2-x,1/2+y,1/2+z
1/2+x,1/2-y,1/2+z
loop_
_atom_site_type_symbol
_atom_site_label
_atom_site_fract_x
_atom_site_fract_y
_atom_site_fract_z
Si Si1 0.797179 0.584283 0.112641
Si Si2 0.882599 0.745873 0.105936
Si Si3 0.616007 0.163141 0.705512
Si Si4 0.117455 0.706842 0.606097
Si Si5 0.382990 0.711083 0.794170
Si Si6 0.611394 0.000000 0.385118
Si Si7 0.611063 0.371525 0.111368
O O1 0.846623 0.621048 0.167101
O O2 0.835637 0.540991 0.144224
O O3 0.683344 0.591582 0.125405
O O4 0.817951 0.588432 0.000000
O O5 0.855474 0.700929 0.139146
O O6 0.853035 0.776658 0.188392
O O7 0.000000 0.746575 0.105447
O O8 0.849852 0.754641 0.000000
O O9 0.500000 0.161857 0.704333
O O10 0.646218 0.175921 0.811462
O O11 0.148958 0.697331 0.500000
O O12 0.146416 0.751995 0.637972
O O13 0.000000 0.707080 0.606248
O O14 0.500000 0.710732 0.796269
O O15 0.354177 0.667288 0.829976
O O16 0.500000 0.000000 0.354942
O O17 0.612173 0.000000 0.500000
O O18 0.500000 0.380367 0.134647
O O19 0.614710 0.360475 0.000000
#
# Coordination Sequence:
#
# PCOD9518789 Si02
#       7
#    16  16  16  16  16   8  16
#     4  10  19  30  45  65  87 110 138 173 213 258
#     4   8  13  21  34  55  85 119 150 178 212 254
#     4   9  16  25  40  62  86 114 146 179 217 259
#     4   8  13  22  37  58  85 117 151 184 216 249
#     4   8  13  22  38  57  78 111 151 185 216 247
#     4   9  18  32  49  69  92 114 133 158 201 259
#     4   9  17  29  44  61  82 111 147 182 212 244
#
# _framework density 15.933612
#
# number of rings (size 3 to 8) (size 9 to 14) (size 15 to 20)
#    0.000    3.308    0.000    3.231    0.000    3.385 
#    0.000    3.462    0.000    5.077    0.000    0.538 
#    0.000    3.077    0.000    0.000    0.000   13.077 
#
# Total GULP energy -289962.275812 kJ/mol
# GULP energy per Si atom -5576.197612 kJ/mol
# Density = 1.589735 g / cm^3
# Si number density = 15.933612 Si / 1000 Ang^3
#
#
#
# Elastic Constant Matrix: (Units=GPa)
#
#
# Indices 1 2 3 4 5 6 
#
# 1 74.9047 53.7736 26.5889 0.0000 0.0000 0.0000
# 2 53.7736 124.1824 44.4223 0.0001 0.0000 0.0000
# 3 26.5889 44.4223 82.9327 -0.0001 0.0000 0.0000
# 4 0.0000 0.0001 -0.0001 16.5732 -0.0001 0.0000
# 5 0.0000 0.0000 0.0000 -0.0001 8.3068 0.0000
# 6 0.0000 0.0000 0.0000 0.0000 0.0000 24.8248
#
#
#
# Elastic Compliance Matrix: (Units=1/GPa)
#
#
# Indices 1 2 3 4 5 6 
#
# 1 0.019680 -0.007750 -0.002158 0.000000 0.000000 0.000000
# 2 -0.007750 0.013013 -0.004486 0.000000 0.000000 0.000000
# 3 -0.002158 -0.004486 0.015153 0.000000 0.000000 0.000000
# 4 0.000000 0.000000 0.000000 0.060338 0.000000 0.000000
# 5 0.000000 0.000000 0.000000 0.000000 0.120383 0.000000
# 6 0.000000 0.000000 0.000000 0.000000 0.000000 0.040282
#
#
# Mechanical properties :
#
#
# Convention : Reuss Voigt Hill
#
# Bulk Modulus (GPa) = 52.47157 59.06547 55.76852
# Shear Modulus (GPa) = 16.44791 20.42330 18.43561
#
# Velocity S-wave (km/s) = 3.21639 3.58407 3.40520
# Velocity P-wave (km/s) = 6.84079 7.36734 7.10894
#
# Compressibility (1/GPa) = 0.01905794
#
# Stress axis : x y z
#
# Youngs Moduli (GPa) = 50.81311 76.84574 65.99467
#
# Poissons Ratio (x) = 0.59553 0.14245
# Poissons Ratio (y) = 0.39379 0.29604
# Poissons Ratio (z) = 0.10968 0.34471
#
# Static dielectric constant tensor:
#      x y z
#    x 1.612980 0.000000 0.000000 
#    y 0.000000 1.489570 0.000000 
#    z 0.000000 0.000000 1.533350 
# 
# From -- ./inp_files/35385.got.cif
#   From: 2010.05.17/outbox.cif.g08.bks.cpg/sg71_18_cif.got.tgz:35385.got - 2010.06.03 16:22:01.
