data_PCOD9518989
_publ_section_title
;
Structure prediction by ZEFSAII (Michael W. Deem and Ramdas Pophale) SiO2 
 PCOD9518989
Probable space group: I M M M
;
_chemical_formula_sum "Si O2"
_cell_formula_units_Z 88
_cell_length_a 30.207185
_cell_length_b 19.437567
_cell_length_c 8.437001
_cell_angle_alpha 90.000000
_cell_angle_beta 90.000000
_cell_angle_gamma 90.000000
_cell_volume 4953.820423
_symmetry_space_group_name_H-M "I M M M"
_symmetry_group_IT_number 71
_symmetry_cell_setting 'orthorhombic'
loop_
_space_group_symop_operation_xyz
x,y,z
-x,-y,z
x,-y,-z
-x,y,-z
-x,-y,-z
x,y,-z
-x,y,z
x,-y,z
1/2+x,1/2+y,1/2+z
1/2-x,1/2-y,1/2+z
1/2+x,1/2-y,1/2-z
1/2-x,1/2+y,1/2-z
1/2-x,1/2-y,1/2-z
1/2+x,1/2+y,1/2-z
1/2-x,1/2+y,1/2+z
1/2+x,1/2-y,1/2+z
loop_
_atom_site_type_symbol
_atom_site_label
_atom_site_fract_x
_atom_site_fract_y
_atom_site_fract_z
Si Si1 0.500000 0.917095 0.679801
Si Si2 0.152274 0.000000 0.184517
Si Si3 0.161472 0.851787 0.810224
Si Si4 0.595931 0.921292 0.809644
Si Si5 0.738113 0.849639 0.685907
Si Si6 0.749445 0.500000 0.186267
Si Si7 0.347971 0.791609 0.186705
O O1 0.500000 0.890303 0.500000
O O2 0.545660 0.900364 0.767207
O O3 0.500000 0.000000 0.672259
O O4 0.140010 0.924084 0.248598
O O5 0.205729 0.000000 0.205897
O O6 0.139913 0.000000 0.000000
O O7 0.210881 0.847406 0.737628
O O8 0.138368 0.780498 0.764654
O O9 0.165590 0.855942 0.000000
O O10 0.627412 0.859903 0.750283
O O11 0.604104 0.000000 0.750098
O O12 0.600584 0.924131 0.000000
O O13 0.734475 0.833389 0.500000
O O14 0.724873 0.929633 0.712797
O O15 0.704170 0.803453 0.781525
O O16 0.735055 0.500000 0.000000
O O17 0.355679 0.786365 0.000000
#
# Coordination Sequence:
#
# PCOD9518989 Si02
#       7
#     8   8  16  16  16   8  16
#     4   9  17  31  53  77  97 120 153 192 233 277
#     4   8  16  30  48  64  78 107 150 191 230 278
#     4  10  19  33  49  65  87 118 157 199 242 283
#     4   9  19  35  52  70  95 129 162 191 227 276
#     4  10  19  31  45  62  87 121 158 197 241 283
#     4   8  16  28  42  60  80 107 148 193 234 272
#     4  11  22  32  45  67  94 122 156 194 233 277
#
# _framework density 17.764066
#
# number of rings (size 3 to 8) (size 9 to 14) (size 15 to 20)
#    0.000    2.455    0.000    2.455    1.273    4.000 
#    0.000    0.000    0.000    0.000    0.000    0.000 
#    0.000    0.727    0.000    8.182    0.000    3.636 
#
# Total GULP energy -245086.237258 kJ/mol
# GULP energy per Si atom -5570.141756 kJ/mol
# Density = 1.772363 g / cm^3
# Si number density = 17.764066 Si / 1000 Ang^3
#
#
#
# Elastic Constant Matrix: (Units=GPa)
#
#
# Indices 1 2 3 4 5 6 
#
# 1 30.7754 27.1551 -4.6484 0.0000 0.0000 0.0000
# 2 27.1551 152.8649 21.9792 0.0000 0.0000 0.0000
# 3 -4.6484 21.9792 12.2776 0.0000 0.0000 0.0000
# 4 0.0000 0.0000 0.0000 23.3293 0.0000 0.0000
# 5 0.0000 0.0000 0.0000 0.0000 8.8444 0.0000
# 6 0.0000 0.0000 0.0000 0.0000 0.0000 11.5123
#
#
#
# Elastic Compliance Matrix: (Units=1/GPa)
#
#
# Indices 1 2 3 4 5 6 
#
# 1 0.055778 -0.017432 0.052324 0.000000 0.000000 0.000000
# 2 -0.017432 0.014257 -0.032122 0.000000 0.000000 0.000000
# 3 0.052324 -0.032122 0.158765 0.000000 0.000000 0.000000
# 4 0.000000 0.000000 0.000000 0.042864 0.000000 0.000000
# 5 0.000000 0.000000 0.000000 0.000000 0.113065 0.000000
# 6 0.000000 0.000000 0.000000 0.000000 0.000000 0.086864
#
#
# Mechanical properties :
#
#
# Convention : Reuss Voigt Hill
#
# Bulk Modulus (GPa) = 4.26733 31.65441 17.96087
# Shear Modulus (GPa) = 9.18837 18.83268 14.01053
#
# Velocity S-wave (km/s) = 2.27677 3.25954 2.81143
# Velocity P-wave (km/s) = 3.05271 5.65899 4.54660
#
# Compressibility (1/GPa) = 0.23433878
#
# Stress axis : x y z
#
# Youngs Moduli (GPa) = 17.92833 70.14141 6.29863
#
# Poissons Ratio (x) = 1.22268 -0.32957
# Poissons Ratio (y) = 0.31252 0.20233
# Poissons Ratio (z) = -0.93808 2.25311
#
# Static dielectric constant tensor:
#      x y z
#    x 1.572140 0.000000 0.000000 
#    y 0.000000 1.706700 0.000000 
#    z 0.000000 0.000000 1.611850 
# 
# From -- ./inp_files/16911.got.cif
#   From: 2010.05.17/outbox.cif.g08.bks.cpg/sg71_9_cif.got.tgz:16911.got - 2010.06.03 16:22:01.
