data_PCOD9518763
_publ_section_title
;
Structure prediction by ZEFSAII (Michael W. Deem and Ramdas Pophale) SiO2 
 PCOD9518763
Probable space group: I M M M
;
_chemical_formula_sum "Si O2"
_cell_formula_units_Z 96
_cell_length_a 28.717366
_cell_length_b 8.938110
_cell_length_c 29.739273
_cell_angle_alpha 90.000000
_cell_angle_beta 90.000000
_cell_angle_gamma 90.000000
_cell_volume 7633.446147
_symmetry_space_group_name_H-M "I M M M"
_symmetry_group_IT_number 71
_symmetry_cell_setting 'orthorhombic'
loop_
_space_group_symop_operation_xyz
x,y,z
-x,-y,z
x,-y,-z
-x,y,-z
-x,-y,-z
x,y,-z
-x,y,z
x,-y,z
1/2+x,1/2+y,1/2+z
1/2-x,1/2-y,1/2+z
1/2+x,1/2-y,1/2-z
1/2-x,1/2+y,1/2-z
1/2-x,1/2-y,1/2-z
1/2+x,1/2+y,1/2-z
1/2-x,1/2+y,1/2+z
1/2+x,1/2-y,1/2+z
loop_
_atom_site_type_symbol
_atom_site_label
_atom_site_fract_x
_atom_site_fract_y
_atom_site_fract_z
Si Si1 0.844135 0.176973 0.373267
Si Si2 0.092827 0.823881 0.283823
Si Si3 0.765367 0.676290 0.678516
Si Si4 0.183864 0.178568 0.763135
Si Si5 0.593466 0.177722 0.947566
Si Si6 0.000000 0.323710 0.310045
Si Si7 0.000000 0.821210 0.408849
O O1 0.877955 0.204029 0.329973
O O2 0.792936 0.233778 0.359447
O O3 0.866108 0.262271 0.415219
O O4 0.843905 0.000000 0.381160
O O5 0.129067 0.794940 0.243257
O O6 0.046664 0.726548 0.284606
O O7 0.080587 0.000000 0.283743
O O8 0.770687 0.500000 0.670473
O O9 0.791663 0.723287 0.724579
O O10 0.711309 0.708177 0.690587
O O11 0.191045 0.000000 0.752814
O O12 0.545946 0.259344 0.933078
O O13 0.587498 0.000000 0.941123
O O14 0.603039 0.206049 0.000000
O O15 0.000000 0.238378 0.357824
O O16 0.000000 0.500000 0.318202
O O17 0.000000 0.000000 0.408740
#
# Coordination Sequence:
#
# PCOD9518763 Si02
#       7
#    16  16  16  16  16   8   8
#     4  10  19  30  44  59  76  98 122 149 188 237
#     4   9  17  29  42  55  74  98 125 155 189 229
#     4   9  15  24  40  59  78  96 117 147 183 222
#     4   8  15  26  39  56  76  98 121 147 182 225
#     4  11  23  36  48  61  75  92 121 163 203 238
#     4  12  22  29  41  58  76  99 130 164 195 229
#     4  12  23  35  48  59  72  96 124 156 200 247
#
# _framework density 12.576233999999999
#
# number of rings (size 3 to 8) (size 9 to 14) (size 15 to 20)
#    0.000    2.167    1.667    4.250    0.000    5.667 
#    0.000    0.000    0.000    0.000    0.000    0.000 
#    0.000    0.000    0.000    0.000    0.000    0.000 
#
# Total GULP energy -267447.985781 kJ/mol
# GULP energy per Si atom -5571.833037 kJ/mol
# Density = 1.254761 g / cm^3
# Si number density = 12.576234 Si / 1000 Ang^3
#
#
#
# Elastic Constant Matrix: (Units=GPa)
#
#
# Indices 1 2 3 4 5 6 
#
# 1 74.6145 47.2793 45.0795 0.0000 0.0000 0.0000
# 2 47.2793 60.1498 31.5900 0.0000 0.0000 0.0000
# 3 45.0795 31.5900 43.4782 0.0000 0.0000 0.0000
# 4 0.0000 0.0000 0.0000 14.1061 0.0000 0.0000
# 5 0.0000 0.0000 0.0000 0.0000 2.0196 0.0000
# 6 0.0000 0.0000 0.0000 0.0000 0.0000 19.8049
#
#
#
# Elastic Compliance Matrix: (Units=1/GPa)
#
#
# Indices 1 2 3 4 5 6 
#
# 1 0.045041 -0.017589 -0.033920 0.000000 0.000000 0.000000
# 2 -0.017589 0.033752 -0.006287 0.000000 0.000000 0.000000
# 3 -0.033920 -0.006287 0.062737 0.000000 0.000000 0.000000
# 4 0.000000 0.000000 0.000000 0.070891 0.000000 0.000000
# 5 0.000000 0.000000 0.000000 0.000000 0.495139 0.000000
# 6 0.000000 0.000000 0.000000 0.000000 0.000000 0.050492
#
#
# Mechanical properties :
#
#
# Convention : Reuss Voigt Hill
#
# Bulk Modulus (GPa) = 38.55228 47.34889 42.95058
# Shear Modulus (GPa) = 5.66707 10.80570 8.23639
#
# Velocity S-wave (km/s) = 2.12508 2.93442 2.56191
# Velocity P-wave (km/s) = 6.06157 7.01515 6.55572
#
# Compressibility (1/GPa) = 0.02593881
#
# Stress axis : x y z
#
# Youngs Moduli (GPa) = 22.20224 29.62777 15.93949
#
# Poissons Ratio (x) = 0.52111 0.54067
# Poissons Ratio (y) = 0.39051 0.10021
# Poissons Ratio (z) = 0.75310 0.18627
#
# Static dielectric constant tensor:
#      x y z
#    x 1.431670 0.000000 0.000000 
#    y 0.000000 1.418880 0.000000 
#    z 0.000000 0.000000 1.392930 
# 
# From -- ./inp_files/71225.got.cif
#   From: 2010.05.17/outbox.cif.g08.bks.cpg/sg71_36_cif.got.tgz:71225.got - 2010.06.03 16:22:01.
