data_PCOD9518028
_publ_section_title
;
Structure prediction by ZEFSAII (Michael W. Deem and Ramdas Pophale) SiO2 
 PCOD9518028
Probable space group: I M M M
;
_chemical_formula_sum "Si O2"
_cell_formula_units_Z 112
_cell_length_a 14.804856
_cell_length_b 29.793200
_cell_length_c 15.980241
_cell_angle_alpha 90.000000
_cell_angle_beta 90.000000
_cell_angle_gamma 90.000000
_cell_volume 7048.629193
_symmetry_space_group_name_H-M "I M M M"
_symmetry_group_IT_number 71
_symmetry_cell_setting 'orthorhombic'
loop_
_space_group_symop_operation_xyz
x,y,z
-x,-y,z
x,-y,-z
-x,y,-z
-x,-y,-z
x,y,-z
-x,y,z
x,-y,z
1/2+x,1/2+y,1/2+z
1/2-x,1/2-y,1/2+z
1/2+x,1/2-y,1/2-z
1/2-x,1/2+y,1/2-z
1/2-x,1/2-y,1/2-z
1/2+x,1/2+y,1/2-z
1/2-x,1/2+y,1/2+z
1/2+x,1/2-y,1/2+z
loop_
_atom_site_type_symbol
_atom_site_label
_atom_site_fract_x
_atom_site_fract_y
_atom_site_fract_z
Si Si1 0.719357 0.705894 0.406653
Si Si2 0.894645 0.205959 0.257649
Si Si3 0.203991 0.552996 0.899020
Si Si4 0.096906 0.945621 0.400454
Si Si5 0.398907 0.191020 0.818892
Si Si6 0.101682 0.634035 0.152854
Si Si7 0.268797 0.311187 0.091247
O O1 0.690101 0.692787 0.500000
O O2 0.651072 0.695715 0.331293
O O3 0.817348 0.685959 0.383157
O O4 0.735766 0.759599 0.406381
O O5 0.887612 0.259903 0.275026
O O6 0.838225 0.183372 0.332629
O O7 0.000000 0.194372 0.259495
O O8 0.196321 0.500000 0.882938
O O9 0.304355 0.569252 0.870338
O O10 0.127891 0.582185 0.854893
O O11 0.198362 0.558827 0.000000
O O12 0.096277 0.936588 0.500000
O O13 0.000000 0.929206 0.365846
O O14 0.097231 0.000000 0.392231
O O15 0.500000 0.190385 0.855708
O O16 0.393154 0.154194 0.746056
O O17 0.179880 0.659139 0.102050
O O18 0.000000 0.642446 0.121979
O O19 0.310849 0.319762 0.000000
#
# Coordination Sequence:
#
# PCOD9518028 Si02
#       7
#    16  16  16  16  16  16  16
#     4  10  18  30  49  70  92 118 151 194 242 287
#     4  10  18  32  48  65  95 125 154 195 238 280
#     4   9  18  30  42  61  90 120 153 196 240 278
#     4   7  10  20  39  57  72  96 132 173 216 261
#     4   9  17  31  49  66  89 122 157 195 236 277
#     4  11  20  31  47  63  86 123 164 202 236 273
#     4  10  19  31  47  67  91 122 162 196 228 273
#
# _framework density 15.889614
#
# number of rings (size 3 to 8) (size 9 to 14) (size 15 to 20)
#    0.000    2.571    2.857    2.571    0.000    2.286 
#    0.000    5.714    0.000    1.714    0.000    0.000 
#    0.000    0.571    0.000    3.143    0.000    1.857 
#
# Total GULP energy -311890.284914 kJ/mol
# GULP energy per Si atom -5569.469373 kJ/mol
# Density = 1.585345 g / cm^3
# Si number density = 15.889614 Si / 1000 Ang^3
#
#
#
# Elastic Constant Matrix: (Units=GPa)
#
#
# Indices 1 2 3 4 5 6 
#
# 1 111.4824 27.2756 60.0367 0.0000 0.0000 0.0000
# 2 27.2756 43.4611 13.4043 -0.0001 0.0000 0.0000
# 3 60.0367 13.4043 96.3165 -0.0001 0.0000 0.0000
# 4 0.0000 -0.0001 -0.0001 5.4213 0.0000 0.0000
# 5 0.0000 0.0000 0.0000 0.0000 7.5832 0.0000
# 6 0.0000 0.0000 0.0000 0.0000 0.0000 20.9383
#
#
#
# Elastic Compliance Matrix: (Units=1/GPa)
#
#
# Indices 1 2 3 4 5 6 
#
# 1 0.015278 -0.006949 -0.008556 0.000000 0.000000 0.000000
# 2 -0.006949 0.027202 0.000546 0.000000 0.000000 0.000000
# 3 -0.008556 0.000546 0.015640 0.000000 0.000000 0.000000
# 4 0.000000 0.000000 0.000000 0.184458 0.000000 0.000000
# 5 0.000000 0.000000 0.000000 0.000000 0.131870 0.000000
# 6 0.000000 0.000000 0.000000 0.000000 0.000000 0.047759
#
#
# Mechanical properties :
#
#
# Convention : Reuss Voigt Hill
#
# Bulk Modulus (GPa) = 35.45988 50.29925 42.87956
# Shear Modulus (GPa) = 10.83364 16.82480 13.82922
#
# Velocity S-wave (km/s) = 2.61398 3.25754 2.95334
# Velocity P-wave (km/s) = 5.61029 6.77295 6.21885
#
# Compressibility (1/GPa) = 0.02820089
#
# Stress axis : x y z
#
# Youngs Moduli (GPa) = 65.45365 36.76204 63.93997
#
# Poissons Ratio (x) = 0.25547 0.54707
# Poissons Ratio (y) = 0.45486 -0.03492
# Poissons Ratio (z) = 0.56002 -0.02007
#
# Static dielectric constant tensor:
#      x y z
#    x 1.572860 0.000000 0.000000 
#    y 0.000000 1.544950 0.000000 
#    z 0.000000 0.000000 1.525810 
# 
# From -- ./inp_files/35382.got.cif
#   From: 2010.05.17/outbox.cif.g08.bks.cpg/sg71_18_cif.got.tgz:35382.got - 2010.06.03 16:22:01.
