data_PCOD9518798
_publ_section_title
;
Structure prediction by ZEFSAII (Michael W. Deem and Ramdas Pophale) SiO2 
 PCOD9518798
Probable space group: I M M M
;
_chemical_formula_sum "Si O2"
_cell_formula_units_Z 96
_cell_length_a 21.884037
_cell_length_b 24.509949
_cell_length_c 7.331549
_cell_angle_alpha 90.000000
_cell_angle_beta 90.000000
_cell_angle_gamma 90.000000
_cell_volume 3932.471551
_symmetry_space_group_name_H-M "I M M M"
_symmetry_group_IT_number 71
_symmetry_cell_setting 'orthorhombic'
loop_
_space_group_symop_operation_xyz
x,y,z
-x,-y,z
x,-y,-z
-x,y,-z
-x,-y,-z
x,y,-z
-x,y,z
x,-y,z
1/2+x,1/2+y,1/2+z
1/2-x,1/2-y,1/2+z
1/2+x,1/2-y,1/2-z
1/2-x,1/2+y,1/2-z
1/2-x,1/2-y,1/2-z
1/2+x,1/2+y,1/2-z
1/2-x,1/2+y,1/2+z
1/2+x,1/2-y,1/2+z
loop_
_atom_site_type_symbol
_atom_site_label
_atom_site_fract_x
_atom_site_fract_y
_atom_site_fract_z
Si Si1 0.266251 0.323125 0.293584
Si Si2 0.198093 0.941805 0.720669
Si Si3 0.928242 0.560696 0.721394
Si Si4 0.130422 0.674715 0.724385
Si Si5 0.565486 0.593528 0.222647
Si Si6 0.599237 0.711488 0.206345
O O1 0.268117 0.302391 0.500000
O O2 0.270130 0.388663 0.295714
O O3 0.199620 0.312899 0.214685
O O4 0.327825 0.301916 0.200956
O O5 0.200637 0.938570 0.500000
O O6 0.126905 0.937172 0.775618
O O7 0.223730 0.000000 0.777530
O O8 0.925425 0.560834 0.500000
O O9 0.906724 0.500000 0.780638
O O10 0.893021 0.615230 0.782295
O O11 0.000000 0.565393 0.770228
O O12 0.131027 0.674769 0.500000
O O13 0.091734 0.727828 0.782980
O O14 0.500000 0.570894 0.278182
O O15 0.571572 0.656354 0.287531
O O16 0.566648 0.594239 0.000000
O O17 0.575931 0.713928 0.000000
#
# Coordination Sequence:
#
# PCOD9518798 Si02
#       6
#    16  16  16  16  16  16
#     4  10  19  30  45  66  93 123 152 185 225 266
#     4   9  18  32  48  66  91 122 153 187 226 266
#     4   8  14  25  40  60  90 122 146 177 227 278
#     4   9  17  27  42  65  89 118 155 186 218 267
#     4   8  14  25  43  67  90 112 142 183 228 266
#     4   9  17  30  46  65  92 121 149 186 227 266
#
# _framework density 24.412129
#
# number of rings (size 3 to 8) (size 9 to 14) (size 15 to 20)
#    0.000    3.167    0.000    2.500    0.000    2.000 
#    0.000    7.500    0.000    8.000    0.000    4.667 
#    0.000    5.333    0.000   18.333    0.000   16.333 
#
# Total GULP energy -267912.668168 kJ/mol
# GULP energy per Si atom -5581.513920 kJ/mol
# Density = 2.435657 g / cm^3
# Si number density = 24.412129 Si / 1000 Ang^3
#
#
#
# Elastic Constant Matrix: (Units=GPa)
#
#
# Indices 1 2 3 4 5 6 
#
# 1 39.1474 0.4922 1.1661 0.0000 0.0000 0.0000
# 2 0.4922 154.7473 3.3176 0.0000 0.0000 0.0000
# 3 1.1661 3.3176 97.0388 0.0000 0.0000 0.0000
# 4 0.0000 0.0000 0.0000 0.7120 0.0000 0.0000
# 5 0.0000 0.0000 0.0000 0.0000 -4.4344 0.0000
# 6 0.0000 0.0000 0.0000 0.0000 0.0000 -12.1461
#
#
#
# Elastic Compliance Matrix: (Units=1/GPa)
#
#
# Indices 1 2 3 4 5 6 
#
# 1 0.025555 -0.000075 -0.000305 0.000000 0.000000 0.000000
# 2 -0.000075 0.006467 -0.000220 0.000000 0.000000 0.000000
# 3 -0.000305 -0.000220 0.010316 0.000000 0.000000 0.000000
# 4 0.000000 0.000000 0.000000 1.404480 0.000000 0.000000
# 5 0.000000 0.000000 0.000000 0.000000 -0.225508 0.000000
# 6 0.000000 0.000000 0.000000 0.000000 0.000000 -0.082331
#
#
# Mechanical properties :
#
#
# Convention : Reuss Voigt Hill
#
# Bulk Modulus (GPa) = 24.30782 33.43168 28.86975
# Shear Modulus (GPa) = 4.33317 15.89013 10.11165
#
# Velocity S-wave (km/s) = 1.33374 2.55406 2.03741
# Velocity P-wave (km/s) = 3.51436 4.73520 4.16970
#
# Compressibility (1/GPa) = 0.04113902
#
# Stress axis : x y z
#
# Youngs Moduli (GPa) = 39.13204 154.62864 96.93356
#
# Poissons Ratio (x) = 0.01156 0.02952
# Poissons Ratio (y) = 0.00292 0.02134
# Poissons Ratio (z) = 0.01192 0.03405
#
# Static dielectric constant tensor:
#      x y z
#    x 1.887050 0.000000 0.000000 
#    y 0.000000 1.940990 0.000000 
#    z 0.000000 0.000000 1.965920 
# 
# From -- ./inp_files/12823.got.cif
#   From: 2010.05.17/outbox.cif.g08.bks.cpg/sg71_7_cif.got.tgz:12823.got - 2010.06.03 16:22:01.
