data_PCOD9518832
_publ_section_title
;
Structure prediction by ZEFSAII (Michael W. Deem and Ramdas Pophale) SiO2 
 PCOD9518832
Probable space group: I M M M
;
_chemical_formula_sum "Si O2"
_cell_formula_units_Z 104
_cell_length_a 7.503398
_cell_length_b 23.926690
_cell_length_c 28.862994
_cell_angle_alpha 90.000000
_cell_angle_beta 90.000000
_cell_angle_gamma 90.000000
_cell_volume 5181.815969
_symmetry_space_group_name_H-M "I M M M"
_symmetry_group_IT_number 71
_symmetry_cell_setting 'orthorhombic'
loop_
_space_group_symop_operation_xyz
x,y,z
-x,-y,z
x,-y,-z
-x,y,-z
-x,-y,-z
x,y,-z
-x,y,z
x,-y,z
1/2+x,1/2+y,1/2+z
1/2-x,1/2-y,1/2+z
1/2+x,1/2-y,1/2-z
1/2-x,1/2+y,1/2-z
1/2-x,1/2-y,1/2-z
1/2+x,1/2+y,1/2-z
1/2-x,1/2+y,1/2+z
1/2+x,1/2-y,1/2+z
loop_
_atom_site_type_symbol
_atom_site_label
_atom_site_fract_x
_atom_site_fract_y
_atom_site_fract_z
Si Si1 0.781450 0.137221 0.682653
Si Si2 0.286513 0.759370 0.195390
Si Si3 0.289247 0.562869 0.900848
Si Si4 0.715360 0.563064 0.268548
Si Si5 0.209081 0.369601 0.642400
Si Si6 0.782436 0.564684 0.553089
Si Si7 0.711245 0.063669 0.500000
O O1 0.723495 0.200530 0.674821
O O2 0.717718 0.098704 0.640987
O O3 0.724208 0.108804 0.730870
O O4 0.000000 0.137792 0.683510
O O5 0.500000 0.762694 0.191832
O O6 0.250000 0.750000 0.250000
O O7 0.215820 0.814134 0.168518
O O8 0.500000 0.558035 0.892920
O O9 0.213758 0.500000 0.901813
O O10 0.265926 0.589487 0.951398
O O11 0.500000 0.563211 0.267693
O O12 0.773562 0.500000 0.256997
O O13 0.774171 0.581813 0.319273
O O14 0.280837 0.393382 0.593589
O O15 0.000000 0.358557 0.634280
O O16 0.729725 0.578575 0.500000
O O17 0.729395 0.500000 0.562352
O O18 0.000000 0.565215 0.554033
O O19 0.500000 0.060093 0.500000
O O20 0.787473 0.000000 0.500000
#
# Coordination Sequence:
#
# PCOD9518832 Si02
#       7
#    16  16  16  16  16  16   8
#     4   9  17  30  47  66  92 122 157 197 231 273
#     4  10  19  32  49  68  93 126 160 193 233 278
#     4   9  16  28  48  69  88 117 157 195 232 277
#     4  10  19  30  46  69  97 128 157 187 231 282
#     4  10  19  30  48  72  96 122 158 199 236 279
#     4   8  14  26  45  68  94 123 152 187 237 290
#     4   9  17  29  45  67  95 121 145 183 236 287
#
# _framework density 20.070184000000001
#
# number of rings (size 3 to 8) (size 9 to 14) (size 15 to 20)
#    0.000    2.692    1.538    1.615    0.000    3.692 
#    0.000    1.538    1.692    2.308    0.000    2.154 
#    0.000    0.000    0.000    0.000    0.000    0.000 
#
# Total GULP energy -289855.849196 kJ/mol
# GULP energy per Si atom -5574.150946 kJ/mol
# Density = 2.002450 g / cm^3
# Si number density = 20.070184 Si / 1000 Ang^3
#
#
#
# Elastic Constant Matrix: (Units=GPa)
#
#
# Indices 1 2 3 4 5 6 
#
# 1 54.0056 6.5363 -1.0012 0.0000 0.0000 0.0000
# 2 6.5363 120.8331 70.3078 0.0000 0.0000 0.0000
# 3 -1.0012 70.3078 160.4215 0.0000 0.0000 0.0000
# 4 0.0000 0.0000 0.0000 21.1807 0.0000 0.0000
# 5 0.0000 0.0000 0.0000 0.0000 59.3555 0.0000
# 6 0.0000 0.0000 0.0000 0.0000 0.0000 4.4752
#
#
#
# Elastic Compliance Matrix: (Units=1/GPa)
#
#
# Indices 1 2 3 4 5 6 
#
# 1 0.018706 -0.001449 0.000752 0.000000 0.000000 0.000000
# 2 -0.001449 0.011221 -0.004927 0.000000 0.000000 0.000000
# 3 0.000752 -0.004927 0.008398 0.000000 0.000000 0.000000
# 4 0.000000 0.000000 0.000000 0.047213 0.000000 0.000000
# 5 0.000000 0.000000 0.000000 0.000000 0.016848 0.000000
# 6 0.000000 0.000000 0.000000 0.000000 0.000000 0.223456
#
#
# Mechanical properties :
#
#
# Convention : Reuss Voigt Hill
#
# Bulk Modulus (GPa) = 36.93315 54.10510 45.51912
# Shear Modulus (GPa) = 14.44608 34.29676 24.37142
#
# Velocity S-wave (km/s) = 2.68578 4.13830 3.48848
# Velocity P-wave (km/s) = 5.29715 7.06049 6.24141
#
# Compressibility (1/GPa) = 0.02707595
#
# Stress axis : x y z
#
# Youngs Moduli (GPa) = 53.45887 89.11837 119.08207
#
# Poissons Ratio (x) = 0.12917 -0.08955
# Poissons Ratio (y) = 0.07748 0.58670
# Poissons Ratio (z) = -0.04020 0.43908
#
# Static dielectric constant tensor:
#      x y z
#    x 1.784660 0.000000 0.000000 
#    y 0.000000 1.730490 0.000000 
#    z 0.000000 0.000000 1.723470 
# 
# From -- ./inp_files/15295.got.cif
#   From: 2010.05.17/outbox.cif.g08.bks.cpg/sg71_8_cif.got.tgz:15295.got - 2010.06.03 16:22:01.
