data_PCOD9518796
_publ_section_title
;
Structure prediction by ZEFSAII (Michael W. Deem and Ramdas Pophale) SiO2 
 PCOD9518796
Probable space group: I M M M
;
_chemical_formula_sum "Si O2"
_cell_formula_units_Z 90
_cell_length_a 32.520237
_cell_length_b 8.000297
_cell_length_c 24.490234
_cell_angle_alpha 90.000000
_cell_angle_beta 90.000000
_cell_angle_gamma 90.000000
_cell_volume 6371.662250
_symmetry_space_group_name_H-M "I M M M"
_symmetry_group_IT_number 71
_symmetry_cell_setting 'orthorhombic'
loop_
_space_group_symop_operation_xyz
x,y,z
-x,-y,z
x,-y,-z
-x,y,-z
-x,-y,-z
x,y,-z
-x,y,z
x,-y,z
1/2+x,1/2+y,1/2+z
1/2-x,1/2-y,1/2+z
1/2+x,1/2-y,1/2-z
1/2-x,1/2+y,1/2-z
1/2-x,1/2-y,1/2-z
1/2+x,1/2+y,1/2-z
1/2-x,1/2+y,1/2+z
1/2+x,1/2-y,1/2+z
loop_
_atom_site_type_symbol
_atom_site_label
_atom_site_fract_x
_atom_site_fract_y
_atom_site_fract_z
Si Si1 0.277598 0.698836 0.000000
Si Si2 0.085152 0.197364 0.386955
Si Si3 0.872048 0.204270 0.500000
Si Si4 0.338751 0.197237 0.180873
Si Si5 0.291806 0.699816 0.718472
Si Si6 0.256488 0.799069 0.118689
Si Si7 0.000000 0.000000 0.500000
Si Si8 0.000000 0.311055 0.412061
O O1 0.255824 0.752675 0.055661
O O2 0.280337 0.500000 0.000000
O O3 0.324877 0.763784 0.000000
O O4 0.104499 0.256255 0.445075
O O5 0.119592 0.224626 0.341307
O O6 0.042148 0.288876 0.378556
O O7 0.077691 0.000000 0.392238
O O8 0.871904 0.000000 0.500000
O O9 0.327892 0.227809 0.244201
O O10 0.299617 0.263377 0.145373
O O11 0.341234 0.000000 0.171326
O O12 0.296031 0.500000 0.718936
O O13 0.250000 0.750000 0.750000
O O14 0.281509 0.757381 0.656843
O O15 0.257563 0.000000 0.123062
O O16 0.000000 0.847658 0.453470
O O17 0.000000 0.500000 0.435554
#
# Coordination Sequence:
#
# PCOD9518796 Si02
#       8
#     8  16   8  16  16  16   2   8
#     4  11  19  28  41  61  81 109 142 173 218 258
#     4  11  20  35  52  65  87 111 146 189 231 277
#     4   9  19  29  43  61  81 107 141 182 223 265
#     4  10  19  30  45  66  84 107 140 178 223 270
#     4   9  17  29  44  61  80 107 136 173 217 260
#     4   9  18  30  41  58  85 109 139 174 214 261
#     4  12  22  44  52  70  88 116 158 184 240 284
#     4  12  25  39  53  68  89 117 150 194 236 281
#
# _framework density 14.125043
#
# number of rings (size 3 to 8) (size 9 to 14) (size 15 to 20)
#    0.000    1.956    2.667    3.600    1.244    3.556 
#    0.000    1.333    0.000    0.000    0.000    0.000 
#    0.000    0.000    0.000    0.000    0.000    0.889 
#
# Total GULP energy -250539.785853 kJ/mol
# GULP energy per Si atom -5567.550797 kJ/mol
# Density = 1.409289 g / cm^3
# Si number density = 14.125043 Si / 1000 Ang^3
#
#
#
# Elastic Constant Matrix: (Units=GPa)
#
#
# Indices 1 2 3 4 5 6 
#
# 1 71.6078 11.4030 49.1412 0.0000 0.0000 0.0000
# 2 11.4030 42.2051 4.5044 0.0000 0.0000 0.0000
# 3 49.1412 4.5044 89.8823 0.0000 0.0000 0.0000
# 4 0.0000 0.0000 0.0000 16.6440 0.0000 0.0000
# 5 0.0000 0.0000 0.0000 0.0000 -27.7725 0.0000
# 6 0.0000 0.0000 0.0000 0.0000 0.0000 15.8640
#
#
#
# Elastic Compliance Matrix: (Units=1/GPa)
#
#
# Indices 1 2 3 4 5 6 
#
# 1 0.023344 -0.004972 -0.012514 0.000000 0.000000 0.000000
# 2 -0.004972 0.024880 0.001471 0.000000 0.000000 0.000000
# 3 -0.012514 0.001471 0.017894 0.000000 0.000000 0.000000
# 4 0.000000 0.000000 0.000000 0.060082 0.000000 0.000000
# 5 0.000000 0.000000 0.000000 0.000000 -0.036007 0.000000
# 6 0.000000 0.000000 0.000000 0.000000 0.000000 0.063036
#
#
# Mechanical properties :
#
#
# Convention : Reuss Voigt Hill
#
# Bulk Modulus (GPa) = 29.33451 37.08805 33.21128
# Shear Modulus (GPa) = 25.42970 10.19020 17.80995
#
# Velocity S-wave (km/s) = 4.24763 2.68885 3.55474
# Velocity P-wave (km/s) = 6.69845 5.99615 6.35701
#
# Compressibility (1/GPa) = 0.03408954
#
# Stress axis : x y z
#
# Youngs Moduli (GPa) = 42.83688 40.19290 55.88588
#
# Poissons Ratio (x) = 0.19982 0.69935
# Poissons Ratio (y) = 0.21297 -0.08222
# Poissons Ratio (z) = 0.53605 -0.05914
#
# Static dielectric constant tensor:
#      x y z
#    x 1.471350 0.000000 0.000000 
#    y 0.000000 1.499890 0.000000 
#    z 0.000000 0.000000 1.476910 
# 
# From -- ./inp_files/17224.got.cif
#   From: 2010.05.17/outbox.cif.g08.bks.cpg/sg71_9_cif.got.tgz:17224.got - 2010.06.03 16:22:01.
