data_PCOD9518210
_publ_section_title
;
Structure prediction by ZEFSAII (Michael W. Deem and Ramdas Pophale) SiO2 
 PCOD9518210
Probable space group: I M M M
;
_chemical_formula_sum "Si O2"
_cell_formula_units_Z 120
_cell_length_a 13.032025
_cell_length_b 19.743347
_cell_length_c 26.653101
_cell_angle_alpha 90.000000
_cell_angle_beta 90.000000
_cell_angle_gamma 90.000000
_cell_volume 6857.730723
_symmetry_space_group_name_H-M "I M M M"
_symmetry_group_IT_number 71
_symmetry_cell_setting 'orthorhombic'
loop_
_space_group_symop_operation_xyz
x,y,z
-x,-y,z
x,-y,-z
-x,y,-z
-x,-y,-z
x,y,-z
-x,y,z
x,-y,z
1/2+x,1/2+y,1/2+z
1/2-x,1/2-y,1/2+z
1/2+x,1/2-y,1/2-z
1/2-x,1/2+y,1/2-z
1/2-x,1/2-y,1/2-z
1/2+x,1/2+y,1/2-z
1/2-x,1/2+y,1/2+z
1/2+x,1/2-y,1/2+z
loop_
_atom_site_type_symbol
_atom_site_label
_atom_site_fract_x
_atom_site_fract_y
_atom_site_fract_z
Si Si1 0.385299 0.789718 0.285554
Si Si2 0.377165 0.844962 0.102428
Si Si3 0.729726 0.924023 0.555562
Si Si4 0.820134 0.576376 0.835581
Si Si5 0.380713 0.580291 0.774182
Si Si6 0.624216 0.922200 0.000000
Si Si7 0.755068 0.829486 0.804908
Si Si8 0.115905 0.799959 0.558042
O O1 0.500000 0.765857 0.278852
O O2 0.380143 0.863932 0.309222
O O3 0.330506 0.798058 0.232100
O O4 0.324415 0.735206 0.318781
O O5 0.500000 0.855915 0.111575
O O6 0.304662 0.863218 0.149085
O O7 0.362022 0.764809 0.092183
O O8 0.347279 0.884278 0.051496
O O9 0.681810 0.917752 0.500000
O O10 0.661539 0.920231 0.605053
O O11 0.809979 0.863527 0.561277
O O12 0.777080 0.000000 0.557540
O O13 0.844616 0.500000 0.818157
O O14 0.699298 0.588422 0.820764
O O15 0.500000 0.600722 0.783019
O O16 0.381558 0.500000 0.762806
O O17 0.326739 0.621461 0.728845
O O18 0.500000 0.922234 0.000000
O O19 0.659536 0.000000 0.000000
O O20 0.119033 0.775444 0.500000
O O21 0.000000 0.822503 0.568463
#
# Coordination Sequence:
#
# PCOD9518210 Si02
#       8
#    16  16  16  16  16   8  16  16
#     4  10  20  34  50  72 102 131 165 210 254 296
#     4  10  18  31  50  73 102 135 166 200 246 301
#     4   9  17  28  43  66  95 124 157 201 243 277
#     4   9  18  32  49  70  95 129 170 202 240 295
#     4   9  18  33  51  70  96 129 163 201 245 297
#     4   9  18  32  50  74 104 136 168 203 250 310
#     4  10  20  32  51  77 101 128 166 206 252 301
#     4   9  16  26  40  60  90 128 162 187 224 284
#
# _framework density 17.4985
#
# number of rings (size 3 to 8) (size 9 to 14) (size 15 to 20)
#    0.000    2.600    0.667    1.600    0.000    1.600 
#    0.000    6.000    0.000    2.800    0.000    3.267 
#    0.000    3.200    0.000    0.000    0.000    0.000 
#
# Total GULP energy -334045.291772 kJ/mol
# GULP energy per Si atom -5567.421530 kJ/mol
# Density = 1.745867 g / cm^3
# Si number density = 17.498500 Si / 1000 Ang^3
#
#
#
# Elastic Constant Matrix: (Units=GPa)
#
#
# Indices 1 2 3 4 5 6 
#
# 1 62.6318 14.0296 22.5391 0.0000 0.0000 0.0000
# 2 14.0296 49.5526 17.3960 0.0000 0.0000 0.0000
# 3 22.5391 17.3960 74.0161 0.0000 0.0000 0.0000
# 4 0.0000 0.0000 0.0000 16.9060 0.0000 0.0000
# 5 0.0000 0.0000 0.0000 0.0000 15.5986 0.0000
# 6 0.0000 0.0000 0.0000 0.0000 0.0000 13.3848
#
#
#
# Elastic Compliance Matrix: (Units=1/GPa)
#
#
# Indices 1 2 3 4 5 6 
#
# 1 0.018487 -0.003551 -0.004795 0.000000 0.000000 0.000000
# 2 -0.003551 0.022677 -0.004249 0.000000 0.000000 0.000000
# 3 -0.004795 -0.004249 0.015969 0.000000 0.000000 0.000000
# 4 0.000000 0.000000 0.000000 0.059151 0.000000 0.000000
# 5 0.000000 0.000000 0.000000 0.000000 0.064108 0.000000
# 6 0.000000 0.000000 0.000000 0.000000 0.000000 0.074712
#
#
# Mechanical properties :
#
#
# Convention : Reuss Voigt Hill
#
# Bulk Modulus (GPa) = 31.30384 32.68109 31.99247
# Shear Modulus (GPa) = 17.18555 17.99360 17.58957
#
# Velocity S-wave (km/s) = 3.13727 3.21018 3.17394
# Velocity P-wave (km/s) = 5.57239 5.69714 5.63511
#
# Compressibility (1/GPa) = 0.03194496
#
# Stress axis : x y z
#
# Youngs Moduli (GPa) = 54.09111 44.09672 62.62004
#
# Poissons Ratio (x) = 0.15658 0.30027
# Poissons Ratio (y) = 0.19207 0.26605
# Poissons Ratio (z) = 0.25938 0.18735
#
# Static dielectric constant tensor:
#      x y z
#    x 1.590620 0.000000 0.000000 
#    y 0.000000 1.607010 0.000000 
#    z 0.000000 0.000000 1.621840 
# 
# From -- ./inp_files/59080.got.cif
#   From: 2010.05.17/outbox.cif.g08.bks.cpg/sg71_30_cif.got.tgz:59080.got - 2010.06.03 16:22:01.
