data_PCOD9518254
_publ_section_title
;
Structure prediction by ZEFSAII (Michael W. Deem and Ramdas Pophale) SiO2 
 PCOD9518254
Probable space group: I M M M
;
_chemical_formula_sum "Si O2"
_cell_formula_units_Z 104
_cell_length_a 7.433012
_cell_length_b 27.933660
_cell_length_c 22.825019
_cell_angle_alpha 90.000000
_cell_angle_beta 90.000000
_cell_angle_gamma 90.000000
_cell_volume 4739.186769
_symmetry_space_group_name_H-M "I M M M"
_symmetry_group_IT_number 71
_symmetry_cell_setting 'orthorhombic'
loop_
_space_group_symop_operation_xyz
x,y,z
-x,-y,z
x,-y,-z
-x,y,-z
-x,-y,-z
x,y,-z
-x,y,z
x,-y,z
1/2+x,1/2+y,1/2+z
1/2-x,1/2-y,1/2+z
1/2+x,1/2-y,1/2-z
1/2-x,1/2+y,1/2-z
1/2-x,1/2-y,1/2-z
1/2+x,1/2+y,1/2-z
1/2-x,1/2+y,1/2+z
1/2+x,1/2-y,1/2+z
loop_
_atom_site_type_symbol
_atom_site_label
_atom_site_fract_x
_atom_site_fract_y
_atom_site_fract_z
Si Si1 0.282678 0.687330 0.190412
Si Si2 0.286063 0.943798 0.240613
Si Si3 0.213357 0.200491 0.819922
Si Si4 0.220648 0.848994 0.937137
Si Si5 0.788666 0.946491 0.891577
Si Si6 0.280576 0.500000 0.068910
Si Si7 0.702747 0.595104 0.864635
O O1 0.500000 0.682858 0.190744
O O2 0.239943 0.742428 0.177473
O O3 0.215649 0.680623 0.257651
O O4 0.214717 0.648187 0.143363
O O5 0.500000 0.938126 0.246010
O O6 0.229115 0.928952 0.175703
O O7 0.197236 0.919942 0.296380
O O8 0.241922 0.000000 0.243891
O O9 0.285462 0.177870 0.879355
O O10 0.000000 0.191282 0.818367
O O11 0.281056 0.904052 0.931411
O O12 0.000000 0.848523 0.935703
O O13 0.274978 0.828783 0.000000
O O14 0.000000 0.950677 0.904128
O O15 0.710254 0.000000 0.896233
O O16 0.500000 0.500000 0.074408
O O17 0.217815 0.549262 0.100758
O O18 0.235725 0.500000 0.000000
O O19 0.500000 0.600706 0.888352
#
# Coordination Sequence:
#
# PCOD9518254 Si02
#       7
#    16  16  16  16  16   8  16
#     4   9  18  31  50  75  99 122 156 204 253 292
#     4  10  19  29  44  70 102 130 158 197 242 288
#     4   9  17  31  49  70  98 129 161 199 245 297
#     4   9  17  30  49  72  98 130 167 205 243 287
#     4   9  17  29  47  71  99 130 165 203 242 285
#     4   9  18  32  51  75 101 131 166 201 244 301
#     4  10  18  31  52  74  97 128 165 204 245 299
#
# _framework density 21.944693999999998
#
# number of rings (size 3 to 8) (size 9 to 14) (size 15 to 20)
#    0.000    2.692    0.769    1.385    0.000    4.000 
#    0.000    6.154    0.000    3.692    0.000    2.154 
#    0.000    0.000    0.000    0.000    0.000    0.000 
#
# Total GULP energy -290032.743323 kJ/mol
# GULP energy per Si atom -5577.552756 kJ/mol
# Density = 2.189475 g / cm^3
# Si number density = 21.944694 Si / 1000 Ang^3
#
#
#
# Elastic Constant Matrix: (Units=GPa)
#
#
# Indices 1 2 3 4 5 6 
#
# 1 65.1835 -5.9517 -2.3093 0.0000 0.0000 0.0000
# 2 -5.9517 103.8900 78.5666 0.0000 0.0000 0.0000
# 3 -2.3093 78.5666 116.6583 0.0000 0.0000 0.0000
# 4 0.0000 0.0000 0.0000 23.4361 0.0000 0.0000
# 5 0.0000 0.0000 0.0000 0.0000 -20.0764 0.0000
# 6 0.0000 0.0000 0.0000 0.0000 0.0000 10.4730
#
#
#
# Elastic Compliance Matrix: (Units=1/GPa)
#
#
# Indices 1 2 3 4 5 6 
#
# 1 0.015442 0.001332 -0.000591 0.000000 0.000000 0.000000
# 2 0.001332 0.019731 -0.013262 0.000000 0.000000 0.000000
# 3 -0.000591 -0.013262 0.017492 0.000000 0.000000 0.000000
# 4 0.000000 0.000000 0.000000 0.042669 0.000000 0.000000
# 5 0.000000 0.000000 0.000000 0.000000 -0.049810 0.000000
# 6 0.000000 0.000000 0.000000 0.000000 0.000000 0.095483
#
#
# Mechanical properties :
#
#
# Convention : Reuss Voigt Hill
#
# Bulk Modulus (GPa) = 36.20296 47.37145 41.78721
# Shear Modulus (GPa) = 28.52917 17.12829 22.82873
#
# Velocity S-wave (km/s) = 3.60953 2.79681 3.22884
# Velocity P-wave (km/s) = 5.82278 5.66243 5.74317
#
# Compressibility (1/GPa) = 0.02762205
#
# Stress axis : x y z
#
# Youngs Moduli (GPa) = 64.75864 50.68045 57.16831
#
# Poissons Ratio (x) = -0.06749 0.03380
# Poissons Ratio (y) = -0.08624 0.75818
# Poissons Ratio (z) = 0.03829 0.67214
#
# Static dielectric constant tensor:
#      x y z
#    x 1.880490 0.000000 0.000000 
#    y 0.000000 1.847450 0.000000 
#    z 0.000000 0.000000 1.776380 
# 
# From -- ./inp_files/57987.got.cif
#   From: 2010.05.17/outbox.cif.g08.bks.cpg/sg71_29_cif.got.tgz:57987.got - 2010.06.03 16:22:01.
