data_PCOD9518469
_publ_section_title
;
Structure prediction by ZEFSAII (Michael W. Deem and Ramdas Pophale) SiO2 
 PCOD9518469
Probable space group: I M M M
;
_chemical_formula_sum "Si O2"
_cell_formula_units_Z 88
_cell_length_a 10.841522
_cell_length_b 15.469881
_cell_length_c 29.396224
_cell_angle_alpha 90.000000
_cell_angle_beta 90.000000
_cell_angle_gamma 90.000000
_cell_volume 4930.248123
_symmetry_space_group_name_H-M "I M M M"
_symmetry_group_IT_number 71
_symmetry_cell_setting 'orthorhombic'
loop_
_space_group_symop_operation_xyz
x,y,z
-x,-y,z
x,-y,-z
-x,y,-z
-x,-y,-z
x,y,-z
-x,y,z
x,-y,z
1/2+x,1/2+y,1/2+z
1/2-x,1/2-y,1/2+z
1/2+x,1/2-y,1/2-z
1/2-x,1/2+y,1/2-z
1/2-x,1/2-y,1/2-z
1/2+x,1/2+y,1/2-z
1/2-x,1/2+y,1/2+z
1/2+x,1/2-y,1/2+z
loop_
_atom_site_type_symbol
_atom_site_label
_atom_site_fract_x
_atom_site_fract_y
_atom_site_fract_z
Si Si1 0.854649 0.328942 0.595343
Si Si2 0.356249 0.500000 0.158915
Si Si3 0.355741 0.000000 0.155485
Si Si4 0.222584 0.500000 0.749757
Si Si5 0.796517 0.334594 0.873522
Si Si6 0.150510 0.400758 0.500000
Si Si7 0.000000 0.395210 0.945533
Si Si8 0.636695 0.807389 0.729284
O O1 0.840373 0.414314 0.625812
O O2 0.784483 0.247258 0.613751
O O3 0.809456 0.353006 0.545194
O O4 0.000000 0.310004 0.593316
O O5 0.500000 0.500000 0.149069
O O6 0.331420 0.500000 0.213356
O O7 0.288633 0.416524 0.138532
O O8 0.257950 0.000000 0.196049
O O9 0.500000 0.000000 0.171997
O O10 0.153275 0.591243 0.757931
O O11 0.860066 0.308849 0.825629
O O12 0.884991 0.360112 0.915520
O O13 0.191007 0.500000 0.500000
O O14 0.000000 0.402674 0.500000
O O15 0.000000 0.500000 0.943137
O O16 0.000000 0.372592 0.000000
O O17 0.500000 0.777895 0.745085
O O18 0.750000 0.750000 0.750000
#
# Coordination Sequence:
#
# PCOD9518469 Si02
#       8
#    16   8   8   8  16   8   8  16
#     4  10  20  33  56  87 122 154 192 243 302 360
#     4  10  22  39  61  90 121 155 190 244 315 375
#     4  10  18  33  54  84 120 158 202 244 288 351
#     4  10  22  36  59  83 116 162 204 241 294 367
#     4  11  22  39  63  87 121 158 203 253 304 368
#     4   9  16  32  54  84 117 152 192 238 289 354
#     4  11  24  44  68  89 113 157 219 268 309 365
#     4  11  23  39  61  90 125 163 209 259 308 370
#
# _framework density 17.848998999999999
#
# number of rings (size 3 to 8) (size 9 to 14) (size 15 to 20)
#    0.000    1.636    2.727    2.455    1.273    5.091 
#    0.000    0.000    0.000    0.545    0.000    1.273 
#    0.000    0.000    0.000    0.000    0.000    0.000 
#
# Total GULP energy -245324.658152 kJ/mol
# GULP energy per Si atom -5575.560413 kJ/mol
# Density = 1.780837 g / cm^3
# Si number density = 17.848999 Si / 1000 Ang^3
#
#
#
# Elastic Constant Matrix: (Units=GPa)
#
#
# Indices 1 2 3 4 5 6 
#
# 1 108.8421 58.4547 46.5956 0.0000 0.0000 0.0000
# 2 58.4547 131.2532 46.7935 0.0000 0.0000 0.0000
# 3 46.5956 46.7935 125.5494 0.0000 0.0000 0.0000
# 4 0.0000 0.0000 0.0000 38.5964 0.0000 0.0000
# 5 0.0000 0.0000 0.0000 0.0000 33.9927 0.0000
# 6 0.0000 0.0000 0.0000 0.0000 0.0000 20.5882
#
#
#
# Elastic Compliance Matrix: (Units=1/GPa)
#
#
# Indices 1 2 3 4 5 6 
#
# 1 0.013035 -0.004706 -0.003084 0.000000 0.000000 0.000000
# 2 -0.004706 0.010485 -0.002161 0.000000 0.000000 0.000000
# 3 -0.003084 -0.002161 0.009915 0.000000 0.000000 0.000000
# 4 0.000000 0.000000 0.000000 0.025909 0.000000 0.000000
# 5 0.000000 0.000000 0.000000 0.000000 0.029418 0.000000
# 6 0.000000 0.000000 0.000000 0.000000 0.000000 0.048571
#
#
# Mechanical properties :
#
#
# Convention : Reuss Voigt Hill
#
# Bulk Modulus (GPa) = 73.89262 74.37026 74.13144
# Shear Modulus (GPa) = 30.91234 32.88885 31.90060
#
# Velocity S-wave (km/s) = 4.16610 4.29723 4.23217
# Velocity P-wave (km/s) = 8.03931 8.14729 8.09348
#
# Compressibility (1/GPa) = 0.01353315
#
# Stress axis : x y z
#
# Youngs Moduli (GPa) = 76.71555 95.37212 100.85624
#
# Poissons Ratio (x) = 0.44881 0.31103
# Poissons Ratio (y) = 0.36101 0.21799
# Poissons Ratio (z) = 0.23658 0.20614
#
# Static dielectric constant tensor:
#      x y z
#    x 1.619230 0.000000 0.000000 
#    y 0.000000 1.566010 0.000000 
#    z 0.000000 0.000000 1.643540 
# 
# From -- ./inp_files/64506.got.cif
#   From: 2010.05.17/outbox.cif.g08.bks.cpg/sg71_33_cif.got.tgz:64506.got - 2010.06.03 16:22:01.
