data_PCOD9518157
_publ_section_title
;
Structure prediction by ZEFSAII (Michael W. Deem and Ramdas Pophale) SiO2 
 PCOD9518157
Probable space group: I M M M
;
_chemical_formula_sum "Si O2"
_cell_formula_units_Z 116
_cell_length_a 16.996605
_cell_length_b 18.555124
_cell_length_c 19.118387
_cell_angle_alpha 90.000000
_cell_angle_beta 90.000000
_cell_angle_gamma 90.000000
_cell_volume 6029.444349
_symmetry_space_group_name_H-M "I M M M"
_symmetry_group_IT_number 71
_symmetry_cell_setting 'orthorhombic'
loop_
_space_group_symop_operation_xyz
x,y,z
-x,-y,z
x,-y,-z
-x,y,-z
-x,-y,-z
x,y,-z
-x,y,z
x,-y,z
1/2+x,1/2+y,1/2+z
1/2-x,1/2-y,1/2+z
1/2+x,1/2-y,1/2-z
1/2-x,1/2+y,1/2-z
1/2-x,1/2-y,1/2-z
1/2+x,1/2+y,1/2-z
1/2-x,1/2+y,1/2+z
1/2+x,1/2-y,1/2+z
loop_
_atom_site_type_symbol
_atom_site_label
_atom_site_fract_x
_atom_site_fract_y
_atom_site_fract_z
Si Si1 0.250540 0.866391 0.080119
Si Si2 0.275157 0.579724 0.143686
Si Si3 0.344953 0.602493 0.712550
Si Si4 0.091387 0.834049 0.579717
Si Si5 0.590367 0.758872 0.715572
Si Si6 0.000000 0.000000 0.781042
Si Si7 0.327558 0.208120 0.419590
Si Si8 0.408413 0.825923 0.855217
O O1 0.194164 0.905064 0.136148
O O2 0.224063 0.781737 0.082563
O O3 0.341162 0.869710 0.104875
O O4 0.241327 0.890571 0.000000
O O5 0.253608 0.500000 0.119324
O O6 0.284368 0.579687 0.227186
O O7 0.361375 0.603431 0.117445
O O8 0.221124 0.641493 0.111340
O O9 0.358918 0.687397 0.725927
O O10 0.428539 0.561983 0.717652
O O11 0.120404 0.826123 0.500000
O O12 0.097750 0.756552 0.616702
O O13 0.000000 0.852757 0.578670
O O14 0.500000 0.741081 0.729896
O O15 0.602538 0.781255 0.635611
O O16 0.611463 0.819208 0.772814
O O17 0.350283 0.196469 0.500000
O O18 0.500000 0.848367 0.864874
#
# Coordination Sequence:
#
# PCOD9518157 Si02
#       8
#    16  16  16  16  16   4  16  16
#     4  10  20  37  58  82 114 153 197 244 305 353
#     4  12  23  34  55  77 110 158 198 233 281 347
#     4  11  22  37  58  85 117 158 199 243 284 349
#     4  10  20  31  45  72 111 151 188 228 277 333
#     4  10  19  34  59  86 111 147 198 243 297 348
#     4  12  24  40  61  88 127 158 194 246 284 342
#     4  10  21  36  53  79 115 152 196 252 296 343
#     4  10  18  30  56  86 117 149 185 242 296 349
#
# _framework density 19.238921000000001
#
# number of rings (size 3 to 8) (size 9 to 14) (size 15 to 20)
#    0.000    1.517    4.138    1.655    0.966    4.690 
#    0.000    1.724    0.000    0.414    0.000    1.448 
#    0.000    1.103    0.000    0.000    0.000    0.000 
#
# Total GULP energy -323084.927267 kJ/mol
# GULP energy per Si atom -5570.429780 kJ/mol
# Density = 1.919513 g / cm^3
# Si number density = 19.238921 Si / 1000 Ang^3
#
#
#
# Elastic Constant Matrix: (Units=GPa)
#
#
# Indices 1 2 3 4 5 6 
#
# 1 30.9812 -3.1117 11.2060 0.0000 0.0000 0.0000
# 2 -3.1117 36.8715 3.8650 0.0000 0.0000 0.0000
# 3 11.2060 3.8650 118.9796 0.0000 0.0000 0.0000
# 4 0.0000 0.0000 0.0000 -0.9056 0.0000 0.0000
# 5 0.0000 0.0000 0.0000 0.0000 27.0330 0.0000
# 6 0.0000 0.0000 0.0000 0.0000 0.0000 13.2965
#
#
#
# Elastic Compliance Matrix: (Units=1/GPa)
#
#
# Indices 1 2 3 4 5 6 
#
# 1 0.033787 0.003196 -0.003286 0.000000 0.000000 0.000000
# 2 0.003196 0.027516 -0.001195 0.000000 0.000000 0.000000
# 3 -0.003286 -0.001195 0.008753 0.000000 0.000000 0.000000
# 4 0.000000 0.000000 0.000000 -1.104263 0.000000 0.000000
# 5 0.000000 0.000000 0.000000 0.000000 0.036992 0.000000
# 6 0.000000 0.000000 0.000000 0.000000 0.000000 0.075208
#
#
# Mechanical properties :
#
#
# Convention : Reuss Voigt Hill
#
# Bulk Modulus (GPa) = 14.81778 23.41677 19.11727
# Shear Modulus (GPa) = -5.57450 19.54298 6.98424
#
# Velocity S-wave (km/s) = -1.70405 3.19063 1.90739
# Velocity P-wave (km/s) = 1.96137 5.07656 3.84827
#
# Compressibility (1/GPa) = 0.06748650
#
# Stress axis : x y z
#
# Youngs Moduli (GPa) = 29.59699 36.34224 114.24513
#
# Poissons Ratio (x) = -0.11615 0.37541
# Poissons Ratio (y) = -0.09459 0.13651
# Poissons Ratio (z) = 0.09726 0.04342
#
# Static dielectric constant tensor:
#      x y z
#    x 1.673530 0.000000 0.000000 
#    y 0.000000 1.684800 0.000000 
#    z 0.000000 0.000000 1.730480 
# 
# From -- ./inp_files/46227.got.cif
#   From: 2010.05.17/outbox.cif.g08.bks.cpg/sg71_24_cif.got.tgz:46227.got - 2010.06.03 16:22:01.
