data_PCOD9518684
_publ_section_title
;
Structure prediction by ZEFSAII (Michael W. Deem and Ramdas Pophale) SiO2 
 PCOD9518684
Probable space group: I M M M
;
_chemical_formula_sum "Si O2"
_cell_formula_units_Z 104
_cell_length_a 22.525033
_cell_length_b 9.219887
_cell_length_c 30.934915
_cell_angle_alpha 90.000000
_cell_angle_beta 90.000000
_cell_angle_gamma 90.000000
_cell_volume 6424.509287
_symmetry_space_group_name_H-M "I M M M"
_symmetry_group_IT_number 71
_symmetry_cell_setting 'orthorhombic'
loop_
_space_group_symop_operation_xyz
x,y,z
-x,-y,z
x,-y,-z
-x,y,-z
-x,-y,-z
x,y,-z
-x,y,z
x,-y,z
1/2+x,1/2+y,1/2+z
1/2-x,1/2-y,1/2+z
1/2+x,1/2-y,1/2-z
1/2-x,1/2+y,1/2-z
1/2-x,1/2-y,1/2-z
1/2+x,1/2+y,1/2-z
1/2-x,1/2+y,1/2+z
1/2+x,1/2-y,1/2+z
loop_
_atom_site_type_symbol
_atom_site_label
_atom_site_fract_x
_atom_site_fract_y
_atom_site_fract_z
Si Si1 0.205910 0.328196 0.386508
Si Si2 0.187471 0.166937 0.700657
Si Si3 0.119871 0.830879 0.448076
Si Si4 0.654050 0.326713 0.626505
Si Si5 0.500000 0.833110 0.947390
Si Si6 0.068707 0.176398 0.048729
Si Si7 0.330818 0.833055 0.285856
O O1 0.195368 0.500000 0.387558
O O2 0.179472 0.258737 0.342794
O O3 0.174751 0.249509 0.426241
O O4 0.276889 0.304588 0.385932
O O5 0.258951 0.166264 0.708398
O O6 0.158419 0.242623 0.742256
O O7 0.168741 0.000000 0.695798
O O8 0.123515 0.821716 0.500000
O O9 0.059306 0.751120 0.434105
O O10 0.118511 0.000000 0.436088
O O11 0.645933 0.500000 0.633207
O O12 0.611801 0.277277 0.587351
O O13 0.643691 0.243317 0.671398
O O14 0.500000 0.000000 0.932924
O O15 0.500000 0.834044 0.000000
O O16 0.000000 0.218568 0.055940
O O17 0.070288 0.000000 0.048518
O O18 0.086078 0.223210 0.000000
O O19 0.349853 0.000000 0.282011
#
# Coordination Sequence:
#
# PCOD9518684 Si02
#       7
#    16  16  16  16   8  16  16
#     4  10  19  29  43  67  98 127 156 192 237 288
#     4   9  16  27  43  63  90 121 152 186 226 275
#     4  10  20  33  48  67  93 125 160 195 231 274
#     4   9  17  28  44  68  95 122 155 195 240 288
#     4   9  17  31  51  71  89 113 151 195 231 263
#     4   8  14  26  45  68  92 120 159 205 246 284
#     4   9  16  26  42  64  90 119 150 185 227 277
#
# _framework density 16.188006000000001
#
# number of rings (size 3 to 8) (size 9 to 14) (size 15 to 20)
#    0.000    2.846    0.000    2.538    0.000    6.769 
#    0.000    1.538    0.000    0.923    2.000    1.077 
#    0.000    0.000    0.000    0.000    0.000    0.000 
#
# Total GULP energy -289677.385780 kJ/mol
# GULP energy per Si atom -5570.718957 kJ/mol
# Density = 1.615116 g / cm^3
# Si number density = 16.188006 Si / 1000 Ang^3
#
#
#
# Elastic Constant Matrix: (Units=GPa)
#
#
# Indices 1 2 3 4 5 6 
#
# 1 40.5733 40.8341 46.9216 0.0000 0.0000 0.0000
# 2 40.8341 103.8280 54.6679 0.0000 0.0000 0.0000
# 3 46.9216 54.6679 100.3970 0.0000 0.0000 0.0000
# 4 0.0000 0.0000 0.0000 28.7683 0.0000 0.0000
# 5 0.0000 0.0000 0.0000 0.0000 9.1660 0.0000
# 6 0.0000 0.0000 0.0000 0.0000 0.0000 14.8078
#
#
#
# Elastic Compliance Matrix: (Units=1/GPa)
#
#
# Indices 1 2 3 4 5 6 
#
# 1 0.064559 -0.013324 -0.022918 0.000000 0.000000 0.000000
# 2 -0.013324 0.016252 -0.002623 0.000000 0.000000 0.000000
# 3 -0.022918 -0.002623 0.022099 0.000000 0.000000 0.000000
# 4 0.000000 0.000000 0.000000 0.034761 0.000000 0.000000
# 5 0.000000 0.000000 0.000000 0.000000 0.109099 0.000000
# 6 0.000000 0.000000 0.000000 0.000000 0.000000 0.067532
#
#
# Mechanical properties :
#
#
# Convention : Reuss Voigt Hill
#
# Bulk Modulus (GPa) = 39.70907 58.84951 49.27929
# Shear Modulus (GPa) = 12.48675 17.37339 14.93007
#
# Velocity S-wave (km/s) = 2.78035 3.27957 3.04022
# Velocity P-wave (km/s) = 5.90680 7.12555 6.54461
#
# Compressibility (1/GPa) = 0.02518316
#
# Stress axis : x y z
#
# Youngs Moduli (GPa) = 15.48962 61.53014 45.25025
#
# Poissons Ratio (x) = 0.81980 1.03703
# Poissons Ratio (y) = 0.20638 0.11868
# Poissons Ratio (z) = 0.35498 0.16137
#
# Static dielectric constant tensor:
#      x y z
#    x 1.524750 0.000000 0.000000 
#    y 0.000000 1.541760 0.000000 
#    z 0.000000 0.000000 1.541800 
# 
# From -- ./inp_files/56703.got.cif
#   From: 2010.05.17/outbox.cif.g08.bks.cpg/sg71_29_cif.got.tgz:56703.got - 2010.06.03 16:22:01.
