data_PCOD9518958
_publ_section_title
;
Structure prediction by ZEFSAII (Michael W. Deem and Ramdas Pophale) SiO2 
 PCOD9518958
Probable space group: I M M M
;
_chemical_formula_sum "Si O2"
_cell_formula_units_Z 88
_cell_length_a 24.920946
_cell_length_b 23.969082
_cell_length_c 7.387822
_cell_angle_alpha 90.000000
_cell_angle_beta 90.000000
_cell_angle_gamma 90.000000
_cell_volume 4412.983955
_symmetry_space_group_name_H-M "I M M M"
_symmetry_group_IT_number 71
_symmetry_cell_setting 'orthorhombic'
loop_
_space_group_symop_operation_xyz
x,y,z
-x,-y,z
x,-y,-z
-x,y,-z
-x,-y,-z
x,y,-z
-x,y,z
x,-y,z
1/2+x,1/2+y,1/2+z
1/2-x,1/2-y,1/2+z
1/2+x,1/2-y,1/2-z
1/2-x,1/2+y,1/2-z
1/2-x,1/2-y,1/2-z
1/2+x,1/2+y,1/2-z
1/2-x,1/2+y,1/2+z
1/2+x,1/2-y,1/2+z
loop_
_atom_site_type_symbol
_atom_site_label
_atom_site_fract_x
_atom_site_fract_y
_atom_site_fract_z
Si Si1 0.741037 0.561963 0.717760
Si Si2 0.938281 0.938083 0.279130
Si Si3 0.187450 0.262881 0.283498
Si Si4 0.146285 0.615014 0.718879
Si Si5 0.063792 0.432750 0.000000
Si Si6 0.147596 0.147608 0.711030
O O1 0.737667 0.562239 0.500000
O O2 0.725882 0.500000 0.782540
O O3 0.802391 0.576216 0.763474
O O4 0.701548 0.610643 0.780841
O O5 0.936778 0.937966 0.500000
O O6 0.899258 0.890444 0.210563
O O7 0.000000 0.930201 0.226817
O O8 0.920673 0.000000 0.222094
O O9 0.181886 0.264282 0.500000
O O10 0.250000 0.250000 0.250000
O O11 0.164990 0.322607 0.223406
O O12 0.156578 0.208733 0.210301
O O13 0.138530 0.613914 0.500000
O O14 0.094843 0.593379 0.827310
O O15 0.070123 0.500000 0.000000
O O16 0.000000 0.420625 0.000000
O O17 0.134635 0.155890 0.500000
#
# Coordination Sequence:
#
# PCOD9518958 Si02
#       6
#    16  16  16  16   8  16
#     4  10  20  32  48  76 114 152 189 236 301 367
#     4   8  14  26  44  67  99 137 176 225 282 332
#     4  10  20  33  53  83 117 156 195 237 298 362
#     4  10  22  41  62  90 127 164 200 249 315 381
#     4  11  26  46  70  98 122 158 214 268 322 381
#     4  10  19  30  49  80 107 140 193 242 286 345
#
# _framework density 19.941155999999999
#
# number of rings (size 3 to 8) (size 9 to 14) (size 15 to 20)
#    0.000    2.273    1.818    1.636    2.545    2.545 
#    0.000    1.818    0.000    3.818    0.000    2.545 
#    0.000    0.000    0.000    0.000    0.000    0.000 
#
# Total GULP energy -245628.408005 kJ/mol
# GULP energy per Si atom -5582.463818 kJ/mol
# Density = 1.989577 g / cm^3
# Si number density = 19.941156 Si / 1000 Ang^3
#
#
#
# Elastic Constant Matrix: (Units=GPa)
#
#
# Indices 1 2 3 4 5 6 
#
# 1 99.9281 56.4663 16.3278 0.0000 0.0000 0.0000
# 2 56.4663 140.1761 19.0533 0.0000 0.0000 0.0000
# 3 16.3278 19.0533 79.5007 0.0000 0.0000 0.0000
# 4 0.0000 0.0000 0.0000 12.4753 0.0000 0.0000
# 5 0.0000 0.0000 0.0000 0.0000 -24.2559 0.0000
# 6 0.0000 0.0000 0.0000 0.0000 0.0000 12.2774
#
#
#
# Elastic Compliance Matrix: (Units=1/GPa)
#
#
# Indices 1 2 3 4 5 6 
#
# 1 0.013122 -0.005085 -0.001476 0.000000 0.000000 0.000000
# 2 -0.005085 0.009345 -0.001195 0.000000 0.000000 0.000000
# 3 -0.001476 -0.001195 0.013168 0.000000 0.000000 0.000000
# 4 0.000000 0.000000 0.000000 0.080158 0.000000 0.000000
# 5 0.000000 0.000000 0.000000 0.000000 -0.041227 0.000000
# 6 0.000000 0.000000 0.000000 0.000000 0.000000 0.081451
#
#
# Mechanical properties :
#
#
# Convention : Reuss Voigt Hill
#
# Bulk Modulus (GPa) = 49.69787 55.92218 52.81002
# Shear Modulus (GPa) = 28.05256 15.28320 21.66788
#
# Velocity S-wave (km/s) = 3.75476 2.77142 3.29992
# Velocity P-wave (km/s) = 6.61619 6.19238 6.40779
#
# Compressibility (1/GPa) = 0.02012159
#
# Stress axis : x y z
#
# Youngs Moduli (GPa) = 76.20873 107.01188 75.94091
#
# Poissons Ratio (x) = 0.54417 0.11211
# Poissons Ratio (y) = 0.38753 0.09076
# Poissons Ratio (z) = 0.11250 0.12790
#
# Static dielectric constant tensor:
#      x y z
#    x 1.669010 0.000000 0.000000 
#    y 0.000000 1.724230 0.000000 
#    z 0.000000 0.000000 1.988390 
# 
# From -- ./inp_files/12539.got.cif
#   From: 2010.05.17/outbox.cif.g08.bks.cpg/sg71_7_cif.got.tgz:12539.got - 2010.06.03 16:22:01.
