data_PCOD9518507
_publ_section_title
;
Structure prediction by ZEFSAII (Michael W. Deem and Ramdas Pophale) SiO2 
 PCOD9518507
Probable space group: I M M M
;
_chemical_formula_sum "Si O2"
_cell_formula_units_Z 80
_cell_length_a 20.670438
_cell_length_b 19.380964
_cell_length_c 10.624040
_cell_angle_alpha 90.000000
_cell_angle_beta 90.000000
_cell_angle_gamma 90.000000
_cell_volume 4256.128693
_symmetry_space_group_name_H-M "I M M M"
_symmetry_group_IT_number 71
_symmetry_cell_setting 'orthorhombic'
loop_
_space_group_symop_operation_xyz
x,y,z
-x,-y,z
x,-y,-z
-x,y,-z
-x,-y,-z
x,y,-z
-x,y,z
x,-y,z
1/2+x,1/2+y,1/2+z
1/2-x,1/2-y,1/2+z
1/2+x,1/2-y,1/2-z
1/2-x,1/2+y,1/2-z
1/2-x,1/2-y,1/2-z
1/2+x,1/2+y,1/2-z
1/2-x,1/2+y,1/2+z
1/2+x,1/2-y,1/2+z
loop_
_atom_site_type_symbol
_atom_site_label
_atom_site_fract_x
_atom_site_fract_y
_atom_site_fract_z
Si Si1 0.073252 0.722771 0.728530
Si Si2 0.117434 0.577863 0.650832
Si Si3 0.923968 0.782815 0.000000
Si Si4 0.738371 0.576802 0.242903
Si Si5 0.843229 0.922673 0.000000
Si Si6 0.706633 0.719205 0.137796
O O1 0.075732 0.641564 0.698992
O O2 0.132292 0.757603 0.653537
O O3 0.000000 0.747899 0.701419
O O4 0.089280 0.739612 0.873911
O O5 0.126434 0.584333 0.500000
O O6 0.092661 0.500000 0.674323
O O7 0.186566 0.584866 0.719540
O O8 0.888314 0.855966 0.000000
O O9 0.000000 0.797374 0.000000
O O10 0.728869 0.500000 0.190708
O O11 0.700147 0.581317 0.374894
O O12 0.714311 0.637428 0.153995
O O13 0.873879 0.000000 0.000000
O O14 0.750000 0.750000 0.250000
O O15 0.730018 0.742199 0.000000
#
# Coordination Sequence:
#
# PCOD9518507 Si02
#       6
#    16  16   8  16   8  16
#     4  11  24  40  61  89 125 163 204 252 309 364
#     4  10  20  36  59  86 117 156 203 252 301 360
#     4  10  22  39  59  86 120 160 204 255 301 365
#     4  10  20  36  60  90 123 156 201 253 309 363
#     4  10  18  33  62  91 118 156 200 255 305 363
#     4  12  26  39  64  94 124 163 208 259 307 367
#
# _framework density 18.796423999999998
#
# number of rings (size 3 to 8) (size 9 to 14) (size 15 to 20)
#    0.000    1.400    5.000    0.600    2.800    2.600 
#    0.000    1.500    0.000    2.400    0.000    1.400 
#    0.000    0.000    0.000    0.000    0.000    0.000 
#
# Total GULP energy -223323.581837 kJ/mol
# GULP energy per Si atom -5583.089546 kJ/mol
# Density = 1.875364 g / cm^3
# Si number density = 18.796424 Si / 1000 Ang^3
#
#
#
# Elastic Constant Matrix: (Units=GPa)
#
#
# Indices 1 2 3 4 5 6 
#
# 1 65.4727 46.3114 38.0193 0.0000 0.0000 0.0000
# 2 46.3114 118.3484 33.0527 0.0000 0.0000 0.0000
# 3 38.0193 33.0527 87.7415 0.0000 0.0000 0.0000
# 4 0.0000 0.0000 0.0000 29.6949 0.0000 0.0000
# 5 0.0000 0.0000 0.0000 0.0000 20.3759 0.0000
# 6 0.0000 0.0000 0.0000 0.0000 0.0000 34.6819
#
#
#
# Elastic Compliance Matrix: (Units=1/GPa)
#
#
# Indices 1 2 3 4 5 6 
#
# 1 0.025422 -0.007680 -0.008123 0.000000 0.000000 0.000000
# 2 -0.007680 0.011763 -0.001104 0.000000 0.000000 0.000000
# 3 -0.008123 -0.001104 0.015333 0.000000 0.000000 0.000000
# 4 0.000000 0.000000 0.000000 0.033676 0.000000 0.000000
# 5 0.000000 0.000000 0.000000 0.000000 0.049078 0.000000
# 6 0.000000 0.000000 0.000000 0.000000 0.000000 0.028834
#
#
# Mechanical properties :
#
#
# Convention : Reuss Voigt Hill
#
# Bulk Modulus (GPa) = 53.45881 56.25883 54.85882
# Shear Modulus (GPa) = 24.49153 27.22914 25.86033
#
# Velocity S-wave (km/s) = 3.61361 3.81022 3.71322
# Velocity P-wave (km/s) = 6.77596 7.02514 6.90167
#
# Compressibility (1/GPa) = 0.01870599
#
# Stress axis : x y z
#
# Youngs Moduli (GPa) = 39.33524 85.01256 65.22070
#
# Poissons Ratio (x) = 0.65286 0.52978
# Poissons Ratio (y) = 0.30208 0.07197
# Poissons Ratio (z) = 0.31952 0.09381
#
# Static dielectric constant tensor:
#      x y z
#    x 1.644090 0.000000 0.000000 
#    y 0.000000 1.677640 0.000000 
#    z 0.000000 0.000000 1.649910 
# 
# From -- ./inp_files/25589.got.cif
#   From: 2010.05.17/outbox.cif.g08.bks.cpg/sg71_13_cif.got.tgz:25589.got - 2010.06.03 16:22:01.
