data_PCOD9518907
_publ_section_title
;
Structure prediction by ZEFSAII (Michael W. Deem and Ramdas Pophale) SiO2 
 PCOD9518907
Probable space group: I M M M
;
_chemical_formula_sum "Si O2"
_cell_formula_units_Z 128
_cell_length_a 23.865136
_cell_length_b 19.000749
_cell_length_c 19.275266
_cell_angle_alpha 90.000000
_cell_angle_beta 90.000000
_cell_angle_gamma 90.000000
_cell_volume 8740.474591
_symmetry_space_group_name_H-M "I M M M"
_symmetry_group_IT_number 71
_symmetry_cell_setting 'orthorhombic'
loop_
_space_group_symop_operation_xyz
x,y,z
-x,-y,z
x,-y,-z
-x,y,-z
-x,-y,-z
x,y,-z
-x,y,z
x,-y,z
1/2+x,1/2+y,1/2+z
1/2-x,1/2-y,1/2+z
1/2+x,1/2-y,1/2-z
1/2-x,1/2+y,1/2-z
1/2-x,1/2-y,1/2-z
1/2+x,1/2+y,1/2-z
1/2-x,1/2+y,1/2+z
1/2+x,1/2-y,1/2+z
loop_
_atom_site_type_symbol
_atom_site_label
_atom_site_fract_x
_atom_site_fract_y
_atom_site_fract_z
Si Si1 0.773826 0.704133 0.418939
Si Si2 0.933764 0.917037 0.664105
Si Si3 0.665202 0.196277 0.418518
Si Si4 0.232911 0.417354 0.156823
Si Si5 0.162308 0.156166 0.417065
Si Si6 0.064708 0.795965 0.082109
Si Si7 0.757262 0.081490 0.818719
Si Si8 0.391880 0.418678 0.678665
O O1 0.778747 0.684370 0.500000
O O2 0.715022 0.746296 0.410806
O O3 0.820994 0.762647 0.402313
O O4 0.771681 0.637175 0.369362
O O5 0.896136 0.869121 0.614503
O O6 0.913699 0.905873 0.743301
O O7 0.000000 0.903815 0.658333
O O8 0.923736 0.000000 0.648292
O O9 0.663757 0.176945 0.500000
O O10 0.683016 0.129724 0.373435
O O11 0.607395 0.233629 0.398888
O O12 0.225265 0.500000 0.144445
O O13 0.289160 0.390734 0.118373
O O14 0.240510 0.405923 0.238908
O O15 0.164378 0.147143 0.500000
O O16 0.080295 0.864446 0.126150
O O17 0.000000 0.777193 0.093000
O O18 0.073212 0.810023 0.000000
O O19 0.824663 0.089709 0.823331
O O20 0.744333 0.000000 0.835949
O O21 0.405101 0.500000 0.661388
#
# Coordination Sequence:
#
# PCOD9518907 Si02
#       8
#    16  16  16  16  16  16  16  16
#     4   9  18  32  47  67  94 120 152 190 229 274
#     4  10  20  33  47  65  94 129 161 191 224 267
#     4   9  18  31  46  66  91 120 153 189 233 274
#     4  10  19  31  47  70  94 117 150 190 230 276
#     4  10  20  32  48  69  93 121 154 193 231 269
#     4  10  20  33  48  66  91 122 158 197 230 269
#     4  10  19  30  48  71  95 123 153 187 230 275
#     4  10  19  32  47  65  93 126 159 194 227 265
#
# _framework density 14.644513999999999
#
# number of rings (size 3 to 8) (size 9 to 14) (size 15 to 20)
#    0.000    2.250    2.500    1.875    0.000    6.250 
#    0.000    2.500    0.000    0.375    0.000    1.750 
#    0.000    1.500    0.000    2.750    0.000    0.000 
#
# Total GULP energy -356897.667400 kJ/mol
# GULP energy per Si atom -5576.526053 kJ/mol
# Density = 1.461118 g / cm^3
# Si number density = 14.644514 Si / 1000 Ang^3
#
#
#
# Elastic Constant Matrix: (Units=GPa)
#
#
# Indices 1 2 3 4 5 6 
#
# 1 78.5638 60.3688 46.2395 0.0000 0.0000 0.0000
# 2 60.3688 106.7857 75.4105 0.0000 0.0000 0.0000
# 3 46.2395 75.4105 71.3226 0.0000 0.0000 0.0000
# 4 0.0000 0.0000 0.0000 34.9267 0.0000 0.0000
# 5 0.0000 0.0000 0.0000 0.0000 18.2504 0.0000
# 6 0.0000 0.0000 0.0000 0.0000 0.0000 23.8093
#
#
#
# Elastic Compliance Matrix: (Units=1/GPa)
#
#
# Indices 1 2 3 4 5 6 
#
# 1 0.022875 -0.009706 -0.004568 0.000000 0.000000 0.000000
# 2 -0.009706 0.041083 -0.037145 0.000000 0.000000 0.000000
# 3 -0.004568 -0.037145 0.056256 0.000000 0.000000 0.000000
# 4 0.000000 0.000000 0.000000 0.028631 0.000000 0.000000
# 5 0.000000 0.000000 0.000000 0.000000 0.054793 0.000000
# 6 0.000000 0.000000 0.000000 0.000000 0.000000 0.042000
#
#
# Mechanical properties :
#
#
# Convention : Reuss Voigt Hill
#
# Bulk Modulus (GPa) = 57.54951 68.96775 63.25863
# Shear Modulus (GPa) = 14.11355 20.37418 17.24387
#
# Velocity S-wave (km/s) = 3.10779 3.73399 3.43519
# Velocity P-wave (km/s) = 7.22916 8.11093 7.68270
#
# Compressibility (1/GPa) = 0.01737634
#
# Stress axis : x y z
#
# Youngs Moduli (GPa) = 43.71533 24.34093 17.77589
#
# Poissons Ratio (x) = 0.23626 0.08119
# Poissons Ratio (y) = 0.42432 0.66028
# Poissons Ratio (z) = 0.19967 0.90414
#
# Static dielectric constant tensor:
#      x y z
#    x 1.476630 0.000000 0.000000 
#    y 0.000000 1.470650 0.000000 
#    z 0.000000 0.000000 1.477520 
# 
# From -- ./inp_files/46669.got.cif
#   From: 2010.05.17/outbox.cif.g08.bks.cpg/sg71_24_cif.got.tgz:46669.got - 2010.06.03 16:22:01.
