data_PCOD9518203
_publ_section_title
;
Structure prediction by ZEFSAII (Michael W. Deem and Ramdas Pophale) SiO2 
 PCOD9518203
Probable space group: I M M M
;
_chemical_formula_sum "Si O2"
_cell_formula_units_Z 96
_cell_length_a 25.623503
_cell_length_b 8.181460
_cell_length_c 27.382019
_cell_angle_alpha 90.000000
_cell_angle_beta 90.000000
_cell_angle_gamma 90.000000
_cell_volume 5740.302522
_symmetry_space_group_name_H-M "I M M M"
_symmetry_group_IT_number 71
_symmetry_cell_setting 'orthorhombic'
loop_
_space_group_symop_operation_xyz
x,y,z
-x,-y,z
x,-y,-z
-x,y,-z
-x,-y,-z
x,y,-z
-x,y,z
x,-y,z
1/2+x,1/2+y,1/2+z
1/2-x,1/2-y,1/2+z
1/2+x,1/2-y,1/2-z
1/2-x,1/2+y,1/2-z
1/2-x,1/2-y,1/2-z
1/2+x,1/2+y,1/2-z
1/2-x,1/2+y,1/2+z
1/2+x,1/2-y,1/2+z
loop_
_atom_site_type_symbol
_atom_site_label
_atom_site_fract_x
_atom_site_fract_y
_atom_site_fract_z
Si Si1 0.562696 0.182544 0.382646
Si Si2 0.640489 0.804308 0.187463
Si Si3 0.131073 0.195291 0.200849
Si Si4 0.939825 0.804995 0.394710
Si Si5 0.560337 0.195274 0.000000
Si Si6 0.063571 0.000000 0.943936
Si Si7 0.754288 0.196401 0.806257
O O1 0.500000 0.189095 0.380272
O O2 0.586776 0.214461 0.329494
O O3 0.580246 0.334343 0.416371
O O4 0.577155 0.000000 0.400028
O O5 0.629966 0.732662 0.241405
O O6 0.596926 0.757255 0.148434
O O7 0.699096 0.749091 0.171112
O O8 0.641546 0.000000 0.192440
O O9 0.187628 0.250863 0.179283
O O10 0.125751 0.000000 0.194574
O O11 0.918298 0.755132 0.448143
O O12 0.000000 0.742847 0.390286
O O13 0.941622 0.000000 0.392341
O O14 0.500000 0.254603 0.000000
O O15 0.560946 0.000000 0.000000
O O16 0.000000 0.000000 0.943659
O O17 0.080675 0.000000 0.000000
O O18 0.750000 0.250000 0.750000
O O19 0.755600 0.000000 0.808857
#
# Coordination Sequence:
#
# PCOD9518203 Si02
#       7
#    16  16  16  16   8   8  16
#     4  10  20  33  50  76 106 135 169 204 247 302
#     4  10  19  31  47  71 100 128 165 208 248 294
#     4  10  18  31  50  71 100 136 168 200 248 302
#     4  10  20  33  48  69  96 127 163 201 246 297
#     4   9  17  31  51  71  91 119 157 203 248 291
#     4   9  18  34  54  76 102 132 168 209 248 290
#     4   8  16  29  46  68  93 123 162 205 243 288
#
# _framework density 16.723856999999999
#
# number of rings (size 3 to 8) (size 9 to 14) (size 15 to 20)
#    0.000    2.500    0.833    1.750    0.000    4.333 
#    0.000    1.667    0.000    0.000    2.167    0.000 
#    0.000    0.000    0.000    0.000    0.000    0.000 
#
# Total GULP energy -267224.824393 kJ/mol
# GULP energy per Si atom -5567.183842 kJ/mol
# Density = 1.668579 g / cm^3
# Si number density = 16.723857 Si / 1000 Ang^3
#
#
#
# Elastic Constant Matrix: (Units=GPa)
#
#
# Indices 1 2 3 4 5 6 
#
# 1 50.1935 22.4753 36.5242 0.0000 0.0000 0.0000
# 2 22.4753 75.0084 30.9169 0.0000 0.0000 0.0000
# 3 36.5242 30.9169 85.4777 0.0000 0.0000 0.0000
# 4 0.0000 0.0000 0.0000 18.6937 0.0000 0.0000
# 5 0.0000 0.0000 0.0000 0.0000 -0.7187 0.0000
# 6 0.0000 0.0000 0.0000 0.0000 0.0000 11.7312
#
#
#
# Elastic Compliance Matrix: (Units=1/GPa)
#
#
# Indices 1 2 3 4 5 6 
#
# 1 0.030082 -0.004367 -0.011275 0.000000 0.000000 0.000000
# 2 -0.004367 0.016301 -0.004030 0.000000 0.000000 0.000000
# 3 -0.011275 -0.004030 0.017974 0.000000 0.000000 0.000000
# 4 0.000000 0.000000 0.000000 0.053494 0.000000 0.000000
# 5 0.000000 0.000000 0.000000 0.000000 -1.391434 0.000000
# 6 0.000000 0.000000 0.000000 0.000000 0.000000 0.085243
#
#
# Mechanical properties :
#
#
# Convention : Reuss Voigt Hill
#
# Bulk Modulus (GPa) = 39.97612 43.39026 41.68319
# Shear Modulus (GPa) = -4.38344 13.99212 4.80434
#
# Velocity S-wave (km/s) = -1.62073 2.89564 1.69676
# Velocity P-wave (km/s) = 4.52252 6.09763 5.36816
#
# Compressibility (1/GPa) = 0.02501494
#
# Stress axis : x y z
#
# Youngs Moduli (GPa) = 33.24209 61.34421 55.63498
#
# Poissons Ratio (x) = 0.26787 0.62726
# Poissons Ratio (y) = 0.14515 0.22423
# Poissons Ratio (z) = 0.37479 0.24724
#
# Static dielectric constant tensor:
#      x y z
#    x 1.598660 0.000000 0.000000 
#    y 0.000000 1.589220 0.000000 
#    z 0.000000 0.000000 1.535620 
# 
# From -- ./inp_files/66741.got.cif
#   From: 2010.05.17/outbox.cif.g08.bks.cpg/sg71_34_cif.got.tgz:66741.got - 2010.06.03 16:22:01.
