data_PCOD9518829
_publ_section_title
;
Structure prediction by ZEFSAII (Michael W. Deem and Ramdas Pophale) SiO2 
 PCOD9518829
Probable space group: I M M M
;
_chemical_formula_sum "Si O2"
_cell_formula_units_Z 120
_cell_length_a 13.877933
_cell_length_b 20.048461
_cell_length_c 28.034506
_cell_angle_alpha 90.000000
_cell_angle_beta 90.000000
_cell_angle_gamma 90.000000
_cell_volume 7800.074204
_symmetry_space_group_name_H-M "I M M M"
_symmetry_group_IT_number 71
_symmetry_cell_setting 'orthorhombic'
loop_
_space_group_symop_operation_xyz
x,y,z
-x,-y,z
x,-y,-z
-x,y,-z
-x,-y,-z
x,y,-z
-x,y,z
x,-y,z
1/2+x,1/2+y,1/2+z
1/2-x,1/2-y,1/2+z
1/2+x,1/2-y,1/2-z
1/2-x,1/2+y,1/2-z
1/2-x,1/2-y,1/2-z
1/2+x,1/2+y,1/2-z
1/2-x,1/2+y,1/2+z
1/2+x,1/2-y,1/2+z
loop_
_atom_site_type_symbol
_atom_site_label
_atom_site_fract_x
_atom_site_fract_y
_atom_site_fract_z
Si Si1 0.230943 0.919863 0.407634
Si Si2 0.615292 0.579566 0.633944
Si Si3 0.703347 0.352298 0.274023
Si Si4 0.390960 0.580856 0.000000
Si Si5 0.114141 0.316718 0.113803
Si Si6 0.116584 0.185336 0.945177
Si Si7 0.109020 0.920135 0.315235
Si Si8 0.886428 0.294305 0.226539
O O1 0.167906 0.900723 0.453248
O O2 0.329663 0.879795 0.406560
O O3 0.170320 0.899667 0.361036
O O4 0.244798 0.000000 0.407448
O O5 0.500000 0.590667 0.643979
O O6 0.629946 0.500000 0.631053
O O7 0.677781 0.612802 0.676058
O O8 0.638759 0.618757 0.585050
O O9 0.661875 0.398468 0.232406
O O10 0.814247 0.335087 0.261017
O O11 0.645126 0.282802 0.270441
O O12 0.396461 0.500000 0.000000
O O13 0.500000 0.606328 0.000000
O O14 0.147077 0.249511 0.086312
O O15 0.130332 0.312717 0.170832
O O16 0.000000 0.322714 0.106555
O O17 0.000000 0.188443 0.947367
O O18 0.151760 0.186143 0.000000
O O19 0.000000 0.893661 0.316708
O O20 0.103637 0.000000 0.316731
O O21 0.000000 0.302719 0.236937
#
# Coordination Sequence:
#
# PCOD9518829 Si02
#       8
#    16  16  16   8  16  16  16  16
#     4  10  20  33  48  70  94 126 171 208 247 297
#     4  10  19  31  50  76 106 135 164 206 256 306
#     4  11  19  31  50  72  99 131 166 200 247 296
#     4   9  18  34  53  69  93 125 155 202 260 306
#     4  10  19  34  51  69  98 133 169 207 248 296
#     4   9  18  32  50  72  98 130 165 200 248 308
#     4  10  19  30  46  69  95 121 157 204 248 293
#     4  10  20  33  50  71  98 134 170 202 242 296
#
# _framework density 15.384468999999999
#
# number of rings (size 3 to 8) (size 9 to 14) (size 15 to 20)
#    0.000    2.067    2.667    2.000    0.933    3.200 
#    0.000    1.333    0.000    2.800    0.000    0.000 
#    0.000    0.000    0.000    1.200    0.000    0.133 
#
# Total GULP energy -334364.996345 kJ/mol
# GULP energy per Si atom -5572.749939 kJ/mol
# Density = 1.534945 g / cm^3
# Si number density = 15.384469 Si / 1000 Ang^3
#
#
#
# Elastic Constant Matrix: (Units=GPa)
#
#
# Indices 1 2 3 4 5 6 
#
# 1 74.0146 33.5036 37.2636 0.0000 0.0000 0.0000
# 2 33.5036 44.4808 21.7385 0.0000 0.0000 0.0000
# 3 37.2636 21.7385 90.1882 0.0000 0.0000 0.0000
# 4 0.0000 0.0000 0.0000 10.0053 0.0000 0.0000
# 5 0.0000 0.0000 0.0000 0.0000 12.9392 0.0000
# 6 0.0000 0.0000 0.0000 0.0000 0.0000 19.4858
#
#
#
# Elastic Compliance Matrix: (Units=1/GPa)
#
#
# Indices 1 2 3 4 5 6 
#
# 1 0.023098 -0.014434 -0.006064 0.000000 0.000000 0.000000
# 2 -0.014434 0.034503 -0.002353 0.000000 0.000000 0.000000
# 3 -0.006064 -0.002353 0.014161 0.000000 0.000000 0.000000
# 4 0.000000 0.000000 0.000000 0.099948 0.000000 0.000000
# 5 0.000000 0.000000 0.000000 0.000000 0.077285 0.000000
# 6 0.000000 0.000000 0.000000 0.000000 0.000000 0.051319
#
#
# Mechanical properties :
#
#
# Convention : Reuss Voigt Hill
#
# Bulk Modulus (GPa) = 38.37342 43.74389 41.05865
# Shear Modulus (GPa) = 14.09638 16.23126 15.16382
#
# Velocity S-wave (km/s) = 3.03028 3.25166 3.14292
# Velocity P-wave (km/s) = 6.10251 6.52635 6.31799
#
# Compressibility (1/GPa) = 0.02605971
#
# Stress axis : x y z
#
# Youngs Moduli (GPa) = 43.29455 28.98291 70.61813
#
# Poissons Ratio (x) = 0.41833 0.42825
# Poissons Ratio (y) = 0.62490 0.16615
# Poissons Ratio (z) = 0.26255 0.06819
#
# Static dielectric constant tensor:
#      x y z
#    x 1.510360 0.000000 0.000000 
#    y 0.000000 1.506480 0.000000 
#    z 0.000000 0.000000 1.773880 
# 
# From -- ./inp_files/69554.got.cif
#   From: 2010.05.17/outbox.cif.g08.bks.cpg/sg71_35_cif.got.tgz:69554.got - 2010.06.03 16:22:01.
