data_PCOD9518874
_publ_section_title
;
Structure prediction by ZEFSAII (Michael W. Deem and Ramdas Pophale) SiO2 
 PCOD9518874
Probable space group: I M M M
;
_chemical_formula_sum "Si O2"
_cell_formula_units_Z 104
_cell_length_a 21.816225
_cell_length_b 7.558863
_cell_length_c 32.662879
_cell_angle_alpha 90.000000
_cell_angle_beta 90.000000
_cell_angle_gamma 90.000000
_cell_volume 5386.300019
_symmetry_space_group_name_H-M "I M M M"
_symmetry_group_IT_number 71
_symmetry_cell_setting 'orthorhombic'
loop_
_space_group_symop_operation_xyz
x,y,z
-x,-y,z
x,-y,-z
-x,y,-z
-x,-y,-z
x,y,-z
-x,y,z
x,-y,z
1/2+x,1/2+y,1/2+z
1/2-x,1/2-y,1/2+z
1/2+x,1/2-y,1/2-z
1/2-x,1/2+y,1/2-z
1/2-x,1/2-y,1/2-z
1/2+x,1/2+y,1/2-z
1/2-x,1/2+y,1/2+z
1/2+x,1/2-y,1/2+z
loop_
_atom_site_type_symbol
_atom_site_label
_atom_site_fract_x
_atom_site_fract_y
_atom_site_fract_z
Si Si1 0.162575 0.286142 0.066483
Si Si2 0.684807 0.708701 0.138989
Si Si3 0.568202 0.216276 0.500000
Si Si4 0.930918 0.287810 0.216503
Si Si5 0.820795 0.284486 0.158960
Si Si6 0.299259 0.203541 0.955032
Si Si7 0.432059 0.287279 0.187405
O O1 0.168214 0.500000 0.064377
O O2 0.155762 0.238916 0.113657
O O3 0.225610 0.214011 0.048266
O O4 0.105936 0.228899 0.039549
O O5 0.686457 0.500000 0.147717
O O6 0.749651 0.778487 0.157284
O O7 0.681155 0.724182 0.089535
O O8 0.624547 0.782879 0.160872
O O9 0.500000 0.281859 0.500000
O O10 0.566992 0.000000 0.500000
O O11 0.932250 0.500000 0.210809
O O12 0.871456 0.221599 0.191500
O O13 0.922782 0.250419 0.264583
O O14 0.000000 0.222767 0.204970
O O15 0.818392 0.500000 0.162284
O O16 0.318701 0.000000 0.955418
O O17 0.316639 0.280967 0.000000
O O18 0.500000 0.220095 0.176042
O O19 0.433469 0.500000 0.182472
#
# Coordination Sequence:
#
# PCOD9518874 Si02
#       7
#    16  16   8  16  16  16  16
#     4   9  16  28  45  63  89 124 159 197 238 277
#     4   9  18  32  50  71  93 120 154 190 233 278
#     4   9  16  24  39  65  89 115 160 207 238 269
#     4   9  17  29  45  65  91 126 161 189 227 277
#     4   8  15  27  43  65  91 118 153 195 230 266
#     4  10  19  30  47  70  95 120 149 188 230 277
#     4   9  18  33  51  70  93 120 151 189 231 278
#
# _framework density 19.308246
#
# number of rings (size 3 to 8) (size 9 to 14) (size 15 to 20)
#    0.000    3.000    0.769    1.385    0.000    2.769 
#    0.000    6.154    0.000    1.385    0.000    3.231 
#    0.000    0.000    0.000    0.000    0.000    0.000 
#
# Total GULP energy -289571.494238 kJ/mol
# GULP energy per Si atom -5568.682582 kJ/mol
# Density = 1.926430 g / cm^3
# Si number density = 19.308246 Si / 1000 Ang^3
#
#
#
# Elastic Constant Matrix: (Units=GPa)
#
#
# Indices 1 2 3 4 5 6 
#
# 1 173.6817 10.3315 111.0943 0.0000 0.0000 0.0000
# 2 10.3315 41.3617 -2.4673 0.0000 0.0000 0.0000
# 3 111.0943 -2.4673 112.3361 0.0000 0.0000 0.0000
# 4 0.0000 0.0000 0.0000 15.3091 0.0000 0.0000
# 5 0.0000 0.0000 0.0000 0.0000 70.0148 0.0000
# 6 0.0000 0.0000 0.0000 0.0000 0.0000 -2.3387
#
#
#
# Elastic Compliance Matrix: (Units=1/GPa)
#
#
# Indices 1 2 3 4 5 6 
#
# 1 0.016704 -0.005164 -0.016633 0.000000 0.000000 0.000000
# 2 -0.005164 0.025805 0.005674 0.000000 0.000000 0.000000
# 3 -0.016633 0.005674 0.025475 0.000000 0.000000 0.000000
# 4 0.000000 0.000000 0.000000 0.065320 0.000000 0.000000
# 5 0.000000 0.000000 0.000000 0.000000 0.014283 0.000000
# 6 0.000000 0.000000 0.000000 0.000000 0.000000 -0.427586
#
#
# Mechanical properties :
#
#
# Convention : Reuss Voigt Hill
#
# Bulk Modulus (GPa) = 27.98094 62.81074 45.39584
# Shear Modulus (GPa) = -21.20080 30.49178 4.64549
#
# Velocity S-wave (km/s) = -3.31723 3.97824 1.55280
# Velocity P-wave (km/s) = 0.38582 7.32823 5.17466
#
# Compressibility (1/GPa) = 0.03573861
#
# Stress axis : x y z
#
# Youngs Moduli (GPa) = 59.86685 38.75156 39.25398
#
# Poissons Ratio (x) = 0.20013 0.65289
# Poissons Ratio (y) = 0.30918 -0.22273
# Poissons Ratio (z) = 0.99574 -0.21988
#
# Static dielectric constant tensor:
#      x y z
#    x 1.682910 0.000000 0.000000 
#    y 0.000000 1.718520 0.000000 
#    z 0.000000 0.000000 1.663840 
# 
# From -- ./inp_files/66783.got.cif
#   From: 2010.05.17/outbox.cif.g08.bks.cpg/sg71_34_cif.got.tgz:66783.got - 2010.06.03 16:22:01.
