data_PCOD9518056
_publ_section_title
;
Structure prediction by ZEFSAII (Michael W. Deem and Ramdas Pophale) SiO2 
 PCOD9518056
Probable space group: I M M M
;
_chemical_formula_sum "Si O2"
_cell_formula_units_Z 104
_cell_length_a 9.042469
_cell_length_b 30.463880
_cell_length_c 22.890719
_cell_angle_alpha 90.000000
_cell_angle_beta 90.000000
_cell_angle_gamma 90.000000
_cell_volume 6305.676388
_symmetry_space_group_name_H-M "I M M M"
_symmetry_group_IT_number 71
_symmetry_cell_setting 'orthorhombic'
loop_
_space_group_symop_operation_xyz
x,y,z
-x,-y,z
x,-y,-z
-x,y,-z
-x,-y,-z
x,y,-z
-x,y,z
x,-y,z
1/2+x,1/2+y,1/2+z
1/2-x,1/2-y,1/2+z
1/2+x,1/2-y,1/2-z
1/2-x,1/2+y,1/2-z
1/2-x,1/2-y,1/2-z
1/2+x,1/2+y,1/2-z
1/2-x,1/2+y,1/2+z
1/2+x,1/2-y,1/2+z
loop_
_atom_site_type_symbol
_atom_site_label
_atom_site_fract_x
_atom_site_fract_y
_atom_site_fract_z
Si Si1 0.823157 0.802091 0.569103
Si Si2 0.176368 0.051190 0.847044
Si Si3 0.330062 0.287953 0.570971
Si Si4 0.175716 0.621565 0.430505
Si Si5 0.320199 0.449715 0.000000
Si Si6 0.176455 0.551329 0.778595
Si Si7 0.678817 0.603280 0.883887
O O1 0.790376 0.809404 0.500000
O O2 0.741971 0.758041 0.589360
O O3 0.783340 0.845934 0.604155
O O4 0.000000 0.795724 0.573181
O O5 0.244947 0.083428 0.894681
O O6 0.249908 0.059984 0.784164
O O7 0.000000 0.057083 0.843364
O O8 0.205824 0.000000 0.861466
O O9 0.327473 0.287223 0.500000
O O10 0.500000 0.291433 0.589765
O O11 0.238993 0.331019 0.588359
O O12 0.204134 0.616764 0.500000
O O13 0.000000 0.620078 0.421452
O O14 0.276013 0.424125 0.941550
O O15 0.269003 0.500000 0.000000
O O16 0.500000 0.450028 0.000000
O O17 0.206936 0.500000 0.793277
O O18 0.245400 0.582213 0.827824
O O19 0.000000 0.556842 0.774902
O O20 0.500000 0.600271 0.878583
#
# Coordination Sequence:
#
# PCOD9518056 Si02
#       7
#    16  16  16  16   8  16  16
#     4   9  16  28  46  70 101 133 170 214 261 308
#     4  10  21  37  57  79 103 134 172 211 248 293
#     4   9  17  29  47  72 102 136 172 208 248 297
#     4  10  20  34  54  81 111 140 167 199 246 299
#     4   9  16  26  43  69  99 131 169 215 264 309
#     4  10  21  36  52  71  98 134 175 216 258 306
#     4  10  18  30  49  73  99 132 174 219 262 308
#
# _framework density 16.493075000000001
#
# number of rings (size 3 to 8) (size 9 to 14) (size 15 to 20)
#    0.000    2.385    0.769    2.308    0.000    6.154 
#    0.000    1.923    0.000    2.308    0.000    0.000 
#    0.000    0.000    0.000    0.000    0.000    0.000 
#
# Total GULP energy -290060.921457 kJ/mol
# GULP energy per Si atom -5578.094643 kJ/mol
# Density = 1.645554 g / cm^3
# Si number density = 16.493075 Si / 1000 Ang^3
#
#
#
# Elastic Constant Matrix: (Units=GPa)
#
#
# Indices 1 2 3 4 5 6 
#
# 1 75.4237 81.2322 56.7753 0.0000 0.0000 0.0000
# 2 81.2322 156.0760 82.7665 0.0000 0.0000 0.0000
# 3 56.7753 82.7665 70.9730 0.0000 0.0000 0.0000
# 4 0.0000 0.0000 0.0000 13.4431 0.0000 0.0000
# 5 0.0000 0.0000 0.0000 0.0000 24.9160 0.0000
# 6 0.0000 0.0000 0.0000 0.0000 0.0000 30.6672
#
#
#
# Elastic Compliance Matrix: (Units=1/GPa)
#
#
# Indices 1 2 3 4 5 6 
#
# 1 0.038144 -0.009622 -0.019293 0.000000 0.000000 0.000000
# 2 -0.009622 0.019218 -0.014714 0.000000 0.000000 0.000000
# 3 -0.019293 -0.014714 0.046683 0.000000 0.000000 0.000000
# 4 0.000000 0.000000 0.000000 0.074387 0.000000 0.000000
# 5 0.000000 0.000000 0.000000 0.000000 0.040135 0.000000
# 6 0.000000 0.000000 0.000000 0.000000 0.000000 0.032608
#
#
# Mechanical properties :
#
#
# Convention : Reuss Voigt Hill
#
# Bulk Modulus (GPa) = 59.57133 82.66896 71.12014
# Shear Modulus (GPa) = 14.53368 19.25183 16.89275
#
# Velocity S-wave (km/s) = 2.97172 3.42024 3.20384
# Velocity P-wave (km/s) = 6.92620 8.11354 7.54327
#
# Compressibility (1/GPa) = 0.01678660
#
# Stress axis : x y z
#
# Youngs Moduli (GPa) = 26.21658 52.03508 21.42110
#
# Poissons Ratio (x) = 0.50066 0.41328
# Poissons Ratio (y) = 0.25224 0.31520
# Poissons Ratio (z) = 0.50580 0.76567
#
# Static dielectric constant tensor:
#      x y z
#    x 1.550820 0.000000 0.000000 
#    y 0.000000 1.546690 0.000000 
#    z 0.000000 0.000000 1.523640 
# 
# From -- ./inp_files/17050.got.cif
#   From: 2010.05.17/outbox.cif.g08.bks.cpg/sg71_9_cif.got.tgz:17050.got - 2010.06.03 16:22:01.
