data_PCOD9518840
_publ_section_title
;
Structure prediction by ZEFSAII (Michael W. Deem and Ramdas Pophale) SiO2 
 PCOD9518840
Probable space group: I M M M
;
_chemical_formula_sum "Si O2"
_cell_formula_units_Z 112
_cell_length_a 22.685897
_cell_length_b 9.861821
_cell_length_c 30.212529
_cell_angle_alpha 90.000000
_cell_angle_beta 90.000000
_cell_angle_gamma 90.000000
_cell_volume 6759.275555
_symmetry_space_group_name_H-M "I M M M"
_symmetry_group_IT_number 71
_symmetry_cell_setting 'orthorhombic'
loop_
_space_group_symop_operation_xyz
x,y,z
-x,-y,z
x,-y,-z
-x,y,-z
-x,-y,-z
x,y,-z
-x,y,z
x,-y,z
1/2+x,1/2+y,1/2+z
1/2-x,1/2-y,1/2+z
1/2+x,1/2-y,1/2-z
1/2-x,1/2+y,1/2-z
1/2-x,1/2-y,1/2-z
1/2+x,1/2+y,1/2-z
1/2-x,1/2+y,1/2+z
1/2+x,1/2-y,1/2+z
loop_
_atom_site_type_symbol
_atom_site_label
_atom_site_fract_x
_atom_site_fract_y
_atom_site_fract_z
Si Si1 0.381602 0.162236 0.949654
Si Si2 0.734118 0.657264 0.051341
Si Si3 0.934465 0.664232 0.643925
Si Si4 0.570547 0.343054 0.549691
Si Si5 0.294765 0.158585 0.302474
Si Si6 0.850412 0.341234 0.107098
Si Si7 0.319989 0.838301 0.799222
O O1 0.320884 0.243305 0.942995
O O2 0.422373 0.197310 0.907762
O O3 0.371339 0.000000 0.947751
O O4 0.403213 0.192307 0.000000
O O5 0.716638 0.500000 0.059316
O O6 0.788341 0.690093 0.083047
O O7 0.753254 0.667056 0.000000
O O8 0.935387 0.500000 0.646916
O O9 0.878725 0.706359 0.674316
O O10 0.000000 0.712921 0.657049
O O11 0.588463 0.300448 0.500000
O O12 0.500000 0.336547 0.551879
O O13 0.587846 0.500000 0.555349
O O14 0.600229 0.249806 0.585566
O O15 0.341482 0.181918 0.341074
O O16 0.322409 0.180878 0.253990
O O17 0.238158 0.252848 0.311267
O O18 0.276384 0.000000 0.304801
O O19 0.862350 0.500000 0.099316
O O20 0.311581 0.000000 0.807577
#
# Coordination Sequence:
#
# PCOD9518840 Si02
#       7
#    16  16  16  16  16  16  16
#     4   9  17  28  43  65  90 115 148 188 225 263
#     4   9  17  28  42  62  90 121 147 175 218 268
#     4   9  17  29  46  67  90 118 152 188 224 264
#     4   9  19  35  51  67  91 124 159 193 230 276
#     4   9  18  31  48  72  98 120 148 193 241 278
#     4  10  19  30  46  70  96 120 151 191 234 280
#     4   9  17  31  50  70  92 122 159 191 227 281
#
# _framework density 16.569821999999998
#
# number of rings (size 3 to 8) (size 9 to 14) (size 15 to 20)
#    0.000    2.857    0.000    1.714    0.000    2.571 
#    0.000    4.286    0.000    4.286    0.000    2.000 
#    0.000    0.000    0.000    0.000    0.000    0.000 
#
# Total GULP energy -311896.446096 kJ/mol
# GULP energy per Si atom -5569.579395 kJ/mol
# Density = 1.653211 g / cm^3
# Si number density = 16.569822 Si / 1000 Ang^3
#
#
#
# Elastic Constant Matrix: (Units=GPa)
#
#
# Indices 1 2 3 4 5 6 
#
# 1 61.3869 31.5801 48.7156 0.0000 0.0000 0.0000
# 2 31.5801 28.2447 39.2320 0.0000 0.0000 0.0000
# 3 48.7156 39.2320 81.2053 0.0000 0.0000 0.0000
# 4 0.0000 0.0000 0.0000 18.9168 0.0000 0.0000
# 5 0.0000 0.0000 0.0000 0.0000 20.8408 0.0000
# 6 0.0000 0.0000 0.0000 0.0000 0.0000 13.9973
#
#
#
# Elastic Compliance Matrix: (Units=1/GPa)
#
#
# Indices 1 2 3 4 5 6 
#
# 1 0.039688 -0.034364 -0.007207 0.000000 0.000000 0.000000
# 2 -0.034364 0.137387 -0.045759 0.000000 0.000000 0.000000
# 3 -0.007207 -0.045759 0.038745 0.000000 0.000000 0.000000
# 4 0.000000 0.000000 0.000000 0.052863 0.000000 0.000000
# 5 0.000000 0.000000 0.000000 0.000000 0.047983 0.000000
# 6 0.000000 0.000000 0.000000 0.000000 0.000000 0.071443
#
#
# Mechanical properties :
#
#
# Convention : Reuss Voigt Hill
#
# Bulk Modulus (GPa) = 24.29587 45.54358 34.91973
# Shear Modulus (GPa) = 8.67320 14.17157 11.42239
#
# Velocity S-wave (km/s) = 2.29035 2.92766 2.62839
# Velocity P-wave (km/s) = 4.65713 6.24290 5.50739
#
# Compressibility (1/GPa) = 0.04115926
#
# Stress axis : x y z
#
# Youngs Moduli (GPa) = 25.19660 7.27872 25.80968
#
# Poissons Ratio (x) = 0.25013 0.18601
# Poissons Ratio (y) = 0.86586 1.18103
# Poissons Ratio (z) = 0.18159 0.33307
#
# Static dielectric constant tensor:
#      x y z
#    x 1.534790 0.000000 0.000000 
#    y 0.000000 1.547950 0.000000 
#    z 0.000000 0.000000 1.584910 
# 
# From -- ./inp_files/66568.got.cif
#   From: 2010.05.17/outbox.cif.g08.bks.cpg/sg71_34_cif.got.tgz:66568.got - 2010.06.03 16:22:01.
