data_PCOD9518093
_publ_section_title
;
Structure prediction by ZEFSAII (Michael W. Deem and Ramdas Pophale) SiO2 
 PCOD9518093
Probable space group: I M M M
;
_chemical_formula_sum "Si O2"
_cell_formula_units_Z 88
_cell_length_a 7.894737
_cell_length_b 23.044674
_cell_length_c 23.572506
_cell_angle_alpha 90.000000
_cell_angle_beta 90.000000
_cell_angle_gamma 90.000000
_cell_volume 4288.584687
_symmetry_space_group_name_H-M "I M M M"
_symmetry_group_IT_number 71
_symmetry_cell_setting 'orthorhombic'
loop_
_space_group_symop_operation_xyz
x,y,z
-x,-y,z
x,-y,-z
-x,y,-z
-x,-y,-z
x,y,-z
-x,y,z
x,-y,z
1/2+x,1/2+y,1/2+z
1/2-x,1/2-y,1/2+z
1/2+x,1/2-y,1/2-z
1/2-x,1/2+y,1/2-z
1/2-x,1/2-y,1/2-z
1/2+x,1/2+y,1/2-z
1/2-x,1/2+y,1/2+z
1/2+x,1/2-y,1/2+z
loop_
_atom_site_type_symbol
_atom_site_label
_atom_site_fract_x
_atom_site_fract_y
_atom_site_fract_z
Si Si1 0.292933 0.436441 0.785510
Si Si2 0.699649 0.724627 0.500000
Si Si3 0.192991 0.145182 0.500000
Si Si4 0.802908 0.911418 0.839422
Si Si5 0.298163 0.208949 0.121915
Si Si6 0.300954 0.000000 0.935452
Si Si7 0.791925 0.157310 0.376429
O O1 0.500000 0.433295 0.784121
O O2 0.247870 0.500000 0.808356
O O3 0.229774 0.431666 0.720898
O O4 0.236976 0.384228 0.825808
O O5 0.500000 0.737877 0.500000
O O6 0.804734 0.784445 0.500000
O O7 0.748569 0.693266 0.557456
O O8 0.267873 0.133018 0.562137
O O9 0.000000 0.123142 0.500000
O O10 0.778903 0.842243 0.841373
O O11 0.738770 0.944538 0.895299
O O12 0.000000 0.925575 0.838057
O O13 0.500000 0.207970 0.128261
O O14 0.239058 0.275400 0.131261
O O15 0.500000 0.000000 0.942633
O O16 0.225608 0.000000 0.000000
O O17 0.000000 0.158016 0.378801
#
# Coordination Sequence:
#
# PCOD9518093 Si02
#       7
#    16   8   8  16  16   8  16
#     4   9  17  32  53  78 108 145 183 225 276 324
#     4  10  18  30  50  76 106 141 178 219 266 325
#     4   8  14  28  49  76 109 143 174 215 266 317
#     4  11  22  37  57  82 110 144 185 229 272 322
#     4  10  20  34  52  78 110 145 180 225 276 325
#     4  11  25  43  61  81 109 146 185 228 275 326
#     4   8  15  29  51  77 110 147 182 220 270 326
#
# _framework density 20.519589
#
# number of rings (size 3 to 8) (size 9 to 14) (size 15 to 20)
#    0.000    2.455    0.909    3.273    1.273    1.455 
#    0.000    0.455    0.000   12.545    0.000    0.000 
#    0.000   11.636    0.000    0.000    0.000    0.000 
#
# Total GULP energy -245193.966798 kJ/mol
# GULP energy per Si atom -5572.590154 kJ/mol
# Density = 2.047289 g / cm^3
# Si number density = 20.519589 Si / 1000 Ang^3
#
#
#
# Elastic Constant Matrix: (Units=GPa)
#
#
# Indices 1 2 3 4 5 6 
#
# 1 28.9511 -1.9322 6.7186 0.0000 0.0000 0.0000
# 2 -1.9322 118.5703 72.9915 0.0000 0.0000 0.0000
# 3 6.7186 72.9915 127.1901 0.0000 0.0000 0.0000
# 4 0.0000 0.0000 0.0000 -55.5594 0.0000 0.0000
# 5 0.0000 0.0000 0.0000 0.0000 2.6541 0.0000
# 6 0.0000 0.0000 0.0000 0.0000 0.0000 13.1499
#
#
#
# Elastic Compliance Matrix: (Units=1/GPa)
#
#
# Indices 1 2 3 4 5 6 
#
# 1 0.035512 0.002680 -0.003414 0.000000 0.000000 0.000000
# 2 0.002680 0.013243 -0.007742 0.000000 0.000000 0.000000
# 3 -0.003414 -0.007742 0.012485 0.000000 0.000000 0.000000
# 4 0.000000 0.000000 0.000000 -0.017999 0.000000 0.000000
# 5 0.000000 0.000000 0.000000 0.000000 0.376776 0.000000
# 6 0.000000 0.000000 0.000000 0.000000 0.000000 0.076046
#
#
# Mechanical properties :
#
#
# Convention : Reuss Voigt Hill
#
# Bulk Modulus (GPa) = 22.57837 47.80747 35.19292
# Shear Modulus (GPa) = 9.47368 5.17783 7.32576
#
# Velocity S-wave (km/s) = 2.15103 1.59023 1.89153
# Velocity P-wave (km/s) = 4.14686 5.16922 4.68600
#
# Compressibility (1/GPa) = 0.04429017
#
# Stress axis : x y z
#
# Youngs Moduli (GPa) = 28.15936 75.51065 80.09427
#
# Poissons Ratio (x) = -0.20240 0.27345
# Poissons Ratio (y) = -0.07548 0.62005
# Poissons Ratio (z) = 0.09614 0.58457
#
# Static dielectric constant tensor:
#      x y z
#    x 1.739080 0.000000 0.000000 
#    y 0.000000 1.702380 0.000000 
#    z 0.000000 0.000000 1.919730 
# 
# From -- ./inp_files/57617.got.cif
#   From: 2010.05.17/outbox.cif.g08.bks.cpg/sg71_29_cif.got.tgz:57617.got - 2010.06.03 16:22:01.
