data_PCOD9518059
_publ_section_title
;
Structure prediction by ZEFSAII (Michael W. Deem and Ramdas Pophale) SiO2 
 PCOD9518059
Probable space group: I M M M
;
_chemical_formula_sum "Si O2"
_cell_formula_units_Z 84
_cell_length_a 28.727430
_cell_length_b 12.239094
_cell_length_c 15.176494
_cell_angle_alpha 90.000000
_cell_angle_beta 90.000000
_cell_angle_gamma 90.000000
_cell_volume 5336.020630
_symmetry_space_group_name_H-M "I M M M"
_symmetry_group_IT_number 71
_symmetry_cell_setting 'orthorhombic'
loop_
_space_group_symop_operation_xyz
x,y,z
-x,-y,z
x,-y,-z
-x,y,-z
-x,-y,-z
x,y,-z
-x,y,z
x,-y,z
1/2+x,1/2+y,1/2+z
1/2-x,1/2-y,1/2+z
1/2+x,1/2-y,1/2-z
1/2-x,1/2+y,1/2-z
1/2-x,1/2-y,1/2-z
1/2+x,1/2+y,1/2-z
1/2-x,1/2+y,1/2+z
1/2+x,1/2-y,1/2+z
loop_
_atom_site_type_symbol
_atom_site_label
_atom_site_fract_x
_atom_site_fract_y
_atom_site_fract_z
Si Si1 0.054059 0.000000 0.312008
Si Si2 0.686233 0.122488 0.000000
Si Si3 0.200193 0.765221 0.799467
Si Si4 0.851877 0.000000 0.805354
Si Si5 0.717658 0.724482 0.500000
Si Si6 0.869173 0.626309 0.683052
Si Si7 0.553954 0.734804 0.898808
Si Si8 0.661348 0.500000 0.500000
O O1 0.057724 0.108791 0.370639
O O2 0.099857 0.000000 0.249391
O O3 0.000000 0.000000 0.274863
O O4 0.656775 0.131077 0.088583
O O5 0.727008 0.209716 0.000000
O O6 0.707061 0.000000 0.000000
O O7 0.250000 0.750000 0.750000
O O8 0.204582 0.732048 0.902840
O O9 0.163366 0.686805 0.752432
O O10 0.179759 0.890134 0.791131
O O11 0.865839 0.000000 0.908492
O O12 0.693531 0.606077 0.500000
O O13 0.876727 0.500000 0.705431
O O14 0.916318 0.692084 0.666980
O O15 0.500000 0.766006 0.894852
O O16 0.569657 0.748201 0.000000
#
# Coordination Sequence:
#
# PCOD9518059 Si02
#       8
#     8   8  16   8   8  16  16   4
#     4  10  19  34  55  80 109 141 174 215 268 323
#     4  10  18  30  49  74 104 134 179 220 262 303
#     4  11  22  34  54  77 107 140 178 221 266 318
#     4  10  20  35  55  79 104 136 179 220 266 323
#     4  10  18  32  51  74 101 141 174 216 259 319
#     4  11  22  34  52  77 107 141 181 223 264 307
#     4  10  20  35  54  79 110 142 175 214 265 322
#     4   8  18  30  51  76 100 128 173 216 264 306
#
# _framework density 15.742069000000001
#
# number of rings (size 3 to 8) (size 9 to 14) (size 15 to 20)
#    0.000    1.714    5.238    0.286    1.333    1.524 
#    0.000    1.667    0.000    0.000    0.000    0.667 
#    0.000    1.524    0.000    0.000    0.000    0.000 
#
# Total GULP energy -233868.336947 kJ/mol
# GULP energy per Si atom -5568.293737 kJ/mol
# Density = 1.570624 g / cm^3
# Si number density = 15.742069 Si / 1000 Ang^3
#
#
#
# Elastic Constant Matrix: (Units=GPa)
#
#
# Indices 1 2 3 4 5 6 
#
# 1 93.2934 48.6073 47.1774 0.0000 0.0000 0.0000
# 2 48.6073 102.4362 38.2855 0.0000 0.0000 0.0000
# 3 47.1774 38.2855 105.8619 0.0000 0.0000 0.0000
# 4 0.0000 0.0000 0.0000 15.4442 0.0000 0.0000
# 5 0.0000 0.0000 0.0000 0.0000 22.0716 0.0000
# 6 0.0000 0.0000 0.0000 0.0000 0.0000 22.4632
#
#
#
# Elastic Compliance Matrix: (Units=1/GPa)
#
#
# Indices 1 2 3 4 5 6 
#
# 1 0.016384 -0.005834 -0.005192 0.000000 0.000000 0.000000
# 2 -0.005834 0.013365 -0.002234 0.000000 0.000000 0.000000
# 3 -0.005192 -0.002234 0.012568 0.000000 0.000000 0.000000
# 4 0.000000 0.000000 0.000000 0.064749 0.000000 0.000000
# 5 0.000000 0.000000 0.000000 0.000000 0.045307 0.000000
# 6 0.000000 0.000000 0.000000 0.000000 0.000000 0.044517
#
#
# Mechanical properties :
#
#
# Convention : Reuss Voigt Hill
#
# Bulk Modulus (GPa) = 63.29784 63.30354 63.30069
# Shear Modulus (GPa) = 21.86510 23.16389 22.51449
#
# Velocity S-wave (km/s) = 3.73092 3.84013 3.78592
# Velocity P-wave (km/s) = 7.67179 7.74354 7.70775
#
# Compressibility (1/GPa) = 0.01579833
#
# Stress axis : x y z
#
# Youngs Moduli (GPa) = 61.03606 74.82043 79.56892
#
# Poissons Ratio (x) = 0.43650 0.41308
# Poissons Ratio (y) = 0.35608 0.17774
# Poissons Ratio (z) = 0.31687 0.16713
#
# Static dielectric constant tensor:
#      x y z
#    x 1.524320 0.000000 0.000000 
#    y 0.000000 1.520750 0.000000 
#    z 0.000000 0.000000 1.528340 
# 
# From -- ./inp_files/40876.got.cif
#   From: 2010.05.17/outbox.cif.g08.bks.cpg/sg71_21_cif.got.tgz:40876.got - 2010.06.03 16:22:01.
