data_PCOD9518333
_publ_section_title
;
Structure prediction by ZEFSAII (Michael W. Deem and Ramdas Pophale) SiO2 
 PCOD9518333
Probable space group: I M M M
;
_chemical_formula_sum "Si O2"
_cell_formula_units_Z 88
_cell_length_a 11.902756
_cell_length_b 14.200734
_cell_length_c 28.280152
_cell_angle_alpha 90.000000
_cell_angle_beta 90.000000
_cell_angle_gamma 90.000000
_cell_volume 4780.133907
_symmetry_space_group_name_H-M "I M M M"
_symmetry_group_IT_number 71
_symmetry_cell_setting 'orthorhombic'
loop_
_space_group_symop_operation_xyz
x,y,z
-x,-y,z
x,-y,-z
-x,y,-z
-x,-y,-z
x,y,-z
-x,y,z
x,-y,z
1/2+x,1/2+y,1/2+z
1/2-x,1/2-y,1/2+z
1/2+x,1/2-y,1/2-z
1/2-x,1/2+y,1/2-z
1/2-x,1/2-y,1/2-z
1/2+x,1/2+y,1/2-z
1/2-x,1/2+y,1/2+z
1/2+x,1/2-y,1/2+z
loop_
_atom_site_type_symbol
_atom_site_label
_atom_site_fract_x
_atom_site_fract_y
_atom_site_fract_z
Si Si1 0.259860 0.888724 0.553899
Si Si2 0.000000 0.306869 0.078739
Si Si3 0.000000 0.106598 0.111049
Si Si4 0.500000 0.112811 0.684098
Si Si5 0.268793 0.390718 0.331569
Si Si6 0.254977 0.112686 0.277168
Si Si7 0.866590 0.782872 0.637622
O O1 0.220530 0.875601 0.500000
O O2 0.387350 0.851506 0.557981
O O3 0.186160 0.833675 0.592027
O O4 0.259035 0.000000 0.564835
O O5 0.000000 0.193805 0.075122
O O6 0.000000 0.332666 0.134608
O O7 0.889493 0.116272 0.143505
O O8 0.000000 0.000000 0.091090
O O9 0.614132 0.134612 0.712128
O O10 0.500000 0.000000 0.674203
O O11 0.232890 0.500000 0.332917
O O12 0.275367 0.362169 0.276504
O O13 0.183301 0.321841 0.357686
O O14 0.179375 0.162575 0.316244
O O15 0.241586 0.000000 0.282102
O O16 0.000000 0.783579 0.636164
#
# Coordination Sequence:
#
# PCOD9518333 Si02
#       7
#    16   8   8   8  16  16  16
#     4  11  24  42  65  92 119 151 193 243 302 364
#     4  12  19  37  65  92 123 151 190 246 303 357
#     4  10  20  37  64  91 121 158 194 242 299 343
#     4  10  18  31  57  87 118 155 196 244 301 346
#     4  10  22  40  61  87 120 161 205 245 288 345
#     4  10  21  36  57  86 121 160 200 244 291 348
#     4  12  25  39  59  86 120 162 203 245 297 351
#
# _framework density 18.409524999999999
#
# number of rings (size 3 to 8) (size 9 to 14) (size 15 to 20)
#    0.000    1.273    3.636    2.182    2.545    2.909 
#    0.000    0.909    0.000    2.727    0.000    1.273 
#    0.000    0.000    0.000    0.000    0.000    0.000 
#
# Total GULP energy -245991.976770 kJ/mol
# GULP energy per Si atom -5590.726745 kJ/mol
# Density = 1.836762 g / cm^3
# Si number density = 18.409525 Si / 1000 Ang^3
#
#
#
# Elastic Constant Matrix: (Units=GPa)
#
#
# Indices 1 2 3 4 5 6 
#
# 1 141.1317 64.5419 43.3896 0.0000 0.0000 0.0000
# 2 64.5419 120.6912 71.2229 0.0000 0.0000 0.0000
# 3 43.3896 71.2229 83.8131 0.0000 0.0000 0.0000
# 4 0.0000 0.0000 0.0000 23.7774 0.0000 0.0000
# 5 0.0000 0.0000 0.0000 0.0000 -0.3250 0.0000
# 6 0.0000 0.0000 0.0000 0.0000 0.0000 12.0561
#
#
#
# Elastic Compliance Matrix: (Units=1/GPa)
#
#
# Indices 1 2 3 4 5 6 
#
# 1 0.009439 -0.004341 -0.001198 0.000000 0.000000 0.000000
# 2 -0.004341 0.018617 -0.013573 0.000000 0.000000 0.000000
# 3 -0.001198 -0.013573 0.024085 0.000000 0.000000 0.000000
# 4 0.000000 0.000000 0.000000 0.042057 0.000000 0.000000
# 5 0.000000 0.000000 0.000000 0.000000 -3.077264 0.000000
# 6 0.000000 0.000000 0.000000 0.000000 0.000000 0.082946
#
#
# Mechanical properties :
#
#
# Convention : Reuss Voigt Hill
#
# Bulk Modulus (GPa) = 71.84901 78.21609 75.03255
# Shear Modulus (GPa) = -1.74993 18.20048 8.22528
#
# Velocity S-wave (km/s) = -0.97602 3.14768 2.11604
# Velocity P-wave (km/s) = 6.15165 7.46924 6.84223
#
# Compressibility (1/GPa) = 0.01391808
#
# Stress axis : x y z
#
# Youngs Moduli (GPa) = 105.94390 53.71532 41.51906
#
# Poissons Ratio (x) = 0.23317 0.04973
# Poissons Ratio (y) = 0.45989 0.56353
# Poissons Ratio (z) = 0.12689 0.72907
#
# Static dielectric constant tensor:
#      x y z
#    x 1.597930 0.000000 0.000000 
#    y 0.000000 1.662290 0.000000 
#    z 0.000000 0.000000 1.616580 
# 
# From -- ./inp_files/58751.got.cif
#   From: 2010.05.17/outbox.cif.g08.bks.cpg/sg71_30_cif.got.tgz:58751.got - 2010.06.03 16:22:01.
