data_PCOD9518474
_publ_section_title
;
Structure prediction by ZEFSAII (Michael W. Deem and Ramdas Pophale) SiO2 
 PCOD9518474
Probable space group: I M M M
;
_chemical_formula_sum "Si O2"
_cell_formula_units_Z 104
_cell_length_a 14.620180
_cell_length_b 24.499607
_cell_length_c 17.029634
_cell_angle_alpha 90.000000
_cell_angle_beta 90.000000
_cell_angle_gamma 90.000000
_cell_volume 6099.821855
_symmetry_space_group_name_H-M "I M M M"
_symmetry_group_IT_number 71
_symmetry_cell_setting 'orthorhombic'
loop_
_space_group_symop_operation_xyz
x,y,z
-x,-y,z
x,-y,-z
-x,y,-z
-x,-y,-z
x,y,-z
-x,y,z
x,-y,z
1/2+x,1/2+y,1/2+z
1/2-x,1/2-y,1/2+z
1/2+x,1/2-y,1/2-z
1/2-x,1/2+y,1/2-z
1/2-x,1/2-y,1/2-z
1/2+x,1/2+y,1/2-z
1/2-x,1/2+y,1/2+z
1/2+x,1/2-y,1/2+z
loop_
_atom_site_type_symbol
_atom_site_label
_atom_site_fract_x
_atom_site_fract_y
_atom_site_fract_z
Si Si1 0.217244 0.148289 0.646432
Si Si2 0.893493 0.772731 0.753533
Si Si3 0.894967 0.285045 0.092110
Si Si4 0.609641 0.155519 0.829174
Si Si5 0.000000 0.434875 0.089189
Si Si6 0.108258 0.816660 0.500000
Si Si7 0.166512 0.435800 0.791753
Si Si8 0.388269 0.189813 0.000000
O O1 0.174658 0.183663 0.716943
O O2 0.312327 0.175207 0.615960
O O3 0.146869 0.154274 0.576152
O O4 0.240193 0.087044 0.671355
O O5 0.885244 0.764808 0.846931
O O6 0.873589 0.713323 0.714664
O O7 0.000000 0.785322 0.734354
O O8 0.000000 0.306252 0.106300
O O9 0.888129 0.272099 0.000000
O O10 0.500000 0.148905 0.829919
O O11 0.648255 0.104288 0.781577
O O12 0.641696 0.162003 0.918954
O O13 0.912017 0.424429 0.143224
O O14 0.000000 0.500000 0.078863
O O15 0.000000 0.411022 0.000000
O O16 0.140381 0.753294 0.500000
O O17 0.000000 0.815533 0.500000
O O18 0.165630 0.500000 0.773460
O O19 0.500000 0.189739 0.000000
#
# Coordination Sequence:
#
# PCOD9518474 Si02
#       8
#    16  16  16  16   8   8  16   8
#     4  12  22  35  57  81 112 152 189 230 281 340
#     4  10  20  35  56  82 113 147 186 232 286 345
#     4  10  21  34  49  80 119 145 174 220 279 344
#     4  10  18  33  55  81 112 148 184 234 291 346
#     4   9  20  38  56  73 101 145 193 238 279 324
#     4  11  22  38  58  88 117 147 186 235 290 351
#     4  11  24  38  54  77 110 153 198 238 279 339
#     4   9  18  32  55  84 114 141 181 231 284 351
#
# _framework density 17.049678
#
# number of rings (size 3 to 8) (size 9 to 14) (size 15 to 20)
#    0.000    1.615    4.615    0.923    2.154    0.000 
#    0.000    0.385    0.000    3.692    0.000    0.000 
#    0.000    0.000    0.000    3.846    0.000    0.000 
#
# Total GULP energy -290147.994815 kJ/mol
# GULP energy per Si atom -5579.769131 kJ/mol
# Density = 1.701087 g / cm^3
# Si number density = 17.049678 Si / 1000 Ang^3
#
#
#
# Elastic Constant Matrix: (Units=GPa)
#
#
# Indices 1 2 3 4 5 6 
#
# 1 64.1980 30.0960 23.3008 0.0000 0.0000 0.0000
# 2 30.0960 90.7720 40.4835 0.0000 0.0000 0.0000
# 3 23.3008 40.4835 111.6334 0.0000 0.0000 0.0000
# 4 0.0000 0.0000 0.0000 15.6281 0.0000 0.0000
# 5 0.0000 0.0000 0.0000 0.0000 28.8117 0.0000
# 6 0.0000 0.0000 0.0000 0.0000 0.0000 19.5668
#
#
#
# Elastic Compliance Matrix: (Units=1/GPa)
#
#
# Indices 1 2 3 4 5 6 
#
# 1 0.018805 -0.005350 -0.001985 0.000000 0.000000 0.000000
# 2 -0.005350 0.014664 -0.004201 0.000000 0.000000 0.000000
# 3 -0.001985 -0.004201 0.010896 0.000000 0.000000 0.000000
# 4 0.000000 0.000000 0.000000 0.063987 0.000000 0.000000
# 5 0.000000 0.000000 0.000000 0.000000 0.034708 0.000000
# 6 0.000000 0.000000 0.000000 0.000000 0.000000 0.051107
#
#
# Mechanical properties :
#
#
# Convention : Reuss Voigt Hill
#
# Bulk Modulus (GPa) = 46.96366 50.48488 48.72427
# Shear Modulus (GPa) = 22.28788 24.31620 23.30204
#
# Velocity S-wave (km/s) = 3.61949 3.78060 3.70092
# Velocity P-wave (km/s) = 6.71361 6.98083 6.84852
#
# Compressibility (1/GPa) = 0.02129306
#
# Stress axis : x y z
#
# Youngs Moduli (GPa) = 53.17668 68.19401 91.77841
#
# Poissons Ratio (x) = 0.36481 0.18219
# Poissons Ratio (y) = 0.28448 0.38558
# Poissons Ratio (z) = 0.10556 0.28650
#
# Static dielectric constant tensor:
#      x y z
#    x 1.607810 0.000000 0.000000 
#    y 0.000000 1.560360 0.000000 
#    z 0.000000 0.000000 1.607200 
# 
# From -- ./inp_files/45002.got.cif
#   From: 2010.05.17/outbox.cif.g08.bks.cpg/sg71_23_cif.got.tgz:45002.got - 2010.06.03 16:22:01.
