data_PCOD9518951
_publ_section_title
;
Structure prediction by ZEFSAII (Michael W. Deem and Ramdas Pophale) SiO2 
 PCOD9518951
Probable space group: I M M M
;
_chemical_formula_sum "Si O2"
_cell_formula_units_Z 58
_cell_length_a 26.364918
_cell_length_b 14.892621
_cell_length_c 9.017616
_cell_angle_alpha 90.000000
_cell_angle_beta 90.000000
_cell_angle_gamma 90.000000
_cell_volume 3540.701378
_symmetry_space_group_name_H-M "I M M M"
_symmetry_group_IT_number 71
_symmetry_cell_setting 'orthorhombic'
loop_
_space_group_symop_operation_xyz
x,y,z
-x,-y,z
x,-y,-z
-x,y,-z
-x,-y,-z
x,y,-z
-x,y,z
x,-y,z
1/2+x,1/2+y,1/2+z
1/2-x,1/2-y,1/2+z
1/2+x,1/2-y,1/2-z
1/2-x,1/2+y,1/2-z
1/2-x,1/2-y,1/2-z
1/2+x,1/2+y,1/2-z
1/2-x,1/2+y,1/2+z
1/2+x,1/2-y,1/2+z
loop_
_atom_site_type_symbol
_atom_site_label
_atom_site_fract_x
_atom_site_fract_y
_atom_site_fract_z
Si Si1 0.847386 0.000000 0.178639
Si Si2 0.796877 0.303379 0.178784
Si Si3 0.000000 0.000000 0.500000
Si Si4 0.763646 0.500000 0.178321
Si Si5 0.604874 0.690387 0.678445
Si Si6 0.000000 0.812382 0.662524
O O1 0.791780 0.000000 0.248922
O O2 0.876920 0.909825 0.222626
O O3 0.842360 0.000000 0.000000
O O4 0.750000 0.250000 0.250000
O O5 0.791955 0.408011 0.219446
O O6 0.849926 0.257820 0.222459
O O7 0.792848 0.295757 0.000000
O O8 0.000000 0.080684 0.373272
O O9 0.757591 0.500000 0.000000
O O10 0.600372 0.692151 0.500000
O O11 0.551101 0.710576 0.750836
O O12 0.000000 0.768217 0.500000
#
# Coordination Sequence:
#
# PCOD9518951 Si02
#       6
#     8  16   2   8  16   8
#     4  10  19  30  49  76 105 140 172 210 253 309
#     4  10  20  34  52  77 105 138 176 214 259 309
#     4   8  20  36  50  76 112 126 170 212 268 310
#     4  10  20  33  50  77 109 138 170 217 263 302
#     4  10  20  34  52  73 103 139 177 210 251 309
#     4  10  21  35  51  74 102 135 169 215 258 310
#
# _framework density 16.380935999999998
#
# number of rings (size 3 to 8) (size 9 to 14) (size 15 to 20)
#    0.414    1.655    2.759    1.241    0.000    2.207 
#    0.000    2.759    0.000    0.828    0.000    5.793 
#    0.000    0.000    0.000    0.000    0.000    0.000 
#
# Total GULP energy -161434.761171 kJ/mol
# GULP energy per Si atom -5566.715902 kJ/mol
# Density = 1.634365 g / cm^3
# Si number density = 16.380936 Si / 1000 Ang^3
#
#
#
# Elastic Constant Matrix: (Units=GPa)
#
#
# Indices 1 2 3 4 5 6 
#
# 1 180.8615 80.2224 48.8942 0.0000 0.0000 0.0000
# 2 80.2224 119.2756 30.9694 0.0000 0.0000 0.0000
# 3 48.8942 30.9694 19.3555 0.0000 0.0000 0.0000
# 4 0.0000 0.0000 0.0000 11.4749 0.0000 0.0000
# 5 0.0000 0.0000 0.0000 0.0000 29.3298 0.0000
# 6 0.0000 0.0000 0.0000 0.0000 0.0000 11.0667
#
#
#
# Elastic Compliance Matrix: (Units=1/GPa)
#
#
# Indices 1 2 3 4 5 6 
#
# 1 0.017454 -0.000498 -0.043294 0.000000 0.000000 0.000000
# 2 -0.000498 0.014357 -0.021712 0.000000 0.000000 0.000000
# 3 -0.043294 -0.021712 0.195771 0.000000 0.000000 0.000000
# 4 0.000000 0.000000 0.000000 0.087146 0.000000 0.000000
# 5 0.000000 0.000000 0.000000 0.000000 0.034095 0.000000
# 6 0.000000 0.000000 0.000000 0.000000 0.000000 0.090361
#
#
# Mechanical properties :
#
#
# Convention : Reuss Voigt Hill
#
# Bulk Modulus (GPa) = 10.35494 71.07385 40.71439
# Shear Modulus (GPa) = 8.30035 21.00140 14.65087
#
# Velocity S-wave (km/s) = 2.25346 3.58448 2.99387
# Velocity P-wave (km/s) = 3.62020 7.78548 6.07122
#
# Compressibility (1/GPa) = 0.09657228
#
# Stress axis : x y z
#
# Youngs Moduli (GPa) = 57.29261 69.65455 5.10801
#
# Poissons Ratio (x) = 0.03470 0.22115
# Poissons Ratio (y) = 0.02854 0.11091
# Poissons Ratio (z) = 2.48044 1.51236
#
# Static dielectric constant tensor:
#      x y z
#    x 1.520010 0.000000 0.000000 
#    y 0.000000 1.551960 0.000000 
#    z 0.000000 0.000000 1.558210 
# 
# From -- ./inp_files/5394.got.cif
#   From: 2010.05.17/outbox.cif.g08.bks.cpg/sg71_3_cif.got.tgz:5394.got - 2010.06.03 16:22:01.
