data_PCOD9518305
_publ_section_title
;
Structure prediction by ZEFSAII (Michael W. Deem and Ramdas Pophale) SiO2 
 PCOD9518305
Probable space group: I M M M
;
_chemical_formula_sum "Si O2"
_cell_formula_units_Z 76
_cell_length_a 12.520852
_cell_length_b 16.362191
_cell_length_c 22.061373
_cell_angle_alpha 90.000000
_cell_angle_beta 90.000000
_cell_angle_gamma 90.000000
_cell_volume 4519.681981
_symmetry_space_group_name_H-M "I M M M"
_symmetry_group_IT_number 71
_symmetry_cell_setting 'orthorhombic'
loop_
_space_group_symop_operation_xyz
x,y,z
-x,-y,z
x,-y,-z
-x,y,-z
-x,-y,-z
x,y,-z
-x,y,z
x,-y,z
1/2+x,1/2+y,1/2+z
1/2-x,1/2-y,1/2+z
1/2+x,1/2-y,1/2-z
1/2-x,1/2+y,1/2-z
1/2-x,1/2-y,1/2-z
1/2+x,1/2+y,1/2-z
1/2-x,1/2+y,1/2+z
1/2+x,1/2-y,1/2+z
loop_
_atom_site_type_symbol
_atom_site_label
_atom_site_fract_x
_atom_site_fract_y
_atom_site_fract_z
Si Si1 0.621515 0.000000 0.753959
Si Si2 0.118184 0.680130 0.294009
Si Si3 0.879323 0.364527 0.071817
Si Si4 0.500000 0.592600 0.300771
Si Si5 0.160045 0.767588 0.166963
Si Si6 0.000000 0.000000 0.680064
Si Si7 0.761649 0.000000 0.365049
O O1 0.631178 0.082607 0.792021
O O2 0.710210 0.000000 0.702049
O O3 0.500000 0.000000 0.727783
O O4 0.128979 0.710657 0.224359
O O5 0.213543 0.720347 0.330468
O O6 0.000000 0.701461 0.315584
O O7 0.873616 0.278350 0.106433
O O8 0.789372 0.422332 0.100798
O O9 0.000000 0.397638 0.082373
O O10 0.864539 0.357614 0.000000
O O11 0.500000 0.500000 0.325766
O O12 0.600669 0.646834 0.320900
O O13 0.500000 0.576433 0.227927
O O14 0.889629 0.000000 0.642668
#
# Coordination Sequence:
#
# PCOD9518305 Si02
#       7
#     8  16  16   8  16   4   8
#     4  10  18  31  53  85 115 139 177 223 280 332
#     4  10  20  31  51  80 110 141 175 219 282 345
#     4  11  23  39  59  82 108 145 196 245 278 319
#     4  10  22  36  53  84 114 151 179 221 292 350
#     4  11  20  34  54  77 111 143 182 229 277 336
#     4  10  26  36  55  86 125 150 188 214 282 360
#     4  12  21  37  57  83 117 155 181 228 275 348
#
# _framework density 16.815342999999999
#
# number of rings (size 3 to 8) (size 9 to 14) (size 15 to 20)
#    0.316    1.053    4.211    2.526    4.421    0.842 
#    0.000    1.053    0.000    1.263    0.000    0.000 
#    0.000    2.526    0.000    0.000    0.000    0.000 
#
# Total GULP energy -211999.196874 kJ/mol
# GULP energy per Si atom -5578.926234 kJ/mol
# Density = 1.677707 g / cm^3
# Si number density = 16.815343 Si / 1000 Ang^3
#
#
#
# Elastic Constant Matrix: (Units=GPa)
#
#
# Indices 1 2 3 4 5 6 
#
# 1 163.5229 35.0720 44.1318 0.0000 0.0000 0.0000
# 2 35.0720 94.3727 21.1701 0.0000 0.0000 0.0000
# 3 44.1318 21.1701 54.5402 0.0000 0.0000 0.0000
# 4 0.0000 0.0000 0.0000 -33.1721 0.0000 0.0000
# 5 0.0000 0.0000 0.0000 0.0000 12.5391 0.0000
# 6 0.0000 0.0000 0.0000 0.0000 0.0000 18.6690
#
#
#
# Elastic Compliance Matrix: (Units=1/GPa)
#
#
# Indices 1 2 3 4 5 6 
#
# 1 0.008060 -0.001678 -0.005870 0.000000 0.000000 0.000000
# 2 -0.001678 0.011956 -0.003283 0.000000 0.000000 0.000000
# 3 -0.005870 -0.003283 0.024359 0.000000 0.000000 0.000000
# 4 0.000000 0.000000 0.000000 -0.030146 0.000000 0.000000
# 5 0.000000 0.000000 0.000000 0.000000 0.079751 0.000000
# 6 0.000000 0.000000 0.000000 0.000000 0.000000 0.053565
#
#
# Mechanical properties :
#
#
# Convention : Reuss Voigt Hill
#
# Bulk Modulus (GPa) = 44.02839 57.02040 50.52439
# Shear Modulus (GPa) = 28.28407 13.74466 21.01436
#
# Velocity S-wave (km/s) = 4.10572 2.86210 3.53896
# Velocity P-wave (km/s) = 6.97970 6.70116 6.84185
#
# Compressibility (1/GPa) = 0.02271262
#
# Stress axis : x y z
#
# Youngs Moduli (GPa) = 124.07669 83.63680 41.05238
#
# Poissons Ratio (x) = 0.14038 0.24098
# Poissons Ratio (y) = 0.20825 0.13477
# Poissons Ratio (z) = 0.72833 0.27457
#
# Static dielectric constant tensor:
#      x y z
#    x 1.600520 0.000000 0.000000 
#    y 0.000000 1.588460 0.000000 
#    z 0.000000 0.000000 1.526900 
# 
# From -- ./inp_files/58708.got.cif
#   From: 2010.05.17/outbox.cif.g08.bks.cpg/sg71_30_cif.got.tgz:58708.got - 2010.06.03 16:22:01.
