data_PCOD9518596
_publ_section_title
;
Structure prediction by ZEFSAII (Michael W. Deem and Ramdas Pophale) SiO2 
 PCOD9518596
Probable space group: I M M M
;
_chemical_formula_sum "Si O2"
_cell_formula_units_Z 112
_cell_length_a 32.994042
_cell_length_b 33.141682
_cell_length_c 9.023391
_cell_angle_alpha 90.000000
_cell_angle_beta 90.000000
_cell_angle_gamma 90.000000
_cell_volume 9866.879976
_symmetry_space_group_name_H-M "I M M M"
_symmetry_group_IT_number 71
_symmetry_cell_setting 'orthorhombic'
loop_
_space_group_symop_operation_xyz
x,y,z
-x,-y,z
x,-y,-z
-x,y,-z
-x,-y,-z
x,y,-z
-x,y,z
x,-y,z
1/2+x,1/2+y,1/2+z
1/2-x,1/2-y,1/2+z
1/2+x,1/2-y,1/2-z
1/2-x,1/2+y,1/2-z
1/2-x,1/2-y,1/2-z
1/2+x,1/2+y,1/2-z
1/2-x,1/2+y,1/2+z
1/2+x,1/2-y,1/2+z
loop_
_atom_site_type_symbol
_atom_site_label
_atom_site_fract_x
_atom_site_fract_y
_atom_site_fract_z
Si Si1 0.837587 0.792733 0.327705
Si Si2 0.617308 0.636694 0.676959
Si Si3 0.822567 0.000000 0.322281
Si Si4 0.211430 0.272551 0.821761
Si Si5 0.743332 0.651012 0.828790
Si Si6 0.197126 0.082953 0.824364
Si Si7 0.082967 0.000000 0.320348
Si Si8 0.547091 0.586061 0.178918
O O1 0.847014 0.786058 0.500000
O O2 0.870765 0.820412 0.247755
O O3 0.826763 0.751013 0.245592
O O4 0.796476 0.820023 0.322020
O O5 0.614613 0.640093 0.500000
O O6 0.654656 0.605969 0.711070
O O7 0.577026 0.617799 0.745871
O O8 0.802898 0.959445 0.259050
O O9 0.870038 0.000000 0.274741
O O10 0.821279 0.000000 0.500000
O O11 0.250000 0.250000 0.750000
O O12 0.219294 0.319726 0.787410
O O13 0.212605 0.268121 0.000000
O O14 0.732609 0.612972 0.728576
O O15 0.747813 0.638462 0.000000
O O16 0.198749 0.076942 0.000000
O O17 0.060948 0.041066 0.273364
O O18 0.082227 0.000000 0.500000
O O19 0.500000 0.592338 0.214571
O O20 0.551648 0.588334 0.000000
#
# Coordination Sequence:
#
# PCOD9518596 Si02
#       8
#    16  16   8  16  16  16   8  16
#     4   9  16  25  38  53  69  88 109 130 153 186
#     4  10  19  29  40  53  70  87 105 131 164 203
#     4  11  19  28  43  53  64  86 110 137 171 211
#     4   9  15  23  35  52  72  91 109 128 151 182
#     4   8  15  25  36  50  68  89 109 127 151 187
#     4  10  19  28  38  52  68  85 107 136 166 197
#     4   9  17  29  44  57  65  79 103 135 171 213
#     4  10  19  31  45  57  68  83 106 135 169 212
#
# _framework density 11.351106
#
# number of rings (size 3 to 8) (size 9 to 14) (size 15 to 20)
#    0.000    2.571    1.429    3.000    0.000    6.286 
#    0.000    0.357    0.000    0.857    0.000    0.000 
#    0.000    0.000    0.000    0.000    0.000    0.000 
#
# Total GULP energy -311850.085499 kJ/mol
# GULP energy per Si atom -5568.751527 kJ/mol
# Density = 1.132527 g / cm^3
# Si number density = 11.351106 Si / 1000 Ang^3
#
#
#
# Elastic Constant Matrix: (Units=GPa)
#
#
# Indices 1 2 3 4 5 6 
#
# 1 41.1109 47.1024 25.0244 0.0000 0.0000 0.0000
# 2 47.1024 80.5174 45.7563 0.0000 0.0000 0.0000
# 3 25.0244 45.7563 47.2370 0.0000 0.0000 0.0000
# 4 0.0000 0.0000 0.0000 19.0630 0.0000 0.0000
# 5 0.0000 0.0000 0.0000 0.0000 13.2740 0.0000
# 6 0.0000 0.0000 0.0000 0.0000 0.0000 11.5114
#
#
#
# Elastic Compliance Matrix: (Units=1/GPa)
#
#
# Indices 1 2 3 4 5 6 
#
# 1 0.074554 -0.047091 0.006119 0.000000 0.000000 0.000000
# 2 -0.047091 0.057372 -0.030627 0.000000 0.000000 0.000000
# 3 0.006119 -0.030627 0.047595 0.000000 0.000000 0.000000
# 4 0.000000 0.000000 0.000000 0.052458 0.000000 0.000000
# 5 0.000000 0.000000 0.000000 0.000000 0.075335 0.000000
# 6 0.000000 0.000000 0.000000 0.000000 0.000000 0.086870
#
#
# Mechanical properties :
#
#
# Convention : Reuss Voigt Hill
#
# Bulk Modulus (GPa) = 27.53043 44.95906 36.24475
# Shear Modulus (GPa) = 9.09935 12.16848 10.63392
#
# Velocity S-wave (km/s) = 2.83437 3.27771 3.06407
# Velocity P-wave (km/s) = 5.91758 7.34970 6.67218
#
# Compressibility (1/GPa) = 0.03632345
#
# Stress axis : x y z
#
# Youngs Moduli (GPa) = 13.41311 17.43008 21.01071
#
# Poissons Ratio (x) = 0.82080 -0.12856
# Poissons Ratio (y) = 0.63164 0.64349
# Poissons Ratio (z) = -0.08207 0.53382
#
# Static dielectric constant tensor:
#      x y z
#    x 1.346720 0.000000 0.000000 
#    y 0.000000 1.370450 0.000000 
#    z 0.000000 0.000000 1.378140 
# 
# From -- ./inp_files/17617.got.cif
#   From: 2010.05.17/outbox.cif.g08.bks.cpg/sg71_9_cif.got.tgz:17617.got - 2010.06.03 16:22:01.
