data_PCOD9518489
_publ_section_title
;
Structure prediction by ZEFSAII (Michael W. Deem and Ramdas Pophale) SiO2 
 PCOD9518489
Probable space group: I M M M
;
_chemical_formula_sum "Si O2"
_cell_formula_units_Z 104
_cell_length_a 29.306791
_cell_length_b 7.820313
_cell_length_c 21.915482
_cell_angle_alpha 90.000000
_cell_angle_beta 90.000000
_cell_angle_gamma 90.000000
_cell_volume 5022.771595
_symmetry_space_group_name_H-M "I M M M"
_symmetry_group_IT_number 71
_symmetry_cell_setting 'orthorhombic'
loop_
_space_group_symop_operation_xyz
x,y,z
-x,-y,z
x,-y,-z
-x,y,-z
-x,-y,-z
x,y,-z
-x,y,z
x,-y,z
1/2+x,1/2+y,1/2+z
1/2-x,1/2-y,1/2+z
1/2+x,1/2-y,1/2-z
1/2-x,1/2+y,1/2-z
1/2-x,1/2-y,1/2-z
1/2+x,1/2+y,1/2-z
1/2-x,1/2+y,1/2+z
1/2+x,1/2-y,1/2+z
loop_
_atom_site_type_symbol
_atom_site_label
_atom_site_fract_x
_atom_site_fract_y
_atom_site_fract_z
Si Si1 0.367138 0.198649 0.197914
Si Si2 0.223988 0.289164 0.633917
Si Si3 0.948831 0.500000 0.073912
Si Si4 0.182874 0.797779 0.182483
Si Si5 0.448602 0.702493 0.120636
Si Si6 0.211452 0.298021 0.500000
Si Si7 0.394964 0.708487 0.000000
Si Si8 0.881633 0.198047 0.071170
O O1 0.325093 0.270261 0.157861
O O2 0.349697 0.217862 0.266838
O O3 0.415431 0.274418 0.178457
O O4 0.370847 0.000000 0.183101
O O5 0.224249 0.500000 0.634741
O O6 0.265464 0.232064 0.676933
O O7 0.229971 0.230708 0.564225
O O8 0.920651 0.330822 0.090081
O O9 0.000000 0.500000 0.098451
O O10 0.951485 0.500000 0.000000
O O11 0.160691 0.776829 0.115921
O O12 0.184365 0.000000 0.196023
O O13 0.500000 0.772478 0.127084
O O14 0.452842 0.500000 0.110922
O O15 0.421892 0.767403 0.060569
O O16 0.221561 0.500000 0.500000
O O17 0.156768 0.274090 0.500000
O O18 0.392855 0.500000 0.000000
O O19 0.896453 0.000000 0.076864
O O20 0.870099 0.227630 0.000000
#
# Coordination Sequence:
#
# PCOD9518489 Si02
#       8
#    16  16   8  16  16   8   8  16
#     4  11  22  37  57  83 115 152 195 241 286 342
#     4   9  19  34  56  84 114 151 192 231 282 345
#     4   9  18  34  58  84 116 150 180 227 294 354
#     4  10  21  37  58  82 112 154 194 232 287 349
#     4  10  21  38  60  84 114 154 197 243 295 349
#     4  10  18  33  57  85 118 152 186 235 290 343
#     4  10  19  34  58  86 118 150 192 244 295 345
#     4   9  19  35  58  87 116 146 190 243 296 357
#
# _framework density 20.705698999999999
#
# number of rings (size 3 to 8) (size 9 to 14) (size 15 to 20)
#    0.000    2.231    1.538    1.154    2.154    1.538 
#    0.000    3.846    0.000    2.308    0.000    0.000 
#    0.000    0.000    0.000    0.000    0.000    0.000 
#
# Total GULP energy -290212.038010 kJ/mol
# GULP energy per Si atom -5581.000731 kJ/mol
# Density = 2.065857 g / cm^3
# Si number density = 20.705699 Si / 1000 Ang^3
#
#
#
# Elastic Constant Matrix: (Units=GPa)
#
#
# Indices 1 2 3 4 5 6 
#
# 1 88.8330 1.5233 31.8535 0.0000 0.0000 0.0000
# 2 1.5233 24.1292 2.4984 0.0000 0.0000 0.0000
# 3 31.8535 2.4984 89.6831 0.0000 0.0000 0.0000
# 4 0.0000 0.0000 0.0000 11.8164 0.0000 0.0000
# 5 0.0000 0.0000 0.0000 0.0000 18.9868 0.0000
# 6 0.0000 0.0000 0.0000 0.0000 0.0000 10.6412
#
#
#
# Elastic Compliance Matrix: (Units=1/GPa)
#
#
# Indices 1 2 3 4 5 6 
#
# 1 0.012903 -0.000341 -0.004573 0.000000 0.000000 0.000000
# 2 -0.000341 0.041572 -0.001037 0.000000 0.000000 0.000000
# 3 -0.004573 -0.001037 0.012804 0.000000 0.000000 0.000000
# 4 0.000000 0.000000 0.000000 0.084628 0.000000 0.000000
# 5 0.000000 0.000000 0.000000 0.000000 0.052668 0.000000
# 6 0.000000 0.000000 0.000000 0.000000 0.000000 0.093974
#
#
# Mechanical properties :
#
#
# Convention : Reuss Voigt Hill
#
# Bulk Modulus (GPa) = 18.05831 30.48843 24.27337
# Shear Modulus (GPa) = 15.20169 19.40688 17.30428
#
# Velocity S-wave (km/s) = 2.71251 3.06481 2.89403
# Velocity P-wave (km/s) = 4.30705 5.22309 4.78703
#
# Compressibility (1/GPa) = 0.05537615
#
# Stress axis : x y z
#
# Youngs Moduli (GPa) = 77.50252 24.05439 78.10299
#
# Poissons Ratio (x) = 0.00820 0.35719
# Poissons Ratio (y) = 0.02643 0.08099
# Poissons Ratio (z) = 0.35444 0.02494
#
# Static dielectric constant tensor:
#      x y z
#    x 1.740850 0.000000 0.000000 
#    y 0.000000 1.750970 0.000000 
#    z 0.000000 0.000000 1.749990 
# 
# From -- ./inp_files/56325.got.cif
#   From: 2010.05.17/outbox.cif.g08.bks.cpg/sg71_29_cif.got.tgz:56325.got - 2010.06.03 16:22:01.
