data_PCOD9518294
_publ_section_title
;
Structure prediction by ZEFSAII (Michael W. Deem and Ramdas Pophale) SiO2 
 PCOD9518294
Probable space group: I M M M
;
_chemical_formula_sum "Si O2"
_cell_formula_units_Z 96
_cell_length_a 8.155439
_cell_length_b 23.825683
_cell_length_c 25.304662
_cell_angle_alpha 90.000000
_cell_angle_beta 90.000000
_cell_angle_gamma 90.000000
_cell_volume 4916.921148
_symmetry_space_group_name_H-M "I M M M"
_symmetry_group_IT_number 71
_symmetry_cell_setting 'orthorhombic'
loop_
_space_group_symop_operation_xyz
x,y,z
-x,-y,z
x,-y,-z
-x,y,-z
-x,-y,-z
x,y,-z
-x,y,z
x,-y,z
1/2+x,1/2+y,1/2+z
1/2-x,1/2-y,1/2+z
1/2+x,1/2-y,1/2-z
1/2-x,1/2+y,1/2-z
1/2-x,1/2-y,1/2-z
1/2+x,1/2+y,1/2-z
1/2-x,1/2+y,1/2+z
1/2+x,1/2-y,1/2+z
loop_
_atom_site_type_symbol
_atom_site_label
_atom_site_fract_x
_atom_site_fract_y
_atom_site_fract_z
Si Si1 0.314470 0.605615 0.599497
Si Si2 0.687411 0.700301 0.313179
Si Si3 0.812029 0.196654 0.500000
Si Si4 0.687715 0.500000 0.246816
Si Si5 0.304317 0.318419 0.500000
Si Si6 0.675361 0.000000 0.856440
Si Si7 0.196672 0.807167 0.381393
Si Si8 0.298999 0.374937 0.218405
O O1 0.500000 0.584395 0.591077
O O2 0.314166 0.644740 0.650753
O O3 0.271519 0.644752 0.550984
O O4 0.196511 0.554333 0.608398
O O5 0.500000 0.717789 0.302359
O O6 0.761071 0.749399 0.349944
O O7 0.759572 0.674970 0.258478
O O8 0.805084 0.263883 0.500000
O O9 0.737617 0.184329 0.441401
O O10 0.000000 0.175517 0.500000
O O11 0.500000 0.500000 0.227275
O O12 0.691466 0.500000 0.310350
O O13 0.757496 0.561391 0.230711
O O14 0.500000 0.303093 0.500000
O O15 0.500000 0.000000 0.828855
O O16 0.244551 0.856019 0.340619
O O17 0.000000 0.807054 0.386374
O O18 0.500000 0.374833 0.223709
#
# Coordination Sequence:
#
# PCOD9518294 Si02
#       8
#    16  16   8   8   8   8  16  16
#     4  10  20  35  54  73  98 133 177 217 250 292
#     4  10  18  31  53  78 101 130 168 212 256 298
#     4  10  20  32  49  72 106 142 163 199 258 313
#     4  10  18  36  59  74  96 134 175 213 252 300
#     4  10  20  35  55  74  94 131 181 221 244 285
#     4  12  24  35  51  76 104 135 171 211 258 306
#     4  10  20  33  49  75 107 137 167 202 254 312
#     4   9  18  32  53  77 100 131 171 209 252 305
#
# _framework density 19.524412999999999
#
# number of rings (size 3 to 8) (size 9 to 14) (size 15 to 20)
#    0.000    2.000    3.333    1.250    0.000    1.667 
#    0.000    2.500    0.000    0.500    0.000    3.500 
#    0.000    0.000    0.000    3.000    0.000    3.333 
#
# Total GULP energy -267370.841893 kJ/mol
# GULP energy per Si atom -5570.225873 kJ/mol
# Density = 1.947997 g / cm^3
# Si number density = 19.524413 Si / 1000 Ang^3
#
#
#
# Elastic Constant Matrix: (Units=GPa)
#
#
# Indices 1 2 3 4 5 6 
#
# 1 8.0033 5.3329 5.2238 0.0000 0.0000 0.0000
# 2 5.3329 17.3767 6.4365 0.0000 0.0000 0.0000
# 3 5.2238 6.4365 138.1982 0.0000 0.0000 0.0000
# 4 0.0000 0.0000 0.0000 4.8656 0.0000 0.0000
# 5 0.0000 0.0000 0.0000 0.0000 5.4866 0.0000
# 6 0.0000 0.0000 0.0000 0.0000 0.0000 9.8009
#
#
#
# Elastic Compliance Matrix: (Units=1/GPa)
#
#
# Indices 1 2 3 4 5 6 
#
# 1 0.159009 -0.047391 -0.003803 0.000000 0.000000 0.000000
# 2 -0.047391 0.072683 -0.001594 0.000000 0.000000 0.000000
# 3 -0.003803 -0.001594 0.007454 0.000000 0.000000 0.000000
# 4 0.000000 0.000000 0.000000 0.205526 0.000000 0.000000
# 5 0.000000 0.000000 0.000000 0.000000 0.182261 0.000000
# 6 0.000000 0.000000 0.000000 0.000000 0.000000 0.102032
#
#
# Mechanical properties :
#
#
# Convention : Reuss Voigt Hill
#
# Bulk Modulus (GPa) = 7.48674 21.95164 14.71919
# Shear Modulus (GPa) = 5.68787 13.80294 9.74540
#
# Velocity S-wave (km/s) = 1.70866 2.66175 2.23657
# Velocity P-wave (km/s) = 2.78129 4.55128 3.77159
#
# Compressibility (1/GPa) = 0.13356948
#
# Stress axis : x y z
#
# Youngs Moduli (GPa) = 6.28896 13.75833 134.15660
#
# Poissons Ratio (x) = 0.65202 0.51023
# Poissons Ratio (y) = 0.29804 0.21382
# Poissons Ratio (z) = 0.02392 0.02193
#
# Static dielectric constant tensor:
#      x y z
#    x 1.749210 0.000000 0.000000 
#    y 0.000000 1.673900 0.000000 
#    z 0.000000 0.000000 1.670710 
# 
# From -- ./inp_files/57818.got.cif
#   From: 2010.05.17/outbox.cif.g08.bks.cpg/sg71_29_cif.got.tgz:57818.got - 2010.06.03 16:22:01.
