data_PCOD9518422
_publ_section_title
;
Structure prediction by ZEFSAII (Michael W. Deem and Ramdas Pophale) SiO2 
 PCOD9518422
Probable space group: I M M M
;
_chemical_formula_sum "Si O2"
_cell_formula_units_Z 88
_cell_length_a 21.182947
_cell_length_b 8.418323
_cell_length_c 26.433631
_cell_angle_alpha 90.000000
_cell_angle_beta 90.000000
_cell_angle_gamma 90.000000
_cell_volume 4713.774339
_symmetry_space_group_name_H-M "I M M M"
_symmetry_group_IT_number 71
_symmetry_cell_setting 'orthorhombic'
loop_
_space_group_symop_operation_xyz
x,y,z
-x,-y,z
x,-y,-z
-x,y,-z
-x,-y,-z
x,y,-z
-x,y,z
x,-y,z
1/2+x,1/2+y,1/2+z
1/2-x,1/2-y,1/2+z
1/2+x,1/2-y,1/2-z
1/2-x,1/2+y,1/2-z
1/2-x,1/2-y,1/2-z
1/2+x,1/2+y,1/2-z
1/2-x,1/2+y,1/2+z
1/2+x,1/2-y,1/2+z
loop_
_atom_site_type_symbol
_atom_site_label
_atom_site_fract_x
_atom_site_fract_y
_atom_site_fract_z
Si Si1 0.664750 0.811671 0.193974
Si Si2 0.777581 0.193137 0.000000
Si Si3 0.363801 0.692827 0.595150
Si Si4 0.000000 0.193213 0.942940
Si Si5 0.194341 0.687886 0.804351
Si Si6 0.572729 0.690009 0.105593
Si Si7 0.631850 0.190789 0.000000
O O1 0.738623 0.772641 0.185791
O O2 0.659166 0.758514 0.252783
O O3 0.618897 0.737748 0.151906
O O4 0.654985 0.000000 0.191097
O O5 0.816280 0.240562 0.049982
O O6 0.705036 0.246961 0.000000
O O7 0.776861 0.000000 0.000000
O O8 0.360260 0.500000 0.599437
O O9 0.434850 0.739739 0.582063
O O10 0.345886 0.773494 0.647071
O O11 0.000000 0.000000 0.944318
O O12 0.000000 0.251481 0.000000
O O13 0.206736 0.500000 0.798804
O O14 0.500000 0.744583 0.113624
O O15 0.572304 0.500000 0.102715
O O16 0.598371 0.753248 0.051687
O O17 0.631976 0.000000 0.000000
#
# Coordination Sequence:
#
# PCOD9518422 Si02
#       7
#    16   8  16   8  16  16   8
#     4  10  21  39  62  85 111 147 190 235 284 340
#     4   9  18  31  52  82 111 142 185 235 275 319
#     4  10  18  32  55  81 111 148 192 235 277 332
#     4   9  16  30  53  79 109 149 193 234 275 322
#     4  10  21  37  58  85 115 146 184 235 292 343
#     4  11  24  41  60  84 117 154 191 235 285 335
#     4  11  22  36  58  88 117 150 193 233 280 342
#
# _framework density 18.668690999999999
#
# number of rings (size 3 to 8) (size 9 to 14) (size 15 to 20)
#    0.000    1.909    0.909    3.273    0.000    6.182 
#    1.636    1.818    0.000    0.545    0.000    0.000 
#    0.000    0.000    0.000    0.000    0.000    0.000 
#
# Total GULP energy -245509.300595 kJ/mol
# GULP energy per Si atom -5579.756832 kJ/mol
# Density = 1.862620 g / cm^3
# Si number density = 18.668691 Si / 1000 Ang^3
#
#
#
# Elastic Constant Matrix: (Units=GPa)
#
#
# Indices 1 2 3 4 5 6 
#
# 1 134.6236 25.5803 103.9204 0.0000 0.0000 0.0000
# 2 25.5803 27.2125 25.2252 0.0000 0.0000 0.0000
# 3 103.9204 25.2252 172.2704 0.0000 0.0000 0.0000
# 4 0.0000 0.0000 0.0000 30.0134 0.0000 0.0000
# 5 0.0000 0.0000 0.0000 0.0000 -37.4708 0.0000
# 6 0.0000 0.0000 0.0000 0.0000 0.0000 20.9113
#
#
#
# Elastic Compliance Matrix: (Units=1/GPa)
#
#
# Indices 1 2 3 4 5 6 
#
# 1 0.014844 -0.006541 -0.007997 0.000000 0.000000 0.000000
# 2 -0.006541 0.045401 -0.002702 0.000000 0.000000 0.000000
# 3 -0.007997 -0.002702 0.011024 0.000000 0.000000 0.000000
# 4 0.000000 0.000000 0.000000 0.033318 0.000000 0.000000
# 5 0.000000 0.000000 0.000000 0.000000 -0.026687 0.000000
# 6 0.000000 0.000000 0.000000 0.000000 0.000000 0.047821
#
#
# Mechanical properties :
#
#
# Convention : Reuss Voigt Hill
#
# Bulk Modulus (GPa) = 27.18129 71.50647 49.34388
# Shear Modulus (GPa) = 28.99146 14.64949 21.82047
#
# Velocity S-wave (km/s) = 3.94502 2.80430 3.42252
# Velocity P-wave (km/s) = 5.94494 6.99082 6.48899
#
# Compressibility (1/GPa) = 0.03679001
#
# Stress axis : x y z
#
# Youngs Moduli (GPa) = 67.36810 22.02575 90.70787
#
# Poissons Ratio (x) = 0.14407 0.72536
# Poissons Ratio (y) = 0.44064 0.24512
# Poissons Ratio (z) = 0.53872 0.05952
#
# Static dielectric constant tensor:
#      x y z
#    x 1.621140 0.000000 0.000000 
#    y 0.000000 1.654960 0.000000 
#    z 0.000000 0.000000 1.638090 
# 
# From -- ./inp_files/61175.got.cif
#   From: 2010.05.17/outbox.cif.g08.bks.cpg/sg71_31_cif.got.tgz:61175.got - 2010.06.03 16:22:01.
