data_PCOD9518399
_publ_section_title
;
Structure prediction by ZEFSAII (Michael W. Deem and Ramdas Pophale) SiO2 
 PCOD9518399
Probable space group: I M M M
;
_chemical_formula_sum "Si O2"
_cell_formula_units_Z 92
_cell_length_a 7.632618
_cell_length_b 24.757112
_cell_length_c 28.905662
_cell_angle_alpha 90.000000
_cell_angle_beta 90.000000
_cell_angle_gamma 90.000000
_cell_volume 5462.059524
_symmetry_space_group_name_H-M "I M M M"
_symmetry_group_IT_number 71
_symmetry_cell_setting 'orthorhombic'
loop_
_space_group_symop_operation_xyz
x,y,z
-x,-y,z
x,-y,-z
-x,y,-z
-x,-y,-z
x,y,-z
-x,y,z
x,-y,z
1/2+x,1/2+y,1/2+z
1/2-x,1/2-y,1/2+z
1/2+x,1/2-y,1/2-z
1/2-x,1/2+y,1/2-z
1/2-x,1/2-y,1/2-z
1/2+x,1/2+y,1/2-z
1/2-x,1/2+y,1/2+z
1/2+x,1/2-y,1/2+z
loop_
_atom_site_type_symbol
_atom_site_label
_atom_site_fract_x
_atom_site_fract_y
_atom_site_fract_z
Si Si1 0.296625 0.119581 0.595424
Si Si2 0.703963 0.757479 0.576853
Si Si3 0.289214 0.562023 0.000000
Si Si4 0.288175 0.665759 0.763496
Si Si5 0.204098 0.939562 0.312559
Si Si6 0.000000 0.733271 0.500000
Si Si7 0.707389 0.767626 0.175722
O O1 0.500000 0.121736 0.607945
O O2 0.236395 0.181179 0.589747
O O3 0.274070 0.091454 0.546008
O O4 0.209442 0.084675 0.635624
O O5 0.500000 0.759888 0.560589
O O6 0.709429 0.726141 0.625565
O O7 0.843728 0.735911 0.540254
O O8 0.231655 0.500000 0.000000
O O9 0.500000 0.563661 0.000000
O O10 0.500000 0.665580 0.766449
O O11 0.220720 0.607605 0.779967
O O12 0.226213 0.713011 0.798565
O O13 0.239424 0.684617 0.712230
O O14 0.000000 0.944311 0.299864
O O15 0.280837 0.000000 0.310879
O O16 0.500000 0.761726 0.168983
#
# Coordination Sequence:
#
# PCOD9518399 Si02
#       7
#    16  16   8  16  16   4  16
#     4  11  23  35  49  67  90 124 171 223 272 314
#     4  11  23  37  54  79 105 134 178 223 270 327
#     4  11  24  37  49  62  80 117 168 219 270 318
#     4   9  18  31  50  74 103 132 170 221 266 317
#     4  10  20  34  52  72  98 135 174 214 267 323
#     4  12  24  36  56  76 107 146 173 224 280 324
#     4  10  18  32  54  77 100 134 172 216 270 320
#
# _framework density 16.843463
#
# number of rings (size 3 to 8) (size 9 to 14) (size 15 to 20)
#    0.000    1.652    2.609    2.609    3.652    5.913 
#    0.000    0.000    0.000    0.000    0.000    0.000 
#    0.000    0.000    0.000    1.565    0.000   13.304 
#
# Total GULP energy -256219.457642 kJ/mol
# GULP energy per Si atom -5569.988210 kJ/mol
# Density = 1.680513 g / cm^3
# Si number density = 16.843463 Si / 1000 Ang^3
#
#
#
# Elastic Constant Matrix: (Units=GPa)
#
#
# Indices 1 2 3 4 5 6 
#
# 1 67.2036 5.0154 19.3393 0.0000 0.0000 0.0000
# 2 5.0154 51.6910 44.3234 0.0000 0.0000 0.0000
# 3 19.3393 44.3234 125.3257 0.0000 0.0000 0.0000
# 4 0.0000 0.0000 0.0000 10.6704 0.0000 0.0000
# 5 0.0000 0.0000 0.0000 0.0000 53.0967 0.0000
# 6 0.0000 0.0000 0.0000 0.0000 0.0000 11.4007
#
#
#
# Elastic Compliance Matrix: (Units=1/GPa)
#
#
# Indices 1 2 3 4 5 6 
#
# 1 0.015594 0.000790 -0.002686 0.000000 0.000000 0.000000
# 2 0.000790 0.027806 -0.009956 0.000000 0.000000 0.000000
# 3 -0.002686 -0.009956 0.011915 0.000000 0.000000 0.000000
# 4 0.000000 0.000000 0.000000 0.093717 0.000000 0.000000
# 5 0.000000 0.000000 0.000000 0.000000 0.018834 0.000000
# 6 0.000000 0.000000 0.000000 0.000000 0.000000 0.087714
#
#
# Mechanical properties :
#
#
# Convention : Reuss Voigt Hill
#
# Bulk Modulus (GPa) = 31.63433 42.39742 37.01587
# Shear Modulus (GPa) = 17.25208 26.73637 21.99423
#
# Velocity S-wave (km/s) = 3.20388 3.98847 3.61751
# Velocity P-wave (km/s) = 5.70163 6.81444 6.28272
#
# Compressibility (1/GPa) = 0.03161123
#
# Stress axis : x y z
#
# Youngs Moduli (GPa) = 64.12693 35.96353 83.92986
#
# Poissons Ratio (x) = -0.02841 0.22541
# Poissons Ratio (y) = -0.05065 0.83560
# Poissons Ratio (z) = 0.17223 0.35805
#
# Static dielectric constant tensor:
#      x y z
#    x 1.631040 0.000000 0.000000 
#    y 0.000000 1.584310 0.000000 
#    z 0.000000 0.000000 1.569630 
# 
# From -- ./inp_files/63494.got.cif
#   From: 2010.05.17/outbox.cif.g08.bks.cpg/sg71_32_cif.got.tgz:63494.got - 2010.06.03 16:22:01.
