data_PCOD9518697
_publ_section_title
;
Structure prediction by ZEFSAII (Michael W. Deem and Ramdas Pophale) SiO2 
 PCOD9518697
Probable space group: I M M M
;
_chemical_formula_sum "Si O2"
_cell_formula_units_Z 112
_cell_length_a 19.015813
_cell_length_b 18.052422
_cell_length_c 20.398204
_cell_angle_alpha 90.000000
_cell_angle_beta 90.000000
_cell_angle_gamma 90.000000
_cell_volume 7002.325678
_symmetry_space_group_name_H-M "I M M M"
_symmetry_group_IT_number 71
_symmetry_cell_setting 'orthorhombic'
loop_
_space_group_symop_operation_xyz
x,y,z
-x,-y,z
x,-y,-z
-x,y,-z
-x,-y,-z
x,y,-z
-x,y,z
x,-y,z
1/2+x,1/2+y,1/2+z
1/2-x,1/2-y,1/2+z
1/2+x,1/2-y,1/2-z
1/2-x,1/2+y,1/2-z
1/2-x,1/2-y,1/2-z
1/2+x,1/2+y,1/2-z
1/2-x,1/2+y,1/2+z
1/2+x,1/2-y,1/2+z
loop_
_atom_site_type_symbol
_atom_site_label
_atom_site_fract_x
_atom_site_fract_y
_atom_site_fract_z
Si Si1 0.305342 0.211018 0.575577
Si Si2 0.078561 0.372467 0.759385
Si Si3 0.770531 0.634331 0.428054
Si Si4 0.082306 0.221669 0.171418
Si Si5 0.183621 0.914854 0.196684
Si Si6 0.279099 0.916495 0.324320
Si Si7 0.422182 0.088352 0.893884
O O1 0.317275 0.190829 0.500000
O O2 0.252181 0.280290 0.578060
O O3 0.376348 0.241407 0.610284
O O4 0.275578 0.143882 0.618654
O O5 0.088165 0.284410 0.771896
O O6 0.141279 0.412053 0.797102
O O7 0.081607 0.394055 0.683554
O O8 0.000000 0.391434 0.783785
O O9 0.745654 0.607841 0.500000
O O10 0.734182 0.593494 0.366887
O O11 0.853976 0.624836 0.424791
O O12 0.122860 0.146363 0.189374
O O13 0.000000 0.209305 0.158335
O O14 0.229102 0.899286 0.262149
O O15 0.158728 0.000000 0.199879
O O16 0.263658 0.000000 0.346355
O O17 0.500000 0.111809 0.916968
O O18 0.416957 0.000000 0.903329
#
# Coordination Sequence:
#
# PCOD9518697 Si02
#       7
#    16  16  16  16  16  16  16
#     4   9  20  35  52  73  97 128 167 207 248 298
#     4   9  17  29  47  71  97 127 159 191 232 288
#     4  10  20  33  49  68  96 133 166 197 236 288
#     4   9  19  33  51  72  96 128 164 206 252 294
#     4  10  20  32  49  74 100 128 165 205 248 296
#     4  10  19  31  51  75 100 129 161 204 251 293
#     4  10  19  29  44  68  98 128 158 193 231 277
#
# _framework density 15.994686
#
# number of rings (size 3 to 8) (size 9 to 14) (size 15 to 20)
#    0.000    2.429    1.429    0.857    2.000    4.857 
#    0.000    0.714    0.000    0.000    0.000    8.000 
#    0.000    0.000    0.000    6.286    0.000    0.000 
#
# Total GULP energy -312076.654766 kJ/mol
# GULP energy per Si atom -5572.797407 kJ/mol
# Density = 1.595828 g / cm^3
# Si number density = 15.994686 Si / 1000 Ang^3
#
#
#
# Elastic Constant Matrix: (Units=GPa)
#
#
# Indices 1 2 3 4 5 6 
#
# 1 93.5866 45.3082 26.7613 0.0000 0.0000 0.0000
# 2 45.3082 81.2387 44.5232 0.0000 0.0000 0.0000
# 3 26.7613 44.5232 73.7699 0.0000 0.0000 0.0000
# 4 0.0000 0.0000 0.0000 6.6075 0.0000 0.0000
# 5 0.0000 0.0000 0.0000 0.0000 11.8091 0.0000
# 6 0.0000 0.0000 0.0000 0.0000 0.0000 16.9916
#
#
#
# Elastic Compliance Matrix: (Units=1/GPa)
#
#
# Indices 1 2 3 4 5 6 
#
# 1 0.014654 -0.007859 -0.000573 0.000000 0.000000 0.000000
# 2 -0.007859 0.022608 -0.010794 0.000000 0.000000 0.000000
# 3 -0.000573 -0.010794 0.020278 0.000000 0.000000 0.000000
# 4 0.000000 0.000000 0.000000 0.151344 0.000000 0.000000
# 5 0.000000 0.000000 0.000000 0.000000 0.084680 0.000000
# 6 0.000000 0.000000 0.000000 0.000000 0.000000 0.058853
#
#
# Mechanical properties :
#
#
# Convention : Reuss Voigt Hill
#
# Bulk Modulus (GPa) = 52.38681 53.53119 52.95900
# Shear Modulus (GPa) = 12.58713 15.88180 14.23446
#
# Velocity S-wave (km/s) = 2.80832 3.15452 2.98644
# Velocity P-wave (km/s) = 6.58326 6.84169 6.71372
#
# Compressibility (1/GPa) = 0.01908877
#
# Stress axis : x y z
#
# Youngs Moduli (GPa) = 68.24194 44.23206 49.31431
#
# Poissons Ratio (x) = 0.34761 0.02825
# Poissons Ratio (y) = 0.53629 0.53230
# Poissons Ratio (z) = 0.03909 0.47744
#
# Static dielectric constant tensor:
#      x y z
#    x 1.531430 0.000000 0.000000 
#    y 0.000000 1.534950 0.000000 
#    z 0.000000 0.000000 1.539450 
# 
# From -- ./inp_files/46375.got.cif
#   From: 2010.05.17/outbox.cif.g08.bks.cpg/sg71_24_cif.got.tgz:46375.got - 2010.06.03 16:22:01.
