data_PCOD9518662
_publ_section_title
;
Structure prediction by ZEFSAII (Michael W. Deem and Ramdas Pophale) SiO2 
 PCOD9518662
Probable space group: I M M M
;
_chemical_formula_sum "Si O2"
_cell_formula_units_Z 104
_cell_length_a 24.260615
_cell_length_b 21.302560
_cell_length_c 9.744287
_cell_angle_alpha 90.000000
_cell_angle_beta 90.000000
_cell_angle_gamma 90.000000
_cell_volume 5035.976211
_symmetry_space_group_name_H-M "I M M M"
_symmetry_group_IT_number 71
_symmetry_cell_setting 'orthorhombic'
loop_
_space_group_symop_operation_xyz
x,y,z
-x,-y,z
x,-y,-z
-x,y,-z
-x,-y,-z
x,y,-z
-x,y,z
x,-y,z
1/2+x,1/2+y,1/2+z
1/2-x,1/2-y,1/2+z
1/2+x,1/2-y,1/2-z
1/2-x,1/2+y,1/2-z
1/2-x,1/2-y,1/2-z
1/2+x,1/2+y,1/2-z
1/2-x,1/2+y,1/2+z
1/2+x,1/2-y,1/2+z
loop_
_atom_site_type_symbol
_atom_site_label
_atom_site_fract_x
_atom_site_fract_y
_atom_site_fract_z
Si Si1 0.334748 0.890249 0.659092
Si Si2 0.900378 0.075025 0.654018
Si Si3 0.062659 0.247621 0.654994
Si Si4 0.500000 0.576725 0.345097
Si Si5 0.336278 0.737908 0.659758
Si Si6 0.438092 0.100005 0.840848
Si Si7 0.782244 0.137075 0.662057
O O1 0.344076 0.907086 0.500000
O O2 0.332599 0.813676 0.668354
O O3 0.384830 0.916483 0.749960
O O4 0.271482 0.904272 0.698903
O O5 0.918290 0.092953 0.500000
O O6 0.945574 0.095592 0.762995
O O7 0.838932 0.099397 0.676682
O O8 0.898684 0.000000 0.658507
O O9 0.081481 0.232438 0.500000
O O10 0.105763 0.224195 0.765676
O O11 0.061139 0.323731 0.661917
O O12 0.000000 0.226373 0.674161
O O13 0.500000 0.500000 0.348720
O O14 0.500000 0.600213 0.500000
O O15 0.335236 0.720636 0.500000
O O16 0.291420 0.698070 0.743786
O O17 0.500000 0.079745 0.795480
O O18 0.431378 0.081034 0.000000
O O19 0.776105 0.154375 0.500000
#
# Coordination Sequence:
#
# PCOD9518662 Si02
#       7
#    16  16  16   8  16  16  16
#     4   9  18  30  44  64  91 122 153 186 224 265
#     4   9  18  34  55  74  91 116 153 194 234 281
#     4   8  14  26  42  57  77 110 149 185 222 261
#     4   9  17  31  53  77  97 117 143 185 243 293
#     4  10  19  29  42  62  88 118 152 187 222 264
#     4   8  14  25  42  63  85 113 150 186 218 254
#     4  10  20  33  47  65  90 119 151 185 225 275
#
# _framework density 20.651408
#
# number of rings (size 3 to 8) (size 9 to 14) (size 15 to 20)
#    0.000    3.000    0.000    2.077    0.000    3.385 
#    1.385    3.077    0.000    0.000    0.000    0.000 
#    0.000    0.615    0.000    7.692    0.000    1.538 
#
# Total GULP energy -290099.557260 kJ/mol
# GULP energy per Si atom -5578.837640 kJ/mol
# Density = 2.060440 g / cm^3
# Si number density = 20.651408 Si / 1000 Ang^3
#
#
#
# Elastic Constant Matrix: (Units=GPa)
#
#
# Indices 1 2 3 4 5 6 
#
# 1 171.0072 3.2625 107.8766 0.0000 0.0000 0.0000
# 2 3.2625 36.9603 5.1684 0.0000 0.0000 0.0000
# 3 107.8766 5.1684 112.4998 0.0000 0.0000 0.0000
# 4 0.0000 0.0000 0.0000 0.1656 0.0000 0.0000
# 5 0.0000 0.0000 0.0000 0.0000 30.9832 0.0000
# 6 0.0000 0.0000 0.0000 0.0000 0.0000 16.3227
#
#
#
# Elastic Compliance Matrix: (Units=1/GPa)
#
#
# Indices 1 2 3 4 5 6 
#
# 1 0.014818 0.000683 -0.014240 0.000000 0.000000 0.000000
# 2 0.000683 0.027262 -0.001908 0.000000 0.000000 0.000000
# 3 -0.014240 -0.001908 0.022632 0.000000 0.000000 0.000000
# 4 0.000000 0.000000 0.000000 6.040460 0.000000 0.000000
# 5 0.000000 0.000000 0.000000 0.000000 0.032276 0.000000
# 6 0.000000 0.000000 0.000000 0.000000 0.000000 0.061264
#
#
# Mechanical properties :
#
#
# Convention : Reuss Voigt Hill
#
# Bulk Modulus (GPa) = 29.60104 61.45360 45.52732
# Shear Modulus (GPa) = 0.80117 23.10494 11.95305
#
# Velocity S-wave (km/s) = 0.62353 3.34849 2.40844
# Velocity P-wave (km/s) = 3.85787 6.69119 5.46146
#
# Compressibility (1/GPa) = 0.03378260
#
# Stress axis : x y z
#
# Youngs Moduli (GPa) = 67.48561 36.68044 44.18569
#
# Poissons Ratio (x) = -0.02506 0.62922
# Poissons Ratio (y) = -0.04611 0.08429
# Poissons Ratio (z) = 0.96102 0.06998
#
# Static dielectric constant tensor:
#      x y z
#    x 1.755010 0.000000 0.000000 
#    y 0.000000 1.788690 0.000000 
#    z 0.000000 0.000000 1.704010 
# 
# From -- ./inp_files/13313.got.cif
#   From: 2010.05.17/outbox.cif.g08.bks.cpg/sg71_7_cif.got.tgz:13313.got - 2010.06.03 16:22:01.
