data_PCOD9518311
_publ_section_title
;
Structure prediction by ZEFSAII (Michael W. Deem and Ramdas Pophale) SiO2 
 PCOD9518311
Probable space group: I M M M
;
_chemical_formula_sum "Si O2"
_cell_formula_units_Z 116
_cell_length_a 30.146209
_cell_length_b 8.649208
_cell_length_c 25.944074
_cell_angle_alpha 90.000000
_cell_angle_beta 90.000000
_cell_angle_gamma 90.000000
_cell_volume 6764.679442
_symmetry_space_group_name_H-M "I M M M"
_symmetry_group_IT_number 71
_symmetry_cell_setting 'orthorhombic'
loop_
_space_group_symop_operation_xyz
x,y,z
-x,-y,z
x,-y,-z
-x,y,-z
-x,-y,-z
x,y,-z
-x,y,z
x,-y,z
1/2+x,1/2+y,1/2+z
1/2-x,1/2-y,1/2+z
1/2+x,1/2-y,1/2-z
1/2-x,1/2+y,1/2-z
1/2-x,1/2-y,1/2-z
1/2+x,1/2+y,1/2-z
1/2-x,1/2+y,1/2+z
1/2+x,1/2-y,1/2+z
loop_
_atom_site_type_symbol
_atom_site_label
_atom_site_fract_x
_atom_site_fract_y
_atom_site_fract_z
Si Si1 0.878797 0.814884 0.441573
Si Si2 0.801814 0.327735 0.901197
Si Si3 0.794427 0.815187 0.723508
Si Si4 0.448569 0.813644 0.859529
Si Si5 0.138815 0.312716 0.193756
Si Si6 0.169656 0.500000 0.000000
Si Si7 0.208206 0.683241 0.608614
Si Si8 0.450127 0.811644 0.258994
O O1 0.890563 0.767160 0.500000
O O2 0.914247 0.755379 0.399987
O O3 0.830204 0.751936 0.427194
O O4 0.877568 0.000000 0.439530
O O5 0.785965 0.500000 0.882334
O O6 0.834971 0.264416 0.857743
O O7 0.826392 0.367540 0.954172
O O8 0.757726 0.228926 0.908804
O O9 0.750000 0.750000 0.750000
O O10 0.834449 0.750630 0.757606
O O11 0.797551 0.753596 0.665596
O O12 0.793783 0.000000 0.724259
O O13 0.500000 0.772191 0.870687
O O14 0.439292 0.766357 0.800159
O O15 0.445324 0.000000 0.861526
O O16 0.139322 0.500000 0.194347
O O17 0.088028 0.262281 0.201651
O O18 0.203456 0.500000 0.611051
O O19 0.500000 0.758914 0.271101
O O20 0.450923 0.000000 0.258965
#
# Coordination Sequence:
#
# PCOD9518311 Si02
#       8
#    16  16  16  16  16   4  16  16
#     4  11  25  40  55  75 103 142 187 238 289 336
#     4   9  19  34  53  73 101 143 183 224 269 321
#     4  12  23  35  52  78 112 145 177 224 274 338
#     4   9  18  35  57  79 105 137 175 227 286 338
#     4  10  18  31  54  81 106 142 185 223 269 326
#     4   8  20  36  54  72 105 148 187 232 270 320
#     4  12  24  37  54  77 106 141 183 231 282 333
#     4   8  15  29  52  82 111 136 170 217 270 328
#
# _framework density 17.147891999999999
#
# number of rings (size 3 to 8) (size 9 to 14) (size 15 to 20)
#    0.414    1.517    1.379    4.552    0.966    2.759 
#    0.000    1.379    0.000    1.241    0.000    0.966 
#    0.000    0.000    0.000    0.000    0.000    3.172 
#
# Total GULP energy -322942.152969 kJ/mol
# GULP energy per Si atom -5567.968155 kJ/mol
# Density = 1.710886 g / cm^3
# Si number density = 17.147892 Si / 1000 Ang^3
#
#
#
# Elastic Constant Matrix: (Units=GPa)
#
#
# Indices 1 2 3 4 5 6 
#
# 1 94.5603 19.8861 16.5968 0.0000 0.0000 0.0000
# 2 19.8861 24.5247 8.0863 0.0000 0.0000 0.0000
# 3 16.5968 8.0863 33.1203 0.0000 0.0000 0.0000
# 4 0.0000 0.0000 0.0000 21.0816 0.0000 0.0000
# 5 0.0000 0.0000 0.0000 0.0000 17.8162 0.0000
# 6 0.0000 0.0000 0.0000 0.0000 0.0000 17.3222
#
#
#
# Elastic Compliance Matrix: (Units=1/GPa)
#
#
# Indices 1 2 3 4 5 6 
#
# 1 0.013311 -0.009346 -0.004388 0.000000 0.000000 0.000000
# 2 -0.009346 0.050908 -0.007746 0.000000 0.000000 0.000000
# 3 -0.004388 -0.007746 0.034283 0.000000 0.000000 0.000000
# 4 0.000000 0.000000 0.000000 0.047435 0.000000 0.000000
# 5 0.000000 0.000000 0.000000 0.000000 0.056129 0.000000
# 6 0.000000 0.000000 0.000000 0.000000 0.000000 0.057729
#
#
# Mechanical properties :
#
#
# Convention : Reuss Voigt Hill
#
# Bulk Modulus (GPa) = 18.00464 26.81597 22.41030
# Shear Modulus (GPa) = 15.56327 18.41973 16.99150
#
# Velocity S-wave (km/s) = 3.01589 3.28101 3.15124
# Velocity P-wave (km/s) = 4.75919 5.47954 5.13202
#
# Compressibility (1/GPa) = 0.05554123
#
# Stress axis : x y z
#
# Youngs Moduli (GPa) = 75.12552 19.64334 29.16894
#
# Poissons Ratio (x) = 0.18360 0.12800
# Poissons Ratio (y) = 0.70216 0.22593
# Poissons Ratio (z) = 0.32968 0.15215
#
# Static dielectric constant tensor:
#      x y z
#    x 1.595430 0.000000 0.000000 
#    y 0.000000 1.593720 0.000000 
#    z 0.000000 0.000000 1.557860 
# 
# From -- ./inp_files/67130.got.cif
#   From: 2010.05.17/outbox.cif.g08.bks.cpg/sg71_34_cif.got.tgz:67130.got - 2010.06.03 16:22:01.
