data_PCOD9518427
_publ_section_title
;
Structure prediction by ZEFSAII (Michael W. Deem and Ramdas Pophale) SiO2 
 PCOD9518427
Probable space group: I M M M
;
_chemical_formula_sum "Si O2"
_cell_formula_units_Z 96
_cell_length_a 12.035914
_cell_length_b 18.289264
_cell_length_c 24.846756
_cell_angle_alpha 90.000000
_cell_angle_beta 90.000000
_cell_angle_gamma 90.000000
_cell_volume 5469.466919
_symmetry_space_group_name_H-M "I M M M"
_symmetry_group_IT_number 71
_symmetry_cell_setting 'orthorhombic'
loop_
_space_group_symop_operation_xyz
x,y,z
-x,-y,z
x,-y,-z
-x,y,-z
-x,-y,-z
x,y,-z
-x,y,z
x,-y,z
1/2+x,1/2+y,1/2+z
1/2-x,1/2-y,1/2+z
1/2+x,1/2-y,1/2-z
1/2-x,1/2+y,1/2-z
1/2-x,1/2-y,1/2-z
1/2+x,1/2+y,1/2-z
1/2-x,1/2+y,1/2+z
1/2+x,1/2-y,1/2+z
loop_
_atom_site_type_symbol
_atom_site_label
_atom_site_fract_x
_atom_site_fract_y
_atom_site_fract_z
Si Si1 0.133612 0.921435 0.500000
Si Si2 0.133780 0.818608 0.597504
Si Si3 0.633181 0.413201 0.500000
Si Si4 0.866911 0.917064 0.302177
Si Si5 0.500000 0.913871 0.776486
Si Si6 0.727099 0.163565 0.092106
Si Si7 0.500000 0.917852 0.093381
Si Si8 0.730401 0.830774 0.222434
O O1 0.158658 0.878508 0.553290
O O2 0.000000 0.927866 0.500000
O O3 0.186651 0.000000 0.500000
O O4 0.164363 0.856179 0.653721
O O5 0.202463 0.748100 0.581347
O O6 0.000000 0.801947 0.598520
O O7 0.663226 0.500000 0.500000
O O8 0.500000 0.408090 0.500000
O O9 0.682081 0.373495 0.553553
O O10 0.819030 0.886882 0.247002
O O11 0.000000 0.918958 0.301687
O O12 0.828539 0.000000 0.314099
O O13 0.500000 0.919071 0.841419
O O14 0.390329 0.865965 0.762738
O O15 0.500000 0.000000 0.757374
O O16 0.612354 0.122487 0.078061
O O17 0.742138 0.164862 0.157385
O O18 0.500000 0.000000 0.072796
O O19 0.750000 0.750000 0.250000
#
# Coordination Sequence:
#
# PCOD9518427 Si02
#       8
#     8  16   8  16   8  16   8  16
#     4   9  17  28  46  74 108 145 175 203 262 349
#     4  10  18  32  55  83 117 145 177 230 295 347
#     4  11  27  47  61  79 117 163 208 256 297 345
#     4  10  21  35  55  85 122 156 192 238 292 358
#     4   9  20  36  55  80 119 158 190 237 303 361
#     4  11  21  38  61  85 113 152 191 245 304 353
#     4   9  18  33  58  89 111 137 182 238 295 355
#     4  11  22  36  60  87 119 155 198 251 304 365
#
# _framework density 17.551984999999998
#
# number of rings (size 3 to 8) (size 9 to 14) (size 15 to 20)
#    0.000    1.833    2.500    2.000    1.167    5.000 
#    0.000    2.500    0.000    0.000    0.000    0.000 
#    0.000    2.000    0.000    0.000    0.000    0.000 
#
# Total GULP energy -267354.736940 kJ/mol
# GULP energy per Si atom -5569.890353 kJ/mol
# Density = 1.751204 g / cm^3
# Si number density = 17.551985 Si / 1000 Ang^3
#
#
#
# Elastic Constant Matrix: (Units=GPa)
#
#
# Indices 1 2 3 4 5 6 
#
# 1 49.6786 53.0290 28.9242 0.0000 0.0000 0.0000
# 2 53.0290 158.5015 45.3603 0.0000 0.0000 0.0000
# 3 28.9242 45.3603 81.6979 0.0000 0.0000 0.0000
# 4 0.0000 0.0000 0.0000 46.7556 0.0000 0.0000
# 5 0.0000 0.0000 0.0000 0.0000 23.8392 0.0000
# 6 0.0000 0.0000 0.0000 0.0000 0.0000 27.0276
#
#
#
# Elastic Compliance Matrix: (Units=1/GPa)
#
#
# Indices 1 2 3 4 5 6 
#
# 1 0.034263 -0.009501 -0.006855 0.000000 0.000000 0.000000
# 2 -0.009501 0.010136 -0.002264 0.000000 0.000000 0.000000
# 3 -0.006855 -0.002264 0.015924 0.000000 0.000000 0.000000
# 4 0.000000 0.000000 0.000000 0.021388 0.000000 0.000000
# 5 0.000000 0.000000 0.000000 0.000000 0.041948 0.000000
# 6 0.000000 0.000000 0.000000 0.000000 0.000000 0.036999
#
#
# Mechanical properties :
#
#
# Convention : Reuss Voigt Hill
#
# Bulk Modulus (GPa) = 43.32316 60.50055 51.91186
# Shear Modulus (GPa) = 24.32013 30.36214 27.34114
#
# Velocity S-wave (km/s) = 3.72641 4.16365 3.95108
# Velocity P-wave (km/s) = 6.57657 7.59334 7.10317
#
# Compressibility (1/GPa) = 0.02308234
#
# Stress axis : x y z
#
# Youngs Moduli (GPa) = 29.18639 98.66092 62.79830
#
# Poissons Ratio (x) = 0.93741 0.43048
# Poissons Ratio (y) = 0.27731 0.14216
# Poissons Ratio (z) = 0.20007 0.22334
#
# Static dielectric constant tensor:
#      x y z
#    x 1.596720 0.000000 0.000000 
#    y 0.000000 1.632570 0.000000 
#    z 0.000000 0.000000 1.648920 
# 
# From -- ./inp_files/58922.got.cif
#   From: 2010.05.17/outbox.cif.g08.bks.cpg/sg71_30_cif.got.tgz:58922.got - 2010.06.03 16:22:01.
