data_PCOD9518221
_publ_section_title
;
Structure prediction by ZEFSAII (Michael W. Deem and Ramdas Pophale) SiO2 
 PCOD9518221
Probable space group: I M M M
;
_chemical_formula_sum "Si O2"
_cell_formula_units_Z 80
_cell_length_a 8.010421
_cell_length_b 17.359904
_cell_length_c 29.149514
_cell_angle_alpha 90.000000
_cell_angle_beta 90.000000
_cell_angle_gamma 90.000000
_cell_volume 4053.535485
_symmetry_space_group_name_H-M "I M M M"
_symmetry_group_IT_number 71
_symmetry_cell_setting 'orthorhombic'
loop_
_space_group_symop_operation_xyz
x,y,z
-x,-y,z
x,-y,-z
-x,y,-z
-x,-y,-z
x,y,-z
-x,y,z
x,-y,z
1/2+x,1/2+y,1/2+z
1/2-x,1/2-y,1/2+z
1/2+x,1/2-y,1/2-z
1/2-x,1/2+y,1/2-z
1/2-x,1/2-y,1/2-z
1/2+x,1/2+y,1/2-z
1/2-x,1/2+y,1/2+z
1/2+x,1/2-y,1/2+z
loop_
_atom_site_type_symbol
_atom_site_label
_atom_site_fract_x
_atom_site_fract_y
_atom_site_fract_z
Si Si1 0.806992 0.349956 0.723469
Si Si2 0.187285 0.000000 0.934216
Si Si3 0.802971 0.087009 0.679797
Si Si4 0.801367 0.328138 0.549837
Si Si5 0.316346 0.000000 0.160725
Si Si6 0.705620 0.742145 0.857895
O O1 0.718048 0.375328 0.769887
O O2 0.805918 0.425529 0.691837
O O3 0.739159 0.284376 0.689323
O O4 0.000000 0.331353 0.734809
O O5 0.272000 0.080225 0.947484
O O6 0.185715 0.000000 0.879243
O O7 0.000000 0.000000 0.951510
O O8 0.740230 0.153109 0.645189
O O9 0.000000 0.080046 0.671255
O O10 0.731006 0.000000 0.678482
O O11 0.734787 0.301458 0.500000
O O12 0.737652 0.286603 0.596191
O O13 0.000000 0.314913 0.549821
O O14 0.500000 0.000000 0.137835
O O15 0.500000 0.745905 0.857034
#
# Coordination Sequence:
#
# PCOD9518221 Si02
#       6
#    16   8  16  16   8  16
#     4  10  18  31  51  70  96 132 169 207 238 279
#     4  12  23  33  50  77 110 136 158 199 251 299
#     4  10  20  32  48  72 103 132 160 201 254 305
#     4  10  20  36  57  74  93 130 176 209 238 290
#     4  10  18  31  51  72 100 139 173 203 236 278
#     4   9  18  33  51  72  97 128 167 207 246 288
#
# _framework density 19.735856999999999
#
# number of rings (size 3 to 8) (size 9 to 14) (size 15 to 20)
#    0.000    2.000    3.000    1.800    0.000    2.400 
#    0.000    1.000    0.000    0.600    0.000    4.200 
#    0.000    0.000    0.000    3.600    0.000    4.000 
#
# Total GULP energy -223037.062171 kJ/mol
# GULP energy per Si atom -5575.926554 kJ/mol
# Density = 1.969094 g / cm^3
# Si number density = 19.735857 Si / 1000 Ang^3
#
#
#
# Elastic Constant Matrix: (Units=GPa)
#
#
# Indices 1 2 3 4 5 6 
#
# 1 12.4037 2.5131 1.1084 0.0000 0.0000 0.0000
# 2 2.5131 159.7102 65.0102 0.0000 0.0000 0.0000
# 3 1.1084 65.0102 86.0610 0.0000 0.0000 0.0000
# 4 0.0000 0.0000 0.0000 21.8171 0.0000 0.0000
# 5 0.0000 0.0000 0.0000 0.0000 6.5576 0.0000
# 6 0.0000 0.0000 0.0000 0.0000 0.0000 0.1859
#
#
#
# Elastic Compliance Matrix: (Units=1/GPa)
#
#
# Indices 1 2 3 4 5 6 
#
# 1 0.080880 -0.001225 -0.000116 0.000000 0.000000 0.000000
# 2 -0.001225 0.009060 -0.006828 0.000000 0.000000 0.000000
# 3 -0.000116 -0.006828 0.016779 0.000000 0.000000 0.000000
# 4 0.000000 0.000000 0.000000 0.045836 0.000000 0.000000
# 5 0.000000 0.000000 0.000000 0.000000 0.152494 0.000000
# 6 0.000000 0.000000 0.000000 0.000000 0.000000 5.379618
#
#
# Mechanical properties :
#
#
# Convention : Reuss Voigt Hill
#
# Bulk Modulus (GPa) = 11.06440 43.93759 27.50100
# Shear Modulus (GPa) = 0.87243 18.34834 9.61038
#
# Velocity S-wave (km/s) = 0.66559 3.05240 2.20909
# Velocity P-wave (km/s) = 2.49181 5.89356 4.52455
#
# Compressibility (1/GPa) = 0.09037994
#
# Stress axis : x y z
#
# Youngs Moduli (GPa) = 12.36400 110.37507 59.59799
#
# Poissons Ratio (x) = 0.13526 0.00691
# Poissons Ratio (y) = 0.01515 0.40694
# Poissons Ratio (z) = 0.00143 0.75365
#
# Static dielectric constant tensor:
#      x y z
#    x 1.751620 0.000000 0.000000 
#    y 0.000000 1.721660 0.000000 
#    z 0.000000 0.000000 1.705190 
# 
# From -- ./inp_files/8681.got.cif
#   From: 2010.05.17/outbox.cif.g08.bks.cpg/sg71_5_cif.got.tgz:8681.got - 2010.06.03 16:22:01.
