data_PCOD9518070
_publ_section_title
;
Structure prediction by ZEFSAII (Michael W. Deem and Ramdas Pophale) SiO2 
 PCOD9518070
Probable space group: I M M M
;
_chemical_formula_sum "Si O2"
_cell_formula_units_Z 120
_cell_length_a 15.196444
_cell_length_b 31.232857
_cell_length_c 15.990304
_cell_angle_alpha 90.000000
_cell_angle_beta 90.000000
_cell_angle_gamma 90.000000
_cell_volume 7589.451801
_symmetry_space_group_name_H-M "I M M M"
_symmetry_group_IT_number 71
_symmetry_cell_setting 'orthorhombic'
loop_
_space_group_symop_operation_xyz
x,y,z
-x,-y,z
x,-y,-z
-x,y,-z
-x,-y,-z
x,y,-z
-x,y,z
x,-y,z
1/2+x,1/2+y,1/2+z
1/2-x,1/2-y,1/2+z
1/2+x,1/2-y,1/2-z
1/2-x,1/2+y,1/2-z
1/2-x,1/2-y,1/2-z
1/2+x,1/2+y,1/2-z
1/2-x,1/2+y,1/2+z
1/2+x,1/2-y,1/2+z
loop_
_atom_site_type_symbol
_atom_site_label
_atom_site_fract_x
_atom_site_fract_y
_atom_site_fract_z
Si Si1 0.898580 0.863439 0.202884
Si Si2 0.833730 0.249982 0.408420
Si Si3 0.101630 0.951763 0.275465
Si Si4 0.244496 0.165803 0.662277
Si Si5 0.903155 0.720802 0.232705
Si Si6 0.242587 0.571339 0.098903
Si Si7 0.398793 0.000000 0.398770
Si Si8 0.356087 0.710255 0.406683
O O1 0.886423 0.914537 0.206858
O O2 0.831788 0.844834 0.271381
O O3 0.878259 0.838128 0.118337
O O4 0.000000 0.854616 0.225833
O O5 0.876001 0.254507 0.500000
O O6 0.794687 0.202099 0.398455
O O7 0.888555 0.260671 0.325693
O O8 0.748267 0.280765 0.405071
O O9 0.171735 0.943133 0.348785
O O10 0.000000 0.948093 0.305617
O O11 0.113915 0.000000 0.244008
O O12 0.326382 0.187745 0.709293
O O13 0.270953 0.121540 0.618306
O O14 0.894963 0.759076 0.165042
O O15 0.000000 0.701554 0.226288
O O16 0.159573 0.541662 0.124382
O O17 0.256889 0.565248 0.000000
O O18 0.500000 0.000000 0.368025
O O19 0.403408 0.000000 0.500000
O O20 0.387447 0.720981 0.500000
#
# Coordination Sequence:
#
# PCOD9518070 Si02
#       8
#    16  16  16  16  16  16   8  16
#     4  10  18  30  50  71  96 126 159 202 247 289
#     4  10  19  33  51  71  98 134 167 203 252 298
#     4   9  18  31  48  71  98 128 159 195 247 305
#     4  10  19  34  48  69  98 131 165 206 247 290
#     4  11  21  34  50  71 102 134 167 208 250 297
#     4  10  19  31  48  70  95 127 166 205 248 295
#     4   9  18  32  47  65  93 127 163 206 248 288
#     4  10  19  33  52  72  96 127 167 211 249 292
#
# _framework density 15.811419000000001
#
# number of rings (size 3 to 8) (size 9 to 14) (size 15 to 20)
#    0.000    2.067    3.333    1.600    0.000    2.667 
#    0.000    0.667    0.000    2.800    0.000    1.867 
#    0.000    0.000    0.000    0.000    0.000   18.200 
#
# Total GULP energy -334230.561527 kJ/mol
# GULP energy per Si atom -5570.509359 kJ/mol
# Density = 1.577543 g / cm^3
# Si number density = 15.811419 Si / 1000 Ang^3
#
#
#
# Elastic Constant Matrix: (Units=GPa)
#
#
# Indices 1 2 3 4 5 6 
#
# 1 70.1744 39.3764 24.8236 0.0000 0.0000 0.0000
# 2 39.3764 108.8823 24.4996 0.0000 0.0000 0.0000
# 3 24.8236 24.4996 79.6117 0.0003 -0.0001 0.0000
# 4 0.0000 0.0000 0.0003 17.5660 0.0000 0.0000
# 5 0.0000 0.0000 -0.0001 0.0000 6.6672 0.0000
# 6 0.0000 0.0000 0.0000 0.0000 0.0000 20.3286
#
#
#
# Elastic Compliance Matrix: (Units=1/GPa)
#
#
# Indices 1 2 3 4 5 6 
#
# 1 0.019049 -0.005966 -0.004104 0.000000 0.000000 0.000000
# 2 -0.005966 0.011736 -0.001751 0.000000 0.000000 0.000000
# 3 -0.004104 -0.001751 0.014380 0.000000 0.000000 0.000000
# 4 0.000000 0.000000 0.000000 0.056928 0.000000 0.000000
# 5 0.000000 0.000000 0.000000 0.000000 0.149988 0.000000
# 6 0.000000 0.000000 0.000000 0.000000 0.000000 0.049192
#
#
# Mechanical properties :
#
#
# Convention : Reuss Voigt Hill
#
# Bulk Modulus (GPa) = 46.46232 48.45194 47.45713
# Shear Modulus (GPa) = 15.05622 20.24362 17.64992
#
# Velocity S-wave (km/s) = 3.08918 3.58203 3.34470
# Velocity P-wave (km/s) = 6.49408 6.91506 6.70788
#
# Compressibility (1/GPa) = 0.02152282
#
# Stress axis : x y z
#
# Youngs Moduli (GPa) = 52.49510 85.20983 69.54307
#
# Poissons Ratio (x) = 0.50833 0.28540
# Poissons Ratio (y) = 0.31317 0.12180
# Poissons Ratio (z) = 0.21543 0.14924
#
# Static dielectric constant tensor:
#      x y z
#    x 1.533210 0.000000 0.000000 
#    y 0.000000 1.543100 0.000000 
#    z 0.000000 0.000000 1.524050 
# 
# From -- ./inp_files/35443.got.cif
#   From: 2010.05.17/outbox.cif.g08.bks.cpg/sg71_18_cif.got.tgz:35443.got - 2010.06.03 16:22:01.
