data_PCOD9518278
_publ_section_title
;
Structure prediction by ZEFSAII (Michael W. Deem and Ramdas Pophale) SiO2 
 PCOD9518278
Probable space group: I M M M
;
_chemical_formula_sum "Si O2"
_cell_formula_units_Z 72
_cell_length_a 7.955070
_cell_length_b 15.237491
_cell_length_c 28.041663
_cell_angle_alpha 90.000000
_cell_angle_beta 90.000000
_cell_angle_gamma 90.000000
_cell_volume 3399.078804
_symmetry_space_group_name_H-M "I M M M"
_symmetry_group_IT_number 71
_symmetry_cell_setting 'orthorhombic'
loop_
_space_group_symop_operation_xyz
x,y,z
-x,-y,z
x,-y,-z
-x,y,-z
-x,-y,-z
x,y,-z
-x,y,z
x,-y,z
1/2+x,1/2+y,1/2+z
1/2-x,1/2-y,1/2+z
1/2+x,1/2-y,1/2-z
1/2-x,1/2+y,1/2-z
1/2-x,1/2-y,1/2-z
1/2+x,1/2+y,1/2-z
1/2-x,1/2+y,1/2+z
1/2+x,1/2-y,1/2+z
loop_
_atom_site_type_symbol
_atom_site_label
_atom_site_fract_x
_atom_site_fract_y
_atom_site_fract_z
Si Si1 0.302815 0.099094 0.500000
Si Si2 0.296637 0.095103 0.663501
Si Si3 0.701677 0.848005 0.765047
Si Si4 0.293456 0.099370 0.870872
Si Si5 0.193975 0.774958 0.585124
O O1 0.500000 0.086800 0.500000
O O2 0.263893 0.159025 0.454204
O O3 0.225692 0.000000 0.500000
O O4 0.500000 0.105212 0.660673
O O5 0.246524 0.096841 0.718818
O O6 0.213589 0.173897 0.635056
O O7 0.253603 0.000000 0.642317
O O8 0.500000 0.853883 0.767824
O O9 0.750000 0.750000 0.750000
O O10 0.764053 0.877946 0.816790
O O11 0.500000 0.101934 0.870721
O O12 0.234263 0.177493 0.905749
O O13 0.244115 0.000000 0.883184
O O14 0.000000 0.763370 0.572810
#
# Coordination Sequence:
#
# PCOD9518278 Si02
#       5
#     8  16  16  16  16
#     4  11  25  45  66  85 110 146 181 219 280 353
#     4  10  20  33  52  79 113 154 192 226 273 334
#     4  10  18  31  52  78 112 153 195 233 270 318
#     4   9  18  34  56  82 114 153 193 230 272 326
#     4  11  22  37  60  88 113 141 183 237 286 328
#
# _framework density 21.182210999999999
#
# number of rings (size 3 to 8) (size 9 to 14) (size 15 to 20)
#    0.000    1.889    2.222    2.333    0.000    6.667 
#    0.000    0.556    0.000   10.667    0.000    0.000 
#    0.000    0.000    0.000    0.000    0.000    0.000 
#
# Total GULP energy -200863.966954 kJ/mol
# GULP energy per Si atom -5579.554638 kJ/mol
# Density = 2.113400 g / cm^3
# Si number density = 21.182211 Si / 1000 Ang^3
#
#
#
# Elastic Constant Matrix: (Units=GPa)
#
#
# Indices 1 2 3 4 5 6 
#
# 1 13.9228 8.2355 13.5123 0.0000 0.0000 0.0000
# 2 8.2355 203.8994 65.8464 0.0000 0.0000 0.0000
# 3 13.5123 65.8464 95.3382 0.0000 0.0000 0.0000
# 4 0.0000 0.0000 0.0000 101.4706 0.0000 0.0000
# 5 0.0000 0.0000 0.0000 0.0000 10.7994 0.0000
# 6 0.0000 0.0000 0.0000 0.0000 0.0000 11.6365
#
#
#
# Elastic Compliance Matrix: (Units=1/GPa)
#
#
# Indices 1 2 3 4 5 6 
#
# 1 0.083333 0.000577 -0.012209 0.000000 0.000000 0.000000
# 2 0.000577 0.006316 -0.004444 0.000000 0.000000 0.000000
# 3 -0.012209 -0.004444 0.015289 0.000000 0.000000 0.000000
# 4 0.000000 0.000000 0.000000 0.009855 0.000000 0.000000
# 5 0.000000 0.000000 0.000000 0.000000 0.092597 0.000000
# 6 0.000000 0.000000 0.000000 0.000000 0.000000 0.085936
#
#
# Mechanical properties :
#
#
# Convention : Reuss Voigt Hill
#
# Bulk Modulus (GPa) = 13.73912 54.26098 34.00005
# Shear Modulus (GPa) = 14.29630 39.81906 27.05768
#
# Velocity S-wave (km/s) = 2.60074 4.34041 3.57792
# Velocity P-wave (km/s) = 3.93938 7.12677 5.75802
#
# Compressibility (1/GPa) = 0.07278484
#
# Stress axis : x y z
#
# Youngs Moduli (GPa) = 12.00010 158.32164 65.40722
#
# Poissons Ratio (x) = -0.09136 0.79858
# Poissons Ratio (y) = -0.00692 0.29068
# Poissons Ratio (z) = 0.14651 0.70361
#
# Static dielectric constant tensor:
#      x y z
#    x 1.776040 0.000000 0.000000 
#    y 0.000000 1.811140 0.000000 
#    z 0.000000 0.000000 1.771920 
# 
# From -- ./inp_files/6013.got.cif
#   From: 2010.05.17/outbox.cif.g08.bks.cpg/sg71_4_cif.got.tgz:6013.got - 2010.06.03 16:22:01.
