data_PCOD9518242
_publ_section_title
;
Structure prediction by ZEFSAII (Michael W. Deem and Ramdas Pophale) SiO2 
 PCOD9518242
Probable space group: I M M M
;
_chemical_formula_sum "Si O2"
_cell_formula_units_Z 104
_cell_length_a 23.730865
_cell_length_b 7.363685
_cell_length_c 25.650899
_cell_angle_alpha 90.000000
_cell_angle_beta 90.000000
_cell_angle_gamma 90.000000
_cell_volume 4482.407763
_symmetry_space_group_name_H-M "I M M M"
_symmetry_group_IT_number 71
_symmetry_cell_setting 'orthorhombic'
loop_
_space_group_symop_operation_xyz
x,y,z
-x,-y,z
x,-y,-z
-x,y,-z
-x,-y,-z
x,y,-z
-x,y,z
x,-y,z
1/2+x,1/2+y,1/2+z
1/2-x,1/2-y,1/2+z
1/2+x,1/2-y,1/2-z
1/2-x,1/2+y,1/2-z
1/2-x,1/2-y,1/2-z
1/2+x,1/2+y,1/2-z
1/2-x,1/2+y,1/2+z
1/2+x,1/2-y,1/2+z
loop_
_atom_site_type_symbol
_atom_site_label
_atom_site_fract_x
_atom_site_fract_y
_atom_site_fract_z
Si Si1 0.438721 0.721497 0.136745
Si Si2 0.584173 0.702955 0.250422
Si Si3 0.500000 0.278856 0.560115
Si Si4 0.731837 0.284302 0.609993
Si Si5 0.342454 0.717370 0.942950
Si Si6 0.797691 0.285360 0.291091
Si Si7 0.604076 0.277628 0.367306
O O1 0.500000 0.765498 0.113150
O O2 0.434975 0.500000 0.139814
O O3 0.439589 0.786918 0.197005
O O4 0.384853 0.784159 0.102865
O O5 0.560571 0.500000 0.256277
O O6 0.648482 0.691872 0.232385
O O7 0.586277 0.783611 0.308742
O O8 0.500000 0.500000 0.559756
O O9 0.500000 0.219452 0.500000
O O10 0.443956 0.223818 0.591633
O O11 0.726739 0.500000 0.617828
O O12 0.775565 0.258037 0.562948
O O13 0.771341 0.210967 0.656116
O O14 0.667287 0.218073 0.615165
O O15 0.347501 0.500000 0.941978
O O16 0.361255 0.781886 0.000000
O O17 0.809646 0.500000 0.296310
O O18 0.750000 0.250000 0.250000
O O19 0.605004 0.500000 0.365413
#
# Coordination Sequence:
#
# PCOD9518242 Si02
#       7
#    16  16   8  16  16  16  16
#     4   9  18  31  51  79 107 139 176 218 272 321
#     4  10  18  31  51  78 111 141 173 219 267 319
#     4   9  18  32  50  74 107 143 176 218 269 312
#     4  10  20  34  52  77 108 140 176 217 267 321
#     4  10  21  36  54  77 105 138 181 229 271 317
#     4  11  20  31  50  78 111 145 176 213 268 329
#     4   9  18  31  49  77 107 137 175 216 262 318
#
# _framework density 23.201815
#
# number of rings (size 3 to 8) (size 9 to 14) (size 15 to 20)
#    0.000    2.231    3.077    0.462    1.077    1.846 
#    0.000    3.077    0.000    1.846    0.000    2.692 
#    0.000    3.692    0.000    0.000    0.000    0.000 
#
# Total GULP energy -289878.513409 kJ/mol
# GULP energy per Si atom -5574.586796 kJ/mol
# Density = 2.314901 g / cm^3
# Si number density = 23.201815 Si / 1000 Ang^3
#
#
#
# Elastic Constant Matrix: (Units=GPa)
#
#
# Indices 1 2 3 4 5 6 
#
# 1 193.9131 8.8830 93.5754 0.0000 0.0000 0.0000
# 2 8.8830 93.5418 5.4429 0.0000 0.0000 0.0000
# 3 93.5754 5.4429 179.0537 0.0000 0.0000 0.0000
# 4 0.0000 0.0000 0.0000 4.0787 0.0000 0.0000
# 5 0.0000 0.0000 0.0000 0.0000 20.4074 0.0000
# 6 0.0000 0.0000 0.0000 0.0000 0.0000 3.4006
#
#
#
# Elastic Compliance Matrix: (Units=1/GPa)
#
#
# Indices 1 2 3 4 5 6 
#
# 1 0.006915 -0.000447 -0.003600 0.000000 0.000000 0.000000
# 2 -0.000447 0.010738 -0.000093 0.000000 0.000000 0.000000
# 3 -0.003600 -0.000093 0.007469 0.000000 0.000000 0.000000
# 4 0.000000 0.000000 0.000000 0.245178 0.000000 0.000000
# 5 0.000000 0.000000 0.000000 0.000000 0.049002 0.000000
# 6 0.000000 0.000000 0.000000 0.000000 0.000000 0.294066
#
#
# Mechanical properties :
#
#
# Convention : Reuss Voigt Hill
#
# Bulk Modulus (GPa) = 59.37479 75.81234 67.59357
# Shear Modulus (GPa) = 7.97114 29.48448 18.72781
#
# Velocity S-wave (km/s) = 1.85554 3.56867 2.84416
# Velocity P-wave (km/s) = 5.49880 7.05171 6.32311
#
# Compressibility (1/GPa) = 0.01684216
#
# Stress axis : x y z
#
# Youngs Moduli (GPa) = 144.61907 93.12491 133.88327
#
# Poissons Ratio (x) = 0.04164 0.48199
# Poissons Ratio (y) = 0.06467 0.01242
# Poissons Ratio (z) = 0.52064 0.00864
#
# Static dielectric constant tensor:
#      x y z
#    x 1.832480 0.000000 0.000000 
#    y 0.000000 1.878200 0.000000 
#    z 0.000000 0.000000 1.678190 
# 
# From -- ./inp_files/66824.got.cif
#   From: 2010.05.17/outbox.cif.g08.bks.cpg/sg71_34_cif.got.tgz:66824.got - 2010.06.03 16:22:01.
