data_PCOD9518701
_publ_section_title
;
Structure prediction by ZEFSAII (Michael W. Deem and Ramdas Pophale) SiO2 
 PCOD9518701
Probable space group: I M M M
;
_chemical_formula_sum "Si O2"
_cell_formula_units_Z 72
_cell_length_a 8.764169
_cell_length_b 29.027572
_cell_length_c 17.478841
_cell_angle_alpha 90.000000
_cell_angle_beta 90.000000
_cell_angle_gamma 90.000000
_cell_volume 4446.661663
_symmetry_space_group_name_H-M "I M M M"
_symmetry_group_IT_number 71
_symmetry_cell_setting 'orthorhombic'
loop_
_space_group_symop_operation_xyz
x,y,z
-x,-y,z
x,-y,-z
-x,y,-z
-x,-y,-z
x,y,-z
-x,y,z
x,-y,z
1/2+x,1/2+y,1/2+z
1/2-x,1/2-y,1/2+z
1/2+x,1/2-y,1/2-z
1/2-x,1/2+y,1/2-z
1/2-x,1/2-y,1/2-z
1/2+x,1/2+y,1/2-z
1/2-x,1/2+y,1/2+z
1/2+x,1/2-y,1/2+z
loop_
_atom_site_type_symbol
_atom_site_label
_atom_site_fract_x
_atom_site_fract_y
_atom_site_fract_z
Si Si1 0.182802 0.781083 0.818635
Si Si2 0.682797 0.860797 0.733202
Si Si3 0.815121 0.697747 0.084408
Si Si4 0.672591 0.055809 0.500000
Si Si5 0.817879 0.946238 0.337532
O O1 0.250000 0.750000 0.750000
O O2 0.252188 0.831227 0.803700
O O3 0.221407 0.750751 0.893294
O O4 0.000000 0.783170 0.812367
O O5 0.500000 0.860091 0.735380
O O6 0.734696 0.834382 0.654887
O O7 0.744456 0.912196 0.723945
O O8 0.000000 0.694495 0.083288
O O9 0.758175 0.685231 0.000000
O O10 0.500000 0.074464 0.500000
O O11 0.756202 0.067966 0.578452
O O12 0.665317 0.000000 0.500000
O O13 0.000000 0.942489 0.336670
O O14 0.776794 0.000000 0.325970
#
# Coordination Sequence:
#
# PCOD9518701 Si02
#       5
#    16  16  16   8  16
#     4   9  16  28  45  62  85 114 143 180 222 264
#     4  10  19  29  45  64  86 117 150 184 219 264
#     4   8  15  27  43  64  86 110 144 182 216 253
#     4   9  17  29  43  57  77 109 145 179 217 257
#     4  10  20  32  44  60  85 114 147 188 226 258
#
# _framework density 16.191922000000002
#
# number of rings (size 3 to 8) (size 9 to 14) (size 15 to 20)
#    0.000    2.778    0.000    3.667    1.556    2.667 
#    0.000    0.000    0.000   13.333    0.000    0.000 
#    0.000    0.889    0.000   10.222    0.000    2.889 
#
# Total GULP energy -200525.325604 kJ/mol
# GULP energy per Si atom -5570.147933 kJ/mol
# Density = 1.615507 g / cm^3
# Si number density = 16.191922 Si / 1000 Ang^3
#
#
#
# Elastic Constant Matrix: (Units=GPa)
#
#
# Indices 1 2 3 4 5 6 
#
# 1 48.2649 29.6391 2.9116 0.0000 0.0000 0.0000
# 2 29.6391 83.5656 8.8259 0.0000 0.0000 0.0000
# 3 2.9116 8.8259 16.7289 -0.0001 0.0000 0.0000
# 4 0.0000 0.0000 -0.0001 26.2345 0.0000 0.0000
# 5 0.0000 0.0000 0.0000 0.0000 14.3538 0.0000
# 6 0.0000 0.0000 0.0000 0.0000 0.0000 23.9165
#
#
#
# Elastic Compliance Matrix: (Units=1/GPa)
#
#
# Indices 1 2 3 4 5 6 
#
# 1 0.026490 -0.009434 0.000367 0.000000 0.000000 0.000000
# 2 -0.009434 0.016033 -0.006817 0.000000 0.000000 0.000000
# 3 0.000367 -0.006817 0.063309 0.000000 0.000000 0.000000
# 4 0.000000 0.000000 0.000000 0.038118 0.000000 0.000000
# 5 0.000000 0.000000 0.000000 0.000000 0.069668 0.000000
# 6 0.000000 0.000000 0.000000 0.000000 0.000000 0.041812
#
#
# Mechanical properties :
#
#
# Convention : Reuss Voigt Hill
#
# Bulk Modulus (GPa) = 13.50178 25.70139 19.60159
# Shear Modulus (GPa) = 16.03146 20.04648 18.03897
#
# Velocity S-wave (km/s) = 3.14998 3.52242 3.34139
# Velocity P-wave (km/s) = 4.64613 5.69655 5.19794
#
# Compressibility (1/GPa) = 0.07406432
#
# Stress axis : x y z
#
# Youngs Moduli (GPa) = 37.74945 62.37213 15.79547
#
# Poissons Ratio (x) = 0.58844 -0.00580
# Poissons Ratio (y) = 0.35614 0.10767
# Poissons Ratio (z) = -0.01385 0.42517
#
# Static dielectric constant tensor:
#      x y z
#    x 1.540490 0.000000 0.000000 
#    y 0.000000 1.617670 0.000000 
#    z 0.000000 0.000000 1.536870 
# 
# From -- ./inp_files/8166.got.cif
#   From: 2010.05.17/outbox.cif.g08.bks.cpg/sg71_5_cif.got.tgz:8166.got - 2010.06.03 16:22:01.
