data_PCOD9518075
_publ_section_title
;
Structure prediction by ZEFSAII (Michael W. Deem and Ramdas Pophale) SiO2 
 PCOD9518075
Probable space group: I M M M
;
_chemical_formula_sum "Si O2"
_cell_formula_units_Z 88
_cell_length_a 21.606917
_cell_length_b 7.769936
_cell_length_c 23.770906
_cell_angle_alpha 90.000000
_cell_angle_beta 90.000000
_cell_angle_gamma 90.000000
_cell_volume 3990.763394
_symmetry_space_group_name_H-M "I M M M"
_symmetry_group_IT_number 71
_symmetry_cell_setting 'orthorhombic'
loop_
_space_group_symop_operation_xyz
x,y,z
-x,-y,z
x,-y,-z
-x,y,-z
-x,-y,-z
x,y,-z
-x,y,z
x,-y,z
1/2+x,1/2+y,1/2+z
1/2-x,1/2-y,1/2+z
1/2+x,1/2-y,1/2-z
1/2-x,1/2+y,1/2-z
1/2-x,1/2-y,1/2-z
1/2+x,1/2+y,1/2-z
1/2-x,1/2+y,1/2+z
1/2+x,1/2-y,1/2+z
loop_
_atom_site_type_symbol
_atom_site_label
_atom_site_fract_x
_atom_site_fract_y
_atom_site_fract_z
Si Si1 0.202926 0.802832 0.583994
Si Si2 0.193252 0.293710 0.711745
Si Si3 0.842400 0.186019 0.066387
Si Si4 0.067829 0.790647 0.409990
Si Si5 0.935628 0.703889 0.277066
Si Si6 0.572554 0.000000 0.569079
O O1 0.199857 0.794251 0.651535
O O2 0.268400 0.718281 0.569330
O O3 0.134748 0.732629 0.566088
O O4 0.206909 0.000000 0.564996
O O5 0.189542 0.500000 0.702277
O O6 0.250000 0.250000 0.750000
O O7 0.130504 0.231317 0.741919
O O8 0.886712 0.336375 0.088812
O O9 0.855487 0.000000 0.092252
O O10 0.856497 0.179290 0.000000
O O11 0.066334 0.730414 0.344909
O O12 0.000000 0.739675 0.433768
O O13 0.069755 0.000000 0.411112
O O14 0.937272 0.500000 0.265858
O O15 0.000000 0.781304 0.256486
O O16 0.500000 0.000000 0.586285
O O17 0.572424 0.000000 0.500000
#
# Coordination Sequence:
#
# PCOD9518075 Si02
#       6
#    16  16  16  16  16   8
#     4  10  18  30  50  73 101 136 171 210 262 312
#     4  10  19  30  45  68  96 125 164 210 256 308
#     4  10  20  34  54  81 110 139 173 214 262 315
#     4   8  14  24  40  65  94 123 160 205 247 291
#     4   8  14  25  41  60  83 113 150 194 242 289
#     4   9  18  34  56  82 109 135 169 213 260 314
#
# _framework density 22.050917999999999
#
# number of rings (size 3 to 8) (size 9 to 14) (size 15 to 20)
#    0.000    2.818    0.909    1.091    0.000    1.818 
#    0.000    1.818    0.000    1.636    0.000    3.818 
#    0.000    0.000    0.000    0.000    0.000    0.000 
#
# Total GULP energy -245061.140946 kJ/mol
# GULP energy per Si atom -5569.571385 kJ/mol
# Density = 2.200073 g / cm^3
# Si number density = 22.050918 Si / 1000 Ang^3
#
#
#
# Elastic Constant Matrix: (Units=GPa)
#
#
# Indices 1 2 3 4 5 6 
#
# 1 233.4945 60.7549 24.0843 0.0000 0.0000 0.0000
# 2 60.7549 100.5490 -7.3023 0.0000 0.0000 0.0000
# 3 24.0843 -7.3023 19.2987 0.0000 0.0000 0.0000
# 4 0.0000 0.0000 0.0000 5.0271 0.0000 0.0000
# 5 0.0000 0.0000 0.0000 0.0000 19.6945 0.0000
# 6 0.0000 0.0000 0.0000 0.0000 0.0000 11.7488
#
#
#
# Elastic Compliance Matrix: (Units=1/GPa)
#
#
# Indices 1 2 3 4 5 6 
#
# 1 0.006514 -0.004654 -0.009890 0.000000 0.000000 0.000000
# 2 -0.004654 0.013552 0.010936 0.000000 0.000000 0.000000
# 3 -0.009890 0.010936 0.068298 0.000000 0.000000 0.000000
# 4 0.000000 0.000000 0.000000 0.198923 0.000000 0.000000
# 5 0.000000 0.000000 0.000000 0.000000 0.050776 0.000000
# 6 0.000000 0.000000 0.000000 0.000000 0.000000 0.085115
#
#
# Mechanical properties :
#
#
# Convention : Reuss Voigt Hill
#
# Bulk Modulus (GPa) = 12.32330 56.49065 34.40697
# Shear Modulus (GPa) = 10.93031 25.68109 18.30570
#
# Velocity S-wave (km/s) = 2.22881 3.41637 2.88437
# Velocity P-wave (km/s) = 3.49631 6.42152 5.17011
#
# Compressibility (1/GPa) = 0.08114712
#
# Stress axis : x y z
#
# Youngs Moduli (GPa) = 153.51721 73.79071 14.64170
#
# Poissons Ratio (x) = 0.34344 0.14481
# Poissons Ratio (y) = 0.71450 -0.16012
# Poissons Ratio (z) = 1.51833 -0.80699
#
# Static dielectric constant tensor:
#      x y z
#    x 1.868030 0.000000 0.000000 
#    y 0.000000 1.875830 0.000000 
#    z 0.000000 0.000000 1.815340 
# 
# From -- ./inp_files/61117.got.cif
#   From: 2010.05.17/outbox.cif.g08.bks.cpg/sg71_31_cif.got.tgz:61117.got - 2010.06.03 16:22:01.
