data_PCOD9518869
_publ_section_title
;
Structure prediction by ZEFSAII (Michael W. Deem and Ramdas Pophale) SiO2 
 PCOD9518869
Probable space group: I M M M
;
_chemical_formula_sum "Si O2"
_cell_formula_units_Z 88
_cell_length_a 7.349476
_cell_length_b 28.384690
_cell_length_c 18.165917
_cell_angle_alpha 90.000000
_cell_angle_beta 90.000000
_cell_angle_gamma 90.000000
_cell_volume 3789.639139
_symmetry_space_group_name_H-M "I M M M"
_symmetry_group_IT_number 71
_symmetry_cell_setting 'orthorhombic'
loop_
_space_group_symop_operation_xyz
x,y,z
-x,-y,z
x,-y,-z
-x,y,-z
-x,-y,-z
x,y,-z
-x,y,z
x,-y,z
1/2+x,1/2+y,1/2+z
1/2-x,1/2-y,1/2+z
1/2+x,1/2-y,1/2-z
1/2-x,1/2+y,1/2-z
1/2-x,1/2-y,1/2-z
1/2+x,1/2+y,1/2-z
1/2-x,1/2+y,1/2+z
1/2+x,1/2-y,1/2+z
loop_
_atom_site_type_symbol
_atom_site_label
_atom_site_fract_x
_atom_site_fract_y
_atom_site_fract_z
Si Si1 0.721489 0.552362 0.857018
Si Si2 0.794979 0.682773 0.716789
Si Si3 0.207506 0.844344 0.618055
Si Si4 0.222107 0.000000 0.917578
Si Si5 0.723119 0.243513 0.920003
Si Si6 0.280144 0.579932 0.308968
O O1 0.500000 0.552619 0.862293
O O2 0.780356 0.500000 0.882791
O O3 0.784907 0.602714 0.890457
O O4 0.768248 0.558399 0.770689
O O5 0.704792 0.670797 0.795245
O O6 0.716499 0.717581 0.655002
O O7 0.797516 0.631469 0.680410
O O8 0.000000 0.698846 0.733823
O O9 0.286333 0.797746 0.581702
O O10 0.000000 0.848002 0.592246
O O11 0.278815 0.045377 0.872447
O O12 0.000000 0.000000 0.917458
O O13 0.285736 0.000000 0.000000
O O14 0.500000 0.243098 0.916713
O O15 0.773470 0.222717 0.000000
O O16 0.500000 0.583705 0.308901
#
# Coordination Sequence:
#
# PCOD9518869 Si02
#       6
#    16  16  16   8  16  16
#     4   8  12  21  41  66  87 108 139 180 225 268
#     4  10  19  30  47  69  94 122 154 198 239 275
#     4   9  17  30  51  72  90 120 159 196 232 277
#     4   9  16  26  43  65  89 121 158 197 236 273
#     4   9  18  32  48  67  93 126 160 191 233 288
#     4   9  16  28  45  64  89 120 154 191 229 274
#
# _framework density 23.221209000000002
#
# number of rings (size 3 to 8) (size 9 to 14) (size 15 to 20)
#    0.000    3.000    0.909    2.182    0.000    0.727 
#    0.000    1.364    0.000    5.455    0.000    3.818 
#    0.000    0.000    0.000    4.727    0.000    6.182 
#
# Total GULP energy -245335.900811 kJ/mol
# GULP energy per Si atom -5575.815928 kJ/mol
# Density = 2.316836 g / cm^3
# Si number density = 23.221209 Si / 1000 Ang^3
#
#
#
# Elastic Constant Matrix: (Units=GPa)
#
#
# Indices 1 2 3 4 5 6 
#
# 1 84.9670 -0.9953 0.8519 0.0000 0.0000 0.0000
# 2 -0.9953 149.2959 27.4419 0.0000 0.0000 0.0000
# 3 0.8519 27.4419 55.7617 0.0000 0.0000 0.0000
# 4 0.0000 0.0000 0.0000 7.3739 0.0000 0.0000
# 5 0.0000 0.0000 0.0000 0.0000 -4.3795 0.0000
# 6 0.0000 0.0000 0.0000 0.0000 0.0000 -4.2378
#
#
#
# Elastic Compliance Matrix: (Units=1/GPa)
#
#
# Indices 1 2 3 4 5 6 
#
# 1 0.011773 0.000123 -0.000240 0.000000 0.000000 0.000000
# 2 0.000123 0.007366 -0.003627 0.000000 0.000000 0.000000
# 3 -0.000240 -0.003627 0.019722 0.000000 0.000000 0.000000
# 4 0.000000 0.000000 0.000000 0.135614 0.000000 0.000000
# 5 0.000000 0.000000 0.000000 0.000000 -0.228337 0.000000
# 6 0.000000 0.000000 0.000000 0.000000 0.000000 -0.235973
#
#
# Mechanical properties :
#
#
# Convention : Reuss Voigt Hill
#
# Bulk Modulus (GPa) = 31.87548 38.29130 35.08339
# Shear Modulus (GPa) = -18.38981 17.26639 -0.56171
#
# Velocity S-wave (km/s) = -2.81720 2.72979 -0.49236
# Velocity P-wave (km/s) = 1.78173 5.14405 3.84940
#
# Compressibility (1/GPa) = 0.03137208
#
# Stress axis : x y z
#
# Youngs Moduli (GPa) = 84.93922 135.76749 50.70506
#
# Poissons Ratio (x) = -0.01665 0.01218
# Poissons Ratio (y) = -0.01042 0.18389
# Poissons Ratio (z) = 0.02040 0.49238
#
# Static dielectric constant tensor:
#      x y z
#    x 1.939000 0.000000 0.000000 
#    y 0.000000 1.873740 0.000000 
#    z 0.000000 0.000000 1.845410 
# 
# From -- ./inp_files/50785.got.cif
#   From: 2010.05.17/outbox.cif.g08.bks.cpg/sg71_26_cif.got.tgz:50785.got - 2010.06.03 16:22:01.
