data_PCOD9518879
_publ_section_title
;
Structure prediction by ZEFSAII (Michael W. Deem and Ramdas Pophale) SiO2 
 PCOD9518879
Probable space group: I M M M
;
_chemical_formula_sum "Si O2"
_cell_formula_units_Z 88
_cell_length_a 23.873435
_cell_length_b 7.419826
_cell_length_c 23.147689
_cell_angle_alpha 90.000000
_cell_angle_beta 90.000000
_cell_angle_gamma 90.000000
_cell_volume 4100.306023
_symmetry_space_group_name_H-M "I M M M"
_symmetry_group_IT_number 71
_symmetry_cell_setting 'orthorhombic'
loop_
_space_group_symop_operation_xyz
x,y,z
-x,-y,z
x,-y,-z
-x,y,-z
-x,-y,-z
x,y,-z
-x,y,z
x,-y,z
1/2+x,1/2+y,1/2+z
1/2-x,1/2-y,1/2+z
1/2+x,1/2-y,1/2-z
1/2-x,1/2+y,1/2-z
1/2-x,1/2-y,1/2-z
1/2+x,1/2+y,1/2-z
1/2-x,1/2+y,1/2+z
1/2+x,1/2-y,1/2+z
loop_
_atom_site_type_symbol
_atom_site_label
_atom_site_fract_x
_atom_site_fract_y
_atom_site_fract_z
Si Si1 0.144573 0.213858 0.661103
Si Si2 0.066118 0.279954 0.000000
Si Si3 0.938662 0.716356 0.763115
Si Si4 0.936399 0.780111 0.564009
Si Si5 0.380497 0.780098 0.377636
Si Si6 0.735604 0.216199 0.682286
O O1 0.113367 0.235307 0.722259
O O2 0.103176 0.288940 0.613502
O O3 0.206905 0.286348 0.654712
O O4 0.149450 0.000000 0.652142
O O5 0.098922 0.223147 0.058666
O O6 0.065881 0.500000 0.000000
O O7 0.000000 0.226100 0.000000
O O8 0.940557 0.500000 0.762508
O O9 0.925356 0.772289 0.828487
O O10 0.000000 0.783061 0.743398
O O11 0.918118 0.728306 0.500000
O O12 0.000000 0.721715 0.572893
O O13 0.936924 0.000000 0.565849
O O14 0.320546 0.718914 0.350292
O O15 0.378801 0.000000 0.379341
O O16 0.750000 0.250000 0.750000
O O17 0.732121 0.000000 0.677832
#
# Coordination Sequence:
#
# PCOD9518879 Si02
#       6
#    16   8  16  16  16  16
#     4  10  19  30  47  71  95 123 160 198 237 287
#     4   9  16  28  48  72  99 133 170 209 256 304
#     4  10  19  30  47  71  98 127 157 193 241 291
#     4   8  14  26  43  63  90 121 149 183 230 279
#     4   9  17  30  46  68  99 130 162 202 247 297
#     4  10  19  32  49  70  97 128 159 195 243 292
#
# _framework density 21.461811999999998
#
# number of rings (size 3 to 8) (size 9 to 14) (size 15 to 20)
#    0.000    2.636    1.818    1.636    0.000    3.273 
#    1.636    0.000    0.000    0.545    0.000    5.091 
#    0.000    4.364    0.000    0.000    0.000    0.000 
#
# Total GULP energy -245307.073199 kJ/mol
# GULP energy per Si atom -5575.160755 kJ/mol
# Density = 2.141296 g / cm^3
# Si number density = 21.461812 Si / 1000 Ang^3
#
#
#
# Elastic Constant Matrix: (Units=GPa)
#
#
# Indices 1 2 3 4 5 6 
#
# 1 131.1594 2.5429 82.5253 0.0000 0.0000 0.0000
# 2 2.5429 69.8210 -2.7231 0.0000 0.0000 0.0000
# 3 82.5253 -2.7231 131.0439 0.0000 0.0000 0.0000
# 4 0.0000 0.0000 0.0000 8.9887 0.0000 0.0000
# 5 0.0000 0.0000 0.0000 0.0000 15.7727 0.0000
# 6 0.0000 0.0000 0.0000 0.0000 0.0000 1.6661
#
#
#
# Elastic Compliance Matrix: (Units=1/GPa)
#
#
# Indices 1 2 3 4 5 6 
#
# 1 0.012670 -0.000773 -0.007995 0.000000 0.000000 0.000000
# 2 -0.000773 0.014381 0.000786 0.000000 0.000000 0.000000
# 3 -0.007995 0.000786 0.012682 0.000000 0.000000 0.000000
# 4 0.000000 0.000000 0.000000 0.111251 0.000000 0.000000
# 5 0.000000 0.000000 0.000000 0.000000 0.063401 0.000000
# 6 0.000000 0.000000 0.000000 0.000000 0.000000 0.600198
#
#
# Mechanical properties :
#
#
# Convention : Reuss Voigt Hill
#
# Bulk Modulus (GPa) = 42.07269 55.19049 48.63159
# Shear Modulus (GPa) = 5.96324 21.93077 13.94701
#
# Velocity S-wave (km/s) = 1.66870 3.20011 2.55199
# Velocity P-wave (km/s) = 4.83310 6.27899 5.60288
#
# Compressibility (1/GPa) = 0.02376839
#
# Stress axis : x y z
#
# Youngs Moduli (GPa) = 78.92893 69.53545 78.85119
#
# Poissons Ratio (x) = 0.05377 0.63040
# Poissons Ratio (y) = 0.06103 -0.06196
# Poissons Ratio (z) = 0.63102 -0.05464
#
# Static dielectric constant tensor:
#      x y z
#    x 1.807530 0.000000 0.000000 
#    y 0.000000 1.849900 0.000000 
#    z 0.000000 0.000000 1.776280 
# 
# From -- ./inp_files/55531.got.cif
#   From: 2010.05.17/outbox.cif.g08.bks.cpg/sg71_28_cif.got.tgz:55531.got - 2010.06.03 16:22:01.
