data_PCOD9518635
_publ_section_title
;
Structure prediction by ZEFSAII (Michael W. Deem and Ramdas Pophale) SiO2 
 PCOD9518635
Probable space group: I M M M
;
_chemical_formula_sum "Si O2"
_cell_formula_units_Z 128
_cell_length_a 18.772114
_cell_length_b 18.010604
_cell_length_c 23.656291
_cell_angle_alpha 90.000000
_cell_angle_beta 90.000000
_cell_angle_gamma 90.000000
_cell_volume 7998.123656
_symmetry_space_group_name_H-M "I M M M"
_symmetry_group_IT_number 71
_symmetry_cell_setting 'orthorhombic'
loop_
_space_group_symop_operation_xyz
x,y,z
-x,-y,z
x,-y,-z
-x,y,-z
-x,-y,-z
x,y,-z
-x,y,z
x,-y,z
1/2+x,1/2+y,1/2+z
1/2-x,1/2-y,1/2+z
1/2+x,1/2-y,1/2-z
1/2-x,1/2+y,1/2-z
1/2-x,1/2-y,1/2-z
1/2+x,1/2+y,1/2-z
1/2-x,1/2+y,1/2+z
1/2+x,1/2-y,1/2+z
loop_
_atom_site_type_symbol
_atom_site_label
_atom_site_fract_x
_atom_site_fract_y
_atom_site_fract_z
Si Si1 0.690005 0.412310 0.567338
Si Si2 0.812717 0.657306 0.359974
Si Si3 0.584950 0.356879 0.656782
Si Si4 0.081372 0.696661 0.201937
Si Si5 0.298474 0.088014 0.263445
Si Si6 0.080660 0.411673 0.560250
Si Si7 0.079331 0.229612 0.672817
Si Si8 0.865514 0.915168 0.277531
O O1 0.686467 0.401103 0.500000
O O2 0.707921 0.500000 0.576917
O O3 0.748205 0.359996 0.597875
O O4 0.617894 0.392072 0.600560
O O5 0.794180 0.627252 0.298055
O O6 0.876991 0.609346 0.384979
O O7 0.850653 0.737508 0.357661
O O8 0.500000 0.365716 0.659616
O O9 0.600026 0.268463 0.663692
O O10 0.619044 0.396330 0.711665
O O11 0.140475 0.632326 0.202481
O O12 0.079934 0.729371 0.265979
O O13 0.000000 0.672477 0.189044
O O14 0.218930 0.094881 0.288057
O O15 0.314363 0.000000 0.257646
O O16 0.112940 0.385662 0.500000
O O17 0.078768 0.500000 0.557782
O O18 0.000000 0.384493 0.562847
O O19 0.090892 0.143583 0.686077
O O20 0.000000 0.242241 0.648127
O O21 0.884937 0.000000 0.288158
#
# Coordination Sequence:
#
# PCOD9518635 Si02
#       8
#    16  16  16  16  16  16  16  16
#     4  11  23  35  48  70  97 126 164 206 243 277
#     4  11  19  30  47  63  95 127 159 195 231 277
#     4  10  20  34  52  69  90 128 169 201 240 285
#     4   8  17  31  46  67  97 128 161 197 236 283
#     4  10  19  28  45  71  99 129 162 192 230 287
#     4   9  17  28  42  60  84 119 159 194 229 266
#     4   9  19  31  46  70  94 124 162 196 233 281
#     4  10  19  31  48  72  98 126 160 200 239 282
#
# _framework density 16.003754000000001
#
# number of rings (size 3 to 8) (size 9 to 14) (size 15 to 20)
#    0.000    2.250    1.250    3.750    1.750    5.250 
#    0.000    0.625    0.000    0.000    0.000    0.000 
#    0.000    3.500    0.000    8.875    0.000    0.000 
#
# Total GULP energy -356414.856359 kJ/mol
# GULP energy per Si atom -5568.982131 kJ/mol
# Density = 1.596733 g / cm^3
# Si number density = 16.003754 Si / 1000 Ang^3
#
#
#
# Elastic Constant Matrix: (Units=GPa)
#
#
# Indices 1 2 3 4 5 6 
#
# 1 70.1601 44.5936 13.9420 0.0000 0.0000 0.0000
# 2 44.5936 84.4641 17.2292 0.0000 0.0000 0.0000
# 3 13.9420 17.2292 35.7720 0.0000 0.0000 0.0000
# 4 0.0000 0.0000 0.0000 7.6386 0.0000 0.0000
# 5 0.0000 0.0000 0.0000 0.0000 3.8104 0.0000
# 6 0.0000 0.0000 0.0000 0.0000 0.0000 23.1704
#
#
#
# Elastic Compliance Matrix: (Units=1/GPa)
#
#
# Indices 1 2 3 4 5 6 
#
# 1 0.021792 -0.010838 -0.003274 0.000000 0.000000 0.000000
# 2 -0.010838 0.018519 -0.004696 0.000000 0.000000 0.000000
# 3 -0.003274 -0.004696 0.031492 0.000000 0.000000 0.000000
# 4 0.000000 0.000000 0.000000 0.130915 0.000000 0.000000
# 5 0.000000 0.000000 0.000000 0.000000 0.262437 0.000000
# 6 0.000000 0.000000 0.000000 0.000000 0.000000 0.043158
#
#
# Mechanical properties :
#
#
# Convention : Reuss Voigt Hill
#
# Bulk Modulus (GPa) = 29.24845 37.99176 33.62011
# Shear Modulus (GPa) = 8.97146 14.56598 11.76872
#
# Velocity S-wave (km/s) = 2.37024 3.02016 2.71472
# Velocity P-wave (km/s) = 5.08000 5.99605 5.55693
#
# Compressibility (1/GPa) = 0.03418984
#
# Stress axis : x y z
#
# Youngs Moduli (GPa) = 45.88858 53.99884 31.75389
#
# Poissons Ratio (x) = 0.58521 0.10395
# Poissons Ratio (y) = 0.49732 0.14910
# Poissons Ratio (z) = 0.15022 0.25355
#
# Static dielectric constant tensor:
#      x y z
#    x 1.575490 0.000000 0.000000 
#    y 0.000000 1.551430 0.000000 
#    z 0.000000 0.000000 1.467220 
# 
# From -- ./inp_files/60887.got.cif
#   From: 2010.05.17/outbox.cif.g08.bks.cpg/sg71_31_cif.got.tgz:60887.got - 2010.06.03 16:22:01.
