data_PCOD9518169
_publ_section_title
;
Structure prediction by ZEFSAII (Michael W. Deem and Ramdas Pophale) SiO2 
 PCOD9518169
Probable space group: I M M M
;
_chemical_formula_sum "Si O2"
_cell_formula_units_Z 92
_cell_length_a 30.491424
_cell_length_b 7.462119
_cell_length_c 20.576860
_cell_angle_alpha 90.000000
_cell_angle_beta 90.000000
_cell_angle_gamma 90.000000
_cell_volume 4681.866009
_symmetry_space_group_name_H-M "I M M M"
_symmetry_group_IT_number 71
_symmetry_cell_setting 'orthorhombic'
loop_
_space_group_symop_operation_xyz
x,y,z
-x,-y,z
x,-y,-z
-x,y,-z
-x,-y,-z
x,y,-z
-x,y,z
x,-y,z
1/2+x,1/2+y,1/2+z
1/2-x,1/2-y,1/2+z
1/2+x,1/2-y,1/2-z
1/2-x,1/2+y,1/2-z
1/2-x,1/2-y,1/2-z
1/2+x,1/2+y,1/2-z
1/2-x,1/2+y,1/2+z
1/2+x,1/2-y,1/2+z
loop_
_atom_site_type_symbol
_atom_site_label
_atom_site_fract_x
_atom_site_fract_y
_atom_site_fract_z
Si Si1 0.049788 0.711940 0.857782
Si Si2 0.950010 0.212906 0.000000
Si Si3 0.378288 0.219022 0.257415
Si Si4 0.726566 0.281919 0.925769
Si Si5 0.125906 0.707767 0.392668
Si Si6 0.784344 0.285883 0.192547
Si Si7 0.601132 0.500000 0.000000
O O1 0.046181 0.500000 0.846761
O O2 0.081975 0.782695 0.802613
O O3 0.000000 0.786420 0.856991
O O4 0.069190 0.733691 0.930499
O O5 0.000000 0.287193 0.000000
O O6 0.952116 0.000000 0.000000
O O7 0.382294 0.264928 0.181772
O O8 0.331941 0.282468 0.286677
O O9 0.377586 0.000000 0.259182
O O10 0.724562 0.500000 0.924431
O O11 0.678425 0.217493 0.904860
O O12 0.762850 0.219999 0.874393
O O13 0.735190 0.228409 0.000000
O O14 0.112251 0.500000 0.401104
O O15 0.104450 0.842801 0.443369
O O16 0.788439 0.500000 0.185807
O O17 0.750000 0.250000 0.250000
#
# Coordination Sequence:
#
# PCOD9518169 Si02
#       7
#    16   8  16  16  16  16   4
#     4   9  17  33  57  81 108 141 181 227 273 325
#     4   9  17  31  51  78 109 141 179 223 270 319
#     4   9  19  34  51  80 109 139 182 224 275 335
#     4  10  18  31  47  70 100 135 183 225 265 318
#     4  11  20  33  55  78 110 143 178 237 280 319
#     4  10  19  31  49  69 102 139 175 217 264 317
#     4  12  22  36  52  84 109 136 196 224 269 340
#
# _framework density 19.650285
#
# number of rings (size 3 to 8) (size 9 to 14) (size 15 to 20)
#    0.000    2.174    3.478    0.522    0.000    1.043 
#    3.130    0.000    0.000    0.000    0.000    1.217 
#    0.000    4.174    0.000    0.000    0.000    0.000 
#
# Total GULP energy -256150.939239 kJ/mol
# GULP energy per Si atom -5568.498679 kJ/mol
# Density = 1.960556 g / cm^3
# Si number density = 19.650285 Si / 1000 Ang^3
#
#
#
# Elastic Constant Matrix: (Units=GPa)
#
#
# Indices 1 2 3 4 5 6 
#
# 1 64.5167 6.2328 66.8076 0.0000 0.0000 0.0000
# 2 6.2328 81.8651 22.8070 0.0000 0.0000 0.0000
# 3 66.8076 22.8070 217.1369 0.0000 0.0000 0.0000
# 4 0.0000 0.0000 0.0000 7.4325 0.0000 0.0000
# 5 0.0000 0.0000 0.0000 0.0000 47.5383 0.0000
# 6 0.0000 0.0000 0.0000 0.0000 0.0000 8.0916
#
#
#
# Elastic Compliance Matrix: (Units=1/GPa)
#
#
# Indices 1 2 3 4 5 6 
#
# 1 0.022751 0.000225 -0.007024 0.000000 0.000000 0.000000
# 2 0.000225 0.012586 -0.001391 0.000000 0.000000 0.000000
# 3 -0.007024 -0.001391 0.006912 0.000000 0.000000 0.000000
# 4 0.000000 0.000000 0.000000 0.134545 0.000000 0.000000
# 5 0.000000 0.000000 0.000000 0.000000 0.021036 0.000000
# 6 0.000000 0.000000 0.000000 0.000000 0.000000 0.123585
#
#
# Mechanical properties :
#
#
# Convention : Reuss Voigt Hill
#
# Bulk Modulus (GPa) = 38.65600 61.69038 50.17319
# Shear Modulus (GPa) = 14.43347 30.45723 22.44535
#
# Velocity S-wave (km/s) = 2.71314 3.94123 3.38337
# Velocity P-wave (km/s) = 5.43411 7.22311 6.39151
#
# Compressibility (1/GPa) = 0.02586921
#
# Stress axis : x y z
#
# Youngs Moduli (GPa) = 43.95394 79.45554 144.66623
#
# Poissons Ratio (x) = -0.01784 1.01607
# Poissons Ratio (y) = -0.00987 0.20123
# Poissons Ratio (z) = 0.30871 0.11052
#
# Static dielectric constant tensor:
#      x y z
#    x 1.667680 0.000000 0.000000 
#    y 0.000000 1.778760 0.000000 
#    z 0.000000 0.000000 1.683990 
# 
# From -- ./inp_files/56165.got.cif
#   From: 2010.05.17/outbox.cif.g08.bks.cpg/sg71_29_cif.got.tgz:56165.got - 2010.06.03 16:22:01.
