data_PCOD9518625
_publ_section_title
;
Structure prediction by ZEFSAII (Michael W. Deem and Ramdas Pophale) SiO2 
 PCOD9518625
Probable space group: I M M M
;
_chemical_formula_sum "Si O2"
_cell_formula_units_Z 96
_cell_length_a 32.318057
_cell_length_b 9.773481
_cell_length_c 15.302295
_cell_angle_alpha 90.000000
_cell_angle_beta 90.000000
_cell_angle_gamma 90.000000
_cell_volume 4833.381614
_symmetry_space_group_name_H-M "I M M M"
_symmetry_group_IT_number 71
_symmetry_cell_setting 'orthorhombic'
loop_
_space_group_symop_operation_xyz
x,y,z
-x,-y,z
x,-y,-z
-x,y,-z
-x,-y,-z
x,y,-z
-x,y,z
x,-y,z
1/2+x,1/2+y,1/2+z
1/2-x,1/2-y,1/2+z
1/2+x,1/2-y,1/2-z
1/2-x,1/2+y,1/2-z
1/2-x,1/2-y,1/2-z
1/2+x,1/2+y,1/2-z
1/2-x,1/2+y,1/2+z
1/2+x,1/2-y,1/2+z
loop_
_atom_site_type_symbol
_atom_site_label
_atom_site_fract_x
_atom_site_fract_y
_atom_site_fract_z
Si Si1 0.620924 0.154918 0.153078
Si Si2 0.710862 0.165828 0.897976
Si Si3 0.046912 0.843538 0.137876
Si Si4 0.800733 0.843513 0.105253
Si Si5 0.546365 0.342194 0.148672
Si Si6 0.379234 0.154519 0.638841
O O1 0.667318 0.212519 0.141034
O O2 0.583994 0.248278 0.117607
O O3 0.614861 0.145001 0.256872
O O4 0.619490 0.000000 0.116550
O O5 0.755779 0.208603 0.862089
O O6 0.711658 0.000000 0.890800
O O7 0.709146 0.201641 0.000000
O O8 0.047146 0.841763 0.244557
O O9 0.081346 0.739100 0.105292
O O10 0.000000 0.810715 0.110868
O O11 0.056382 0.000000 0.111917
O O12 0.837962 0.742090 0.124596
O O13 0.808534 0.000000 0.136525
O O14 0.797073 0.851806 0.000000
O O15 0.500000 0.296741 0.122841
O O16 0.551661 0.500000 0.121675
O O17 0.376076 0.000000 0.604751
#
# Coordination Sequence:
#
# PCOD9518625 Si02
#       6
#    16  16  16  16  16  16
#     4   9  17  28  44  69  95 116 145 185 226 266
#     4   8  15  30  50  67  85 115 154 191 223 257
#     4   8  14  26  44  64  87 118 154 185 212 252
#     4   9  18  33  51  66  82 114 158 191 216 258
#     4   8  14  25  41  62  89 120 151 181 216 260
#     4  10  19  28  42  69 100 121 139 176 230 274
#
# _framework density 19.86187
#
# number of rings (size 3 to 8) (size 9 to 14) (size 15 to 20)
#    0.000    3.333    0.000    2.500    0.000    2.333 
#    0.000    4.167    0.000    2.500    0.000    7.000 
#    0.000    0.000    0.000    0.000    0.000    0.000 
#
# Total GULP energy -267396.287375 kJ/mol
# GULP energy per Si atom -5570.755987 kJ/mol
# Density = 1.981666 g / cm^3
# Si number density = 19.861870 Si / 1000 Ang^3
#
#
#
# Elastic Constant Matrix: (Units=GPa)
#
#
# Indices 1 2 3 4 5 6 
#
# 1 214.5830 120.6048 5.7958 0.0000 0.0000 0.0000
# 2 120.6048 105.7411 4.2425 0.0000 0.0000 0.0000
# 3 5.7958 4.2425 20.8894 0.0000 0.0000 0.0000
# 4 0.0000 0.0000 0.0000 -10.8856 0.0000 0.0000
# 5 0.0000 0.0000 0.0000 0.0000 56.5770 0.0000
# 6 0.0000 0.0000 0.0000 0.0000 0.0000 27.5409
#
#
#
# Elastic Compliance Matrix: (Units=1/GPa)
#
#
# Indices 1 2 3 4 5 6 
#
# 1 0.012990 -0.014792 -0.000600 0.000000 0.000000 0.000000
# 2 -0.014792 0.026379 -0.001253 0.000000 0.000000 0.000000
# 3 -0.000600 -0.001253 0.048292 0.000000 0.000000 0.000000
# 4 0.000000 0.000000 0.000000 -0.091864 0.000000 0.000000
# 5 0.000000 0.000000 0.000000 0.000000 0.017675 0.000000
# 6 0.000000 0.000000 0.000000 0.000000 0.000000 0.036310
#
#
# Mechanical properties :
#
#
# Convention : Reuss Voigt Hill
#
# Bulk Modulus (GPa) = 18.39238 66.94444 42.66841
# Shear Modulus (GPa) = 49.40925 28.68448 39.04687
#
# Velocity S-wave (km/s) = 4.99304 3.80438 4.43868
# Velocity P-wave (km/s) = 6.52080 7.28532 6.91364
#
# Compressibility (1/GPa) = 0.05437034
#
# Stress axis : x y z
#
# Youngs Moduli (GPa) = 76.98093 37.90924 20.70733
#
# Poissons Ratio (x) = 0.56076 0.01242
# Poissons Ratio (y) = 1.13871 0.02595
# Poissons Ratio (z) = 0.04619 0.04751
#
# Static dielectric constant tensor:
#      x y z
#    x 1.717650 0.000000 0.000000 
#    y 0.000000 1.689660 0.000000 
#    z 0.000000 0.000000 1.740640 
# 
# From -- ./inp_files/10981.got.cif
#   From: 2010.05.17/outbox.cif.g08.bks.cpg/sg71_6_cif.got.tgz:10981.got - 2010.06.03 16:22:01.
