data_PCOD9518868
_publ_section_title
;
Structure prediction by ZEFSAII (Michael W. Deem and Ramdas Pophale) SiO2 
 PCOD9518868
Probable space group: I M M M
;
_chemical_formula_sum "Si O2"
_cell_formula_units_Z 82
_cell_length_a 7.331658
_cell_length_b 18.500761
_cell_length_c 28.284854
_cell_angle_alpha 90.000000
_cell_angle_beta 90.000000
_cell_angle_gamma 90.000000
_cell_volume 3836.593020
_symmetry_space_group_name_H-M "I M M M"
_symmetry_group_IT_number 71
_symmetry_cell_setting 'orthorhombic'
loop_
_space_group_symop_operation_xyz
x,y,z
-x,-y,z
x,-y,-z
-x,y,-z
-x,-y,-z
x,y,-z
-x,y,z
x,-y,z
1/2+x,1/2+y,1/2+z
1/2-x,1/2-y,1/2+z
1/2+x,1/2-y,1/2-z
1/2-x,1/2+y,1/2-z
1/2-x,1/2-y,1/2-z
1/2+x,1/2+y,1/2-z
1/2-x,1/2+y,1/2+z
1/2+x,1/2-y,1/2+z
loop_
_atom_site_type_symbol
_atom_site_label
_atom_site_fract_x
_atom_site_fract_y
_atom_site_fract_z
Si Si1 0.201669 0.648090 0.500000
Si Si2 0.219634 0.416110 0.786562
Si Si3 0.000000 0.500000 0.500000
Si Si4 0.775510 0.696445 0.600696
Si Si5 0.777686 0.583794 0.319251
Si Si6 0.208828 0.858763 0.611977
Si Si7 0.777146 0.000000 0.555488
O O1 0.285760 0.669347 0.450500
O O2 0.000000 0.685876 0.500000
O O3 0.154861 0.563788 0.500000
O O4 0.271483 0.500000 0.791738
O O5 0.277748 0.393718 0.733895
O O6 0.289315 0.375281 0.832254
O O7 0.000000 0.412028 0.787894
O O8 0.717399 0.640831 0.641550
O O9 0.713040 0.778848 0.606096
O O10 0.000000 0.694511 0.602502
O O11 0.722113 0.500000 0.327669
O O12 0.000000 0.582594 0.319699
O O13 0.000000 0.853420 0.595431
O O14 0.285656 0.927659 0.583300
O O15 0.726804 0.000000 0.500000
O O16 0.000000 0.000000 0.557679
#
# Coordination Sequence:
#
# PCOD9518868 Si02
#       7
#     8  16   2  16  16  16   8
#     4   8  16  24  38  63  93 126 153 183 229 276
#     4   9  17  31  48  66  88 121 159 193 227 272
#     4   8  16  24  40  60  92 138 150 172 240 288
#     4   9  17  26  39  64  93 119 152 190 227 273
#     4   8  15  26  43  62  87 120 152 184 227 281
#     4  10  19  30  47  69  93 121 154 192 233 271
#     4   9  18  30  45  64  89 124 157 183 223 279
#
# _framework density 21.373128999999999
#
# number of rings (size 3 to 8) (size 9 to 14) (size 15 to 20)
#    0.293    2.829    0.976    1.171    2.732    0.780 
#    0.000    0.000    0.000    1.171    0.000    0.000 
#    0.000    0.000    0.000    0.878    0.000    1.561 
#
# Total GULP energy -228312.241091 kJ/mol
# GULP energy per Si atom -5568.591246 kJ/mol
# Density = 2.132448 g / cm^3
# Si number density = 21.373129 Si / 1000 Ang^3
#
#
#
# Elastic Constant Matrix: (Units=GPa)
#
#
# Indices 1 2 3 4 5 6 
#
# 1 76.7294 7.7808 -0.1907 0.0000 0.0000 0.0000
# 2 7.7808 188.7386 136.3243 0.0000 0.0000 0.0000
# 3 -0.1907 136.3243 197.7948 0.0000 0.0000 0.0000
# 4 0.0000 0.0000 0.0000 -0.7163 0.0000 0.0000
# 5 0.0000 0.0000 0.0000 0.0000 10.6659 0.0000
# 6 0.0000 0.0000 0.0000 0.0000 0.0000 -13.7287
#
#
#
# Elastic Compliance Matrix: (Units=1/GPa)
#
#
# Indices 1 2 3 4 5 6 
#
# 1 0.013146 -0.001097 0.000769 0.000000 0.000000 0.000000
# 2 -0.001097 0.010642 -0.007336 0.000000 0.000000 0.000000
# 3 0.000769 -0.007336 0.010113 0.000000 0.000000 0.000000
# 4 0.000000 0.000000 0.000000 -1.396120 0.000000 0.000000
# 5 0.000000 0.000000 0.000000 0.000000 0.093757 0.000000
# 6 0.000000 0.000000 0.000000 0.000000 0.000000 -0.072840
#
#
# Mechanical properties :
#
#
# Convention : Reuss Voigt Hill
#
# Bulk Modulus (GPa) = 53.84390 83.45463 68.64926
# Shear Modulus (GPa) = -3.78850 20.53408 8.37279
#
# Velocity S-wave (km/s) = -1.33282 3.10295 1.98140
# Velocity P-wave (km/s) = 4.78315 7.20895 6.11749
#
# Compressibility (1/GPa) = 0.01857221
#
# Stress axis : x y z
#
# Youngs Moduli (GPa) = 76.06875 93.96512 98.88697
#
# Poissons Ratio (x) = 0.10312 -0.07605
# Poissons Ratio (y) = 0.08348 0.72543
# Poissons Ratio (z) = -0.05850 0.68932
#
# Static dielectric constant tensor:
#      x y z
#    x 1.868400 0.000000 0.000000 
#    y 0.000000 1.729800 0.000000 
#    z 0.000000 0.000000 1.750200 
# 
# From -- ./inp_files/64565.got.cif
#   From: 2010.05.17/outbox.cif.g08.bks.cpg/sg71_33_cif.got.tgz:64565.got - 2010.06.03 16:22:01.
