data_PCOD9518219
_publ_section_title
;
Structure prediction by ZEFSAII (Michael W. Deem and Ramdas Pophale) SiO2 
 PCOD9518219
Probable space group: I M M M
;
_chemical_formula_sum "Si O2"
_cell_formula_units_Z 104
_cell_length_a 33.527699
_cell_length_b 19.054778
_cell_length_c 7.309950
_cell_angle_alpha 90.000000
_cell_angle_beta 90.000000
_cell_angle_gamma 90.000000
_cell_volume 4670.055573
_symmetry_space_group_name_H-M "I M M M"
_symmetry_group_IT_number 71
_symmetry_cell_setting 'orthorhombic'
loop_
_space_group_symop_operation_xyz
x,y,z
-x,-y,z
x,-y,-z
-x,y,-z
-x,-y,-z
x,y,-z
-x,y,z
x,-y,z
1/2+x,1/2+y,1/2+z
1/2-x,1/2-y,1/2+z
1/2+x,1/2-y,1/2-z
1/2-x,1/2+y,1/2-z
1/2-x,1/2-y,1/2-z
1/2+x,1/2+y,1/2-z
1/2-x,1/2+y,1/2+z
1/2+x,1/2-y,1/2+z
loop_
_atom_site_type_symbol
_atom_site_label
_atom_site_fract_x
_atom_site_fract_y
_atom_site_fract_z
Si Si1 0.045439 0.174759 0.277331
Si Si2 0.258641 0.078155 0.780625
Si Si3 0.813965 0.818663 0.283992
Si Si4 0.833414 0.662560 0.723507
Si Si5 0.500000 0.080689 0.223146
Si Si6 0.883615 0.079309 0.723418
Si Si7 0.924111 0.672047 0.722740
O O1 0.044770 0.175425 0.500000
O O2 0.074015 0.111518 0.222003
O O3 0.064760 0.248777 0.222073
O O4 0.000000 0.169489 0.215523
O O5 0.226922 0.139076 0.738962
O O6 0.317258 0.239110 0.715498
O O7 0.302108 0.103616 0.717350
O O8 0.259790 0.074167 0.000000
O O9 0.821047 0.812173 0.500000
O O10 0.849124 0.868374 0.212348
O O11 0.833411 0.661610 0.500000
O O12 0.747703 0.500000 0.786955
O O13 0.879283 0.653557 0.781085
O O14 0.459909 0.121133 0.281140
O O15 0.500000 0.000000 0.280147
O O16 0.500000 0.082066 0.000000
O O17 0.882552 0.078760 0.500000
O O18 0.877319 0.000000 0.784209
O O19 0.923928 0.671138 0.500000
#
# Coordination Sequence:
#
# PCOD9518219 Si02
#       7
#    16  16  16  16   8  16  16
#     4   9  14  21  34  51  77 113 143 169 210 263
#     4  10  21  34  46  65  94 123 151 187 232 279
#     4  10  18  31  51  70  88 117 157 195 230 270
#     4   9  17  29  46  64  84 116 156 191 227 275
#     4   9  16  22  32  54  81 113 156 195 219 255
#     4   9  16  24  36  58  84 109 142 181 219 262
#     4   9  14  23  37  53  77 110 147 183 220 262
#
# _framework density 22.269542000000001
#
# number of rings (size 3 to 8) (size 9 to 14) (size 15 to 20)
#    0.000    2.692    2.308    0.923    0.000    1.846 
#    0.000    4.615    0.000    0.000    0.000    0.000 
#    0.000    0.615    0.000    5.615    1.231   11.462 
#
# Total GULP energy -290503.579937 kJ/mol
# GULP energy per Si atom -5586.607306 kJ/mol
# Density = 2.221886 g / cm^3
# Si number density = 22.269542 Si / 1000 Ang^3
#
#
#
# Elastic Constant Matrix: (Units=GPa)
#
#
# Indices 1 2 3 4 5 6 
#
# 1 122.3048 13.0759 -10.5888 0.0000 0.0000 0.0000
# 2 13.0759 83.5818 -4.1864 0.0000 0.0000 0.0000
# 3 -10.5888 -4.1864 87.2909 0.0000 0.0000 0.0000
# 4 0.0000 0.0000 0.0000 -7.0505 0.0000 0.0000
# 5 0.0000 0.0000 0.0000 0.0000 -8.9788 0.0000
# 6 0.0000 0.0000 0.0000 0.0000 0.0000 20.9273
#
#
#
# Elastic Compliance Matrix: (Units=1/GPa)
#
#
# Indices 1 2 3 4 5 6 
#
# 1 0.008394 -0.001265 0.000958 0.000000 0.000000 0.000000
# 2 -0.001265 0.012184 0.000431 0.000000 0.000000 0.000000
# 3 0.000958 0.000431 0.011593 0.000000 0.000000 0.000000
# 4 0.000000 0.000000 0.000000 -0.141834 0.000000 0.000000
# 5 0.000000 0.000000 0.000000 0.000000 -0.111374 0.000000
# 6 0.000000 0.000000 0.000000 0.000000 0.000000 0.047784
#
#
# Mechanical properties :
#
#
# Convention : Reuss Voigt Hill
#
# Bulk Modulus (GPa) = 30.84762 32.19764 31.52263
# Shear Modulus (GPa) = -30.73290 20.63805 -5.04742
#
# Velocity S-wave (km/s) = -3.71892 3.04754 -1.50713
# Velocity P-wave (km/s) = 2.13506 5.18391 3.34024
#
# Compressibility (1/GPa) = 0.03241741
#
# Stress axis : x y z
#
# Youngs Moduli (GPa) = 119.12591 82.07580 86.26060
#
# Poissons Ratio (x) = 0.10385 -0.08260
# Poissons Ratio (y) = 0.15073 -0.03716
# Poissons Ratio (z) = -0.11408 -0.03536
#
# Static dielectric constant tensor:
#      x y z
#    x 1.782700 0.000000 0.000000 
#    y 0.000000 1.792660 0.000000 
#    z 0.000000 0.000000 1.975120 
# 
# From -- ./inp_files/30181.got.cif
#   From: 2010.05.17/outbox.cif.g08.bks.cpg/sg71_16_cif.got.tgz:30181.got - 2010.06.03 16:22:01.
