data_PCOD9518551
_publ_section_title
;
Structure prediction by ZEFSAII (Michael W. Deem and Ramdas Pophale) SiO2 
 PCOD9518551
Probable space group: I M M M
;
_chemical_formula_sum "Si O2"
_cell_formula_units_Z 80
_cell_length_a 19.464345
_cell_length_b 7.599943
_cell_length_c 24.123948
_cell_angle_alpha 90.000000
_cell_angle_beta 90.000000
_cell_angle_gamma 90.000000
_cell_volume 3568.605270
_symmetry_space_group_name_H-M "I M M M"
_symmetry_group_IT_number 71
_symmetry_cell_setting 'orthorhombic'
loop_
_space_group_symop_operation_xyz
x,y,z
-x,-y,z
x,-y,-z
-x,y,-z
-x,-y,-z
x,y,-z
-x,y,z
x,-y,z
1/2+x,1/2+y,1/2+z
1/2-x,1/2-y,1/2+z
1/2+x,1/2-y,1/2-z
1/2-x,1/2+y,1/2-z
1/2-x,1/2-y,1/2-z
1/2+x,1/2+y,1/2-z
1/2-x,1/2+y,1/2+z
1/2+x,1/2-y,1/2+z
loop_
_atom_site_type_symbol
_atom_site_label
_atom_site_fract_x
_atom_site_fract_y
_atom_site_fract_z
Si Si1 0.422260 0.209164 0.792952
Si Si2 0.879363 0.709582 0.000000
Si Si3 0.925876 0.288787 0.880723
Si Si4 0.188083 0.283529 0.623963
Si Si5 0.777621 0.298517 0.500000
Si Si6 0.312942 0.306771 0.698057
O O1 0.500000 0.279853 0.783580
O O2 0.384807 0.268758 0.849513
O O3 0.364736 0.235727 0.744983
O O4 0.429292 0.000000 0.796823
O O5 0.921669 0.748373 0.054612
O O6 0.805023 0.796495 0.000000
O O7 0.865693 0.500000 0.000000
O O8 0.916811 0.500000 0.872387
O O9 0.864395 0.188489 0.853282
O O10 0.000000 0.241226 0.857346
O O11 0.193204 0.500000 0.623350
O O12 0.200453 0.223430 0.560494
O O13 0.246110 0.222236 0.668807
O O14 0.802863 0.500000 0.500000
O O15 0.290625 0.500000 0.717196
#
# Coordination Sequence:
#
# PCOD9518551 Si02
#       6
#    16   8  16  16   8  16
#     4  10  21  38  57  78 107 142 180 222 269 318
#     4  10  19  32  50  73 103 138 182 224 259 308
#     4  10  20  33  49  72 106 146 182 218 261 310
#     4   9  19  35  57  82 107 139 176 219 268 319
#     4  10  18  35  58  79 108 139 172 218 272 320
#     4  11  21  34  54  80 109 141 178 218 262 316
#
# _framework density 22.417722999999999
#
# number of rings (size 3 to 8) (size 9 to 14) (size 15 to 20)
#    0.000    2.000    2.000    2.100    0.000    4.400 
#    0.000    2.500    0.000    4.800    0.000    0.000 
#    0.000    2.400    0.000    0.000    0.000    0.000 
#
# Total GULP energy -222963.188443 kJ/mol
# GULP energy per Si atom -5574.079711 kJ/mol
# Density = 2.236670 g / cm^3
# Si number density = 22.417723 Si / 1000 Ang^3
#
#
#
# Elastic Constant Matrix: (Units=GPa)
#
#
# Indices 1 2 3 4 5 6 
#
# 1 125.0427 15.7008 90.9555 0.0000 0.0000 0.0000
# 2 15.7008 31.2326 17.2026 0.0000 0.0000 0.0000
# 3 90.9555 17.2026 127.4478 0.0000 0.0000 0.0000
# 4 0.0000 0.0000 0.0000 17.6515 0.0000 0.0000
# 5 0.0000 0.0000 0.0000 0.0000 383.5577 0.0000
# 6 0.0000 0.0000 0.0000 0.0000 0.0000 8.9779
#
#
#
# Elastic Compliance Matrix: (Units=1/GPa)
#
#
# Indices 1 2 3 4 5 6 
#
# 1 0.016743 -0.001983 -0.011682 0.000000 0.000000 0.000000
# 2 -0.001983 0.034824 -0.003285 0.000000 0.000000 0.000000
# 3 -0.011682 -0.003285 0.016627 0.000000 0.000000 0.000000
# 4 0.000000 0.000000 0.000000 0.056652 0.000000 0.000000
# 5 0.000000 0.000000 0.000000 0.000000 0.002607 0.000000
# 6 0.000000 0.000000 0.000000 0.000000 0.000000 0.111384
#
#
# Mechanical properties :
#
#
# Convention : Reuss Voigt Hill
#
# Bulk Modulus (GPa) = 29.15922 59.04898 44.10410
# Shear Modulus (GPa) = 17.59517 92.69505 55.14511
#
# Velocity S-wave (km/s) = 2.80461 6.43730 4.96511
# Velocity P-wave (km/s) = 4.85007 9.03599 7.25163
#
# Compressibility (1/GPa) = 0.03429447
#
# Stress axis : x y z
#
# Youngs Moduli (GPa) = 59.72512 28.71570 60.14468
#
# Poissons Ratio (x) = 0.05694 0.70258
# Poissons Ratio (y) = 0.11843 0.19760
# Poissons Ratio (z) = 0.69768 0.09434
#
# Static dielectric constant tensor:
#      x y z
#    x 1.809080 0.000000 0.000000 
#    y 0.000000 1.935440 0.000000 
#    z 0.000000 0.000000 1.863720 
# 
# From -- ./inp_files/10250.got.cif
#   From: 2010.05.17/outbox.cif.g08.bks.cpg/sg71_6_cif.got.tgz:10250.got - 2010.06.03 16:22:01.
