data_PCOD9518632
_publ_section_title
;
Structure prediction by ZEFSAII (Michael W. Deem and Ramdas Pophale) SiO2 
 PCOD9518632
Probable space group: I M M M
;
_chemical_formula_sum "Si O2"
_cell_formula_units_Z 88
_cell_length_a 30.238819
_cell_length_b 17.703678
_cell_length_c 7.304173
_cell_angle_alpha 90.000000
_cell_angle_beta 90.000000
_cell_angle_gamma 90.000000
_cell_volume 3910.203664
_symmetry_space_group_name_H-M "I M M M"
_symmetry_group_IT_number 71
_symmetry_cell_setting 'orthorhombic'
loop_
_space_group_symop_operation_xyz
x,y,z
-x,-y,z
x,-y,-z
-x,y,-z
-x,-y,-z
x,y,-z
-x,y,z
x,-y,z
1/2+x,1/2+y,1/2+z
1/2-x,1/2-y,1/2+z
1/2+x,1/2-y,1/2-z
1/2-x,1/2+y,1/2-z
1/2-x,1/2-y,1/2-z
1/2+x,1/2+y,1/2-z
1/2-x,1/2+y,1/2+z
1/2+x,1/2-y,1/2+z
loop_
_atom_site_type_symbol
_atom_site_label
_atom_site_fract_x
_atom_site_fract_y
_atom_site_fract_z
Si Si1 0.088037 0.679979 0.224410
Si Si2 0.185034 0.682048 0.789622
Si Si3 0.568289 0.500000 0.292548
Si Si4 0.169853 0.000000 0.278333
Si Si5 0.783062 0.846446 0.722059
Si Si6 0.550179 0.334849 0.719656
Si Si7 0.000000 0.411989 0.777148
O O1 0.137402 0.657397 0.285644
O O2 0.080572 0.766770 0.284455
O O3 0.045480 0.630235 0.279816
O O4 0.088195 0.679505 0.000000
O O5 0.189916 0.773143 0.785723
O O6 0.232273 0.656621 0.711027
O O7 0.185173 0.656261 0.000000
O O8 0.550041 0.500000 0.500000
O O9 0.620834 0.500000 0.296465
O O10 0.555426 0.580366 0.207757
O O11 0.194566 0.924083 0.222806
O O12 0.167176 0.000000 0.500000
O O13 0.782367 0.842206 0.500000
O O14 0.557196 0.340352 0.500000
O O15 0.500000 0.309787 0.750102
O O16 0.000000 0.500000 0.722889
O O17 0.000000 0.409611 0.000000
#
# Coordination Sequence:
#
# PCOD9518632 Si02
#       7
#    16  16   8   8  16  16   8
#     4   9  15  25  41  62  89 119 147 182 227 270
#     4   9  17  30  49  71  91 117 154 192 227 268
#     4  10  19  28  44  70  90 116 157 193 219 255
#     4  10  20  33  45  61  92 129 154 180 228 279
#     4   9  18  32  47  65  93 125 155 188 228 272
#     4   9  15  24  39  61  91 117 142 181 227 267
#     4   9  16  26  38  59  94 126 147 175 227 283
#
# _framework density 22.505222
#
# number of rings (size 3 to 8) (size 9 to 14) (size 15 to 20)
#    0.000    2.818    0.909    1.364    0.000    3.273 
#    1.636    0.000    0.000    1.091    0.000    0.636 
#    0.000    0.727    0.000    0.000    0.000    0.000 
#
# Total GULP energy -245570.667116 kJ/mol
# GULP energy per Si atom -5581.151525 kJ/mol
# Density = 2.245400 g / cm^3
# Si number density = 22.505222 Si / 1000 Ang^3
#
#
#
# Elastic Constant Matrix: (Units=GPa)
#
#
# Indices 1 2 3 4 5 6 
#
# 1 165.3279 45.8314 5.0227 0.0000 0.0000 0.0000
# 2 45.8314 63.5739 -6.0481 0.0000 0.0000 0.0000
# 3 5.0227 -6.0481 91.5554 0.0000 0.0000 0.0000
# 4 0.0000 0.0000 0.0000 12.1647 0.0000 0.0000
# 5 0.0000 0.0000 0.0000 0.0000 -6.0179 0.0000
# 6 0.0000 0.0000 0.0000 0.0000 0.0000 21.7565
#
#
#
# Elastic Compliance Matrix: (Units=1/GPa)
#
#
# Indices 1 2 3 4 5 6 
#
# 1 0.007615 -0.005564 -0.000785 0.000000 0.000000 0.000000
# 2 -0.005564 0.019895 0.001620 0.000000 0.000000 0.000000
# 3 -0.000785 0.001620 0.011072 0.000000 0.000000 0.000000
# 4 0.000000 0.000000 0.000000 0.082205 0.000000 0.000000
# 5 0.000000 0.000000 0.000000 0.000000 -0.166172 0.000000
# 6 0.000000 0.000000 0.000000 0.000000 0.000000 0.045963
#
#
# Mechanical properties :
#
#
# Convention : Reuss Voigt Hill
#
# Bulk Modulus (GPa) = 34.33814 45.56327 39.95070
# Shear Modulus (GPa) = 253.20048 23.95741 138.57894
#
# Velocity S-wave (km/s) = 10.61846 3.26625 7.85557
# Velocity P-wave (km/s) = 12.86960 5.87487 10.00352
#
# Compressibility (1/GPa) = 0.02912214
#
# Stress axis : x y z
#
# Youngs Moduli (GPa) = 131.31969 50.26312 90.31452
#
# Poissons Ratio (x) = 0.27969 0.07093
# Poissons Ratio (y) = 0.73073 -0.14627
# Poissons Ratio (z) = 0.10313 -0.08140
#
# Static dielectric constant tensor:
#      x y z
#    x 1.806110 0.000000 0.000000 
#    y 0.000000 1.796740 0.000000 
#    z 0.000000 0.000000 1.881460 
# 
# From -- ./inp_files/16757.got.cif
#   From: 2010.05.17/outbox.cif.g08.bks.cpg/sg71_9_cif.got.tgz:16757.got - 2010.06.03 16:22:01.
