data_PCOD9518564
_publ_section_title
;
Structure prediction by ZEFSAII (Michael W. Deem and Ramdas Pophale) SiO2 
 PCOD9518564
Probable space group: I M M M
;
_chemical_formula_sum "Si O2"
_cell_formula_units_Z 88
_cell_length_a 11.817700
_cell_length_b 19.149000
_cell_length_c 19.380705
_cell_angle_alpha 90.000000
_cell_angle_beta 90.000000
_cell_angle_gamma 90.000000
_cell_volume 4385.798060
_symmetry_space_group_name_H-M "I M M M"
_symmetry_group_IT_number 71
_symmetry_cell_setting 'orthorhombic'
loop_
_space_group_symop_operation_xyz
x,y,z
-x,-y,z
x,-y,-z
-x,y,-z
-x,-y,-z
x,y,-z
-x,y,z
x,-y,z
1/2+x,1/2+y,1/2+z
1/2-x,1/2-y,1/2+z
1/2+x,1/2-y,1/2-z
1/2-x,1/2+y,1/2-z
1/2-x,1/2-y,1/2-z
1/2+x,1/2+y,1/2-z
1/2-x,1/2+y,1/2+z
1/2+x,1/2-y,1/2+z
loop_
_atom_site_type_symbol
_atom_site_label
_atom_site_fract_x
_atom_site_fract_y
_atom_site_fract_z
Si Si1 0.793439 0.577918 0.226807
Si Si2 0.369681 0.918639 0.883341
Si Si3 0.240997 0.213328 0.080283
Si Si4 0.362472 0.420106 0.000000
Si Si5 0.500000 0.922557 0.379950
Si Si6 0.133609 0.162773 0.360853
Si Si7 0.000000 0.735808 0.920695
O O1 0.742026 0.500000 0.225839
O O2 0.850115 0.587854 0.301042
O O3 0.891084 0.579823 0.169535
O O4 0.700159 0.633373 0.204565
O O5 0.500000 0.900109 0.900619
O O6 0.279209 0.866519 0.915900
O O7 0.353393 0.000000 0.901759
O O8 0.331216 0.258530 0.122612
O O9 0.116794 0.233296 0.108708
O O10 0.245649 0.235417 0.000000
O O11 0.329005 0.381368 0.929330
O O12 0.321918 0.500000 0.000000
O O13 0.500000 0.420554 0.000000
O O14 0.500000 0.848631 0.419098
O O15 0.500000 0.000000 0.414542
O O16 0.000000 0.155357 0.353144
O O17 0.000000 0.759103 0.000000
#
# Coordination Sequence:
#
# PCOD9518564 Si02
#       7
#    16  16  16   8   8  16   8
#     4  10  20  37  59  85 121 159 199 246 292 350
#     4  10  22  42  67  91 115 149 197 253 310 361
#     4  11  23  41  63  87 120 155 194 249 305 362
#     4   9  18  32  50  75 116 164 199 231 279 340
#     4  10  18  35  62  85 114 162 206 241 287 341
#     4  11  21  34  55  87 123 161 201 241 295 350
#     4  10  22  41  59  86 124 158 196 243 295 353
#
# _framework density 20.064762999999999
#
# number of rings (size 3 to 8) (size 9 to 14) (size 15 to 20)
#    0.000    1.727    3.636    1.091    0.000    3.455 
#    1.636    1.364    0.000    1.636    0.000    0.000 
#    0.000    0.000    0.000    0.000    0.000    0.000 
#
# Total GULP energy -245600.331788 kJ/mol
# GULP energy per Si atom -5581.825722 kJ/mol
# Density = 2.001909 g / cm^3
# Si number density = 20.064763 Si / 1000 Ang^3
#
#
#
# Elastic Constant Matrix: (Units=GPa)
#
#
# Indices 1 2 3 4 5 6 
#
# 1 95.1041 47.4820 7.6658 0.0000 0.0000 0.0000
# 2 47.4820 95.9239 2.1115 0.0000 0.0000 0.0000
# 3 7.6658 2.1115 14.3243 0.0000 0.0000 0.0000
# 4 0.0000 0.0000 0.0000 13.5394 0.0000 0.0000
# 5 0.0000 0.0000 0.0000 0.0000 -1.6322 0.0000
# 6 0.0000 0.0000 0.0000 0.0000 0.0000 28.7732
#
#
#
# Elastic Compliance Matrix: (Units=1/GPa)
#
#
# Indices 1 2 3 4 5 6 
#
# 1 0.014592 -0.007074 -0.006766 0.000000 0.000000 0.000000
# 2 -0.007074 0.013888 0.001739 0.000000 0.000000 0.000000
# 3 -0.006766 0.001739 0.073176 0.000000 0.000000 0.000000
# 4 0.000000 0.000000 0.000000 0.073858 0.000000 0.000000
# 5 0.000000 0.000000 0.000000 0.000000 -0.612689 0.000000
# 6 0.000000 0.000000 0.000000 0.000000 0.000000 0.034755
#
#
# Mechanical properties :
#
#
# Convention : Reuss Voigt Hill
#
# Bulk Modulus (GPa) = 12.91111 35.54121 24.22616
# Shear Modulus (GPa) = -14.18849 18.00898 1.91024
#
# Velocity S-wave (km/s) = -2.66209 2.99915 0.97678
# Velocity P-wave (km/s) = 1.73212 5.45389 3.65682
#
# Compressibility (1/GPa) = 0.07745269
#
# Stress axis : x y z
#
# Youngs Moduli (GPa) = 68.53075 72.00316 13.66567
#
# Poissons Ratio (x) = 0.50935 0.09247
# Poissons Ratio (y) = 0.48479 -0.02376
# Poissons Ratio (z) = 0.46370 -0.12518
#
# Static dielectric constant tensor:
#      x y z
#    x 1.701420 0.000000 0.000000 
#    y 0.000000 1.721700 0.000000 
#    z 0.000000 0.000000 1.711430 
# 
# From -- ./inp_files/43372.got.cif
#   From: 2010.05.17/outbox.cif.g08.bks.cpg/sg71_22_cif.got.tgz:43372.got - 2010.06.03 16:22:01.
