data_PCOD9518148
_publ_section_title
;
Structure prediction by ZEFSAII (Michael W. Deem and Ramdas Pophale) SiO2 
 PCOD9518148
Probable space group: I M M M
;
_chemical_formula_sum "Si O2"
_cell_formula_units_Z 88
_cell_length_a 7.551870
_cell_length_b 20.148317
_cell_length_c 29.363230
_cell_angle_alpha 90.000000
_cell_angle_beta 90.000000
_cell_angle_gamma 90.000000
_cell_volume 4467.834808
_symmetry_space_group_name_H-M "I M M M"
_symmetry_group_IT_number 71
_symmetry_cell_setting 'orthorhombic'
loop_
_space_group_symop_operation_xyz
x,y,z
-x,-y,z
x,-y,-z
-x,y,-z
-x,-y,-z
x,y,-z
-x,y,z
x,-y,z
1/2+x,1/2+y,1/2+z
1/2-x,1/2-y,1/2+z
1/2+x,1/2-y,1/2-z
1/2-x,1/2+y,1/2-z
1/2-x,1/2-y,1/2-z
1/2+x,1/2+y,1/2-z
1/2-x,1/2+y,1/2+z
1/2+x,1/2-y,1/2+z
loop_
_atom_site_type_symbol
_atom_site_label
_atom_site_fract_x
_atom_site_fract_y
_atom_site_fract_z
Si Si1 0.284204 0.818137 0.947873
Si Si2 0.206168 0.312318 0.812079
Si Si3 0.216440 0.575817 0.627601
Si Si4 0.800591 0.827473 0.413639
Si Si5 0.215005 0.338831 0.713202
Si Si6 0.500000 0.074980 0.445667
O O1 0.500000 0.819374 0.947399
O O2 0.225335 0.874954 0.912793
O O3 0.234159 0.744979 0.930172
O O4 0.227009 0.828252 0.000000
O O5 0.301871 0.327307 0.858926
O O6 0.271832 0.347004 0.765645
O O7 0.221874 0.233530 0.802859
O O8 0.000000 0.329228 0.818494
O O9 0.274255 0.500000 0.621886
O O10 0.270107 0.607033 0.676152
O O11 0.000000 0.575885 0.627085
O O12 0.670775 0.884236 0.430068
O O13 0.000000 0.836084 0.431213
O O14 0.000000 0.336492 0.713549
O O15 0.500000 0.072790 0.500000
O O16 0.500000 0.000000 0.427654
#
# Coordination Sequence:
#
# PCOD9518148 Si02
#       6
#    16  16  16  16  16   8
#     4   9  17  29  49  79 111 146 192 240 284 336
#     4  10  18  30  53  83 114 147 197 250 298 348
#     4   9  16  27  45  72 110 153 193 237 290 344
#     4  11  21  38  64  91 120 155 194 242 297 353
#     4   9  17  30  49  77 113 151 197 248 300 353
#     4  11  26  46  66  92 123 151 189 239 299 375
#
# _framework density 19.696342999999999
#
# number of rings (size 3 to 8) (size 9 to 14) (size 15 to 20)
#    0.000    2.273    2.727    1.091    0.000    2.545 
#    0.000    3.636    0.000    0.545    0.000    0.000 
#    0.000    3.636    0.000    0.182    0.000    0.000 
#
# Total GULP energy -245676.961350 kJ/mol
# GULP energy per Si atom -5583.567303 kJ/mol
# Density = 1.965151 g / cm^3
# Si number density = 19.696343 Si / 1000 Ang^3
#
#
#
# Elastic Constant Matrix: (Units=GPa)
#
#
# Indices 1 2 3 4 5 6 
#
# 1 61.7520 31.3350 13.7202 0.0000 0.0000 0.0000
# 2 31.3350 158.7670 77.9567 0.0000 0.0000 0.0000
# 3 13.7202 77.9567 137.0062 0.0000 0.0000 0.0000
# 4 0.0000 0.0000 0.0000 19.5413 0.0000 0.0000
# 5 0.0000 0.0000 0.0000 0.0000 8.2712 0.0000
# 6 0.0000 0.0000 0.0000 0.0000 0.0000 6.6375
#
#
#
# Elastic Compliance Matrix: (Units=1/GPa)
#
#
# Indices 1 2 3 4 5 6 
#
# 1 0.018005 -0.003703 0.000304 0.000000 0.000000 0.000000
# 2 -0.003703 0.009502 -0.005036 0.000000 0.000000 0.000000
# 3 0.000304 -0.005036 0.010134 0.000000 0.000000 0.000000
# 4 0.000000 0.000000 0.000000 0.051174 0.000000 0.000000
# 5 0.000000 0.000000 0.000000 0.000000 0.120902 0.000000
# 6 0.000000 0.000000 0.000000 0.000000 0.000000 0.150659
#
#
# Mechanical properties :
#
#
# Convention : Reuss Voigt Hill
#
# Bulk Modulus (GPa) = 48.14293 67.06101 57.60197
# Shear Modulus (GPa) = 13.01511 22.52422 17.76966
#
# Velocity S-wave (km/s) = 2.57337 3.38535 3.00689
# Velocity P-wave (km/s) = 5.77280 7.02866 6.43146
#
# Compressibility (1/GPa) = 0.02077148
#
# Stress axis : x y z
#
# Youngs Moduli (GPa) = 55.53949 105.24099 98.67849
#
# Poissons Ratio (x) = 0.38968 -0.02998
# Poissons Ratio (y) = 0.20565 0.49693
# Poissons Ratio (z) = -0.01687 0.52998
#
# Static dielectric constant tensor:
#      x y z
#    x 1.739780 0.000000 0.000000 
#    y 0.000000 1.643650 0.000000 
#    z 0.000000 0.000000 1.695280 
# 
# From -- ./inp_files/68011.got.cif
#   From: 2010.05.17/outbox.cif.g08.bks.cpg/sg71_35_cif.got.tgz:68011.got - 2010.06.03 16:22:01.
