data_PCOD9518095
_publ_section_title
;
Structure prediction by ZEFSAII (Michael W. Deem and Ramdas Pophale) SiO2 
 PCOD9518095
Probable space group: I M M M
;
_chemical_formula_sum "Si O2"
_cell_formula_units_Z 88
_cell_length_a 13.680316
_cell_length_b 11.885272
_cell_length_c 29.124733
_cell_angle_alpha 90.000000
_cell_angle_beta 90.000000
_cell_angle_gamma 90.000000
_cell_volume 4735.514896
_symmetry_space_group_name_H-M "I M M M"
_symmetry_group_IT_number 71
_symmetry_cell_setting 'orthorhombic'
loop_
_space_group_symop_operation_xyz
x,y,z
-x,-y,z
x,-y,-z
-x,y,-z
-x,-y,-z
x,y,-z
-x,y,z
x,-y,z
1/2+x,1/2+y,1/2+z
1/2-x,1/2-y,1/2+z
1/2+x,1/2-y,1/2-z
1/2-x,1/2+y,1/2-z
1/2-x,1/2-y,1/2-z
1/2+x,1/2+y,1/2-z
1/2-x,1/2+y,1/2+z
1/2+x,1/2-y,1/2+z
loop_
_atom_site_type_symbol
_atom_site_label
_atom_site_fract_x
_atom_site_fract_y
_atom_site_fract_z
Si Si1 0.712620 0.865322 0.095563
Si Si2 0.117911 0.721485 0.313194
Si Si3 0.881078 0.500000 0.848392
Si Si4 0.118884 0.500000 0.256722
Si Si5 0.618783 0.372311 0.268794
Si Si6 0.616981 0.749620 0.636151
Si Si7 0.111942 0.636272 0.500000
O O1 0.659950 0.796784 0.136378
O O2 0.825207 0.830530 0.101577
O O3 0.667963 0.832915 0.046551
O O4 0.699179 0.000000 0.102324
O O5 0.146341 0.611286 0.284002
O O6 0.149698 0.824061 0.280552
O O7 0.000000 0.724623 0.316715
O O8 0.848173 0.500000 0.795540
O O9 0.852760 0.380086 0.869657
O O10 0.000000 0.500000 0.848015
O O11 0.000000 0.500000 0.255081
O O12 0.500000 0.373102 0.267694
O O13 0.651494 0.500000 0.276633
O O14 0.642495 0.292882 0.312116
O O15 0.500000 0.741120 0.631482
O O16 0.108248 0.500000 0.500000
O O17 0.000000 0.677085 0.500000
#
# Coordination Sequence:
#
# PCOD9518095 Si02
#       7
#    16  16   8   8  16  16   8
#     4  11  22  35  55  83 107 135 178 222 274 330
#     4  10  18  30  50  76 107 144 184 224 263 311
#     4   9  16  32  54  75 105 147 187 219 257 304
#     4   9  14  26  48  71 102 141 182 225 260 298
#     4   9  17  30  47  72 112 154 183 214 262 314
#     4  10  20  35  54  77 110 148 181 217 260 310
#     4   9  20  40  63  86 111 134 165 220 279 323
#
# _framework density 18.582985999999998
#
# number of rings (size 3 to 8) (size 9 to 14) (size 15 to 20)
#    0.000    2.273    2.727    1.091    0.000    2.545 
#    1.636    0.455    0.000    2.182    0.000    2.545 
#    0.000    0.000    0.000    0.000    0.000    0.000 
#
# Total GULP energy -245640.805059 kJ/mol
# GULP energy per Si atom -5582.745570 kJ/mol
# Density = 1.854069 g / cm^3
# Si number density = 18.582986 Si / 1000 Ang^3
#
#
#
# Elastic Constant Matrix: (Units=GPa)
#
#
# Indices 1 2 3 4 5 6 
#
# 1 79.6600 23.8932 44.2981 0.0000 0.0000 0.0000
# 2 23.8932 82.8152 27.0496 0.0000 0.0000 0.0000
# 3 44.2981 27.0496 106.4760 0.0000 0.0000 0.0000
# 4 0.0000 0.0000 0.0000 20.5131 0.0000 0.0000
# 5 0.0000 0.0000 0.0000 0.0000 26.6970 0.0000
# 6 0.0000 0.0000 0.0000 0.0000 0.0000 25.0915
#
#
#
# Elastic Compliance Matrix: (Units=1/GPa)
#
#
# Indices 1 2 3 4 5 6 
#
# 1 0.016913 -0.002815 -0.006321 0.000000 0.000000 0.000000
# 2 -0.002815 0.013636 -0.002293 0.000000 0.000000 0.000000
# 3 -0.006321 -0.002293 0.012604 0.000000 0.000000 0.000000
# 4 0.000000 0.000000 0.000000 0.048749 0.000000 0.000000
# 5 0.000000 0.000000 0.000000 0.000000 0.037457 0.000000
# 6 0.000000 0.000000 0.000000 0.000000 0.000000 0.039854
#
#
# Mechanical properties :
#
#
# Convention : Reuss Voigt Hill
#
# Bulk Modulus (GPa) = 49.27379 51.04808 50.16094
# Shear Modulus (GPa) = 25.14617 26.04102 25.59359
#
# Velocity S-wave (km/s) = 3.68255 3.74750 3.71517
# Velocity P-wave (km/s) = 6.68242 6.80110 6.74202
#
# Compressibility (1/GPa) = 0.02029476
#
# Stress axis : x y z
#
# Youngs Moduli (GPa) = 59.12672 73.33426 79.33844
#
# Poissons Ratio (x) = 0.20643 0.50152
# Poissons Ratio (y) = 0.16643 0.18193
# Poissons Ratio (z) = 0.37376 0.16816
#
# Static dielectric constant tensor:
#      x y z
#    x 1.731550 0.000000 0.000000 
#    y 0.000000 1.645550 0.000000 
#    z 0.000000 0.000000 1.595180 
# 
# From -- ./inp_files/22348.got.cif
#   From: 2010.05.17/outbox.cif.g08.bks.cpg/sg71_12_cif.got.tgz:22348.got - 2010.06.03 16:22:01.
