data_PCOD9518748
_publ_section_title
;
Structure prediction by ZEFSAII (Michael W. Deem and Ramdas Pophale) SiO2 
 PCOD9518748
Probable space group: I M M M
;
_chemical_formula_sum "Si O2"
_cell_formula_units_Z 96
_cell_length_a 14.052450
_cell_length_b 34.516398
_cell_length_c 14.323885
_cell_angle_alpha 90.000000
_cell_angle_beta 90.000000
_cell_angle_gamma 90.000000
_cell_volume 6947.656566
_symmetry_space_group_name_H-M "I M M M"
_symmetry_group_IT_number 71
_symmetry_cell_setting 'orthorhombic'
loop_
_space_group_symop_operation_xyz
x,y,z
-x,-y,z
x,-y,-z
-x,y,-z
-x,-y,-z
x,y,-z
-x,y,z
x,-y,z
1/2+x,1/2+y,1/2+z
1/2-x,1/2-y,1/2+z
1/2+x,1/2-y,1/2-z
1/2-x,1/2+y,1/2-z
1/2-x,1/2-y,1/2-z
1/2+x,1/2+y,1/2-z
1/2-x,1/2+y,1/2+z
1/2+x,1/2-y,1/2+z
loop_
_atom_site_type_symbol
_atom_site_label
_atom_site_fract_x
_atom_site_fract_y
_atom_site_fract_z
Si Si1 0.000000 0.757626 0.103277
Si Si2 0.286805 0.807675 0.111943
Si Si3 0.891108 0.000000 0.612864
Si Si4 0.191570 0.840656 0.715063
Si Si5 0.000000 0.205013 0.709085
Si Si6 0.705299 0.223315 0.607802
Si Si7 0.500000 0.211457 0.889041
Si Si8 0.884336 0.913779 0.611850
O O1 0.905796 0.732559 0.114624
O O2 0.000000 0.790181 0.180011
O O3 0.000000 0.774579 0.000000
O O4 0.222374 0.835472 0.176619
O O5 0.257661 0.763205 0.137818
O O6 0.400381 0.810387 0.130208
O O7 0.270080 0.812141 0.000000
O O8 0.852296 0.042347 0.637374
O O9 0.894303 0.000000 0.500000
O O10 0.000000 0.000000 0.646639
O O11 0.270512 0.814908 0.663633
O O12 0.172737 0.883010 0.674020
O O13 0.094963 0.818016 0.687142
O O14 0.000000 0.247605 0.664520
O O15 0.732203 0.217487 0.500000
O O16 0.500000 0.220151 0.000000
O O17 0.869357 0.907549 0.500000
O O18 0.000000 0.910731 0.626050
#
# Coordination Sequence:
#
# PCOD9518748 Si02
#       8
#     8  16   8  16   8  16   8  16
#     4  10  20  32  42  52  75 114 153 180 210 253
#     4  10  20  32  44  57  80 114 149 184 219 252
#     4   7  12  26  44  62  87 116 137 156 199 258
#     4  12  20  28  41  64  87 108 144 185 215 245
#     4  12  20  26  40  59  81 109 144 184 218 241
#     4  10  19  30  42  57  79 110 143 180 219 253
#     4  10  20  32  44  58  77 111 152 185 218 256
#     4   9  17  28  44  66  91 115 138 168 205 249
#
# _framework density 13.817608999999999
#
# number of rings (size 3 to 8) (size 9 to 14) (size 15 to 20)
#    0.000    1.917    4.167    3.000    0.000    0.667 
#    0.000    0.000    0.000    0.000    0.000    0.583 
#    0.000    4.667    0.000   18.333    0.000    0.000 
#
# Total GULP energy -267249.935818 kJ/mol
# GULP energy per Si atom -5567.706996 kJ/mol
# Density = 1.378616 g / cm^3
# Si number density = 13.817609 Si / 1000 Ang^3
#
#
#
# Elastic Constant Matrix: (Units=GPa)
#
#
# Indices 1 2 3 4 5 6 
#
# 1 33.5708 2.5207 11.1133 0.0000 0.0000 0.0006
# 2 2.5207 82.4167 34.4134 -0.0001 -0.0001 0.0005
# 3 11.1133 34.4134 42.2365 -0.0001 0.0002 -0.0011
# 4 0.0000 -0.0001 -0.0001 17.9571 0.0000 0.0001
# 5 0.0000 -0.0001 0.0002 0.0000 12.7866 0.0006
# 6 0.0006 0.0005 -0.0011 0.0001 0.0006 -42.5166
#
#
#
# Elastic Compliance Matrix: (Units=1/GPa)
#
#
# Indices 1 2 3 4 5 6 
#
# 1 0.033488 0.004024 -0.012090 0.000000 0.000000 0.000001
# 2 0.004024 0.018874 -0.016437 0.000000 0.000000 0.000001
# 3 -0.012090 -0.016437 0.040249 0.000000 -0.000001 -0.000001
# 4 0.000000 0.000000 0.000000 0.055688 0.000000 0.000000
# 5 0.000000 0.000000 -0.000001 0.000000 0.078207 0.000001
# 6 0.000001 0.000001 -0.000001 0.000000 0.000001 -0.023520
#
#
# Mechanical properties :
#
#
# Convention : Reuss Voigt Hill
#
# Bulk Modulus (GPa) = 22.93273 28.25764 25.59519
# Shear Modulus (GPa) = 18.75986 4.99052 11.87519
#
# Velocity S-wave (km/s) = 3.68867 1.90251 2.93477
# Velocity P-wave (km/s) = 5.89699 5.03199 5.48158
#
# Compressibility (1/GPa) = 0.04360579
#
# Stress axis : x y z
#
# Youngs Moduli (GPa) = 29.86154 52.98428 24.84505
#
# Poissons Ratio (x) = -0.21321 0.30038
# Poissons Ratio (y) = -0.12016 0.40837
# Poissons Ratio (z) = 0.36103 0.87088
#
# Static dielectric constant tensor:
#      x y z
#    x 1.098940 0.000000 0.000000 
#    y 0.000000 1.441740 0.000000 
#    z 0.000000 0.000000 1.499190 
# 
# From -- ./inp_files/35318.got.cif
#   From: 2010.05.17/outbox.cif.g08.bks.cpg/sg71_18_cif.got.tgz:35318.got - 2010.06.03 16:22:01.
