data_PCOD9518938
_publ_section_title
;
Structure prediction by ZEFSAII (Michael W. Deem and Ramdas Pophale) SiO2 
 PCOD9518938
Probable space group: I M M M
;
_chemical_formula_sum "Si O2"
_cell_formula_units_Z 120
_cell_length_a 9.957083
_cell_length_b 26.129229
_cell_length_c 26.819328
_cell_angle_alpha 90.000000
_cell_angle_beta 90.000000
_cell_angle_gamma 90.000000
_cell_volume 6977.608754
_symmetry_space_group_name_H-M "I M M M"
_symmetry_group_IT_number 71
_symmetry_cell_setting 'orthorhombic'
loop_
_space_group_symop_operation_xyz
x,y,z
-x,-y,z
x,-y,-z
-x,y,-z
-x,-y,-z
x,y,-z
-x,y,z
x,-y,z
1/2+x,1/2+y,1/2+z
1/2-x,1/2-y,1/2+z
1/2+x,1/2-y,1/2-z
1/2-x,1/2+y,1/2-z
1/2-x,1/2-y,1/2-z
1/2+x,1/2+y,1/2-z
1/2-x,1/2+y,1/2+z
1/2+x,1/2-y,1/2+z
loop_
_atom_site_type_symbol
_atom_site_label
_atom_site_fract_x
_atom_site_fract_y
_atom_site_fract_z
Si Si1 0.656087 0.723323 0.057550
Si Si2 0.658680 0.815322 0.355674
Si Si3 0.500000 0.439367 0.555969
Si Si4 0.340712 0.634318 0.775829
Si Si5 0.147661 0.333340 0.599041
Si Si6 0.151010 0.799764 0.818247
Si Si7 0.151546 0.559433 0.283848
Si Si8 0.288568 0.058624 0.901943
O O1 0.500000 0.712710 0.072482
O O2 0.763894 0.695662 0.092582
O O3 0.675205 0.784845 0.063775
O O4 0.671770 0.709446 0.000000
O O5 0.500000 0.828746 0.360594
O O6 0.749513 0.854186 0.323848
O O7 0.664603 0.760524 0.327312
O O8 0.500000 0.500000 0.548583
O O9 0.500000 0.415726 0.500000
O O10 0.632849 0.430337 0.587436
O O11 0.500000 0.625537 0.785667
O O12 0.330946 0.682842 0.738376
O O13 0.267650 0.589646 0.744616
O O14 0.249554 0.328664 0.644719
O O15 0.148248 0.389823 0.575334
O O16 0.000000 0.324848 0.620560
O O17 0.000000 0.814626 0.832811
O O18 0.154365 0.500000 0.268801
O O19 0.174685 0.559916 0.343554
O O20 0.000000 0.579851 0.274100
O O21 0.319826 0.000000 0.919530
#
# Coordination Sequence:
#
# PCOD9518938 Si02
#       8
#    16  16   8  16  16  16  16  16
#     4   9  19  36  54  72  99 133 169 212 263 316
#     4  10  20  34  52  75 103 132 170 213 258 311
#     4   9  20  36  50  66  88 118 162 220 279 323
#     4  11  21  32  51  76 105 139 174 209 253 310
#     4  10  19  30  49  72  98 129 165 210 263 317
#     4   9  19  32  47  69  99 133 169 207 248 303
#     4  10  21  35  51  75 107 141 176 215 263 313
#     4  10  20  32  51  71  94 128 174 225 272 320
#
# _framework density 17.197870000000002
#
# number of rings (size 3 to 8) (size 9 to 14) (size 15 to 20)
#    0.000    2.200    1.333    1.600    1.867    2.933 
#    0.000    0.000    0.000    1.200    0.000   10.267 
#    0.000    0.533    0.000    5.600    0.000    2.400 
#
# Total GULP energy -334125.285652 kJ/mol
# GULP energy per Si atom -5568.754761 kJ/mol
# Density = 1.715873 g / cm^3
# Si number density = 17.197870 Si / 1000 Ang^3
#
#
#
# Elastic Constant Matrix: (Units=GPa)
#
#
# Indices 1 2 3 4 5 6 
#
# 1 135.5482 18.7117 50.1903 0.0000 0.0000 0.0000
# 2 18.7117 18.7434 9.9734 0.0000 0.0000 0.0000
# 3 50.1903 9.9734 49.3054 0.0000 0.0000 0.0000
# 4 0.0000 0.0000 0.0000 4.2019 0.0000 0.0000
# 5 0.0000 0.0000 0.0000 0.0000 24.4154 0.0000
# 6 0.0000 0.0000 0.0000 0.0000 0.0000 17.3828
#
#
#
# Elastic Compliance Matrix: (Units=1/GPa)
#
#
# Indices 1 2 3 4 5 6 
#
# 1 0.012488 -0.006391 -0.011419 0.000000 0.000000 0.000000
# 2 -0.006391 0.063057 -0.006250 0.000000 0.000000 0.000000
# 3 -0.011419 -0.006250 0.033170 0.000000 0.000000 0.000000
# 4 0.000000 0.000000 0.000000 0.237988 0.000000 0.000000
# 5 0.000000 0.000000 0.000000 0.000000 0.040958 0.000000
# 6 0.000000 0.000000 0.000000 0.000000 0.000000 0.057528
#
#
# Mechanical properties :
#
#
# Convention : Reuss Voigt Hill
#
# Bulk Modulus (GPa) = 16.50273 40.14974 28.32624
# Shear Modulus (GPa) = 9.73695 17.51481 13.62588
#
# Velocity S-wave (km/s) = 2.38202 3.19475 2.81784
# Velocity P-wave (km/s) = 4.14512 6.08317 5.20514
#
# Compressibility (1/GPa) = 0.06059602
#
# Stress axis : x y z
#
# Youngs Moduli (GPa) = 80.07705 15.85859 30.14747
#
# Poissons Ratio (x) = 0.10135 0.34427
# Poissons Ratio (y) = 0.51174 0.18842
# Poissons Ratio (z) = 0.91443 0.09911
#
# Static dielectric constant tensor:
#      x y z
#    x 1.683730 0.000000 0.000000 
#    y 0.000000 1.607270 0.000000 
#    z 0.000000 0.000000 1.575490 
# 
# From -- ./inp_files/63854.got.cif
#   From: 2010.05.17/outbox.cif.g08.bks.cpg/sg71_32_cif.got.tgz:63854.got - 2010.06.03 16:22:01.
