data_PCOD9518137
_publ_section_title
;
Structure prediction by ZEFSAII (Michael W. Deem and Ramdas Pophale) SiO2 
 PCOD9518137
Probable space group: I M M M
;
_chemical_formula_sum "Si O2"
_cell_formula_units_Z 72
_cell_length_a 20.840447
_cell_length_b 8.259310
_cell_length_c 22.141990
_cell_angle_alpha 90.000000
_cell_angle_beta 90.000000
_cell_angle_gamma 90.000000
_cell_volume 3811.250085
_symmetry_space_group_name_H-M "I M M M"
_symmetry_group_IT_number 71
_symmetry_cell_setting 'orthorhombic'
loop_
_space_group_symop_operation_xyz
x,y,z
-x,-y,z
x,-y,-z
-x,y,-z
-x,-y,-z
x,y,-z
-x,y,z
x,-y,z
1/2+x,1/2+y,1/2+z
1/2-x,1/2-y,1/2+z
1/2+x,1/2-y,1/2-z
1/2-x,1/2+y,1/2-z
1/2-x,1/2-y,1/2-z
1/2+x,1/2+y,1/2-z
1/2-x,1/2+y,1/2+z
1/2+x,1/2-y,1/2+z
loop_
_atom_site_type_symbol
_atom_site_label
_atom_site_fract_x
_atom_site_fract_y
_atom_site_fract_z
Si Si1 0.388664 0.304309 0.568675
Si Si2 0.500000 0.810324 0.343848
Si Si3 0.000000 0.193245 0.291780
Si Si4 0.424045 0.685806 0.000000
Si Si5 0.759317 0.695030 0.569539
Si Si6 0.880888 0.803971 0.628050
O O1 0.405759 0.254957 0.500000
O O2 0.391504 0.500000 0.570584
O O3 0.438034 0.237303 0.616924
O O4 0.314675 0.256787 0.579648
O O5 0.500000 0.726263 0.278920
O O6 0.500000 0.000000 0.333065
O O7 0.933677 0.253531 0.323316
O O8 0.000000 0.000000 0.301518
O O9 0.404366 0.761539 0.937029
O O10 0.399265 0.500000 0.000000
O O11 0.500000 0.675917 0.000000
O O12 0.776149 0.749296 0.500000
O O13 0.761914 0.500000 0.568817
O O14 0.806350 0.756112 0.622388
O O15 0.883480 0.000000 0.629179
#
# Coordination Sequence:
#
# PCOD9518137 Si02
#       6
#    16   8   8   8  16  16
#     4   9  19  38  63  86 109 140 174 210 264 335
#     4  12  25  39  57  82 109 136 175 231 280 316
#     4  10  22  38  55  75 105 152 198 223 256 319
#     4   9  14  24  45  75 107 136 175 224 265 303
#     4   9  18  32  52  82 116 144 171 211 268 327
#     4  10  18  30  52  79 108 144 185 227 264 306
#
# _framework density 18.891438000000001
#
# number of rings (size 3 to 8) (size 9 to 14) (size 15 to 20)
#    0.000    2.333    2.222    2.667    0.000    3.556 
#    0.000    3.333    0.000    2.000    0.000    0.000 
#    0.000    0.000    0.000    0.000    0.000    0.000 
#
# Total GULP energy -200513.768277 kJ/mol
# GULP energy per Si atom -5569.826897 kJ/mol
# Density = 1.884844 g / cm^3
# Si number density = 18.891438 Si / 1000 Ang^3
#
#
#
# Elastic Constant Matrix: (Units=GPa)
#
#
# Indices 1 2 3 4 5 6 
#
# 1 123.5512 13.9095 61.5340 0.0000 0.0000 0.0000
# 2 13.9095 11.9075 -0.6139 0.0000 0.0000 0.0000
# 3 61.5340 -0.6139 82.6811 0.0000 0.0000 0.0000
# 4 0.0000 0.0000 0.0000 10.5065 0.0000 0.0000
# 5 0.0000 0.0000 0.0000 0.0000 -47.1852 0.0000
# 6 0.0000 0.0000 0.0000 0.0000 0.0000 21.7081
#
#
#
# Elastic Compliance Matrix: (Units=1/GPa)
#
#
# Indices 1 2 3 4 5 6 
#
# 1 0.016552 -0.019978 -0.012467 0.000000 0.000000 0.000000
# 2 -0.019978 0.108125 0.015671 0.000000 0.000000 0.000000
# 3 -0.012467 0.015671 0.021489 0.000000 0.000000 0.000000
# 4 0.000000 0.000000 0.000000 0.095179 0.000000 0.000000
# 5 0.000000 0.000000 0.000000 0.000000 -0.021193 0.000000
# 6 0.000000 0.000000 0.000000 0.000000 0.000000 0.046066
#
#
# Mechanical properties :
#
#
# Convention : Reuss Voigt Hill
#
# Bulk Modulus (GPa) = 8.87953 40.86655 24.87304
# Shear Modulus (GPa) = 14.82341 6.55989 10.69165
#
# Velocity S-wave (km/s) = 2.80422 1.86546 2.38156
# Velocity P-wave (km/s) = 3.89813 5.13023 4.55602
#
# Compressibility (1/GPa) = 0.11261863
#
# Stress axis : x y z
#
# Youngs Moduli (GPa) = 60.41592 9.24859 46.53490
#
# Poissons Ratio (x) = 0.18476 0.58014
# Poissons Ratio (y) = 1.20696 -0.72924
# Poissons Ratio (z) = 0.75319 -0.14493
#
# Static dielectric constant tensor:
#      x y z
#    x 1.715350 0.000000 0.000000 
#    y 0.000000 1.667750 0.000000 
#    z 0.000000 0.000000 1.646250 
# 
# From -- ./inp_files/54699.got.cif
#   From: 2010.05.17/outbox.cif.g08.bks.cpg/sg71_28_cif.got.tgz:54699.got - 2010.06.03 16:22:01.
