data_PCOD9518362
_publ_section_title
;
Structure prediction by ZEFSAII (Michael W. Deem and Ramdas Pophale) SiO2 
 PCOD9518362
Probable space group: I M M M
;
_chemical_formula_sum "Si O2"
_cell_formula_units_Z 104
_cell_length_a 21.951208
_cell_length_b 22.444200
_cell_length_c 13.611452
_cell_angle_alpha 90.000000
_cell_angle_beta 90.000000
_cell_angle_gamma 90.000000
_cell_volume 6706.053456
_symmetry_space_group_name_H-M "I M M M"
_symmetry_group_IT_number 71
_symmetry_cell_setting 'orthorhombic'
loop_
_space_group_symop_operation_xyz
x,y,z
-x,-y,z
x,-y,-z
-x,y,-z
-x,-y,-z
x,y,-z
-x,y,z
x,-y,z
1/2+x,1/2+y,1/2+z
1/2-x,1/2-y,1/2+z
1/2+x,1/2-y,1/2-z
1/2-x,1/2+y,1/2-z
1/2-x,1/2-y,1/2-z
1/2+x,1/2+y,1/2-z
1/2-x,1/2+y,1/2+z
1/2+x,1/2-y,1/2+z
loop_
_atom_site_type_symbol
_atom_site_label
_atom_site_fract_x
_atom_site_fract_y
_atom_site_fract_z
Si Si1 0.811351 0.173360 0.713044
Si Si2 0.874354 0.374991 0.187008
Si Si3 0.500000 0.068627 0.616787
Si Si4 0.698155 0.239858 0.616819
Si Si5 0.929012 0.643025 0.612126
Si Si6 0.067748 0.786854 0.614467
Si Si7 0.747943 0.930354 0.386234
O O1 0.763712 0.213055 0.648798
O O2 0.807483 0.198791 0.823096
O O3 0.878815 0.184164 0.675117
O O4 0.788904 0.107358 0.688544
O O5 0.851586 0.308608 0.156191
O O6 0.883291 0.379157 0.304421
O O7 0.821767 0.416868 0.143571
O O8 0.939600 0.395277 0.146618
O O9 0.500000 0.064160 0.500000
O O10 0.500000 0.000000 0.656314
O O11 0.693632 0.245292 0.500000
O O12 0.914216 0.626012 0.500000
O O13 0.927502 0.714995 0.618444
O O14 0.000000 0.625396 0.631076
O O15 0.073574 0.803399 0.500000
O O16 0.000000 0.803015 0.648654
O O17 0.756807 0.910183 0.500000
O O18 0.760285 0.000000 0.381713
#
# Coordination Sequence:
#
# PCOD9518362 Si02
#       7
#    16  16   8  16  16  16  16
#     4  10  18  32  51  71  97 128 161 198 244 305
#     4  11  18  32  49  70 100 131 167 211 251 287
#     4  11  22  32  47  69  95 137 183 212 236 274
#     4  10  20  31  47  74 101 127 160 203 252 296
#     4   9  17  29  45  69 100 133 164 198 247 296
#     4   9  16  27  46  73 101 125 153 191 240 298
#     4  10  21  36  52  70  95 127 164 205 249 301
#
# _framework density 15.508376
#
# number of rings (size 3 to 8) (size 9 to 14) (size 15 to 20)
#    0.000    2.077    2.308    5.077    0.000    1.231 
#    0.000    0.000    0.000    4.154    0.000    2.154 
#    0.000    0.000    0.000    1.385    0.000    0.154 
#
# Total GULP energy -289770.027179 kJ/mol
# GULP energy per Si atom -5572.500523 kJ/mol
# Density = 1.547308 g / cm^3
# Si number density = 15.508376 Si / 1000 Ang^3
#
#
#
# Elastic Constant Matrix: (Units=GPa)
#
#
# Indices 1 2 3 4 5 6 
#
# 1 76.2012 19.9601 26.3673 0.0000 0.0000 0.0000
# 2 19.9601 52.7173 30.8487 0.0000 0.0000 0.0000
# 3 26.3673 30.8487 106.5287 0.0000 0.0000 0.0000
# 4 0.0000 0.0000 0.0000 19.2075 0.0000 0.0000
# 5 0.0000 0.0000 0.0000 0.0000 22.5297 0.0000
# 6 0.0000 0.0000 0.0000 0.0000 0.0000 7.7269
#
#
#
# Elastic Compliance Matrix: (Units=1/GPa)
#
#
# Indices 1 2 3 4 5 6 
#
# 1 0.015104 -0.004252 -0.002507 0.000000 0.000000 0.000000
# 2 -0.004252 0.024036 -0.005908 0.000000 0.000000 0.000000
# 3 -0.002507 -0.005908 0.011719 0.000000 0.000000 0.000000
# 4 0.000000 0.000000 0.000000 0.052063 0.000000 0.000000
# 5 0.000000 0.000000 0.000000 0.000000 0.044386 0.000000
# 6 0.000000 0.000000 0.000000 0.000000 0.000000 0.129417
#
#
# Mechanical properties :
#
#
# Convention : Reuss Voigt Hill
#
# Bulk Modulus (GPa) = 39.17729 43.31103 41.24416
# Shear Modulus (GPa) = 16.09954 20.44425 18.27190
#
# Velocity S-wave (km/s) = 3.22548 3.63474 3.43621
# Velocity P-wave (km/s) = 6.26007 6.75302 6.51121
#
# Compressibility (1/GPa) = 0.02552499
#
# Stress axis : x y z
#
# Youngs Moduli (GPa) = 66.20569 41.60398 85.33443
#
# Poissons Ratio (x) = 0.17689 0.21396
# Poissons Ratio (y) = 0.28149 0.50416
# Poissons Ratio (z) = 0.16600 0.24580
#
# Static dielectric constant tensor:
#      x y z
#    x 1.511630 0.000000 0.000000 
#    y 0.000000 1.523980 0.000000 
#    z 0.000000 0.000000 1.529200 
# 
# From -- ./inp_files/26230.got.cif
#   From: 2010.05.17/outbox.cif.g08.bks.cpg/sg71_14_cif.got.tgz:26230.got - 2010.06.03 16:22:01.
