data_PCOD9518691
_publ_section_title
;
Structure prediction by ZEFSAII (Michael W. Deem and Ramdas Pophale) SiO2 
 PCOD9518691
Probable space group: I M M M
;
_chemical_formula_sum "Si O2"
_cell_formula_units_Z 112
_cell_length_a 15.879857
_cell_length_b 20.627641
_cell_length_c 15.144114
_cell_angle_alpha 90.000000
_cell_angle_beta 90.000000
_cell_angle_gamma 90.000000
_cell_volume 4960.666397
_symmetry_space_group_name_H-M "I M M M"
_symmetry_group_IT_number 71
_symmetry_cell_setting 'orthorhombic'
loop_
_space_group_symop_operation_xyz
x,y,z
-x,-y,z
x,-y,-z
-x,y,-z
-x,-y,-z
x,y,-z
-x,y,z
x,-y,z
1/2+x,1/2+y,1/2+z
1/2-x,1/2-y,1/2+z
1/2+x,1/2-y,1/2-z
1/2-x,1/2+y,1/2-z
1/2-x,1/2-y,1/2-z
1/2+x,1/2+y,1/2-z
1/2-x,1/2+y,1/2+z
1/2+x,1/2-y,1/2+z
loop_
_atom_site_type_symbol
_atom_site_label
_atom_site_fract_x
_atom_site_fract_y
_atom_site_fract_z
Si Si1 0.406245 0.366548 0.894460
Si Si2 0.279125 0.891467 0.100781
Si Si3 0.591168 0.577368 0.604247
Si Si4 0.285436 0.742419 0.404092
Si Si5 0.402827 0.098103 0.247864
Si Si6 0.091522 0.246039 0.253058
Si Si7 0.229979 0.602177 0.100824
O O1 0.500000 0.394105 0.878665
O O2 0.401633 0.300062 0.838074
O O3 0.326530 0.412096 0.871743
O O4 0.399643 0.353310 0.000000
O O5 0.184054 0.902886 0.136443
O O6 0.285987 0.812611 0.097534
O O7 0.349654 0.922163 0.162245
O O8 0.283379 0.915086 0.000000
O O9 0.590707 0.594704 0.500000
O O10 0.500000 0.599563 0.641769
O O11 0.590240 0.500000 0.609925
O O12 0.328550 0.732539 0.500000
O O13 0.339016 0.728984 0.317900
O O14 0.267188 0.818744 0.400584
O O15 0.500000 0.076368 0.254129
O O16 0.405387 0.176444 0.237785
O O17 0.344024 0.082760 0.332562
O O18 0.000000 0.233208 0.213375
O O19 0.214738 0.580560 0.000000
#
# Coordination Sequence:
#
# PCOD9518691 Si02
#       7
#    16  16  16  16  16  16  16
#     4   9  16  25  38  55  73  98 138 185 229 271
#     4  10  19  29  44  67  93 120 148 181 222 265
#     4   8  15  30  51  72  94 120 147 175 214 269
#     4   9  17  27  39  57  82 113 152 196 231 258
#     4  10  20  31  42  58  83 117 156 193 225 259
#     4   9  17  27  38  53  78 115 153 188 227 266
#     4   9  17  30  45  58  79 116 159 199 234 264
#
# _framework density 22.577611000000001
#
# number of rings (size 3 to 8) (size 9 to 14) (size 15 to 20)
#    0.000    2.857    0.000    2.143    0.000    5.429 
#    0.000    6.429    0.000    0.429    0.000    2.000 
#    0.000    0.571    0.000    2.857    0.000    1.143 
#
# Total GULP energy -312049.230234 kJ/mol
# GULP energy per Si atom -5572.307683 kJ/mol
# Density = 2.252622 g / cm^3
# Si number density = 22.577611 Si / 1000 Ang^3
#
#
#
# Elastic Constant Matrix: (Units=GPa)
#
#
# Indices 1 2 3 4 5 6 
#
# 1 192.3559 12.8851 77.4958 0.0000 0.0000 0.0000
# 2 12.8851 62.5307 2.7208 0.0000 0.0000 0.0000
# 3 77.4958 2.7208 90.5896 0.0000 0.0000 0.0000
# 4 0.0000 0.0000 0.0000 -6.9355 0.0000 0.0000
# 5 0.0000 0.0000 0.0000 0.0000 -11.2107 0.0000
# 6 0.0000 0.0000 0.0000 0.0000 0.0000 0.2426
#
#
#
# Elastic Compliance Matrix: (Units=1/GPa)
#
#
# Indices 1 2 3 4 5 6 
#
# 1 0.008047 -0.001360 -0.006843 0.000000 0.000000 0.000000
# 2 -0.001360 0.016243 0.000676 0.000000 0.000000 0.000000
# 3 -0.006843 0.000676 0.016872 0.000000 0.000000 0.000000
# 4 0.000000 0.000000 0.000000 -0.144186 0.000000 0.000001
# 5 0.000000 0.000000 0.000000 0.000000 -0.089200 0.000000
# 6 0.000000 0.000000 0.000000 0.000001 0.000000 4.121750
#
#
# Mechanical properties :
#
#
# Convention : Reuss Voigt Hill
#
# Bulk Modulus (GPa) = 38.30322 59.07551 48.68937
# Shear Modulus (GPa) = 1.26477 13.24424 7.25451
#
# Velocity S-wave (km/s) = 0.74927 2.42463 1.79447
# Velocity P-wave (km/s) = 4.21313 5.83616 5.08976
#
# Compressibility (1/GPa) = 0.02610746
#
# Stress axis : x y z
#
# Youngs Moduli (GPa) = 124.27644 61.56481 59.26938
#
# Poissons Ratio (x) = 0.08375 0.40556
# Poissons Ratio (y) = 0.16906 -0.04006
# Poissons Ratio (z) = 0.85038 -0.04161
#
# Static dielectric constant tensor:
#      x y z
#    x 1.910330 0.000000 0.000000 
#    y 0.000000 1.853020 0.000000 
#    z 0.000000 0.000000 1.835890 
# 
# From -- ./inp_files/35368.got.cif
#   From: 2010.05.17/outbox.cif.g08.bks.cpg/sg71_18_cif.got.tgz:35368.got - 2010.06.03 16:22:01.
