data_PCOD9518709
_publ_section_title
;
Structure prediction by ZEFSAII (Michael W. Deem and Ramdas Pophale) SiO2 
 PCOD9518709
Probable space group: I M M M
;
_chemical_formula_sum "Si O2"
_cell_formula_units_Z 96
_cell_length_a 7.379700
_cell_length_b 25.949601
_cell_length_c 21.872344
_cell_angle_alpha 90.000000
_cell_angle_beta 90.000000
_cell_angle_gamma 90.000000
_cell_volume 4188.559792
_symmetry_space_group_name_H-M "I M M M"
_symmetry_group_IT_number 71
_symmetry_cell_setting 'orthorhombic'
loop_
_space_group_symop_operation_xyz
x,y,z
-x,-y,z
x,-y,-z
-x,y,-z
-x,-y,-z
x,y,-z
-x,y,z
x,-y,z
1/2+x,1/2+y,1/2+z
1/2-x,1/2-y,1/2+z
1/2+x,1/2-y,1/2-z
1/2-x,1/2+y,1/2-z
1/2-x,1/2-y,1/2-z
1/2+x,1/2+y,1/2-z
1/2-x,1/2+y,1/2+z
1/2+x,1/2-y,1/2+z
loop_
_atom_site_type_symbol
_atom_site_label
_atom_site_fract_x
_atom_site_fract_y
_atom_site_fract_z
Si Si1 0.782565 0.747586 0.323244
Si Si2 0.221199 0.328468 0.432102
Si Si3 0.778992 0.944033 0.570149
Si Si4 0.717555 0.056420 0.240524
Si Si5 0.219970 0.443293 0.597324
Si Si6 0.787579 0.860476 0.339250
O O1 0.750000 0.750000 0.250000
O O2 0.718416 0.703877 0.371717
O O3 0.710673 0.803687 0.342108
O O4 0.000000 0.745200 0.328363
O O5 0.271861 0.307799 0.500000
O O6 0.279691 0.388490 0.429129
O O7 0.000000 0.328578 0.430204
O O8 0.728359 0.938343 0.500000
O O9 0.708155 0.898780 0.611233
O O10 0.000000 0.943844 0.572566
O O11 0.719068 0.000000 0.592129
O O12 0.500000 0.056007 0.243958
O O13 0.765563 0.059051 0.169324
O O14 0.776938 0.107149 0.276519
O O15 0.782708 0.000000 0.263863
O O16 0.280838 0.500000 0.574512
O O17 0.000000 0.443806 0.591812
O O18 0.000000 0.854062 0.352501
#
# Coordination Sequence:
#
# PCOD9518709 Si02
#       6
#    16  16  16  16  16  16
#     4  10  21  35  51  72  98 131 169 207 251 300
#     4   9  17  29  46  69  97 127 160 203 251 293
#     4   8  14  25  41  62  89 118 145 180 232 286
#     4   9  17  29  46  69  98 130 158 186 230 287
#     4   8  14  25  42  65  92 122 155 189 231 288
#     4  10  19  29  45  69  92 118 158 202 238 279
#
# _framework density 22.919571999999999
#
# number of rings (size 3 to 8) (size 9 to 14) (size 15 to 20)
#    0.000    3.000    0.000    3.000    0.000    4.000 
#    0.000    5.000    0.000    1.000    0.000    4.667 
#    0.000    0.000    0.000   14.333    0.000   11.667 
#
# Total GULP energy -267600.851341 kJ/mol
# GULP energy per Si atom -5575.017736 kJ/mol
# Density = 2.286741 g / cm^3
# Si number density = 22.919572 Si / 1000 Ang^3
#
#
#
# Elastic Constant Matrix: (Units=GPa)
#
#
# Indices 1 2 3 4 5 6 
#
# 1 81.2221 8.0594 0.3951 0.0000 0.0000 0.0000
# 2 8.0594 195.1182 95.9291 0.0000 0.0000 0.0000
# 3 0.3951 95.9291 141.1268 0.0000 0.0000 0.0000
# 4 0.0000 0.0000 0.0000 37.5053 0.0000 0.0000
# 5 0.0000 0.0000 0.0000 0.0000 7.9048 0.0000
# 6 0.0000 0.0000 0.0000 0.0000 0.0000 0.0725
#
#
#
# Elastic Compliance Matrix: (Units=1/GPa)
#
#
# Indices 1 2 3 4 5 6 
#
# 1 0.012383 -0.000743 0.000470 0.000000 0.000000 0.000000
# 2 -0.000743 0.007742 -0.005260 0.000000 0.000000 0.000000
# 3 0.000470 -0.005260 0.010660 0.000000 0.000000 0.000000
# 4 0.000000 0.000000 0.000000 0.026663 0.000000 0.000000
# 5 0.000000 0.000000 0.000000 0.000000 0.126506 -0.000001
# 6 0.000000 0.000000 0.000000 0.000000 -0.000001 13.794053
#
#
# Mechanical properties :
#
#
# Convention : Reuss Voigt Hill
#
# Bulk Modulus (GPa) = 50.71082 69.58159 60.14620
# Shear Modulus (GPa) = 0.35725 29.96876 15.16301
#
# Velocity S-wave (km/s) = 0.39524 3.61995 2.57490
# Velocity P-wave (km/s) = 4.73095 6.92076 5.92785
#
# Compressibility (1/GPa) = 0.01971966
#
# Stress axis : x y z
#
# Youngs Moduli (GPa) = 80.75378 129.16427 93.80630
#
# Poissons Ratio (x) = 0.09592 -0.04410
# Poissons Ratio (y) = 0.05997 0.49347
# Poissons Ratio (z) = -0.03796 0.67947
#
# Static dielectric constant tensor:
#      x y z
#    x 1.937650 0.000000 0.000000 
#    y 0.000000 1.783190 0.000000 
#    z 0.000000 0.000000 1.862900 
# 
# From -- ./inp_files/43703.got.cif
#   From: 2010.05.17/outbox.cif.g08.bks.cpg/sg71_22_cif.got.tgz:43703.got - 2010.06.03 16:22:01.
