data_PCOD9518847
_publ_section_title
;
Structure prediction by ZEFSAII (Michael W. Deem and Ramdas Pophale) SiO2 
 PCOD9518847
Probable space group: I M M M
;
_chemical_formula_sum "Si O2"
_cell_formula_units_Z 104
_cell_length_a 30.503324
_cell_length_b 23.064576
_cell_length_c 8.906657
_cell_angle_alpha 90.000000
_cell_angle_beta 90.000000
_cell_angle_gamma 90.000000
_cell_volume 6266.244996
_symmetry_space_group_name_H-M "I M M M"
_symmetry_group_IT_number 71
_symmetry_cell_setting 'orthorhombic'
loop_
_space_group_symop_operation_xyz
x,y,z
-x,-y,z
x,-y,-z
-x,y,-z
-x,-y,-z
x,y,-z
-x,y,z
x,-y,z
1/2+x,1/2+y,1/2+z
1/2-x,1/2-y,1/2+z
1/2+x,1/2-y,1/2-z
1/2-x,1/2+y,1/2-z
1/2-x,1/2-y,1/2-z
1/2+x,1/2+y,1/2-z
1/2-x,1/2+y,1/2+z
1/2+x,1/2-y,1/2+z
loop_
_atom_site_type_symbol
_atom_site_label
_atom_site_fract_x
_atom_site_fract_y
_atom_site_fract_z
Si Si1 0.550217 0.000000 0.182503
Si Si2 0.449041 0.344787 0.179401
Si Si3 0.395563 0.885958 0.180312
Si Si4 0.782020 0.070355 0.173030
Si Si5 0.120177 0.067828 0.818377
Si Si6 0.691626 0.068798 0.678233
Si Si7 0.551176 0.780994 0.320496
O O1 0.576050 0.942313 0.228641
O O2 0.500000 0.000000 0.235116
O O3 0.549519 0.000000 0.000000
O O4 0.500000 0.358859 0.213672
O O5 0.416648 0.392619 0.245520
O O6 0.439618 0.282275 0.252439
O O7 0.444486 0.341044 0.000000
O O8 0.346502 0.896794 0.237969
O O9 0.417865 0.829379 0.249401
O O10 0.396205 0.882816 0.000000
O O11 0.830572 0.087865 0.225585
O O12 0.740123 0.087551 0.269924
O O13 0.783260 0.000000 0.172719
O O14 0.775871 0.088729 0.000000
O O15 0.114876 0.000000 0.777354
O O16 0.118122 0.071147 0.000000
O O17 0.686973 0.074823 0.500000
O O18 0.687035 0.000000 0.715820
O O19 0.556123 0.779529 0.500000
O O20 0.500000 0.794707 0.286009
#
# Coordination Sequence:
#
# PCOD9518847 Si02
#       7
#     8  16  16  16  16  16  16
#     4   9  18  30  45  69  99 131 167 209 258 307
#     4  10  21  36  54  77 105 138 175 212 249 298
#     4  11  20  32  51  73 101 135 173 216 260 309
#     4   8  15  29  49  72 100 134 171 207 248 302
#     4   9  18  33  54  81 110 139 170 207 253 304
#     4  10  19  30  46  71 104 136 171 214 259 305
#     4  10  21  37  55  74  98 132 174 217 260 306
#
# _framework density 16.596861000000001
#
# number of rings (size 3 to 8) (size 9 to 14) (size 15 to 20)
#    0.000    2.385    0.769    3.231    0.000    4.308 
#    0.000    3.077    0.000    2.769    0.000    0.000 
#    0.000    0.000    0.000    0.000    0.000    0.000 
#
# Total GULP energy -290049.384858 kJ/mol
# GULP energy per Si atom -5577.872786 kJ/mol
# Density = 1.655909 g / cm^3
# Si number density = 16.596861 Si / 1000 Ang^3
#
#
#
# Elastic Constant Matrix: (Units=GPa)
#
#
# Indices 1 2 3 4 5 6 
#
# 1 149.6434 87.4065 60.7302 0.0000 0.0000 0.0000
# 2 87.4065 88.4087 46.7667 0.0000 0.0000 0.0000
# 3 60.7302 46.7667 55.4495 0.0000 0.0000 0.0000
# 4 0.0000 0.0000 0.0000 27.1287 0.0000 0.0000
# 5 0.0000 0.0000 0.0000 0.0000 29.2489 0.0000
# 6 0.0000 0.0000 0.0000 0.0000 0.0000 13.3731
#
#
#
# Elastic Compliance Matrix: (Units=1/GPa)
#
#
# Indices 1 2 3 4 5 6 
#
# 1 0.017734 -0.013106 -0.008370 0.000000 0.000000 0.000000
# 2 -0.013106 0.030108 -0.011040 0.000000 0.000000 0.000000
# 3 -0.008370 -0.011040 0.036512 0.000000 0.000000 0.000000
# 4 0.000000 0.000000 0.000000 0.036861 0.000000 0.000000
# 5 0.000000 0.000000 0.000000 0.000000 0.034189 0.000000
# 6 0.000000 0.000000 0.000000 0.000000 0.000000 0.074777
#
#
# Mechanical properties :
#
#
# Convention : Reuss Voigt Hill
#
# Bulk Modulus (GPa) = 51.74801 75.92317 63.83559
# Shear Modulus (GPa) = 16.57531 20.52336 18.54933
#
# Velocity S-wave (km/s) = 3.16365 3.52032 3.34674
# Velocity P-wave (km/s) = 6.67772 7.89736 7.31301
#
# Compressibility (1/GPa) = 0.01932442
#
# Stress axis : x y z
#
# Youngs Moduli (GPa) = 56.38770 33.21357 27.38829
#
# Poissons Ratio (x) = 0.43529 0.22923
# Poissons Ratio (y) = 0.73901 0.30235
# Poissons Ratio (z) = 0.47194 0.36666
#
# Static dielectric constant tensor:
#      x y z
#    x 1.560040 0.000000 0.000000 
#    y 0.000000 1.527620 0.000000 
#    z 0.000000 0.000000 1.550850 
# 
# From -- ./inp_files/15249.got.cif
#   From: 2010.05.17/outbox.cif.g08.bks.cpg/sg71_8_cif.got.tgz:15249.got - 2010.06.03 16:22:01.
