data_PCOD9518726
_publ_section_title
;
Structure prediction by ZEFSAII (Michael W. Deem and Ramdas Pophale) SiO2 
 PCOD9518726
Probable space group: I M M M
;
_chemical_formula_sum "Si O2"
_cell_formula_units_Z 72
_cell_length_a 30.165177
_cell_length_b 15.786280
_cell_length_c 7.624870
_cell_angle_alpha 90.000000
_cell_angle_beta 90.000000
_cell_angle_gamma 90.000000
_cell_volume 3630.932064
_symmetry_space_group_name_H-M "I M M M"
_symmetry_group_IT_number 71
_symmetry_cell_setting 'orthorhombic'
loop_
_space_group_symop_operation_xyz
x,y,z
-x,-y,z
x,-y,-z
-x,y,-z
-x,-y,-z
x,y,-z
-x,y,z
x,-y,z
1/2+x,1/2+y,1/2+z
1/2-x,1/2-y,1/2+z
1/2+x,1/2-y,1/2-z
1/2-x,1/2+y,1/2-z
1/2-x,1/2-y,1/2-z
1/2+x,1/2+y,1/2-z
1/2-x,1/2+y,1/2+z
1/2+x,1/2-y,1/2+z
loop_
_atom_site_type_symbol
_atom_site_label
_atom_site_fract_x
_atom_site_fract_y
_atom_site_fract_z
Si Si1 0.553724 0.000000 0.802275
Si Si2 0.861797 0.240389 0.793281
Si Si3 0.805549 0.404389 0.287803
Si Si4 0.450164 0.188378 0.706354
Si Si5 0.203553 0.904045 0.214069
O O1 0.564981 0.090111 0.720145
O O2 0.500000 0.000000 0.804335
O O3 0.571114 0.000000 0.000000
O O4 0.836238 0.329265 0.776877
O O5 0.910990 0.254248 0.717445
O O6 0.830630 0.166278 0.720399
O O7 0.867118 0.222171 0.000000
O O8 0.806707 0.403402 0.500000
O O9 0.818157 0.500000 0.232086
O O10 0.754515 0.388508 0.232380
O O11 0.453535 0.206800 0.500000
O O12 0.500000 0.196180 0.781718
O O13 0.191659 0.000000 0.264942
O O14 0.203898 0.901390 0.000000
#
# Coordination Sequence:
#
# PCOD9518726 Si02
#       5
#     8  16  16  16  16
#     4   9  17  29  45  63  83 113 153 187 215 257
#     4  10  19  29  47  70  88 116 156 189 217 261
#     4   9  18  31  46  66  94 123 145 176 227 274
#     4   9  18  31  44  61  90 122 148 180 224 266
#     4   8  15  30  49  67  89 117 149 184 226 273
#
# _framework density 19.829618
#
# number of rings (size 3 to 8) (size 9 to 14) (size 15 to 20)
#    0.000    3.000    0.000    2.333    1.556    2.667 
#    0.000    0.000    0.000    2.667    0.000    4.667 
#    0.000    0.000    0.000    7.556    0.000    8.000 
#
# Total GULP energy -200749.624994 kJ/mol
# GULP energy per Si atom -5576.378472 kJ/mol
# Density = 1.978449 g / cm^3
# Si number density = 19.829618 Si / 1000 Ang^3
#
#
#
# Elastic Constant Matrix: (Units=GPa)
#
#
# Indices 1 2 3 4 5 6 
#
# 1 116.7974 72.6418 -0.1491 0.0000 0.0000 0.0000
# 2 72.6418 75.9724 -5.6516 0.0000 0.0000 0.0000
# 3 -0.1491 -5.6516 38.0297 0.0000 0.0000 0.0000
# 4 0.0000 0.0000 0.0000 6.9078 0.0000 0.0000
# 5 0.0000 0.0000 0.0000 0.0000 5.5788 0.0000
# 6 0.0000 0.0000 0.0000 0.0000 0.0000 -31.8888
#
#
#
# Elastic Compliance Matrix: (Units=1/GPa)
#
#
# Indices 1 2 3 4 5 6 
#
# 1 0.021456 -0.020739 -0.002998 0.000000 0.000000 0.000000
# 2 -0.020739 0.033355 0.004876 0.000000 0.000000 0.000000
# 3 -0.002998 0.004876 0.027008 0.000000 0.000000 0.000000
# 4 0.000000 0.000000 0.000000 0.144764 0.000000 0.000000
# 5 0.000000 0.000000 0.000000 0.000000 0.179250 0.000000
# 6 0.000000 0.000000 0.000000 0.000000 0.000000 -0.031359
#
#
# Mechanical properties :
#
#
# Convention : Reuss Voigt Hill
#
# Bulk Modulus (GPa) = 22.67713 40.49795 31.58754
# Shear Modulus (GPa) = 11.71245 7.05011 9.38128
#
# Velocity S-wave (km/s) = 2.43297 1.88761 2.17743
# Velocity P-wave (km/s) = 4.39924 5.02176 4.72077
#
# Compressibility (1/GPa) = 0.04409729
#
# Stress axis : x y z
#
# Youngs Moduli (GPa) = 46.60610 29.98053 37.02600
#
# Poissons Ratio (x) = 0.62176 0.11100
# Poissons Ratio (y) = 0.96655 -0.18052
# Poissons Ratio (z) = 0.13972 -0.14617
#
# Static dielectric constant tensor:
#      x y z
#    x 1.747640 0.000000 0.000000 
#    y 0.000000 1.674010 0.000000 
#    z 0.000000 0.000000 1.761070 
# 
# From -- ./inp_files/6423.got.cif
#   From: 2010.05.17/outbox.cif.g08.bks.cpg/sg71_4_cif.got.tgz:6423.got - 2010.06.03 16:22:01.
