data_PCOD9518524
_publ_section_title
;
Structure prediction by ZEFSAII (Michael W. Deem and Ramdas Pophale) SiO2 
 PCOD9518524
Probable space group: I M M M
;
_chemical_formula_sum "Si O2"
_cell_formula_units_Z 82
_cell_length_a 26.579995
_cell_length_b 19.655833
_cell_length_c 8.070373
_cell_angle_alpha 90.000000
_cell_angle_beta 90.000000
_cell_angle_gamma 90.000000
_cell_volume 4216.382053
_symmetry_space_group_name_H-M "I M M M"
_symmetry_group_IT_number 71
_symmetry_cell_setting 'orthorhombic'
loop_
_space_group_symop_operation_xyz
x,y,z
-x,-y,z
x,-y,-z
-x,y,-z
-x,-y,-z
x,y,-z
-x,y,z
x,-y,z
1/2+x,1/2+y,1/2+z
1/2-x,1/2-y,1/2+z
1/2+x,1/2-y,1/2-z
1/2-x,1/2+y,1/2-z
1/2-x,1/2-y,1/2-z
1/2+x,1/2+y,1/2-z
1/2-x,1/2+y,1/2+z
1/2+x,1/2-y,1/2+z
loop_
_atom_site_type_symbol
_atom_site_label
_atom_site_fract_x
_atom_site_fract_y
_atom_site_fract_z
Si Si1 0.859451 0.613216 0.305142
Si Si2 0.168039 0.000000 0.699919
Si Si3 0.059220 0.500000 0.198738
Si Si4 0.717938 0.000000 0.701305
Si Si5 0.881418 0.140979 0.687961
Si Si6 0.191844 0.751641 0.805715
Si Si7 0.553825 0.643815 0.500000
Si Si8 0.000000 0.000000 0.000000
O O1 0.864485 0.626491 0.500000
O O2 0.908166 0.567243 0.252117
O O3 0.812267 0.564363 0.267758
O O4 0.842064 0.683643 0.220031
O O5 0.224913 0.000000 0.761545
O O6 0.137970 0.932828 0.742018
O O7 0.172055 0.000000 0.500000
O O8 0.000000 0.500000 0.254686
O O9 0.058860 0.500000 0.000000
O O10 0.715983 0.000000 0.500000
O O11 0.901736 0.138030 0.500000
O O12 0.834296 0.190644 0.696648
O O13 0.918912 0.163469 0.831148
O O14 0.250000 0.750000 0.750000
O O15 0.190431 0.769407 0.000000
O O16 0.500000 0.678736 0.500000
O O17 0.542431 0.562193 0.500000
#
# Coordination Sequence:
#
# PCOD9518524 Si02
#       8
#    16   8   8   8  16  16   8   2
#     4  11  22  37  58  89 126 164 209 259 314 382
#     4   9  20  34  56  86 122 160 205 261 315 377
#     4  10  21  40  66  94 121 161 210 267 327 379
#     4  10  18  34  56  83 120 163 205 255 310 372
#     4  11  22  41  63  93 128 166 215 269 325 387
#     4  12  24  41  63  93 131 175 216 260 321 393
#     4  10  22  42  62  92 120 161 210 270 321 374
#     4   8  20  40  70  88 128 158 220 266 342 388
#
# _framework density 19.447953999999999
#
# number of rings (size 3 to 8) (size 9 to 14) (size 15 to 20)
#    0.293    1.073    0.976    7.024    0.000    2.732 
#    3.512    1.463    0.000    2.341    0.000    0.000 
#    0.000    0.000    0.000    0.000    0.000    0.000 
#
# Total GULP energy -228342.985931 kJ/mol
# GULP energy per Si atom -5569.341120 kJ/mol
# Density = 1.940369 g / cm^3
# Si number density = 19.447954 Si / 1000 Ang^3
#
#
#
# Elastic Constant Matrix: (Units=GPa)
#
#
# Indices 1 2 3 4 5 6 
#
# 1 134.5347 12.3636 46.5639 0.0000 0.0000 0.0000
# 2 12.3636 72.0372 1.4544 0.0000 0.0000 0.0000
# 3 46.5639 1.4544 97.8187 0.0000 0.0000 0.0000
# 4 0.0000 0.0000 0.0000 28.2037 0.0000 0.0000
# 5 0.0000 0.0000 0.0000 0.0000 23.9172 0.0000
# 6 0.0000 0.0000 0.0000 0.0000 0.0000 18.9320
#
#
#
# Elastic Compliance Matrix: (Units=1/GPa)
#
#
# Indices 1 2 3 4 5 6 
#
# 1 0.009052 -0.001467 -0.004287 0.000000 0.000000 0.000000
# 2 -0.001467 0.014124 0.000488 0.000000 0.000000 0.000000
# 3 -0.004287 0.000488 0.012256 0.000000 0.000000 0.000000
# 4 0.000000 0.000000 0.000000 0.035456 0.000000 0.000000
# 5 0.000000 0.000000 0.000000 0.000000 0.041811 0.000000
# 6 0.000000 0.000000 0.000000 0.000000 0.000000 0.052821
#
#
# Mechanical properties :
#
#
# Convention : Reuss Voigt Hill
#
# Bulk Modulus (GPa) = 40.15992 47.23938 43.69965
# Shear Modulus (GPa) = 27.12220 30.47783 28.80001
#
# Velocity S-wave (km/s) = 3.73849 3.96302 3.85239
# Velocity P-wave (km/s) = 6.27135 6.72931 6.50436
#
# Compressibility (1/GPa) = 0.02490045
#
# Stress axis : x y z
#
# Youngs Moduli (GPa) = 110.47771 70.80329 81.58992
#
# Poissons Ratio (x) = 0.10387 0.34977
# Poissons Ratio (y) = 0.16207 -0.03984
# Poissons Ratio (z) = 0.47361 -0.03457
#
# Static dielectric constant tensor:
#      x y z
#    x 1.686280 0.000000 0.000000 
#    y 0.000000 1.697960 0.000000 
#    z 0.000000 0.000000 1.741450 
# 
# From -- ./inp_files/14803.got.cif
#   From: 2010.05.17/outbox.cif.g08.bks.cpg/sg71_8_cif.got.tgz:14803.got - 2010.06.03 16:22:01.
