data_PCOD9518731
_publ_section_title
;
Structure prediction by ZEFSAII (Michael W. Deem and Ramdas Pophale) SiO2 
 PCOD9518731
Probable space group: I M M M
;
_chemical_formula_sum "Si O2"
_cell_formula_units_Z 120
_cell_length_a 13.612432
_cell_length_b 25.055249
_cell_length_c 22.508356
_cell_angle_alpha 90.000000
_cell_angle_beta 90.000000
_cell_angle_gamma 90.000000
_cell_volume 7676.764570
_symmetry_space_group_name_H-M "I M M M"
_symmetry_group_IT_number 71
_symmetry_cell_setting 'orthorhombic'
loop_
_space_group_symop_operation_xyz
x,y,z
-x,-y,z
x,-y,-z
-x,y,-z
-x,-y,-z
x,y,-z
-x,y,z
x,-y,z
1/2+x,1/2+y,1/2+z
1/2-x,1/2-y,1/2+z
1/2+x,1/2-y,1/2-z
1/2-x,1/2+y,1/2-z
1/2-x,1/2-y,1/2-z
1/2+x,1/2+y,1/2-z
1/2-x,1/2+y,1/2+z
1/2+x,1/2-y,1/2+z
loop_
_atom_site_type_symbol
_atom_site_label
_atom_site_fract_x
_atom_site_fract_y
_atom_site_fract_z
Si Si1 0.115519 0.244286 0.381901
Si Si2 0.381645 0.647842 0.676151
Si Si3 0.882592 0.937035 0.500000
Si Si4 0.615208 0.185629 0.630359
Si Si5 0.618263 0.562622 0.771072
Si Si6 0.804810 0.208649 0.068186
Si Si7 0.694640 0.624450 0.885619
Si Si8 0.117745 0.253844 0.753224
O O1 0.190713 0.274663 0.424593
O O2 0.136669 0.180986 0.385866
O O3 0.146200 0.260955 0.314785
O O4 0.000000 0.254409 0.391374
O O5 0.500000 0.650227 0.668187
O O6 0.356954 0.593360 0.710018
O O7 0.331970 0.661422 0.613574
O O8 0.353457 0.696201 0.720909
O O9 0.838865 0.909616 0.441729
O O10 0.000000 0.929588 0.500000
O O11 0.862469 0.000000 0.500000
O O12 0.500000 0.172520 0.627811
O O13 0.635773 0.239177 0.591956
O O14 0.690892 0.140515 0.610657
O O15 0.644499 0.202228 0.697885
O O16 0.500000 0.568051 0.779367
O O17 0.641815 0.500000 0.769626
O O18 0.669216 0.592439 0.825926
O O19 0.828419 0.197538 0.000000
O O20 0.000000 0.253235 0.752531
#
# Coordination Sequence:
#
# PCOD9518731 Si02
#       8
#    16  16   8  16  16  16  16  16
#     4  10  19  29  47  73 106 132 156 193 239 295
#     4   9  17  30  48  69  95 125 160 202 242 283
#     4  11  24  40  53  69  97 131 172 214 248 291
#     4   9  20  33  49  73 102 129 164 202 233 283
#     4  10  19  32  52  77  98 118 154 204 254 298
#     4  10  21  31  45  70  98 137 172 191 232 289
#     4  11  21  32  53  73  96 132 167 198 248 290
#     4   8  14  28  46  69  97 129 155 184 237 290
#
# _framework density 15.631584999999999
#
# number of rings (size 3 to 8) (size 9 to 14) (size 15 to 20)
#    0.000    2.333    1.333    2.800    5.600    4.000 
#    0.000    0.000    0.000    2.400    0.000    1.867 
#    0.000    0.000    0.000    1.200    0.000    0.000 
#
# Total GULP energy -334633.117577 kJ/mol
# GULP energy per Si atom -5577.218626 kJ/mol
# Density = 1.559601 g / cm^3
# Si number density = 15.631585 Si / 1000 Ang^3
#
#
#
# Elastic Constant Matrix: (Units=GPa)
#
#
# Indices 1 2 3 4 5 6 
#
# 1 90.0004 37.7971 28.5220 0.0000 0.0000 0.0000
# 2 37.7971 72.0097 46.7337 0.0000 0.0000 0.0000
# 3 28.5220 46.7337 114.3476 0.0000 0.0000 0.0000
# 4 0.0000 0.0000 0.0000 6.0111 0.0000 0.0000
# 5 0.0000 0.0000 0.0000 0.0000 20.7197 0.0000
# 6 0.0000 0.0000 0.0000 0.0000 0.0000 17.9956
#
#
#
# Elastic Compliance Matrix: (Units=1/GPa)
#
#
# Indices 1 2 3 4 5 6 
#
# 1 0.014292 -0.007061 -0.000679 0.000000 0.000000 0.000000
# 2 -0.007061 0.022388 -0.007389 0.000000 0.000000 0.000000
# 3 -0.000679 -0.007389 0.011934 0.000000 0.000000 0.000000
# 4 0.000000 0.000000 0.000000 0.166360 0.000000 0.000000
# 5 0.000000 0.000000 0.000000 0.000000 0.048263 0.000000
# 6 0.000000 0.000000 0.000000 0.000000 0.000000 0.055569
#
#
# Mechanical properties :
#
#
# Convention : Reuss Voigt Hill
#
# Bulk Modulus (GPa) = 54.47518 55.82924 55.15221
# Shear Modulus (GPa) = 14.07724 19.83227 16.95475
#
# Velocity S-wave (km/s) = 3.00419 3.56579 3.29697
# Velocity P-wave (km/s) = 6.85264 7.26267 7.06063
#
# Compressibility (1/GPa) = 0.01835699
#
# Stress axis : x y z
#
# Youngs Moduli (GPa) = 69.97148 44.66580 83.79077
#
# Poissons Ratio (x) = 0.31537 0.05690
# Poissons Ratio (y) = 0.49405 0.61913
# Poissons Ratio (z) = 0.04751 0.33003
#
# Static dielectric constant tensor:
#      x y z
#    x 1.546280 0.000000 0.000000 
#    y 0.000000 1.495060 0.000000 
#    z 0.000000 0.000000 1.532920 
# 
# From -- ./inp_files/53521.got.cif
#   From: 2010.05.17/outbox.cif.g08.bks.cpg/sg71_27_cif.got.tgz:53521.got - 2010.06.03 16:22:01.
