data_PCOD9518343
_publ_section_title
;
Structure prediction by ZEFSAII (Michael W. Deem and Ramdas Pophale) SiO2 
 PCOD9518343
Probable space group: I M M M
;
_chemical_formula_sum "Si O2"
_cell_formula_units_Z 104
_cell_length_a 17.011423
_cell_length_b 17.813079
_cell_length_c 21.299002
_cell_angle_alpha 90.000000
_cell_angle_beta 90.000000
_cell_angle_gamma 90.000000
_cell_volume 6454.147585
_symmetry_space_group_name_H-M "I M M M"
_symmetry_group_IT_number 71
_symmetry_cell_setting 'orthorhombic'
loop_
_space_group_symop_operation_xyz
x,y,z
-x,-y,z
x,-y,-z
-x,y,-z
-x,-y,-z
x,y,-z
-x,y,z
x,-y,z
1/2+x,1/2+y,1/2+z
1/2-x,1/2-y,1/2+z
1/2+x,1/2-y,1/2-z
1/2-x,1/2+y,1/2-z
1/2-x,1/2-y,1/2-z
1/2+x,1/2+y,1/2-z
1/2-x,1/2+y,1/2+z
1/2+x,1/2-y,1/2+z
loop_
_atom_site_type_symbol
_atom_site_label
_atom_site_fract_x
_atom_site_fract_y
_atom_site_fract_z
Si Si1 0.087314 0.215761 0.640330
Si Si2 0.411728 0.136029 0.225491
Si Si3 0.255918 0.914533 0.840447
Si Si4 0.829969 0.086991 0.287914
Si Si5 0.329595 0.136653 0.643685
Si Si6 0.410046 0.000000 0.425275
Si Si7 0.242891 0.268243 0.425548
O O1 0.088721 0.285311 0.688642
O O2 0.107667 0.142438 0.681089
O O3 0.157092 0.233359 0.591547
O O4 0.000000 0.210849 0.612425
O O5 0.500000 0.104035 0.221597
O O6 0.342210 0.089329 0.192321
O O7 0.386772 0.149490 0.297244
O O8 0.194114 0.896953 0.784328
O O9 0.252252 0.849865 0.892636
O O10 0.242794 0.000000 0.862472
O O11 0.750063 0.102486 0.326674
O O12 0.851992 0.000000 0.292684
O O13 0.305050 0.211909 0.607183
O O14 0.367415 0.074089 0.599733
O O15 0.500000 0.000000 0.402531
O O16 0.409454 0.000000 0.500000
O O17 0.253604 0.272204 0.500000
#
# Coordination Sequence:
#
# PCOD9518343 Si02
#       7
#    16  16  16  16  16   8  16
#     4   9  18  31  47  69  95 121 158 205 246 287
#     4   9  17  29  48  72  97 124 152 194 250 297
#     4   9  18  31  48  74 101 123 157 202 243 291
#     4   9  16  29  49  71  93 120 151 196 252 291
#     4  10  18  32  48  69  92 126 163 196 230 288
#     4  11  22  32  44  68 101 129 154 192 235 280
#     4  10  20  33  50  67  92 135 172 198 235 283
#
# _framework density 16.113669000000002
#
# number of rings (size 3 to 8) (size 9 to 14) (size 15 to 20)
#    0.000    2.538    0.769    1.846    1.077    4.923 
#    0.000    0.000    0.000    0.000    0.000    6.462 
#    0.000    0.000    0.000   19.538    0.000    0.000 
#
# Total GULP energy -289750.458158 kJ/mol
# GULP energy per Si atom -5572.124195 kJ/mol
# Density = 1.607699 g / cm^3
# Si number density = 16.113669 Si / 1000 Ang^3
#
#
#
# Elastic Constant Matrix: (Units=GPa)
#
#
# Indices 1 2 3 4 5 6 
#
# 1 35.4596 17.8159 8.3312 0.0000 0.0000 0.0000
# 2 17.8159 92.1798 40.5204 0.0000 0.0000 0.0000
# 3 8.3312 40.5204 77.4828 0.0000 0.0000 0.0000
# 4 0.0000 0.0000 0.0000 10.7987 0.0000 0.0000
# 5 0.0000 0.0000 0.0000 0.0000 12.2323 0.0000
# 6 0.0000 0.0000 0.0000 0.0000 0.0000 15.3951
#
#
#
# Elastic Compliance Matrix: (Units=1/GPa)
#
#
# Indices 1 2 3 4 5 6 
#
# 1 0.031238 -0.005923 -0.000262 0.000000 0.000000 0.000000
# 2 -0.005923 0.015210 -0.007317 0.000000 0.000000 0.000000
# 3 -0.000262 -0.007317 0.016761 0.000000 0.000000 0.000000
# 4 0.000000 0.000000 0.000000 0.092604 0.000000 0.000000
# 5 0.000000 0.000000 0.000000 0.000000 0.081751 0.000000
# 6 0.000000 0.000000 0.000000 0.000000 0.000000 0.064956
#
#
# Mechanical properties :
#
#
# Convention : Reuss Voigt Hill
#
# Bulk Modulus (GPa) = 27.61974 37.60636 32.61305
# Shear Modulus (GPa) = 14.63743 16.91553 15.77648
#
# Velocity S-wave (km/s) = 3.01721 3.24352 3.13241
# Velocity P-wave (km/s) = 5.41441 6.11687 5.77633
#
# Compressibility (1/GPa) = 0.03620599
#
# Stress axis : x y z
#
# Youngs Moduli (GPa) = 32.01205 65.74837 59.66308
#
# Poissons Ratio (x) = 0.38940 0.01561
# Poissons Ratio (y) = 0.18959 0.43656
# Poissons Ratio (z) = 0.00837 0.48109
#
# Static dielectric constant tensor:
#      x y z
#    x 1.551860 0.000000 0.000000 
#    y 0.000000 1.534350 0.000000 
#    z 0.000000 0.000000 1.512940 
# 
# From -- ./inp_files/46117.got.cif
#   From: 2010.05.17/outbox.cif.g08.bks.cpg/sg71_24_cif.got.tgz:46117.got - 2010.06.03 16:22:01.
