data_PCOD9518734
_publ_section_title
;
Structure prediction by ZEFSAII (Michael W. Deem and Ramdas Pophale) SiO2 
 PCOD9518734
Probable space group: I M M M
;
_chemical_formula_sum "Si O2"
_cell_formula_units_Z 72
_cell_length_a 7.364920
_cell_length_b 25.106776
_cell_length_c 17.635655
_cell_angle_alpha 90.000000
_cell_angle_beta 90.000000
_cell_angle_gamma 90.000000
_cell_volume 3260.998326
_symmetry_space_group_name_H-M "I M M M"
_symmetry_group_IT_number 71
_symmetry_cell_setting 'orthorhombic'
loop_
_space_group_symop_operation_xyz
x,y,z
-x,-y,z
x,-y,-z
-x,y,-z
-x,-y,-z
x,y,-z
-x,y,z
x,-y,z
1/2+x,1/2+y,1/2+z
1/2-x,1/2-y,1/2+z
1/2+x,1/2-y,1/2-z
1/2-x,1/2+y,1/2-z
1/2-x,1/2-y,1/2-z
1/2+x,1/2+y,1/2-z
1/2-x,1/2+y,1/2+z
1/2+x,1/2-y,1/2+z
loop_
_atom_site_type_symbol
_atom_site_label
_atom_site_fract_x
_atom_site_fract_y
_atom_site_fract_z
Si Si1 0.213338 0.353393 0.297125
Si Si2 0.281505 0.735506 0.417611
Si Si3 0.778564 0.561586 0.000000
Si Si4 0.221843 0.353654 0.875016
Si Si5 0.721421 0.938927 0.915183
O O1 0.228177 0.299022 0.344858
O O2 0.285630 0.354078 0.211985
O O3 0.289289 0.398986 0.351748
O O4 0.000000 0.364386 0.288538
O O5 0.218443 0.714338 0.500000
O O6 0.500000 0.734893 0.418449
O O7 0.223309 0.796735 0.409358
O O8 0.722530 0.596403 0.926642
O O9 0.718841 0.500000 0.000000
O O10 0.000000 0.560578 0.000000
O O11 0.000000 0.353695 0.875806
O O12 0.500000 0.937387 0.915225
O O13 0.773407 0.000000 0.901427
O O14 0.779608 0.923674 0.000000
#
# Coordination Sequence:
#
# PCOD9518734 Si02
#       5
#    16  16   8  16  16
#     4  10  19  29  47  74  98 120 159 208 243 282
#     4  10  19  32  49  66  95 135 164 189 238 302
#     4   9  16  28  48  72  99 133 170 203 240 294
#     4   9  17  30  45  66  97 129 158 197 248 291
#     4   8  14  25  40  60  90 122 145 177 234 288
#
# _framework density 22.079127
#
# number of rings (size 3 to 8) (size 9 to 14) (size 15 to 20)
#    0.000    2.778    1.111    2.000    0.000    2.222 
#    0.000    4.444    0.000    0.667    0.000    3.111 
#    0.000    6.222    0.000    0.000    0.000    0.000 
#
# Total GULP energy -201025.339133 kJ/mol
# GULP energy per Si atom -5584.037198 kJ/mol
# Density = 2.202887 g / cm^3
# Si number density = 22.079127 Si / 1000 Ang^3
#
#
#
# Elastic Constant Matrix: (Units=GPa)
#
#
# Indices 1 2 3 4 5 6 
#
# 1 77.6841 -8.6858 1.5447 0.0000 0.0000 0.0000
# 2 -8.6858 147.6840 103.8163 -0.0001 0.0000 0.0000
# 3 1.5447 103.8163 206.3308 -0.0002 0.0000 0.0000
# 4 0.0000 -0.0001 -0.0002 -22.7611 -0.0001 0.0000
# 5 0.0000 0.0000 0.0000 -0.0001 1.3774 0.0000
# 6 0.0000 0.0000 0.0000 0.0000 0.0000 4.8378
#
#
#
# Elastic Compliance Matrix: (Units=1/GPa)
#
#
# Indices 1 2 3 4 5 6 
#
# 1 0.013032 0.001292 -0.000748 0.000000 0.000000 0.000000
# 2 0.001292 0.010605 -0.005346 0.000000 0.000000 0.000000
# 3 -0.000748 -0.005346 0.007542 0.000000 0.000000 0.000000
# 4 0.000000 0.000000 0.000000 -0.043935 -0.000002 0.000000
# 5 0.000000 0.000000 0.000000 -0.000002 0.726025 0.000000
# 6 0.000000 0.000000 0.000000 0.000000 0.000000 0.206707
#
#
# Mechanical properties :
#
#
# Convention : Reuss Voigt Hill
#
# Bulk Modulus (GPa) = 46.34712 69.44993 57.89853
# Shear Modulus (GPa) = 5.33748 19.02570 12.18159
#
# Velocity S-wave (km/s) = 1.55650 2.93867 2.35143
# Velocity P-wave (km/s) = 4.92617 6.56031 5.80107
#
# Compressibility (1/GPa) = 0.02157631
#
# Stress axis : x y z
#
# Youngs Moduli (GPa) = 76.73435 94.29538 132.59331
#
# Poissons Ratio (x) = -0.12183 0.09913
# Poissons Ratio (y) = -0.09914 0.70879
# Poissons Ratio (z) = 0.05737 0.50407
#
# Static dielectric constant tensor:
#      x y z
#    x 1.896800 0.000000 0.000000 
#    y 0.000000 1.770460 0.000000 
#    z 0.000000 0.000000 1.805010 
# 
# From -- ./inp_files/7965.got.cif
#   From: 2010.05.17/outbox.cif.g08.bks.cpg/sg71_4_cif.got.tgz:7965.got - 2010.06.03 16:22:01.
