data_PCOD9518139
_publ_section_title
;
Structure prediction by ZEFSAII (Michael W. Deem and Ramdas Pophale) SiO2 
 PCOD9518139
Probable space group: I M M M
;
_chemical_formula_sum "Si O2"
_cell_formula_units_Z 120
_cell_length_a 17.882344
_cell_length_b 18.865790
_cell_length_c 20.200636
_cell_angle_alpha 90.000000
_cell_angle_beta 90.000000
_cell_angle_gamma 90.000000
_cell_volume 6814.978405
_symmetry_space_group_name_H-M "I M M M"
_symmetry_group_IT_number 71
_symmetry_cell_setting 'orthorhombic'
loop_
_space_group_symop_operation_xyz
x,y,z
-x,-y,z
x,-y,-z
-x,y,-z
-x,-y,-z
x,y,-z
-x,y,z
x,-y,z
1/2+x,1/2+y,1/2+z
1/2-x,1/2-y,1/2+z
1/2+x,1/2-y,1/2-z
1/2-x,1/2+y,1/2-z
1/2-x,1/2-y,1/2-z
1/2+x,1/2+y,1/2-z
1/2-x,1/2+y,1/2+z
1/2+x,1/2-y,1/2+z
loop_
_atom_site_type_symbol
_atom_site_label
_atom_site_fract_x
_atom_site_fract_y
_atom_site_fract_z
Si Si1 0.411730 0.225507 0.676085
Si Si2 0.327407 0.581764 0.223823
Si Si3 0.087933 0.212984 0.677031
Si Si4 0.414566 0.500000 0.421220
Si Si5 0.167490 0.311336 0.422191
Si Si6 0.084867 0.580986 0.331756
Si Si7 0.659918 0.920382 0.688753
Si Si8 0.327006 0.361445 0.629343
O O1 0.500000 0.223143 0.666773
O O2 0.398161 0.243812 0.754255
O O3 0.376550 0.149632 0.658078
O O4 0.377272 0.291122 0.635977
O O5 0.350646 0.500000 0.230110
O O6 0.389650 0.632318 0.192652
O O7 0.249301 0.584485 0.184632
O O8 0.309261 0.613382 0.296054
O O9 0.142833 0.243282 0.620938
O O10 0.000000 0.219853 0.660408
O O11 0.500000 0.500000 0.394068
O O12 0.418955 0.500000 0.500000
O O13 0.370688 0.571347 0.400684
O O14 0.156914 0.301221 0.500000
O O15 0.113709 0.370438 0.390260
O O16 0.251255 0.338705 0.407310
O O17 0.085527 0.500000 0.354315
O O18 0.135279 0.583980 0.266077
O O19 0.000000 0.600344 0.312328
O O20 0.636619 0.000000 0.666348
#
# Coordination Sequence:
#
# PCOD9518139 Si02
#       8
#    16  16  16   8  16  16  16  16
#     4  10  19  33  55  80 108 144 180 228 291 346
#     4  10  19  34  57  84 110 141 179 234 295 346
#     4  10  21  36  53  79 113 146 187 240 294 341
#     4  11  24  40  56  78 115 155 188 230 283 340
#     4  12  24  36  55  76 105 151 198 235 272 328
#     4  10  20  33  48  69 104 144 183 225 268 318
#     4  10  18  30  52  80 112 145 176 217 278 344
#     4  11  21  37  55  81 110 144 190 239 278 339
#
# _framework density 17.608273000000001
#
# number of rings (size 3 to 8) (size 9 to 14) (size 15 to 20)
#    0.000    1.533    3.333    2.400    0.933    5.067 
#    0.000    0.667    0.000    0.400    0.000    0.933 
#    0.000    1.600    0.000   10.800    0.000    0.133 
#
# Total GULP energy -334700.872243 kJ/mol
# GULP energy per Si atom -5578.347871 kJ/mol
# Density = 1.756820 g / cm^3
# Si number density = 17.608273 Si / 1000 Ang^3
#
#
#
# Elastic Constant Matrix: (Units=GPa)
#
#
# Indices 1 2 3 4 5 6 
#
# 1 69.6586 35.3431 6.5295 0.0000 0.0000 0.0000
# 2 35.3431 139.1746 6.2234 0.0000 0.0000 0.0000
# 3 6.5295 6.2234 28.7296 0.0000 0.0000 0.0000
# 4 0.0000 0.0000 0.0000 12.5363 0.0000 0.0000
# 5 0.0000 0.0000 0.0000 0.0000 7.9743 0.0000
# 6 0.0000 0.0000 0.0000 0.0000 0.0000 34.2120
#
#
#
# Elastic Compliance Matrix: (Units=1/GPa)
#
#
# Indices 1 2 3 4 5 6 
#
# 1 0.016716 -0.004115 -0.002908 0.000000 0.000000 0.000000
# 2 -0.004115 0.008268 -0.000856 0.000000 0.000000 0.000000
# 3 -0.002908 -0.000856 0.035654 0.000000 0.000000 0.000000
# 4 0.000000 0.000000 0.000000 0.079768 0.000000 0.000000
# 5 0.000000 0.000000 0.000000 0.000000 0.125403 0.000000
# 6 0.000000 0.000000 0.000000 0.000000 0.000000 0.029230
#
#
# Mechanical properties :
#
#
# Convention : Reuss Voigt Hill
#
# Bulk Modulus (GPa) = 22.28122 37.08389 29.68255
# Shear Modulus (GPa) = 15.34891 23.57565 19.46228
#
# Velocity S-wave (km/s) = 2.95564 3.66306 3.32820
# Velocity P-wave (km/s) = 4.93245 6.24475 5.62699
#
# Compressibility (1/GPa) = 0.04488085
#
# Stress axis : x y z
#
# Youngs Moduli (GPa) = 59.82243 120.94113 28.04771
#
# Poissons Ratio (x) = 0.49767 0.08156
# Poissons Ratio (y) = 0.24617 0.02401
# Poissons Ratio (z) = 0.17395 0.10351
#
# Static dielectric constant tensor:
#      x y z
#    x 1.611320 0.000000 0.000000 
#    y 0.000000 1.630110 0.000000 
#    z 0.000000 0.000000 1.566340 
# 
# From -- ./inp_files/54328.got.cif
#   From: 2010.05.17/outbox.cif.g08.bks.cpg/sg71_28_cif.got.tgz:54328.got - 2010.06.03 16:22:01.
