data_PCOD9518921
_publ_section_title
;
Structure prediction by ZEFSAII (Michael W. Deem and Ramdas Pophale) SiO2 
 PCOD9518921
Probable space group: I M M M
;
_chemical_formula_sum "Si O2"
_cell_formula_units_Z 96
_cell_length_a 22.139514
_cell_length_b 12.810165
_cell_length_c 19.867535
_cell_angle_alpha 90.000000
_cell_angle_beta 90.000000
_cell_angle_gamma 90.000000
_cell_volume 5634.648039
_symmetry_space_group_name_H-M "I M M M"
_symmetry_group_IT_number 71
_symmetry_cell_setting 'orthorhombic'
loop_
_space_group_symop_operation_xyz
x,y,z
-x,-y,z
x,-y,-z
-x,y,-z
-x,-y,-z
x,y,-z
-x,y,z
x,-y,z
1/2+x,1/2+y,1/2+z
1/2-x,1/2-y,1/2+z
1/2+x,1/2-y,1/2-z
1/2-x,1/2+y,1/2-z
1/2-x,1/2-y,1/2-z
1/2+x,1/2+y,1/2-z
1/2-x,1/2+y,1/2+z
1/2+x,1/2-y,1/2+z
loop_
_atom_site_type_symbol
_atom_site_label
_atom_site_fract_x
_atom_site_fract_y
_atom_site_fract_z
Si Si1 0.139060 0.378914 0.419346
Si Si2 0.683012 0.620126 0.233406
Si Si3 0.835427 0.618950 0.924954
Si Si4 0.068197 0.381166 0.807873
Si Si5 0.070389 0.229395 0.680965
Si Si6 0.742818 0.717643 0.641973
O O1 0.139316 0.364318 0.500000
O O2 0.122190 0.500000 0.405563
O O3 0.095420 0.295687 0.382379
O O4 0.205508 0.356096 0.388582
O O5 0.700965 0.500000 0.227102
O O6 0.616073 0.637768 0.203009
O O7 0.695247 0.656634 0.310440
O O8 0.724508 0.696941 0.189462
O O9 0.810656 0.500000 0.916638
O O10 0.884756 0.634912 0.867226
O O11 0.788124 0.711425 0.914581
O O12 0.861357 0.623820 0.000000
O O13 0.075266 0.500000 0.783765
O O14 0.076259 0.306716 0.744825
O O15 0.000000 0.368516 0.833713
O O16 0.000000 0.200991 0.672491
#
# Coordination Sequence:
#
# PCOD9518921 Si02
#       6
#    16  16  16  16  16  16
#     4  10  21  35  53  79 109 140 174 213 259 313
#     4  10  20  33  53  78 101 131 172 217 261 304
#     4  10  19  30  48  74 103 136 170 206 253 309
#     4   9  17  30  48  71  99 131 169 211 255 303
#     4  10  20  35  54  76 102 135 173 214 262 309
#     4  10  19  34  51  75 105 139 168 212 259 310
#
# _framework density 17.037444000000001
#
# number of rings (size 3 to 8) (size 9 to 14) (size 15 to 20)
#    0.000    2.167    1.667    2.000    0.000    2.000 
#    0.000    2.500    0.000    4.500    0.000    4.667 
#    0.000    2.667    0.000    0.000    0.000    0.000 
#
# Total GULP energy -267420.397168 kJ/mol
# GULP energy per Si atom -5571.258274 kJ/mol
# Density = 1.699867 g / cm^3
# Si number density = 17.037444 Si / 1000 Ang^3
#
#
#
# Elastic Constant Matrix: (Units=GPa)
#
#
# Indices 1 2 3 4 5 6 
#
# 1 45.2158 13.8125 16.8591 0.0000 0.0000 0.0000
# 2 13.8125 44.0263 15.2671 0.0000 0.0000 0.0000
# 3 16.8591 15.2671 70.6679 0.0000 0.0000 0.0000
# 4 0.0000 0.0000 0.0000 22.2235 0.0000 0.0000
# 5 0.0000 0.0000 0.0000 0.0000 -126.5664 0.0000
# 6 0.0000 0.0000 0.0000 0.0000 0.0000 10.7642
#
#
#
# Elastic Compliance Matrix: (Units=1/GPa)
#
#
# Indices 1 2 3 4 5 6 
#
# 1 0.025870 -0.006460 -0.004776 0.000000 0.000000 0.000000
# 2 -0.006460 0.026166 -0.004112 0.000000 0.000000 0.000000
# 3 -0.004776 -0.004112 0.016178 0.000000 0.000000 0.000000
# 4 0.000000 0.000000 0.000000 0.044997 0.000000 0.000000
# 5 0.000000 0.000000 0.000000 0.000000 -0.007901 0.000000
# 6 0.000000 0.000000 0.000000 0.000000 0.000000 0.092901
#
#
# Mechanical properties :
#
#
# Convention : Reuss Voigt Hill
#
# Bulk Modulus (GPa) = 26.65324 27.97640 27.31482
# Shear Modulus (GPa) = 20.71119 -11.11768 4.79676
#
# Velocity S-wave (km/s) = 3.49037 -2.55726 1.67974
# Velocity P-wave (km/s) = 5.64991 2.78150 4.45299
#
# Compressibility (1/GPa) = 0.03751889
#
# Stress axis : x y z
#
# Youngs Moduli (GPa) = 38.65410 38.21701 61.81051
#
# Poissons Ratio (x) = 0.24689 0.29522
# Poissons Ratio (y) = 0.24971 0.25415
# Poissons Ratio (z) = 0.18462 0.15714
#
# Static dielectric constant tensor:
#      x y z
#    x 1.600900 0.000000 0.000000 
#    y 0.000000 1.570100 0.000000 
#    z 0.000000 0.000000 1.561980 
# 
# From -- ./inp_files/24196.got.cif
#   From: 2010.05.17/outbox.cif.g08.bks.cpg/sg71_13_cif.got.tgz:24196.got - 2010.06.03 16:22:01.
