data_PCOD9518396
_publ_section_title
;
Structure prediction by ZEFSAII (Michael W. Deem and Ramdas Pophale) SiO2 
 PCOD9518396
Probable space group: I M M M
;
_chemical_formula_sum "Si O2"
_cell_formula_units_Z 88
_cell_length_a 18.474388
_cell_length_b 29.532985
_cell_length_c 7.520563
_cell_angle_alpha 90.000000
_cell_angle_beta 90.000000
_cell_angle_gamma 90.000000
_cell_volume 4103.247929
_symmetry_space_group_name_H-M "I M M M"
_symmetry_group_IT_number 71
_symmetry_cell_setting 'orthorhombic'
loop_
_space_group_symop_operation_xyz
x,y,z
-x,-y,z
x,-y,-z
-x,y,-z
-x,-y,-z
x,y,-z
-x,y,z
x,-y,z
1/2+x,1/2+y,1/2+z
1/2-x,1/2-y,1/2+z
1/2+x,1/2-y,1/2-z
1/2-x,1/2+y,1/2-z
1/2-x,1/2-y,1/2-z
1/2+x,1/2+y,1/2-z
1/2-x,1/2+y,1/2+z
1/2+x,1/2-y,1/2+z
loop_
_atom_site_type_symbol
_atom_site_label
_atom_site_fract_x
_atom_site_fract_y
_atom_site_fract_z
Si Si1 0.000000 0.816023 0.711435
Si Si2 0.583781 0.000000 0.717786
Si Si3 0.651218 0.278884 0.216099
Si Si4 0.657115 0.553463 0.795565
Si Si5 0.689288 0.920168 0.707106
Si Si6 0.500000 0.423433 0.210823
Si Si7 0.198102 0.680351 0.707179
O O1 0.074147 0.795690 0.781979
O O2 0.000000 0.869662 0.728090
O O3 0.000000 0.806041 0.500000
O O4 0.629393 0.955457 0.775747
O O5 0.500000 0.000000 0.776837
O O6 0.581218 0.000000 0.500000
O O7 0.715809 0.312274 0.270928
O O8 0.666741 0.227737 0.279539
O O9 0.652383 0.278549 0.000000
O O10 0.670207 0.500000 0.802738
O O11 0.729948 0.574106 0.713052
O O12 0.577356 0.560499 0.715632
O O13 0.651531 0.571730 0.000000
O O14 0.697530 0.932836 0.500000
O O15 0.671389 0.867098 0.716065
O O16 0.500000 0.437261 0.000000
O O17 0.180358 0.678650 0.500000
#
# Coordination Sequence:
#
# PCOD9518396 Si02
#       7
#     8   8  16  16  16   8  16
#     4   9  16  29  49  74  98 127 169 212 254 297
#     4   9  18  34  55  78 102 130 173 227 270 307
#     4   9  18  34  54  74 101 136 173 213 255 303
#     4   9  15  24  40  66  97 126 157 196 239 282
#     4  10  18  32  54  75  98 132 172 213 259 310
#     4   9  15  20  35  67 100 122 149 195 242 280
#     4  10  20  33  51  77 105 135 170 210 257 312
#
# _framework density 21.446425000000001
#
# number of rings (size 3 to 8) (size 9 to 14) (size 15 to 20)
#    0.000    2.636    0.909    1.909    0.000    4.727 
#    1.636    0.909    0.000    0.545    0.000    0.000 
#    0.000    2.909    0.000    0.000    0.000    0.000 
#
# Total GULP energy -245406.767637 kJ/mol
# GULP energy per Si atom -5577.426537 kJ/mol
# Density = 2.139761 g / cm^3
# Si number density = 21.446425 Si / 1000 Ang^3
#
#
#
# Elastic Constant Matrix: (Units=GPa)
#
#
# Indices 1 2 3 4 5 6 
#
# 1 69.1755 35.9685 8.3789 0.0003 0.0003 0.0001
# 2 35.9685 90.2176 5.2789 0.0004 0.0007 0.0002
# 3 8.3789 5.2789 52.2754 0.0017 0.0008 0.0000
# 4 0.0003 0.0004 0.0017 10.7043 0.0003 0.0001
# 5 0.0003 0.0007 0.0008 0.0003 -2.5820 0.0000
# 6 0.0001 0.0002 0.0000 0.0001 0.0000 18.0775
#
#
#
# Elastic Compliance Matrix: (Units=1/GPa)
#
#
# Indices 1 2 3 4 5 6 
#
# 1 0.018492 -0.007242 -0.002233 0.000000 -0.000001 0.000000
# 2 -0.007242 0.013986 -0.000252 0.000000 0.000003 0.000000
# 3 -0.002233 -0.000252 0.019513 -0.000003 0.000006 0.000000
# 4 0.000000 0.000000 -0.000003 0.093420 0.000013 0.000000
# 5 -0.000001 0.000003 0.000006 0.000013 -0.387300 0.000001
# 6 0.000000 0.000000 0.000000 0.000000 0.000001 0.055317
#
#
# Mechanical properties :
#
#
# Convention : Reuss Voigt Hill
#
# Bulk Modulus (GPa) = 30.73264 34.54677 32.63971
# Shear Modulus (GPa) = -31.99519 16.04279 -7.97620
#
# Velocity S-wave (km/s) = -3.86666 2.73800 -1.93060
# Velocity P-wave (km/s) = 2.36086 5.11262 3.20665
#
# Compressibility (1/GPa) = 0.03253869
#
# Stress axis : x y z
#
# Youngs Moduli (GPa) = 54.07783 71.49889 51.24857
#
# Poissons Ratio (x) = 0.51778 0.11442
# Poissons Ratio (y) = 0.39162 0.01290
# Poissons Ratio (z) = 0.12074 0.01799
#
# Static dielectric constant tensor:
#      x y z
#    x 1.792290 0.000000 0.000000 
#    y 0.000000 1.761050 0.000000 
#    z 0.000000 0.000000 1.817360 
# 
# From -- ./inp_files/8932.got.cif
#   From: 2010.05.17/outbox.cif.g08.bks.cpg/sg71_5_cif.got.tgz:8932.got - 2010.06.03 16:22:01.
