data_PCOD9518882
_publ_section_title
;
Structure prediction by ZEFSAII (Michael W. Deem and Ramdas Pophale) SiO2 
 PCOD9518882
Probable space group: I M M M
;
_chemical_formula_sum "Si O2"
_cell_formula_units_Z 104
_cell_length_a 23.395075
_cell_length_b 28.593529
_cell_length_c 9.236474
_cell_angle_alpha 90.000000
_cell_angle_beta 90.000000
_cell_angle_gamma 90.000000
_cell_volume 6178.718551
_symmetry_space_group_name_H-M "I M M M"
_symmetry_group_IT_number 71
_symmetry_cell_setting 'orthorhombic'
loop_
_space_group_symop_operation_xyz
x,y,z
-x,-y,z
x,-y,-z
-x,y,-z
-x,-y,-z
x,y,-z
-x,y,z
x,-y,z
1/2+x,1/2+y,1/2+z
1/2-x,1/2-y,1/2+z
1/2+x,1/2-y,1/2-z
1/2-x,1/2+y,1/2-z
1/2-x,1/2-y,1/2-z
1/2+x,1/2+y,1/2-z
1/2-x,1/2+y,1/2+z
1/2+x,1/2-y,1/2+z
loop_
_atom_site_type_symbol
_atom_site_label
_atom_site_fract_x
_atom_site_fract_y
_atom_site_fract_z
Si Si1 0.867687 0.644051 0.325923
Si Si2 0.933472 0.737264 0.671771
Si Si3 0.627044 0.320764 0.330223
Si Si4 0.066304 0.553346 0.323483
Si Si5 0.568881 0.593686 0.168711
Si Si6 0.243522 0.299793 0.671288
Si Si7 0.569525 0.500000 0.665933
O O1 0.861326 0.638986 0.500000
O O2 0.915271 0.683928 0.300744
O O3 0.891024 0.594164 0.271569
O O4 0.808173 0.667284 0.274053
O O5 0.924737 0.746178 0.500000
O O6 0.894465 0.772101 0.762830
O O7 0.000000 0.745054 0.704388
O O8 0.612886 0.322494 0.500000
O O9 0.595936 0.361902 0.245478
O O10 0.695214 0.324408 0.314466
O O11 0.067293 0.554100 0.500000
O O12 0.080665 0.500000 0.279454
O O13 0.000000 0.562783 0.282330
O O14 0.500000 0.596948 0.178157
O O15 0.587220 0.546532 0.250109
O O16 0.584083 0.591849 0.000000
O O17 0.233106 0.290692 0.500000
O O18 0.250000 0.250000 0.750000
O O19 0.500000 0.500000 0.664807
O O20 0.588953 0.500000 0.500000
#
# Coordination Sequence:
#
# PCOD9518882 Si02
#       7
#    16  16  16  16  16  16   8
#     4   9  16  28  46  66  94 129 164 202 243 295
#     4  10  19  30  47  71  97 127 162 199 246 304
#     4  11  22  33  47  69  98 131 168 209 255 303
#     4   8  13  22  40  69 101 128 155 193 246 303
#     4  10  20  34  53  76 101 132 170 207 248 304
#     4  10  20  34  51  69  93 129 172 209 247 298
#     4   9  17  31  53  79 105 131 159 199 252 301
#
# _framework density 16.831969000000001
#
# number of rings (size 3 to 8) (size 9 to 14) (size 15 to 20)
#    0.000    2.385    1.538    2.538    0.000    6.462 
#    0.000    0.000    1.692    0.000    0.000    0.000 
#    0.000    1.846    0.000    8.462    0.000    7.692 
#
# Total GULP energy -289839.380970 kJ/mol
# GULP energy per Si atom -5573.834249 kJ/mol
# Density = 1.679366 g / cm^3
# Si number density = 16.831969 Si / 1000 Ang^3
#
#
#
# Elastic Constant Matrix: (Units=GPa)
#
#
# Indices 1 2 3 4 5 6 
#
# 1 75.5112 47.5203 30.9574 0.0000 0.0000 0.0000
# 2 47.5203 133.5709 42.5086 0.0000 0.0000 0.0000
# 3 30.9574 42.5086 51.9487 0.0000 0.0000 0.0000
# 4 0.0000 0.0000 0.0000 11.3318 0.0000 0.0000
# 5 0.0000 0.0000 0.0000 0.0000 14.6442 0.0000
# 6 0.0000 0.0000 0.0000 0.0000 0.0000 16.7614
#
#
#
# Elastic Compliance Matrix: (Units=1/GPa)
#
#
# Indices 1 2 3 4 5 6 
#
# 1 0.019202 -0.004313 -0.007914 0.000000 0.000000 0.000000
# 2 -0.004313 0.011091 -0.006506 0.000000 0.000000 0.000000
# 3 -0.007914 -0.006506 0.029289 0.000000 0.000000 0.000000
# 4 0.000000 0.000000 0.000000 0.088247 0.000000 0.000000
# 5 0.000000 0.000000 0.000000 0.000000 0.068286 0.000000
# 6 0.000000 0.000000 0.000000 0.000000 0.000000 0.059661
#
#
# Mechanical properties :
#
#
# Convention : Reuss Voigt Hill
#
# Bulk Modulus (GPa) = 45.21239 55.88927 50.55083
# Shear Modulus (GPa) = 15.59510 17.88379 16.73945
#
# Velocity S-wave (km/s) = 3.04718 3.26312 3.15700
# Velocity P-wave (km/s) = 6.26895 6.89011 6.58685
#
# Compressibility (1/GPa) = 0.02211783
#
# Stress axis : x y z
#
# Youngs Moduli (GPa) = 52.07922 90.15925 34.14232
#
# Poissons Ratio (x) = 0.38884 0.27019
# Poissons Ratio (y) = 0.22461 0.22212
# Poissons Ratio (z) = 0.41213 0.58656
#
# Static dielectric constant tensor:
#      x y z
#    x 1.574300 0.000000 0.000000 
#    y 0.000000 1.564900 0.000000 
#    z 0.000000 0.000000 1.565960 
# 
# From -- ./inp_files/13348.got.cif
#   From: 2010.05.17/outbox.cif.g08.bks.cpg/sg71_7_cif.got.tgz:13348.got - 2010.06.03 16:22:01.
