data_PCOD9518536
_publ_section_title
;
Structure prediction by ZEFSAII (Michael W. Deem and Ramdas Pophale) SiO2 
 PCOD9518536
Probable space group: I M M M
;
_chemical_formula_sum "Si O2"
_cell_formula_units_Z 82
_cell_length_a 23.048123
_cell_length_b 7.599350
_cell_length_c 22.699461
_cell_angle_alpha 90.000000
_cell_angle_beta 90.000000
_cell_angle_gamma 90.000000
_cell_volume 3975.827699
_symmetry_space_group_name_H-M "I M M M"
_symmetry_group_IT_number 71
_symmetry_cell_setting 'orthorhombic'
loop_
_space_group_symop_operation_xyz
x,y,z
-x,-y,z
x,-y,-z
-x,y,-z
-x,-y,-z
x,y,-z
-x,y,z
x,-y,z
1/2+x,1/2+y,1/2+z
1/2-x,1/2-y,1/2+z
1/2+x,1/2-y,1/2-z
1/2-x,1/2+y,1/2-z
1/2-x,1/2-y,1/2-z
1/2+x,1/2+y,1/2-z
1/2-x,1/2+y,1/2+z
1/2+x,1/2-y,1/2+z
loop_
_atom_site_type_symbol
_atom_site_label
_atom_site_fract_x
_atom_site_fract_y
_atom_site_fract_z
Si Si1 0.337620 0.714123 0.881403
Si Si2 0.401042 0.804222 0.000000
Si Si3 0.092186 0.207125 0.836887
Si Si4 0.774493 0.709498 0.184407
Si Si5 0.062887 0.785126 0.292131
Si Si6 0.000000 0.000000 0.500000
Si Si7 0.000000 0.784451 0.067942
O O1 0.337879 0.500000 0.882685
O O2 0.274186 0.773046 0.861301
O O3 0.383685 0.771611 0.831705
O O4 0.360730 0.780811 0.942988
O O5 0.449368 0.653715 0.000000
O O6 0.426298 0.000000 0.000000
O O7 0.161569 0.224666 0.832107
O O8 0.068882 0.279314 0.774688
O O9 0.056507 0.272852 0.893625
O O10 0.078997 0.000000 0.835694
O O11 0.777670 0.500000 0.180893
O O12 0.750000 0.750000 0.250000
O O13 0.000000 0.735226 0.316906
O O14 0.064740 0.000000 0.291272
O O15 0.000000 0.000000 0.065234
O O16 0.000000 0.724109 0.000000
#
# Coordination Sequence:
#
# PCOD9518536 Si02
#       7
#    16   8  16  16  16   2   8
#     4  10  21  40  62  85 126 175 217 269 331 387
#     4  12  27  45  71 100 127 178 227 268 331 401
#     4  10  18  34  58  86 122 160 207 261 310 379
#     4  11  22  37  61  91 126 168 210 260 331 389
#     4   9  16  28  55  86 112 158 208 250 318 383
#     4  12  26  52  72  90 140 168 218 274 334 390
#     4   9  18  34  60  91 123 161 204 258 321 375
#
# _framework density 20.624635999999999
#
# number of rings (size 3 to 8) (size 9 to 14) (size 15 to 20)
#    0.000    1.854    3.902    0.732    1.366    1.561 
#    1.756    0.488    0.000    1.756    0.000    0.000 
#    0.000    0.000    0.000    0.000    0.000    0.000 
#
# Total GULP energy -228628.616767 kJ/mol
# GULP energy per Si atom -5576.307726 kJ/mol
# Density = 2.057769 g / cm^3
# Si number density = 20.624636 Si / 1000 Ang^3
#
#
#
# Elastic Constant Matrix: (Units=GPa)
#
#
# Indices 1 2 3 4 5 6 
#
# 1 164.1764 3.8466 72.7444 0.0000 0.0000 0.0000
# 2 3.8466 68.4881 9.8782 0.0000 0.0000 0.0000
# 3 72.7444 9.8782 153.0232 0.0000 0.0000 0.0000
# 4 0.0000 0.0000 0.0000 0.1586 0.0000 0.0000
# 5 0.0000 0.0000 0.0000 0.0000 -19.6836 0.0000
# 6 0.0000 0.0000 0.0000 0.0000 0.0000 23.2139
#
#
#
# Elastic Compliance Matrix: (Units=1/GPa)
#
#
# Indices 1 2 3 4 5 6 
#
# 1 0.007717 0.000097 -0.003675 0.000000 0.000000 0.000000
# 2 0.000097 0.014740 -0.000997 0.000000 0.000000 0.000000
# 3 -0.003675 -0.000997 0.008346 0.000000 0.000000 0.000000
# 4 0.000000 0.000000 0.000000 6.305451 0.000000 0.000000
# 5 0.000000 0.000000 0.000000 0.000000 -0.050804 0.000000
# 6 0.000000 0.000000 0.000000 0.000000 0.000000 0.043078
#
#
# Mechanical properties :
#
#
# Convention : Reuss Voigt Hill
#
# Bulk Modulus (GPa) = 46.18592 62.06957 54.12775
# Shear Modulus (GPa) = 0.78803 20.68569 10.73686
#
# Velocity S-wave (km/s) = 0.61880 3.17039 2.28411
# Velocity P-wave (km/s) = 4.79090 6.60015 5.76692
#
# Compressibility (1/GPa) = 0.02165162
#
# Stress axis : x y z
#
# Youngs Moduli (GPa) = 129.58437 67.84484 119.81424
#
# Poissons Ratio (x) = -0.00655 0.44029
# Poissons Ratio (y) = -0.01252 0.11950
# Poissons Ratio (z) = 0.47619 0.06767
#
# Static dielectric constant tensor:
#      x y z
#    x 1.917150 0.000000 0.000000 
#    y 0.000000 1.762950 0.000000 
#    z 0.000000 0.000000 1.726080 
# 
# From -- ./inp_files/61053.got.cif
#   From: 2010.05.17/outbox.cif.g08.bks.cpg/sg71_31_cif.got.tgz:61053.got - 2010.06.03 16:22:01.
