data_PCOD9518880
_publ_section_title
;
Structure prediction by ZEFSAII (Michael W. Deem and Ramdas Pophale) SiO2 
 PCOD9518880
Probable space group: I M M M
;
_chemical_formula_sum "Si O2"
_cell_formula_units_Z 80
_cell_length_a 19.896895
_cell_length_b 27.079278
_cell_length_c 8.307873
_cell_angle_alpha 90.000000
_cell_angle_beta 90.000000
_cell_angle_gamma 90.000000
_cell_volume 4476.228395
_symmetry_space_group_name_H-M "I M M M"
_symmetry_group_IT_number 71
_symmetry_cell_setting 'orthorhombic'
loop_
_space_group_symop_operation_xyz
x,y,z
-x,-y,z
x,-y,-z
-x,y,-z
-x,-y,-z
x,y,-z
-x,y,z
x,-y,z
1/2+x,1/2+y,1/2+z
1/2-x,1/2-y,1/2+z
1/2+x,1/2-y,1/2-z
1/2-x,1/2+y,1/2-z
1/2-x,1/2-y,1/2-z
1/2+x,1/2+y,1/2-z
1/2-x,1/2+y,1/2+z
1/2+x,1/2-y,1/2+z
loop_
_atom_site_type_symbol
_atom_site_label
_atom_site_fract_x
_atom_site_fract_y
_atom_site_fract_z
Si Si1 0.671841 0.356698 0.191566
Si Si2 0.672670 0.251511 0.692315
Si Si3 0.327070 0.856528 0.696814
Si Si4 0.077426 0.555645 0.803584
Si Si5 0.577228 0.555617 0.305874
O O1 0.644131 0.303038 0.244013
O O2 0.749349 0.361280 0.250546
O O3 0.626628 0.401854 0.248531
O O4 0.674555 0.357046 0.000000
O O5 0.670985 0.253341 0.500000
O O6 0.750000 0.250000 0.750000
O O7 0.645415 0.197779 0.743865
O O8 0.326502 0.857482 0.500000
O O9 0.372815 0.901647 0.753061
O O10 0.096648 0.500000 0.753627
O O11 0.000000 0.564375 0.755941
O O12 0.078605 0.556150 0.000000
O O13 0.577409 0.555626 0.500000
O O14 0.500000 0.564440 0.253686
O O15 0.596498 0.500000 0.252666
#
# Coordination Sequence:
#
# PCOD9518880 Si02
#       5
#    16  16  16  16  16
#     4  10  19  30  47  71  96 123 155 193 238 286
#     4   9  16  28  45  65  93 127 159 195 238 281
#     4   8  15  26  40  62  91 122 157 193 229 270
#     4   8  13  22  37  57  84 118 150 181 221 266
#     4   9  19  36  54  70  92 123 156 192 238 291
#
# _framework density 17.872188999999999
#
# number of rings (size 3 to 8) (size 9 to 14) (size 15 to 20)
#    0.000    3.200    0.000    3.600    0.000    1.600 
#    0.000    4.000    0.000    3.600    0.000    0.000 
#    0.000   16.000    0.000   81.400    0.000   73.600 
#
# Total GULP energy -222687.180343 kJ/mol
# GULP energy per Si atom -5567.179509 kJ/mol
# Density = 1.783151 g / cm^3
# Si number density = 17.872189 Si / 1000 Ang^3
#
#
#
# Elastic Constant Matrix: (Units=GPa)
#
#
# Indices 1 2 3 4 5 6 
#
# 1 68.7992 100.8333 13.6162 0.0000 0.0000 0.0000
# 2 100.8333 224.6284 24.8125 0.0000 0.0000 0.0000
# 3 13.6162 24.8125 15.9626 0.0000 0.0000 0.0000
# 4 0.0000 0.0000 0.0000 21.9705 0.0000 0.0000
# 5 0.0000 0.0000 0.0000 0.0000 15.2548 0.0000
# 6 0.0000 0.0000 0.0000 0.0000 0.0000 -21.0723
#
#
#
# Elastic Compliance Matrix: (Units=1/GPa)
#
#
# Indices 1 2 3 4 5 6 
#
# 1 0.043343 -0.018559 -0.008124 0.000000 0.000000 0.000000
# 2 -0.018559 0.013321 -0.004876 0.000000 0.000000 0.000000
# 3 -0.008124 -0.004876 0.077155 0.000000 0.000000 0.000000
# 4 0.000000 0.000000 0.000000 0.045515 0.000000 0.000000
# 5 0.000000 0.000000 0.000000 0.000000 0.065553 0.000000
# 6 0.000000 0.000000 0.000000 0.000000 0.000000 -0.047456
#
#
# Mechanical properties :
#
#
# Convention : Reuss Voigt Hill
#
# Bulk Modulus (GPa) = 14.14376 65.32381 39.73379
# Shear Modulus (GPa) = 17.59834 14.57249 16.08541
#
# Velocity S-wave (km/s) = 3.14136 2.85857 3.00330
# Velocity P-wave (km/s) = 4.59223 6.89385 5.85720
#
# Compressibility (1/GPa) = 0.07070254
#
# Stress axis : x y z
#
# Youngs Moduli (GPa) = 23.07170 75.06781 12.96085
#
# Poissons Ratio (x) = 1.39318 0.10529
# Poissons Ratio (y) = 0.42819 0.06320
# Poissons Ratio (z) = 0.18743 0.36602
#
# Static dielectric constant tensor:
#      x y z
#    x 1.593700 0.000000 0.000000 
#    y 0.000000 1.639700 0.000000 
#    z 0.000000 0.000000 1.624870 
# 
# From -- ./inp_files/8345.got.cif
#   From: 2010.05.17/outbox.cif.g08.bks.cpg/sg71_5_cif.got.tgz:8345.got - 2010.06.03 16:22:01.
