data_PCOD9518730
_publ_section_title
;
Structure prediction by ZEFSAII (Michael W. Deem and Ramdas Pophale) SiO2 
 PCOD9518730
Probable space group: I M M M
;
_chemical_formula_sum "Si O2"
_cell_formula_units_Z 96
_cell_length_a 23.505558
_cell_length_b 21.859152
_cell_length_c 10.732227
_cell_angle_alpha 90.000000
_cell_angle_beta 90.000000
_cell_angle_gamma 90.000000
_cell_volume 5514.342353
_symmetry_space_group_name_H-M "I M M M"
_symmetry_group_IT_number 71
_symmetry_cell_setting 'orthorhombic'
loop_
_space_group_symop_operation_xyz
x,y,z
-x,-y,z
x,-y,-z
-x,y,-z
-x,-y,-z
x,y,-z
-x,y,z
x,-y,z
1/2+x,1/2+y,1/2+z
1/2-x,1/2-y,1/2+z
1/2+x,1/2-y,1/2-z
1/2-x,1/2+y,1/2-z
1/2-x,1/2-y,1/2-z
1/2+x,1/2+y,1/2-z
1/2-x,1/2+y,1/2+z
1/2+x,1/2-y,1/2+z
loop_
_atom_site_type_symbol
_atom_site_label
_atom_site_fract_x
_atom_site_fract_y
_atom_site_fract_z
Si Si1 0.500000 0.365797 0.144102
Si Si2 0.331166 0.067989 0.351620
Si Si3 0.774662 0.856150 0.737817
Si Si4 0.198940 0.268514 0.368234
Si Si5 0.877743 0.072255 0.646236
Si Si6 0.000000 0.763630 0.857726
Si Si7 0.881776 0.306139 0.144196
O O1 0.557342 0.405549 0.158793
O O2 0.500000 0.313884 0.249271
O O3 0.500000 0.342462 0.000000
O O4 0.323629 0.064580 0.500000
O O5 0.272317 0.093609 0.296727
O O6 0.377364 0.121171 0.330109
O O7 0.344832 0.000000 0.305270
O O8 0.777297 0.800116 0.639731
O O9 0.749072 0.818578 0.854261
O O10 0.835607 0.888477 0.732976
O O11 0.168858 0.277294 0.500000
O O12 0.158148 0.276374 0.249274
O O13 0.861234 0.082159 0.500000
O O14 0.872990 0.000000 0.671099
O O15 0.943986 0.722115 0.845854
O O16 0.000000 0.789536 0.000000
O O17 0.862385 0.296454 0.000000
#
# Coordination Sequence:
#
# PCOD9518730 Si02
#       7
#     8  16  16  16  16   8  16
#     4  10  21  36  54  79 107 135 173 218 260 304
#     4   9  16  28  47  70  96 126 161 202 247 295
#     4  10  19  29  47  72 101 132 168 205 251 306
#     4  10  20  33  50  75 107 136 165 209 259 302
#     4  10  19  32  52  77 105 137 175 220 263 302
#     4  10  20  35  54  77 106 138 171 210 258 310
#     4   9  19  34  52  75 103 134 169 209 254 305
#
# _framework density 17.409148999999999
#
# number of rings (size 3 to 8) (size 9 to 14) (size 15 to 20)
#    0.000    2.333    0.000    3.250    0.000    9.000 
#    0.000    1.250    0.000   17.000    0.000    0.000 
#    0.000    6.000    0.000    0.000    0.000    0.000 
#
# Total GULP energy -267294.512489 kJ/mol
# GULP energy per Si atom -5568.635677 kJ/mol
# Density = 1.736952 g / cm^3
# Si number density = 17.409149 Si / 1000 Ang^3
#
#
#
# Elastic Constant Matrix: (Units=GPa)
#
#
# Indices 1 2 3 4 5 6 
#
# 1 84.6051 33.1085 41.2233 0.0000 0.0000 0.0000
# 2 33.1085 95.0101 36.7969 0.0000 0.0000 0.0000
# 3 41.2233 36.7969 86.6756 0.0000 0.0000 0.0000
# 4 0.0000 0.0000 0.0000 13.3940 0.0000 0.0000
# 5 0.0000 0.0000 0.0000 0.0000 16.4525 0.0000
# 6 0.0000 0.0000 0.0000 0.0000 0.0000 18.6072
#
#
#
# Elastic Compliance Matrix: (Units=1/GPa)
#
#
# Indices 1 2 3 4 5 6 
#
# 1 0.016147 -0.003175 -0.006332 0.000000 0.000000 0.000000
# 2 -0.003175 0.013220 -0.004103 0.000000 0.000000 0.000000
# 3 -0.006332 -0.004103 0.016291 0.000000 0.000000 0.000000
# 4 0.000000 0.000000 0.000000 0.074661 0.000000 0.000000
# 5 0.000000 0.000000 0.000000 0.000000 0.060781 0.000000
# 6 0.000000 0.000000 0.000000 0.000000 0.000000 0.053743
#
#
# Mechanical properties :
#
#
# Convention : Reuss Voigt Hill
#
# Bulk Modulus (GPa) = 54.23086 54.28310 54.25698
# Shear Modulus (GPa) = 18.64232 20.03488 19.33860
#
# Velocity S-wave (km/s) = 3.27591 3.39606 3.33653
# Velocity P-wave (km/s) = 6.74738 6.82833 6.78798
#
# Compressibility (1/GPa) = 0.01843969
#
# Stress axis : x y z
#
# Youngs Moduli (GPa) = 61.93063 75.64076 61.38540
#
# Poissons Ratio (x) = 0.24012 0.38869
# Poissons Ratio (y) = 0.19660 0.25185
# Poissons Ratio (z) = 0.39214 0.31033
#
# Static dielectric constant tensor:
#      x y z
#    x 1.598650 0.000000 0.000000 
#    y 0.000000 1.598630 0.000000 
#    z 0.000000 0.000000 1.610280 
# 
# From -- ./inp_files/27583.got.cif
#   From: 2010.05.17/outbox.cif.g08.bks.cpg/sg71_14_cif.got.tgz:27583.got - 2010.06.03 16:22:01.
