data_PCOD9518983
_publ_section_title
;
Structure prediction by ZEFSAII (Michael W. Deem and Ramdas Pophale) SiO2 
 PCOD9518983
Probable space group: I M M M
;
_chemical_formula_sum "Si O2"
_cell_formula_units_Z 72
_cell_length_a 8.387560
_cell_length_b 20.329019
_cell_length_c 21.209368
_cell_angle_alpha 90.000000
_cell_angle_beta 90.000000
_cell_angle_gamma 90.000000
_cell_volume 3616.427718
_symmetry_space_group_name_H-M "I M M M"
_symmetry_group_IT_number 71
_symmetry_cell_setting 'orthorhombic'
loop_
_space_group_symop_operation_xyz
x,y,z
-x,-y,z
x,-y,-z
-x,y,-z
-x,-y,-z
x,y,-z
-x,y,z
x,-y,z
1/2+x,1/2+y,1/2+z
1/2-x,1/2-y,1/2+z
1/2+x,1/2-y,1/2-z
1/2-x,1/2+y,1/2-z
1/2-x,1/2-y,1/2-z
1/2+x,1/2+y,1/2-z
1/2-x,1/2+y,1/2+z
1/2+x,1/2-y,1/2+z
loop_
_atom_site_type_symbol
_atom_site_label
_atom_site_fract_x
_atom_site_fract_y
_atom_site_fract_z
Si Si1 0.815487 0.500000 0.251899
Si Si2 0.677927 0.739221 0.181376
Si Si3 0.822073 0.390095 0.357460
Si Si4 0.187692 0.000000 0.613761
Si Si5 0.695804 0.643606 0.928658
Si Si6 0.500000 0.576490 0.573935
O O1 0.792594 0.435588 0.295691
O O2 0.712226 0.500000 0.189053
O O3 0.000000 0.500000 0.231417
O O4 0.500000 0.712531 0.192097
O O5 0.750000 0.750000 0.250000
O O6 0.669064 0.812936 0.155392
O O7 0.751893 0.691464 0.128116
O O8 0.667194 0.398030 0.399921
O O9 0.000000 0.410630 0.381397
O O10 0.249377 0.931143 0.585797
O O11 0.000000 0.000000 0.599393
O O12 0.500000 0.645470 0.928009
O O13 0.743710 0.662807 0.000000
O O14 0.500000 0.500000 0.590440
O O15 0.500000 0.585578 0.500000
#
# Coordination Sequence:
#
# PCOD9518983 Si02
#       6
#     8  16  16   8  16   8
#     4  10  20  35  55  82 116 153 189 238 298 356
#     4  10  21  36  58  87 119 161 204 253 307 362
#     4  10  22  39  59  87 123 160 201 251 310 369
#     4  10  19  30  56  90 113 147 195 246 296 344
#     4   9  18  34  55  83 117 153 197 245 297 359
#     4  11  24  40  62  90 118 157 205 259 313 367
#
# _framework density 19.909147999999998
#
# number of rings (size 3 to 8) (size 9 to 14) (size 15 to 20)
#    0.000    2.111    1.111    1.667    3.111    2.667 
#    0.000    3.333    0.000    2.667    0.000    0.000 
#    0.000    0.000    0.000    0.000    0.000    0.000 
#
# Total GULP energy -200566.973489 kJ/mol
# GULP energy per Si atom -5571.304819 kJ/mol
# Density = 1.986383 g / cm^3
# Si number density = 19.909148 Si / 1000 Ang^3
#
#
#
# Elastic Constant Matrix: (Units=GPa)
#
#
# Indices 1 2 3 4 5 6 
#
# 1 73.7642 10.1820 53.0216 0.0000 0.0000 0.0000
# 2 10.1820 111.9293 53.3069 0.0000 0.0000 0.0000
# 3 53.0216 53.3069 148.9934 0.0000 0.0000 0.0000
# 4 0.0000 0.0000 0.0000 -5.4162 0.0000 0.0000
# 5 0.0000 0.0000 0.0000 0.0000 1.1675 0.0000
# 6 0.0000 0.0000 0.0000 0.0000 0.0000 83.0211
#
#
#
# Elastic Compliance Matrix: (Units=1/GPa)
#
#
# Indices 1 2 3 4 5 6 
#
# 1 0.018497 0.001751 -0.007209 0.000000 0.000000 0.000000
# 2 0.001751 0.010935 -0.004535 0.000000 0.000000 0.000000
# 3 -0.007209 -0.004535 0.010900 0.000000 0.000000 0.000000
# 4 0.000000 0.000000 0.000000 -0.184632 0.000000 0.000000
# 5 0.000000 0.000000 0.000000 0.000000 0.856555 0.000000
# 6 0.000000 0.000000 0.000000 0.000000 0.000000 0.012045
#
#
# Mechanical properties :
#
#
# Convention : Reuss Voigt Hill
#
# Bulk Modulus (GPa) = 49.15332 63.07865 56.11598
# Shear Modulus (GPa) = 6.65719 30.29957 18.47838
#
# Velocity S-wave (km/s) = 1.83059 3.90538 3.04984
# Velocity P-wave (km/s) = 5.40467 7.21720 6.37567
#
# Compressibility (1/GPa) = 0.02034450
#
# Stress axis : x y z
#
# Youngs Moduli (GPa) = 54.06391 91.45026 91.74627
#
# Poissons Ratio (x) = -0.16009 0.66136
# Poissons Ratio (y) = -0.09464 0.41609
# Poissons Ratio (z) = 0.38973 0.41475
#
# Static dielectric constant tensor:
#      x y z
#    x 1.747970 0.000000 0.000000 
#    y 0.000000 1.662480 0.000000 
#    z 0.000000 0.000000 1.701320 
# 
# From -- ./inp_files/50246.got.cif
#   From: 2010.05.17/outbox.cif.g08.bks.cpg/sg71_26_cif.got.tgz:50246.got - 2010.06.03 16:22:01.
