data_PCOD9518190
_publ_section_title
;
Structure prediction by ZEFSAII (Michael W. Deem and Ramdas Pophale) SiO2 
 PCOD9518190
Probable space group: I M M M
;
_chemical_formula_sum "Si O2"
_cell_formula_units_Z 96
_cell_length_a 26.583485
_cell_length_b 27.143296
_cell_length_c 7.682592
_cell_angle_alpha 90.000000
_cell_angle_beta 90.000000
_cell_angle_gamma 90.000000
_cell_volume 5543.477220
_symmetry_space_group_name_H-M "I M M M"
_symmetry_group_IT_number 71
_symmetry_cell_setting 'orthorhombic'
loop_
_space_group_symop_operation_xyz
x,y,z
-x,-y,z
x,-y,-z
-x,y,-z
-x,-y,-z
x,y,-z
-x,y,z
x,-y,z
1/2+x,1/2+y,1/2+z
1/2-x,1/2-y,1/2+z
1/2+x,1/2-y,1/2-z
1/2-x,1/2+y,1/2-z
1/2-x,1/2-y,1/2-z
1/2+x,1/2+y,1/2-z
1/2-x,1/2+y,1/2+z
1/2+x,1/2-y,1/2+z
loop_
_atom_site_type_symbol
_atom_site_label
_atom_site_fract_x
_atom_site_fract_y
_atom_site_fract_z
Si Si1 0.000000 0.556778 0.787203
Si Si2 0.401290 0.883922 0.289276
Si Si3 0.288883 0.097859 0.803343
Si Si4 0.441954 0.301204 0.000000
Si Si5 0.059431 0.721219 0.798405
Si Si6 0.776558 0.055338 0.500000
Si Si7 0.727975 0.303222 0.297656
Si Si8 0.839798 0.846824 0.500000
O O1 0.050433 0.584854 0.730724
O O2 0.000000 0.500000 0.733175
O O3 0.000000 0.557894 0.000000
O O4 0.400118 0.885419 0.500000
O O5 0.348513 0.903878 0.222438
O O6 0.409765 0.826826 0.241307
O O7 0.258975 0.065232 0.666016
O O8 0.270295 0.154299 0.774310
O O9 0.275660 0.084271 0.000000
O O10 0.433927 0.266263 0.168002
O O11 0.500000 0.317810 0.000000
O O12 0.399509 0.342418 0.000000
O O13 0.000000 0.707436 0.793649
O O14 0.071604 0.732933 0.000000
O O15 0.818671 0.097787 0.500000
O O16 0.796167 0.000000 0.500000
O O17 0.712604 0.303310 0.500000
O O18 0.750000 0.250000 0.250000
O O19 0.683710 0.318932 0.167337
#
# Coordination Sequence:
#
# PCOD9518190 Si02
#       8
#     8  16  16   8  16   8  16   8
#     4   9  18  32  49  67  91 130 181 241 286 310
#     4  10  18  31  49  73 101 139 187 232 271 321
#     4  10  22  36  53  82 109 137 181 228 276 330
#     4  10  22  36  54  85 114 149 183 214 270 332
#     4   9  18  32  49  73 107 148 189 221 263 316
#     4  10  22  44  64  78 104 142 182 228 285 341
#     4  10  20  33  52  80 116 149 180 219 273 326
#     4  10  22  38  56  85 115 142 186 227 274 335
#
# _framework density 17.31765
#
# number of rings (size 3 to 8) (size 9 to 14) (size 15 to 20)
#    0.000    2.250    2.500    0.000    3.500    1.667 
#    0.000    0.417    0.000    0.750    0.000    0.000 
#    0.000    0.000    0.000   12.500    0.000    0.000 
#
# Total GULP energy -267976.760715 kJ/mol
# GULP energy per Si atom -5582.849182 kJ/mol
# Density = 1.727823 g / cm^3
# Si number density = 17.317650 Si / 1000 Ang^3
#
#
#
# Elastic Constant Matrix: (Units=GPa)
#
#
# Indices 1 2 3 4 5 6 
#
# 1 108.8285 47.1814 33.0874 0.0000 0.0000 0.0000
# 2 47.1814 79.3901 36.5389 0.0000 0.0000 0.0000
# 3 33.0874 36.5389 79.1436 0.0000 0.0000 0.0000
# 4 0.0000 0.0000 0.0000 76.2756 0.0000 0.0000
# 5 0.0000 0.0000 0.0000 0.0000 13.2664 0.0000
# 6 0.0000 0.0000 0.0000 0.0000 0.0000 8.4902
#
#
#
# Elastic Compliance Matrix: (Units=1/GPa)
#
#
# Indices 1 2 3 4 5 6 
#
# 1 0.012704 -0.006483 -0.002318 0.000000 0.000000 0.000000
# 2 -0.006483 0.019303 -0.006201 0.000000 0.000000 0.000000
# 3 -0.002318 -0.006201 0.016467 0.000000 0.000000 0.000000
# 4 0.000000 0.000000 0.000000 0.013110 0.000000 0.000000
# 5 0.000000 0.000000 0.000000 0.000000 0.075378 0.000000
# 6 0.000000 0.000000 0.000000 0.000000 0.000000 0.117783
#
#
# Mechanical properties :
#
#
# Convention : Reuss Voigt Hill
#
# Bulk Modulus (GPa) = 54.14360 55.66417 54.90389
# Shear Modulus (GPa) = 17.18755 29.64342 23.41549
#
# Velocity S-wave (km/s) = 3.15379 4.14181 3.68110
# Velocity P-wave (km/s) = 6.67793 7.42197 7.05976
#
# Compressibility (1/GPa) = 0.01846940
#
# Stress axis : x y z
#
# Youngs Moduli (GPa) = 78.71364 51.80493 60.72595
#
# Poissons Ratio (x) = 0.33586 0.14077
# Poissons Ratio (y) = 0.51032 0.37659
# Poissons Ratio (z) = 0.18246 0.32126
#
# Static dielectric constant tensor:
#      x y z
#    x 1.577560 0.000000 0.000000 
#    y 0.000000 1.564260 0.000000 
#    z 0.000000 0.000000 1.615910 
# 
# From -- ./inp_files/15232.got.cif
#   From: 2010.05.17/outbox.cif.g08.bks.cpg/sg71_8_cif.got.tgz:15232.got - 2010.06.03 16:22:01.
