data_PCOD9518144
_publ_section_title
;
Structure prediction by ZEFSAII (Michael W. Deem and Ramdas Pophale) SiO2 
 PCOD9518144
Probable space group: I M M M
;
_chemical_formula_sum "Si O2"
_cell_formula_units_Z 104
_cell_length_a 24.620408
_cell_length_b 8.136378
_cell_length_c 26.912408
_cell_angle_alpha 90.000000
_cell_angle_beta 90.000000
_cell_angle_gamma 90.000000
_cell_volume 5391.119030
_symmetry_space_group_name_H-M "I M M M"
_symmetry_group_IT_number 71
_symmetry_cell_setting 'orthorhombic'
loop_
_space_group_symop_operation_xyz
x,y,z
-x,-y,z
x,-y,-z
-x,y,-z
-x,-y,-z
x,y,-z
-x,y,z
x,-y,z
1/2+x,1/2+y,1/2+z
1/2-x,1/2-y,1/2+z
1/2+x,1/2-y,1/2-z
1/2-x,1/2+y,1/2-z
1/2-x,1/2-y,1/2-z
1/2+x,1/2+y,1/2-z
1/2-x,1/2+y,1/2+z
1/2+x,1/2-y,1/2+z
loop_
_atom_site_type_symbol
_atom_site_label
_atom_site_fract_x
_atom_site_fract_y
_atom_site_fract_z
Si Si1 0.866105 0.304931 0.407927
Si Si2 0.246559 0.201128 0.941913
Si Si3 0.938480 0.692670 0.206522
Si Si4 0.558336 0.299649 0.443256
Si Si5 0.560863 0.694882 0.818719
Si Si6 0.062232 0.802341 0.500000
Si Si7 0.850309 0.802009 0.129311
O O1 0.861656 0.500000 0.402165
O O2 0.806906 0.245111 0.425840
O O3 0.892148 0.236332 0.357574
O O4 0.907416 0.262596 0.451737
O O5 0.206220 0.252598 0.896670
O O6 0.244922 0.000000 0.943384
O O7 0.234385 0.251275 0.000000
O O8 0.940546 0.500000 0.195680
O O9 0.932325 0.720467 0.265444
O O10 0.883951 0.758482 0.179333
O O11 0.000000 0.762265 0.193877
O O12 0.563152 0.249994 0.500000
O O13 0.500000 0.246356 0.423834
O O14 0.559488 0.500000 0.442373
O O15 0.606876 0.239037 0.411150
O O16 0.500000 0.739747 0.838081
O O17 0.561037 0.500000 0.810233
O O18 0.000000 0.749752 0.500000
O O19 0.064220 0.000000 0.500000
O O20 0.847104 0.000000 0.129900
#
# Coordination Sequence:
#
# PCOD9518144 Si02
#       7
#    16  16  16  16  16   8  16
#     4  11  21  36  58  84 116 151 185 223 277 338
#     4   9  18  34  55  81 113 149 189 232 275 321
#     4  10  21  37  56  80 112 146 181 227 284 341
#     4   8  13  21  37  67 101 128 163 216 271 319
#     4  10  21  38  60  85 112 141 179 229 281 335
#     4  11  23  37  55  83 117 149 186 231 274 323
#     4  10  18  30  53  79 104 140 187 233 274 320
#
# _framework density 19.290984999999999
#
# number of rings (size 3 to 8) (size 9 to 14) (size 15 to 20)
#    0.000    2.231    0.769    3.462    0.000    6.769 
#    0.000    2.308    0.000    1.385    0.000    5.385 
#    0.000    0.000    0.000    0.000    0.000    0.000 
#
# Total GULP energy -289552.762448 kJ/mol
# GULP energy per Si atom -5568.322355 kJ/mol
# Density = 1.924708 g / cm^3
# Si number density = 19.290985 Si / 1000 Ang^3
#
#
#
# Elastic Constant Matrix: (Units=GPa)
#
#
# Indices 1 2 3 4 5 6 
#
# 1 120.7548 12.3891 49.1268 0.0000 0.0000 0.0000
# 2 12.3891 20.6244 1.2964 0.0000 0.0000 0.0000
# 3 49.1268 1.2964 92.7750 0.0000 0.0000 0.0000
# 4 0.0000 0.0000 0.0000 2.2578 0.0000 0.0000
# 5 0.0000 0.0000 0.0000 0.0000 34.1143 0.0000
# 6 0.0000 0.0000 0.0000 0.0000 0.0000 14.5862
#
#
#
# Elastic Compliance Matrix: (Units=1/GPa)
#
#
# Indices 1 2 3 4 5 6 
#
# 1 0.011351 -0.006447 -0.005921 0.000000 0.000000 0.000000
# 2 -0.006447 0.052190 0.002684 0.000000 0.000000 0.000000
# 3 -0.005921 0.002684 0.013876 0.000000 0.000000 0.000000
# 4 0.000000 0.000000 0.000000 0.442904 0.000000 0.000000
# 5 0.000000 0.000000 0.000000 0.000000 0.029313 0.000000
# 6 0.000000 0.000000 0.000000 0.000000 0.000000 0.068558
#
#
# Mechanical properties :
#
#
# Convention : Reuss Voigt Hill
#
# Bulk Modulus (GPa) = 17.22602 39.97543 28.60073
# Shear Modulus (GPa) = 7.61140 21.61445 14.61293
#
# Velocity S-wave (km/s) = 1.98850 3.35093 2.75526
# Velocity P-wave (km/s) = 3.77109 5.97821 4.99801
#
# Compressibility (1/GPa) = 0.05805172
#
# Stress axis : x y z
#
# Youngs Moduli (GPa) = 88.09476 19.16078 72.06438
#
# Poissons Ratio (x) = 0.12352 0.42668
# Poissons Ratio (y) = 0.56791 -0.19345
# Poissons Ratio (z) = 0.52159 -0.05143
#
# Static dielectric constant tensor:
#      x y z
#    x 1.705500 0.000000 0.000000 
#    y 0.000000 1.701520 0.000000 
#    z 0.000000 0.000000 1.675300 
# 
# From -- ./inp_files/66789.got.cif
#   From: 2010.05.17/outbox.cif.g08.bks.cpg/sg71_34_cif.got.tgz:66789.got - 2010.06.03 16:22:01.
