data_PCOD9518476
_publ_section_title
;
Structure prediction by ZEFSAII (Michael W. Deem and Ramdas Pophale) SiO2 
 PCOD9518476
Probable space group: I M M M
;
_chemical_formula_sum "Si O2"
_cell_formula_units_Z 72
_cell_length_a 26.263536
_cell_length_b 15.194802
_cell_length_c 10.454440
_cell_angle_alpha 90.000000
_cell_angle_beta 90.000000
_cell_angle_gamma 90.000000
_cell_volume 4172.045314
_symmetry_space_group_name_H-M "I M M M"
_symmetry_group_IT_number 71
_symmetry_cell_setting 'orthorhombic'
loop_
_space_group_symop_operation_xyz
x,y,z
-x,-y,z
x,-y,-z
-x,y,-z
-x,-y,-z
x,y,-z
-x,y,z
x,-y,z
1/2+x,1/2+y,1/2+z
1/2-x,1/2-y,1/2+z
1/2+x,1/2-y,1/2-z
1/2-x,1/2+y,1/2-z
1/2-x,1/2-y,1/2-z
1/2+x,1/2+y,1/2-z
1/2-x,1/2+y,1/2+z
1/2+x,1/2-y,1/2+z
loop_
_atom_site_type_symbol
_atom_site_label
_atom_site_fract_x
_atom_site_fract_y
_atom_site_fract_z
Si Si1 0.694679 0.707198 0.749414
Si Si2 0.057455 0.196204 0.500000
Si Si3 0.091395 0.690200 0.742931
Si Si4 0.662528 0.396915 0.000000
Si Si5 0.341452 0.605269 0.500000
Si Si6 0.938712 0.500000 0.651827
Si Si7 0.057508 0.216798 0.000000
O O1 0.750000 0.750000 0.750000
O O2 0.650540 0.781480 0.751597
O O3 0.684766 0.647247 0.625013
O O4 0.685800 0.648691 0.875049
O O5 0.066492 0.256687 0.375362
O O6 0.102025 0.124158 0.500000
O O7 0.000000 0.161695 0.500000
O O8 0.082836 0.587948 0.716297
O O9 0.066729 0.724191 0.874245
O O10 0.671580 0.500000 0.000000
O O11 0.339319 0.500000 0.500000
O O12 0.399711 0.640786 0.500000
O O13 0.926558 0.500000 0.500000
O O14 0.000000 0.500000 0.663453
O O15 0.000000 0.182476 0.000000
#
# Coordination Sequence:
#
# PCOD9518476 Si02
#       7
#    16   8  16   8   8   8   8
#     4  10  21  40  60  77 112 148 183 230 282 323
#     4  10  18  33  56  79 111 146 176 217 274 329
#     4  10  21  35  53  81 108 144 191 226 270 337
#     4  10  21  36  57  86 110 139 184 226 268 327
#     4  10  21  38  59  86 112 141 186 226 266 333
#     4  11  20  33  55  81 115 145 183 235 276 323
#     4  10  20  35  56  79 113 150 178 219 278 329
#
# _framework density 17.257722999999999
#
# number of rings (size 3 to 8) (size 9 to 14) (size 15 to 20)
#    0.000    1.889    1.111    3.333    0.000    0.889 
#    4.000    1.111    0.000    8.000    0.000    0.000 
#    0.000    0.000    0.000    0.000    0.000    0.000 
#
# Total GULP energy -201033.838905 kJ/mol
# GULP energy per Si atom -5584.273303 kJ/mol
# Density = 1.721844 g / cm^3
# Si number density = 17.257723 Si / 1000 Ang^3
#
#
#
# Elastic Constant Matrix: (Units=GPa)
#
#
# Indices 1 2 3 4 5 6 
#
# 1 157.8065 72.9245 63.6423 0.0000 0.0000 0.0000
# 2 72.9245 146.6516 66.9533 0.0000 0.0000 0.0000
# 3 63.6423 66.9533 162.8263 0.0000 0.0000 0.0000
# 4 0.0000 0.0000 0.0000 37.0677 0.0000 0.0000
# 5 0.0000 0.0000 0.0000 0.0000 -18.1843 0.0000
# 6 0.0000 0.0000 0.0000 0.0000 0.0000 5.5834
#
#
#
# Elastic Compliance Matrix: (Units=1/GPa)
#
#
# Indices 1 2 3 4 5 6 
#
# 1 0.008728 -0.003426 -0.002003 0.000000 0.000000 0.000000
# 2 -0.003426 0.009739 -0.002666 0.000000 0.000000 0.000000
# 3 -0.002003 -0.002666 0.008020 0.000000 0.000000 0.000000
# 4 0.000000 0.000000 0.000000 0.026978 0.000000 0.000000
# 5 0.000000 0.000000 0.000000 0.000000 -0.054992 0.000000
# 6 0.000000 0.000000 0.000000 0.000000 0.000000 0.179101
#
#
# Mechanical properties :
#
#
# Convention : Reuss Voigt Hill
#
# Bulk Modulus (GPa) = 97.09510 97.14716 97.12113
# Shear Modulus (GPa) = 25.35563 22.47764 23.91663
#
# Velocity S-wave (km/s) = 3.83722 3.61289 3.72674
# Velocity P-wave (km/s) = 8.71873 8.59175 8.65547
#
# Compressibility (1/GPa) = 0.01029918
#
# Stress axis : x y z
#
# Youngs Moduli (GPa) = 114.57978 102.67589 124.68102
#
# Poissons Ratio (x) = 0.35172 0.24970
# Poissons Ratio (y) = 0.39250 0.33238
# Poissons Ratio (z) = 0.22947 0.27372
#
# Static dielectric constant tensor:
#      x y z
#    x 1.578150 0.000000 0.000000 
#    y 0.000000 1.543020 0.000000 
#    z 0.000000 0.000000 1.578220 
# 
# From -- ./inp_files/6240.got.cif
#   From: 2010.05.17/outbox.cif.g08.bks.cpg/sg71_4_cif.got.tgz:6240.got - 2010.06.03 16:22:01.
