data_PCOD9518795
_publ_section_title
;
Structure prediction by ZEFSAII (Michael W. Deem and Ramdas Pophale) SiO2 
 PCOD9518795
Probable space group: I M M M
;
_chemical_formula_sum "Si O2"
_cell_formula_units_Z 80
_cell_length_a 16.943556
_cell_length_b 12.827812
_cell_length_c 24.839525
_cell_angle_alpha 90.000000
_cell_angle_beta 90.000000
_cell_angle_gamma 90.000000
_cell_volume 5398.839734
_symmetry_space_group_name_H-M "I M M M"
_symmetry_group_IT_number 71
_symmetry_cell_setting 'orthorhombic'
loop_
_space_group_symop_operation_xyz
x,y,z
-x,-y,z
x,-y,-z
-x,y,-z
-x,-y,-z
x,y,-z
-x,y,z
x,-y,z
1/2+x,1/2+y,1/2+z
1/2-x,1/2-y,1/2+z
1/2+x,1/2-y,1/2-z
1/2-x,1/2+y,1/2-z
1/2-x,1/2-y,1/2-z
1/2+x,1/2+y,1/2-z
1/2-x,1/2+y,1/2+z
1/2+x,1/2-y,1/2+z
loop_
_atom_site_type_symbol
_atom_site_label
_atom_site_fract_x
_atom_site_fract_y
_atom_site_fract_z
Si Si1 0.312470 0.198181 0.291731
Si Si2 0.830993 0.122195 0.354285
Si Si3 0.095114 0.500000 0.385413
Si Si4 0.595326 0.217910 0.062957
Si Si5 0.593781 0.616693 0.736697
Si Si6 0.404078 0.000000 0.241958
O O1 0.250000 0.250000 0.250000
O O2 0.258132 0.156078 0.339645
O O3 0.370750 0.294558 0.301262
O O4 0.362269 0.102583 0.266707
O O5 0.866820 0.192552 0.400842
O O6 0.880584 0.137750 0.298698
O O7 0.834281 0.000000 0.367120
O O8 0.122254 0.394174 0.413945
O O9 0.112425 0.500000 0.322011
O O10 0.000000 0.500000 0.390317
O O11 0.500000 0.223288 0.068214
O O12 0.614434 0.227087 0.000000
O O13 0.500000 0.617684 0.734066
O O14 0.623596 0.500000 0.723898
O O15 0.500000 0.000000 0.249653
#
# Coordination Sequence:
#
# PCOD9518795 Si02
#       6
#    16  16   8  16  16   8
#     4  10  19  30  45  65  99 129 163 199 242 286
#     4  10  19  32  45  63  95 129 161 197 243 278
#     4   9  17  30  47  68  96 124 155 198 240 278
#     4  10  20  33  49  69  93 126 168 207 240 280
#     4   9  17  29  46  67  93 126 159 192 234 288
#     4  11  20  31  50  75  98 134 176 199 233 299
#
# _framework density 14.817999
#
# number of rings (size 3 to 8) (size 9 to 14) (size 15 to 20)
#    0.000    2.200    1.000    3.900    1.400    4.400 
#    1.800    1.000    0.000    0.000    0.000    0.000 
#    0.000    4.000    0.000    2.200    0.000    0.000 
#
# Total GULP energy -222868.041403 kJ/mol
# GULP energy per Si atom -5571.701035 kJ/mol
# Density = 1.478427 g / cm^3
# Si number density = 14.817999 Si / 1000 Ang^3
#
#
#
# Elastic Constant Matrix: (Units=GPa)
#
#
# Indices 1 2 3 4 5 6 
#
# 1 52.3947 34.1629 19.9044 0.0000 0.0000 0.0000
# 2 34.1629 116.3734 42.5139 0.0000 0.0000 0.0000
# 3 19.9044 42.5139 47.8938 0.0000 0.0000 0.0000
# 4 0.0000 0.0000 0.0000 10.7872 0.0000 0.0000
# 5 0.0000 0.0000 0.0000 0.0000 22.5343 0.0000
# 6 0.0000 0.0000 0.0000 0.0000 0.0000 32.1004
#
#
#
# Elastic Compliance Matrix: (Units=1/GPa)
#
#
# Indices 1 2 3 4 5 6 
#
# 1 0.024593 -0.005158 -0.005641 0.000000 0.000000 0.000000
# 2 -0.005158 0.013799 -0.010105 0.000000 0.000000 0.000000
# 3 -0.005641 -0.010105 0.032194 0.000000 0.000000 0.000000
# 4 0.000000 0.000000 0.000000 0.092703 0.000000 0.000000
# 5 0.000000 0.000000 0.000000 0.000000 0.044377 0.000000
# 6 0.000000 0.000000 0.000000 0.000000 0.000000 0.031152
#
#
# Mechanical properties :
#
#
# Convention : Reuss Voigt Hill
#
# Bulk Modulus (GPa) = 34.75180 45.53601 40.14390
# Shear Modulus (GPa) = 17.22834 21.08975 19.15905
#
# Velocity S-wave (km/s) = 3.41348 3.77669 3.59967
# Velocity P-wave (km/s) = 6.24813 7.05796 6.66536
#
# Compressibility (1/GPa) = 0.02877549
#
# Stress axis : x y z
#
# Youngs Moduli (GPa) = 40.66270 72.46901 31.06159
#
# Poissons Ratio (x) = 0.37383 0.17523
# Poissons Ratio (y) = 0.20976 0.31388
# Poissons Ratio (z) = 0.22940 0.73231
#
# Static dielectric constant tensor:
#      x y z
#    x 1.614320 0.000000 0.000000 
#    y 0.000000 1.524280 0.000000 
#    z 0.000000 0.000000 1.458180 
# 
# From -- ./inp_files/23856.got.cif
#   From: 2010.05.17/outbox.cif.g08.bks.cpg/sg71_12_cif.got.tgz:23856.got - 2010.06.03 16:22:01.
