data_PCOD9518272
_publ_section_title
;
Structure prediction by ZEFSAII (Michael W. Deem and Ramdas Pophale) SiO2 
 PCOD9518272
Probable space group: I M M M
;
_chemical_formula_sum "Si O2"
_cell_formula_units_Z 96
_cell_length_a 29.770808
_cell_length_b 21.066358
_cell_length_c 7.883428
_cell_angle_alpha 90.000000
_cell_angle_beta 90.000000
_cell_angle_gamma 90.000000
_cell_volume 4944.190407
_symmetry_space_group_name_H-M "I M M M"
_symmetry_group_IT_number 71
_symmetry_cell_setting 'orthorhombic'
loop_
_space_group_symop_operation_xyz
x,y,z
-x,-y,z
x,-y,-z
-x,y,-z
-x,-y,-z
x,y,-z
-x,y,z
x,-y,z
1/2+x,1/2+y,1/2+z
1/2-x,1/2-y,1/2+z
1/2+x,1/2-y,1/2-z
1/2-x,1/2+y,1/2-z
1/2-x,1/2-y,1/2-z
1/2+x,1/2+y,1/2-z
1/2-x,1/2+y,1/2+z
1/2+x,1/2-y,1/2+z
loop_
_atom_site_type_symbol
_atom_site_label
_atom_site_fract_x
_atom_site_fract_y
_atom_site_fract_z
Si Si1 0.591926 0.198170 0.705720
Si Si2 0.630313 0.572284 0.202759
Si Si3 0.946575 0.567378 0.797548
Si Si4 0.551307 0.334439 0.797089
Si Si5 0.195026 0.298675 0.204466
Si Si6 0.714485 0.343709 0.700458
O O1 0.589158 0.200310 0.500000
O O2 0.569042 0.134365 0.772093
O O3 0.569482 0.263377 0.765479
O O4 0.643879 0.190779 0.753449
O O5 0.629649 0.500000 0.269312
O O6 0.589204 0.616211 0.269187
O O7 0.678291 0.606468 0.232051
O O8 0.624602 0.568885 0.000000
O O9 0.928751 0.500000 0.728847
O O10 0.000000 0.565998 0.782094
O O11 0.936171 0.568006 0.000000
O O12 0.500000 0.342084 0.731438
O O13 0.549135 0.343277 0.000000
O O14 0.232309 0.348842 0.265011
O O15 0.204815 0.227218 0.270145
O O16 0.197654 0.297803 0.000000
O O17 0.707417 0.342379 0.500000
#
# Coordination Sequence:
#
# PCOD9518272 Si02
#       6
#    16  16  16  16  16  16
#     4  10  18  31  52  78 105 136 173 216 260 306
#     4  10  21  37  56  76 103 141 181 222 270 324
#     4   8  14  25  43  69  99 130 164 201 243 292
#     4  10  21  35  52  77 107 137 175 224 273 322
#     4   9  18  31  50  77 106 132 166 209 255 310
#     4  10  19  33  53  77 103 133 168 210 259 311
#
# _framework density 19.416727999999999
#
# number of rings (size 3 to 8) (size 9 to 14) (size 15 to 20)
#    0.000    2.500    1.667    1.500    0.000    3.000 
#    0.000    2.500    0.000    3.500    0.000    4.667 
#    0.000    0.000    0.000    0.000    0.000    0.000 
#
# Total GULP energy -267377.497840 kJ/mol
# GULP energy per Si atom -5570.364538 kJ/mol
# Density = 1.937253 g / cm^3
# Si number density = 19.416728 Si / 1000 Ang^3
#
#
#
# Elastic Constant Matrix: (Units=GPa)
#
#
# Indices 1 2 3 4 5 6 
#
# 1 96.4102 78.0518 14.5552 0.0000 0.0000 0.0000
# 2 78.0518 164.1757 7.8005 0.0000 0.0000 0.0000
# 3 14.5552 7.8005 19.1951 0.0000 0.0000 0.0000
# 4 0.0000 0.0000 0.0000 18.5005 0.0000 0.0000
# 5 0.0000 0.0000 0.0000 0.0000 13.3916 0.0000
# 6 0.0000 0.0000 0.0000 0.0000 0.0000 25.7973
#
#
#
# Elastic Compliance Matrix: (Units=1/GPa)
#
#
# Indices 1 2 3 4 5 6 
#
# 1 0.018849 -0.008445 -0.010861 0.000000 0.000000 0.000000
# 2 -0.008445 0.009995 0.002342 0.000000 0.000000 0.000000
# 3 -0.010861 0.002342 0.059380 0.000000 0.000000 0.000000
# 4 0.000000 0.000000 0.000000 0.054052 0.000000 0.000000
# 5 0.000000 0.000000 0.000000 0.000000 0.074674 0.000000
# 6 0.000000 0.000000 0.000000 0.000000 0.000000 0.038764
#
#
# Mechanical properties :
#
#
# Convention : Reuss Voigt Hill
#
# Bulk Modulus (GPa) = 18.41747 53.39956 35.90852
# Shear Modulus (GPa) = 16.24746 23.49612 19.87179
#
# Velocity S-wave (km/s) = 2.89585 3.48242 3.20259
# Velocity P-wave (km/s) = 4.54832 6.61296 5.67531
#
# Compressibility (1/GPa) = 0.05429628
#
# Stress axis : x y z
#
# Youngs Moduli (GPa) = 53.05321 100.05314 16.84060
#
# Poissons Ratio (x) = 0.84496 0.18290
# Poissons Ratio (y) = 0.44804 -0.03944
# Poissons Ratio (z) = 0.57620 -0.23433
#
# Static dielectric constant tensor:
#      x y z
#    x 1.711390 0.000000 0.000000 
#    y 0.000000 1.688700 0.000000 
#    z 0.000000 0.000000 1.714280 
# 
# From -- ./inp_files/14810.got.cif
#   From: 2010.05.17/outbox.cif.g08.bks.cpg/sg71_8_cif.got.tgz:14810.got - 2010.06.03 16:22:01.
