data_PCOD9518087
_publ_section_title
;
Structure prediction by ZEFSAII (Michael W. Deem and Ramdas Pophale) SiO2 
 PCOD9518087
Probable space group: I M M M
;
_chemical_formula_sum "Si O2"
_cell_formula_units_Z 104
_cell_length_a 26.186585
_cell_length_b 7.519974
_cell_length_c 24.619194
_cell_angle_alpha 90.000000
_cell_angle_beta 90.000000
_cell_angle_gamma 90.000000
_cell_volume 4848.071713
_symmetry_space_group_name_H-M "I M M M"
_symmetry_group_IT_number 71
_symmetry_cell_setting 'orthorhombic'
loop_
_space_group_symop_operation_xyz
x,y,z
-x,-y,z
x,-y,-z
-x,y,-z
-x,-y,-z
x,y,-z
-x,y,z
x,-y,z
1/2+x,1/2+y,1/2+z
1/2-x,1/2-y,1/2+z
1/2+x,1/2-y,1/2-z
1/2-x,1/2+y,1/2-z
1/2-x,1/2-y,1/2-z
1/2+x,1/2+y,1/2-z
1/2-x,1/2+y,1/2+z
1/2+x,1/2-y,1/2+z
loop_
_atom_site_type_symbol
_atom_site_label
_atom_site_fract_x
_atom_site_fract_y
_atom_site_fract_z
Si Si1 0.440202 0.716618 0.562312
Si Si2 0.710545 0.794190 0.941415
Si Si3 0.651647 0.282186 0.220655
Si Si4 0.500000 0.717340 0.062133
Si Si5 0.107011 0.215481 0.394063
Si Si6 0.256434 0.201503 0.670994
Si Si7 0.127699 0.796414 0.835883
O O1 0.427373 0.774142 0.500000
O O2 0.500000 0.764274 0.572663
O O3 0.437919 0.500000 0.561262
O O4 0.402042 0.777406 0.611090
O O5 0.649674 0.783943 0.935209
O O6 0.731424 0.698495 0.888671
O O7 0.726441 0.000000 0.937952
O O8 0.726535 0.723071 0.000000
O O9 0.653636 0.500000 0.222984
O O10 0.622369 0.230126 0.166468
O O11 0.710827 0.226616 0.209796
O O12 0.623466 0.217540 0.275030
O O13 0.500000 0.500000 0.063025
O O14 0.448779 0.776503 0.090810
O O15 0.500000 0.772539 0.000000
O O16 0.108930 0.000000 0.396333
O O17 0.310386 0.296568 0.661590
O O18 0.267969 0.000000 0.687219
O O19 0.109593 0.000000 0.832589
#
# Coordination Sequence:
#
# PCOD9518087 Si02
#       7
#    16  16  16   8  16  16  16
#     4   8  15  29  48  71  99 128 158 197 247 297
#     4  10  20  33  49  70  96 127 164 204 247 293
#     4   8  16  30  46  68  98 129 163 202 246 291
#     4   9  16  26  45  71  95 125 164 202 244 293
#     4   9  17  31  48  68  96 130 166 205 247 295
#     4  10  20  33  49  70 100 132 162 199 246 301
#     4  10  18  30  50  74  98 126 164 206 245 290
#
# _framework density 21.451827999999999
#
# number of rings (size 3 to 8) (size 9 to 14) (size 15 to 20)
#    0.000    2.846    0.000    3.231    0.000    2.462 
#    1.385    5.000    0.000    1.846    0.000    1.077 
#    0.000    0.000    0.000    0.000    0.000    0.000 
#
# Total GULP energy -289808.460072 kJ/mol
# GULP energy per Si atom -5573.239617 kJ/mol
# Density = 2.140300 g / cm^3
# Si number density = 21.451828 Si / 1000 Ang^3
#
#
#
# Elastic Constant Matrix: (Units=GPa)
#
#
# Indices 1 2 3 4 5 6 
#
# 1 84.5791 0.3231 63.0708 0.0000 0.0000 0.0000
# 2 0.3231 62.7739 14.9287 0.0000 0.0000 0.0000
# 3 63.0708 14.9287 181.5741 0.0000 0.0000 0.0000
# 4 0.0000 0.0000 0.0000 6.2963 0.0000 0.0000
# 5 0.0000 0.0000 0.0000 0.0000 30.6086 0.0000
# 6 0.0000 0.0000 0.0000 0.0000 0.0000 15.0059
#
#
#
# Elastic Compliance Matrix: (Units=1/GPa)
#
#
# Indices 1 2 3 4 5 6 
#
# 1 0.016055 0.001268 -0.005681 0.000000 0.000000 0.000000
# 2 0.001268 0.016348 -0.001785 0.000000 0.000000 0.000000
# 3 -0.005681 -0.001785 0.007627 0.000000 0.000000 0.000000
# 4 0.000000 0.000000 0.000000 0.158823 0.000000 0.000000
# 5 0.000000 0.000000 0.000000 0.000000 0.032671 0.000000
# 6 0.000000 0.000000 0.000000 0.000000 0.000000 0.066640
#
#
# Mechanical properties :
#
#
# Convention : Reuss Voigt Hill
#
# Bulk Modulus (GPa) = 36.18507 53.95247 45.06877
# Shear Modulus (GPa) = 15.63618 27.08912 21.36265
#
# Velocity S-wave (km/s) = 2.70274 3.55743 3.15912
# Velocity P-wave (km/s) = 5.16182 6.48682 5.86188
#
# Compressibility (1/GPa) = 0.02763571
#
# Stress axis : x y z
#
# Youngs Moduli (GPa) = 62.28694 61.16925 131.10539
#
# Poissons Ratio (x) = -0.07759 0.74481
# Poissons Ratio (y) = -0.07901 0.23398
# Poissons Ratio (z) = 0.35385 0.10917
#
# Static dielectric constant tensor:
#      x y z
#    x 1.767450 0.000000 0.000000 
#    y 0.000000 1.826170 0.000000 
#    z 0.000000 0.000000 1.804440 
# 
# From -- ./inp_files/15306.got.cif
#   From: 2010.05.17/outbox.cif.g08.bks.cpg/sg71_8_cif.got.tgz:15306.got - 2010.06.03 16:22:01.
