data_PCOD9518045
_publ_section_title
;
Structure prediction by ZEFSAII (Michael W. Deem and Ramdas Pophale) SiO2 
 PCOD9518045
Probable space group: I M M M
;
_chemical_formula_sum "Si O2"
_cell_formula_units_Z 80
_cell_length_a 19.994081
_cell_length_b 7.899331
_cell_length_c 23.316917
_cell_angle_alpha 90.000000
_cell_angle_beta 90.000000
_cell_angle_gamma 90.000000
_cell_volume 3682.670697
_symmetry_space_group_name_H-M "I M M M"
_symmetry_group_IT_number 71
_symmetry_cell_setting 'orthorhombic'
loop_
_space_group_symop_operation_xyz
x,y,z
-x,-y,z
x,-y,-z
-x,y,-z
-x,-y,-z
x,y,-z
-x,y,z
x,-y,z
1/2+x,1/2+y,1/2+z
1/2-x,1/2-y,1/2+z
1/2+x,1/2-y,1/2-z
1/2-x,1/2+y,1/2-z
1/2-x,1/2-y,1/2-z
1/2+x,1/2+y,1/2-z
1/2-x,1/2+y,1/2+z
1/2+x,1/2-y,1/2+z
loop_
_atom_site_type_symbol
_atom_site_label
_atom_site_fract_x
_atom_site_fract_y
_atom_site_fract_z
Si Si1 0.582132 0.817522 0.125439
Si Si2 0.918398 0.195628 0.500000
Si Si3 0.110739 0.000000 0.817744
Si Si4 0.074676 0.000000 0.308369
Si Si5 0.782687 0.700519 0.189332
Si Si6 0.615610 0.500000 0.439444
Si Si7 0.775595 0.300582 0.937313
O O1 0.500000 0.822803 0.127041
O O2 0.606075 0.668540 0.166478
O O3 0.606785 0.000000 0.144283
O O4 0.600915 0.781538 0.059634
O O5 0.000000 0.195569 0.500000
O O6 0.896903 0.000000 0.500000
O O7 0.071244 0.000000 0.759106
O O8 0.155771 0.830783 0.814937
O O9 0.077050 0.000000 0.879746
O O10 0.000000 0.000000 0.333178
O O11 0.798870 0.500000 0.192164
O O12 0.750000 0.750000 0.250000
O O13 0.745827 0.726000 0.126876
O O14 0.578898 0.500000 0.500000
O O15 0.663990 0.334665 0.439001
O O16 0.795529 0.500000 0.937407
O O17 0.740150 0.275434 0.000000
#
# Coordination Sequence:
#
# PCOD9518045 Si02
#       7
#    16   8   8   8  16   8  16
#     4   9  16  26  42  64  90 118 155 203 248 284
#     4   9  13  21  39  64  89 111 148 205 257 286
#     4  10  20  32  49  73  98 127 161 196 243 284
#     4  10  20  33  46  65  96 130 165 200 239 290
#     4  10  18  30  49  73 100 125 155 195 239 288
#     4   8  14  26  44  66  93 116 146 195 233 270
#     4   8  14  24  40  65  93 119 149 185 226 270
#
# _framework density 21.723365000000001
#
# number of rings (size 3 to 8) (size 9 to 14) (size 15 to 20)
#    0.000    2.900    2.000    0.300    0.000    2.000 
#    0.000    0.000    0.000    0.300    5.200    0.000 
#    0.000    0.000    0.000   37.400    0.000    0.000 
#
# Total GULP energy -222686.482584 kJ/mol
# GULP energy per Si atom -5567.162065 kJ/mol
# Density = 2.167392 g / cm^3
# Si number density = 21.723365 Si / 1000 Ang^3
#
#
#
# Elastic Constant Matrix: (Units=GPa)
#
#
# Indices 1 2 3 4 5 6 
#
# 1 46.5564 23.1110 25.0744 0.0000 0.0000 0.0000
# 2 23.1110 154.2222 70.6253 0.0000 0.0000 0.0000
# 3 25.0744 70.6253 217.4082 0.0000 0.0000 0.0000
# 4 0.0000 0.0000 0.0000 -34.9211 0.0000 0.0000
# 5 0.0000 0.0000 0.0000 0.0000 16.7429 0.0000
# 6 0.0000 0.0000 0.0000 0.0000 0.0000 -4.8133
#
#
#
# Elastic Compliance Matrix: (Units=1/GPa)
#
#
# Indices 1 2 3 4 5 6 
#
# 1 0.023833 -0.002717 -0.001866 0.000000 0.000000 0.000000
# 2 -0.002717 0.007927 -0.002262 0.000000 0.000000 0.000000
# 3 -0.001866 -0.002262 0.005550 0.000000 0.000000 0.000000
# 4 0.000000 0.000000 0.000000 -0.028636 0.000000 0.000000
# 5 0.000000 0.000000 0.000000 0.000000 0.059727 0.000000
# 6 0.000000 0.000000 0.000000 0.000000 0.000000 -0.207758
#
#
# Mechanical properties :
#
#
# Convention : Reuss Voigt Hill
#
# Bulk Modulus (GPa) = 42.33681 72.86758 57.60220
# Shear Modulus (GPa) = -42.44679 15.36010 -13.54335
#
# Velocity S-wave (km/s) = -4.42517 2.66198 -2.49960
# Velocity P-wave (km/s) = 2.56478 6.56235 4.27120
#
# Compressibility (1/GPa) = 0.02362011
#
# Stress axis : x y z
#
# Youngs Moduli (GPa) = 41.95841 126.15019 180.19283
#
# Poissons Ratio (x) = 0.34274 0.33627
# Poissons Ratio (y) = 0.11400 0.40755
# Poissons Ratio (z) = 0.07830 0.28532
#
# Static dielectric constant tensor:
#      x y z
#    x 1.866940 0.000000 0.000000 
#    y 0.000000 1.772160 0.000000 
#    z 0.000000 0.000000 1.844420 
# 
# From -- ./inp_files/56096.got.cif
#   From: 2010.05.17/outbox.cif.g08.bks.cpg/sg71_29_cif.got.tgz:56096.got - 2010.06.03 16:22:01.
