data_PCOD9518150
_publ_section_title
;
Structure prediction by ZEFSAII (Michael W. Deem and Ramdas Pophale) SiO2 
 PCOD9518150
Probable space group: I M M M
;
_chemical_formula_sum "Si O2"
_cell_formula_units_Z 96
_cell_length_a 14.106501
_cell_length_b 13.000416
_cell_length_c 28.180913
_cell_angle_alpha 90.000000
_cell_angle_beta 90.000000
_cell_angle_gamma 90.000000
_cell_volume 5168.108381
_symmetry_space_group_name_H-M "I M M M"
_symmetry_group_IT_number 71
_symmetry_cell_setting 'orthorhombic'
loop_
_space_group_symop_operation_xyz
x,y,z
-x,-y,z
x,-y,-z
-x,y,-z
-x,-y,-z
x,y,-z
-x,y,z
x,-y,z
1/2+x,1/2+y,1/2+z
1/2-x,1/2-y,1/2+z
1/2+x,1/2-y,1/2-z
1/2-x,1/2+y,1/2-z
1/2-x,1/2-y,1/2-z
1/2+x,1/2+y,1/2-z
1/2-x,1/2+y,1/2+z
1/2+x,1/2-y,1/2+z
loop_
_atom_site_type_symbol
_atom_site_label
_atom_site_fract_x
_atom_site_fract_y
_atom_site_fract_z
Si Si1 0.745985 0.000000 0.057611
Si Si2 0.394356 0.818027 0.056092
Si Si3 0.114563 0.000000 0.858330
Si Si4 0.389345 0.620087 0.196852
Si Si5 0.109473 0.380188 0.864441
Si Si6 0.385653 0.695768 0.295310
Si Si7 0.800219 0.881978 0.593222
O O1 0.682768 0.901151 0.071947
O O2 0.839388 0.000000 0.089692
O O3 0.761649 0.000000 0.000000
O O4 0.500000 0.831927 0.076827
O O5 0.356496 0.703704 0.064966
O O6 0.401917 0.834963 0.000000
O O7 0.145265 0.101269 0.828795
O O8 0.000000 0.000000 0.861488
O O9 0.500000 0.645482 0.187459
O O10 0.386429 0.500000 0.211617
O O11 0.351480 0.684410 0.241356
O O12 0.333740 0.629136 0.147890
O O13 0.118979 0.500000 0.850158
O O14 0.131459 0.302810 0.821637
O O15 0.187247 0.363152 0.905298
O O16 0.000000 0.362798 0.878868
O O17 0.500000 0.684606 0.291454
O O18 0.818969 0.000000 0.578579
#
# Coordination Sequence:
#
# PCOD9518150 Si02
#       7
#     8  16   8  16  16  16  16
#     4  10  21  37  56  77 105 144 181 210 255 319
#     4  10  21  38  59  80 104 135 171 212 263 324
#     4  10  18  30  53  84 110 135 178 229 263 292
#     4   9  16  28  46  71 103 132 165 213 266 313
#     4   9  18  32  48  67  99 141 178 208 248 308
#     4   9  16  28  48  72  99 135 176 217 257 300
#     4  10  20  33  53  80 103 132 172 217 265 310
#
# _framework density 18.575461000000001
#
# number of rings (size 3 to 8) (size 9 to 14) (size 15 to 20)
#    0.000    2.500    0.833    1.750    0.000    3.167 
#    0.000    0.833    1.833    1.500    0.000    2.333 
#    0.000    0.000    0.000    0.000    0.000    0.000 
#
# Total GULP energy -267538.034826 kJ/mol
# GULP energy per Si atom -5573.709059 kJ/mol
# Density = 1.853318 g / cm^3
# Si number density = 18.575461 Si / 1000 Ang^3
#
#
#
# Elastic Constant Matrix: (Units=GPa)
#
#
# Indices 1 2 3 4 5 6 
#
# 1 60.0388 9.6981 2.4687 0.0000 0.0000 0.0000
# 2 9.6981 42.0823 -4.5464 0.0000 0.0000 0.0000
# 3 2.4687 -4.5464 9.1547 0.0000 0.0000 0.0000
# 4 0.0000 0.0000 0.0000 23.5252 0.0000 0.0000
# 5 0.0000 0.0000 0.0000 0.0000 17.9278 0.0000
# 6 0.0000 0.0000 0.0000 0.0000 0.0000 19.1231
#
#
#
# Elastic Compliance Matrix: (Units=1/GPa)
#
#
# Indices 1 2 3 4 5 6 
#
# 1 0.017738 -0.004866 -0.007200 0.000000 0.000000 0.000000
# 2 -0.004866 0.026445 0.014445 0.000000 0.000000 0.000000
# 3 -0.007200 0.014445 0.118349 0.000000 0.000000 0.000000
# 4 0.000000 0.000000 0.000000 0.042508 0.000000 0.000000
# 5 0.000000 0.000000 0.000000 0.000000 0.055779 0.000000
# 6 0.000000 0.000000 0.000000 0.000000 0.000000 0.052293
#
#
# Mechanical properties :
#
#
# Convention : Reuss Voigt Hill
#
# Bulk Modulus (GPa) = 5.97760 14.05740 10.01750
# Shear Modulus (GPa) = 13.73192 19.02558 16.37875
#
# Velocity S-wave (km/s) = 2.72187 3.20383 2.97263
# Velocity P-wave (km/s) = 3.61982 4.61197 4.14568
#
# Compressibility (1/GPa) = 0.16729130
#
# Stress axis : x y z
#
# Youngs Moduli (GPa) = 56.37658 37.81455 8.44960
#
# Poissons Ratio (x) = 0.18399 0.06083
# Poissons Ratio (y) = 0.27431 -0.12206
# Poissons Ratio (z) = 0.40589 -0.54623
#
# Static dielectric constant tensor:
#      x y z
#    x 1.686290 0.000000 0.000000 
#    y 0.000000 1.642280 0.000000 
#    z 0.000000 0.000000 1.626310 
# 
# From -- ./inp_files/69903.got.cif
#   From: 2010.05.17/outbox.cif.g08.bks.cpg/sg71_35_cif.got.tgz:69903.got - 2010.06.03 16:22:01.
