data_PCOD9518723
_publ_section_title
;
Structure prediction by ZEFSAII (Michael W. Deem and Ramdas Pophale) SiO2 
 PCOD9518723
Probable space group: I M M M
;
_chemical_formula_sum "Si O2"
_cell_formula_units_Z 112
_cell_length_a 15.044905
_cell_length_b 30.452548
_cell_length_c 14.380675
_cell_angle_alpha 90.000000
_cell_angle_beta 90.000000
_cell_angle_gamma 90.000000
_cell_volume 6588.588101
_symmetry_space_group_name_H-M "I M M M"
_symmetry_group_IT_number 71
_symmetry_cell_setting 'orthorhombic'
loop_
_space_group_symop_operation_xyz
x,y,z
-x,-y,z
x,-y,-z
-x,y,-z
-x,-y,-z
x,y,-z
-x,y,z
x,-y,z
1/2+x,1/2+y,1/2+z
1/2-x,1/2-y,1/2+z
1/2+x,1/2-y,1/2-z
1/2-x,1/2+y,1/2-z
1/2-x,1/2-y,1/2-z
1/2+x,1/2+y,1/2-z
1/2-x,1/2+y,1/2+z
1/2+x,1/2-y,1/2+z
loop_
_atom_site_type_symbol
_atom_site_label
_atom_site_fract_x
_atom_site_fract_y
_atom_site_fract_z
Si Si1 0.715285 0.878500 0.777444
Si Si2 0.851549 0.781288 0.608016
Si Si3 0.398970 0.663736 0.722301
Si Si4 0.095927 0.315728 0.390431
Si Si5 0.900107 0.650374 0.889394
Si Si6 0.395998 0.947699 0.890684
Si Si7 0.150692 0.747766 0.889154
O O1 0.820826 0.872130 0.788305
O O2 0.673247 0.837480 0.833101
O O3 0.674586 0.872454 0.674021
O O4 0.671050 0.920427 0.826853
O O5 0.852536 0.793507 0.500000
O O6 0.888270 0.818979 0.672575
O O7 0.904391 0.736279 0.621243
O O8 0.751420 0.766744 0.633195
O O9 0.500000 0.649493 0.703254
O O10 0.378668 0.708200 0.662828
O O11 0.108585 0.324176 0.500000
O O12 0.000000 0.333921 0.361885
O O13 0.901140 0.702726 0.867874
O O14 0.000000 0.633142 0.871515
O O15 0.881329 0.646561 0.000000
O O16 0.500000 0.938441 0.868809
O O17 0.383357 0.000000 0.881078
O O18 0.383005 0.936416 0.000000
O O19 0.145147 0.755896 0.000000
#
# Coordination Sequence:
#
# PCOD9518723 Si02
#       7
#    16  16  16  16  16  16  16
#     4  12  21  33  52  74 101 133 165 209 256 301
#     4  10  19  34  50  65  94 137 180 224 266 297
#     4  12  24  34  47  69  99 139 185 224 256 291
#     4  10  19  29  46  73  99 126 164 211 263 311
#     4  10  20  32  48  71  99 135 176 212 249 298
#     4   9  19  37  62  90 112 127 148 186 247 322
#     4  10  19  34  49  63  94 141 182 217 257 297
#
# _framework density 16.999089999999999
#
# number of rings (size 3 to 8) (size 9 to 14) (size 15 to 20)
#    0.000    1.571    2.857    4.286    0.000    3.429 
#    0.000    0.000    0.000    0.857    0.000    3.000 
#    0.000    0.000    0.000    2.571    0.000    0.143 
#
# Total GULP energy -312589.558426 kJ/mol
# GULP energy per Si atom -5581.956400 kJ/mol
# Density = 1.696040 g / cm^3
# Si number density = 16.999090 Si / 1000 Ang^3
#
#
#
# Elastic Constant Matrix: (Units=GPa)
#
#
# Indices 1 2 3 4 5 6 
#
# 1 129.9113 36.9659 34.8023 0.0000 0.0000 0.0000
# 2 36.9659 57.3752 30.0817 0.0001 0.0000 -0.0003
# 3 34.8023 30.0817 60.1586 0.0001 0.0001 0.0003
# 4 0.0000 0.0001 0.0001 18.5298 0.0000 -0.0001
# 5 0.0000 0.0000 0.0001 0.0000 11.4298 0.0001
# 6 0.0000 -0.0003 0.0003 -0.0001 0.0001 170.5179
#
#
#
# Elastic Compliance Matrix: (Units=1/GPa)
#
#
# Indices 1 2 3 4 5 6 
#
# 1 0.009927 -0.004587 -0.003449 0.000000 0.000000 0.000000
# 2 -0.004587 0.025742 -0.010218 0.000000 0.000000 0.000000
# 3 -0.003449 -0.010218 0.023727 0.000000 0.000000 0.000000
# 4 0.000000 0.000000 0.000000 0.053967 0.000000 0.000000
# 5 0.000000 0.000000 0.000000 0.000000 0.087491 0.000000
# 6 0.000000 0.000000 0.000000 0.000000 0.000000 0.005864
#
#
# Mechanical properties :
#
#
# Convention : Reuss Voigt Hill
#
# Bulk Modulus (GPa) = 43.69221 50.12719 46.90970
# Shear Modulus (GPa) = 19.93169 49.80185 34.86677
#
# Velocity S-wave (km/s) = 3.42792 5.41852 4.53382
# Velocity P-wave (km/s) = 6.43630 8.28851 7.42042
#
# Compressibility (1/GPa) = 0.02288738
#
# Stress axis : x y z
#
# Youngs Moduli (GPa) = 100.73706 38.84684 42.14532
#
# Poissons Ratio (x) = 0.17821 0.14535
# Poissons Ratio (y) = 0.46213 0.43065
# Poissons Ratio (z) = 0.34743 0.39694
#
# Static dielectric constant tensor:
#      x y z
#    x 1.641780 0.000000 0.000000 
#    y 0.000000 1.553590 0.000000 
#    z 0.000000 0.000000 1.617740 
# 
# From -- ./inp_files/35364.got.cif
#   From: 2010.05.17/outbox.cif.g08.bks.cpg/sg71_18_cif.got.tgz:35364.got - 2010.06.03 16:22:01.
