data_PCOD9518300
_publ_section_title
;
Structure prediction by ZEFSAII (Michael W. Deem and Ramdas Pophale) SiO2 
 PCOD9518300
Probable space group: I M M M
;
_chemical_formula_sum "Si O2"
_cell_formula_units_Z 104
_cell_length_a 7.905822
_cell_length_b 22.853776
_cell_length_c 27.744087
_cell_angle_alpha 90.000000
_cell_angle_beta 90.000000
_cell_angle_gamma 90.000000
_cell_volume 5012.742963
_symmetry_space_group_name_H-M "I M M M"
_symmetry_group_IT_number 71
_symmetry_cell_setting 'orthorhombic'
loop_
_space_group_symop_operation_xyz
x,y,z
-x,-y,z
x,-y,-z
-x,y,-z
-x,-y,-z
x,y,-z
-x,y,z
x,-y,z
1/2+x,1/2+y,1/2+z
1/2-x,1/2-y,1/2+z
1/2+x,1/2-y,1/2-z
1/2-x,1/2+y,1/2-z
1/2-x,1/2-y,1/2-z
1/2+x,1/2+y,1/2-z
1/2-x,1/2+y,1/2+z
1/2+x,1/2-y,1/2+z
loop_
_atom_site_type_symbol
_atom_site_label
_atom_site_fract_x
_atom_site_fract_y
_atom_site_fract_z
Si Si1 0.803141 0.406204 0.446679
Si Si2 0.294699 0.062750 0.844079
Si Si3 0.698888 0.308997 0.185014
Si Si4 0.192353 0.777022 0.057340
Si Si5 0.792736 0.432369 0.000000
Si Si6 0.799961 0.182983 0.794150
Si Si7 0.799280 0.652317 0.914015
O O1 0.727407 0.416423 0.500000
O O2 0.731089 0.435814 0.399320
O O3 0.790447 0.337015 0.435402
O O4 0.000000 0.422855 0.449727
O O5 0.500000 0.065517 0.845083
O O6 0.233277 0.120862 0.818134
O O7 0.246256 0.000000 0.822052
O O8 0.500000 0.320455 0.185289
O O9 0.727096 0.239148 0.177673
O O10 0.768009 0.318527 0.239176
O O11 0.774239 0.350265 0.143411
O O12 0.273330 0.716565 0.074238
O O13 0.000000 0.783840 0.077335
O O14 0.177198 0.770482 0.000000
O O15 0.738256 0.396777 0.048289
O O16 0.736839 0.500000 0.000000
O O17 0.000000 0.433471 0.000000
O O18 0.000000 0.193332 0.791653
O O19 0.000000 0.656484 0.923430
#
# Coordination Sequence:
#
# PCOD9518300 Si02
#       7
#    16  16  16  16   8  16  16
#     4   9  18  31  47  71 103 136 171 210 255 305
#     4  10  21  36  54  76 105 143 183 222 263 311
#     4  10  21  36  57  84 111 137 172 225 286 338
#     4   9  16  27  44  69 101 133 166 207 254 299
#     4   9  18  34  55  79 111 151 192 231 272 327
#     4  10  21  38  58  81 109 142 180 225 278 332
#     4  10  18  31  53  80 108 142 182 222 268 324
#
# _framework density 20.747122999999998
#
# number of rings (size 3 to 8) (size 9 to 14) (size 15 to 20)
#    0.000    2.385    0.769    1.846    0.000    6.154 
#    0.000    2.692    0.000    3.692    0.000    3.231 
#    0.000    0.000    0.000    0.000    0.000    0.000 
#
# Total GULP energy -289928.447625 kJ/mol
# GULP energy per Si atom -5575.547070 kJ/mol
# Density = 2.069990 g / cm^3
# Si number density = 20.747123 Si / 1000 Ang^3
#
#
#
# Elastic Constant Matrix: (Units=GPa)
#
#
# Indices 1 2 3 4 5 6 
#
# 1 19.8139 -0.5122 -0.4523 0.0000 0.0000 0.0000
# 2 -0.5122 115.4375 75.2413 0.0000 0.0000 0.0000
# 3 -0.4523 75.2413 110.5781 0.0000 0.0000 0.0000
# 4 0.0000 0.0000 0.0000 17.9113 0.0000 0.0000
# 5 0.0000 0.0000 0.0000 0.0000 16.2382 0.0000
# 6 0.0000 0.0000 0.0000 0.0000 0.0000 15.2209
#
#
#
# Elastic Compliance Matrix: (Units=1/GPa)
#
#
# Indices 1 2 3 4 5 6 
#
# 1 0.050476 0.000161 0.000097 0.000000 0.000000 0.000000
# 2 0.000161 0.015567 -0.010592 0.000000 0.000000 0.000000
# 3 0.000097 -0.010592 0.016251 0.000000 0.000000 0.000000
# 4 0.000000 0.000000 0.000000 0.055831 0.000000 0.000000
# 5 0.000000 0.000000 0.000000 0.000000 0.061583 0.000000
# 6 0.000000 0.000000 0.000000 0.000000 0.000000 0.065699
#
#
# Mechanical properties :
#
#
# Convention : Reuss Voigt Hill
#
# Bulk Modulus (GPa) = 16.22693 43.82036 30.02364
# Shear Modulus (GPa) = 16.30701 21.31092 18.80896
#
# Velocity S-wave (km/s) = 2.80659 3.20843 3.01422
# Velocity P-wave (km/s) = 4.28262 5.90698 5.15913
#
# Compressibility (1/GPa) = 0.06162596
#
# Stress axis : x y z
#
# Youngs Moduli (GPa) = 19.81138 64.23859 61.53575
#
# Poissons Ratio (x) = -0.01032 -0.00598
# Poissons Ratio (y) = -0.00318 0.65177
# Poissons Ratio (z) = -0.00192 0.68039
#
# Static dielectric constant tensor:
#      x y z
#    x 1.766060 0.000000 0.000000 
#    y 0.000000 1.738640 0.000000 
#    z 0.000000 0.000000 1.802580 
# 
# From -- ./inp_files/63522.got.cif
#   From: 2010.05.17/outbox.cif.g08.bks.cpg/sg71_32_cif.got.tgz:63522.got - 2010.06.03 16:22:01.
