data_PCOD9518858
_publ_section_title
;
Structure prediction by ZEFSAII (Michael W. Deem and Ramdas Pophale) SiO2 
 PCOD9518858
Probable space group: I M M M
;
_chemical_formula_sum "Si O2"
_cell_formula_units_Z 72
_cell_length_a 7.307725
_cell_length_b 30.277295
_cell_length_c 14.287257
_cell_angle_alpha 90.000000
_cell_angle_beta 90.000000
_cell_angle_gamma 90.000000
_cell_volume 3161.171990
_symmetry_space_group_name_H-M "I M M M"
_symmetry_group_IT_number 71
_symmetry_cell_setting 'orthorhombic'
loop_
_space_group_symop_operation_xyz
x,y,z
-x,-y,z
x,-y,-z
-x,y,-z
-x,-y,-z
x,y,-z
-x,y,z
x,-y,z
1/2+x,1/2+y,1/2+z
1/2-x,1/2-y,1/2+z
1/2+x,1/2-y,1/2-z
1/2-x,1/2+y,1/2-z
1/2-x,1/2-y,1/2-z
1/2+x,1/2+y,1/2-z
1/2-x,1/2+y,1/2+z
1/2+x,1/2-y,1/2+z
loop_
_atom_site_type_symbol
_atom_site_label
_atom_site_fract_x
_atom_site_fract_y
_atom_site_fract_z
Si Si1 0.775561 0.500000 0.892396
Si Si2 0.783808 0.267496 0.613677
Si Si3 0.210038 0.583835 0.222506
Si Si4 0.724373 0.135874 0.892223
Si Si5 0.221379 0.828021 0.609439
O O1 0.713010 0.543700 0.837520
O O2 0.000000 0.500000 0.895249
O O3 0.716205 0.500000 0.000000
O O4 0.765434 0.266779 0.500000
O O5 0.711875 0.315491 0.641917
O O6 0.712651 0.219933 0.646678
O O7 0.000000 0.267552 0.633489
O O8 0.289137 0.598050 0.322394
O O9 0.213122 0.629124 0.163543
O O10 0.000000 0.571278 0.240441
O O11 0.500000 0.136897 0.890074
O O12 0.776829 0.129848 0.000000
O O13 0.273068 0.831461 0.500000
O O14 0.000000 0.827802 0.612989
#
# Coordination Sequence:
#
# PCOD9518858 Si02
#       5
#     8  16  16  16  16
#     4   9  18  32  46  62  90 121 143 175 230 279
#     4   7  11  22  40  61  88 120 145 169 214 269
#     4  10  19  30  47  68  87 115 154 187 220 264
#     4   8  14  26  44  66  91 117 147 183 219 259
#     4   9  17  29  45  66  92 120 148 179 218 265
#
# _framework density 22.776364000000001
#
# number of rings (size 3 to 8) (size 9 to 14) (size 15 to 20)
#    0.000    3.444    0.000    3.333    0.000    2.222 
#    0.000    1.111    0.000    6.000    0.000    3.111 
#    0.000    1.778    0.000    0.000    0.000    0.000 
#
# Total GULP energy -200937.221832 kJ/mol
# GULP energy per Si atom -5581.589495 kJ/mol
# Density = 2.272452 g / cm^3
# Si number density = 22.776364 Si / 1000 Ang^3
#
#
#
# Elastic Constant Matrix: (Units=GPa)
#
#
# Indices 1 2 3 4 5 6 
#
# 1 91.6704 4.1906 -1.2117 0.0000 0.0000 0.0000
# 2 4.1906 189.7022 102.8845 0.0000 0.0000 0.0000
# 3 -1.2117 102.8845 133.0966 -0.0001 0.0000 0.0000
# 4 0.0000 0.0000 -0.0001 45.2088 0.0000 0.0000
# 5 0.0000 0.0000 0.0000 0.0000 -2.6328 0.0000
# 6 0.0000 0.0000 0.0000 0.0000 0.0000 104.9927
#
#
#
# Elastic Compliance Matrix: (Units=1/GPa)
#
#
# Indices 1 2 3 4 5 6 
#
# 1 0.010938 -0.000509 0.000493 0.000000 0.000000 0.000000
# 2 -0.000509 0.009100 -0.007039 0.000000 0.000000 0.000000
# 3 0.000493 -0.007039 0.012959 0.000000 0.000000 0.000000
# 4 0.000000 0.000000 0.000000 0.022120 0.000000 0.000000
# 5 0.000000 0.000000 0.000000 0.000000 -0.379820 0.000000
# 6 0.000000 0.000000 0.000000 0.000000 0.000000 0.009524
#
#
# Mechanical properties :
#
#
# Convention : Reuss Voigt Hill
#
# Bulk Modulus (GPa) = 52.94492 69.57733 61.26112
# Shear Modulus (GPa) = -16.96232 50.08745 16.56257
#
# Velocity S-wave (km/s) = -2.73194 4.69454 2.69956
# Velocity P-wave (km/s) = 3.65304 7.74592 6.05574
#
# Compressibility (1/GPa) = 0.01888755
#
# Stress axis : x y z
#
# Youngs Moduli (GPa) = 91.42070 109.88504 77.16487
#
# Poissons Ratio (x) = 0.05594 -0.03805
# Poissons Ratio (y) = 0.04654 0.54319
# Poissons Ratio (z) = -0.04508 0.77352
#
# Static dielectric constant tensor:
#      x y z
#    x 1.863960 0.000000 0.000000 
#    y 0.000000 1.825770 0.000000 
#    z 0.000000 0.000000 1.857940 
# 
# From -- ./inp_files/6006.got.cif
#   From: 2010.05.17/outbox.cif.g08.bks.cpg/sg71_4_cif.got.tgz:6006.got - 2010.06.03 16:22:01.
