data_PCOD9518064
_publ_section_title
;
Structure prediction by ZEFSAII (Michael W. Deem and Ramdas Pophale) SiO2 
 PCOD9518064
Probable space group: I M M M
;
_chemical_formula_sum "Si O2"
_cell_formula_units_Z 104
_cell_length_a 8.711867
_cell_length_b 27.812451
_cell_length_c 22.698770
_cell_angle_alpha 90.000000
_cell_angle_beta 90.000000
_cell_angle_gamma 90.000000
_cell_volume 5499.875064
_symmetry_space_group_name_H-M "I M M M"
_symmetry_group_IT_number 71
_symmetry_cell_setting 'orthorhombic'
loop_
_space_group_symop_operation_xyz
x,y,z
-x,-y,z
x,-y,-z
-x,y,-z
-x,-y,-z
x,y,-z
-x,y,z
x,-y,z
1/2+x,1/2+y,1/2+z
1/2-x,1/2-y,1/2+z
1/2+x,1/2-y,1/2-z
1/2-x,1/2+y,1/2-z
1/2-x,1/2-y,1/2-z
1/2+x,1/2+y,1/2-z
1/2-x,1/2+y,1/2+z
1/2+x,1/2-y,1/2+z
loop_
_atom_site_type_symbol
_atom_site_label
_atom_site_fract_x
_atom_site_fract_y
_atom_site_fract_z
Si Si1 0.325570 0.199843 0.740029
Si Si2 0.174811 0.000000 0.569979
Si Si3 0.175935 0.695305 0.899916
Si Si4 0.683482 0.443409 0.752223
Si Si5 0.682901 0.302841 0.569606
Si Si6 0.815161 0.625661 0.665030
Si Si7 0.315037 0.905627 0.625285
O O1 0.500000 0.203116 0.760025
O O2 0.250000 0.250000 0.750000
O O3 0.326026 0.191749 0.670865
O O4 0.255279 0.160465 0.782355
O O5 0.261356 0.952859 0.591732
O O6 0.168398 0.000000 0.500000
O O7 0.000000 0.000000 0.594067
O O8 0.241132 0.748004 0.916226
O O9 0.243211 0.642009 0.910589
O O10 0.000000 0.696210 0.922923
O O11 0.500000 0.437799 0.753939
O O12 0.720542 0.500000 0.759893
O O13 0.746421 0.424294 0.689192
O O14 0.755690 0.414403 0.807748
O O15 0.701723 0.310580 0.500000
O O16 0.500000 0.303024 0.583753
O O17 0.760606 0.345491 0.607111
O O18 0.000000 0.621264 0.663975
O O19 0.500000 0.901990 0.627866
#
# Coordination Sequence:
#
# PCOD9518064 Si02
#       7
#    16   8  16  16  16  16  16
#     4  10  18  30  49  78 111 143 181 225 275 327
#     4  11  25  43  57  75 111 159 208 251 294 347
#     4   9  18  33  53  82 116 148 187 235 285 339
#     4  11  23  38  59  88 121 152 187 236 300 363
#     4  10  21  38  59  82 114 157 198 237 286 349
#     4  11  22  36  57  85 116 151 192 239 292 349
#     4  11  21  36  60  88 117 150 197 251 299 346
#
# _framework density 18.909520000000001
#
# number of rings (size 3 to 8) (size 9 to 14) (size 15 to 20)
#    0.000    1.615    3.846    1.615    0.000    3.077 
#    0.000    3.077    0.000    0.462    0.000    3.231 
#    0.000    0.000    0.000    0.000    0.000    0.000 
#
# Total GULP energy -289613.017780 kJ/mol
# GULP energy per Si atom -5569.481111 kJ/mol
# Density = 1.886648 g / cm^3
# Si number density = 18.909520 Si / 1000 Ang^3
#
#
#
# Elastic Constant Matrix: (Units=GPa)
#
#
# Indices 1 2 3 4 5 6 
#
# 1 39.6587 23.4984 24.9090 0.0000 0.0000 0.0000
# 2 23.4984 78.1576 31.1732 0.0000 0.0000 0.0000
# 3 24.9090 31.1732 69.9551 0.0000 0.0000 0.0000
# 4 0.0000 0.0000 0.0000 13.5156 0.0000 0.0000
# 5 0.0000 0.0000 0.0000 0.0000 21.9962 0.0000
# 6 0.0000 0.0000 0.0000 0.0000 0.0000 17.7600
#
#
#
# Elastic Compliance Matrix: (Units=1/GPa)
#
#
# Indices 1 2 3 4 5 6 
#
# 1 0.035215 -0.006794 -0.009511 0.000000 0.000000 0.000000
# 2 -0.006794 0.016871 -0.005099 0.000000 0.000000 0.000000
# 3 -0.009511 -0.005099 0.019954 0.000000 0.000000 0.000000
# 4 0.000000 0.000000 0.000000 0.073988 0.000000 0.000000
# 5 0.000000 0.000000 0.000000 0.000000 0.045462 0.000000
# 6 0.000000 0.000000 0.000000 0.000000 0.000000 0.056306
#
#
# Mechanical properties :
#
#
# Convention : Reuss Voigt Hill
#
# Bulk Modulus (GPa) = 34.21021 38.54804 36.37912
# Shear Modulus (GPa) = 16.64733 17.86709 17.25721
#
# Velocity S-wave (km/s) = 2.97032 3.07721 3.02424
# Velocity P-wave (km/s) = 5.46759 5.74938 5.61026
#
# Compressibility (1/GPa) = 0.02923104
#
# Stress axis : x y z
#
# Youngs Moduli (GPa) = 28.39732 59.27355 50.11575
#
# Poissons Ratio (x) = 0.40269 0.47668
# Poissons Ratio (y) = 0.19292 0.25554
# Poissons Ratio (z) = 0.27010 0.30223
#
# Static dielectric constant tensor:
#      x y z
#    x 1.659200 0.000000 0.000000 
#    y 0.000000 1.751330 0.000000 
#    z 0.000000 0.000000 1.637890 
# 
# From -- ./inp_files/57969.got.cif
#   From: 2010.05.17/outbox.cif.g08.bks.cpg/sg71_29_cif.got.tgz:57969.got - 2010.06.03 16:22:01.
