data_PCOD9518385
_publ_section_title
;
Structure prediction by ZEFSAII (Michael W. Deem and Ramdas Pophale) SiO2 
 PCOD9518385
Probable space group: I M M M
;
_chemical_formula_sum "Si O2"
_cell_formula_units_Z 96
_cell_length_a 16.768299
_cell_length_b 18.964038
_cell_length_c 15.605118
_cell_angle_alpha 90.000000
_cell_angle_beta 90.000000
_cell_angle_gamma 90.000000
_cell_volume 4962.344184
_symmetry_space_group_name_H-M "I M M M"
_symmetry_group_IT_number 71
_symmetry_cell_setting 'orthorhombic'
loop_
_space_group_symop_operation_xyz
x,y,z
-x,-y,z
x,-y,-z
-x,y,-z
-x,-y,-z
x,y,-z
-x,y,z
x,-y,z
1/2+x,1/2+y,1/2+z
1/2-x,1/2-y,1/2+z
1/2+x,1/2-y,1/2-z
1/2-x,1/2+y,1/2-z
1/2-x,1/2-y,1/2-z
1/2+x,1/2+y,1/2-z
1/2-x,1/2+y,1/2+z
1/2+x,1/2-y,1/2+z
loop_
_atom_site_type_symbol
_atom_site_label
_atom_site_fract_x
_atom_site_fract_y
_atom_site_fract_z
Si Si1 0.803968 0.285467 0.174333
Si Si2 0.093191 0.157579 0.218404
Si Si3 0.877315 0.635866 0.595313
Si Si4 0.202530 0.080742 0.094959
Si Si5 0.358834 0.701298 0.905123
Si Si6 0.909525 0.581348 0.776170
O O1 0.750000 0.250000 0.250000
O O2 0.874996 0.228773 0.171294
O O3 0.737700 0.293878 0.101219
O O4 0.845237 0.360535 0.193538
O O5 0.142726 0.097525 0.170669
O O6 0.112757 0.161283 0.319880
O O7 0.000000 0.149789 0.207010
O O8 0.900985 0.612777 0.500000
O O9 0.781607 0.627380 0.601596
O O10 0.893350 0.719154 0.604042
O O11 0.911710 0.592621 0.673600
O O12 0.229509 0.000000 0.099257
O O13 0.166889 0.092467 0.000000
O O14 0.381300 0.675040 0.000000
O O15 0.888319 0.500000 0.795340
O O16 0.000000 0.594820 0.808581
#
# Coordination Sequence:
#
# PCOD9518385 Si02
#       6
#    16  16  16  16  16  16
#     4  10  18  35  56  77 104 144 194 242 275 328
#     4  11  21  34  57  83 112 151 190 232 285 344
#     4  10  18  32  53  78 111 149 190 229 270 328
#     4  10  21  37  58  86 118 150 186 230 283 345
#     4  10  20  35  57  83 111 145 190 246 289 326
#     4  11  22  34  51  80 118 153 185 229 293 359
#
# _framework density 19.345696
#
# number of rings (size 3 to 8) (size 9 to 14) (size 15 to 20)
#    0.000    1.667    5.000    2.000    0.000    2.333 
#    0.000    3.333    0.000    3.500    0.000    2.333 
#    0.000    0.000    0.000    0.000    0.000    0.000 
#
# Total GULP energy -267618.227900 kJ/mol
# GULP energy per Si atom -5575.379748 kJ/mol
# Density = 1.930166 g / cm^3
# Si number density = 19.345696 Si / 1000 Ang^3
#
#
#
# Elastic Constant Matrix: (Units=GPa)
#
#
# Indices 1 2 3 4 5 6 
#
# 1 75.4793 12.9049 6.9231 0.0000 0.0000 0.0000
# 2 12.9049 69.6177 3.8550 0.0000 0.0000 0.0000
# 3 6.9231 3.8550 42.2357 0.0000 0.0000 0.0000
# 4 0.0000 0.0000 0.0000 26.0182 0.0000 0.0000
# 5 0.0000 0.0000 0.0000 0.0000 7.5873 0.0000
# 6 0.0000 0.0000 0.0000 0.0000 0.0000 16.1062
#
#
#
# Elastic Compliance Matrix: (Units=1/GPa)
#
#
# Indices 1 2 3 4 5 6 
#
# 1 0.013856 -0.002455 -0.002047 0.000000 0.000000 0.000000
# 2 -0.002455 0.014872 -0.000955 0.000000 0.000000 0.000000
# 3 -0.002047 -0.000955 0.024099 0.000000 0.000000 0.000000
# 4 0.000000 0.000000 0.000000 0.038435 0.000000 0.000000
# 5 0.000000 0.000000 0.000000 0.000000 0.131799 0.000000
# 6 0.000000 0.000000 0.000000 0.000000 0.000000 0.062088
#
#
# Mechanical properties :
#
#
# Convention : Reuss Voigt Hill
#
# Bulk Modulus (GPa) = 23.85887 26.07763 24.96825
# Shear Modulus (GPa) = 16.12722 20.85234 18.48978
#
# Velocity S-wave (km/s) = 2.89040 3.28667 3.09489
# Velocity P-wave (km/s) = 4.84757 5.28318 5.07006
#
# Compressibility (1/GPa) = 0.04191314
#
# Stress axis : x y z
#
# Youngs Moduli (GPa) = 72.16993 67.23981 41.49485
#
# Poissons Ratio (x) = 0.16508 0.08495
# Poissons Ratio (y) = 0.17719 0.03963
# Poissons Ratio (z) = 0.14774 0.06421
#
# Static dielectric constant tensor:
#      x y z
#    x 1.712660 0.000000 0.000000 
#    y 0.000000 1.671890 0.000000 
#    z 0.000000 0.000000 1.714240 
# 
# From -- ./inp_files/46036.got.cif
#   From: 2010.05.17/outbox.cif.g08.bks.cpg/sg71_24_cif.got.tgz:46036.got - 2010.06.03 16:22:01.
