data_PCOD9518367
_publ_section_title
;
Structure prediction by ZEFSAII (Michael W. Deem and Ramdas Pophale) SiO2 
 PCOD9518367
Probable space group: I M M M
;
_chemical_formula_sum "Si O2"
_cell_formula_units_Z 120
_cell_length_a 28.505091
_cell_length_b 29.914074
_cell_length_c 7.548960
_cell_angle_alpha 90.000000
_cell_angle_beta 90.000000
_cell_angle_gamma 90.000000
_cell_volume 6437.023870
_symmetry_space_group_name_H-M "I M M M"
_symmetry_group_IT_number 71
_symmetry_cell_setting 'orthorhombic'
loop_
_space_group_symop_operation_xyz
x,y,z
-x,-y,z
x,-y,-z
-x,y,-z
-x,-y,-z
x,y,-z
-x,y,z
x,-y,z
1/2+x,1/2+y,1/2+z
1/2-x,1/2-y,1/2+z
1/2+x,1/2-y,1/2-z
1/2-x,1/2+y,1/2-z
1/2-x,1/2-y,1/2-z
1/2+x,1/2+y,1/2-z
1/2-x,1/2+y,1/2+z
1/2+x,1/2-y,1/2+z
loop_
_atom_site_type_symbol
_atom_site_label
_atom_site_fract_x
_atom_site_fract_y
_atom_site_fract_z
Si Si1 0.946401 0.500000 0.212952
Si Si2 0.151460 0.194934 0.793705
Si Si3 0.948903 0.225599 0.794067
Si Si4 0.691060 0.211286 0.794274
Si Si5 0.211059 0.448294 0.716799
Si Si6 0.233977 0.137729 0.217419
Si Si7 0.583874 0.820935 0.794644
Si Si8 0.389321 0.913030 0.206284
O O1 0.920592 0.543468 0.282584
O O2 0.000000 0.500000 0.267439
O O3 0.943500 0.500000 0.000000
O O4 0.099931 0.205991 0.715832
O O5 0.183650 0.239753 0.786609
O O6 0.183318 0.155039 0.720712
O O7 0.143795 0.185225 0.000000
O O8 0.942226 0.279254 0.790408
O O9 0.000000 0.214271 0.715508
O O10 0.950229 0.212268 0.000000
O O11 0.727945 0.175147 0.723861
O O12 0.639379 0.189920 0.785181
O O13 0.702729 0.218960 0.000000
O O14 0.209739 0.449502 0.500000
O O15 0.216235 0.500000 0.774230
O O16 0.250174 0.411990 0.769373
O O17 0.161512 0.427085 0.778378
O O18 0.234755 0.138395 0.000000
O O19 0.582695 0.870696 0.717268
O O20 0.568534 0.820844 0.000000
O O21 0.380854 0.900874 0.000000
#
# Coordination Sequence:
#
# PCOD9518367 Si02
#       8
#     8  16  16  16  16  16  16  16
#     4  11  25  39  47  59  81 107 137 181 230 259
#     4   9  17  27  40  60  85 110 140 172 201 240
#     4   9  18  31  43  56  81 117 149 174 203 240
#     4   9  15  25  41  61  87 111 131 160 202 249
#     4   9  15  25  45  69  87 105 132 169 216 261
#     4   9  15  24  40  63  88 109 130 165 210 251
#     4   9  17  28  45  67  85 103 134 174 212 249
#     4  10  18  32  52  67  80 103 138 176 214 262
#
# _framework density 18.642154999999999
#
# number of rings (size 3 to 8) (size 9 to 14) (size 15 to 20)
#    0.000    2.733    2.000    0.600    0.000    1.867 
#    0.000    2.667    0.000    0.800    0.000    0.000 
#    0.000    0.533    0.000    7.467    0.000    0.000 
#
# Total GULP energy -334380.508089 kJ/mol
# GULP energy per Si atom -5573.008468 kJ/mol
# Density = 1.859972 g / cm^3
# Si number density = 18.642155 Si / 1000 Ang^3
#
#
#
# Elastic Constant Matrix: (Units=GPa)
#
#
# Indices 1 2 3 4 5 6 
#
# 1 106.6634 50.2510 4.8065 0.0000 0.0000 0.0000
# 2 50.2510 66.9294 -1.3561 0.0000 0.0000 0.0000
# 3 4.8065 -1.3561 41.1554 0.0000 0.0000 0.0000
# 4 0.0000 0.0000 0.0000 9.1426 0.0000 0.0000
# 5 0.0000 0.0000 0.0000 0.0000 77.0549 0.0000
# 6 0.0000 0.0000 0.0000 0.0000 0.0000 7.2019
#
#
#
# Elastic Compliance Matrix: (Units=1/GPa)
#
#
# Indices 1 2 3 4 5 6 
#
# 1 0.014682 -0.011066 -0.002079 0.000000 0.000000 0.000000
# 2 -0.011066 0.023291 0.002060 0.000000 0.000000 0.000000
# 3 -0.002079 0.002060 0.024609 0.000000 0.000000 0.000000
# 4 0.000000 0.000000 0.000000 0.109378 0.000000 0.000000
# 5 0.000000 0.000000 0.000000 0.000000 0.012978 0.000000
# 6 0.000000 0.000000 0.000000 0.000000 0.000000 0.138853
#
#
# Mechanical properties :
#
#
# Convention : Reuss Voigt Hill
#
# Bulk Modulus (GPa) = 24.74526 35.79454 30.26990
# Shear Modulus (GPa) = 13.91083 29.41631 21.66357
#
# Velocity S-wave (km/s) = 2.73464 3.97665 3.41262
# Velocity P-wave (km/s) = 4.82427 6.35039 5.63920
#
# Compressibility (1/GPa) = 0.04041177
#
# Stress axis : x y z
#
# Youngs Moduli (GPa) = 68.10974 42.93509 40.63573
#
# Poissons Ratio (x) = 0.47510 0.08450
# Poissons Ratio (y) = 0.75368 -0.08370
# Poissons Ratio (z) = 0.14162 -0.08844
#
# Static dielectric constant tensor:
#      x y z
#    x 1.674570 0.000000 0.000000 
#    y 0.000000 1.648200 0.000000 
#    z 0.000000 0.000000 1.768560 
# 
# From -- ./inp_files/30369.got.cif
#   From: 2010.05.17/outbox.cif.g08.bks.cpg/sg71_16_cif.got.tgz:30369.got - 2010.06.03 16:22:01.
