data_PCOD9518222
_publ_section_title
;
Structure prediction by ZEFSAII (Michael W. Deem and Ramdas Pophale) SiO2 
 PCOD9518222
Probable space group: I M M M
;
_chemical_formula_sum "Si O2"
_cell_formula_units_Z 96
_cell_length_a 23.784126
_cell_length_b 8.104370
_cell_length_c 26.557972
_cell_angle_alpha 90.000000
_cell_angle_beta 90.000000
_cell_angle_gamma 90.000000
_cell_volume 5119.191380
_symmetry_space_group_name_H-M "I M M M"
_symmetry_group_IT_number 71
_symmetry_cell_setting 'orthorhombic'
loop_
_space_group_symop_operation_xyz
x,y,z
-x,-y,z
x,-y,-z
-x,y,-z
-x,-y,-z
x,y,-z
-x,y,z
x,-y,z
1/2+x,1/2+y,1/2+z
1/2-x,1/2-y,1/2+z
1/2+x,1/2-y,1/2-z
1/2-x,1/2+y,1/2-z
1/2-x,1/2-y,1/2-z
1/2+x,1/2+y,1/2-z
1/2-x,1/2+y,1/2+z
1/2+x,1/2-y,1/2+z
loop_
_atom_site_type_symbol
_atom_site_label
_atom_site_fract_x
_atom_site_fract_y
_atom_site_fract_z
Si Si1 0.851662 0.802545 0.914320
Si Si2 0.436225 0.197215 0.500000
Si Si3 0.770416 0.815413 0.558461
Si Si4 0.933378 0.300871 0.500000
Si Si5 0.190274 0.801111 0.808368
Si Si6 0.376430 0.813818 0.898484
Si Si7 0.819915 0.698775 0.303945
O O1 0.794401 0.728467 0.936607
O O2 0.848290 0.750774 0.855614
O O3 0.847778 0.000000 0.916037
O O4 0.902649 0.751034 0.949969
O O5 0.500000 0.261019 0.500000
O O6 0.437398 0.000000 0.500000
O O7 0.785128 0.814468 0.500000
O O8 0.811186 0.686350 0.584557
O O9 0.780998 0.000000 0.578395
O O10 0.921226 0.500000 0.500000
O O11 0.908023 0.236526 0.446822
O O12 0.000000 0.277365 0.500000
O O13 0.169799 0.741800 0.754109
O O14 0.255470 0.742830 0.815110
O O15 0.192260 0.000000 0.807471
O O16 0.367447 0.737664 0.842964
O O17 0.399026 0.000000 0.892944
O O18 0.819795 0.500000 0.308958
#
# Coordination Sequence:
#
# PCOD9518222 Si02
#       7
#    16   8  16   8  16  16  16
#     4  11  21  35  56  78 105 138 175 211 253 310
#     4  11  25  42  57  78 107 136 172 219 268 313
#     4  11  21  30  45  75 109 136 168 205 257 315
#     4   9  18  31  51  76  97 126 170 217 260 297
#     4   9  18  31  47  73 105 136 170 205 247 301
#     4  10  18  31  51  72 102 138 172 211 256 309
#     4   9  17  29  45  71 104 139 174 204 248 305
#
# _framework density 18.752960999999999
#
# number of rings (size 3 to 8) (size 9 to 14) (size 15 to 20)
#    0.000    2.000    3.333    1.250    0.000    3.333 
#    0.000    0.000    0.000    2.000    0.000    2.333 
#    0.000    0.000    0.000    0.000    0.000    0.000 
#
# Total GULP energy -267386.953551 kJ/mol
# GULP energy per Si atom -5570.561532 kJ/mol
# Density = 1.871028 g / cm^3
# Si number density = 18.752961 Si / 1000 Ang^3
#
#
#
# Elastic Constant Matrix: (Units=GPa)
#
#
# Indices 1 2 3 4 5 6 
#
# 1 55.7889 0.9732 44.5860 0.0000 0.0000 0.0000
# 2 0.9732 34.1264 13.9082 0.0000 0.0000 0.0000
# 3 44.5860 13.9082 171.0980 0.0000 0.0000 0.0000
# 4 0.0000 0.0000 0.0000 24.7229 0.0000 0.0000
# 5 0.0000 0.0000 0.0000 0.0000 13.2145 0.0000
# 6 0.0000 0.0000 0.0000 0.0000 0.0000 11.5497
#
#
#
# Elastic Compliance Matrix: (Units=1/GPa)
#
#
# Indices 1 2 3 4 5 6 
#
# 1 0.022749 0.001828 -0.006077 0.000000 0.000000 0.000000
# 2 0.001828 0.030454 -0.002952 0.000000 0.000000 0.000000
# 3 -0.006077 -0.002952 0.007668 0.000000 0.000000 0.000000
# 4 0.000000 0.000000 0.000000 0.040448 0.000000 0.000000
# 5 0.000000 0.000000 0.000000 0.000000 0.075674 0.000000
# 6 0.000000 0.000000 0.000000 0.000000 0.000000 0.086583
#
#
# Mechanical properties :
#
#
# Convention : Reuss Voigt Hill
#
# Bulk Modulus (GPa) = 21.51944 42.21644 31.86794
# Shear Modulus (GPa) = 17.03765 23.33382 20.18573
#
# Velocity S-wave (km/s) = 3.01745 3.53125 3.28442
# Velocity P-wave (km/s) = 4.86212 6.25996 5.60479
#
# Compressibility (1/GPa) = 0.04646960
#
# Stress axis : x y z
#
# Youngs Moduli (GPa) = 43.95734 32.83675 130.41070
#
# Poissons Ratio (x) = -0.06002 0.79248
# Poissons Ratio (y) = -0.08035 0.38495
# Poissons Ratio (z) = 0.26712 0.09693
#
# Static dielectric constant tensor:
#      x y z
#    x 1.619380 0.000000 0.000000 
#    y 0.000000 1.701350 0.000000 
#    z 0.000000 0.000000 1.748600 
# 
# From -- ./inp_files/66744.got.cif
#   From: 2010.05.17/outbox.cif.g08.bks.cpg/sg71_34_cif.got.tgz:66744.got - 2010.06.03 16:22:01.
