data_PCOD9518658
_publ_section_title
;
Structure prediction by ZEFSAII (Michael W. Deem and Ramdas Pophale) SiO2 
 PCOD9518658
Probable space group: I M M M
;
_chemical_formula_sum "Si O2"
_cell_formula_units_Z 104
_cell_length_a 34.192817
_cell_length_b 8.641401
_cell_length_c 25.517968
_cell_angle_alpha 90.000000
_cell_angle_beta 90.000000
_cell_angle_gamma 90.000000
_cell_volume 7539.892071
_symmetry_space_group_name_H-M "I M M M"
_symmetry_group_IT_number 71
_symmetry_cell_setting 'orthorhombic'
loop_
_space_group_symop_operation_xyz
x,y,z
-x,-y,z
x,-y,-z
-x,y,-z
-x,-y,-z
x,y,-z
-x,y,z
x,-y,z
1/2+x,1/2+y,1/2+z
1/2-x,1/2-y,1/2+z
1/2+x,1/2-y,1/2-z
1/2-x,1/2+y,1/2-z
1/2-x,1/2-y,1/2-z
1/2+x,1/2+y,1/2-z
1/2-x,1/2+y,1/2+z
1/2+x,1/2-y,1/2+z
loop_
_atom_site_type_symbol
_atom_site_label
_atom_site_fract_x
_atom_site_fract_y
_atom_site_fract_z
Si Si1 0.836773 0.684640 0.441238
Si Si2 0.547507 0.175240 0.000000
Si Si3 0.810124 0.685102 0.726842
Si Si4 0.121874 0.815868 0.339166
Si Si5 0.766448 0.313492 0.829238
Si Si6 0.544542 0.686533 0.887883
Si Si7 0.748841 0.813208 0.557290
O O1 0.851590 0.722098 0.500000
O O2 0.839751 0.500000 0.433626
O O3 0.858249 0.770822 0.394416
O O4 0.791449 0.735357 0.439980
O O5 0.557533 0.257203 0.054431
O O6 0.500000 0.171149 0.000000
O O7 0.562569 0.000000 0.000000
O O8 0.809095 0.500000 0.724197
O O9 0.851595 0.742302 0.705846
O O10 0.797990 0.735604 0.785611
O O11 0.775529 0.749744 0.689694
O O12 0.076889 0.763595 0.345709
O O13 0.122805 0.000000 0.332939
O O14 0.764369 0.500000 0.827082
O O15 0.773471 0.268210 0.889521
O O16 0.500000 0.740555 0.878355
O O17 0.544052 0.500000 0.888822
O O18 0.731642 0.774177 0.500000
O O19 0.754005 0.000000 0.558671
#
# Coordination Sequence:
#
# PCOD9518658 Si02
#       7
#    16   8  16  16  16  16  16
#     4  10  20  30  39  55  78 101 126 161 203 242
#     4   9  17  29  45  63  79  95 119 155 201 249
#     4  10  19  29  42  59  79 104 131 162 196 229
#     4  11  21  31  44  59  75  97 130 165 201 242
#     4   9  17  29  43  59  80 105 132 159 192 232
#     4   9  19  34  47  57  72  97 128 161 198 243
#     4   9  16  27  43  60  78 101 129 161 194 231
#
# _framework density 13.793301
#
# number of rings (size 3 to 8) (size 9 to 14) (size 15 to 20)
#    0.000    2.385    1.538    1.615    1.077    3.692 
#    0.000    0.000    0.000    0.000    0.000    0.000 
#    0.000    0.000    0.000    0.000    0.000    0.769 
#
# Total GULP energy -289793.474632 kJ/mol
# GULP energy per Si atom -5572.951435 kJ/mol
# Density = 1.376191 g / cm^3
# Si number density = 13.793301 Si / 1000 Ang^3
#
#
#
# Elastic Constant Matrix: (Units=GPa)
#
#
# Indices 1 2 3 4 5 6 
#
# 1 70.6213 11.2702 46.7396 0.0000 0.0000 0.0000
# 2 11.2702 7.7193 14.3189 0.0000 0.0000 0.0000
# 3 46.7396 14.3189 103.2691 0.0000 0.0000 0.0000
# 4 0.0000 0.0000 0.0000 16.2317 0.0000 0.0000
# 5 0.0000 0.0000 0.0000 0.0000 24.3473 0.0000
# 6 0.0000 0.0000 0.0000 0.0000 0.0000 11.1694
#
#
#
# Elastic Compliance Matrix: (Units=1/GPa)
#
#
# Indices 1 2 3 4 5 6 
#
# 1 0.021994 -0.018371 -0.007407 0.000000 0.000000 0.000000
# 2 -0.018371 0.189746 -0.017995 0.000000 0.000000 0.000000
# 3 -0.007407 -0.017995 0.015531 0.000000 0.000000 0.000000
# 4 0.000000 0.000000 0.000000 0.061608 0.000000 0.000000
# 5 0.000000 0.000000 0.000000 0.000000 0.041072 0.000000
# 6 0.000000 0.000000 0.000000 0.000000 0.000000 0.089531
#
#
# Mechanical properties :
#
#
# Convention : Reuss Voigt Hill
#
# Bulk Modulus (GPa) = 7.15692 36.25188 21.70440
# Shear Modulus (GPa) = 9.03173 17.63507 13.33340
#
# Velocity S-wave (km/s) = 2.56166 3.57952 3.11248
# Velocity P-wave (km/s) = 3.73490 6.58964 5.35597
#
# Compressibility (1/GPa) = 0.13972493
#
# Stress axis : x y z
#
# Youngs Moduli (GPa) = 45.46638 5.27020 64.38723
#
# Poissons Ratio (x) = 0.09682 0.47693
# Poissons Ratio (y) = 0.83528 1.15862
# Poissons Ratio (z) = 0.33678 0.09483
#
# Static dielectric constant tensor:
#      x y z
#    x 1.464600 0.000000 0.000000 
#    y 0.000000 1.463750 0.000000 
#    z 0.000000 0.000000 1.475500 
# 
# From -- ./inp_files/17434.got.cif
#   From: 2010.05.17/outbox.cif.g08.bks.cpg/sg71_9_cif.got.tgz:17434.got - 2010.06.03 16:22:01.
