data_PCOD9518926
_publ_section_title
;
Structure prediction by ZEFSAII (Michael W. Deem and Ramdas Pophale) SiO2 
 PCOD9518926
Probable space group: I M M M
;
_chemical_formula_sum "Si O2"
_cell_formula_units_Z 120
_cell_length_a 26.861326
_cell_length_b 28.311971
_cell_length_c 8.962532
_cell_angle_alpha 90.000000
_cell_angle_beta 90.000000
_cell_angle_gamma 90.000000
_cell_volume 6815.979440
_symmetry_space_group_name_H-M "I M M M"
_symmetry_group_IT_number 71
_symmetry_cell_setting 'orthorhombic'
loop_
_space_group_symop_operation_xyz
x,y,z
-x,-y,z
x,-y,-z
-x,y,-z
-x,-y,-z
x,y,-z
-x,y,z
x,-y,z
1/2+x,1/2+y,1/2+z
1/2-x,1/2-y,1/2+z
1/2+x,1/2-y,1/2-z
1/2-x,1/2+y,1/2-z
1/2-x,1/2-y,1/2-z
1/2+x,1/2+y,1/2-z
1/2-x,1/2+y,1/2+z
1/2+x,1/2-y,1/2+z
loop_
_atom_site_type_symbol
_atom_site_label
_atom_site_fract_x
_atom_site_fract_y
_atom_site_fract_z
Si Si1 0.942777 0.352281 0.179402
Si Si2 0.556913 0.500000 0.181380
Si Si3 0.640162 0.780801 0.320239
Si Si4 0.136450 0.077772 0.680446
Si Si5 0.838845 0.180945 0.322103
Si Si6 0.560498 0.948445 0.824511
Si Si7 0.272990 0.852747 0.679097
Si Si8 0.256891 0.553048 0.678642
O O1 0.909621 0.308198 0.226696
O O2 0.922013 0.401874 0.240444
O O3 0.000000 0.347190 0.228357
O O4 0.942009 0.354606 0.000000
O O5 0.500000 0.500000 0.235463
O O6 0.589738 0.545609 0.224486
O O7 0.555018 0.500000 0.000000
O O8 0.641202 0.777947 0.500000
O O9 0.644865 0.728721 0.255895
O O10 0.685492 0.815172 0.274148
O O11 0.142706 0.074510 0.500000
O O12 0.131470 0.133144 0.718326
O O13 0.187409 0.059410 0.754583
O O14 0.842354 0.187199 0.500000
O O15 0.781304 0.168900 0.286283
O O16 0.500000 0.948771 0.811128
O O17 0.578028 0.000000 0.770098
O O18 0.572023 0.944861 0.000000
O O19 0.276054 0.859018 0.500000
O O20 0.275173 0.903989 0.754988
O O21 0.258997 0.557269 0.500000
O O22 0.239306 0.500000 0.716147
#
# Coordination Sequence:
#
# PCOD9518926 Si02
#       8
#    16   8  16  16  16  16  16  16
#     4   9  18  32  49  69  93 123 161 199 233 279
#     4   9  16  28  51  79 105 137 175 213 250 289
#     4  10  20  34  51  71  96 128 164 202 245 293
#     4   9  17  31  51  74 100 132 170 206 244 293
#     4   9  18  31  49  74  98 122 159 204 247 293
#     4   8  14  26  45  68  91 115 148 190 234 278
#     4   9  19  34  51  72  97 126 163 203 246 297
#     4  10  19  30  48  75 103 130 163 201 244 300
#
# _framework density 17.605685999999999
#
# number of rings (size 3 to 8) (size 9 to 14) (size 15 to 20)
#    0.000    2.867    0.667    2.000    0.000    4.267 
#    0.000    2.667    0.000    5.600    0.000    0.000 
#    0.000    0.000    0.000    0.000    0.000    0.000 
#
# Total GULP energy -334382.124764 kJ/mol
# GULP energy per Si atom -5573.035413 kJ/mol
# Density = 1.756561 g / cm^3
# Si number density = 17.605686 Si / 1000 Ang^3
#
#
#
# Elastic Constant Matrix: (Units=GPa)
#
#
# Indices 1 2 3 4 5 6 
#
# 1 61.5986 65.1453 16.2260 0.0000 0.0000 0.0000
# 2 65.1453 198.2976 41.8916 0.0000 0.0000 0.0000
# 3 16.2260 41.8916 12.4689 0.0000 0.0000 0.0000
# 4 0.0000 0.0000 0.0000 28.8353 0.0000 0.0000
# 5 0.0000 0.0000 0.0000 0.0000 8.1705 0.0000
# 6 0.0000 0.0000 0.0000 0.0000 0.0000 14.9604
#
#
#
# Elastic Compliance Matrix: (Units=1/GPa)
#
#
# Indices 1 2 3 4 5 6 
#
# 1 0.025961 -0.004795 -0.017673 0.000000 0.000000 0.000000
# 2 -0.004795 0.018260 -0.055108 0.000000 0.000000 0.000000
# 3 -0.017673 -0.055108 0.288343 0.000000 0.000000 0.000000
# 4 0.000000 0.000000 0.000000 0.034680 0.000000 0.000000
# 5 0.000000 0.000000 0.000000 0.000000 0.122392 0.000000
# 6 0.000000 0.000000 0.000000 0.000000 0.000000 0.066843
#
#
# Mechanical properties :
#
#
# Convention : Reuss Voigt Hill
#
# Bulk Modulus (GPa) = 5.63661 57.65455 31.64558
# Shear Modulus (GPa) = 6.48703 20.33339 13.41021
#
# Velocity S-wave (km/s) = 1.92162 3.40212 2.76288
# Velocity P-wave (km/s) = 2.85167 6.94632 5.30958
#
# Compressibility (1/GPa) = 0.17741160
#
# Stress axis : x y z
#
# Youngs Moduli (GPa) = 38.51973 54.76376 3.46809
#
# Poissons Ratio (x) = 0.26261 0.06129
# Poissons Ratio (y) = 0.18471 0.19112
# Poissons Ratio (z) = 0.68074 3.01794
#
# Static dielectric constant tensor:
#      x y z
#    x 1.603490 0.000000 0.000000 
#    y 0.000000 1.603920 0.000000 
#    z 0.000000 0.000000 1.588820 
# 
# From -- ./inp_files/15616.got.cif
#   From: 2010.05.17/outbox.cif.g08.bks.cpg/sg71_8_cif.got.tgz:15616.got - 2010.06.03 16:22:01.
