data_PCOD9518991
_publ_section_title
;
Structure prediction by ZEFSAII (Michael W. Deem and Ramdas Pophale) SiO2 
 PCOD9518991
Probable space group: I M M M
;
_chemical_formula_sum "Si O2"
_cell_formula_units_Z 72
_cell_length_a 8.621524
_cell_length_b 19.845597
_cell_length_c 28.614768
_cell_angle_alpha 90.000000
_cell_angle_beta 90.000000
_cell_angle_gamma 90.000000
_cell_volume 4895.966512
_symmetry_space_group_name_H-M "I M M M"
_symmetry_group_IT_number 71
_symmetry_cell_setting 'orthorhombic'
loop_
_space_group_symop_operation_xyz
x,y,z
-x,-y,z
x,-y,-z
-x,y,-z
-x,-y,-z
x,y,-z
-x,y,z
x,-y,z
1/2+x,1/2+y,1/2+z
1/2-x,1/2-y,1/2+z
1/2+x,1/2-y,1/2-z
1/2-x,1/2+y,1/2-z
1/2-x,1/2-y,1/2-z
1/2+x,1/2+y,1/2-z
1/2-x,1/2+y,1/2+z
1/2+x,1/2-y,1/2+z
loop_
_atom_site_type_symbol
_atom_site_label
_atom_site_fract_x
_atom_site_fract_y
_atom_site_fract_z
Si Si1 0.814689 0.222239 0.177135
Si Si2 0.187843 0.000000 0.736918
Si Si3 0.313906 0.500000 0.346587
Si Si4 0.810981 0.578889 0.500000
Si Si5 0.312309 0.351142 0.226525
Si Si6 0.814233 0.370046 0.399577
O O1 0.754775 0.295822 0.191459
O O2 0.768656 0.173445 0.220877
O O3 0.748364 0.193787 0.128896
O O4 0.000000 0.221701 0.175052
O O5 0.241163 0.927731 0.717661
O O6 0.224287 0.000000 0.791935
O O7 0.000000 0.000000 0.732983
O O8 0.500000 0.500000 0.350824
O O9 0.245220 0.565333 0.371161
O O10 0.760538 0.500000 0.500000
O O11 0.762153 0.617288 0.547069
O O12 0.000000 0.576984 0.500000
O O13 0.500000 0.349239 0.224447
O O14 0.000000 0.368456 0.399164
#
# Coordination Sequence:
#
# PCOD9518991 Si02
#       6
#    16   8   8   8  16  16
#     4  10  19  31  45  64  91 119 150 190 228 264
#     4   9  16  29  46  64  89 119 151 188 224 261
#     4  11  19  30  44  65  92 120 151 191 232 265
#     4   9  18  32  46  64  90 117 152 195 228 260
#     4   9  17  30  46  64  88 120 152 183 225 270
#     4  11  20  32  48  64  86 121 159 192 227 270
#
# _framework density 14.705983
#
# number of rings (size 3 to 8) (size 9 to 14) (size 15 to 20)
#    0.000    2.111    3.333    1.667    0.000    0.889 
#    0.000    3.333    0.000    0.000    0.000    0.000 
#    0.000    0.889    0.000   10.222    0.000    4.000 
#
# Total GULP energy -200696.654209 kJ/mol
# GULP energy per Si atom -5574.907061 kJ/mol
# Density = 1.467251 g / cm^3
# Si number density = 14.705983 Si / 1000 Ang^3
#
#
#
# Elastic Constant Matrix: (Units=GPa)
#
#
# Indices 1 2 3 4 5 6 
#
# 1 24.1041 27.0632 23.3986 0.0000 0.0000 0.0000
# 2 27.0632 129.6332 67.0146 0.0000 0.0000 0.0000
# 3 23.3986 67.0146 96.2319 0.0000 0.0000 0.0000
# 4 0.0000 0.0000 0.0000 26.7933 0.0000 0.0000
# 5 0.0000 0.0000 0.0000 0.0000 16.2624 0.0000
# 6 0.0000 0.0000 0.0000 0.0000 0.0000 19.4137
#
#
#
# Elastic Compliance Matrix: (Units=1/GPa)
#
#
# Indices 1 2 3 4 5 6 
#
# 1 0.058765 -0.007628 -0.008977 0.000000 0.000000 0.000000
# 2 -0.007628 0.013043 -0.007229 0.000000 0.000000 0.000000
# 3 -0.008977 -0.007229 0.017608 0.000000 0.000000 0.000000
# 4 0.000000 0.000000 0.000000 0.037323 0.000000 0.000000
# 5 0.000000 0.000000 0.000000 0.000000 0.061491 0.000000
# 6 0.000000 0.000000 0.000000 0.000000 0.000000 0.051510
#
#
# Mechanical properties :
#
#
# Convention : Reuss Voigt Hill
#
# Bulk Modulus (GPa) = 23.95188 53.88022 38.91605
# Shear Modulus (GPa) = 16.59349 21.32674 18.96011
#
# Velocity S-wave (km/s) = 3.36274 3.81229 3.59455
# Velocity P-wave (km/s) = 5.60356 7.48972 6.61422
#
# Compressibility (1/GPa) = 0.04175037
#
# Stress axis : x y z
#
# Youngs Moduli (GPa) = 17.01698 76.66767 56.79207
#
# Poissons Ratio (x) = 0.58479 0.50981
# Poissons Ratio (y) = 0.12980 0.41052
# Poissons Ratio (z) = 0.15276 0.55420
#
# Static dielectric constant tensor:
#      x y z
#    x 1.493280 0.000000 0.000000 
#    y 0.000000 1.492890 0.000000 
#    z 0.000000 0.000000 1.476280 
# 
# From -- ./inp_files/8216.got.cif
#   From: 2010.05.17/outbox.cif.g08.bks.cpg/sg71_5_cif.got.tgz:8216.got - 2010.06.03 16:22:01.
