data_PCOD9518270
_publ_section_title
;
Structure prediction by ZEFSAII (Michael W. Deem and Ramdas Pophale) SiO2 
 PCOD9518270
Probable space group: I M M M
;
_chemical_formula_sum "Si O2"
_cell_formula_units_Z 104
_cell_length_a 23.812594
_cell_length_b 7.535601
_cell_length_c 28.908745
_cell_angle_alpha 90.000000
_cell_angle_beta 90.000000
_cell_angle_gamma 90.000000
_cell_volume 5187.449009
_symmetry_space_group_name_H-M "I M M M"
_symmetry_group_IT_number 71
_symmetry_cell_setting 'orthorhombic'
loop_
_space_group_symop_operation_xyz
x,y,z
-x,-y,z
x,-y,-z
-x,y,-z
-x,-y,-z
x,y,-z
-x,y,z
x,-y,z
1/2+x,1/2+y,1/2+z
1/2-x,1/2-y,1/2+z
1/2+x,1/2-y,1/2-z
1/2-x,1/2+y,1/2-z
1/2-x,1/2-y,1/2-z
1/2+x,1/2+y,1/2-z
1/2-x,1/2+y,1/2+z
1/2+x,1/2-y,1/2+z
loop_
_atom_site_type_symbol
_atom_site_label
_atom_site_fract_x
_atom_site_fract_y
_atom_site_fract_z
Si Si1 0.236124 0.710767 0.695812
Si Si2 0.435854 0.784641 0.599521
Si Si3 0.881235 0.208323 0.646668
Si Si4 0.355756 0.707963 0.316720
Si Si5 0.437506 0.717811 0.237840
Si Si6 0.934358 0.216161 0.447589
Si Si7 0.068341 0.295133 0.000000
O O1 0.230219 0.500000 0.691766
O O2 0.250000 0.750000 0.750000
O O3 0.180583 0.779539 0.670039
O O4 0.293942 0.779395 0.673098
O O5 0.500000 0.726888 0.607516
O O6 0.396064 0.726159 0.640060
O O7 0.415915 0.717283 0.549336
O O8 0.436479 0.000000 0.597836
O O9 0.922930 0.279017 0.686293
O O10 0.895226 0.278306 0.595226
O O11 0.893582 0.000000 0.643240
O O12 0.347338 0.500000 0.306322
O O13 0.389215 0.782408 0.272639
O O14 0.500000 0.771500 0.252454
O O15 0.436517 0.500000 0.238627
O O16 0.919589 0.276120 0.500000
O O17 0.000000 0.262743 0.438874
O O18 0.932064 0.000000 0.448971
O O19 0.087280 0.500000 0.000000
O O20 0.000000 0.297728 0.000000
#
# Coordination Sequence:
#
# PCOD9518270 Si02
#       7
#    16  16  16  16  16  16   8
#     4  11  22  37  54  72  96 131 174 213 248 294
#     4   9  17  30  50  75 100 126 157 195 244 296
#     4  10  18  31  52  77 103 135 172 208 251 304
#     4  10  20  33  48  68  96 130 167 203 242 291
#     4   9  16  27  45  70  99 129 159 192 236 296
#     4   8  14  26  49  83 115 138 168 216 266 310
#     4   7  12  26  47  69  95 125 153 185 230 287
#
# _framework density 20.048390000000001
#
# number of rings (size 3 to 8) (size 9 to 14) (size 15 to 20)
#    0.000    2.692    1.538    2.769    0.000    4.000 
#    0.000    0.385    1.692    3.692    0.000    1.077 
#    0.000    0.000    0.000    0.000    0.000    0.000 
#
# Total GULP energy -289706.770522 kJ/mol
# GULP energy per Si atom -5571.284049 kJ/mol
# Density = 2.000276 g / cm^3
# Si number density = 20.048390 Si / 1000 Ang^3
#
#
#
# Elastic Constant Matrix: (Units=GPa)
#
#
# Indices 1 2 3 4 5 6 
#
# 1 85.2896 -11.1955 44.0161 0.0000 0.0000 0.0000
# 2 -11.1955 46.9923 -8.0451 0.0000 0.0000 0.0000
# 3 44.0161 -8.0451 141.3687 0.0000 0.0000 0.0000
# 4 0.0000 0.0000 0.0000 10.5298 0.0000 0.0000
# 5 0.0000 0.0000 0.0000 0.0000 12.0130 0.0000
# 6 0.0000 0.0000 0.0000 0.0000 0.0000 13.9258
#
#
#
# Elastic Compliance Matrix: (Units=1/GPa)
#
#
# Indices 1 2 3 4 5 6 
#
# 1 0.014293 0.002669 -0.004298 0.000000 0.000000 0.000000
# 2 0.002669 0.021988 0.000420 0.000000 0.000000 0.000000
# 3 -0.004298 0.000420 0.008436 0.000000 0.000000 0.000000
# 4 0.000000 0.000000 0.000000 0.094969 0.000000 0.000000
# 5 0.000000 0.000000 0.000000 0.000000 0.083243 0.000000
# 6 0.000000 0.000000 0.000000 0.000000 0.000000 0.071809
#
#
# Mechanical properties :
#
#
# Convention : Reuss Voigt Hill
#
# Bulk Modulus (GPa) = 23.64088 35.91130 29.77609
# Shear Modulus (GPa) = 16.06391 23.88537 19.97464
#
# Velocity S-wave (km/s) = 2.83372 3.45539 3.15988
# Velocity P-wave (km/s) = 4.74596 5.81987 5.31013
#
# Compressibility (1/GPa) = 0.04229961
#
# Stress axis : x y z
#
# Youngs Moduli (GPa) = 69.96191 45.47945 118.54003
#
# Poissons Ratio (x) = -0.12140 0.50954
# Poissons Ratio (y) = -0.18676 -0.04981
# Poissons Ratio (z) = 0.30073 -0.01911
#
# Static dielectric constant tensor:
#      x y z
#    x 1.719290 0.000000 0.000000 
#    y 0.000000 1.877810 0.000000 
#    z 0.000000 0.000000 1.746160 
# 
# From -- ./inp_files/70978.got.cif
#   From: 2010.05.17/outbox.cif.g08.bks.cpg/sg71_36_cif.got.tgz:70978.got - 2010.06.03 16:22:01.
