data_PCOD9518491
_publ_section_title
;
Structure prediction by ZEFSAII (Michael W. Deem and Ramdas Pophale) SiO2 
 PCOD9518491
Probable space group: I M M M
;
_chemical_formula_sum "Si O2"
_cell_formula_units_Z 116
_cell_length_a 16.131231
_cell_length_b 17.139191
_cell_length_c 21.109596
_cell_angle_alpha 90.000000
_cell_angle_beta 90.000000
_cell_angle_gamma 90.000000
_cell_volume 5836.301924
_symmetry_space_group_name_H-M "I M M M"
_symmetry_group_IT_number 71
_symmetry_cell_setting 'orthorhombic'
loop_
_space_group_symop_operation_xyz
x,y,z
-x,-y,z
x,-y,-z
-x,y,-z
-x,-y,-z
x,y,-z
-x,y,z
x,-y,z
1/2+x,1/2+y,1/2+z
1/2-x,1/2-y,1/2+z
1/2+x,1/2-y,1/2-z
1/2-x,1/2+y,1/2-z
1/2-x,1/2-y,1/2-z
1/2+x,1/2+y,1/2-z
1/2-x,1/2+y,1/2+z
1/2+x,1/2-y,1/2+z
loop_
_atom_site_type_symbol
_atom_site_label
_atom_site_fract_x
_atom_site_fract_y
_atom_site_fract_z
Si Si1 0.247397 0.907940 0.738534
Si Si2 0.908524 0.253551 0.108438
Si Si3 0.908906 0.195163 0.758233
Si Si4 0.162937 0.411537 0.634788
Si Si5 0.751752 0.352324 0.905732
Si Si6 0.907386 0.750442 0.387079
Si Si7 0.747380 0.500000 0.000000
Si Si8 0.153008 0.914520 0.075750
O O1 0.166181 0.864469 0.764669
O O2 0.319632 0.896986 0.790376
O O3 0.260060 0.874561 0.668512
O O4 0.232349 0.000000 0.734549
O O5 0.902838 0.256952 0.184978
O O6 0.832735 0.300772 0.078976
O O7 0.897899 0.161632 0.094761
O O8 0.000000 0.279909 0.088203
O O9 0.904607 0.231464 0.688372
O O10 0.000000 0.157647 0.764057
O O11 0.131309 0.500000 0.626430
O O12 0.109717 0.341492 0.606461
O O13 0.254102 0.407636 0.603221
O O14 0.668307 0.300977 0.914860
O O15 0.747644 0.430867 0.945490
O O16 0.000000 0.771127 0.409920
O O17 0.120273 0.000000 0.096181
O O18 0.157730 0.914569 0.000000
#
# Coordination Sequence:
#
# PCOD9518491 Si02
#       8
#    16  16  16  16  16  16   4  16
#     4  10  18  33  58  85 116 160 204 248 309 363
#     4  11  22  37  62  91 120 163 206 248 299 359
#     4   9  18  31  53  88 123 152 194 252 309 363
#     4  10  19  33  59  93 124 159 199 239 294 364
#     4  11  23  43  62  86 118 157 207 263 306 369
#     4  10  20  37  62  91 122 158 196 249 315 368
#     4  12  28  48  70  88 122 170 210 264 332 346
#     4  10  21  37  56  85 124 161 194 236 292 357
#
# _framework density 19.875599999999999
#
# number of rings (size 3 to 8) (size 9 to 14) (size 15 to 20)
#    0.000    1.793    3.448    0.828    0.966    3.310 
#    0.000    3.793    0.000    0.828    0.000    1.931 
#    0.000    0.000    0.000    0.000    0.000    0.000 
#
# Total GULP energy -323159.473691 kJ/mol
# GULP energy per Si atom -5571.715064 kJ/mol
# Density = 1.983036 g / cm^3
# Si number density = 19.875600 Si / 1000 Ang^3
#
#
#
# Elastic Constant Matrix: (Units=GPa)
#
#
# Indices 1 2 3 4 5 6 
#
# 1 120.6106 78.2697 21.6373 0.0000 0.0000 0.0000
# 2 78.2697 134.0019 16.0060 0.0000 0.0000 0.0000
# 3 21.6373 16.0060 54.1801 0.0000 0.0000 0.0000
# 4 0.0000 0.0000 0.0000 9.1254 0.0000 0.0000
# 5 0.0000 0.0000 0.0000 0.0000 -5.4802 0.0000
# 6 0.0000 0.0000 0.0000 0.0000 0.0000 4.5335
#
#
#
# Elastic Compliance Matrix: (Units=1/GPa)
#
#
# Indices 1 2 3 4 5 6 
#
# 1 0.013888 -0.007722 -0.003265 0.000000 0.000000 0.000000
# 2 -0.007722 0.012029 -0.000470 0.000000 0.000000 0.000000
# 3 -0.003265 -0.000470 0.019900 0.000000 0.000000 0.000000
# 4 0.000000 0.000000 0.000000 0.109584 0.000000 0.000000
# 5 0.000000 0.000000 0.000000 0.000000 -0.182476 0.000000
# 6 0.000000 0.000000 0.000000 0.000000 0.000000 0.220581
#
#
# Mechanical properties :
#
#
# Convention : Reuss Voigt Hill
#
# Bulk Modulus (GPa) = 43.66220 60.06873 51.86547
# Shear Modulus (GPa) = 22.31610 14.49439 18.40524
#
# Velocity S-wave (km/s) = 3.35444 2.70340 3.04636
# Velocity P-wave (km/s) = 6.08428 6.32712 6.20689
#
# Compressibility (1/GPa) = 0.02290310
#
# Stress axis : x y z
#
# Youngs Moduli (GPa) = 72.00479 83.13245 50.25202
#
# Poissons Ratio (x) = 0.64194 0.16408
# Poissons Ratio (y) = 0.55601 0.02361
# Poissons Ratio (z) = 0.23510 0.03906
#
# Static dielectric constant tensor:
#      x y z
#    x 1.700380 0.000000 0.000000 
#    y 0.000000 1.682220 0.000000 
#    z 0.000000 0.000000 1.727560 
# 
# From -- ./inp_files/60135.got.cif
#   From: 2010.05.17/outbox.cif.g08.bks.cpg/sg71_31_cif.got.tgz:60135.got - 2010.06.03 16:22:01.
