data_PCOD9518901
_publ_section_title
;
Structure prediction by ZEFSAII (Michael W. Deem and Ramdas Pophale) SiO2 
 PCOD9518901
Probable space group: I M M M
;
_chemical_formula_sum "Si O2"
_cell_formula_units_Z 96
_cell_length_a 9.083574
_cell_length_b 30.658130
_cell_length_c 20.243127
_cell_angle_alpha 90.000000
_cell_angle_beta 90.000000
_cell_angle_gamma 90.000000
_cell_volume 5637.415169
_symmetry_space_group_name_H-M "I M M M"
_symmetry_group_IT_number 71
_symmetry_cell_setting 'orthorhombic'
loop_
_space_group_symop_operation_xyz
x,y,z
-x,-y,z
x,-y,-z
-x,y,-z
-x,-y,-z
x,y,-z
-x,y,z
x,-y,z
1/2+x,1/2+y,1/2+z
1/2-x,1/2-y,1/2+z
1/2+x,1/2-y,1/2-z
1/2-x,1/2+y,1/2-z
1/2-x,1/2-y,1/2-z
1/2+x,1/2+y,1/2-z
1/2-x,1/2+y,1/2+z
1/2+x,1/2-y,1/2+z
loop_
_atom_site_type_symbol
_atom_site_label
_atom_site_fract_x
_atom_site_fract_y
_atom_site_fract_z
Si Si1 0.671355 0.273547 0.924098
Si Si2 0.170402 0.635824 0.733550
Si Si3 0.171188 0.048624 0.398067
Si Si4 0.675355 0.277660 0.691428
Si Si5 0.328848 0.137007 0.606148
Si Si6 0.670856 0.548556 0.262453
O O1 0.500000 0.273248 0.903493
O O2 0.765384 0.243180 0.876039
O O3 0.733731 0.322619 0.919158
O O4 0.680885 0.259282 0.000000
O O5 0.270318 0.673076 0.701820
O O6 0.181214 0.638708 0.813607
O O7 0.227640 0.587935 0.714668
O O8 0.000000 0.642489 0.715983
O O9 0.266301 0.090421 0.417552
O O10 0.174821 0.048293 0.317799
O O11 0.000000 0.054190 0.417329
O O12 0.219617 0.000000 0.419504
O O13 0.500000 0.274236 0.695544
O O14 0.750000 0.250000 0.750000
O O15 0.500000 0.141851 0.588238
O O16 0.500000 0.555848 0.280661
O O17 0.715318 0.500000 0.284275
#
# Coordination Sequence:
#
# PCOD9518901 Si02
#       6
#    16  16  16  16  16  16
#     4  11  24  40  57  76 101 135 173 215 263 315
#     4  10  19  30  47  74 104 135 172 213 256 304
#     4   8  14  25  42  64  92 127 166 209 256 305
#     4  12  23  36  56  79 105 137 173 217 263 309
#     4  10  19  30  48  72  99 132 168 212 259 306
#     4   8  14  25  41  64  97 135 170 206 252 303
#
# _framework density 17.029081000000001
#
# number of rings (size 3 to 8) (size 9 to 14) (size 15 to 20)
#    0.000    2.167    1.667    4.000    0.000    3.333 
#    0.000    3.333    0.000    0.500    0.000    3.500 
#    0.000    0.667    0.000    7.000    0.000    3.333 
#
# Total GULP energy -267915.742242 kJ/mol
# GULP energy per Si atom -5581.577963 kJ/mol
# Density = 1.699032 g / cm^3
# Si number density = 17.029081 Si / 1000 Ang^3
#
#
#
# Elastic Constant Matrix: (Units=GPa)
#
#
# Indices 1 2 3 4 5 6 
#
# 1 138.2869 69.7728 40.7087 0.0000 0.0000 0.0000
# 2 69.7728 113.2133 35.3428 0.0000 0.0000 0.0000
# 3 40.7087 35.3428 38.1760 0.0000 0.0000 0.0000
# 4 0.0000 0.0000 0.0000 -1.0997 0.0000 0.0000
# 5 0.0000 0.0000 0.0000 0.0000 11.3508 0.0000
# 6 0.0000 0.0000 0.0000 0.0000 0.0000 34.7147
#
#
#
# Elastic Compliance Matrix: (Units=1/GPa)
#
#
# Indices 1 2 3 4 5 6 
#
# 1 0.012182 -0.004856 -0.008495 0.000000 0.000000 0.000000
# 2 -0.004856 0.014359 -0.008115 0.000000 0.000000 0.000000
# 3 -0.008495 -0.008115 0.042766 -0.000001 0.000000 0.000000
# 4 0.000000 0.000000 -0.000001 -0.909346 0.000000 0.000000
# 5 0.000000 0.000000 0.000000 0.000000 0.088099 0.000000
# 6 0.000000 0.000000 0.000000 0.000000 0.000000 0.028806
#
#
# Mechanical properties :
#
#
# Convention : Reuss Voigt Hill
#
# Bulk Modulus (GPa) = 37.91467 64.59165 51.25316
# Shear Modulus (GPa) = -7.44701 18.58329 5.56814
#
# Velocity S-wave (km/s) = -2.09347 3.30702 1.81022
# Velocity P-wave (km/s) = 4.05826 7.25220 5.87639
#
# Compressibility (1/GPa) = 0.02637502
#
# Stress axis : x y z
#
# Youngs Moduli (GPa) = 82.08803 69.64299 23.38312
#
# Poissons Ratio (x) = 0.33818 0.19863
# Poissons Ratio (y) = 0.39861 0.18976
# Poissons Ratio (z) = 0.69732 0.56517
#
# Static dielectric constant tensor:
#      x y z
#    x 1.568530 0.000000 0.000000 
#    y 0.000000 1.582990 0.000000 
#    z 0.000000 0.000000 1.574010 
# 
# From -- ./inp_files/50778.got.cif
#   From: 2010.05.17/outbox.cif.g08.bks.cpg/sg71_26_cif.got.tgz:50778.got - 2010.06.03 16:22:01.
