data_PCOD9518799
_publ_section_title
;
Structure prediction by ZEFSAII (Michael W. Deem and Ramdas Pophale) SiO2 
 PCOD9518799
Probable space group: I M M M
;
_chemical_formula_sum "Si O2"
_cell_formula_units_Z 88
_cell_length_a 20.575292
_cell_length_b 9.472458
_cell_length_c 26.334002
_cell_angle_alpha 90.000000
_cell_angle_beta 90.000000
_cell_angle_gamma 90.000000
_cell_volume 5132.459841
_symmetry_space_group_name_H-M "I M M M"
_symmetry_group_IT_number 71
_symmetry_cell_setting 'orthorhombic'
loop_
_space_group_symop_operation_xyz
x,y,z
-x,-y,z
x,-y,-z
-x,y,-z
-x,-y,-z
x,y,-z
-x,y,z
x,-y,z
1/2+x,1/2+y,1/2+z
1/2-x,1/2-y,1/2+z
1/2+x,1/2-y,1/2-z
1/2-x,1/2+y,1/2-z
1/2-x,1/2-y,1/2-z
1/2+x,1/2+y,1/2-z
1/2-x,1/2+y,1/2+z
1/2+x,1/2-y,1/2+z
loop_
_atom_site_type_symbol
_atom_site_label
_atom_site_fract_x
_atom_site_fract_y
_atom_site_fract_z
Si Si1 0.871228 0.665002 0.787465
Si Si2 0.228339 0.832207 0.853603
Si Si3 0.126341 0.165235 0.940702
Si Si4 0.126050 0.336307 0.664970
Si Si5 0.000000 0.839092 0.335096
Si Si6 0.500000 0.662786 0.711391
Si Si7 0.500000 0.839936 0.561895
O O1 0.875864 0.500000 0.801732
O O2 0.809048 0.739978 0.811902
O O3 0.867544 0.671935 0.726283
O O4 0.935310 0.752438 0.803418
O O5 0.188454 0.810941 0.905440
O O6 0.304018 0.794655 0.857114
O O7 0.224939 0.000000 0.840457
O O8 0.065258 0.258140 0.923659
O O9 0.108275 0.000000 0.936677
O O10 0.139836 0.194838 0.000000
O O11 0.113037 0.500000 0.652380
O O12 0.065292 0.241695 0.649211
O O13 0.000000 0.839721 0.273178
O O14 0.000000 0.000000 0.352354
O O15 0.500000 0.500000 0.693580
O O16 0.500000 0.841741 0.500000
O O17 0.500000 0.000000 0.580487
#
# Coordination Sequence:
#
# PCOD9518799 Si02
#       7
#    16  16  16  16   8   8   8
#     4  10  19  30  45  66  93 123 155 190 225 264
#     4  10  20  32  47  68  93 122 153 185 228 276
#     4   9  18  33  51  69  90 118 153 191 228 267
#     4   9  18  32  48  67  93 123 152 184 224 270
#     4   9  17  29  48  70  90 117 153 190 224 263
#     4   9  17  30  46  63  88 124 161 192 224 263
#     4   9  17  30  49  70  91 118 153 192 231 268
#
# _framework density 17.145773999999999
#
# number of rings (size 3 to 8) (size 9 to 14) (size 15 to 20)
#    0.000    2.636    0.000    1.909    0.000    6.182 
#    0.000    0.909    0.000    0.000    0.000    0.636 
#    0.000    5.091    0.000    0.000    0.000    0.000 
#
# Total GULP energy -245530.595686 kJ/mol
# GULP energy per Si atom -5580.240811 kJ/mol
# Density = 1.710675 g / cm^3
# Si number density = 17.145774 Si / 1000 Ang^3
#
#
#
# Elastic Constant Matrix: (Units=GPa)
#
#
# Indices 1 2 3 4 5 6 
#
# 1 183.6272 103.9242 30.5165 0.0000 0.0000 0.0000
# 2 103.9242 104.9194 27.2164 0.0000 0.0000 0.0000
# 3 30.5165 27.2164 29.6007 0.0000 0.0000 0.0000
# 4 0.0000 0.0000 0.0000 11.2317 0.0000 0.0000
# 5 0.0000 0.0000 0.0000 0.0000 41.2128 0.0000
# 6 0.0000 0.0000 0.0000 0.0000 0.0000 25.1848
#
#
#
# Elastic Compliance Matrix: (Units=1/GPa)
#
#
# Indices 1 2 3 4 5 6 
#
# 1 0.012480 -0.011851 -0.001970 0.000000 0.000000 0.000000
# 2 -0.011851 0.023769 -0.009637 0.000000 0.000000 0.000000
# 3 -0.001970 -0.009637 0.044675 0.000000 0.000000 0.000000
# 4 0.000000 0.000000 0.000000 0.089034 0.000000 0.000000
# 5 0.000000 0.000000 0.000000 0.000000 0.024264 0.000000
# 6 0.000000 0.000000 0.000000 0.000000 0.000000 0.039706
#
#
# Mechanical properties :
#
#
# Convention : Reuss Voigt Hill
#
# Bulk Modulus (GPa) = 29.40467 71.27352 50.33909
# Shear Modulus (GPa) = 17.11262 25.95855 21.53559
#
# Velocity S-wave (km/s) = 3.16265 3.89523 3.54789
# Velocity P-wave (km/s) = 5.52481 7.86700 6.79755
#
# Compressibility (1/GPa) = 0.03400820
#
# Stress axis : x y z
#
# Youngs Moduli (GPa) = 80.12704 42.07077 22.38376
#
# Poissons Ratio (x) = 0.49857 0.04410
# Poissons Ratio (y) = 0.94957 0.21572
# Poissons Ratio (z) = 0.15786 0.40546
#
# Static dielectric constant tensor:
#      x y z
#    x 1.563290 0.000000 0.000000 
#    y 0.000000 1.580530 0.000000 
#    z 0.000000 0.000000 1.583800 
# 
# From -- ./inp_files/10549.got.cif
#   From: 2010.05.17/outbox.cif.g08.bks.cpg/sg71_6_cif.got.tgz:10549.got - 2010.06.03 16:22:01.
