data_PCOD9518216
_publ_section_title
;
Structure prediction by ZEFSAII (Michael W. Deem and Ramdas Pophale) SiO2 
 PCOD9518216
Probable space group: I M M M
;
_chemical_formula_sum "Si O2"
_cell_formula_units_Z 92
_cell_length_a 23.181124
_cell_length_b 12.817800
_cell_length_c 19.904599
_cell_angle_alpha 90.000000
_cell_angle_beta 90.000000
_cell_angle_gamma 90.000000
_cell_volume 5914.273629
_symmetry_space_group_name_H-M "I M M M"
_symmetry_group_IT_number 71
_symmetry_cell_setting 'orthorhombic'
loop_
_space_group_symop_operation_xyz
x,y,z
-x,-y,z
x,-y,-z
-x,y,-z
-x,-y,-z
x,y,-z
-x,y,z
x,-y,z
1/2+x,1/2+y,1/2+z
1/2-x,1/2-y,1/2+z
1/2+x,1/2-y,1/2-z
1/2-x,1/2+y,1/2-z
1/2-x,1/2-y,1/2-z
1/2+x,1/2+y,1/2-z
1/2-x,1/2+y,1/2+z
1/2+x,1/2-y,1/2+z
loop_
_atom_site_type_symbol
_atom_site_label
_atom_site_fract_x
_atom_site_fract_y
_atom_site_fract_z
Si Si1 0.435530 0.000000 0.617326
Si Si2 0.185395 0.377807 0.254857
Si Si3 0.900533 0.121418 0.000000
Si Si4 0.342336 0.000000 0.500000
Si Si5 0.936737 0.679955 0.228528
Si Si6 0.908250 0.118613 0.148099
Si Si7 0.209037 0.727353 0.000000
Si Si8 0.719934 0.292468 0.354103
O O1 0.431493 0.100626 0.665458
O O2 0.500000 0.000000 0.586749
O O3 0.384786 0.000000 0.564001
O O4 0.186858 0.500000 0.239921
O O5 0.119851 0.344087 0.271835
O O6 0.229807 0.350333 0.313870
O O7 0.203695 0.309843 0.189831
O O8 0.931069 0.133563 0.071800
O O9 0.851330 0.208999 0.000000
O O10 0.878717 0.000000 0.000000
O O11 0.304981 0.894995 0.500000
O O12 0.932448 0.795704 0.198378
O O13 0.000000 0.662574 0.259108
O O14 0.839003 0.139601 0.144076
O O15 0.919319 0.000000 0.168580
O O16 0.237120 0.761136 0.929609
#
# Coordination Sequence:
#
# PCOD9518216 Si02
#       8
#     8  16   8   4  16  16   8  16
#     4  10  19  30  42  64  96 127 170 208 232 269
#     4  10  18  31  51  68  94 127 163 199 243 295
#     4   8  14  26  42  60  87 123 157 189 226 270
#     4  12  19  28  48  68  96 138 159 190 238 290
#     4  10  20  31  45  65  91 123 162 208 240 276
#     4   9  16  28  44  63  90 122 157 195 237 284
#     4  10  20  29  46  72 100 126 157 193 241 300
#     4   9  19  31  46  74  97 124 159 200 243 293
#
# _framework density 15.555586999999999
#
# number of rings (size 3 to 8) (size 9 to 14) (size 15 to 20)
#    0.000    2.435    0.870    3.783    1.217    1.043 
#    0.000    1.304    0.000    1.565    0.000    0.609 
#    0.000    1.391    0.000    0.783    0.000    0.000 
#
# Total GULP energy -256359.713189 kJ/mol
# GULP energy per Si atom -5573.037243 kJ/mol
# Density = 1.552018 g / cm^3
# Si number density = 15.555587 Si / 1000 Ang^3
#
#
#
# Elastic Constant Matrix: (Units=GPa)
#
#
# Indices 1 2 3 4 5 6 
#
# 1 83.3222 8.2253 19.7934 0.0000 0.0000 0.0000
# 2 8.2253 97.2348 6.7411 0.0000 0.0000 0.0000
# 3 19.7934 6.7411 44.4812 0.0000 0.0000 0.0000
# 4 0.0000 0.0000 0.0000 12.8772 0.0000 0.0000
# 5 0.0000 0.0000 0.0000 0.0000 -0.3381 0.0000
# 6 0.0000 0.0000 0.0000 0.0000 0.0000 4.8227
#
#
#
# Elastic Compliance Matrix: (Units=1/GPa)
#
#
# Indices 1 2 3 4 5 6 
#
# 1 0.013472 -0.000732 -0.005884 0.000000 0.000000 0.000000
# 2 -0.000732 0.010433 -0.001256 0.000000 0.000000 0.000000
# 3 -0.005884 -0.001256 0.025290 0.000000 0.000000 0.000000
# 4 0.000000 0.000000 0.000000 0.077656 0.000000 0.000000
# 5 0.000000 0.000000 0.000000 0.000000 -2.957652 0.000000
# 6 0.000000 0.000000 0.000000 0.000000 0.000000 0.207353
#
#
# Mechanical properties :
#
#
# Convention : Reuss Voigt Hill
#
# Bulk Modulus (GPa) = 29.89289 32.72863 31.31076
# Shear Modulus (GPa) = -1.92563 16.15759 7.11598
#
# Velocity S-wave (km/s) = -1.11382 3.22638 2.14114
# Velocity P-wave (km/s) = 4.19576 5.91311 5.12686
#
# Compressibility (1/GPa) = 0.03345277
#
# Stress axis : x y z
#
# Youngs Moduli (GPa) = 74.23068 95.84674 39.54152
#
# Poissons Ratio (x) = 0.07013 0.23265
# Poissons Ratio (y) = 0.05431 0.04965
# Poissons Ratio (z) = 0.43675 0.12034
#
# Static dielectric constant tensor:
#      x y z
#    x 1.545550 0.000000 0.000000 
#    y 0.000000 1.523650 0.000000 
#    z 0.000000 0.000000 1.507650 
# 
# From -- ./inp_files/48120.got.cif
#   From: 2010.05.17/outbox.cif.g08.bks.cpg/sg71_25_cif.got.tgz:48120.got - 2010.06.03 16:22:01.
