data_PCOD9518117
_publ_section_title
;
Structure prediction by ZEFSAII (Michael W. Deem and Ramdas Pophale) SiO2 
 PCOD9518117
Probable space group: I M M M
;
_chemical_formula_sum "Si O2"
_cell_formula_units_Z 64
_cell_length_a 18.184133
_cell_length_b 8.003901
_cell_length_c 21.457490
_cell_angle_alpha 90.000000
_cell_angle_beta 90.000000
_cell_angle_gamma 90.000000
_cell_volume 3123.008931
_symmetry_space_group_name_H-M "I M M M"
_symmetry_group_IT_number 71
_symmetry_cell_setting 'orthorhombic'
loop_
_space_group_symop_operation_xyz
x,y,z
-x,-y,z
x,-y,-z
-x,y,-z
-x,-y,-z
x,y,-z
-x,y,z
x,-y,z
1/2+x,1/2+y,1/2+z
1/2-x,1/2-y,1/2+z
1/2+x,1/2-y,1/2-z
1/2-x,1/2+y,1/2-z
1/2-x,1/2-y,1/2-z
1/2+x,1/2+y,1/2-z
1/2-x,1/2+y,1/2+z
1/2+x,1/2-y,1/2+z
loop_
_atom_site_type_symbol
_atom_site_label
_atom_site_fract_x
_atom_site_fract_y
_atom_site_fract_z
Si Si1 0.117691 0.192096 0.500000
Si Si2 0.369871 0.295336 0.134785
Si Si3 0.781356 0.190792 0.000000
Si Si4 0.919789 0.201677 0.769410
Si Si5 0.699619 0.801551 0.369744
O O1 0.098874 0.264685 0.567993
O O2 0.207428 0.196869 0.500000
O O3 0.092362 0.000000 0.500000
O O4 0.372277 0.500000 0.132473
O O5 0.408853 0.241852 0.198032
O O6 0.284049 0.245185 0.140558
O O7 0.823780 0.226280 0.063740
O O8 0.755840 0.000000 0.000000
O O9 0.853875 0.256036 0.813744
O O10 0.000000 0.257641 0.792244
O O11 0.918945 0.000000 0.768362
O O12 0.701174 0.000000 0.375963
#
# Coordination Sequence:
#
# PCOD9518117 Si02
#       5
#     8  16   8  16  16
#     4   8  14  28  49  73 101 130 163 202 241 285
#     4   8  15  29  50  74  99 129 164 203 245 288
#     4  10  18  30  51  78 103 123 153 201 253 298
#     4  10  20  33  48  70 102 135 167 205 247 289
#     4  10  19  33  53  74  98 129 166 204 242 291
#
# _framework density 20.493055999999999
#
# number of rings (size 3 to 8) (size 9 to 14) (size 15 to 20)
#    0.000    2.750    0.000    4.125    0.000    0.500 
#    0.000    6.250    0.000    7.500    0.000    0.000 
#    0.000   18.000    0.000    0.000    0.000    0.000 
#
# Total GULP energy -178427.682605 kJ/mol
# GULP energy per Si atom -5575.865081 kJ/mol
# Density = 2.044641 g / cm^3
# Si number density = 20.493056 Si / 1000 Ang^3
#
#
#
# Elastic Constant Matrix: (Units=GPa)
#
#
# Indices 1 2 3 4 5 6 
#
# 1 53.2210 10.1516 23.9419 0.0000 0.0000 0.0000
# 2 10.1516 35.5829 9.3218 0.0000 0.0000 0.0000
# 3 23.9419 9.3218 115.6179 0.0000 0.0000 0.0000
# 4 0.0000 0.0000 0.0000 17.5435 0.0000 0.0000
# 5 0.0000 0.0000 0.0000 0.0000 -19.5183 0.0000
# 6 0.0000 0.0000 0.0000 0.0000 0.0000 5.1222
#
#
#
# Elastic Compliance Matrix: (Units=1/GPa)
#
#
# Indices 1 2 3 4 5 6 
#
# 1 0.021588 -0.005095 -0.004060 0.000000 0.000000 0.000000
# 2 -0.005095 0.029912 -0.001357 0.000000 0.000000 0.000000
# 3 -0.004060 -0.001357 0.009599 0.000000 0.000000 0.000000
# 4 0.000000 0.000000 0.000000 0.057001 0.000000 0.000000
# 5 0.000000 0.000000 0.000000 0.000000 -0.051234 0.000000
# 6 0.000000 0.000000 0.000000 0.000000 0.000000 0.195227
#
#
# Mechanical properties :
#
#
# Convention : Reuss Voigt Hill
#
# Bulk Modulus (GPa) = 24.95234 32.36138 28.65686
# Shear Modulus (GPa) = 16.86480 11.36325 14.11402
#
# Velocity S-wave (km/s) = 2.87183 2.35732 2.62720
# Velocity P-wave (km/s) = 4.81653 4.82027 4.81840
#
# Compressibility (1/GPa) = 0.04007640
#
# Stress axis : x y z
#
# Youngs Moduli (GPa) = 46.32267 33.43087 104.17542
#
# Poissons Ratio (x) = 0.17034 0.42290
# Poissons Ratio (y) = 0.23603 0.14132
# Poissons Ratio (z) = 0.18805 0.04535
#
# Static dielectric constant tensor:
#      x y z
#    x 1.706610 0.000000 0.000000 
#    y 0.000000 1.748240 0.000000 
#    z 0.000000 0.000000 1.764690 
# 
# From -- ./inp_files/7538.got.cif
#   From: 2010.05.17/outbox.cif.g08.bks.cpg/sg71_4_cif.got.tgz:7538.got - 2010.06.03 16:22:01.
