data_PCOD9518572
_publ_section_title
;
Structure prediction by ZEFSAII (Michael W. Deem and Ramdas Pophale) SiO2 
 PCOD9518572
Probable space group: I M M M
;
_chemical_formula_sum "Si O2"
_cell_formula_units_Z 96
_cell_length_a 8.651827
_cell_length_b 22.744048
_cell_length_c 24.679475
_cell_angle_alpha 90.000000
_cell_angle_beta 90.000000
_cell_angle_gamma 90.000000
_cell_volume 4856.367084
_symmetry_space_group_name_H-M "I M M M"
_symmetry_group_IT_number 71
_symmetry_cell_setting 'orthorhombic'
loop_
_space_group_symop_operation_xyz
x,y,z
-x,-y,z
x,-y,-z
-x,y,-z
-x,-y,-z
x,y,-z
-x,y,z
x,-y,z
1/2+x,1/2+y,1/2+z
1/2-x,1/2-y,1/2+z
1/2+x,1/2-y,1/2-z
1/2-x,1/2+y,1/2-z
1/2-x,1/2-y,1/2-z
1/2+x,1/2+y,1/2-z
1/2-x,1/2+y,1/2+z
1/2+x,1/2-y,1/2+z
loop_
_atom_site_type_symbol
_atom_site_label
_atom_site_fract_x
_atom_site_fract_y
_atom_site_fract_z
Si Si1 0.182418 0.000000 0.093481
Si Si2 0.332846 0.790990 0.000000
Si Si3 0.817021 0.000000 0.776868
Si Si4 0.818996 0.800324 0.181065
Si Si5 0.811700 0.680254 0.879017
Si Si6 0.325287 0.118775 0.097354
Si Si7 0.676931 0.176636 0.500000
Si Si8 0.315782 0.121196 0.270794
O O1 0.211076 0.000000 0.158539
O O2 0.263276 0.058583 0.073067
O O3 0.000000 0.000000 0.083171
O O4 0.329352 0.832274 0.948419
O O5 0.190124 0.747364 0.000000
O O6 0.500000 0.758659 0.000000
O O7 0.749955 0.060057 0.751717
O O8 0.000000 0.000000 0.768529
O O9 0.761716 0.743401 0.146898
O O10 0.789302 0.856672 0.142724
O O11 0.737216 0.821638 0.236031
O O12 0.000000 0.791758 0.191737
O O13 0.770841 0.633047 0.833140
O O14 0.000000 0.683893 0.882949
O O15 0.755563 0.664171 0.939742
O O16 0.500000 0.111384 0.119375
O O17 0.500000 0.155459 0.500000
O O18 0.500000 0.118736 0.267662
#
# Coordination Sequence:
#
# PCOD9518572 Si02
#       8
#     8   8   8  16  16  16   8  16
#     4  11  23  38  56  77 106 142 192 240 276 326
#     4  10  22  37  53  80 112 145 188 233 273 321
#     4  11  23  39  58  81 109 145 185 229 277 332
#     4  11  20  34  55  84 116 148 184 226 272 326
#     4   9  20  35  57  87 116 146 185 225 270 326
#     4  11  22  36  55  78 109 147 188 233 278 323
#     4  10  18  36  61  82 111 150 182 221 270 325
#     4  11  22  37  57  85 115 147 184 226 276 332
#
# _framework density 19.767862000000001
#
# number of rings (size 3 to 8) (size 9 to 14) (size 15 to 20)
#    0.000    1.500    3.333    2.500    0.000    1.667 
#    0.000    5.833    0.000    0.500    0.000    3.500 
#    0.000    0.000    0.000    0.000    0.000    0.000 
#
# Total GULP energy -267745.949442 kJ/mol
# GULP energy per Si atom -5578.040613 kJ/mol
# Density = 1.972287 g / cm^3
# Si number density = 19.767862 Si / 1000 Ang^3
#
#
#
# Elastic Constant Matrix: (Units=GPa)
#
#
# Indices 1 2 3 4 5 6 
#
# 1 44.1343 12.9780 20.9734 0.0000 0.0000 0.0000
# 2 12.9780 43.2422 6.4088 0.0000 0.0000 0.0000
# 3 20.9734 6.4088 117.1941 0.0000 0.0000 0.0000
# 4 0.0000 0.0000 0.0000 245.4737 0.0000 0.0000
# 5 0.0000 0.0000 0.0000 0.0000 17.4934 0.0000
# 6 0.0000 0.0000 0.0000 0.0000 0.0000 19.5807
#
#
#
# Elastic Compliance Matrix: (Units=1/GPa)
#
#
# Indices 1 2 3 4 5 6 
#
# 1 0.026942 -0.007431 -0.004415 0.000000 0.000000 0.000000
# 2 -0.007431 0.025364 -0.000057 0.000000 0.000000 0.000000
# 3 -0.004415 -0.000057 0.009326 0.000000 0.000000 0.000000
# 4 0.000000 0.000000 0.000000 0.004074 0.000000 0.000000
# 5 0.000000 0.000000 0.000000 0.000000 0.057165 0.000000
# 6 0.000000 0.000000 0.000000 0.000000 0.000000 0.051071
#
#
# Mechanical properties :
#
#
# Convention : Reuss Voigt Hill
#
# Bulk Modulus (GPa) = 26.43778 31.69899 29.06838
# Shear Modulus (GPa) = 23.76913 67.45689 45.61301
#
# Velocity S-wave (km/s) = 3.47134 5.84796 4.80879
# Velocity P-wave (km/s) = 5.42864 7.85293 6.75051
#
# Compressibility (1/GPa) = 0.03782466
#
# Stress axis : x y z
#
# Youngs Moduli (GPa) = 37.11735 39.42531 107.22563
#
# Poissons Ratio (x) = 0.29299 0.47342
# Poissons Ratio (y) = 0.27584 0.00612
# Poissons Ratio (z) = 0.16388 0.00225
#
# Static dielectric constant tensor:
#      x y z
#    x 1.708380 0.000000 0.000000 
#    y 0.000000 1.692530 0.000000 
#    z 0.000000 0.000000 1.766080 
# 
# From -- ./inp_files/57825.got.cif
#   From: 2010.05.17/outbox.cif.g08.bks.cpg/sg71_29_cif.got.tgz:57825.got - 2010.06.03 16:22:01.
