data_PCOD9518906
_publ_section_title
;
Structure prediction by ZEFSAII (Michael W. Deem and Ramdas Pophale) SiO2 
 PCOD9518906
Probable space group: I M M M
;
_chemical_formula_sum "Si O2"
_cell_formula_units_Z 80
_cell_length_a 7.438388
_cell_length_b 13.156564
_cell_length_c 31.168048
_cell_angle_alpha 90.000000
_cell_angle_beta 90.000000
_cell_angle_gamma 90.000000
_cell_volume 3050.218248
_symmetry_space_group_name_H-M "I M M M"
_symmetry_group_IT_number 71
_symmetry_cell_setting 'orthorhombic'
loop_
_space_group_symop_operation_xyz
x,y,z
-x,-y,z
x,-y,-z
-x,y,-z
-x,-y,-z
x,y,-z
-x,y,z
x,-y,z
1/2+x,1/2+y,1/2+z
1/2-x,1/2-y,1/2+z
1/2+x,1/2-y,1/2-z
1/2-x,1/2+y,1/2-z
1/2-x,1/2-y,1/2-z
1/2+x,1/2+y,1/2-z
1/2-x,1/2+y,1/2+z
1/2+x,1/2-y,1/2+z
loop_
_atom_site_type_symbol
_atom_site_label
_atom_site_fract_x
_atom_site_fract_y
_atom_site_fract_z
Si Si1 0.711847 0.819345 0.637528
Si Si2 0.795229 0.659515 0.952605
Si Si3 0.788963 0.378589 0.770530
Si Si4 0.705389 0.890051 0.948659
Si Si5 0.217111 0.384068 0.323154
O O1 0.500000 0.846085 0.637445
O O2 0.787474 0.867579 0.593681
O O3 0.791789 0.852753 0.683221
O O4 0.726608 0.696773 0.641376
O O5 0.801731 0.781928 0.946673
O O6 0.000000 0.621668 0.954042
O O7 0.714920 0.638048 0.000000
O O8 0.780172 0.500000 0.766902
O O9 0.718080 0.344616 0.723865
O O10 0.000000 0.351621 0.771794
O O11 0.500000 0.879145 0.931952
O O12 0.776242 0.000000 0.932725
O O13 0.691941 0.901135 0.000000
O O14 0.277345 0.500000 0.329842
O O15 0.000000 0.385910 0.321661
#
# Coordination Sequence:
#
# PCOD9518906 Si02
#       5
#    16  16  16  16  16
#     4  10  19  30  48  71  92 120 157 192 225 265
#     4   9  18  30  41  57  85 118 149 183 223 262
#     4   8  15  30  51  72  93 118 149 185 229 281
#     4   8  14  25  40  56  74 101 142 187 222 254
#     4   9  18  32  49  70  97 125 149 179 225 278
#
# _framework density 26.227632
#
# number of rings (size 3 to 8) (size 9 to 14) (size 15 to 20)
#    0.000    3.200    0.000    2.400    0.000    2.400 
#    0.000    6.000    0.000    2.400    0.000    4.200 
#    0.000    0.000    0.000    6.800    0.000    7.200 
#
# Total GULP energy -223014.943356 kJ/mol
# GULP energy per Si atom -5575.373584 kJ/mol
# Density = 2.616794 g / cm^3
# Si number density = 26.227632 Si / 1000 Ang^3
#
#
#
# Elastic Constant Matrix: (Units=GPa)
#
#
# Indices 1 2 3 4 5 6 
#
# 1 84.0978 5.8916 6.1793 0.0000 0.0000 0.0000
# 2 5.8916 53.0237 14.2001 0.0000 0.0000 0.0000
# 3 6.1793 14.2001 272.6455 0.0000 0.0000 0.0000
# 4 0.0000 0.0000 0.0000 -2.8881 0.0000 0.0000
# 5 0.0000 0.0000 0.0000 0.0000 4.9531 0.0000
# 6 0.0000 0.0000 0.0000 0.0000 0.0000 -7.6655
#
#
#
# Elastic Compliance Matrix: (Units=1/GPa)
#
#
# Indices 1 2 3 4 5 6 
#
# 1 0.011996 -0.001278 -0.000205 0.000000 0.000000 0.000000
# 2 -0.001278 0.019262 -0.000974 0.000000 0.000000 0.000000
# 3 -0.000205 -0.000974 0.003723 0.000000 0.000000 0.000000
# 4 0.000000 0.000000 0.000000 -0.346252 0.000000 0.000000
# 5 0.000000 0.000000 0.000000 0.000000 0.201895 0.000000
# 6 0.000000 0.000000 0.000000 0.000000 0.000000 -0.130455
#
#
# Mechanical properties :
#
#
# Convention : Reuss Voigt Hill
#
# Bulk Modulus (GPa) = 33.25998 51.36767 42.31383
# Shear Modulus (GPa) = -22.23263 24.44632 1.10684
#
# Velocity S-wave (km/s) = -2.91465 3.05631 0.65033
# Velocity P-wave (km/s) = 1.17553 5.66415 4.09051
#
# Compressibility (1/GPa) = 0.03006616
#
# Stress axis : x y z
#
# Youngs Moduli (GPa) = 83.36445 51.91465 268.58893
#
# Poissons Ratio (x) = 0.06634 0.05515
# Poissons Ratio (y) = 0.10653 0.26168
# Poissons Ratio (z) = 0.01712 0.05058
#
# Static dielectric constant tensor:
#      x y z
#    x 2.019110 0.000000 0.000000 
#    y 0.000000 2.111640 0.000000 
#    z 0.000000 0.000000 2.152370 
# 
# From -- ./inp_files/8608.got.cif
#   From: 2010.05.17/outbox.cif.g08.bks.cpg/sg71_5_cif.got.tgz:8608.got - 2010.06.03 16:22:01.
