data_PCOD9518893
_publ_section_title
;
Structure prediction by ZEFSAII (Michael W. Deem and Ramdas Pophale) SiO2 
 PCOD9518893
Probable space group: I M M M
;
_chemical_formula_sum "Si O2"
_cell_formula_units_Z 104
_cell_length_a 18.195167
_cell_length_b 13.244345
_cell_length_c 24.289815
_cell_angle_alpha 90.000000
_cell_angle_beta 90.000000
_cell_angle_gamma 90.000000
_cell_volume 5853.434166
_symmetry_space_group_name_H-M "I M M M"
_symmetry_group_IT_number 71
_symmetry_cell_setting 'orthorhombic'
loop_
_space_group_symop_operation_xyz
x,y,z
-x,-y,z
x,-y,-z
-x,y,-z
-x,-y,-z
x,y,-z
-x,y,z
x,-y,z
1/2+x,1/2+y,1/2+z
1/2-x,1/2-y,1/2+z
1/2+x,1/2-y,1/2-z
1/2-x,1/2+y,1/2-z
1/2-x,1/2-y,1/2-z
1/2+x,1/2+y,1/2-z
1/2-x,1/2+y,1/2+z
1/2+x,1/2-y,1/2+z
loop_
_atom_site_type_symbol
_atom_site_label
_atom_site_fract_x
_atom_site_fract_y
_atom_site_fract_z
Si Si1 0.500000 0.377284 0.933579
Si Si2 0.859009 0.116053 0.765468
Si Si3 0.739367 0.878550 0.441001
Si Si4 0.419170 0.174100 0.291861
Si Si5 0.420924 0.118688 0.418393
Si Si6 0.189922 0.385831 0.301402
Si Si7 0.361054 0.310267 0.140614
O O1 0.500000 0.500000 0.929543
O O2 0.570886 0.335177 0.899830
O O3 0.500000 0.353773 0.000000
O O4 0.906282 0.205200 0.792568
O O5 0.774885 0.134585 0.785340
O O6 0.866697 0.132997 0.699518
O O7 0.878251 0.000000 0.778401
O O8 0.773402 0.850509 0.500000
O O9 0.655996 0.838997 0.439227
O O10 0.787889 0.843780 0.390760
O O11 0.736161 0.000000 0.438595
O O12 0.500000 0.153732 0.267832
O O13 0.417139 0.129842 0.352681
O O14 0.356404 0.126575 0.254536
O O15 0.500000 0.161904 0.435990
O O16 0.421974 0.000000 0.432772
O O17 0.185218 0.500000 0.321878
O O18 0.153281 0.305753 0.342537
#
# Coordination Sequence:
#
# PCOD9518893 Si02
#       7
#     8  16  16  16  16  16  16
#     4  11  24  40  57  79 107 139 182 232 276 319
#     4  10  20  33  51  75 106 138 169 209 255 312
#     4  10  19  31  50  73  96 126 166 210 257 309
#     4  10  19  30  47  73 102 135 166 199 244 299
#     4   9  17  29  46  70 101 134 164 199 246 302
#     4  10  21  35  52  76 104 137 174 210 253 309
#     4  11  21  35  54  76 101 138 174 217 266 309
#
# _framework density 17.767347999999998
#
# number of rings (size 3 to 8) (size 9 to 14) (size 15 to 20)
#    0.000    1.923    0.000    6.000    4.308    5.231 
#    0.000    1.538    0.000    2.308    0.000    0.000 
#    0.000    0.000    0.000   13.231    0.000    0.308 
#
# Total GULP energy -289912.443203 kJ/mol
# GULP energy per Si atom -5575.239292 kJ/mol
# Density = 1.772691 g / cm^3
# Si number density = 17.767348 Si / 1000 Ang^3
#
#
#
# Elastic Constant Matrix: (Units=GPa)
#
#
# Indices 1 2 3 4 5 6 
#
# 1 80.1110 11.9247 26.4574 0.0000 0.0000 0.0000
# 2 11.9247 64.3116 21.9154 0.0000 0.0000 0.0000
# 3 26.4574 21.9154 76.6758 0.0000 0.0000 0.0000
# 4 0.0000 0.0000 0.0000 10.8237 0.0000 0.0000
# 5 0.0000 0.0000 0.0000 0.0000 21.1370 0.0000
# 6 0.0000 0.0000 0.0000 0.0000 0.0000 19.3316
#
#
#
# Elastic Compliance Matrix: (Units=1/GPa)
#
#
# Indices 1 2 3 4 5 6 
#
# 1 0.014154 -0.001064 -0.004580 0.000000 0.000000 0.000000
# 2 -0.001064 0.017307 -0.004580 0.000000 0.000000 0.000000
# 3 -0.004580 -0.004580 0.015931 0.000000 0.000000 0.000000
# 4 0.000000 0.000000 0.000000 0.092390 0.000000 0.000000
# 5 0.000000 0.000000 0.000000 0.000000 0.047310 0.000000
# 6 0.000000 0.000000 0.000000 0.000000 0.000000 0.051729
#
#
# Mechanical properties :
#
#
# Convention : Reuss Voigt Hill
#
# Bulk Modulus (GPa) = 37.11184 37.96593 37.53889
# Shear Modulus (GPa) = 18.63939 20.97851 19.80895
#
# Velocity S-wave (km/s) = 3.24247 3.43991 3.34265
# Velocity P-wave (km/s) = 5.91195 6.09853 6.00596
#
# Compressibility (1/GPa) = 0.02694558
#
# Stress axis : x y z
#
# Youngs Moduli (GPa) = 70.65387 57.77959 62.77019
#
# Poissons Ratio (x) = 0.06146 0.28747
# Poissons Ratio (y) = 0.07516 0.28747
# Poissons Ratio (z) = 0.32357 0.26461
#
# Static dielectric constant tensor:
#      x y z
#    x 1.649210 0.000000 0.000000 
#    y 0.000000 1.610950 0.000000 
#    z 0.000000 0.000000 1.614560 
# 
# From -- ./inp_files/60720.got.cif
#   From: 2010.05.17/outbox.cif.g08.bks.cpg/sg71_31_cif.got.tgz:60720.got - 2010.06.03 16:22:01.
