data_PCOD9518669
_publ_section_title
;
Structure prediction by ZEFSAII (Michael W. Deem and Ramdas Pophale) SiO2 
 PCOD9518669
Probable space group: I M M M
;
_chemical_formula_sum "Si O2"
_cell_formula_units_Z 96
_cell_length_a 23.411901
_cell_length_b 8.786470
_cell_length_c 27.604702
_cell_angle_alpha 90.000000
_cell_angle_beta 90.000000
_cell_angle_gamma 90.000000
_cell_volume 5678.507094
_symmetry_space_group_name_H-M "I M M M"
_symmetry_group_IT_number 71
_symmetry_cell_setting 'orthorhombic'
loop_
_space_group_symop_operation_xyz
x,y,z
-x,-y,z
x,-y,-z
-x,y,-z
-x,-y,-z
x,y,-z
-x,y,z
x,-y,z
1/2+x,1/2+y,1/2+z
1/2-x,1/2-y,1/2+z
1/2+x,1/2-y,1/2-z
1/2-x,1/2+y,1/2-z
1/2-x,1/2-y,1/2-z
1/2+x,1/2+y,1/2-z
1/2-x,1/2+y,1/2+z
1/2+x,1/2-y,1/2+z
loop_
_atom_site_type_symbol
_atom_site_label
_atom_site_fract_x
_atom_site_fract_y
_atom_site_fract_z
Si Si1 0.066424 0.816228 0.818831
Si Si2 0.852692 0.828189 0.636599
Si Si3 0.567160 0.819008 0.784933
Si Si4 0.761346 0.672280 0.199638
Si Si5 0.167332 0.821110 0.881769
Si Si6 0.767365 0.816045 0.443990
O O1 0.086844 0.752081 0.766628
O O2 0.103945 0.768812 0.865608
O O3 0.000000 0.772391 0.824246
O O4 0.069983 0.000000 0.816028
O O5 0.899281 0.738593 0.667758
O O6 0.798621 0.839530 0.672227
O O7 0.821862 0.762917 0.588247
O O8 0.873807 0.000000 0.626380
O O9 0.500000 0.780134 0.789645
O O10 0.573135 0.000000 0.781365
O O11 0.785245 0.500000 0.203114
O O12 0.750000 0.750000 0.250000
O O13 0.799515 0.783712 0.167770
O O14 0.207156 0.740509 0.921663
O O15 0.166070 0.000000 0.892529
O O16 0.772441 0.772882 0.500000
O O17 0.767379 0.000000 0.440000
#
# Coordination Sequence:
#
# PCOD9518669 Si02
#       6
#    16  16  16  16  16  16
#     4   9  18  32  48  67  96 133 166 194 226 268
#     4   9  18  31  47  67  90 120 156 190 230 282
#     4  10  20  31  45  69  99 129 161 195 229 269
#     4  10  19  29  42  64  95 126 155 190 233 280
#     4  10  19  30  47  71  95 121 157 196 235 284
#     4   9  19  36  55  73  94 120 152 196 248 293
#
# _framework density 16.905850999999998
#
# number of rings (size 3 to 8) (size 9 to 14) (size 15 to 20)
#    0.000    2.500    0.000    3.500    0.000   10.000 
#    0.000    0.000    0.000    1.000    0.000    7.000 
#    0.000    0.000    0.000    0.000    0.000    0.000 
#
# Total GULP energy -267223.287913 kJ/mol
# GULP energy per Si atom -5567.151832 kJ/mol
# Density = 1.686737 g / cm^3
# Si number density = 16.905851 Si / 1000 Ang^3
#
#
#
# Elastic Constant Matrix: (Units=GPa)
#
#
# Indices 1 2 3 4 5 6 
#
# 1 60.0998 13.8645 22.2398 0.0000 0.0000 0.0000
# 2 13.8645 13.7644 13.1896 0.0000 0.0000 0.0000
# 3 22.2398 13.1896 84.6895 0.0000 0.0000 0.0000
# 4 0.0000 0.0000 0.0000 17.5901 0.0000 0.0000
# 5 0.0000 0.0000 0.0000 0.0000 24.2199 0.0000
# 6 0.0000 0.0000 0.0000 0.0000 0.0000 22.3805
#
#
#
# Elastic Compliance Matrix: (Units=1/GPa)
#
#
# Indices 1 2 3 4 5 6 
#
# 1 0.022212 -0.019728 -0.002760 0.000000 0.000000 0.000000
# 2 -0.019728 0.102918 -0.010848 0.000000 0.000000 0.000000
# 3 -0.002760 -0.010848 0.014222 0.000000 0.000000 0.000000
# 4 0.000000 0.000000 0.000000 0.056850 0.000000 0.000000
# 5 0.000000 0.000000 0.000000 0.000000 0.041288 0.000000
# 6 0.000000 0.000000 0.000000 0.000000 0.000000 0.044682
#
#
# Mechanical properties :
#
#
# Convention : Reuss Voigt Hill
#
# Bulk Modulus (GPa) = 13.75914 28.57128 21.16521
# Shear Modulus (GPa) = 13.40229 20.12209 16.76219
#
# Velocity S-wave (km/s) = 2.81866 3.45373 3.15223
# Velocity P-wave (km/s) = 4.33006 5.73073 5.07891
#
# Compressibility (1/GPa) = 0.07267894
#
# Stress axis : x y z
#
# Youngs Moduli (GPa) = 45.02153 9.71650 70.31282
#
# Poissons Ratio (x) = 0.19169 0.19409
# Poissons Ratio (y) = 0.88819 0.76274
# Poissons Ratio (z) = 0.12428 0.10540
#
# Static dielectric constant tensor:
#      x y z
#    x 1.612020 0.000000 0.000000 
#    y 0.000000 1.592380 0.000000 
#    z 0.000000 0.000000 1.540970 
# 
# From -- ./inp_files/10831.got.cif
#   From: 2010.05.17/outbox.cif.g08.bks.cpg/sg71_6_cif.got.tgz:10831.got - 2010.06.03 16:22:01.
