data_PCOD9518622
_publ_section_title
;
Structure prediction by ZEFSAII (Michael W. Deem and Ramdas Pophale) SiO2 
 PCOD9518622
Probable space group: I M M M
;
_chemical_formula_sum "Si O2"
_cell_formula_units_Z 96
_cell_length_a 19.804135
_cell_length_b 7.318644
_cell_length_c 31.202149
_cell_angle_alpha 90.000000
_cell_angle_beta 90.000000
_cell_angle_gamma 90.000000
_cell_volume 4522.421185
_symmetry_space_group_name_H-M "I M M M"
_symmetry_group_IT_number 71
_symmetry_cell_setting 'orthorhombic'
loop_
_space_group_symop_operation_xyz
x,y,z
-x,-y,z
x,-y,-z
-x,y,-z
-x,-y,-z
x,y,-z
-x,y,z
x,-y,z
1/2+x,1/2+y,1/2+z
1/2-x,1/2-y,1/2+z
1/2+x,1/2-y,1/2-z
1/2-x,1/2+y,1/2-z
1/2-x,1/2-y,1/2-z
1/2+x,1/2+y,1/2-z
1/2-x,1/2+y,1/2+z
1/2+x,1/2-y,1/2+z
loop_
_atom_site_type_symbol
_atom_site_label
_atom_site_fract_x
_atom_site_fract_y
_atom_site_fract_z
Si Si1 0.076176 0.222762 0.549185
Si Si2 0.576787 0.222285 0.295038
Si Si3 0.670404 0.223707 0.372643
Si Si4 0.422603 0.777785 0.548623
Si Si5 0.923629 0.720216 0.697313
Si Si6 0.677177 0.287287 0.879219
O O1 0.088926 0.275830 0.500000
O O2 0.131772 0.290101 0.582375
O O3 0.000000 0.279603 0.561115
O O4 0.076087 0.000000 0.550190
O O5 0.500000 0.276571 0.306084
O O6 0.630091 0.282988 0.330310
O O7 0.590663 0.279473 0.246131
O O8 0.577403 0.000000 0.295003
O O9 0.629139 0.280650 0.414874
O O10 0.747683 0.287184 0.373523
O O11 0.670002 0.000000 0.371890
O O12 0.405696 0.720960 0.500000
O O13 0.500000 0.722693 0.557907
O O14 0.422287 0.000000 0.548775
O O15 0.924464 0.500000 0.697314
O O16 0.867628 0.777620 0.663546
O O17 0.000000 0.780759 0.685758
O O18 0.686951 0.500000 0.889932
#
# Coordination Sequence:
#
# PCOD9518622 Si02
#       6
#    16  16  16  16  16  16
#     4   8  14  25  40  57  79 109 141 168 198 244
#     4   8  14  26  43  59  77 108 148 180 205 244
#     4   9  16  24  36  58  87 115 142 174 213 257
#     4   8  13  21  34  54  83 119 152 179 211 250
#     4   9  18  32  48  63  80 109 149 184 211 247
#     4  10  19  28  42  67  93 113 136 173 221 263
#
# _framework density 21.227567000000001
#
# number of rings (size 3 to 8) (size 9 to 14) (size 15 to 20)
#    0.000    3.333    0.000    3.000    0.000    4.333 
#    0.000    3.333    0.000    0.500    0.000    2.333 
#    0.000    2.000    0.000    1.833    0.000    3.167 
#
# Total GULP energy -267943.108793 kJ/mol
# GULP energy per Si atom -5582.148100 kJ/mol
# Density = 2.117925 g / cm^3
# Si number density = 21.227567 Si / 1000 Ang^3
#
#
#
# Elastic Constant Matrix: (Units=GPa)
#
#
# Indices 1 2 3 4 5 6 
#
# 1 210.1511 0.8043 146.2777 0.0000 0.0000 0.0000
# 2 0.8043 82.1480 -4.7321 0.0000 0.0000 0.0000
# 3 146.2777 -4.7321 151.1540 0.0000 0.0000 0.0000
# 4 0.0000 0.0000 0.0000 0.6513 0.0000 0.0000
# 5 0.0000 0.0000 0.0000 0.0000 -9.7005 0.0000
# 6 0.0000 0.0000 0.0000 0.0000 0.0000 -3.2596
#
#
#
# Elastic Compliance Matrix: (Units=1/GPa)
#
#
# Indices 1 2 3 4 5 6 
#
# 1 0.014654 -0.000962 -0.014212 0.000000 0.000000 0.000000
# 2 -0.000962 0.012258 0.001315 0.000000 0.000000 0.000000
# 3 -0.014212 0.001315 0.020410 0.000000 0.000000 0.000000
# 4 0.000000 0.000000 0.000000 1.535487 0.000000 0.000000
# 5 0.000000 0.000000 0.000000 0.000000 -0.103088 0.000000
# 6 0.000000 0.000000 0.000000 0.000000 0.000000 -0.306786
#
#
# Mechanical properties :
#
#
# Convention : Reuss Voigt Hill
#
# Bulk Modulus (GPa) = 51.00774 80.90586 65.95680
# Shear Modulus (GPa) = 4.14185 17.61179 10.87682
#
# Velocity S-wave (km/s) = 1.39836 2.88352 2.26606
# Velocity P-wave (km/s) = 5.16608 7.02015 6.16323
#
# Compressibility (1/GPa) = 0.01960487
#
# Stress axis : x y z
#
# Youngs Moduli (GPa) = 68.23898 81.57724 48.99513
#
# Poissons Ratio (x) = 0.07849 0.69631
# Poissons Ratio (y) = 0.06566 -0.06442
# Poissons Ratio (z) = 0.96979 -0.10726
#
# Static dielectric constant tensor:
#      x y z
#    x 1.724450 0.000000 0.000000 
#    y 0.000000 1.883080 0.000000 
#    z 0.000000 0.000000 1.727280 
# 
# From -- ./inp_files/14890.got.cif
#   From: 2010.05.17/outbox.cif.g08.bks.cpg/sg71_8_cif.got.tgz:14890.got - 2010.06.03 16:22:01.
