data_PCOD9518078
_publ_section_title
;
Structure prediction by ZEFSAII (Michael W. Deem and Ramdas Pophale) SiO2 
 PCOD9518078
Probable space group: I M M M
;
_chemical_formula_sum "Si O2"
_cell_formula_units_Z 88
_cell_length_a 25.128954
_cell_length_b 7.927912
_cell_length_c 23.731394
_cell_angle_alpha 90.000000
_cell_angle_beta 90.000000
_cell_angle_gamma 90.000000
_cell_volume 4727.771539
_symmetry_space_group_name_H-M "I M M M"
_symmetry_group_IT_number 71
_symmetry_cell_setting 'orthorhombic'
loop_
_space_group_symop_operation_xyz
x,y,z
-x,-y,z
x,-y,-z
-x,y,-z
-x,-y,-z
x,y,-z
-x,y,z
x,-y,z
1/2+x,1/2+y,1/2+z
1/2-x,1/2-y,1/2+z
1/2+x,1/2-y,1/2-z
1/2-x,1/2+y,1/2-z
1/2-x,1/2-y,1/2-z
1/2+x,1/2+y,1/2-z
1/2-x,1/2+y,1/2+z
1/2+x,1/2-y,1/2+z
loop_
_atom_site_type_symbol
_atom_site_label
_atom_site_fract_x
_atom_site_fract_y
_atom_site_fract_z
Si Si1 0.265181 0.798754 0.435702
Si Si2 0.439403 0.202870 0.154035
Si Si3 0.438836 0.296235 0.719514
Si Si4 0.438282 0.293438 0.500000
Si Si5 0.624336 0.297852 0.611162
Si Si6 0.353809 0.202873 0.935793
O O1 0.273505 0.733159 0.500000
O O2 0.313790 0.740513 0.397439
O O3 0.206349 0.743860 0.417614
O O4 0.266133 0.000000 0.437799
O O5 0.500000 0.266766 0.146365
O O6 0.422424 0.243470 0.217793
O O7 0.398023 0.267400 0.107586
O O8 0.441278 0.000000 0.148935
O O9 0.500000 0.239498 0.710689
O O10 0.439049 0.500000 0.718192
O O11 0.401553 0.233895 0.669019
O O12 0.437315 0.500000 0.500000
O O13 0.500000 0.242998 0.500000
O O14 0.407715 0.235261 0.443878
O O15 0.618182 0.500000 0.611448
O O16 0.358426 0.000000 0.937779
O O17 0.360712 0.266776 0.000000
#
# Coordination Sequence:
#
# PCOD9518078 Si02
#       6
#    16  16  16   8  16  16
#     4  10  20  33  49  71 101 133 165 204 251 299
#     4   9  18  33  53  77 103 130 159 195 245 300
#     4   9  18  32  50  73 101 133 168 204 243 291
#     4   9  16  26  45  73  99 123 160 211 252 283
#     4  10  18  30  50  73  97 130 171 209 246 289
#     4   9  18  33  54  77 100 127 162 202 243 293
#
# _framework density 18.613420000000001
#
# number of rings (size 3 to 8) (size 9 to 14) (size 15 to 20)
#    0.000    2.636    0.909    1.091    0.000    4.727 
#    0.000    2.727    0.000    2.182    0.000    5.091 
#    0.000    0.000    0.000    0.000    0.000    0.000 
#
# Total GULP energy -245419.637533 kJ/mol
# GULP energy per Si atom -5577.719035 kJ/mol
# Density = 1.857105 g / cm^3
# Si number density = 18.613420 Si / 1000 Ang^3
#
#
#
# Elastic Constant Matrix: (Units=GPa)
#
#
# Indices 1 2 3 4 5 6 
#
# 1 147.9056 2.6910 122.4185 0.0000 0.0000 0.0000
# 2 2.6910 15.1623 7.6250 0.0000 0.0000 0.0000
# 3 122.4185 7.6250 148.7238 0.0000 0.0000 0.0000
# 4 0.0000 0.0000 0.0000 20.8080 0.0000 0.0000
# 5 0.0000 0.0000 0.0000 0.0000 30.0713 0.0000
# 6 0.0000 0.0000 0.0000 0.0000 0.0000 6.3013
#
#
#
# Elastic Compliance Matrix: (Units=1/GPa)
#
#
# Indices 1 2 3 4 5 6 
#
# 1 0.021613 0.005246 -0.018059 0.000000 0.000000 0.000000
# 2 0.005246 0.068972 -0.007854 0.000000 0.000000 0.000000
# 3 -0.018059 -0.007854 0.021991 0.000000 0.000000 0.000000
# 4 0.000000 0.000000 0.000000 0.048058 0.000000 0.000000
# 5 0.000000 0.000000 0.000000 0.000000 0.033254 0.000000
# 6 0.000000 0.000000 0.000000 0.000000 0.000000 0.158698
#
#
# Mechanical properties :
#
#
# Convention : Reuss Voigt Hill
#
# Bulk Modulus (GPa) = 14.03678 64.14007 39.08842
# Shear Modulus (GPa) = 11.97125 23.37327 17.67226
#
# Velocity S-wave (km/s) = 2.53879 3.54746 3.08464
# Velocity P-wave (km/s) = 4.01890 7.16332 5.80796
#
# Compressibility (1/GPa) = 0.07124142
#
# Stress axis : x y z
#
# Youngs Moduli (GPa) = 46.26940 14.49867 45.47261
#
# Poissons Ratio (x) = -0.07606 0.82118
# Poissons Ratio (y) = -0.24272 0.35715
# Poissons Ratio (z) = 0.83557 0.11387
#
# Static dielectric constant tensor:
#      x y z
#    x 1.628400 0.000000 0.000000 
#    y 0.000000 1.675320 0.000000 
#    z 0.000000 0.000000 1.637710 
# 
# From -- ./inp_files/10418.got.cif
#   From: 2010.05.17/outbox.cif.g08.bks.cpg/sg71_6_cif.got.tgz:10418.got - 2010.06.03 16:22:01.
