data_PCOD9518186
_publ_section_title
;
Structure prediction by ZEFSAII (Michael W. Deem and Ramdas Pophale) SiO2 
 PCOD9518186
Probable space group: I M M M
;
_chemical_formula_sum "Si O2"
_cell_formula_units_Z 108
_cell_length_a 16.148941
_cell_length_b 15.222883
_cell_length_c 25.548132
_cell_angle_alpha 90.000000
_cell_angle_beta 90.000000
_cell_angle_gamma 90.000000
_cell_volume 6280.585160
_symmetry_space_group_name_H-M "I M M M"
_symmetry_group_IT_number 71
_symmetry_cell_setting 'orthorhombic'
loop_
_space_group_symop_operation_xyz
x,y,z
-x,-y,z
x,-y,-z
-x,y,-z
-x,-y,-z
x,y,-z
-x,y,z
x,-y,z
1/2+x,1/2+y,1/2+z
1/2-x,1/2-y,1/2+z
1/2+x,1/2-y,1/2-z
1/2-x,1/2+y,1/2-z
1/2-x,1/2-y,1/2-z
1/2+x,1/2+y,1/2-z
1/2-x,1/2+y,1/2+z
1/2+x,1/2-y,1/2+z
loop_
_atom_site_type_symbol
_atom_site_label
_atom_site_fract_x
_atom_site_fract_y
_atom_site_fract_z
Si Si1 0.680003 0.600912 0.899367
Si Si2 0.320849 0.399851 0.695775
Si Si3 0.139944 0.351789 0.258224
Si Si4 0.369233 0.100104 0.437335
Si Si5 0.096119 0.730632 0.152911
Si Si6 0.405043 0.660375 0.202006
Si Si7 0.902685 0.898323 0.500000
Si Si8 0.500000 0.000000 0.228294
O O1 0.652422 0.500000 0.892600
O O2 0.773481 0.600556 0.919497
O O3 0.658516 0.643865 0.844829
O O4 0.629016 0.643469 0.946797
O O5 0.320399 0.500000 0.675329
O O6 0.229585 0.375045 0.717946
O O7 0.354879 0.323297 0.657023
O O8 0.379875 0.394275 0.746739
O O9 0.139541 0.333215 0.195703
O O10 0.107847 0.260726 0.281758
O O11 0.072765 0.424797 0.269911
O O12 0.376856 0.113619 0.500000
O O13 0.405387 0.178018 0.401829
O O14 0.400437 0.000000 0.426209
O O15 0.000000 0.745075 0.168784
O O16 0.500000 0.642769 0.186419
O O17 0.000000 0.902081 0.500000
O O18 0.869830 0.000000 0.500000
#
# Coordination Sequence:
#
# PCOD9518186 Si02
#       8
#    16  16  16  16  16  16   8   4
#     4  10  18  31  49  71 105 146 181 220 269 324
#     4  11  22  36  57  79 111 149 185 224 270 326
#     4  11  21  37  54  81 111 143 185 224 269 327
#     4  10  21  37  57  80 107 142 186 231 281 331
#     4  11  23  37  55  82 112 146 184 226 275 327
#     4  11  21  33  49  79 114 146 186 228 267 317
#     4   9  16  26  42  66  97 135 179 218 256 316
#     4  12  20  36  60  76 113 149 174 226 276 324
#
# _framework density 17.19585
#
# number of rings (size 3 to 8) (size 9 to 14) (size 15 to 20)
#    0.000    1.407    2.963    5.778    1.037    4.444 
#    0.000    0.741    0.000    0.444    0.000    1.037 
#    0.000    1.185    0.000    0.000    0.000    0.000 
#
# Total GULP energy -300604.663900 kJ/mol
# GULP energy per Si atom -5566.753035 kJ/mol
# Density = 1.715671 g / cm^3
# Si number density = 17.195850 Si / 1000 Ang^3
#
#
#
# Elastic Constant Matrix: (Units=GPa)
#
#
# Indices 1 2 3 4 5 6 
#
# 1 98.8895 38.3564 17.5132 0.0000 0.0000 0.0000
# 2 38.3564 103.9782 41.2766 0.0000 0.0000 0.0000
# 3 17.5132 41.2766 84.7988 0.0000 0.0000 0.0000
# 4 0.0000 0.0000 0.0000 11.4158 0.0000 0.0000
# 5 0.0000 0.0000 0.0000 0.0000 18.0574 0.0000
# 6 0.0000 0.0000 0.0000 0.0000 0.0000 20.8458
#
#
#
# Elastic Compliance Matrix: (Units=1/GPa)
#
#
# Indices 1 2 3 4 5 6 
#
# 1 0.011811 -0.004200 -0.000395 0.000000 0.000000 0.000000
# 2 -0.004200 0.013415 -0.005662 0.000000 0.000000 0.000000
# 3 -0.000395 -0.005662 0.014630 0.000000 0.000000 0.000000
# 4 0.000000 0.000000 0.000000 0.087598 0.000000 0.000000
# 5 0.000000 0.000000 0.000000 0.000000 0.055379 0.000000
# 6 0.000000 0.000000 0.000000 0.000000 0.000000 0.047971
#
#
# Mechanical properties :
#
#
# Convention : Reuss Voigt Hill
#
# Bulk Modulus (GPa) = 51.70211 53.55099 52.62655
# Shear Modulus (GPa) = 19.39742 22.76516 21.08129
#
# Velocity S-wave (km/s) = 3.36226 3.64246 3.50516
# Velocity P-wave (km/s) = 6.72346 6.99281 6.85946
#
# Compressibility (1/GPa) = 0.01934157
#
# Stress axis : x y z
#
# Youngs Moduli (GPa) = 84.66386 74.54559 68.35135
#
# Poissons Ratio (x) = 0.31312 0.02698
# Poissons Ratio (y) = 0.35562 0.38702
# Poissons Ratio (z) = 0.03343 0.42209
#
# Static dielectric constant tensor:
#      x y z
#    x 1.607750 0.000000 0.000000 
#    y 0.000000 1.594580 0.000000 
#    z 0.000000 0.000000 1.630700 
# 
# From -- ./inp_files/65568.got.cif
#   From: 2010.05.17/outbox.cif.g08.bks.cpg/sg71_33_cif.got.tgz:65568.got - 2010.06.03 16:22:01.
