data_PCOD9518039
_publ_section_title
;
Structure prediction by ZEFSAII (Michael W. Deem and Ramdas Pophale) SiO2 
 PCOD9518039
Probable space group: I M M M
;
_chemical_formula_sum "Si O2"
_cell_formula_units_Z 88
_cell_length_a 23.682701
_cell_length_b 24.266671
_cell_length_c 8.535366
_cell_angle_alpha 90.000000
_cell_angle_beta 90.000000
_cell_angle_gamma 90.000000
_cell_volume 4905.277517
_symmetry_space_group_name_H-M "I M M M"
_symmetry_group_IT_number 71
_symmetry_cell_setting 'orthorhombic'
loop_
_space_group_symop_operation_xyz
x,y,z
-x,-y,z
x,-y,-z
-x,y,-z
-x,-y,-z
x,y,-z
-x,y,z
x,-y,z
1/2+x,1/2+y,1/2+z
1/2-x,1/2-y,1/2+z
1/2+x,1/2-y,1/2-z
1/2-x,1/2+y,1/2-z
1/2-x,1/2-y,1/2-z
1/2+x,1/2+y,1/2-z
1/2-x,1/2+y,1/2+z
1/2+x,1/2-y,1/2+z
loop_
_atom_site_type_symbol
_atom_site_label
_atom_site_fract_x
_atom_site_fract_y
_atom_site_fract_z
Si Si1 0.775850 0.628806 0.680398
Si Si2 0.065435 0.936718 0.189196
Si Si3 0.187346 0.264065 0.186166
Si Si4 0.119782 0.564737 0.675046
Si Si5 0.934104 0.566666 0.000000
Si Si6 0.154397 0.151614 0.684548
O O1 0.760188 0.639519 0.500000
O O2 0.819554 0.676355 0.735932
O O3 0.812933 0.574089 0.690945
O O4 0.717864 0.630445 0.775555
O O5 0.108648 0.892142 0.255943
O O6 0.000000 0.925943 0.234009
O O7 0.079034 0.000000 0.236438
O O8 0.068237 0.934780 0.000000
O O9 0.250000 0.250000 0.250000
O O10 0.149764 0.212147 0.236625
O O11 0.187723 0.269302 0.000000
O O12 0.104408 0.587292 0.500000
O O13 0.106479 0.500000 0.670002
O O14 0.091920 0.586766 0.835122
O O15 0.926752 0.500000 0.000000
O O16 0.000000 0.578954 0.000000
O O17 0.149535 0.158695 0.500000
#
# Coordination Sequence:
#
# PCOD9518039 Si02
#       6
#    16  16  16  16   8  16
#     4  10  19  32  51  75 106 140 173 214 266 317
#     4   9  19  37  58  77 101 137 180 224 269 319
#     4  10  18  30  49  72 100 132 169 210 253 306
#     4   9  19  33  50  75 106 139 173 213 263 315
#     4   9  18  32  52  74  98 132 171 211 248 296
#     4  11  21  32  50  77 106 136 173 215 262 318
#
# _framework density 17.939862999999999
#
# number of rings (size 3 to 8) (size 9 to 14) (size 15 to 20)
#    0.000    2.273    0.000    6.545    2.545    1.818 
#    0.000    4.545    0.000    1.091    0.000    2.545 
#    0.000    0.000    0.000    0.000    0.000    0.000 
#
# Total GULP energy -244984.148178 kJ/mol
# GULP energy per Si atom -5567.821549 kJ/mol
# Density = 1.789903 g / cm^3
# Si number density = 17.939863 Si / 1000 Ang^3
#
#
#
# Elastic Constant Matrix: (Units=GPa)
#
#
# Indices 1 2 3 4 5 6 
#
# 1 59.9251 28.9419 28.2343 0.0000 0.0000 0.0000
# 2 28.9419 51.4769 20.5882 0.0000 0.0000 0.0000
# 3 28.2343 20.5882 105.1718 0.0000 0.0000 0.0000
# 4 0.0000 0.0000 0.0000 19.0857 0.0000 0.0000
# 5 0.0000 0.0000 0.0000 0.0000 24.3964 0.0000
# 6 0.0000 0.0000 0.0000 0.0000 0.0000 27.3621
#
#
#
# Elastic Compliance Matrix: (Units=1/GPa)
#
#
# Indices 1 2 3 4 5 6 
#
# 1 0.024516 -0.012098 -0.004213 0.000000 0.000000 0.000000
# 2 -0.012098 0.027047 -0.002047 0.000000 0.000000 0.000000
# 3 -0.004213 -0.002047 0.011040 0.000000 0.000000 0.000000
# 4 0.000000 0.000000 0.000000 0.052395 0.000000 0.000000
# 5 0.000000 0.000000 0.000000 0.000000 0.040990 0.000000
# 6 0.000000 0.000000 0.000000 0.000000 0.000000 0.036547
#
#
# Mechanical properties :
#
#
# Convention : Reuss Voigt Hill
#
# Bulk Modulus (GPa) = 38.63087 41.34474 39.98781
# Shear Modulus (GPa) = 21.01904 23.42281 22.22092
#
# Velocity S-wave (km/s) = 3.42663 3.61727 3.52324
# Velocity P-wave (km/s) = 6.10213 6.36730 6.23613
#
# Compressibility (1/GPa) = 0.02588603
#
# Stress axis : x y z
#
# Youngs Moduli (GPa) = 40.79017 36.97282 90.58015
#
# Poissons Ratio (x) = 0.44731 0.38162
# Poissons Ratio (y) = 0.49350 0.18539
# Poissons Ratio (z) = 0.17185 0.07567
#
# Static dielectric constant tensor:
#      x y z
#    x 1.854290 0.000000 0.000000 
#    y 0.000000 1.696260 0.000000 
#    z 0.000000 0.000000 1.636130 
# 
# From -- ./inp_files/12538.got.cif
#   From: 2010.05.17/outbox.cif.g08.bks.cpg/sg71_7_cif.got.tgz:12538.got - 2010.06.03 16:22:01.
