data_PCOD9518193
_publ_section_title
;
Structure prediction by ZEFSAII (Michael W. Deem and Ramdas Pophale) SiO2 
 PCOD9518193
Probable space group: I M M M
;
_chemical_formula_sum "Si O2"
_cell_formula_units_Z 96
_cell_length_a 16.624341
_cell_length_b 26.010289
_cell_length_c 12.379490
_cell_angle_alpha 90.000000
_cell_angle_beta 90.000000
_cell_angle_gamma 90.000000
_cell_volume 5352.939927
_symmetry_space_group_name_H-M "I M M M"
_symmetry_group_IT_number 71
_symmetry_cell_setting 'orthorhombic'
loop_
_space_group_symop_operation_xyz
x,y,z
-x,-y,z
x,-y,-z
-x,y,-z
-x,-y,-z
x,y,-z
-x,y,z
x,-y,z
1/2+x,1/2+y,1/2+z
1/2-x,1/2-y,1/2+z
1/2+x,1/2-y,1/2-z
1/2-x,1/2+y,1/2-z
1/2-x,1/2-y,1/2-z
1/2+x,1/2+y,1/2-z
1/2-x,1/2+y,1/2+z
1/2+x,1/2-y,1/2+z
loop_
_atom_site_type_symbol
_atom_site_label
_atom_site_fract_x
_atom_site_fract_y
_atom_site_fract_z
Si Si1 0.728102 0.632004 0.870873
Si Si2 0.597185 0.697407 0.796887
Si Si3 0.500000 0.055216 0.661072
Si Si4 0.500000 0.828174 0.379396
Si Si5 0.831638 0.558801 0.285062
Si Si6 0.095575 0.269784 0.500000
Si Si7 0.899289 0.388611 0.500000
Si Si8 0.343786 0.772635 0.371100
O O1 0.636884 0.643882 0.834854
O O2 0.772622 0.590990 0.793855
O O3 0.771992 0.687302 0.853568
O O4 0.735074 0.619906 0.000000
O O5 0.500000 0.695106 0.781687
O O6 0.616103 0.737565 0.893708
O O7 0.643326 0.719843 0.692272
O O8 0.500000 0.111233 0.609751
O O9 0.418042 0.055744 0.727327
O O10 0.500000 0.000000 0.604750
O O11 0.500000 0.806316 0.500000
O O12 0.420148 0.806143 0.328329
O O13 0.802712 0.500000 0.301455
O O14 0.856585 0.586067 0.396484
O O15 0.122738 0.328312 0.500000
O O16 0.000000 0.273041 0.500000
O O17 0.000000 0.394569 0.500000
O O18 0.345177 0.763574 0.500000
#
# Coordination Sequence:
#
# PCOD9518193 Si02
#       8
#    16  16   8   8  16   8   8  16
#     4  11  23  39  57  82 117 153 195 248 298 344
#     4  11  21  38  58  81 116 154 198 242 292 354
#     4  10  20  32  52  78 107 147 195 231 273 337
#     4  10  18  31  49  73 110 154 188 221 276 331
#     4  11  23  38  58  84 114 155 198 243 294 339
#     4   9  20  31  54  85 109 150 193 232 287 344
#     4  11  21  36  61  90 125 161 196 236 281 351
#     4  10  20  33  54  80 113 153 185 228 286 347
#
# _framework density 17.934070999999999
#
# number of rings (size 3 to 8) (size 9 to 14) (size 15 to 20)
#    0.000    1.500    4.167    1.750    0.000    0.833 
#    1.500    1.667    0.000    0.500    0.000    1.167 
#    0.000    1.333    0.000    0.000    0.000    0.000 
#
# Total GULP energy -267256.688966 kJ/mol
# GULP energy per Si atom -5567.847687 kJ/mol
# Density = 1.789325 g / cm^3
# Si number density = 17.934071 Si / 1000 Ang^3
#
#
#
# Elastic Constant Matrix: (Units=GPa)
#
#
# Indices 1 2 3 4 5 6 
#
# 1 56.0293 43.8919 35.1262 0.0001 -0.0002 -0.0001
# 2 43.8919 93.6397 51.9173 -0.0001 0.0001 0.0000
# 3 35.1262 51.9173 95.5800 -0.0007 0.0005 0.0005
# 4 0.0001 -0.0001 -0.0007 72.3011 0.0002 0.0002
# 5 -0.0002 0.0001 0.0005 0.0002 28.3435 -0.0002
# 6 -0.0001 0.0000 0.0005 0.0002 -0.0002 22.1131
#
#
#
# Elastic Compliance Matrix: (Units=1/GPa)
#
#
# Indices 1 2 3 4 5 6 
#
# 1 0.029663 -0.011247 -0.004792 0.000000 0.000000 0.000000
# 2 -0.011247 0.019546 -0.006484 0.000000 0.000000 0.000000
# 3 -0.004792 -0.006484 0.015745 0.000000 0.000000 0.000000
# 4 0.000000 0.000000 0.000000 0.013831 0.000000 0.000000
# 5 0.000000 0.000000 0.000000 0.000000 0.035281 0.000000
# 6 0.000000 0.000000 0.000000 0.000000 0.000000 0.045222
#
#
# Mechanical properties :
#
#
# Convention : Reuss Voigt Hill
#
# Bulk Modulus (GPa) = 50.22969 56.34666 53.28818
# Shear Modulus (GPa) = 23.70011 32.17245 27.93628
#
# Velocity S-wave (km/s) = 3.63921 4.24007 3.95108
# Velocity P-wave (km/s) = 6.76219 7.44701 7.11285
#
# Compressibility (1/GPa) = 0.01990854
#
# Stress axis : x y z
#
# Youngs Moduli (GPa) = 33.71252 51.16207 63.51089
#
# Poissons Ratio (x) = 0.57541 0.30435
# Poissons Ratio (y) = 0.37916 0.41178
# Poissons Ratio (z) = 0.16155 0.33171
#
# Static dielectric constant tensor:
#      x y z
#    x 1.670430 0.000000 0.000000 
#    y 0.000000 1.622420 0.000000 
#    z 0.000000 0.000000 1.684640 
# 
# From -- ./inp_files/24319.got.cif
#   From: 2010.05.17/outbox.cif.g08.bks.cpg/sg71_13_cif.got.tgz:24319.got - 2010.06.03 16:22:01.
