data_PCOD9518506
_publ_section_title
;
Structure prediction by ZEFSAII (Michael W. Deem and Ramdas Pophale) SiO2 
 PCOD9518506
Probable space group: I M M M
;
_chemical_formula_sum "Si O2"
_cell_formula_units_Z 56
_cell_length_a 26.544880
_cell_length_b 12.674143
_cell_length_c 8.280434
_cell_angle_alpha 90.000000
_cell_angle_beta 90.000000
_cell_angle_gamma 90.000000
_cell_volume 2785.816262
_symmetry_space_group_name_H-M "I M M M"
_symmetry_group_IT_number 71
_symmetry_cell_setting 'orthorhombic'
loop_
_space_group_symop_operation_xyz
x,y,z
-x,-y,z
x,-y,-z
-x,y,-z
-x,-y,-z
x,y,-z
-x,y,z
x,-y,z
1/2+x,1/2+y,1/2+z
1/2-x,1/2-y,1/2+z
1/2+x,1/2-y,1/2-z
1/2-x,1/2+y,1/2-z
1/2-x,1/2-y,1/2-z
1/2+x,1/2+y,1/2-z
1/2-x,1/2+y,1/2+z
1/2+x,1/2-y,1/2+z
loop_
_atom_site_type_symbol
_atom_site_label
_atom_site_fract_x
_atom_site_fract_y
_atom_site_fract_z
Si Si1 0.350648 0.000000 0.316208
Si Si2 0.500000 0.376569 0.240345
Si Si3 0.000000 0.315779 0.500000
Si Si4 0.108443 0.118660 0.689778
Si Si5 0.580518 0.000000 0.000000
Si Si6 0.194176 0.270354 0.186950
O O1 0.388531 0.000000 0.166220
O O2 0.318220 0.105973 0.301426
O O3 0.372984 0.000000 0.500000
O O4 0.500000 0.500000 0.176714
O O5 0.500000 0.265664 0.146413
O O6 0.441866 0.372001 0.300063
O O7 0.952929 0.394324 0.500000
O O8 0.092059 0.127466 0.500000
O O9 0.151013 0.204002 0.723074
O O10 0.128878 0.000000 0.710710
O O11 0.250000 0.250000 0.250000
O O12 0.191536 0.238927 0.000000
#
# Coordination Sequence:
#
# PCOD9518506 Si02
#       6
#     8   8   4  16   4  16
#     4  10  25  45  63  90 128 167 217 265 332 386
#     4  10  18  33  61  94 132 168 204 264 314 373
#     4  11  19  32  58 104 127 157 244 244 306 399
#     4  10  20  36  62  95 129 165 207 256 313 377
#     4  11  24  38  68  94 128 180 204 283 314 374
#     4  11  25  43  64  89 122 165 213 268 324 392
#
# _framework density 20.101827
#
# number of rings (size 3 to 8) (size 9 to 14) (size 15 to 20)
#    0.000    1.571    1.429    2.786    6.000    0.571 
#    0.000    2.143    0.000   11.143    0.000    0.000 
#    0.000    1.143    0.000    0.000    0.000    0.000 
#
# Total GULP energy -155910.626619 kJ/mol
# GULP energy per Si atom -5568.236665 kJ/mol
# Density = 2.005607 g / cm^3
# Si number density = 20.101827 Si / 1000 Ang^3
#
#
#
# Elastic Constant Matrix: (Units=GPa)
#
#
# Indices 1 2 3 4 5 6 
#
# 1 141.8635 58.9956 45.4936 0.0000 0.0000 0.0000
# 2 58.9956 142.6462 40.0371 0.0000 0.0000 0.0000
# 3 45.4936 40.0371 89.4165 0.0000 0.0000 0.0000
# 4 0.0000 0.0000 0.0000 5.3345 0.0000 0.0000
# 5 0.0000 0.0000 0.0000 0.0000 2.4994 0.0000
# 6 0.0000 0.0000 0.0000 0.0000 0.0000 -25.5905
#
#
#
# Elastic Compliance Matrix: (Units=1/GPa)
#
#
# Indices 1 2 3 4 5 6 
#
# 1 0.009367 -0.002901 -0.003467 0.000000 0.000000 0.000000
# 2 -0.002901 0.008916 -0.002516 0.000000 0.000000 0.000000
# 3 -0.003467 -0.002516 0.014074 0.000000 0.000000 0.000000
# 4 0.000000 0.000000 0.000000 0.187457 0.000000 0.000000
# 5 0.000000 0.000000 0.000000 0.000000 0.400099 0.000000
# 6 0.000000 0.000000 0.000000 0.000000 0.000000 -0.039077
#
#
# Mechanical properties :
#
#
# Convention : Reuss Voigt Hill
#
# Bulk Modulus (GPa) = 68.54381 73.66430 71.10406
# Shear Modulus (GPa) = 8.28542 11.74200 10.01371
#
# Velocity S-wave (km/s) = 2.03241 2.41949 2.23435
# Velocity P-wave (km/s) = 6.29920 6.67311 6.48885
#
# Compressibility (1/GPa) = 0.01458921
#
# Stress axis : x y z
#
# Youngs Moduli (GPa) = 106.75485 112.15213 71.05150
#
# Poissons Ratio (x) = 0.32536 0.24633
# Poissons Ratio (y) = 0.30970 0.17880
# Poissons Ratio (z) = 0.37011 0.28222
#
# Static dielectric constant tensor:
#      x y z
#    x 1.723590 0.000000 0.000000 
#    y 0.000000 1.679520 0.000000 
#    z 0.000000 0.000000 1.780740 
# 
# From -- ./inp_files/14066.got.cif
#   From: 2010.05.17/outbox.cif.g08.bks.cpg/sg71_8_cif.got.tgz:14066.got - 2010.06.03 16:22:01.
