data_PCOD9518338
_publ_section_title
;
Structure prediction by ZEFSAII (Michael W. Deem and Ramdas Pophale) SiO2 
 PCOD9518338
Probable space group: I M M M
;
_chemical_formula_sum "Si O2"
_cell_formula_units_Z 72
_cell_length_a 8.592558
_cell_length_b 19.853091
_cell_length_c 28.639894
_cell_angle_alpha 90.000000
_cell_angle_beta 90.000000
_cell_angle_gamma 90.000000
_cell_volume 4885.646178
_symmetry_space_group_name_H-M "I M M M"
_symmetry_group_IT_number 71
_symmetry_cell_setting 'orthorhombic'
loop_
_space_group_symop_operation_xyz
x,y,z
-x,-y,z
x,-y,-z
-x,y,-z
-x,-y,-z
x,y,-z
-x,y,z
x,-y,z
1/2+x,1/2+y,1/2+z
1/2-x,1/2-y,1/2+z
1/2+x,1/2-y,1/2-z
1/2-x,1/2+y,1/2-z
1/2-x,1/2-y,1/2-z
1/2+x,1/2+y,1/2-z
1/2-x,1/2+y,1/2+z
1/2+x,1/2-y,1/2+z
loop_
_atom_site_type_symbol
_atom_site_label
_atom_site_fract_x
_atom_site_fract_y
_atom_site_fract_z
Si Si1 0.687302 0.351208 0.272973
Si Si2 0.312630 0.723564 0.177838
Si Si3 0.811283 0.000000 0.242785
Si Si4 0.186797 0.871730 0.597328
Si Si5 0.314104 0.000000 0.347412
Si Si6 0.186347 0.579074 0.000000
O O1 0.500000 0.348026 0.274039
O O2 0.737022 0.324891 0.221226
O O3 0.752280 0.297442 0.309538
O O4 0.733735 0.428830 0.280255
O O5 0.500000 0.724232 0.178319
O O6 0.262627 0.692596 0.128325
O O7 0.737587 0.000000 0.293975
O O8 0.000000 0.000000 0.247542
O O9 0.255095 0.882925 0.546097
O O10 0.000000 0.871462 0.594335
O O11 0.242608 0.935344 0.627387
O O12 0.500000 0.000000 0.352154
O O13 0.239931 0.500000 0.000000
O O14 0.000000 0.577494 0.000000
#
# Coordination Sequence:
#
# PCOD9518338 Si02
#       6
#    16  16   8  16   8   8
#     4   9  17  29  46  66  90 120 153 190 227 267
#     4   9  18  31  46  65  89 119 155 190 225 270
#     4  10  18  32  47  65  92 125 161 190 225 279
#     4  11  21  35  51  64  87 126 161 190 230 278
#     4  12  22  29  43  68  92 120 156 199 236 265
#     4  11  23  35  47  71  96 115 152 201 236 262
#
# _framework density 14.737047
#
# number of rings (size 3 to 8) (size 9 to 14) (size 15 to 20)
#    0.000    1.889    3.333    2.000    0.000    3.111 
#    0.000    0.000    0.000    0.000    0.000    0.000 
#    0.000    0.889    0.000   10.000    0.000    4.444 
#
# Total GULP energy -200742.383085 kJ/mol
# GULP energy per Si atom -5576.177308 kJ/mol
# Density = 1.470350 g / cm^3
# Si number density = 14.737047 Si / 1000 Ang^3
#
#
#
# Elastic Constant Matrix: (Units=GPa)
#
#
# Indices 1 2 3 4 5 6 
#
# 1 22.2179 23.8551 25.4990 0.0000 0.0000 0.0000
# 2 23.8551 129.2332 68.5110 0.0000 0.0000 0.0000
# 3 25.4990 68.5110 104.2006 0.0000 0.0000 0.0000
# 4 0.0000 0.0000 0.0000 22.5976 0.0000 0.0000
# 5 0.0000 0.0000 0.0000 0.0000 19.4987 0.0000
# 6 0.0000 0.0000 0.0000 0.0000 0.0000 21.7689
#
#
#
# Elastic Compliance Matrix: (Units=1/GPa)
#
#
# Indices 1 2 3 4 5 6 
#
# 1 0.065015 -0.005475 -0.012310 0.000000 0.000000 0.000000
# 2 -0.005475 0.012339 -0.006773 0.000000 0.000000 0.000000
# 3 -0.012310 -0.006773 0.017063 0.000000 0.000000 0.000000
# 4 0.000000 0.000000 0.000000 0.044252 0.000000 0.000000
# 5 0.000000 0.000000 0.000000 0.000000 0.051285 0.000000
# 6 0.000000 0.000000 0.000000 0.000000 0.000000 0.045937
#
#
# Mechanical properties :
#
#
# Convention : Reuss Voigt Hill
#
# Bulk Modulus (GPa) = 22.07481 54.59799 38.33640
# Shear Modulus (GPa) = 16.66060 21.95882 19.30971
#
# Velocity S-wave (km/s) = 3.36598 3.86429 3.62371
# Velocity P-wave (km/s) = 5.48799 7.55241 6.60140
#
# Compressibility (1/GPa) = 0.04530050
#
# Stress axis : x y z
#
# Youngs Moduli (GPa) = 15.38095 81.04195 58.60775
#
# Poissons Ratio (x) = 0.44371 0.72147
# Poissons Ratio (y) = 0.08421 0.39696
# Poissons Ratio (z) = 0.18934 0.54891
#
# Static dielectric constant tensor:
#      x y z
#    x 1.498840 0.000000 0.000000 
#    y 0.000000 1.496170 0.000000 
#    z 0.000000 0.000000 1.477600 
# 
# From -- ./inp_files/8209.got.cif
#   From: 2010.05.17/outbox.cif.g08.bks.cpg/sg71_5_cif.got.tgz:8209.got - 2010.06.03 16:22:01.
