data_PCOD9518812
_publ_section_title
;
Structure prediction by ZEFSAII (Michael W. Deem and Ramdas Pophale) SiO2 
 PCOD9518812
Probable space group: I M M M
;
_chemical_formula_sum "Si O2"
_cell_formula_units_Z 72
_cell_length_a 19.684665
_cell_length_b 19.364588
_cell_length_c 7.293037
_cell_angle_alpha 90.000000
_cell_angle_beta 90.000000
_cell_angle_gamma 90.000000
_cell_volume 2779.999428
_symmetry_space_group_name_H-M "I M M M"
_symmetry_group_IT_number 71
_symmetry_cell_setting 'orthorhombic'
loop_
_space_group_symop_operation_xyz
x,y,z
-x,-y,z
x,-y,-z
-x,y,-z
-x,-y,-z
x,y,-z
-x,y,z
x,-y,z
1/2+x,1/2+y,1/2+z
1/2-x,1/2-y,1/2+z
1/2+x,1/2-y,1/2-z
1/2-x,1/2+y,1/2-z
1/2-x,1/2-y,1/2-z
1/2+x,1/2+y,1/2-z
1/2-x,1/2+y,1/2+z
1/2+x,1/2-y,1/2+z
loop_
_atom_site_type_symbol
_atom_site_label
_atom_site_fract_x
_atom_site_fract_y
_atom_site_fract_z
Si Si1 0.236445 0.147121 0.221343
Si Si2 0.606196 0.150567 0.225209
Si Si3 0.000000 0.919556 0.276508
Si Si4 0.903829 0.201325 0.288114
Si Si5 0.736636 0.500000 0.285353
Si Si6 0.598518 0.000000 0.785229
O O1 0.314169 0.153756 0.279371
O O2 0.177931 0.198373 0.279937
O O3 0.212389 0.071968 0.290928
O O4 0.237606 0.147443 0.000000
O O5 0.575919 0.223560 0.287342
O O6 0.578591 0.075744 0.286694
O O7 0.603390 0.149232 0.000000
O O8 0.937206 0.869490 0.216352
O O9 0.000000 0.924181 0.500000
O O10 0.000000 0.000000 0.213791
O O11 0.923324 0.202854 0.500000
O O12 0.719090 0.500000 0.500000
O O13 0.818907 0.500000 0.275474
O O14 0.580055 0.000000 0.000000
#
# Coordination Sequence:
#
# PCOD9518812 Si02
#       6
#    16  16   8  16   8   8
#     4   9  16  27  44  67  92 114 139 180 234 280
#     4   8  14  25  43  68  92 115 141 175 226 284
#     4   9  20  36  47  58  86 130 167 191 221 259
#     4  10  19  30  46  64  84 115 158 195 219 256
#     4   7  12  22  37  58  85 113 137 161 206 273
#     4   7  10  20  38  60  88 113 130 157 210 277
#
# _framework density 25.899287000000001
#
# number of rings (size 3 to 8) (size 9 to 14) (size 15 to 20)
#    0.000    3.444    0.000    3.333    1.556    0.000 
#    0.000    0.556    0.000    1.333    0.000    5.444 
#    0.000    0.000    0.000    2.000    0.000    2.222 
#
# Total GULP energy -200749.002579 kJ/mol
# GULP energy per Si atom -5576.361183 kJ/mol
# Density = 2.584034 g / cm^3
# Si number density = 25.899287 Si / 1000 Ang^3
#
#
#
# Elastic Constant Matrix: (Units=GPa)
#
#
# Indices 1 2 3 4 5 6 
#
# 1 127.8719 48.9785 -1.4487 0.0000 0.0000 0.0000
# 2 48.9785 319.7247 9.4264 0.0000 0.0000 0.0000
# 3 -1.4487 9.4264 111.5542 0.0000 0.0000 0.0000
# 4 0.0000 0.0000 0.0000 -12.8589 0.0000 0.0000
# 5 0.0000 0.0000 0.0000 0.0000 -82.0053 0.0000
# 6 0.0000 0.0000 0.0000 0.0000 0.0000 4.2404
#
#
#
# Elastic Compliance Matrix: (Units=1/GPa)
#
#
# Indices 1 2 3 4 5 6 
#
# 1 0.008313 -0.001280 0.000216 0.000000 0.000000 0.000000
# 2 -0.001280 0.003333 -0.000298 0.000000 0.000000 0.000000
# 3 0.000216 -0.000298 0.008992 0.000000 0.000000 0.000000
# 4 0.000000 0.000000 0.000000 -0.077767 0.000000 0.000000
# 5 0.000000 0.000000 0.000000 0.000000 -0.012194 0.000000
# 6 0.000000 0.000000 0.000000 0.000000 0.000000 0.235825
#
#
# Mechanical properties :
#
#
# Convention : Reuss Voigt Hill
#
# Bulk Modulus (GPa) = 55.82265 74.78482 65.30374
# Shear Modulus (GPa) = 28.53940 15.35489 21.94715
#
# Velocity S-wave (km/s) = 3.32315 2.43753 2.91418
# Velocity P-wave (km/s) = 6.02702 6.07124 6.04917
#
# Compressibility (1/GPa) = 0.01791387
#
# Stress axis : x y z
#
# Youngs Moduli (GPa) = 120.29373 300.07136 111.20678
#
# Poissons Ratio (x) = 0.38404 -0.02403
# Poissons Ratio (y) = 0.15396 0.03316
# Poissons Ratio (z) = -0.02600 0.08949
#
# Static dielectric constant tensor:
#      x y z
#    x 2.009410 0.000000 0.000000 
#    y 0.000000 2.074860 0.000000 
#    z 0.000000 0.000000 1.979770 
# 
# From -- ./inp_files/23765.got.cif
#   From: 2010.05.17/outbox.cif.g08.bks.cpg/sg71_12_cif.got.tgz:23765.got - 2010.06.03 16:22:01.
