data_PCOD9518013
_publ_section_title
;
Structure prediction by ZEFSAII (Michael W. Deem and Ramdas Pophale) SiO2 
 PCOD9518013
Probable space group: I M M M
;
_chemical_formula_sum "Si O2"
_cell_formula_units_Z 84
_cell_length_a 17.742923
_cell_length_b 7.307448
_cell_length_c 28.501185
_cell_angle_alpha 90.000000
_cell_angle_beta 90.000000
_cell_angle_gamma 90.000000
_cell_volume 3695.335027
_symmetry_space_group_name_H-M "I M M M"
_symmetry_group_IT_number 71
_symmetry_cell_setting 'orthorhombic'
loop_
_space_group_symop_operation_xyz
x,y,z
-x,-y,z
x,-y,-z
-x,y,-z
-x,-y,-z
x,y,-z
-x,y,z
x,-y,z
1/2+x,1/2+y,1/2+z
1/2-x,1/2-y,1/2+z
1/2+x,1/2-y,1/2-z
1/2-x,1/2+y,1/2-z
1/2-x,1/2-y,1/2-z
1/2+x,1/2+y,1/2-z
1/2-x,1/2+y,1/2+z
1/2+x,1/2-y,1/2+z
loop_
_atom_site_type_symbol
_atom_site_label
_atom_site_fract_x
_atom_site_fract_y
_atom_site_fract_z
Si Si1 0.849327 0.279434 0.663135
Si Si2 0.587127 0.777751 0.259093
Si Si3 0.830287 0.774236 0.500000
Si Si4 0.914028 0.723678 0.134709
Si Si5 0.500000 0.222412 0.894498
Si Si6 0.000000 0.248503 0.500000
Si Si7 0.269695 0.208636 0.586543
O O1 0.844779 0.500000 0.663109
O O2 0.860014 0.216828 0.716648
O O3 0.778175 0.209810 0.634456
O O4 0.925311 0.230690 0.634659
O O5 0.500000 0.726138 0.249228
O O6 0.605236 0.719357 0.311920
O O7 0.588329 0.000000 0.258885
O O8 0.783352 0.716455 0.545734
O O9 0.912864 0.689088 0.500000
O O10 0.841344 0.000000 0.500000
O O11 0.912404 0.500000 0.134612
O O12 0.850846 0.789449 0.098749
O O13 0.000000 0.777612 0.124746
O O14 0.500000 0.000000 0.901635
O O15 0.500000 0.312998 0.945383
O O16 0.283390 0.000000 0.571581
#
# Coordination Sequence:
#
# PCOD9518013 Si02
#       7
#    16  16   8  16   8   4  16
#     4  10  18  30  48  72  99 126 156 192 232 273
#     4   8  13  24  45  70  95 123 156 189 227 278
#     4  10  21  33  46  66  96 130 157 188 236 288
#     4   8  15  29  50  72  92 120 156 195 237 284
#     4  10  19  29  45  70  97 125 160 199 228 259
#     4  12  18  32  48  64  92 134 164 192 222 280
#     4  10  20  34  48  68  97 124 157 199 238 277
#
# _framework density 22.731361
#
# number of rings (size 3 to 8) (size 9 to 14) (size 15 to 20)
#    0.000    2.667    2.857    1.429    0.000    0.762 
#    0.000    1.429    0.000    3.429    0.000    2.667 
#    0.000    1.524    0.000    0.000    0.000    0.000 
#
# Total GULP energy -234343.235385 kJ/mol
# GULP energy per Si atom -5579.600842 kJ/mol
# Density = 2.267962 g / cm^3
# Si number density = 22.731361 Si / 1000 Ang^3
#
#
#
# Elastic Constant Matrix: (Units=GPa)
#
#
# Indices 1 2 3 4 5 6 
#
# 1 159.9369 7.0276 92.5784 0.0000 0.0000 0.0000
# 2 7.0276 98.7989 9.4979 0.0000 0.0000 0.0000
# 3 92.5784 9.4979 108.5360 0.0000 0.0000 0.0000
# 4 0.0000 0.0000 0.0000 -3.9949 0.0000 0.0000
# 5 0.0000 0.0000 0.0000 0.0000 -110.1653 0.0000
# 6 0.0000 0.0000 0.0000 0.0000 0.0000 -1.6012
#
#
#
# Elastic Compliance Matrix: (Units=1/GPa)
#
#
# Indices 1 2 3 4 5 6 
#
# 1 0.012352 0.000135 -0.010548 0.000000 0.000000 0.000000
# 2 0.000135 0.010209 -0.001009 0.000000 0.000000 0.000000
# 3 -0.010548 -0.001009 0.018299 0.000000 0.000000 0.000000
# 4 0.000000 0.000000 0.000000 -0.250318 0.000000 0.000000
# 5 0.000000 0.000000 0.000000 0.000000 -0.009077 0.000000
# 6 0.000000 0.000000 0.000000 0.000000 0.000000 -0.624550
#
#
# Mechanical properties :
#
#
# Convention : Reuss Voigt Hill
#
# Bulk Modulus (GPa) = 55.50245 65.05330 60.27788
# Shear Modulus (GPa) = -6.14072 -5.94107 -6.04090
#
# Velocity S-wave (km/s) = -1.64539 -1.61842 -1.63196
# Velocity P-wave (km/s) = 4.56727 5.01877 4.79833
#
# Compressibility (1/GPa) = 0.01801722
#
# Stress axis : x y z
#
# Youngs Moduli (GPa) = 80.95816 97.95352 54.64825
#
# Poissons Ratio (x) = -0.01326 0.57642
# Poissons Ratio (y) = -0.01096 0.05513
# Poissons Ratio (z) = 0.85393 0.09882
#
# Static dielectric constant tensor:
#      x y z
#    x 1.796360 0.000000 0.000000 
#    y 0.000000 1.913780 0.000000 
#    z 0.000000 0.000000 1.810150 
# 
# From -- ./inp_files/58759.got.cif
#   From: 2010.05.17/outbox.cif.g08.bks.cpg/sg71_30_cif.got.tgz:58759.got - 2010.06.03 16:22:01.
