data_PCOD9518636
_publ_section_title
;
Structure prediction by ZEFSAII (Michael W. Deem and Ramdas Pophale) SiO2 
 PCOD9518636
Probable space group: I M M M
;
_chemical_formula_sum "Si O2"
_cell_formula_units_Z 120
_cell_length_a 18.549228
_cell_length_b 23.766348
_cell_length_c 18.036815
_cell_angle_alpha 90.000000
_cell_angle_beta 90.000000
_cell_angle_gamma 90.000000
_cell_volume 7951.483137
_symmetry_space_group_name_H-M "I M M M"
_symmetry_group_IT_number 71
_symmetry_cell_setting 'orthorhombic'
loop_
_space_group_symop_operation_xyz
x,y,z
-x,-y,z
x,-y,-z
-x,y,-z
-x,-y,-z
x,y,-z
-x,y,z
x,-y,z
1/2+x,1/2+y,1/2+z
1/2-x,1/2-y,1/2+z
1/2+x,1/2-y,1/2-z
1/2-x,1/2+y,1/2-z
1/2-x,1/2-y,1/2-z
1/2+x,1/2+y,1/2-z
1/2-x,1/2+y,1/2+z
1/2+x,1/2-y,1/2+z
loop_
_atom_site_type_symbol
_atom_site_label
_atom_site_fract_x
_atom_site_fract_y
_atom_site_fract_z
Si Si1 0.586482 0.566022 0.500000
Si Si2 0.353577 0.376887 0.648636
Si Si3 0.648544 0.649470 0.913061
Si Si4 0.584984 0.566406 0.207553
Si Si5 0.416617 0.233842 0.859311
Si Si6 0.282304 0.827442 0.914778
Si Si7 0.084048 0.246898 0.816502
Si Si8 0.203863 0.294785 0.084970
O O1 0.606261 0.500000 0.500000
O O2 0.500000 0.569785 0.500000
O O3 0.616110 0.596304 0.573246
O O4 0.373475 0.415196 0.718291
O O5 0.268704 0.365900 0.635701
O O6 0.391209 0.316420 0.663265
O O7 0.615250 0.602470 0.860550
O O8 0.606264 0.707994 0.898993
O O9 0.732349 0.662379 0.893824
O O10 0.644355 0.635622 0.000000
O O11 0.500000 0.579454 0.217829
O O12 0.592134 0.500000 0.194823
O O13 0.500000 0.221316 0.874416
O O14 0.361956 0.185621 0.885720
O O15 0.407275 0.244357 0.771451
O O16 0.242768 0.766383 0.914491
O O17 0.283198 0.847186 0.000000
O O18 0.136455 0.288878 0.860854
O O19 0.000000 0.254100 0.835355
O O20 0.181705 0.305811 0.000000
#
# Coordination Sequence:
#
# PCOD9518636 Si02
#       8
#     8  16  16  16  16  16  16  16
#     4  11  22  34  50  70  95 131 169 205 241 274
#     4  11  20  34  50  68  98 130 163 200 237 284
#     4  10  20  34  51  68  93 130 167 198 238 282
#     4  11  23  36  50  70  95 124 164 208 242 275
#     4  10  19  30  47  73 100 127 159 195 235 284
#     4   9  18  31  47  70  94 125 161 193 231 283
#     4  10  19  28  45  72 100 129 161 191 233 289
#     4   8  17  30  44  67  95 126 160 193 230 283
#
# _framework density 15.091525000000001
#
# number of rings (size 3 to 8) (size 9 to 14) (size 15 to 20)
#    0.000    2.067    2.000    3.200    2.800    5.067 
#    0.000    0.667    0.000    0.000    0.000    0.000 
#    0.000    4.267    0.000    2.933    0.000    0.000 
#
# Total GULP energy -334634.065445 kJ/mol
# GULP energy per Si atom -5577.234424 kJ/mol
# Density = 1.505718 g / cm^3
# Si number density = 15.091525 Si / 1000 Ang^3
#
#
#
# Elastic Constant Matrix: (Units=GPa)
#
#
# Indices 1 2 3 4 5 6 
#
# 1 91.1388 21.2403 37.6426 0.0000 0.0000 0.0000
# 2 21.2403 36.0095 15.2836 0.0000 0.0000 0.0000
# 3 37.6426 15.2836 59.4247 0.0000 0.0000 0.0000
# 4 0.0000 0.0000 0.0000 -0.0685 0.0000 0.0000
# 5 0.0000 0.0000 0.0000 0.0000 26.1081 0.0000
# 6 0.0000 0.0000 0.0000 0.0000 0.0000 21.7749
#
#
#
# Elastic Compliance Matrix: (Units=1/GPa)
#
#
# Indices 1 2 3 4 5 6 
#
# 1 0.015841 -0.005708 -0.008566 0.000001 0.000000 0.000000
# 2 -0.005708 0.033230 -0.004931 -0.000002 0.000000 0.000000
# 3 -0.008566 -0.004931 0.023522 -0.000003 0.000000 0.000000
# 4 0.000001 -0.000002 -0.000003-14.588179 -0.000003 -0.000001
# 5 0.000000 0.000000 0.000000 -0.000003 0.038302 0.000000
# 6 0.000000 0.000000 0.000000 -0.000001 0.000000 0.045924
#
#
# Mechanical properties :
#
#
# Convention : Reuss Voigt Hill
#
# Bulk Modulus (GPa) = 29.25407 37.21176 33.23292
# Shear Modulus (GPa) = -0.34767 17.05665 8.35449
#
# Velocity S-wave (km/s) = -0.48049 3.36551 2.35540
# Velocity P-wave (km/s) = 4.37249 6.30977 5.42825
#
# Compressibility (1/GPa) = 0.03418327
#
# Stress axis : x y z
#
# Youngs Moduli (GPa) = 63.12913 30.09322 42.51252
#
# Poissons Ratio (x) = 0.17177 0.36417
# Poissons Ratio (y) = 0.36033 0.20963
# Poissons Ratio (z) = 0.54078 0.14839
#
# Static dielectric constant tensor:
#      x y z
#    x 1.506710 0.000000 0.000000 
#    y 0.000000 1.475480 0.000000 
#    z 0.000000 0.000000 1.502760 
# 
# From -- ./inp_files/46466.got.cif
#   From: 2010.05.17/outbox.cif.g08.bks.cpg/sg71_24_cif.got.tgz:46466.got - 2010.06.03 16:22:01.
