data_PCOD9518896
_publ_section_title
;
Structure prediction by ZEFSAII (Michael W. Deem and Ramdas Pophale) SiO2 
 PCOD9518896
Probable space group: I M M M
;
_chemical_formula_sum "Si O2"
_cell_formula_units_Z 120
_cell_length_a 21.736465
_cell_length_b 25.441623
_cell_length_c 12.563674
_cell_angle_alpha 90.000000
_cell_angle_beta 90.000000
_cell_angle_gamma 90.000000
_cell_volume 6947.849268
_symmetry_space_group_name_H-M "I M M M"
_symmetry_group_IT_number 71
_symmetry_cell_setting 'orthorhombic'
loop_
_space_group_symop_operation_xyz
x,y,z
-x,-y,z
x,-y,-z
-x,y,-z
-x,-y,-z
x,y,-z
-x,y,z
x,-y,z
1/2+x,1/2+y,1/2+z
1/2-x,1/2-y,1/2+z
1/2+x,1/2-y,1/2-z
1/2-x,1/2+y,1/2-z
1/2-x,1/2-y,1/2-z
1/2+x,1/2+y,1/2-z
1/2-x,1/2+y,1/2+z
1/2+x,1/2-y,1/2+z
loop_
_atom_site_type_symbol
_atom_site_label
_atom_site_fract_x
_atom_site_fract_y
_atom_site_fract_z
Si Si1 0.279808 0.308995 0.623128
Si Si2 0.072482 0.815392 0.377507
Si Si3 0.926806 0.000000 0.127967
Si Si4 0.843448 0.726948 0.283299
Si Si5 0.254868 0.563226 0.879540
Si Si6 0.139602 0.103108 0.774991
Si Si7 0.118675 0.558284 0.128339
Si Si8 0.430671 0.166692 0.623401
O O1 0.284751 0.294020 0.500000
O O2 0.207816 0.307882 0.656556
O O3 0.309328 0.266202 0.701642
O O4 0.319894 0.361580 0.643720
O O5 0.080949 0.833767 0.500000
O O6 0.115266 0.764374 0.358360
O O7 0.093712 0.858901 0.291222
O O8 0.000000 0.803500 0.363070
O O9 0.894876 0.947090 0.174391
O O10 0.000000 0.000000 0.153214
O O11 0.920337 0.000000 0.000000
O O12 0.887704 0.693490 0.208629
O O13 0.256848 0.500000 0.883821
O O14 0.309798 0.583353 0.808918
O O15 0.186874 0.575884 0.835884
O O16 0.260176 0.583948 0.000000
O O17 0.103882 0.500000 0.169005
O O18 0.071476 0.604515 0.147269
O O19 0.124075 0.553883 0.000000
O O20 0.409846 0.173720 0.500000
O O21 0.500000 0.186863 0.630479
#
# Coordination Sequence:
#
# PCOD9518896 Si02
#       8
#    16  16   8  16  16  16  16  16
#     4  10  21  35  54  78 100 128 170 221 269 312
#     4  10  21  36  54  77 106 139 175 215 261 316
#     4  11  24  40  55  73 103 143 181 216 258 310
#     4  10  20  35  54  74 103 135 169 214 269 320
#     4   9  16  28  48  74 103 132 164 204 251 304
#     4  11  20  35  55  78 104 135 174 217 260 312
#     4   8  15  27  43  67 101 136 167 203 249 299
#     4  10  19  30  47  73 104 138 175 211 252 311
#
# _framework density 17.271531
#
# number of rings (size 3 to 8) (size 9 to 14) (size 15 to 20)
#    0.000    2.200    0.667    4.000    0.000    0.267 
#    0.000    5.333    0.000    8.000    0.000    0.000 
#    0.000    0.000    0.000    7.600    0.000    0.800 
#
# Total GULP energy -334276.851708 kJ/mol
# GULP energy per Si atom -5571.280862 kJ/mol
# Density = 1.723222 g / cm^3
# Si number density = 17.271531 Si / 1000 Ang^3
#
#
#
# Elastic Constant Matrix: (Units=GPa)
#
#
# Indices 1 2 3 4 5 6 
#
# 1 90.8500 36.2698 29.6476 0.0000 0.0000 0.0000
# 2 36.2698 67.6646 17.6893 0.0000 0.0000 0.0000
# 3 29.6476 17.6893 56.3046 0.0000 0.0000 0.0000
# 4 0.0000 0.0000 0.0000 20.0735 0.0000 0.0000
# 5 0.0000 0.0000 0.0000 0.0000 26.2901 0.0000
# 6 0.0000 0.0000 0.0000 0.0000 0.0000 14.2473
#
#
#
# Elastic Compliance Matrix: (Units=1/GPa)
#
#
# Indices 1 2 3 4 5 6 
#
# 1 0.015738 -0.006831 -0.006141 0.000000 0.000000 0.000000
# 2 -0.006831 0.019066 -0.002393 0.000000 0.000000 0.000000
# 3 -0.006141 -0.002393 0.021746 0.000000 0.000000 0.000000
# 4 0.000000 0.000000 0.000000 0.049817 0.000000 0.000000
# 5 0.000000 0.000000 0.000000 0.000000 0.038037 0.000000
# 6 0.000000 0.000000 0.000000 0.000000 0.000000 0.070189
#
#
# Mechanical properties :
#
#
# Convention : Reuss Voigt Hill
#
# Bulk Modulus (GPa) = 38.72932 42.44805 40.58869
# Shear Modulus (GPa) = 19.69051 20.86967 20.28009
#
# Velocity S-wave (km/s) = 3.38013 3.47987 3.43037
# Velocity P-wave (km/s) = 6.14054 6.38563 6.26428
#
# Compressibility (1/GPa) = 0.02582023
#
# Stress axis : x y z
#
# Youngs Moduli (GPa) = 63.53987 52.44999 45.98536
#
# Poissons Ratio (x) = 0.35826 0.28240
# Poissons Ratio (y) = 0.43401 0.11005
# Poissons Ratio (z) = 0.39020 0.12553
#
# Static dielectric constant tensor:
#      x y z
#    x 1.602120 0.000000 0.000000 
#    y 0.000000 1.604800 0.000000 
#    z 0.000000 0.000000 1.562920 
# 
# From -- ./inp_files/26296.got.cif
#   From: 2010.05.17/outbox.cif.g08.bks.cpg/sg71_14_cif.got.tgz:26296.got - 2010.06.03 16:22:01.
