data_PCOD9518307
_publ_section_title
;
Structure prediction by ZEFSAII (Michael W. Deem and Ramdas Pophale) SiO2 
 PCOD9518307
Probable space group: I M M M
;
_chemical_formula_sum "Si O2"
_cell_formula_units_Z 72
_cell_length_a 13.770845
_cell_length_b 31.540047
_cell_length_c 8.361647
_cell_angle_alpha 90.000000
_cell_angle_beta 90.000000
_cell_angle_gamma 90.000000
_cell_volume 3631.740050
_symmetry_space_group_name_H-M "I M M M"
_symmetry_group_IT_number 71
_symmetry_cell_setting 'orthorhombic'
loop_
_space_group_symop_operation_xyz
x,y,z
-x,-y,z
x,-y,-z
-x,y,-z
-x,-y,-z
x,y,-z
-x,y,z
x,-y,z
1/2+x,1/2+y,1/2+z
1/2-x,1/2-y,1/2+z
1/2+x,1/2-y,1/2-z
1/2-x,1/2+y,1/2-z
1/2-x,1/2-y,1/2-z
1/2+x,1/2+y,1/2-z
1/2-x,1/2+y,1/2+z
1/2+x,1/2-y,1/2+z
loop_
_atom_site_type_symbol
_atom_site_label
_atom_site_fract_x
_atom_site_fract_y
_atom_site_fract_z
Si Si1 0.789532 0.415241 0.318422
Si Si2 0.117021 0.244228 0.324777
Si Si3 0.112219 0.665338 0.184326
Si Si4 0.387064 0.400816 0.500000
Si Si5 0.616141 0.700612 0.500000
Si Si6 0.888186 0.500000 0.191433
O O1 0.827853 0.408462 0.500000
O O2 0.819819 0.374391 0.218449
O O3 0.673763 0.417834 0.348133
O O4 0.834331 0.457962 0.250935
O O5 0.154912 0.231213 0.500000
O O6 0.130178 0.294230 0.295169
O O7 0.154162 0.220110 0.166677
O O8 0.000000 0.237294 0.328245
O O9 0.000000 0.651620 0.208414
O O10 0.120537 0.679410 0.000000
O O11 0.500000 0.410664 0.500000
O O12 0.372921 0.349932 0.500000
O O13 0.500000 0.709884 0.500000
O O14 0.000000 0.500000 0.247676
O O15 0.888734 0.500000 0.000000
#
# Coordination Sequence:
#
# PCOD9518307 Si02
#       6
#    16  16  16   8   8   8
#     4  10  22  37  60  90 118 157 206 247 292 366
#     4   9  16  27  50  82 116 160 209 252 308 377
#     4  10  18  31  53  85 128 167 194 239 309 379
#     4   9  22  43  64  81 112 160 211 270 325 349
#     4   9  16  34  57  80 113 159 214 267 319 371
#     4  11  23  41  65  98 138 168 181 217 297 383
#
# _framework density 19.825208
#
# number of rings (size 3 to 8) (size 9 to 14) (size 15 to 20)
#    0.667    1.667    1.111    2.333    0.000    4.889 
#    0.000    4.444    0.000    6.000    0.000    0.000 
#    0.000    0.000    0.000    0.000    0.000    0.000 
#
# Total GULP energy -200915.012797 kJ/mol
# GULP energy per Si atom -5580.972578 kJ/mol
# Density = 1.978009 g / cm^3
# Si number density = 19.825208 Si / 1000 Ang^3
#
#
#
# Elastic Constant Matrix: (Units=GPa)
#
#
# Indices 1 2 3 4 5 6 
#
# 1 135.7940 35.7753 30.5193 -0.0003 -0.0074 -0.0008
# 2 35.7753 42.4221 34.3423 0.0000 -0.0038 -0.0002
# 3 30.5193 34.3423 111.3393 0.0009 -0.0358 -0.0053
# 4 -0.0003 0.0000 0.0009 17.5645 0.0058 0.0004
# 5 -0.0074 -0.0038 -0.0358 0.0058 -20.3568 -0.0074
# 6 -0.0008 -0.0002 -0.0053 0.0004 -0.0074 9.3173
#
#
#
# Elastic Compliance Matrix: (Units=1/GPa)
#
#
# Indices 1 2 3 4 5 6 
#
# 1 0.009470 -0.007843 -0.000177 0.000000 -0.000002 0.000001
# 2 -0.007843 0.037914 -0.009544 0.000000 0.000013 -0.000005
# 3 -0.000177 -0.009544 0.011974 -0.000001 -0.000019 0.000007
# 4 0.000000 0.000000 -0.000001 0.056933 0.000016 -0.000003
# 5 -0.000002 0.000013 -0.000019 0.000016 -0.049124 -0.000039
# 6 0.000001 -0.000005 0.000007 -0.000003 -0.000039 0.107327
#
#
# Mechanical properties :
#
#
# Convention : Reuss Voigt Hill
#
# Bulk Modulus (GPa) = 41.27297 54.53659 47.90478
# Shear Modulus (GPa) = 22.96746 13.89957 18.43352
#
# Velocity S-wave (km/s) = 3.40736 2.65071 3.05257
# Velocity P-wave (km/s) = 6.02858 6.07757 6.05312
#
# Compressibility (1/GPa) = 0.02422893
#
# Stress axis : x y z
#
# Youngs Moduli (GPa) = 105.59498 26.37571 83.51491
#
# Poissons Ratio (x) = 0.20687 0.01475
# Poissons Ratio (y) = 0.82822 0.79710
# Poissons Ratio (z) = 0.01865 0.25174
#
# Static dielectric constant tensor:
#      x y z
#    x 1.728660 0.000000 0.000000 
#    y 0.000000 1.646620 0.000000 
#    z 0.000000 0.000000 1.718230 
# 
# From -- ./inp_files/6581.got.cif
#   From: 2010.05.17/outbox.cif.g08.bks.cpg/sg71_4_cif.got.tgz:6581.got - 2010.06.03 16:22:01.
