data_PCOD9518277
_publ_section_title
;
Structure prediction by ZEFSAII (Michael W. Deem and Ramdas Pophale) SiO2 
 PCOD9518277
Probable space group: I M M M
;
_chemical_formula_sum "Si O2"
_cell_formula_units_Z 104
_cell_length_a 17.311775
_cell_length_b 28.368201
_cell_length_c 11.813405
_cell_angle_alpha 90.000000
_cell_angle_beta 90.000000
_cell_angle_gamma 90.000000
_cell_volume 5801.609420
_symmetry_space_group_name_H-M "I M M M"
_symmetry_group_IT_number 71
_symmetry_cell_setting 'orthorhombic'
loop_
_space_group_symop_operation_xyz
x,y,z
-x,-y,z
x,-y,-z
-x,y,-z
-x,-y,-z
x,y,-z
-x,y,z
x,-y,z
1/2+x,1/2+y,1/2+z
1/2-x,1/2-y,1/2+z
1/2+x,1/2-y,1/2-z
1/2-x,1/2+y,1/2-z
1/2-x,1/2-y,1/2-z
1/2+x,1/2+y,1/2-z
1/2-x,1/2+y,1/2+z
1/2+x,1/2-y,1/2+z
loop_
_atom_site_type_symbol
_atom_site_label
_atom_site_fract_x
_atom_site_fract_y
_atom_site_fract_z
Si Si1 0.649709 0.612544 0.634591
Si Si2 0.092621 0.844531 0.500000
Si Si3 0.593880 0.792133 0.371260
Si Si4 0.000000 0.946261 0.862047
Si Si5 0.594033 0.701597 0.237049
Si Si6 0.266346 0.947127 0.731031
Si Si7 0.409697 0.900326 0.365136
Si Si8 0.167951 0.947339 0.500000
O O1 0.652637 0.610508 0.500000
O O2 0.576853 0.580698 0.675154
O O3 0.630568 0.664611 0.676203
O O4 0.725717 0.590431 0.688369
O O5 0.117752 0.816348 0.387387
O O6 0.119028 0.899074 0.500000
O O7 0.000000 0.844591 0.500000
O O8 0.618838 0.779771 0.500000
O O9 0.500000 0.792415 0.373667
O O10 0.617154 0.753716 0.278329
O O11 0.616464 0.846012 0.347195
O O12 0.000000 0.000000 0.822949
O O13 0.000000 0.946242 0.000000
O O14 0.500000 0.698793 0.243617
O O15 0.354165 0.934128 0.703936
O O16 0.221037 0.945392 0.611557
O O17 0.258367 0.000000 0.777372
O O18 0.402776 0.909447 0.500000
O O19 0.500000 0.904551 0.335890
O O20 0.129669 0.000000 0.500000
#
# Coordination Sequence:
#
# PCOD9518277 Si02
#       8
#    16   8  16   8  16  16  16   8
#     4  11  21  33  53  78 108 147 188 229 264 309
#     4  10  20  33  50  75 109 154 191 217 253 310
#     4   8  15  29  53  82 107 134 171 221 276 320
#     4   9  18  32  48  71 101 137 185 230 260 288
#     4  10  18  31  52  78 110 145 183 223 263 313
#     4  11  22  36  55  78 110 144 175 220 279 330
#     4   9  18  35  60  87 109 132 173 227 279 334
#     4  10  20  35  51  72 104 147 183 215 269 321
#
# _framework density 17.926058999999999
#
# number of rings (size 3 to 8) (size 9 to 14) (size 15 to 20)
#    0.000    2.231    3.077    1.846    0.000    2.000 
#    0.000    1.538    1.692    0.462    0.000    1.077 
#    0.000    0.000    0.000    0.000    0.000    0.000 
#
# Total GULP energy -289992.758349 kJ/mol
# GULP energy per Si atom -5576.783814 kJ/mol
# Density = 1.788526 g / cm^3
# Si number density = 17.926059 Si / 1000 Ang^3
#
#
#
# Elastic Constant Matrix: (Units=GPa)
#
#
# Indices 1 2 3 4 5 6 
#
# 1 37.0835 -4.1697 8.9586 0.0000 0.0000 0.0000
# 2 -4.1697 6.2402 2.4108 0.0000 -0.0001 0.0000
# 3 8.9586 2.4108 55.3733 0.0005 -0.0001 -0.0002
# 4 0.0000 0.0000 0.0005 18.6366 -0.0001 -0.0001
# 5 0.0000 -0.0001 -0.0001 -0.0001 15.2720 0.0000
# 6 0.0000 0.0000 -0.0002 -0.0001 0.0000 17.7125
#
#
#
# Elastic Compliance Matrix: (Units=1/GPa)
#
#
# Indices 1 2 3 4 5 6 
#
# 1 0.031012 0.023048 -0.006021 0.000000 0.000000 0.000000
# 2 0.023048 0.180121 -0.011571 0.000001 0.000001 0.000000
# 3 -0.006021 -0.011571 0.019537 -0.000001 0.000000 0.000000
# 4 0.000000 0.000001 -0.000001 0.053658 0.000000 0.000000
# 5 0.000000 0.000001 0.000000 0.000000 0.065479 0.000000
# 6 0.000000 0.000000 0.000000 0.000000 0.000000 0.056457
#
#
# Mechanical properties :
#
#
# Convention : Reuss Voigt Hill
#
# Bulk Modulus (GPa) = 4.13935 12.56626 8.35280
# Shear Modulus (GPa) = 10.50686 16.42404 13.46545
#
# Velocity S-wave (km/s) = 2.42362 3.03018 2.74371
# Velocity P-wave (km/s) = 3.18529 4.38952 3.83497
#
# Compressibility (1/GPa) = 0.24158411
#
# Stress axis : x y z
#
# Youngs Moduli (GPa) = 32.24531 5.55181 51.18470
#
# Poissons Ratio (x) = -0.12796 0.30817
# Poissons Ratio (y) = -0.74320 0.59225
# Poissons Ratio (z) = 0.19414 0.06424
#
# Static dielectric constant tensor:
#      x y z
#    x 1.610640 0.000000 0.000000 
#    y 0.000000 1.618770 0.000000 
#    z 0.000000 0.000000 1.600990 
# 
# From -- ./inp_files/24590.got.cif
#   From: 2010.05.17/outbox.cif.g08.bks.cpg/sg71_13_cif.got.tgz:24590.got - 2010.06.03 16:22:01.
