data_PCOD9518421
_publ_section_title
;
Structure prediction by ZEFSAII (Michael W. Deem and Ramdas Pophale) SiO2 
 PCOD9518421
Probable space group: I M M M
;
_chemical_formula_sum "Si O2"
_cell_formula_units_Z 88
_cell_length_a 28.591697
_cell_length_b 8.155403
_cell_length_c 20.151620
_cell_angle_alpha 90.000000
_cell_angle_beta 90.000000
_cell_angle_gamma 90.000000
_cell_volume 4698.890498
_symmetry_space_group_name_H-M "I M M M"
_symmetry_group_IT_number 71
_symmetry_cell_setting 'orthorhombic'
loop_
_space_group_symop_operation_xyz
x,y,z
-x,-y,z
x,-y,-z
-x,y,-z
-x,-y,-z
x,y,-z
-x,y,z
x,-y,z
1/2+x,1/2+y,1/2+z
1/2-x,1/2-y,1/2+z
1/2+x,1/2-y,1/2-z
1/2-x,1/2+y,1/2-z
1/2-x,1/2-y,1/2-z
1/2+x,1/2+y,1/2-z
1/2-x,1/2+y,1/2+z
1/2+x,1/2-y,1/2+z
loop_
_atom_site_type_symbol
_atom_site_label
_atom_site_fract_x
_atom_site_fract_y
_atom_site_fract_z
Si Si1 0.373286 0.197850 0.925320
Si Si2 0.813108 0.695160 0.188881
Si Si3 0.585118 0.303122 0.669571
Si Si4 0.500000 0.700911 0.423480
Si Si5 0.711886 0.801989 0.162363
Si Si6 0.053404 0.198107 0.684893
O O1 0.324257 0.254211 0.893439
O O2 0.413824 0.246412 0.874658
O O3 0.371875 0.000000 0.927492
O O4 0.380364 0.259155 0.000000
O O5 0.815995 0.500000 0.191329
O O6 0.860989 0.759194 0.157540
O O7 0.764982 0.745085 0.153607
O O8 0.806727 0.756262 0.265280
O O9 0.581516 0.500000 0.670741
O O10 0.546380 0.245608 0.616752
O O11 0.572030 0.242480 0.743580
O O12 0.500000 0.500000 0.423495
O O13 0.500000 0.753922 0.500000
O O14 0.711911 0.000000 0.163830
O O15 0.000000 0.252476 0.676034
O O16 0.053754 0.000000 0.686678
#
# Coordination Sequence:
#
# PCOD9518421 Si02
#       6
#    16  16  16   8  16  16
#     4  10  21  37  55  76 106 142 179 221 266 312
#     4  10  19  31  52  80 105 133 172 218 264 310
#     4  10  18  32  55  81 107 137 175 219 263 309
#     4   9  18  34  57  83 108 137 176 218 261 313
#     4   9  18  33  51  75 104 134 172 217 263 310
#     4  10  20  34  53  78 107 139 178 220 262 312
#
# _framework density 18.727827000000001
#
# number of rings (size 3 to 8) (size 9 to 14) (size 15 to 20)
#    0.000    2.273    2.727    0.545    0.000    2.545 
#    0.000    3.182    0.000    6.545    0.000    0.000 
#    0.000    0.000    0.000    0.000    0.000    0.000 
#
# Total GULP energy -245497.679135 kJ/mol
# GULP energy per Si atom -5579.492708 kJ/mol
# Density = 1.868520 g / cm^3
# Si number density = 18.727827 Si / 1000 Ang^3
#
#
#
# Elastic Constant Matrix: (Units=GPa)
#
#
# Indices 1 2 3 4 5 6 
#
# 1 184.7045 8.7308 82.5324 0.0000 0.0000 0.0000
# 2 8.7308 6.3694 10.5381 0.0000 0.0000 0.0000
# 3 82.5324 10.5381 116.4477 0.0000 0.0000 0.0000
# 4 0.0000 0.0000 0.0000 14.8495 0.0000 0.0000
# 5 0.0000 0.0000 0.0000 0.0000 25.9984 0.0000
# 6 0.0000 0.0000 0.0000 0.0000 0.0000 26.8443
#
#
#
# Elastic Compliance Matrix: (Units=1/GPa)
#
#
# Indices 1 2 3 4 5 6 
#
# 1 0.007942 -0.001850 -0.005461 0.000000 0.000000 0.000000
# 2 -0.001850 0.185077 -0.015437 0.000000 0.000000 0.000000
# 3 -0.005461 -0.015437 0.013855 0.000000 0.000000 0.000000
# 4 0.000000 0.000000 0.000000 0.067342 0.000000 0.000000
# 5 0.000000 0.000000 0.000000 0.000000 0.038464 0.000000
# 6 0.000000 0.000000 0.000000 0.000000 0.000000 0.037252
#
#
# Mechanical properties :
#
#
# Convention : Reuss Voigt Hill
#
# Bulk Modulus (GPa) = 6.19672 56.79159 31.49415
# Shear Modulus (GPa) = 11.13036 27.25313 19.19175
#
# Velocity S-wave (km/s) = 2.44052 3.81887 3.20468
# Velocity P-wave (km/s) = 3.35522 7.05943 5.52689
#
# Compressibility (1/GPa) = 0.16137569
#
# Stress axis : x y z
#
# Youngs Moduli (GPa) = 125.91555 5.40317 72.17471
#
# Poissons Ratio (x) = 0.01000 0.39417
# Poissons Ratio (y) = 0.23300 1.11418
# Poissons Ratio (z) = 0.68767 0.08341
#
# Static dielectric constant tensor:
#      x y z
#    x 1.637310 0.000000 0.000000 
#    y 0.000000 1.670260 0.000000 
#    z 0.000000 0.000000 1.642540 
# 
# From -- ./inp_files/10378.got.cif
#   From: 2010.05.17/outbox.cif.g08.bks.cpg/sg71_6_cif.got.tgz:10378.got - 2010.06.03 16:22:01.
