data_PCOD9518881
_publ_section_title
;
Structure prediction by ZEFSAII (Michael W. Deem and Ramdas Pophale) SiO2 
 PCOD9518881
Probable space group: I M M M
;
_chemical_formula_sum "Si O2"
_cell_formula_units_Z 104
_cell_length_a 21.347897
_cell_length_b 9.506303
_cell_length_c 23.195603
_cell_angle_alpha 90.000000
_cell_angle_beta 90.000000
_cell_angle_gamma 90.000000
_cell_volume 4707.305868
_symmetry_space_group_name_H-M "I M M M"
_symmetry_group_IT_number 71
_symmetry_cell_setting 'orthorhombic'
loop_
_space_group_symop_operation_xyz
x,y,z
-x,-y,z
x,-y,-z
-x,y,-z
-x,-y,-z
x,y,-z
-x,y,z
x,-y,z
1/2+x,1/2+y,1/2+z
1/2-x,1/2-y,1/2+z
1/2+x,1/2-y,1/2-z
1/2-x,1/2+y,1/2-z
1/2-x,1/2-y,1/2-z
1/2+x,1/2+y,1/2-z
1/2-x,1/2+y,1/2+z
1/2+x,1/2-y,1/2+z
loop_
_atom_site_type_symbol
_atom_site_label
_atom_site_fract_x
_atom_site_fract_y
_atom_site_fract_z
Si Si1 0.598101 0.161337 0.935155
Si Si2 0.928181 0.850167 0.795270
Si Si3 0.076377 0.159653 0.000000
Si Si4 0.076629 0.344004 0.891894
Si Si5 0.892163 0.837291 0.667021
Si Si6 0.266580 0.829034 0.809882
Si Si7 0.749339 0.665255 0.436716
O O1 0.575121 0.273672 0.888892
O O2 0.674321 0.173514 0.937846
O O3 0.583834 0.000000 0.918377
O O4 0.575311 0.184467 0.000000
O O5 0.903353 0.719161 0.830617
O O6 0.928534 0.835999 0.727092
O O7 0.000000 0.861302 0.814749
O O8 0.896047 0.000000 0.809210
O O9 0.096130 0.239435 0.942430
O O10 0.000000 0.159601 0.000000
O O11 0.097161 0.000000 0.000000
O O12 0.100788 0.500000 0.901611
O O13 0.000000 0.352592 0.894103
O O14 0.836122 0.729168 0.679355
O O15 0.872223 0.000000 0.657222
O O16 0.250000 0.750000 0.750000
O O17 0.232609 0.787076 0.871122
O O18 0.263687 0.000000 0.803999
O O19 0.728965 0.724859 0.500000
O O20 0.733399 0.500000 0.437618
#
# Coordination Sequence:
#
# PCOD9518881 Si02
#       7
#    16  16   8  16  16  16  16
#     4   8  14  26  44  65  91 122 154 191 236 282
#     4   9  18  32  47  64  90 124 159 195 238 288
#     4   9  15  23  37  57  83 113 141 175 225 279
#     4   9  16  25  39  61  86 110 142 186 231 273
#     4  10  19  30  47  71  96 123 158 198 240 285
#     4  10  19  31  48  71 100 129 158 194 238 288
#     4   7  11  22  41  64  88 116 150 185 223 269
#
# _framework density 22.093316999999999
#
# number of rings (size 3 to 8) (size 9 to 14) (size 15 to 20)
#    0.000    3.154    0.000    3.462    0.000    4.308 
#    0.000    0.000    0.000    1.846    2.000    3.231 
#    0.000    0.000    0.000    0.000    0.000    0.000 
#
# Total GULP energy -289593.578800 kJ/mol
# GULP energy per Si atom -5569.107285 kJ/mol
# Density = 2.204303 g / cm^3
# Si number density = 22.093317 Si / 1000 Ang^3
#
#
#
# Elastic Constant Matrix: (Units=GPa)
#
#
# Indices 1 2 3 4 5 6 
#
# 1 51.2544 4.1677 4.1176 0.0000 0.0000 0.0000
# 2 4.1677 148.8391 93.7262 0.0000 0.0000 0.0000
# 3 4.1176 93.7262 180.9432 0.0000 0.0000 0.0000
# 4 0.0000 0.0000 0.0000 42.7702 0.0000 0.0000
# 5 0.0000 0.0000 0.0000 0.0000 19.0067 0.0000
# 6 0.0000 0.0000 0.0000 0.0000 0.0000 0.9283
#
#
#
# Elastic Compliance Matrix: (Units=1/GPa)
#
#
# Indices 1 2 3 4 5 6 
#
# 1 0.019562 -0.000397 -0.000240 0.000000 0.000000 0.000000
# 2 -0.000397 0.009979 -0.005160 0.000000 0.000000 0.000000
# 3 -0.000240 -0.005160 0.008205 0.000000 0.000000 0.000000
# 4 0.000000 0.000000 0.000000 0.023381 0.000000 0.000000
# 5 0.000000 0.000000 0.000000 0.000000 0.052613 0.000000
# 6 0.000000 0.000000 0.000000 0.000000 0.000000 1.077183
#
#
# Mechanical properties :
#
#
# Convention : Reuss Voigt Hill
#
# Bulk Modulus (GPa) = 38.23646 65.00663 51.62155
# Shear Modulus (GPa) = 4.12802 31.14275 17.63539
#
# Velocity S-wave (km/s) = 1.36840 3.75854 2.82835
# Velocity P-wave (km/s) = 4.45433 6.95148 5.83798
#
# Compressibility (1/GPa) = 0.02615305
#
# Stress axis : x y z
#
# Youngs Moduli (GPa) = 51.11940 100.20928 121.87892
#
# Poissons Ratio (x) = 0.03977 0.02920
# Poissons Ratio (y) = 0.02029 0.62890
# Poissons Ratio (z) = 0.01225 0.51708
#
# Static dielectric constant tensor:
#      x y z
#    x 1.902660 0.000000 0.000000 
#    y 0.000000 1.783390 0.000000 
#    z 0.000000 0.000000 1.876960 
# 
# From -- ./inp_files/62320.got.cif
#   From: 2010.05.17/outbox.cif.g08.bks.cpg/sg71_32_cif.got.tgz:62320.got - 2010.06.03 16:22:01.
