data_PCOD9518859
_publ_section_title
;
Structure prediction by ZEFSAII (Michael W. Deem and Ramdas Pophale) SiO2 
 PCOD9518859
Probable space group: I M M M
;
_chemical_formula_sum "Si O2"
_cell_formula_units_Z 128
_cell_length_a 18.290396
_cell_length_b 22.092146
_cell_length_c 18.874264
_cell_angle_alpha 90.000000
_cell_angle_beta 90.000000
_cell_angle_gamma 90.000000
_cell_volume 7626.601217
_symmetry_space_group_name_H-M "I M M M"
_symmetry_group_IT_number 71
_symmetry_cell_setting 'orthorhombic'
loop_
_space_group_symop_operation_xyz
x,y,z
-x,-y,z
x,-y,-z
-x,y,-z
-x,-y,-z
x,y,-z
-x,y,z
x,-y,z
1/2+x,1/2+y,1/2+z
1/2-x,1/2-y,1/2+z
1/2+x,1/2-y,1/2-z
1/2-x,1/2+y,1/2-z
1/2-x,1/2-y,1/2-z
1/2+x,1/2+y,1/2-z
1/2-x,1/2+y,1/2+z
1/2+x,1/2-y,1/2+z
loop_
_atom_site_type_symbol
_atom_site_label
_atom_site_fract_x
_atom_site_fract_y
_atom_site_fract_z
Si Si1 0.582796 0.830473 0.807706
Si Si2 0.226643 0.866906 0.078791
Si Si3 0.378741 0.070103 0.919776
Si Si4 0.412647 0.264586 0.075664
Si Si5 0.087228 0.092037 0.579720
Si Si6 0.236186 0.680340 0.269525
Si Si7 0.917567 0.929172 0.131875
Si Si8 0.165724 0.932653 0.723772
O O1 0.500000 0.823025 0.780765
O O2 0.585435 0.886505 0.862216
O O3 0.606509 0.772959 0.855614
O O4 0.651029 0.836052 0.755633
O O5 0.291400 0.917076 0.082555
O O6 0.244288 0.825976 0.146703
O O7 0.146903 0.895207 0.090966
O O8 0.230583 0.839718 0.000000
O O9 0.393665 0.000000 0.906510
O O10 0.403045 0.085066 0.000000
O O11 0.500000 0.257114 0.071785
O O12 0.399335 0.335615 0.081748
O O13 0.381878 0.242331 0.000000
O O14 0.107216 0.071543 0.500000
O O15 0.130376 0.066643 0.646203
O O16 0.000000 0.081873 0.587762
O O17 0.250000 0.750000 0.250000
O O18 0.283154 0.626342 0.233316
O O19 0.895928 0.925623 0.215136
O O20 0.000000 0.906439 0.120183
O O21 0.915689 0.000000 0.112300
O O22 0.199859 0.000000 0.736876
#
# Coordination Sequence:
#
# PCOD9518859 Si02
#       8
#    16  16  16  16  16  16  16  16
#     4  10  19  30  47  68  90 119 158 204 244 280
#     4   9  18  32  49  68  93 126 165 209 252 290
#     4   9  17  28  42  63  94 130 162 193 238 295
#     4   8  14  25  41  64  94 123 151 187 235 285
#     4   9  17  29  48  75 104 133 165 201 240 286
#     4  10  21  37  54  72  96 129 169 203 241 300
#     4   9  17  28  44  68  98 135 175 208 240 283
#     4  10  20  34  50  68  98 136 168 202 247 299
#
# _framework density 16.783360999999999
#
# number of rings (size 3 to 8) (size 9 to 14) (size 15 to 20)
#    0.000    2.750    0.000    2.625    0.000    6.500 
#    0.000    5.000    0.000    0.000    0.000    0.000 
#    0.000    1.500    0.000    1.125    0.000    0.000 
#
# Total GULP energy -356361.965777 kJ/mol
# GULP energy per Si atom -5568.155715 kJ/mol
# Density = 1.674516 g / cm^3
# Si number density = 16.783361 Si / 1000 Ang^3
#
#
#
# Elastic Constant Matrix: (Units=GPa)
#
#
# Indices 1 2 3 4 5 6 
#
# 1 103.3257 28.6163 18.8013 0.0000 0.0000 0.0000
# 2 28.6163 78.9943 24.5592 0.0000 0.0000 0.0000
# 3 18.8013 24.5592 72.3881 0.0000 0.0000 0.0000
# 4 0.0000 0.0000 0.0000 21.6875 0.0000 0.0000
# 5 0.0000 0.0000 0.0000 0.0000 12.8174 0.0000
# 6 0.0000 0.0000 0.0000 0.0000 0.0000 16.6642
#
#
#
# Elastic Compliance Matrix: (Units=1/GPa)
#
#
# Indices 1 2 3 4 5 6 
#
# 1 0.010936 -0.003441 -0.001673 0.000000 0.000000 0.000000
# 2 -0.003441 0.015235 -0.004275 0.000000 0.000000 0.000000
# 3 -0.001673 -0.004275 0.015699 0.000000 0.000000 0.000000
# 4 0.000000 0.000000 0.000000 0.046110 0.000000 0.000000
# 5 0.000000 0.000000 0.000000 0.000000 0.078019 0.000000
# 6 0.000000 0.000000 0.000000 0.000000 0.000000 0.060009
#
#
# Mechanical properties :
#
#
# Convention : Reuss Voigt Hill
#
# Bulk Modulus (GPa) = 43.30585 44.29575 43.80080
# Shear Modulus (GPa) = 19.80336 22.41590 21.10963
#
# Velocity S-wave (km/s) = 3.43875 3.65855 3.55035
# Velocity P-wave (km/s) = 6.45179 6.65557 6.55447
#
# Compressibility (1/GPa) = 0.02309157
#
# Stress axis : x y z
#
# Youngs Moduli (GPa) = 91.44417 65.63868 63.69734
#
# Poissons Ratio (x) = 0.22589 0.10655
# Poissons Ratio (y) = 0.31470 0.27230
# Poissons Ratio (z) = 0.15296 0.28060
#
# Static dielectric constant tensor:
#      x y z
#    x 1.582210 0.000000 0.000000 
#    y 0.000000 1.598840 0.000000 
#    z 0.000000 0.000000 1.586750 
# 
# From -- ./inp_files/46661.got.cif
#   From: 2010.05.17/outbox.cif.g08.bks.cpg/sg71_24_cif.got.tgz:46661.got - 2010.06.03 16:22:01.
