data_PCOD9518834
_publ_section_title
;
Structure prediction by ZEFSAII (Michael W. Deem and Ramdas Pophale) SiO2 
 PCOD9518834
Probable space group: I M M M
;
_chemical_formula_sum "Si O2"
_cell_formula_units_Z 88
_cell_length_a 24.970682
_cell_length_b 21.095316
_cell_length_c 9.126451
_cell_angle_alpha 90.000000
_cell_angle_beta 90.000000
_cell_angle_gamma 90.000000
_cell_volume 4807.489736
_symmetry_space_group_name_H-M "I M M M"
_symmetry_group_IT_number 71
_symmetry_cell_setting 'orthorhombic'
loop_
_space_group_symop_operation_xyz
x,y,z
-x,-y,z
x,-y,-z
-x,y,-z
-x,-y,-z
x,y,-z
-x,y,z
x,-y,z
1/2+x,1/2+y,1/2+z
1/2-x,1/2-y,1/2+z
1/2+x,1/2-y,1/2-z
1/2-x,1/2+y,1/2-z
1/2-x,1/2-y,1/2-z
1/2+x,1/2+y,1/2-z
1/2-x,1/2+y,1/2+z
1/2+x,1/2-y,1/2+z
loop_
_atom_site_type_symbol
_atom_site_label
_atom_site_fract_x
_atom_site_fract_y
_atom_site_fract_z
Si Si1 0.713017 0.200472 0.167443
Si Si2 0.065351 0.000000 0.330691
Si Si3 0.435318 0.627651 0.332260
Si Si4 0.089498 0.257163 0.668791
Si Si5 0.832477 0.570949 0.676658
Si Si6 0.059500 0.615556 0.175370
O O1 0.750000 0.250000 0.250000
O O2 0.652517 0.226940 0.168492
O O3 0.705902 0.128564 0.226405
O O4 0.732009 0.196186 0.000000
O O5 0.082965 0.936685 0.246819
O O6 0.082143 0.000000 0.500000
O O7 0.000000 0.000000 0.329712
O O8 0.416129 0.631197 0.500000
O O9 0.500000 0.625659 0.336086
O O10 0.419673 0.689386 0.241173
O O11 0.070736 0.258487 0.500000
O O12 0.062469 0.312723 0.763133
O O13 0.838648 0.578022 0.500000
O O14 0.812815 0.500000 0.707328
O O15 0.890817 0.580346 0.748924
O O16 0.000000 0.589778 0.208735
O O17 0.066320 0.615358 0.000000
#
# Coordination Sequence:
#
# PCOD9518834 Si02
#       6
#    16   8  16  16  16  16
#     4   9  19  35  56  79 100 127 166 213 263 312
#     4   9  17  29  45  65  91 129 171 205 245 299
#     4  10  19  30  46  70 100 132 168 210 254 302
#     4  10  20  33  50  73  99 131 172 213 256 307
#     4   9  19  36  56  78 105 138 176 215 256 308
#     4  10  20  32  47  73 109 143 175 212 253 298
#
# _framework density 18.304770000000001
#
# number of rings (size 3 to 8) (size 9 to 14) (size 15 to 20)
#    0.000    2.455    0.000    3.545    0.000   10.182 
#    0.000    1.818    2.000    0.000    0.000    0.000 
#    0.000    0.000    0.000    0.000    0.000    0.000 
#
# Total GULP energy -245383.773251 kJ/mol
# GULP energy per Si atom -5576.903938 kJ/mol
# Density = 1.826311 g / cm^3
# Si number density = 18.304770 Si / 1000 Ang^3
#
#
#
# Elastic Constant Matrix: (Units=GPa)
#
#
# Indices 1 2 3 4 5 6 
#
# 1 42.6639 25.8465 15.9188 0.0000 0.0000 0.0000
# 2 25.8465 143.9925 38.2492 0.0000 0.0000 0.0000
# 3 15.9188 38.2492 65.0801 0.0000 0.0000 0.0000
# 4 0.0000 0.0000 0.0000 27.9554 0.0000 0.0000
# 5 0.0000 0.0000 0.0000 0.0000 26.1708 0.0000
# 6 0.0000 0.0000 0.0000 0.0000 0.0000 5.9784
#
#
#
# Elastic Compliance Matrix: (Units=1/GPa)
#
#
# Indices 1 2 3 4 5 6 
#
# 1 0.027373 -0.003715 -0.004512 0.000000 0.000000 0.000000
# 2 -0.003715 0.008734 -0.004224 0.000000 0.000000 0.000000
# 3 -0.004512 -0.004224 0.018952 0.000000 0.000000 0.000000
# 4 0.000000 0.000000 0.000000 0.035771 0.000000 0.000000
# 5 0.000000 0.000000 0.000000 0.000000 0.038211 0.000000
# 6 0.000000 0.000000 0.000000 0.000000 0.000000 0.167268
#
#
# Mechanical properties :
#
#
# Convention : Reuss Voigt Hill
#
# Bulk Modulus (GPa) = 33.16077 45.75173 39.45625
# Shear Modulus (GPa) = 15.09368 23.46904 19.28136
#
# Velocity S-wave (km/s) = 2.87466 3.58456 3.24906
# Velocity P-wave (km/s) = 5.40125 6.49468 5.97304
#
# Compressibility (1/GPa) = 0.03015612
#
# Stress axis : x y z
#
# Youngs Moduli (GPa) = 36.53211 114.49825 52.76445
#
# Poissons Ratio (x) = 0.42535 0.23809
# Poissons Ratio (y) = 0.13571 0.22290
# Poissons Ratio (z) = 0.16484 0.48368
#
# Static dielectric constant tensor:
#      x y z
#    x 1.619960 0.000000 0.000000 
#    y 0.000000 1.640500 0.000000 
#    z 0.000000 0.000000 1.625360 
# 
# From -- ./inp_files/12511.got.cif
#   From: 2010.05.17/outbox.cif.g08.bks.cpg/sg71_7_cif.got.tgz:12511.got - 2010.06.03 16:22:01.
