data_PCOD9518846
_publ_section_title
;
Structure prediction by ZEFSAII (Michael W. Deem and Ramdas Pophale) SiO2 
 PCOD9518846
Probable space group: I M M M
;
_chemical_formula_sum "Si O2"
_cell_formula_units_Z 88
_cell_length_a 13.724624
_cell_length_b 27.478464
_cell_length_c 13.946119
_cell_angle_alpha 90.000000
_cell_angle_beta 90.000000
_cell_angle_gamma 90.000000
_cell_volume 5259.521984
_symmetry_space_group_name_H-M "I M M M"
_symmetry_group_IT_number 71
_symmetry_cell_setting 'orthorhombic'
loop_
_space_group_symop_operation_xyz
x,y,z
-x,-y,z
x,-y,-z
-x,y,-z
-x,-y,-z
x,y,-z
-x,y,z
x,-y,z
1/2+x,1/2+y,1/2+z
1/2-x,1/2-y,1/2+z
1/2+x,1/2-y,1/2-z
1/2-x,1/2+y,1/2-z
1/2-x,1/2-y,1/2-z
1/2+x,1/2+y,1/2-z
1/2-x,1/2+y,1/2+z
1/2+x,1/2-y,1/2+z
loop_
_atom_site_type_symbol
_atom_site_label
_atom_site_fract_x
_atom_site_fract_y
_atom_site_fract_z
Si Si1 0.617899 0.000000 0.108364
Si Si2 0.740346 0.233115 0.386711
Si Si3 0.106804 0.850762 0.616075
Si Si4 0.886059 0.414692 0.753017
Si Si5 0.784780 0.945036 0.384810
Si Si6 0.613746 0.200519 0.781323
O O1 0.643866 0.048553 0.167581
O O2 0.500000 0.000000 0.103145
O O3 0.655866 0.000000 0.000000
O O4 0.719061 0.232464 0.500000
O O5 0.809209 0.187159 0.359795
O O6 0.647067 0.226279 0.318376
O O7 0.808912 0.278500 0.357863
O O8 0.102838 0.850589 0.500000
O O9 0.137135 0.904783 0.646621
O O10 0.000000 0.836925 0.652262
O O11 0.818013 0.428525 0.841667
O O12 0.876209 0.357803 0.728039
O O13 0.000000 0.423718 0.774083
O O14 0.780564 0.944040 0.500000
O O15 0.807521 0.000000 0.354616
O O16 0.500000 0.210900 0.803902
#
# Coordination Sequence:
#
# PCOD9518846 Si02
#       6
#     8  16  16  16  16  16
#     4   9  18  32  49  69  96 133 171 205 243 286
#     4  10  20  35  53  75 104 136 169 208 257 309
#     4   9  17  30  48  69  96 131 165 198 243 298
#     4  10  19  32  49  71 101 132 164 204 248 299
#     4  10  19  30  46  71 103 133 162 200 245 298
#     4  10  21  34  52  78 104 133 171 214 256 304
#
# _framework density 16.731559000000001
#
# number of rings (size 3 to 8) (size 9 to 14) (size 15 to 20)
#    0.000    2.273    2.727    0.545    0.000    2.909 
#    0.000    6.364    0.000    0.000    0.000    0.000 
#    0.000    1.455    0.000    0.000    0.000    0.000 
#
# Total GULP energy -245080.579362 kJ/mol
# GULP energy per Si atom -5570.013167 kJ/mol
# Density = 1.669348 g / cm^3
# Si number density = 16.731559 Si / 1000 Ang^3
#
#
#
# Elastic Constant Matrix: (Units=GPa)
#
#
# Indices 1 2 3 4 5 6 
#
# 1 30.8004 -0.6282 -0.2887 0.0000 0.0000 0.0000
# 2 -0.6282 61.7641 0.0452 0.0001 0.0000 0.0000
# 3 -0.2887 0.0452 37.6791 0.0001 0.0000 0.0000
# 4 0.0000 0.0001 0.0001 19.3866 0.0000 0.0000
# 5 0.0000 0.0000 0.0000 0.0000 13.0429 0.0000
# 6 0.0000 0.0000 0.0000 0.0000 0.0000 24.1174
#
#
#
# Elastic Compliance Matrix: (Units=1/GPa)
#
#
# Indices 1 2 3 4 5 6 
#
# 1 0.032476 0.000330 0.000248 0.000000 0.000000 0.000000
# 2 0.000330 0.016194 -0.000017 0.000000 0.000000 0.000000
# 3 0.000248 -0.000017 0.026542 0.000000 0.000000 0.000000
# 4 0.000000 0.000000 0.000000 0.051582 0.000000 0.000000
# 5 0.000000 0.000000 0.000000 0.000000 0.076670 0.000000
# 6 0.000000 0.000000 0.000000 0.000000 0.000000 0.041464
#
#
# Mechanical properties :
#
#
# Convention : Reuss Voigt Hill
#
# Bulk Modulus (GPa) = 13.10008 14.27779 13.68894
# Shear Modulus (GPa) = 18.57010 20.05038 19.31024
#
# Velocity S-wave (km/s) = 3.33511 3.46549 3.40092
# Velocity P-wave (km/s) = 4.76205 4.95628 4.86014
#
# Compressibility (1/GPa) = 0.07633541
#
# Stress axis : x y z
#
# Youngs Moduli (GPa) = 30.79179 61.75122 37.67639
#
# Poissons Ratio (x) = -0.02039 -0.00936
# Poissons Ratio (y) = -0.01017 0.00064
# Poissons Ratio (z) = -0.00765 0.00104
#
# Static dielectric constant tensor:
#      x y z
#    x 1.565120 0.000000 0.000000 
#    y 0.000000 1.594900 0.000000 
#    z 0.000000 0.000000 1.555830 
# 
# From -- ./inp_files/22312.got.cif
#   From: 2010.05.17/outbox.cif.g08.bks.cpg/sg71_12_cif.got.tgz:22312.got - 2010.06.03 16:22:01.
