data_PCOD9518414
_publ_section_title
;
Structure prediction by ZEFSAII (Michael W. Deem and Ramdas Pophale) SiO2 
 PCOD9518414
Probable space group: I M M M
;
_chemical_formula_sum "Si O2"
_cell_formula_units_Z 88
_cell_length_a 29.713911
_cell_length_b 7.579039
_cell_length_c 18.222276
_cell_angle_alpha 90.000000
_cell_angle_beta 90.000000
_cell_angle_gamma 90.000000
_cell_volume 4103.709223
_symmetry_space_group_name_H-M "I M M M"
_symmetry_group_IT_number 71
_symmetry_cell_setting 'orthorhombic'
loop_
_space_group_symop_operation_xyz
x,y,z
-x,-y,z
x,-y,-z
-x,y,-z
-x,-y,-z
x,y,-z
-x,y,z
x,-y,z
1/2+x,1/2+y,1/2+z
1/2-x,1/2-y,1/2+z
1/2+x,1/2-y,1/2-z
1/2-x,1/2+y,1/2-z
1/2-x,1/2-y,1/2-z
1/2+x,1/2+y,1/2-z
1/2-x,1/2+y,1/2+z
1/2+x,1/2-y,1/2+z
loop_
_atom_site_type_symbol
_atom_site_label
_atom_site_fract_x
_atom_site_fract_y
_atom_site_fract_z
Si Si1 0.570906 0.201973 0.500000
Si Si2 0.500000 0.783735 0.085045
Si Si3 0.052507 0.294907 0.159455
Si Si4 0.778360 0.212671 0.851587
Si Si5 0.417999 0.793170 0.812677
Si Si6 0.680700 0.292530 0.199612
Si Si7 0.673654 0.715130 0.500000
O O1 0.557336 0.284239 0.421834
O O2 0.624391 0.205737 0.500000
O O3 0.552803 0.000000 0.500000
O O4 0.544742 0.725604 0.129962
O O5 0.500000 0.000000 0.083294
O O6 0.500000 0.726345 0.000000
O O7 0.067742 0.500000 0.151458
O O8 0.077301 0.215914 0.230106
O O9 0.000000 0.294399 0.178901
O O10 0.726164 0.263284 0.846025
O O11 0.805788 0.280026 0.780424
O O12 0.780061 0.000000 0.848555
O O13 0.800571 0.270052 0.926855
O O14 0.365617 0.780103 0.832947
O O15 0.429175 0.000000 0.804788
O O16 0.673336 0.500000 0.206781
O O17 0.669981 0.500000 0.500000
#
# Coordination Sequence:
#
# PCOD9518414 Si02
#       7
#     8   8  16  16  16  16   8
#     4  10  19  28  46  76 106 136 169 205 248 297
#     4   9  18  34  55  78 100 128 173 221 255 293
#     4   9  16  28  47  73 103 135 172 211 246 287
#     4   9  19  36  55  75 101 136 175 210 248 299
#     4  10  18  32  55  77 100 133 174 214 253 302
#     4  10  20  34  54  79 106 134 166 209 259 310
#     4  10  20  35  53  73 102 135 169 210 250 295
#
# _framework density 21.444016000000001
#
# number of rings (size 3 to 8) (size 9 to 14) (size 15 to 20)
#    0.000    2.455    0.909    1.909    0.000    2.545 
#    1.636    0.455    0.000    2.727    0.000    0.000 
#    0.000    0.000    0.000    0.000    0.000    0.000 
#
# Total GULP energy -245497.750510 kJ/mol
# GULP energy per Si atom -5579.494330 kJ/mol
# Density = 2.139521 g / cm^3
# Si number density = 21.444016 Si / 1000 Ang^3
#
#
#
# Elastic Constant Matrix: (Units=GPa)
#
#
# Indices 1 2 3 4 5 6 
#
# 1 149.6743 -2.1150 55.8887 0.0000 0.0000 0.0000
# 2 -2.1150 49.5727 9.5384 0.0000 0.0000 0.0000
# 3 55.8887 9.5384 77.5441 0.0000 0.0000 0.0000
# 4 0.0000 0.0000 0.0000 -2.4149 0.0000 0.0000
# 5 0.0000 0.0000 0.0000 0.0000 20.2088 0.0000
# 6 0.0000 0.0000 0.0000 0.0000 0.0000 4.7745
#
#
#
# Elastic Compliance Matrix: (Units=1/GPa)
#
#
# Indices 1 2 3 4 5 6 
#
# 1 0.009283 0.001724 -0.006903 0.000000 0.000000 0.000000
# 2 0.001724 0.020982 -0.003824 0.000000 0.000000 0.000000
# 3 -0.006903 -0.003824 0.018341 0.000000 0.000000 0.000000
# 4 0.000000 0.000000 0.000000 -0.414099 0.000000 0.000000
# 5 0.000000 0.000000 0.000000 0.000000 0.049483 0.000000
# 6 0.000000 0.000000 0.000000 0.000000 0.000000 0.209444
#
#
# Mechanical properties :
#
#
# Convention : Reuss Voigt Hill
#
# Bulk Modulus (GPa) = 32.67783 44.82394 38.75088
# Shear Modulus (GPa) = -63.80709 18.74562 -22.53073
#
# Velocity S-wave (km/s) = -5.46075 2.95984 -3.24493
# Velocity P-wave (km/s) = 4.94853 5.71218 2.01755
#
# Compressibility (1/GPa) = 0.03060179
#
# Stress axis : x y z
#
# Youngs Moduli (GPa) = 107.72361 47.66071 54.52202
#
# Poissons Ratio (x) = -0.08218 0.37635
# Poissons Ratio (y) = -0.18574 0.20847
# Poissons Ratio (z) = 0.74358 0.18223
#
# Static dielectric constant tensor:
#      x y z
#    x 1.737180 0.000000 0.000000 
#    y 0.000000 1.800270 0.000000 
#    z 0.000000 0.000000 1.793530 
# 
# From -- ./inp_files/49278.got.cif
#   From: 2010.05.17/outbox.cif.g08.bks.cpg/sg71_25_cif.got.tgz:49278.got - 2010.06.03 16:22:01.
