data_PCOD9518072
_publ_section_title
;
Structure prediction by ZEFSAII (Michael W. Deem and Ramdas Pophale) SiO2 
 PCOD9518072
Probable space group: I M M M
;
_chemical_formula_sum "Si O2"
_cell_formula_units_Z 80
_cell_length_a 18.403976
_cell_length_b 27.690869
_cell_length_c 7.993324
_cell_angle_alpha 90.000000
_cell_angle_beta 90.000000
_cell_angle_gamma 90.000000
_cell_volume 4073.574471
_symmetry_space_group_name_H-M "I M M M"
_symmetry_group_IT_number 71
_symmetry_cell_setting 'orthorhombic'
loop_
_space_group_symop_operation_xyz
x,y,z
-x,-y,z
x,-y,-z
-x,y,-z
-x,-y,-z
x,y,-z
-x,y,z
x,-y,z
1/2+x,1/2+y,1/2+z
1/2-x,1/2-y,1/2+z
1/2+x,1/2-y,1/2-z
1/2-x,1/2+y,1/2-z
1/2-x,1/2-y,1/2-z
1/2+x,1/2+y,1/2-z
1/2-x,1/2+y,1/2+z
1/2+x,1/2-y,1/2+z
loop_
_atom_site_type_symbol
_atom_site_label
_atom_site_fract_x
_atom_site_fract_y
_atom_site_fract_z
Si Si1 0.579629 0.422593 0.694960
Si Si2 0.381687 0.318321 0.194945
Si Si3 0.724118 0.842871 0.196049
Si Si4 0.079924 0.289332 0.704393
Si Si5 0.737726 0.447248 0.195904
O O1 0.584700 0.436084 0.500000
O O2 0.500000 0.437023 0.758542
O O3 0.586970 0.364512 0.709853
O O4 0.650364 0.442808 0.785816
O O5 0.294409 0.321408 0.211670
O O6 0.408315 0.266354 0.254790
O O7 0.401704 0.323753 0.000000
O O8 0.648417 0.821097 0.258973
O O9 0.728797 0.900635 0.215717
O O10 0.732135 0.830793 0.000000
O O11 0.080717 0.289860 0.500000
O O12 0.000000 0.305900 0.758678
O O13 0.759855 0.500000 0.260442
O O14 0.755451 0.444099 0.000000
#
# Coordination Sequence:
#
# PCOD9518072 Si02
#       5
#    16  16  16  16  16
#     4  10  20  32  47  71 103 133 162 199 238 277
#     4  10  18  30  50  72 100 137 169 195 227 276
#     4  10  19  32  52  74  98 127 160 202 243 282
#     4   9  18  31  48  73 102 131 163 198 237 281
#     4  10  21  36  53  71  92 122 161 203 245 293
#
# _framework density 19.638773
#
# number of rings (size 3 to 8) (size 9 to 14) (size 15 to 20)
#    0.000    2.200    0.000    6.000    0.000    4.400 
#    0.000    5.000    0.000    7.800    0.000    4.200 
#    0.000    0.000    0.000    0.000    0.000    0.000 
#
# Total GULP energy -223364.717858 kJ/mol
# GULP energy per Si atom -5584.117946 kJ/mol
# Density = 1.959407 g / cm^3
# Si number density = 19.638773 Si / 1000 Ang^3
#
#
#
# Elastic Constant Matrix: (Units=GPa)
#
#
# Indices 1 2 3 4 5 6 
#
# 1 88.3479 30.2430 -6.9138 0.0000 0.0000 0.0000
# 2 30.2430 69.3598 -6.1296 0.0000 0.0000 0.0000
# 3 -6.9138 -6.1296 29.5840 0.0000 0.0000 0.0000
# 4 0.0000 0.0000 0.0000 14.4085 0.0000 0.0000
# 5 0.0000 0.0000 0.0000 0.0000 12.2502 0.0000
# 6 0.0000 0.0000 0.0000 0.0000 0.0000 -3.5366
#
#
#
# Elastic Compliance Matrix: (Units=1/GPa)
#
#
# Indices 1 2 3 4 5 6 
#
# 1 0.013415 -0.005676 0.001959 0.000000 0.000000 0.000000
# 2 -0.005676 0.017088 0.002214 0.000000 0.000000 0.000000
# 3 0.001959 0.002214 0.034719 0.000000 0.000000 0.000000
# 4 0.000000 0.000000 0.000000 0.069403 0.000000 0.000000
# 5 0.000000 0.000000 0.000000 0.000000 0.081631 0.000000
# 6 0.000000 0.000000 0.000000 0.000000 0.000000 -0.282761
#
#
# Mechanical properties :
#
#
# Convention : Reuss Voigt Hill
#
# Bulk Modulus (GPa) = 16.07311 24.63230 20.35270
# Shear Modulus (GPa) = -116.93388 15.96391 -50.48499
#
# Velocity S-wave (km/s) = -7.72474 2.85419 -5.07569
# Velocity P-wave (km/s) = 8.44749 4.84064 4.89531
#
# Compressibility (1/GPa) = 0.06221573
#
# Stress axis : x y z
#
# Youngs Moduli (GPa) = 74.54167 58.51954 28.80298
#
# Poissons Ratio (x) = 0.33218 -0.05643
# Poissons Ratio (y) = 0.42313 -0.06377
# Poissons Ratio (z) = -0.14603 -0.12956
#
# Static dielectric constant tensor:
#      x y z
#    x 1.688820 0.000000 0.000000 
#    y 0.000000 1.697940 0.000000 
#    z 0.000000 0.000000 1.678140 
# 
# From -- ./inp_files/8292.got.cif
#   From: 2010.05.17/outbox.cif.g08.bks.cpg/sg71_5_cif.got.tgz:8292.got - 2010.06.03 16:22:01.
