data_PCOD9518486
_publ_section_title
;
Structure prediction by ZEFSAII (Michael W. Deem and Ramdas Pophale) SiO2 
 PCOD9518486
Probable space group: I M M M
;
_chemical_formula_sum "Si O2"
_cell_formula_units_Z 88
_cell_length_a 7.640670
_cell_length_b 28.762520
_cell_length_c 19.450229
_cell_angle_alpha 90.000000
_cell_angle_beta 90.000000
_cell_angle_gamma 90.000000
_cell_volume 4274.478092
_symmetry_space_group_name_H-M "I M M M"
_symmetry_group_IT_number 71
_symmetry_cell_setting 'orthorhombic'
loop_
_space_group_symop_operation_xyz
x,y,z
-x,-y,z
x,-y,-z
-x,y,-z
-x,-y,-z
x,y,-z
-x,y,z
x,-y,z
1/2+x,1/2+y,1/2+z
1/2-x,1/2-y,1/2+z
1/2+x,1/2-y,1/2-z
1/2-x,1/2+y,1/2-z
1/2-x,1/2-y,1/2-z
1/2+x,1/2+y,1/2-z
1/2-x,1/2+y,1/2+z
1/2+x,1/2-y,1/2+z
loop_
_atom_site_type_symbol
_atom_site_label
_atom_site_fract_x
_atom_site_fract_y
_atom_site_fract_z
Si Si1 0.210167 0.308766 0.181258
Si Si2 0.213846 0.500000 0.919769
Si Si3 0.789937 0.293582 0.662554
Si Si4 0.288364 0.881643 0.922379
Si Si5 0.798865 0.592390 0.153698
Si Si6 0.206919 0.053299 0.203044
O O1 0.277022 0.303993 0.260010
O O2 0.247144 0.259694 0.145539
O O3 0.279208 0.356015 0.146871
O O4 0.000000 0.313704 0.185458
O O5 0.279179 0.547200 0.883514
O O6 0.000000 0.500000 0.912448
O O7 0.255415 0.500000 0.000000
O O8 0.726577 0.332758 0.610155
O O9 0.000000 0.297084 0.665096
O O10 0.500000 0.880386 0.924269
O O11 0.237791 0.921828 0.869285
O O12 0.225234 0.888585 0.000000
O O13 0.796017 0.581103 0.234986
O O14 0.000000 0.595091 0.129433
O O15 0.000000 0.053576 0.217285
O O16 0.268613 0.000000 0.202738
#
# Coordination Sequence:
#
# PCOD9518486 Si02
#       6
#    16   8  16  16  16  16
#     4   9  17  29  49  78 105 133 172 218 263 307
#     4   9  18  32  55  85 110 137 174 219 269 314
#     4   9  17  31  50  75 105 134 171 218 263 311
#     4  10  21  38  58  78 105 144 187 226 267 321
#     4  10  18  33  57  80 107 142 182 224 263 316
#     4  11  23  36  53  80 111 140 178 225 274 326
#
# _framework density 20.587308
#
# number of rings (size 3 to 8) (size 9 to 14) (size 15 to 20)
#    0.000    2.273    2.727    0.545    0.000    3.273 
#    0.000    2.727    0.000    2.182    0.000    0.000 
#    0.000    0.000    0.000    0.000    0.000    0.000 
#
# Total GULP energy -245551.672216 kJ/mol
# GULP energy per Si atom -5580.719823 kJ/mol
# Density = 2.054045 g / cm^3
# Si number density = 20.587308 Si / 1000 Ang^3
#
#
#
# Elastic Constant Matrix: (Units=GPa)
#
#
# Indices 1 2 3 4 5 6 
#
# 1 43.5822 -2.9196 -7.2281 0.0000 0.0000 0.0000
# 2 -2.9196 134.6191 0.0468 0.0000 0.0000 0.0000
# 3 -7.2281 0.0468 35.8805 0.0000 -0.0001 0.0000
# 4 0.0000 0.0000 0.0000 27.2601 0.0000 0.0000
# 5 0.0000 0.0000 -0.0001 0.0000 -19.5032 0.0000
# 6 0.0000 0.0000 0.0000 0.0000 0.0000 20.1544
#
#
#
# Elastic Compliance Matrix: (Units=1/GPa)
#
#
# Indices 1 2 3 4 5 6 
#
# 1 0.023774 0.000514 0.004789 0.000000 0.000000 0.000000
# 2 0.000514 0.007439 0.000094 0.000000 0.000000 0.000000
# 3 0.004789 0.000094 0.028835 0.000000 0.000000 0.000000
# 4 0.000000 0.000000 0.000000 0.036684 0.000000 0.000000
# 5 0.000000 0.000000 0.000000 0.000000 -0.051274 0.000000
# 6 0.000000 0.000000 0.000000 0.000000 0.000000 0.049617
#
#
# Mechanical properties :
#
#
# Convention : Reuss Voigt Hill
#
# Bulk Modulus (GPa) = 14.11618 21.54222 17.82920
# Shear Modulus (GPa) = 46.34084 20.52776 33.43430
#
# Velocity S-wave (km/s) = 4.74956 3.16113 4.03429
# Velocity P-wave (km/s) = 6.07860 4.87957 5.51178
#
# Compressibility (1/GPa) = 0.07084068
#
# Stress axis : x y z
#
# Youngs Moduli (GPa) = 42.06319 134.41801 34.68027
#
# Poissons Ratio (x) = -0.06908 -0.16607
# Poissons Ratio (y) = -0.02162 -0.00325
# Poissons Ratio (z) = -0.20142 -0.01261
#
# Static dielectric constant tensor:
#      x y z
#    x 1.779060 0.000000 0.000000 
#    y 0.000000 1.756080 0.000000 
#    z 0.000000 0.000000 1.696960 
# 
# From -- ./inp_files/16874.got.cif
#   From: 2010.05.17/outbox.cif.g08.bks.cpg/sg71_9_cif.got.tgz:16874.got - 2010.06.03 16:22:01.
