data_PCOD9518456
_publ_section_title
;
Structure prediction by ZEFSAII (Michael W. Deem and Ramdas Pophale) SiO2 
 PCOD9518456
Probable space group: I M M M
;
_chemical_formula_sum "Si O2"
_cell_formula_units_Z 68
_cell_length_a 24.246746
_cell_length_b 17.287134
_cell_length_c 7.327771
_cell_angle_alpha 90.000000
_cell_angle_beta 90.000000
_cell_angle_gamma 90.000000
_cell_volume 3071.484656
_symmetry_space_group_name_H-M "I M M M"
_symmetry_group_IT_number 71
_symmetry_cell_setting 'orthorhombic'
loop_
_space_group_symop_operation_xyz
x,y,z
-x,-y,z
x,-y,-z
-x,y,-z
-x,-y,-z
x,y,-z
-x,y,z
x,-y,z
1/2+x,1/2+y,1/2+z
1/2-x,1/2-y,1/2+z
1/2+x,1/2-y,1/2-z
1/2-x,1/2+y,1/2-z
1/2-x,1/2-y,1/2-z
1/2+x,1/2+y,1/2-z
1/2-x,1/2+y,1/2+z
1/2+x,1/2-y,1/2+z
loop_
_atom_site_type_symbol
_atom_site_label
_atom_site_fract_x
_atom_site_fract_y
_atom_site_fract_z
Si Si1 0.936727 0.087496 0.779505
Si Si2 0.156943 0.791851 0.292188
Si Si3 0.742057 0.415419 0.778307
Si Si4 0.408538 0.000000 0.500000
Si Si5 0.868043 0.621785 0.288623
O O1 0.894304 0.149859 0.708151
O O2 0.000000 0.102848 0.726465
O O3 0.922701 0.000000 0.721827
O O4 0.934416 0.089409 0.000000
O O5 0.173629 0.773504 0.500000
O O6 0.206813 0.842434 0.211040
O O7 0.138418 0.709658 0.215933
O O8 0.719698 0.500000 0.722418
O O9 0.805292 0.409846 0.720424
O O10 0.740949 0.413824 0.000000
O O11 0.403832 0.932375 0.340581
O O12 0.886655 0.621830 0.500000
#
# Coordination Sequence:
#
# PCOD9518456 Si02
#       5
#    16  16  16   4  16
#     4   9  19  36  56  80 113 152 190 226 273 335
#     4  10  22  34  53  84 113 143 187 237 280 332
#     4  10  18  33  52  76 113 153 188 226 276 329
#     4  12  22  40  60  74 111 156 187 236 284 338
#     4  11  22  37  56  82 111 149 195 233 280 335
#
# _framework density 22.139130000000002
#
# number of rings (size 3 to 8) (size 9 to 14) (size 15 to 20)
#    0.000    1.882    2.353    2.471    1.647    2.824 
#    0.000    1.176    0.000    0.000    0.000    1.647 
#    0.000    3.765    0.000    0.000    0.000    0.000 
#
# Total GULP energy -189435.077691 kJ/mol
# GULP energy per Si atom -5571.619932 kJ/mol
# Density = 2.208874 g / cm^3
# Si number density = 22.139130 Si / 1000 Ang^3
#
#
#
# Elastic Constant Matrix: (Units=GPa)
#
#
# Indices 1 2 3 4 5 6 
#
# 1 19.9357 -3.0004 -13.5929 0.0000 0.0000 0.0000
# 2 -3.0004 126.0457 12.9618 0.0000 0.0000 0.0000
# 3 -13.5929 12.9618 119.0397 0.0000 0.0000 0.0000
# 4 0.0000 0.0000 0.0000 36.8232 0.0000 0.0000
# 5 0.0000 0.0000 0.0000 0.0000 14.2937 0.0000
# 6 0.0000 0.0000 0.0000 0.0000 0.0000 1.7463
#
#
#
# Elastic Compliance Matrix: (Units=1/GPa)
#
#
# Indices 1 2 3 4 5 6 
#
# 1 0.054451 0.000664 0.006145 0.000000 0.000000 0.000000
# 2 0.000664 0.008032 -0.000799 0.000000 0.000000 0.000000
# 3 0.006145 -0.000799 0.009189 0.000000 0.000000 0.000000
# 4 0.000000 0.000000 0.000000 0.027157 0.000000 0.000000
# 5 0.000000 0.000000 0.000000 0.000000 0.069961 0.000000
# 6 0.000000 0.000000 0.000000 0.000000 0.000000 0.572641
#
#
# Mechanical properties :
#
#
# Convention : Reuss Voigt Hill
#
# Bulk Modulus (GPa) = 11.94832 28.63980 20.29406
# Shear Modulus (GPa) = 6.60234 28.48280 17.54257
#
# Velocity S-wave (km/s) = 1.72878 3.59072 2.81798
# Velocity P-wave (km/s) = 3.06489 5.49140 4.44685
#
# Compressibility (1/GPa) = 0.08369380
#
# Stress axis : x y z
#
# Youngs Moduli (GPa) = 18.36505 124.50856 108.82288
#
# Poissons Ratio (x) = -0.08270 -0.66875
# Poissons Ratio (y) = -0.01220 0.08692
# Poissons Ratio (z) = -0.11286 0.09944
#
# Static dielectric constant tensor:
#      x y z
#    x 1.782210 0.000000 0.000000 
#    y 0.000000 1.833020 0.000000 
#    z 0.000000 0.000000 1.768750 
# 
# From -- ./inp_files/14474.got.cif
#   From: 2010.05.17/outbox.cif.g08.bks.cpg/sg71_8_cif.got.tgz:14474.got - 2010.06.03 16:22:01.
