data_PCOD9518007
_publ_section_title
;
Structure prediction by ZEFSAII (Michael W. Deem and Ramdas Pophale) SiO2 
 PCOD9518007
Probable space group: I M M M
;
_chemical_formula_sum "Si O2"
_cell_formula_units_Z 88
_cell_length_a 17.397074
_cell_length_b 7.362057
_cell_length_c 29.511142
_cell_angle_alpha 90.000000
_cell_angle_beta 90.000000
_cell_angle_gamma 90.000000
_cell_volume 3779.735435
_symmetry_space_group_name_H-M "I M M M"
_symmetry_group_IT_number 71
_symmetry_cell_setting 'orthorhombic'
loop_
_space_group_symop_operation_xyz
x,y,z
-x,-y,z
x,-y,-z
-x,y,-z
-x,-y,-z
x,y,-z
-x,y,z
x,-y,z
1/2+x,1/2+y,1/2+z
1/2-x,1/2-y,1/2+z
1/2+x,1/2-y,1/2-z
1/2-x,1/2+y,1/2-z
1/2-x,1/2-y,1/2-z
1/2+x,1/2+y,1/2-z
1/2-x,1/2+y,1/2+z
1/2+x,1/2-y,1/2+z
loop_
_atom_site_type_symbol
_atom_site_label
_atom_site_fract_x
_atom_site_fract_y
_atom_site_fract_z
Si Si1 0.821318 0.777799 0.051667
Si Si2 0.159556 0.288228 0.409220
Si Si3 0.088008 0.221678 0.139367
Si Si4 0.834669 0.783343 0.769609
Si Si5 0.000000 0.280916 0.553138
Si Si6 0.914244 0.219115 0.680567
O O1 0.737339 0.715816 0.069197
O O2 0.881295 0.720821 0.090220
O O3 0.821453 0.000000 0.051484
O O4 0.835721 0.720474 0.000000
O O5 0.159284 0.500000 0.422187
O O6 0.150762 0.276803 0.355119
O O7 0.079404 0.207919 0.426800
O O8 0.142886 0.283993 0.180524
O O9 0.000000 0.275942 0.147403
O O10 0.089583 0.000000 0.139109
O O11 0.750000 0.750000 0.750000
O O12 0.893101 0.718071 0.730793
O O13 0.843426 0.000000 0.771927
O O14 0.000000 0.500000 0.560871
O O15 0.000000 0.249762 0.500000
O O16 0.000000 0.281954 0.667243
O O17 0.915012 0.000000 0.680373
#
# Coordination Sequence:
#
# PCOD9518007 Si02
#       6
#    16  16  16  16   8  16
#     4   9  17  28  45  71  99 126 161 209 257 297
#     4  10  18  30  48  72 100 131 169 209 248 294
#     4   9  17  30  48  70  98 132 168 203 244 299
#     4  10  20  34  52  75 101 131 165 202 247 297
#     4   9  16  26  43  67  95 129 167 207 250 293
#     4  10  20  33  49  70 100 135 167 201 243 293
#
# _framework density 23.282052
#
# number of rings (size 3 to 8) (size 9 to 14) (size 15 to 20)
#    0.000    2.455    0.909    2.182    0.000    6.909 
#    0.000    1.818    0.000    4.364    0.000    0.000 
#    0.000    0.000    0.000    7.636    0.000    7.273 
#
# Total GULP energy -245819.249325 kJ/mol
# GULP energy per Si atom -5586.801121 kJ/mol
# Density = 2.322906 g / cm^3
# Si number density = 23.282052 Si / 1000 Ang^3
#
#
#
# Elastic Constant Matrix: (Units=GPa)
#
#
# Indices 1 2 3 4 5 6 
#
# 1 124.5138 -0.8266 81.3145 0.0000 0.0000 0.0000
# 2 -0.8266 83.3562 -4.1396 0.0000 0.0000 0.0000
# 3 81.3145 -4.1396 185.8754 0.0000 0.0000 0.0000
# 4 0.0000 0.0000 0.0000 12.4316 0.0000 0.0000
# 5 0.0000 0.0000 0.0000 0.0000 37.0839 0.0000
# 6 0.0000 0.0000 0.0000 0.0000 0.0000 -1.1289
#
#
#
# Elastic Compliance Matrix: (Units=1/GPa)
#
#
# Indices 1 2 3 4 5 6 
#
# 1 0.011245 -0.000133 -0.004922 0.000000 0.000000 0.000000
# 2 -0.000133 0.012012 0.000326 0.000000 0.000000 0.000000
# 3 -0.004922 0.000326 0.007541 0.000000 0.000000 0.000000
# 4 0.000000 0.000000 0.000000 0.080440 0.000000 0.000000
# 5 0.000000 0.000000 0.000000 0.000000 0.026966 0.000000
# 6 0.000000 0.000000 0.000000 0.000000 0.000000 -0.885841
#
#
# Mechanical properties :
#
#
# Convention : Reuss Voigt Hill
#
# Bulk Modulus (GPa) = 46.86488 60.71577 53.79033
# Shear Modulus (GPa) = -6.83933 30.83715 11.99891
#
# Velocity S-wave (km/s) = -1.71580 3.64332 2.27264
# Velocity P-wave (km/s) = 4.03083 6.62068 5.48092
#
# Compressibility (1/GPa) = 0.02133794
#
# Stress axis : x y z
#
# Youngs Moduli (GPa) = 88.92968 83.25315 132.61699
#
# Poissons Ratio (x) = 0.01107 0.65277
# Poissons Ratio (y) = 0.01182 -0.04319
# Poissons Ratio (z) = 0.43773 -0.02711
#
# Static dielectric constant tensor:
#      x y z
#    x 1.851120 0.000000 0.000000 
#    y 0.000000 1.903210 0.000000 
#    z 0.000000 0.000000 1.866210 
# 
# From -- ./inp_files/32999.got.cif
#   From: 2010.05.17/outbox.cif.g08.bks.cpg/sg71_17_cif.got.tgz:32999.got - 2010.06.03 16:22:01.
