data_PCOD9518902
_publ_section_title
;
Structure prediction by ZEFSAII (Michael W. Deem and Ramdas Pophale) SiO2 
 PCOD9518902
Probable space group: I M M M
;
_chemical_formula_sum "Si O2"
_cell_formula_units_Z 116
_cell_length_a 7.381549
_cell_length_b 30.734565
_cell_length_c 23.920293
_cell_angle_alpha 90.000000
_cell_angle_beta 90.000000
_cell_angle_gamma 90.000000
_cell_volume 5426.765718
_symmetry_space_group_name_H-M "I M M M"
_symmetry_group_IT_number 71
_symmetry_cell_setting 'orthorhombic'
loop_
_space_group_symop_operation_xyz
x,y,z
-x,-y,z
x,-y,-z
-x,y,-z
-x,-y,-z
x,y,-z
-x,y,z
x,-y,z
1/2+x,1/2+y,1/2+z
1/2-x,1/2-y,1/2+z
1/2+x,1/2-y,1/2-z
1/2-x,1/2+y,1/2-z
1/2-x,1/2-y,1/2-z
1/2+x,1/2+y,1/2-z
1/2-x,1/2+y,1/2+z
1/2+x,1/2-y,1/2+z
loop_
_atom_site_type_symbol
_atom_site_label
_atom_site_fract_x
_atom_site_fract_y
_atom_site_fract_z
Si Si1 0.718944 0.048555 0.742735
Si Si2 0.211869 0.047793 0.388916
Si Si3 0.780403 0.143285 0.590290
Si Si4 0.781399 0.200089 0.694809
Si Si5 0.287888 0.886794 0.163450
Si Si6 0.718485 0.450881 0.563327
Si Si7 0.000000 0.326089 0.000000
Si Si8 0.295094 0.794740 0.823689
O O1 0.500000 0.049239 0.744140
O O2 0.773803 0.053133 0.678238
O O3 0.787479 0.085959 0.784036
O O4 0.776290 0.000000 0.761567
O O5 0.278997 0.092689 0.415233
O O6 0.000000 0.046091 0.403192
O O7 0.290125 0.000000 0.402940
O O8 0.743575 0.160912 0.652879
O O9 0.660061 0.170722 0.548330
O O10 0.000000 0.146365 0.581575
O O11 0.703951 0.196701 0.756798
O O12 0.716631 0.246465 0.669850
O O13 0.000000 0.202819 0.701370
O O14 0.500000 0.879561 0.176195
O O15 0.277165 0.916858 0.109379
O O16 0.208828 0.838880 0.153240
O O17 0.777359 0.440778 0.500000
O O18 0.500000 0.451234 0.563259
O O19 0.779109 0.500000 0.577086
O O20 0.500000 0.791364 0.845885
#
# Coordination Sequence:
#
# PCOD9518902 Si02
#       8
#    16  16  16  16  16  16   4  16
#     4   9  17  27  42  70 108 143 175 213 263 328
#     4   9  18  33  53  78 109 144 179 221 276 331
#     4  10  22  40  60  83 114 146 188 240 280 327
#     4   9  18  34  56  81 111 145 178 220 275 329
#     4  10  19  30  47  74 108 137 171 218 267 319
#     4   9  19  35  52  68  92 133 182 226 268 314
#     4  12  26  40  65  88 104 152 200 232 279 332
#     4   9  18  31  52  84 115 142 174 214 270 337
#
# _framework density 21.375532
#
# number of rings (size 3 to 8) (size 9 to 14) (size 15 to 20)
#    0.000    2.621    0.000    1.862    1.931    2.207 
#    0.000    2.759    1.517    1.655    0.000    0.000 
#    0.000    0.000    0.000    0.000    0.000    0.000 
#
# Total GULP energy -323047.470170 kJ/mol
# GULP energy per Si atom -5569.783968 kJ/mol
# Density = 2.132688 g / cm^3
# Si number density = 21.375532 Si / 1000 Ang^3
#
#
#
# Elastic Constant Matrix: (Units=GPa)
#
#
# Indices 1 2 3 4 5 6 
#
# 1 83.6548 2.0294 -6.4466 0.0000 0.0000 0.0000
# 2 2.0294 66.5918 -9.5142 0.0000 0.0000 0.0000
# 3 -6.4466 -9.5142 11.4213 0.0000 0.0000 0.0000
# 4 0.0000 0.0000 0.0000 -12.2346 0.0000 0.0000
# 5 0.0000 0.0000 0.0000 0.0000 -25.5833 0.0000
# 6 0.0000 0.0000 0.0000 0.0000 0.0000 0.8977
#
#
#
# Elastic Compliance Matrix: (Units=1/GPa)
#
#
# Indices 1 2 3 4 5 6 
#
# 1 0.012527 0.000713 0.007665 0.000000 0.000000 0.000000
# 2 0.000713 0.017086 0.014636 0.000000 0.000000 0.000000
# 3 0.007665 0.014636 0.104074 0.000000 0.000000 0.000001
# 4 0.000000 0.000000 0.000000 -0.081736 0.000000 0.000000
# 5 0.000000 0.000000 0.000000 0.000000 -0.039088 0.000000
# 6 0.000000 0.000000 0.000001 0.000000 0.000000 1.113970
#
#
# Mechanical properties :
#
#
# Convention : Reuss Voigt Hill
#
# Bulk Modulus (GPa) = 5.56431 14.86724 10.21578
# Shear Modulus (GPa) = 4.38323 4.32258 4.35291
#
# Velocity S-wave (km/s) = 1.43354 1.42359 1.42857
# Velocity P-wave (km/s) = 2.31275 3.11006 2.74056
#
# Compressibility (1/GPa) = 0.17971665
#
# Stress axis : x y z
#
# Youngs Moduli (GPa) = 79.82589 58.52672 9.60850
#
# Poissons Ratio (x) = -0.04175 -0.07365
# Poissons Ratio (y) = -0.05694 -0.14063
# Poissons Ratio (z) = -0.61187 -0.85659
#
# Static dielectric constant tensor:
#      x y z
#    x 1.805910 0.000000 0.000000 
#    y 0.000000 1.835750 0.000000 
#    z 0.000000 0.000000 1.723800 
# 
# From -- ./inp_files/58256.got.cif
#   From: 2010.05.17/outbox.cif.g08.bks.cpg/sg71_30_cif.got.tgz:58256.got - 2010.06.03 16:22:01.
