data_PCOD9518595
_publ_section_title
;
Structure prediction by ZEFSAII (Michael W. Deem and Ramdas Pophale) SiO2 
 PCOD9518595
Probable space group: I M M M
;
_chemical_formula_sum "Si O2"
_cell_formula_units_Z 96
_cell_length_a 8.500716
_cell_length_b 31.299601
_cell_length_c 24.881292
_cell_angle_alpha 90.000000
_cell_angle_beta 90.000000
_cell_angle_gamma 90.000000
_cell_volume 6620.140954
_symmetry_space_group_name_H-M "I M M M"
_symmetry_group_IT_number 71
_symmetry_cell_setting 'orthorhombic'
loop_
_space_group_symop_operation_xyz
x,y,z
-x,-y,z
x,-y,-z
-x,y,-z
-x,-y,-z
x,y,-z
-x,y,z
x,-y,z
1/2+x,1/2+y,1/2+z
1/2-x,1/2-y,1/2+z
1/2+x,1/2-y,1/2-z
1/2-x,1/2+y,1/2-z
1/2-x,1/2-y,1/2-z
1/2+x,1/2+y,1/2-z
1/2-x,1/2+y,1/2+z
1/2+x,1/2-y,1/2+z
loop_
_atom_site_type_symbol
_atom_site_label
_atom_site_fract_x
_atom_site_fract_y
_atom_site_fract_z
Si Si1 0.187045 0.688156 0.219100
Si Si2 0.186976 0.220651 0.170035
Si Si3 0.808294 0.049724 0.439209
Si Si4 0.818886 0.878842 0.640787
Si Si5 0.677021 0.182978 0.561241
Si Si6 0.686548 0.777272 0.058850
O O1 0.236329 0.729889 0.183315
O O2 0.265872 0.694644 0.276919
O O3 0.233071 0.644040 0.190329
O O4 0.000000 0.690972 0.225340
O O5 0.264405 0.202717 0.115646
O O6 0.000000 0.220642 0.163301
O O7 0.757308 0.062336 0.500000
O O8 0.752444 0.079616 0.390338
O O9 0.000000 0.052640 0.439147
O O10 0.767202 0.000000 0.431698
O O11 0.802776 0.842954 0.594709
O O12 0.000000 0.886472 0.655248
O O13 0.676836 0.167830 0.500000
O O14 0.500000 0.177278 0.583935
O O15 0.720004 0.232593 0.559924
O O16 0.500000 0.769174 0.060186
O O17 0.721125 0.797584 0.000000
#
# Coordination Sequence:
#
# PCOD9518595 Si02
#       6
#    16  16  16  16  16  16
#     4  10  20  31  43  58  80 108 135 169 211 254
#     4  10  19  31  45  59  79 107 137 171 209 249
#     4   8  15  28  44  62  84 109 138 175 219 262
#     4  11  19  27  43  63  80 100 134 174 212 256
#     4  10  19  28  37  52  76 103 130 165 208 248
#     4  10  19  29  42  59  79 104 134 167 203 244
#
# _framework density 14.501203
#
# number of rings (size 3 to 8) (size 9 to 14) (size 15 to 20)
#    0.000    2.167    1.667    3.500    0.000    4.000 
#    0.000    0.000    0.000    2.000    0.000    5.833 
#    0.000    0.000    0.000    0.000    0.000    0.833 
#
# Total GULP energy -267318.496244 kJ/mol
# GULP energy per Si atom -5569.135338 kJ/mol
# Density = 1.446820 g / cm^3
# Si number density = 14.501203 Si / 1000 Ang^3
#
#
#
# Elastic Constant Matrix: (Units=GPa)
#
#
# Indices 1 2 3 4 5 6 
#
# 1 32.0148 3.5648 22.4244 0.0000 0.0000 0.0000
# 2 3.5648 46.4786 26.6389 0.0000 0.0000 0.0000
# 3 22.4244 26.6389 112.4979 0.0000 0.0000 0.0000
# 4 0.0000 0.0000 0.0000 23.0067 0.0000 0.0000
# 5 0.0000 0.0000 0.0000 0.0000 22.1048 0.0000
# 6 0.0000 0.0000 0.0000 0.0000 0.0000 8.2771
#
#
#
# Elastic Compliance Matrix: (Units=1/GPa)
#
#
# Indices 1 2 3 4 5 6 
#
# 1 0.036405 0.001582 -0.007631 0.000000 0.000000 0.000000
# 2 0.001582 0.024962 -0.006226 0.000000 0.000000 0.000000
# 3 -0.007631 -0.006226 0.011885 0.000000 0.000000 0.000000
# 4 0.000000 0.000000 0.000000 0.043466 0.000000 0.000000
# 5 0.000000 0.000000 0.000000 0.000000 0.045239 0.000000
# 6 0.000000 0.000000 0.000000 0.000000 0.000000 0.120816
#
#
# Mechanical properties :
#
#
# Convention : Reuss Voigt Hill
#
# Bulk Modulus (GPa) = 20.53386 32.91640 26.72513
# Shear Modulus (GPa) = 15.45324 19.90193 17.67758
#
# Velocity S-wave (km/s) = 3.26797 3.70866 3.49527
# Velocity P-wave (km/s) = 5.33202 6.40993 5.89566
#
# Compressibility (1/GPa) = 0.04870005
#
# Stress axis : x y z
#
# Youngs Moduli (GPa) = 27.46905 40.06011 84.14311
#
# Poissons Ratio (x) = -0.06336 0.64210
# Poissons Ratio (y) = -0.04344 0.52389
# Poissons Ratio (z) = 0.20962 0.24942
#
# Static dielectric constant tensor:
#      x y z
#    x 1.495690 0.000000 0.000000 
#    y 0.000000 1.466940 0.000000 
#    z 0.000000 0.000000 1.535400 
# 
# From -- ./inp_files/63660.got.cif
#   From: 2010.05.17/outbox.cif.g08.bks.cpg/sg71_32_cif.got.tgz:63660.got - 2010.06.03 16:22:01.
