data_PCOD9518436
_publ_section_title
;
Structure prediction by ZEFSAII (Michael W. Deem and Ramdas Pophale) SiO2 
 PCOD9518436
Probable space group: I M M M
;
_chemical_formula_sum "Si O2"
_cell_formula_units_Z 88
_cell_length_a 28.183737
_cell_length_b 19.993070
_cell_length_c 8.899669
_cell_angle_alpha 90.000000
_cell_angle_beta 90.000000
_cell_angle_gamma 90.000000
_cell_volume 5014.780386
_symmetry_space_group_name_H-M "I M M M"
_symmetry_group_IT_number 71
_symmetry_cell_setting 'orthorhombic'
loop_
_space_group_symop_operation_xyz
x,y,z
-x,-y,z
x,-y,-z
-x,y,-z
-x,-y,-z
x,y,-z
-x,y,z
x,-y,z
1/2+x,1/2+y,1/2+z
1/2-x,1/2-y,1/2+z
1/2+x,1/2-y,1/2-z
1/2-x,1/2+y,1/2-z
1/2-x,1/2-y,1/2-z
1/2+x,1/2+y,1/2-z
1/2-x,1/2+y,1/2+z
1/2+x,1/2-y,1/2+z
loop_
_atom_site_type_symbol
_atom_site_label
_atom_site_fract_x
_atom_site_fract_y
_atom_site_fract_z
Si Si1 0.587715 0.830648 0.181089
Si Si2 0.055032 0.179750 0.680524
Si Si3 0.370993 0.576838 0.679638
Si Si4 0.815003 0.695704 0.820865
Si Si5 0.208783 0.161061 0.679144
Si Si6 0.500000 0.923138 0.816785
O O1 0.570426 0.755446 0.218788
O O2 0.638807 0.840233 0.255815
O O3 0.547132 0.882718 0.229002
O O4 0.592273 0.834252 0.000000
O O5 0.059530 0.173268 0.500000
O O6 0.088803 0.126204 0.758006
O O7 0.000000 0.170133 0.720601
O O8 0.369272 0.581747 0.500000
O O9 0.380310 0.500000 0.721734
O O10 0.321430 0.602384 0.747586
O O11 0.810510 0.768791 0.745140
O O12 0.764996 0.659310 0.788921
O O13 0.819103 0.703957 0.000000
O O14 0.201921 0.161513 0.500000
O O15 0.500000 0.000000 0.767119
O O16 0.500000 0.922671 0.000000
#
# Coordination Sequence:
#
# PCOD9518436 Si02
#       6
#    16  16  16  16  16   8
#     4  10  18  32  56  84 112 145 186 229 271 323
#     4  10  20  35  56  82 110 144 191 236 274 327
#     4  11  24  39  55  79 113 150 189 236 284 331
#     4  10  20  33  54  84 112 139 178 230 282 328
#     4  10  20  35  55  80 110 144 184 227 274 333
#     4   9  18  34  57  85 116 149 184 224 272 326
#
# _framework density 17.548126
#
# number of rings (size 3 to 8) (size 9 to 14) (size 15 to 20)
#    0.000    1.909    2.727    1.636    0.000    4.364 
#    0.000    3.182    0.000    4.364    0.000    0.000 
#    0.000    0.000    0.000    0.000    0.000    0.000 
#
# Total GULP energy -245650.170574 kJ/mol
# GULP energy per Si atom -5582.958422 kJ/mol
# Density = 1.750819 g / cm^3
# Si number density = 17.548126 Si / 1000 Ang^3
#
#
#
# Elastic Constant Matrix: (Units=GPa)
#
#
# Indices 1 2 3 4 5 6 
#
# 1 159.4201 80.5620 49.2080 0.0000 0.0000 0.0000
# 2 80.5620 125.6738 43.4559 0.0000 0.0000 0.0000
# 3 49.2080 43.4559 33.6965 0.0000 0.0000 0.0000
# 4 0.0000 0.0000 0.0000 18.7261 0.0000 0.0000
# 5 0.0000 0.0000 0.0000 0.0000 32.3564 0.0000
# 6 0.0000 0.0000 0.0000 0.0000 0.0000 26.3006
#
#
#
# Elastic Compliance Matrix: (Units=1/GPa)
#
#
# Indices 1 2 3 4 5 6 
#
# 1 0.011996 -0.002946 -0.013719 0.000000 0.000000 0.000000
# 2 -0.002946 0.015085 -0.015151 0.000000 0.000000 0.000000
# 3 -0.013719 -0.015151 0.069250 0.000000 0.000000 0.000000
# 4 0.000000 0.000000 0.000000 0.053401 0.000000 0.000000
# 5 0.000000 0.000000 0.000000 0.000000 0.030906 0.000000
# 6 0.000000 0.000000 0.000000 0.000000 0.000000 0.038022
#
#
# Mechanical properties :
#
#
# Convention : Reuss Voigt Hill
#
# Bulk Modulus (GPa) = 30.58247 73.91577 52.24912
# Shear Modulus (GPa) = 17.05367 25.18093 21.11730
#
# Velocity S-wave (km/s) = 3.12079 3.79220 3.47276
# Velocity P-wave (km/s) = 5.51828 7.83502 6.77639
#
# Compressibility (1/GPa) = 0.03269847
#
# Stress axis : x y z
#
# Youngs Moduli (GPa) = 83.35980 66.29159 14.44044
#
# Poissons Ratio (x) = 0.19532 0.19810
# Poissons Ratio (y) = 0.24561 0.21879
# Poissons Ratio (z) = 1.14359 1.00440
#
# Static dielectric constant tensor:
#      x y z
#    x 1.603250 0.000000 0.000000 
#    y 0.000000 1.573480 0.000000 
#    z 0.000000 0.000000 1.586250 
# 
# From -- ./inp_files/16621.got.cif
#   From: 2010.05.17/outbox.cif.g08.bks.cpg/sg71_9_cif.got.tgz:16621.got - 2010.06.03 16:22:01.
