data_PCOD9518074
_publ_section_title
;
Structure prediction by ZEFSAII (Michael W. Deem and Ramdas Pophale) SiO2 
 PCOD9518074
Probable space group: I M M M
;
_chemical_formula_sum "Si O2"
_cell_formula_units_Z 80
_cell_length_a 26.066805
_cell_length_b 8.569973
_cell_length_c 21.134439
_cell_angle_alpha 90.000000
_cell_angle_beta 90.000000
_cell_angle_gamma 90.000000
_cell_volume 4721.260688
_symmetry_space_group_name_H-M "I M M M"
_symmetry_group_IT_number 71
_symmetry_cell_setting 'orthorhombic'
loop_
_space_group_symop_operation_xyz
x,y,z
-x,-y,z
x,-y,-z
-x,y,-z
-x,-y,-z
x,y,-z
-x,y,z
x,-y,z
1/2+x,1/2+y,1/2+z
1/2-x,1/2-y,1/2+z
1/2+x,1/2-y,1/2-z
1/2-x,1/2+y,1/2-z
1/2-x,1/2-y,1/2-z
1/2+x,1/2+y,1/2-z
1/2-x,1/2+y,1/2+z
1/2+x,1/2-y,1/2+z
loop_
_atom_site_type_symbol
_atom_site_label
_atom_site_fract_x
_atom_site_fract_y
_atom_site_fract_z
Si Si1 0.500000 0.311658 0.878077
Si Si2 0.500000 0.186078 0.264595
Si Si3 0.111013 0.310329 0.760521
Si Si4 0.612846 0.313460 0.116596
Si Si5 0.780989 0.313756 0.429958
Si Si6 0.719620 0.813436 0.310770
O O1 0.500000 0.500000 0.868769
O O2 0.500000 0.229488 0.809712
O O3 0.444668 0.272388 0.907673
O O4 0.444306 0.241388 0.287972
O O5 0.500000 0.000000 0.272019
O O6 0.110901 0.500000 0.754140
O O7 0.116133 0.239633 0.690098
O O8 0.160248 0.266092 0.801716
O O9 0.618429 0.500000 0.113289
O O10 0.660126 0.235998 0.081159
O O11 0.764786 0.261347 0.500000
O O12 0.778159 0.500000 0.426731
O O13 0.746388 0.245606 0.374158
O O14 0.750000 0.750000 0.250000
O O15 0.722224 0.000000 0.309608
#
# Coordination Sequence:
#
# PCOD9518074 Si02
#       6
#     8   8  16  16  16  16
#     4   8  16  28  43  69  98 126 163 205 250 296
#     4   8  14  26  44  69 100 131 158 193 242 293
#     4   9  17  29  48  74 103 131 162 200 245 298
#     4  10  18  30  50  72  98 131 167 209 253 301
#     4  11  24  39  52  69  98 135 175 218 260 303
#     4  11  21  33  53  79 105 133 168 209 252 303
#
# _framework density 16.944627000000001
#
# number of rings (size 3 to 8) (size 9 to 14) (size 15 to 20)
#    0.000    2.200    2.000    1.800    0.000    3.200 
#    0.000    0.500    0.000    3.000    0.000    0.700 
#    0.000    5.600    0.000    0.000    0.000    0.000 
#
# Total GULP energy -222939.206251 kJ/mol
# GULP energy per Si atom -5573.480156 kJ/mol
# Density = 1.690606 g / cm^3
# Si number density = 16.944627 Si / 1000 Ang^3
#
#
#
# Elastic Constant Matrix: (Units=GPa)
#
#
# Indices 1 2 3 4 5 6 
#
# 1 151.3541 26.3324 64.4658 0.0000 0.0000 0.0000
# 2 26.3324 23.5932 21.7714 0.0000 0.0000 0.0000
# 3 64.4658 21.7714 91.4002 0.0000 0.0000 0.0000
# 4 0.0000 0.0000 0.0000 17.5725 0.0000 0.0000
# 5 0.0000 0.0000 0.0000 0.0000 11.7785 0.0000
# 6 0.0000 0.0000 0.0000 0.0000 0.0000 21.0267
#
#
#
# Elastic Compliance Matrix: (Units=1/GPa)
#
#
# Indices 1 2 3 4 5 6 
#
# 1 0.010066 -0.006003 -0.005670 0.000000 0.000000 0.000000
# 2 -0.006003 0.057906 -0.009559 0.000000 0.000000 0.000000
# 3 -0.005670 -0.009559 0.017217 0.000000 0.000000 0.000000
# 4 0.000000 0.000000 0.000000 0.056907 0.000000 0.000000
# 5 0.000000 0.000000 0.000000 0.000000 0.084900 0.000000
# 6 0.000000 0.000000 0.000000 0.000000 0.000000 0.047559
#
#
# Mechanical properties :
#
#
# Convention : Reuss Voigt Hill
#
# Bulk Modulus (GPa) = 23.40546 54.60967 39.00756
# Shear Modulus (GPa) = 15.09380 20.32740 17.71060
#
# Velocity S-wave (km/s) = 2.98782 3.46733 3.23647
# Velocity P-wave (km/s) = 5.07402 6.95185 6.08579
#
# Compressibility (1/GPa) = 0.04272508
#
# Stress axis : x y z
#
# Youngs Moduli (GPa) = 99.33974 17.26936 58.08172
#
# Poissons Ratio (x) = 0.10367 0.32933
# Poissons Ratio (y) = 0.59633 0.55522
# Poissons Ratio (z) = 0.56327 0.16508
#
# Static dielectric constant tensor:
#      x y z
#    x 1.636130 0.000000 0.000000 
#    y 0.000000 1.569940 0.000000 
#    z 0.000000 0.000000 1.551090 
# 
# From -- ./inp_files/8452.got.cif
#   From: 2010.05.17/outbox.cif.g08.bks.cpg/sg71_5_cif.got.tgz:8452.got - 2010.06.03 16:22:01.
