data_PCOD9518883
_publ_section_title
;
Structure prediction by ZEFSAII (Michael W. Deem and Ramdas Pophale) SiO2 
 PCOD9518883
Probable space group: I M M M
;
_chemical_formula_sum "Si O2"
_cell_formula_units_Z 88
_cell_length_a 19.810605
_cell_length_b 7.484168
_cell_length_c 28.336042
_cell_angle_alpha 90.000000
_cell_angle_beta 90.000000
_cell_angle_gamma 90.000000
_cell_volume 4201.268656
_symmetry_space_group_name_H-M "I M M M"
_symmetry_group_IT_number 71
_symmetry_cell_setting 'orthorhombic'
loop_
_space_group_symop_operation_xyz
x,y,z
-x,-y,z
x,-y,-z
-x,y,-z
-x,-y,-z
x,y,-z
-x,y,z
x,-y,z
1/2+x,1/2+y,1/2+z
1/2-x,1/2-y,1/2+z
1/2+x,1/2-y,1/2-z
1/2-x,1/2+y,1/2-z
1/2-x,1/2-y,1/2-z
1/2+x,1/2+y,1/2-z
1/2-x,1/2+y,1/2+z
1/2+x,1/2-y,1/2+z
loop_
_atom_site_type_symbol
_atom_site_label
_atom_site_fract_x
_atom_site_fract_y
_atom_site_fract_z
Si Si1 0.000000 0.718200 0.446127
Si Si2 0.326624 0.215797 0.654262
Si Si3 0.575909 0.712020 0.732887
Si Si4 0.718270 0.787557 0.448035
Si Si5 0.809607 0.796028 0.301539
Si Si6 0.859021 0.285774 0.596217
O O1 0.931354 0.776005 0.421576
O O2 0.000000 0.500000 0.445643
O O3 0.000000 0.775516 0.500000
O O4 0.395741 0.263067 0.680120
O O5 0.316459 0.280659 0.600427
O O6 0.264449 0.283339 0.687392
O O7 0.320513 0.000000 0.652933
O O8 0.500000 0.783262 0.739289
O O9 0.572591 0.500000 0.742758
O O10 0.634736 0.787739 0.766962
O O11 0.699597 0.716022 0.500000
O O12 0.798007 0.759207 0.439036
O O13 0.705781 0.000000 0.449080
O O14 0.842087 0.796170 0.353381
O O15 0.798062 0.000000 0.285710
O O16 0.860144 0.500000 0.601552
#
# Coordination Sequence:
#
# PCOD9518883 Si02
#       6
#     8  16  16  16  16  16
#     4   9  18  30  41  59  95 135 165 203 252 293
#     4   9  18  33  53  77 102 130 165 207 252 299
#     4  10  21  35  52  75 103 136 170 207 254 304
#     4   9  18  34  54  75 100 128 162 206 254 302
#     4   9  19  35  52  72 100 134 170 208 251 298
#     4  10  19  30  47  71  98 130 170 211 250 294
#
# _framework density 20.946052999999999
#
# number of rings (size 3 to 8) (size 9 to 14) (size 15 to 20)
#    0.000    2.636    0.000    2.727    1.273    5.091 
#    0.000    1.364    0.000    3.818    0.000    3.818 
#    0.000    0.000    0.000    0.000    0.000    0.000 
#
# Total GULP energy -245460.806245 kJ/mol
# GULP energy per Si atom -5578.654687 kJ/mol
# Density = 2.089838 g / cm^3
# Si number density = 20.946053 Si / 1000 Ang^3
#
#
#
# Elastic Constant Matrix: (Units=GPa)
#
#
# Indices 1 2 3 4 5 6 
#
# 1 72.3877 -1.0337 51.2108 0.0000 0.0000 0.0000
# 2 -1.0337 65.1419 10.2653 0.0000 0.0000 0.0000
# 3 51.2108 10.2653 115.2128 0.0000 0.0000 0.0000
# 4 0.0000 0.0000 0.0000 16.0221 0.0000 0.0000
# 5 0.0000 0.0000 0.0000 0.0000 -5.8110 0.0000
# 6 0.0000 0.0000 0.0000 0.0000 0.0000 21.3810
#
#
#
# Elastic Compliance Matrix: (Units=1/GPa)
#
#
# Indices 1 2 3 4 5 6 
#
# 1 0.020351 0.001773 -0.009204 0.000000 0.000000 0.000000
# 2 0.001773 0.015724 -0.002189 0.000000 0.000000 0.000000
# 3 -0.009204 -0.002189 0.012966 0.000000 0.000000 0.000000
# 4 0.000000 0.000000 0.000000 0.062414 0.000000 0.000000
# 5 0.000000 0.000000 0.000000 0.000000 -0.172086 0.000000
# 6 0.000000 0.000000 0.000000 0.000000 0.000000 0.046770
#
#
# Mechanical properties :
#
#
# Convention : Reuss Voigt Hill
#
# Bulk Modulus (GPa) = 33.55541 41.51414 37.53477
# Shear Modulus (GPa) = 326.53470 19.13842 172.83656
#
# Velocity S-wave (km/s) = 12.49926 3.02603 9.09364
# Velocity P-wave (km/s) = 14.97877 5.66319 11.32332
#
# Compressibility (1/GPa) = 0.02980146
#
# Stress axis : x y z
#
# Youngs Moduli (GPa) = 49.13746 63.59617 77.12689
#
# Poissons Ratio (x) = -0.11278 0.70986
# Poissons Ratio (y) = -0.08714 0.16885
# Poissons Ratio (z) = 0.45225 0.13923
#
# Static dielectric constant tensor:
#      x y z
#    x 1.797910 0.000000 0.000000 
#    y 0.000000 1.789530 0.000000 
#    z 0.000000 0.000000 1.764690 
# 
# From -- ./inp_files/8772.got.cif
#   From: 2010.05.17/outbox.cif.g08.bks.cpg/sg71_5_cif.got.tgz:8772.got - 2010.06.03 16:22:01.
