data_PCOD9518659
_publ_section_title
;
Structure prediction by ZEFSAII (Michael W. Deem and Ramdas Pophale) SiO2 
 PCOD9518659
Probable space group: I M M M
;
_chemical_formula_sum "Si O2"
_cell_formula_units_Z 88
_cell_length_a 19.390616
_cell_length_b 21.508137
_cell_length_c 10.046156
_cell_angle_alpha 90.000000
_cell_angle_beta 90.000000
_cell_angle_gamma 90.000000
_cell_volume 4189.809892
_symmetry_space_group_name_H-M "I M M M"
_symmetry_group_IT_number 71
_symmetry_cell_setting 'orthorhombic'
loop_
_space_group_symop_operation_xyz
x,y,z
-x,-y,z
x,-y,-z
-x,y,-z
-x,-y,-z
x,y,-z
-x,y,z
x,-y,z
1/2+x,1/2+y,1/2+z
1/2-x,1/2-y,1/2+z
1/2+x,1/2-y,1/2-z
1/2-x,1/2+y,1/2-z
1/2-x,1/2-y,1/2-z
1/2+x,1/2+y,1/2-z
1/2-x,1/2+y,1/2+z
1/2+x,1/2-y,1/2+z
loop_
_atom_site_type_symbol
_atom_site_label
_atom_site_fract_x
_atom_site_fract_y
_atom_site_fract_z
Si Si1 0.920780 0.248772 0.646117
Si Si2 0.312514 0.745789 0.351878
Si Si3 0.078207 0.097004 0.347245
Si Si4 0.000000 0.424518 0.658170
Si Si5 0.696302 0.400292 0.349800
Si Si6 0.650629 0.074634 0.157896
O O1 0.892176 0.266744 0.500000
O O2 0.877050 0.271734 0.770192
O O3 0.920186 0.173060 0.649753
O O4 0.000000 0.268613 0.652613
O O5 0.301245 0.771853 0.500000
O O6 0.250000 0.750000 0.250000
O O7 0.322306 0.671985 0.365629
O O8 0.089092 0.077128 0.500000
O O9 0.138068 0.074410 0.249173
O O10 0.000000 0.079709 0.306958
O O11 0.075379 0.404263 0.710843
O O12 0.000000 0.500000 0.667989
O O13 0.000000 0.410432 0.500000
O O14 0.696010 0.427506 0.500000
O O15 0.774432 0.403206 0.292820
O O16 0.652076 0.000000 0.170526
O O17 0.650610 0.089465 0.000000
#
# Coordination Sequence:
#
# PCOD9518659 Si02
#       6
#    16  16  16   8  16  16
#     4   8  14  26  44  63  81 102 135 180 222 258
#     4  10  19  29  42  60  86 117 148 181 215 257
#     4   8  14  25  41  61  84 111 143 175 209 254
#     4   7  10  18  36  62  87 111 137 165 205 259
#     4   9  17  27  42  66  90 110 140 184 222 257
#     4   8  13  23  41  65  91 114 138 175 222 266
#
# _framework density 21.003339
#
# number of rings (size 3 to 8) (size 9 to 14) (size 15 to 20)
#    0.000    3.545    0.000    2.727    0.000    1.455 
#    0.000    3.636    2.000    1.091    0.000    4.455 
#    0.000    2.182    0.000    0.000    0.000    0.000 
#
# Total GULP energy -245054.042291 kJ/mol
# GULP energy per Si atom -5569.410052 kJ/mol
# Density = 2.095553 g / cm^3
# Si number density = 21.003339 Si / 1000 Ang^3
#
#
#
# Elastic Constant Matrix: (Units=GPa)
#
#
# Indices 1 2 3 4 5 6 
#
# 1 191.9107 10.7554 89.3059 0.0000 0.0000 0.0000
# 2 10.7554 60.9323 6.2533 0.0000 0.0000 0.0000
# 3 89.3059 6.2533 128.0060 0.0000 0.0000 0.0000
# 4 0.0000 0.0000 0.0000 -0.9209 0.0000 0.0000
# 5 0.0000 0.0000 0.0000 0.0000 34.2888 0.0000
# 6 0.0000 0.0000 0.0000 0.0000 0.0000 19.1103
#
#
#
# Elastic Compliance Matrix: (Units=1/GPa)
#
#
# Indices 1 2 3 4 5 6 
#
# 1 0.007756 -0.000818 -0.005371 0.000000 0.000000 0.000000
# 2 -0.000818 0.016581 -0.000239 0.000000 0.000000 0.000000
# 3 -0.005371 -0.000239 0.011571 0.000000 0.000000 0.000000
# 4 0.000000 0.000000 0.000000 -1.085920 0.000000 0.000000
# 5 0.000000 0.000000 0.000000 0.000000 0.029164 0.000000
# 6 0.000000 0.000000 0.000000 0.000000 0.000000 0.052328
#
#
# Mechanical properties :
#
#
# Convention : Reuss Voigt Hill
#
# Bulk Modulus (GPa) = 43.38225 65.94203 54.66214
# Shear Modulus (GPa) = -5.27437 28.79792 11.76177
#
# Velocity S-wave (km/s) = -1.58640 3.70687 2.36899
# Velocity P-wave (km/s) = 4.16464 7.05587 5.79351
#
# Compressibility (1/GPa) = 0.02305090
#
# Stress axis : x y z
#
# Youngs Moduli (GPa) = 128.93062 60.31147 86.42156
#
# Poissons Ratio (x) = 0.04932 0.46419
# Poissons Ratio (y) = 0.10544 0.02069
# Poissons Ratio (z) = 0.69252 0.01444
#
# Static dielectric constant tensor:
#      x y z
#    x 1.803510 0.000000 0.000000 
#    y 0.000000 1.840960 0.000000 
#    z 0.000000 0.000000 1.765990 
# 
# From -- ./inp_files/24707.got.cif
#   From: 2010.05.17/outbox.cif.g08.bks.cpg/sg71_13_cif.got.tgz:24707.got - 2010.06.03 16:22:01.
