data_PCOD9518115
_publ_section_title
;
Structure prediction by ZEFSAII (Michael W. Deem and Ramdas Pophale) SiO2 
 PCOD9518115
Probable space group: I M M M
;
_chemical_formula_sum "Si O2"
_cell_formula_units_Z 80
_cell_length_a 19.225706
_cell_length_b 10.764932
_cell_length_c 22.793003
_cell_angle_alpha 90.000000
_cell_angle_beta 90.000000
_cell_angle_gamma 90.000000
_cell_volume 4717.317801
_symmetry_space_group_name_H-M "I M M M"
_symmetry_group_IT_number 71
_symmetry_cell_setting 'orthorhombic'
loop_
_space_group_symop_operation_xyz
x,y,z
-x,-y,z
x,-y,-z
-x,y,-z
-x,-y,-z
x,y,-z
-x,y,z
x,-y,z
1/2+x,1/2+y,1/2+z
1/2-x,1/2-y,1/2+z
1/2+x,1/2-y,1/2-z
1/2-x,1/2+y,1/2-z
1/2-x,1/2-y,1/2-z
1/2+x,1/2+y,1/2-z
1/2-x,1/2+y,1/2+z
1/2+x,1/2-y,1/2+z
loop_
_atom_site_type_symbol
_atom_site_label
_atom_site_fract_x
_atom_site_fract_y
_atom_site_fract_z
Si Si1 0.810260 0.146261 0.402906
Si Si2 0.690464 0.351206 0.235524
Si Si3 0.578972 0.650424 0.000000
Si Si4 0.077800 0.144856 0.170983
Si Si5 0.161090 0.748461 0.069006
Si Si6 0.578652 0.000000 0.429205
O O1 0.824365 0.155139 0.333831
O O2 0.875385 0.184143 0.443028
O O3 0.742291 0.226156 0.418845
O O4 0.794814 0.000000 0.416510
O O5 0.706901 0.500000 0.247913
O O6 0.750000 0.250000 0.250000
O O7 0.624899 0.310279 0.275058
O O8 0.574772 0.500000 0.000000
O O9 0.500000 0.698111 0.000000
O O10 0.123117 0.157079 0.111970
O O11 0.000000 0.199843 0.165390
O O12 0.069332 0.000000 0.182609
O O13 0.122084 0.620858 0.086346
O O14 0.150518 0.773260 0.000000
O O15 0.500000 0.000000 0.406337
O O16 0.574468 0.000000 0.500000
#
# Coordination Sequence:
#
# PCOD9518115 Si02
#       6
#    16  16   8  16  16   8
#     4  10  18  30  51  77 105 136 171 215 265 314
#     4  10  20  35  56  79 105 140 182 222 264 315
#     4   9  18  30  48  78 111 136 165 213 271 324
#     4  10  22  38  53  73 105 141 177 219 264 310
#     4  11  19  30  51  74 103 138 175 212 258 313
#     4   9  18  28  42  70 102 134 168 209 257 310
#
# _framework density 16.95879
#
# number of rings (size 3 to 8) (size 9 to 14) (size 15 to 20)
#    0.000    2.000    4.000    0.600    0.000    2.400 
#    0.000    5.000    0.000    0.000    0.000    0.000 
#    0.000    4.000    0.000    0.000    0.000    0.000 
#
# Total GULP energy -222717.660717 kJ/mol
# GULP energy per Si atom -5567.941518 kJ/mol
# Density = 1.692019 g / cm^3
# Si number density = 16.958790 Si / 1000 Ang^3
#
#
#
# Elastic Constant Matrix: (Units=GPa)
#
#
# Indices 1 2 3 4 5 6 
#
# 1 166.5160 24.8212 64.8027 0.0000 0.0000 0.0000
# 2 24.8212 24.8941 13.8176 0.0000 0.0000 0.0000
# 3 64.8027 13.8176 110.1351 0.0000 0.0000 0.0000
# 4 0.0000 0.0000 0.0000 22.0745 0.0000 0.0000
# 5 0.0000 0.0000 0.0000 0.0000 21.8491 0.0000
# 6 0.0000 0.0000 0.0000 0.0000 0.0000 20.6256
#
#
#
# Elastic Compliance Matrix: (Units=1/GPa)
#
#
# Indices 1 2 3 4 5 6 
#
# 1 0.008594 -0.006193 -0.004280 0.000000 0.000000 0.000000
# 2 -0.006193 0.047640 -0.002333 0.000000 0.000000 0.000000
# 3 -0.004280 -0.002333 0.011891 0.000000 0.000000 0.000000
# 4 0.000000 0.000000 0.000000 0.045301 0.000000 0.000000
# 5 0.000000 0.000000 0.000000 0.000000 0.045768 0.000000
# 6 0.000000 0.000000 0.000000 0.000000 0.000000 0.048484
#
#
# Mechanical properties :
#
#
# Convention : Reuss Voigt Hill
#
# Bulk Modulus (GPa) = 23.52219 56.49203 40.00711
# Shear Modulus (GPa) = 20.20519 26.11674 23.16097
#
# Velocity S-wave (km/s) = 3.45545 3.92856 3.69957
# Velocity P-wave (km/s) = 5.46082 7.34587 6.47234
#
# Compressibility (1/GPa) = 0.04251305
#
# Stress axis : x y z
#
# Youngs Moduli (GPa) = 116.35804 20.99065 84.10021
#
# Poissons Ratio (x) = 0.13001 0.35992
# Poissons Ratio (y) = 0.72066 0.19619
# Poissons Ratio (z) = 0.49798 0.04897
#
# Static dielectric constant tensor:
#      x y z
#    x 1.614400 0.000000 0.000000 
#    y 0.000000 1.609520 0.000000 
#    z 0.000000 0.000000 1.562600 
# 
# From -- ./inp_files/25574.got.cif
#   From: 2010.05.17/outbox.cif.g08.bks.cpg/sg71_13_cif.got.tgz:25574.got - 2010.06.03 16:22:01.
