data_PCOD9518800
_publ_section_title
;
Structure prediction by ZEFSAII (Michael W. Deem and Ramdas Pophale) SiO2 
 PCOD9518800
Probable space group: I M M M
;
_chemical_formula_sum "Si O2"
_cell_formula_units_Z 120
_cell_length_a 14.186924
_cell_length_b 23.692178
_cell_length_c 22.474440
_cell_angle_alpha 90.000000
_cell_angle_beta 90.000000
_cell_angle_gamma 90.000000
_cell_volume 7554.089190
_symmetry_space_group_name_H-M "I M M M"
_symmetry_group_IT_number 71
_symmetry_cell_setting 'orthorhombic'
loop_
_space_group_symop_operation_xyz
x,y,z
-x,-y,z
x,-y,-z
-x,y,-z
-x,-y,-z
x,y,-z
-x,y,z
x,-y,z
1/2+x,1/2+y,1/2+z
1/2-x,1/2-y,1/2+z
1/2+x,1/2-y,1/2-z
1/2-x,1/2+y,1/2-z
1/2-x,1/2-y,1/2-z
1/2+x,1/2+y,1/2-z
1/2-x,1/2+y,1/2+z
1/2+x,1/2-y,1/2+z
loop_
_atom_site_type_symbol
_atom_site_label
_atom_site_fract_x
_atom_site_fract_y
_atom_site_fract_z
Si Si1 0.270549 0.217166 0.161069
Si Si2 0.113159 0.062708 0.693869
Si Si3 0.384483 0.934927 0.500000
Si Si4 0.890089 0.232610 0.069758
Si Si5 0.385327 0.600023 0.934343
Si Si6 0.387855 0.270131 0.066021
Si Si7 0.243163 0.658882 0.219413
Si Si8 0.889120 0.637710 0.888821
O O1 0.178092 0.206653 0.120104
O O2 0.352745 0.226151 0.113778
O O3 0.265392 0.279077 0.192305
O O4 0.286360 0.172234 0.212951
O O5 0.138025 0.064720 0.623531
O O6 0.170011 0.115264 0.720489
O O7 0.000000 0.070810 0.699267
O O8 0.136290 0.000000 0.717138
O O9 0.500000 0.930008 0.500000
O O10 0.352631 0.904399 0.560353
O O11 0.359484 0.000000 0.500000
O O12 0.881486 0.299767 0.082564
O O13 0.000000 0.217411 0.078711
O O14 0.867214 0.221779 0.000000
O O15 0.500000 0.600533 0.936810
O O16 0.354944 0.665177 0.923359
O O17 0.353136 0.581890 0.000000
O O18 0.500000 0.272480 0.066330
O O19 0.354886 0.254915 0.000000
O O20 0.166084 0.635078 0.173247
O O21 0.000000 0.627094 0.878409
#
# Coordination Sequence:
#
# PCOD9518800 Si02
#       8
#    16  16   8  16  16  16  16  16
#     4  10  19  30  45  66  93 126 156 196 243 288
#     4  10  20  34  49  63  88 127 166 206 240 268
#     4   9  16  28  48  68  85 113 155 199 235 263
#     4   9  16  28  46  65  87 118 152 189 237 288
#     4   8  14  26  43  62  86 119 157 195 232 265
#     4   9  16  27  46  70  96 125 153 187 237 291
#     4  10  21  32  44  66  93 122 163 202 239 287
#     4   9  17  31  46  62  87 118 152 193 240 283
#
# _framework density 15.885436
#
# number of rings (size 3 to 8) (size 9 to 14) (size 15 to 20)
#    0.000    2.733    2.000    1.200    0.000    1.867 
#    1.200    4.000    0.000    0.000    0.000    0.000 
#    0.000    2.133    0.000    8.800    0.000    0.000 
#
# Total GULP energy -334236.575427 kJ/mol
# GULP energy per Si atom -5570.609590 kJ/mol
# Density = 1.584928 g / cm^3
# Si number density = 15.885436 Si / 1000 Ang^3
#
#
#
# Elastic Constant Matrix: (Units=GPa)
#
#
# Indices 1 2 3 4 5 6 
#
# 1 47.6481 22.7820 27.7860 0.0000 0.0000 0.0000
# 2 22.7820 47.2786 43.7284 0.0000 0.0000 0.0000
# 3 27.7860 43.7284 104.8640 0.0000 0.0000 0.0000
# 4 0.0000 0.0000 0.0000 10.7258 0.0000 0.0000
# 5 0.0000 0.0000 0.0000 0.0000 17.8692 0.0000
# 6 0.0000 0.0000 0.0000 0.0000 0.0000 13.0939
#
#
#
# Elastic Compliance Matrix: (Units=1/GPa)
#
#
# Indices 1 2 3 4 5 6 
#
# 1 0.027801 -0.010716 -0.002898 0.000000 0.000000 0.000000
# 2 -0.010716 0.038561 -0.013241 0.000000 0.000000 0.000000
# 3 -0.002898 -0.013241 0.015825 0.000000 0.000000 0.000000
# 4 0.000000 0.000000 0.000000 0.093233 0.000000 0.000000
# 5 0.000000 0.000000 0.000000 0.000000 0.055962 0.000000
# 6 0.000000 0.000000 0.000000 0.000000 0.000000 0.076372
#
#
# Mechanical properties :
#
#
# Convention : Reuss Voigt Hill
#
# Bulk Modulus (GPa) = 35.11434 43.15371 39.13403
# Shear Modulus (GPa) = 13.47870 15.37074 14.42472
#
# Velocity S-wave (km/s) = 2.91605 3.11400 3.01665
# Velocity P-wave (km/s) = 5.78710 6.33671 6.06813
#
# Compressibility (1/GPa) = 0.02847839
#
# Stress axis : x y z
#
# Youngs Moduli (GPa) = 35.97035 25.93279 63.18976
#
# Poissons Ratio (x) = 0.27790 0.18311
# Poissons Ratio (y) = 0.38546 0.83667
# Poissons Ratio (z) = 0.10424 0.34337
#
# Static dielectric constant tensor:
#      x y z
#    x 1.590990 0.000000 0.000000 
#    y 0.000000 1.514820 0.000000 
#    z 0.000000 0.000000 1.539560 
# 
# From -- ./inp_files/53523.got.cif
#   From: 2010.05.17/outbox.cif.g08.bks.cpg/sg71_27_cif.got.tgz:53523.got - 2010.06.03 16:22:01.
