data_PCOD9518954
_publ_section_title
;
Structure prediction by ZEFSAII (Michael W. Deem and Ramdas Pophale) SiO2 
 PCOD9518954
Probable space group: I M M M
;
_chemical_formula_sum "Si O2"
_cell_formula_units_Z 88
_cell_length_a 18.119070
_cell_length_b 29.597366
_cell_length_c 7.606967
_cell_angle_alpha 90.000000
_cell_angle_beta 90.000000
_cell_angle_gamma 90.000000
_cell_volume 4079.439513
_symmetry_space_group_name_H-M "I M M M"
_symmetry_group_IT_number 71
_symmetry_cell_setting 'orthorhombic'
loop_
_space_group_symop_operation_xyz
x,y,z
-x,-y,z
x,-y,-z
-x,y,-z
-x,-y,-z
x,y,-z
-x,y,z
x,-y,z
1/2+x,1/2+y,1/2+z
1/2-x,1/2-y,1/2+z
1/2+x,1/2-y,1/2-z
1/2-x,1/2+y,1/2-z
1/2-x,1/2-y,1/2-z
1/2+x,1/2+y,1/2-z
1/2-x,1/2+y,1/2+z
1/2+x,1/2-y,1/2+z
loop_
_atom_site_type_symbol
_atom_site_label
_atom_site_fract_x
_atom_site_fract_y
_atom_site_fract_z
Si Si1 0.415480 0.951333 0.785903
Si Si2 0.086230 0.712774 0.284516
Si Si3 0.686802 0.870562 0.786233
Si Si4 0.084029 0.000000 0.794170
Si Si5 0.912064 0.188155 0.701675
Si Si6 0.350451 0.402731 0.798121
O O1 0.500000 0.948307 0.729568
O O2 0.369312 0.909281 0.727619
O O3 0.384822 0.000000 0.731434
O O4 0.415752 0.950605 0.000000
O O5 0.084868 0.713266 0.500000
O O6 0.147651 0.676179 0.231683
O O7 0.108475 0.763005 0.221571
O O8 0.000000 0.702858 0.233350
O O9 0.765674 0.887360 0.718895
O O10 0.691644 0.869759 0.000000
O O11 0.128752 0.953437 0.758876
O O12 0.000000 0.000000 0.714883
O O13 0.073930 0.000000 0.000000
O O14 0.882567 0.188218 0.500000
O O15 0.890773 0.140638 0.787788
O O16 0.000000 0.189613 0.692163
O O17 0.374424 0.403056 0.000000
#
# Coordination Sequence:
#
# PCOD9518954 Si02
#       6
#    16  16  16   8  16  16
#     4   8  14  25  43  68  96 130 176 226 270 312
#     4   8  14  27  50  79 108 142 189 238 275 312
#     4  10  19  30  49  78 111 145 181 228 275 315
#     4  11  25  45  67  87 106 131 172 229 283 326
#     4   8  15  30  52  76 103 138 183 231 273 319
#     4  11  23  37  55  81 112 148 182 216 268 336
#
# _framework density 21.571591999999999
#
# number of rings (size 3 to 8) (size 9 to 14) (size 15 to 20)
#    0.000    2.818    0.000    3.545    1.273    4.364 
#    0.000    0.000    0.000    3.273    0.000    6.364 
#    0.000    0.000    0.000    0.000    0.000    0.000 
#
# Total GULP energy -245038.253280 kJ/mol
# GULP energy per Si atom -5569.051211 kJ/mol
# Density = 2.152249 g / cm^3
# Si number density = 21.571592 Si / 1000 Ang^3
#
#
#
# Elastic Constant Matrix: (Units=GPa)
#
#
# Indices 1 2 3 4 5 6 
#
# 1 69.1058 89.9523 -4.7542 0.0001 0.0000 -0.0001
# 2 89.9523 245.9731 10.4121 -0.0003 0.0000 0.0001
# 3 -4.7542 10.4121 43.1025 -0.0042 0.0013 0.0004
# 4 0.0001 -0.0003 -0.0042 -13.1283 0.0000 0.0002
# 5 0.0000 0.0000 0.0013 0.0000 -1.1995 -0.0006
# 6 -0.0001 0.0001 0.0004 0.0002 -0.0006 68.7928
#
#
#
# Elastic Compliance Matrix: (Units=1/GPa)
#
#
# Indices 1 2 3 4 5 6 
#
# 1 0.028992 -0.010849 0.005819 -0.000002 0.000005 0.000000
# 2 -0.010849 0.008167 -0.003170 0.000001 -0.000003 0.000000
# 3 0.005819 -0.003170 0.024608 -0.000008 0.000027 0.000000
# 4 -0.000002 0.000001 -0.000008 -0.076171 -0.000002 0.000000
# 5 0.000005 -0.000003 0.000027 -0.000002 -0.833677 -0.000007
# 6 0.000000 0.000000 0.000000 0.000000 -0.000007 0.014536
#
#
# Mechanical properties :
#
#
# Convention : Reuss Voigt Hill
#
# Bulk Modulus (GPa) = 22.04207 61.04466 41.54337
# Shear Modulus (GPa) = -6.23424 28.39775 11.08176
#
# Velocity S-wave (km/s) = -1.70185 3.63222 2.26900
# Velocity P-wave (km/s) = 2.52558 6.77870 5.11514
#
# Compressibility (1/GPa) = 0.04536779
#
# Stress axis : x y z
#
# Youngs Moduli (GPa) = 34.49196 122.44328 40.63732
#
# Poissons Ratio (x) = 1.32836 -0.23645
# Poissons Ratio (y) = 0.37420 0.12880
# Poissons Ratio (z) = -0.20069 0.38808
#
# Static dielectric constant tensor:
#      x y z
#    x 1.785190 0.000000 0.000000 
#    y 0.000000 1.843560 0.000000 
#    z 0.000000 0.000000 1.810690 
# 
# From -- ./inp_files/8846.got.cif
#   From: 2010.05.17/outbox.cif.g08.bks.cpg/sg71_5_cif.got.tgz:8846.got - 2010.06.03 16:22:01.
