data_PCOD9518265
_publ_section_title
;
Structure prediction by ZEFSAII (Michael W. Deem and Ramdas Pophale) SiO2 
 PCOD9518265
Probable space group: I M M M
;
_chemical_formula_sum "Si O2"
_cell_formula_units_Z 120
_cell_length_a 21.288803
_cell_length_b 18.423649
_cell_length_c 17.909898
_cell_angle_alpha 90.000000
_cell_angle_beta 90.000000
_cell_angle_gamma 90.000000
_cell_volume 7024.574239
_symmetry_space_group_name_H-M "I M M M"
_symmetry_group_IT_number 71
_symmetry_cell_setting 'orthorhombic'
loop_
_space_group_symop_operation_xyz
x,y,z
-x,-y,z
x,-y,-z
-x,y,-z
-x,-y,-z
x,y,-z
-x,y,z
x,-y,z
1/2+x,1/2+y,1/2+z
1/2-x,1/2-y,1/2+z
1/2+x,1/2-y,1/2-z
1/2-x,1/2+y,1/2-z
1/2-x,1/2-y,1/2-z
1/2+x,1/2+y,1/2-z
1/2-x,1/2+y,1/2+z
1/2+x,1/2-y,1/2+z
loop_
_atom_site_type_symbol
_atom_site_label
_atom_site_fract_x
_atom_site_fract_y
_atom_site_fract_z
Si Si1 0.930147 0.079434 0.767062
Si Si2 0.000000 0.588668 0.091073
Si Si3 0.609156 0.827959 0.316204
Si Si4 0.194516 0.919898 0.141815
Si Si5 0.428630 0.730651 0.177609
Si Si6 0.260596 0.914390 0.700680
Si Si7 0.687397 0.681545 0.913527
Si Si8 0.184561 0.229320 0.919754
O O1 0.876631 0.079529 0.828435
O O2 0.924992 0.151390 0.717515
O O3 0.000000 0.081338 0.799951
O O4 0.923736 0.000000 0.727247
O O5 0.940750 0.627059 0.133517
O O6 0.000000 0.500000 0.101600
O O7 0.000000 0.600819 0.000000
O O8 0.583486 0.794644 0.238388
O O9 0.671658 0.876683 0.306467
O O10 0.635300 0.757291 0.359487
O O11 0.234920 0.901898 0.215784
O O12 0.197979 0.855198 0.084929
O O13 0.211820 0.000000 0.115069
O O14 0.500000 0.738654 0.148736
O O15 0.373269 0.724101 0.117140
O O16 0.209729 0.882449 0.642275
O O17 0.266494 0.000000 0.688888
O O18 0.748423 0.732805 0.909480
O O19 0.678810 0.658986 0.000000
O O20 0.159189 0.251679 0.000000
#
# Coordination Sequence:
#
# PCOD9518265 Si02
#       8
#    16   8  16  16  16  16  16  16
#     4   9  17  29  47  72 101 134 169 206 254 307
#     4  11  24  40  56  78 110 142 172 215 270 322
#     4  11  20  36  55  79 104 139 181 224 263 324
#     4  10  18  31  52  76 102 134 173 217 261 308
#     4  11  20  33  56  80 105 142 184 227 269 316
#     4  10  20  34  54  78 104 138 179 223 272 325
#     4  10  21  35  52  76 109 143 176 222 275 324
#     4  10  20  34  51  74 105 139 172 213 267 322
#
# _framework density 17.082885999999998
#
# number of rings (size 3 to 8) (size 9 to 14) (size 15 to 20)
#    0.000    1.800    3.333    1.600    0.000    3.467 
#    0.000    0.000    0.000    0.000    0.000    4.667 
#    0.000    0.533    0.000    0.000    0.000    0.000 
#
# Total GULP energy -334070.524627 kJ/mol
# GULP energy per Si atom -5567.842077 kJ/mol
# Density = 1.704400 g / cm^3
# Si number density = 17.082886 Si / 1000 Ang^3
#
#
#
# Elastic Constant Matrix: (Units=GPa)
#
#
# Indices 1 2 3 4 5 6 
#
# 1 82.6631 31.5898 31.2266 0.0000 0.0000 0.0000
# 2 31.5898 55.6169 28.7993 0.0000 0.0000 0.0000
# 3 31.2266 28.7993 35.7823 0.0000 0.0000 0.0000
# 4 0.0000 0.0000 0.0000 8.1135 0.0000 0.0000
# 5 0.0000 0.0000 0.0000 0.0000 9.5313 0.0000
# 6 0.0000 0.0000 0.0000 0.0000 0.0000 16.1112
#
#
#
# Elastic Compliance Matrix: (Units=1/GPa)
#
#
# Indices 1 2 3 4 5 6 
#
# 1 0.018475 -0.003678 -0.013163 0.000000 0.000000 0.000000
# 2 -0.003678 0.031560 -0.022192 0.000000 0.000000 0.000000
# 3 -0.013163 -0.022192 0.057295 0.000000 0.000000 0.000000
# 4 0.000000 0.000000 0.000000 0.123252 0.000000 0.000000
# 5 0.000000 0.000000 0.000000 0.000000 0.104917 0.000000
# 6 0.000000 0.000000 0.000000 0.000000 0.000000 0.062069
#
#
# Mechanical properties :
#
#
# Convention : Reuss Voigt Hill
#
# Bulk Modulus (GPa) = 34.16999 39.69930 36.93464
# Shear Modulus (GPa) = 10.30103 12.24763 11.27433
#
# Velocity S-wave (km/s) = 2.45828 2.68050 2.57179
# Velocity P-wave (km/s) = 5.30126 5.73322 5.52147
#
# Compressibility (1/GPa) = 0.02926545
#
# Stress axis : x y z
#
# Youngs Moduli (GPa) = 54.12683 31.68531 17.45353
#
# Poissons Ratio (x) = 0.11653 0.22974
# Poissons Ratio (y) = 0.19906 0.38733
# Poissons Ratio (z) = 0.71247 0.70316
#
# Static dielectric constant tensor:
#      x y z
#    x 1.575800 0.000000 0.000000 
#    y 0.000000 1.603570 0.000000 
#    z 0.000000 0.000000 1.588950 
# 
# From -- ./inp_files/46488.got.cif
#   From: 2010.05.17/outbox.cif.g08.bks.cpg/sg71_24_cif.got.tgz:46488.got - 2010.06.03 16:22:01.
