data_PCOD9518488
_publ_section_title
;
Structure prediction by ZEFSAII (Michael W. Deem and Ramdas Pophale) SiO2 
 PCOD9518488
Probable space group: I M M M
;
_chemical_formula_sum "Si O2"
_cell_formula_units_Z 96
_cell_length_a 8.345221
_cell_length_b 24.947803
_cell_length_c 23.298603
_cell_angle_alpha 90.000000
_cell_angle_beta 90.000000
_cell_angle_gamma 90.000000
_cell_volume 4850.651009
_symmetry_space_group_name_H-M "I M M M"
_symmetry_group_IT_number 71
_symmetry_cell_setting 'orthorhombic'
loop_
_space_group_symop_operation_xyz
x,y,z
-x,-y,z
x,-y,-z
-x,y,-z
-x,-y,-z
x,y,-z
-x,y,z
x,-y,z
1/2+x,1/2+y,1/2+z
1/2-x,1/2-y,1/2+z
1/2+x,1/2-y,1/2-z
1/2-x,1/2+y,1/2-z
1/2-x,1/2-y,1/2-z
1/2+x,1/2+y,1/2-z
1/2-x,1/2+y,1/2+z
1/2+x,1/2-y,1/2+z
loop_
_atom_site_type_symbol
_atom_site_label
_atom_site_fract_x
_atom_site_fract_y
_atom_site_fract_z
Si Si1 0.185989 0.916829 0.376473
Si Si2 0.695736 0.620216 0.685556
Si Si3 0.814941 0.183756 0.699561
Si Si4 0.318760 0.500000 0.680055
Si Si5 0.808899 0.229670 0.500000
Si Si6 0.195322 0.892496 0.500000
Si Si7 0.674970 0.000000 0.295261
Si Si8 0.690260 0.724255 0.621054
O O1 0.187092 0.855816 0.355217
O O2 0.240886 0.920967 0.441548
O O3 0.000000 0.934972 0.371292
O O4 0.299228 0.949464 0.335236
O O5 0.500000 0.616006 0.689325
O O6 0.746202 0.647852 0.746508
O O7 0.752998 0.559845 0.670056
O O8 0.740571 0.664137 0.638228
O O9 0.733138 0.237149 0.675250
O O10 0.000000 0.197083 0.713170
O O11 0.500000 0.500000 0.656678
O O12 0.315002 0.500000 0.749076
O O13 0.745481 0.168586 0.500000
O O14 0.758621 0.257070 0.440092
O O15 0.000000 0.227114 0.500000
O O16 0.000000 0.890590 0.500000
O O17 0.500000 0.000000 0.267602
O O18 0.500000 0.724969 0.615839
#
# Coordination Sequence:
#
# PCOD9518488 Si02
#       8
#    16  16  16   8   8   8   8  16
#     4  10  19  35  57  75  99 142 193 231 261 312
#     4   9  19  34  57  85 112 143 186 226 267 324
#     4  10  18  33  57  83 110 148 188 221 262 328
#     4  10  18  38  63  78 101 148 190 219 258 321
#     4  11  21  39  60  79 104 146 192 222 261 332
#     4   9  18  34  56  77  95 131 193 239 252 293
#     4  12  24  35  49  78 112 141 180 233 283 321
#     4  11  22  35  53  86 120 143 172 226 287 329
#
# _framework density 19.791156999999998
#
# number of rings (size 3 to 8) (size 9 to 14) (size 15 to 20)
#    0.000    1.833    3.333    2.000    0.000    1.000 
#    0.000    4.583    0.000    0.500    0.000    3.500 
#    0.000    0.000    0.000    0.000    0.000    0.000 
#
# Total GULP energy -267514.269154 kJ/mol
# GULP energy per Si atom -5573.213941 kJ/mol
# Density = 1.974611 g / cm^3
# Si number density = 19.791157 Si / 1000 Ang^3
#
#
#
# Elastic Constant Matrix: (Units=GPa)
#
#
# Indices 1 2 3 4 5 6 
#
# 1 29.7734 12.5392 3.6998 0.0000 0.0000 0.0000
# 2 12.5392 120.8047 7.1150 0.0000 0.0000 0.0000
# 3 3.6998 7.1150 36.2510 0.0000 0.0000 0.0000
# 4 0.0000 0.0000 0.0000 38.6374 0.0000 0.0000
# 5 0.0000 0.0000 0.0000 0.0000 18.4810 0.0000
# 6 0.0000 0.0000 0.0000 0.0000 0.0000 19.1453
#
#
#
# Elastic Compliance Matrix: (Units=1/GPa)
#
#
# Indices 1 2 3 4 5 6 
#
# 1 0.035427 -0.003505 -0.002928 0.000000 0.000000 0.000000
# 2 -0.003505 0.008721 -0.001354 0.000000 0.000000 0.000000
# 3 -0.002928 -0.001354 0.028150 0.000000 0.000000 0.000000
# 4 0.000000 0.000000 0.000000 0.025882 0.000000 0.000000
# 5 0.000000 0.000000 0.000000 0.000000 0.054110 0.000000
# 6 0.000000 0.000000 0.000000 0.000000 0.000000 0.052232
#
#
# Mechanical properties :
#
#
# Convention : Reuss Voigt Hill
#
# Bulk Modulus (GPa) = 17.62889 25.94855 21.78872
# Shear Modulus (GPa) = 20.92020 26.15106 23.53563
#
# Velocity S-wave (km/s) = 3.25475 3.63898 3.45222
# Velocity P-wave (km/s) = 4.80118 5.54941 5.18880
#
# Compressibility (1/GPa) = 0.05672508
#
# Stress axis : x y z
#
# Youngs Moduli (GPa) = 28.22711 114.66104 35.52397
#
# Poissons Ratio (x) = 0.40186 0.10401
# Poissons Ratio (y) = 0.09893 0.04810
# Poissons Ratio (z) = 0.08264 0.15526
#
# Static dielectric constant tensor:
#      x y z
#    x 1.716130 0.000000 0.000000 
#    y 0.000000 1.763200 0.000000 
#    z 0.000000 0.000000 1.693130 
# 
# From -- ./inp_files/57815.got.cif
#   From: 2010.05.17/outbox.cif.g08.bks.cpg/sg71_29_cif.got.tgz:57815.got - 2010.06.03 16:22:01.
