data_PCOD9518935
_publ_section_title
;
Structure prediction by ZEFSAII (Michael W. Deem and Ramdas Pophale) SiO2 
 PCOD9518935
Probable space group: I M M M
;
_chemical_formula_sum "Si O2"
_cell_formula_units_Z 120
_cell_length_a 26.143442
_cell_length_b 14.964963
_cell_length_c 13.957393
_cell_angle_alpha 90.000000
_cell_angle_beta 90.000000
_cell_angle_gamma 90.000000
_cell_volume 5460.629614
_symmetry_space_group_name_H-M "I M M M"
_symmetry_group_IT_number 71
_symmetry_cell_setting 'orthorhombic'
loop_
_space_group_symop_operation_xyz
x,y,z
-x,-y,z
x,-y,-z
-x,y,-z
-x,-y,-z
x,y,-z
-x,y,z
x,-y,z
1/2+x,1/2+y,1/2+z
1/2-x,1/2-y,1/2+z
1/2+x,1/2-y,1/2-z
1/2-x,1/2+y,1/2-z
1/2-x,1/2-y,1/2-z
1/2+x,1/2+y,1/2-z
1/2-x,1/2+y,1/2+z
1/2+x,1/2-y,1/2+z
loop_
_atom_site_type_symbol
_atom_site_label
_atom_site_fract_x
_atom_site_fract_y
_atom_site_fract_z
Si Si1 0.000000 0.599154 0.613218
Si Si2 0.805081 0.095581 0.688134
Si Si3 0.585829 0.603328 0.110374
Si Si4 0.297511 0.369484 0.605740
Si Si5 0.174711 0.603550 0.387251
Si Si6 0.100683 0.600645 0.113088
Si Si7 0.789185 0.664010 0.893523
Si Si8 0.912709 0.711757 0.707717
O O1 0.950393 0.651292 0.646127
O O2 0.000000 0.500000 0.654608
O O3 0.000000 0.593847 0.500000
O O4 0.852452 0.104855 0.618175
O O5 0.823568 0.096399 0.797783
O O6 0.759464 0.163250 0.674229
O O7 0.779792 0.000000 0.669223
O O8 0.570424 0.500000 0.134117
O O9 0.573415 0.686074 0.180779
O O10 0.570018 0.621036 0.000000
O O11 0.311394 0.403821 0.500000
O O12 0.236318 0.386085 0.617706
O O13 0.308752 0.264760 0.604549
O O14 0.161360 0.614332 0.500000
O O15 0.162129 0.500000 0.359665
O O16 0.143803 0.678321 0.327484
O O17 0.082302 0.500000 0.136216
O O18 0.162261 0.603289 0.127417
O O19 0.080433 0.677398 0.183671
O O20 0.091475 0.617140 0.000000
O O21 0.769766 0.641159 0.000000
#
# Coordination Sequence:
#
# PCOD9518935 Si02
#       8
#     8  16  16  16  16  16  16  16
#     4  11  24  40  62  96 126 145 178 230 288 353
#     4  11  20  30  47  70 100 140 183 229 279 325
#     4  10  22  39  59  85 115 148 191 240 288 342
#     4  10  20  32  46  69 103 143 190 238 277 322
#     4  10  19  30  48  76 110 150 192 232 284 352
#     4  10  21  36  56  85 120 157 197 237 277 331
#     4  10  19  31  48  70 100 141 188 236 280 320
#     4  12  22  39  63  83 112 152 187 228 290 349
#
# _framework density 21.975489
#
# number of rings (size 3 to 8) (size 9 to 14) (size 15 to 20)
#    0.000    1.533    0.000    6.400    0.000    4.267 
#    0.000    0.667    0.000    3.600    0.000    0.000 
#    0.000    1.067    0.000    0.000    0.000    0.000 
#
# Total GULP energy -334915.487777 kJ/mol
# GULP energy per Si atom -5581.924796 kJ/mol
# Density = 2.192547 g / cm^3
# Si number density = 21.975489 Si / 1000 Ang^3
#
#
#
# Elastic Constant Matrix: (Units=GPa)
#
#
# Indices 1 2 3 4 5 6 
#
# 1 17.5634 4.0627 9.3374 0.0000 0.0000 0.0000
# 2 4.0627 153.0589 44.0329 0.0000 0.0000 0.0000
# 3 9.3374 44.0329 118.4511 0.0000 0.0000 0.0000
# 4 0.0000 0.0000 0.0000 23.7532 0.0000 0.0000
# 5 0.0000 0.0000 0.0000 0.0000 15.6485 0.0000
# 6 0.0000 0.0000 0.0000 0.0000 0.0000 40.8108
#
#
#
# Elastic Compliance Matrix: (Units=1/GPa)
#
#
# Indices 1 2 3 4 5 6 
#
# 1 0.059436 -0.000257 -0.004590 0.000000 0.000000 0.000000
# 2 -0.000257 0.007317 -0.002700 0.000000 0.000000 0.000000
# 3 -0.004590 -0.002700 0.009808 0.000000 0.000000 0.000000
# 4 0.000000 0.000000 0.000000 0.042100 0.000000 0.000000
# 5 0.000000 0.000000 0.000000 0.000000 0.063904 0.000000
# 6 0.000000 0.000000 0.000000 0.000000 0.000000 0.024503
#
#
# Mechanical properties :
#
#
# Convention : Reuss Voigt Hill
#
# Bulk Modulus (GPa) = 16.26872 44.88213 30.57543
# Shear Modulus (GPa) = 20.60582 31.48521 26.04551
#
# Velocity S-wave (km/s) = 3.06547 3.78926 3.44642
# Velocity P-wave (km/s) = 4.46639 6.29387 5.45717
#
# Compressibility (1/GPa) = 0.06146765
#
# Stress axis : x y z
#
# Youngs Moduli (GPa) = 16.82474 136.66935 101.96080
#
# Poissons Ratio (x) = 0.03516 0.46797
# Poissons Ratio (y) = 0.00433 0.27526
# Poissons Ratio (z) = 0.07722 0.36897
#
# Static dielectric constant tensor:
#      x y z
#    x 1.792820 0.000000 0.000000 
#    y 0.000000 1.909110 0.000000 
#    z 0.000000 0.000000 1.867790 
# 
# From -- ./inp_files/41142.got.cif
#   From: 2010.05.17/outbox.cif.g08.bks.cpg/sg71_21_cif.got.tgz:41142.got - 2010.06.03 16:22:01.
