data_PCOD9518777
_publ_section_title
;
Structure prediction by ZEFSAII (Michael W. Deem and Ramdas Pophale) SiO2 
 PCOD9518777
Probable space group: I M M M
;
_chemical_formula_sum "Si O2"
_cell_formula_units_Z 96
_cell_length_a 22.235706
_cell_length_b 20.962840
_cell_length_c 9.311788
_cell_angle_alpha 90.000000
_cell_angle_beta 90.000000
_cell_angle_gamma 90.000000
_cell_volume 4340.443653
_symmetry_space_group_name_H-M "I M M M"
_symmetry_group_IT_number 71
_symmetry_cell_setting 'orthorhombic'
loop_
_space_group_symop_operation_xyz
x,y,z
-x,-y,z
x,-y,-z
-x,y,-z
-x,-y,-z
x,y,-z
-x,y,z
x,-y,z
1/2+x,1/2+y,1/2+z
1/2-x,1/2-y,1/2+z
1/2+x,1/2-y,1/2-z
1/2-x,1/2+y,1/2-z
1/2-x,1/2-y,1/2-z
1/2+x,1/2+y,1/2-z
1/2-x,1/2+y,1/2+z
1/2+x,1/2-y,1/2+z
loop_
_atom_site_type_symbol
_atom_site_label
_atom_site_fract_x
_atom_site_fract_y
_atom_site_fract_z
Si Si1 0.827728 0.752557 0.661064
Si Si2 0.433831 0.089827 0.334985
Si Si3 0.311732 0.625749 0.327923
Si Si4 0.932714 0.256230 0.156942
Si Si5 0.068973 0.077070 0.668155
Si Si6 0.316100 0.901010 0.167051
O O1 0.811623 0.771310 0.500000
O O2 0.799537 0.801461 0.774436
O O3 0.897537 0.763451 0.702027
O O4 0.820940 0.676588 0.675309
O O5 0.430218 0.069109 0.500000
O O6 0.500000 0.071223 0.276637
O O7 0.434450 0.167035 0.340221
O O8 0.373452 0.072417 0.251077
O O9 0.313629 0.623177 0.500000
O O10 0.374681 0.602570 0.260858
O O11 0.252123 0.585912 0.281795
O O12 0.000000 0.232227 0.158370
O O13 0.905409 0.238410 0.000000
O O14 0.077144 0.094634 0.500000
O O15 0.000000 0.095085 0.710804
O O16 0.071126 0.000000 0.676451
O O17 0.320852 0.918686 0.000000
#
# Coordination Sequence:
#
# PCOD9518777 Si02
#       6
#    16  16  16  16  16  16
#     4  10  19  30  44  63  92 132 173 209 248 295
#     4   8  14  25  42  63  87 121 165 206 241 278
#     4  11  22  34  50  74 102 130 165 207 253 311
#     4   8  14  25  39  55  79 113 154 200 245 284
#     4   9  20  41  65  84 102 126 162 214 274 331
#     4   9  19  32  45  67 100 137 175 213 250 293
#
# _framework density 22.117553999999998
#
# number of rings (size 3 to 8) (size 9 to 14) (size 15 to 20)
#    0.000    2.833    0.000    3.000    0.000    4.000 
#    0.000    4.167    0.000    0.000    0.000    0.000 
#    0.000    0.667    0.000    7.333    0.000    5.667 
#
# Total GULP energy -267450.646799 kJ/mol
# GULP energy per Si atom -5571.888475 kJ/mol
# Density = 2.206721 g / cm^3
# Si number density = 22.117554 Si / 1000 Ang^3
#
#
#
# Elastic Constant Matrix: (Units=GPa)
#
#
# Indices 1 2 3 4 5 6 
#
# 1 180.7121 19.3589 69.0488 0.0000 0.0000 0.0000
# 2 19.3589 73.8611 22.8472 0.0000 0.0000 0.0000
# 3 69.0488 22.8472 79.3531 0.0000 0.0000 0.0000
# 4 0.0000 0.0000 0.0000 -70.6128 0.0000 0.0000
# 5 0.0000 0.0000 0.0000 0.0000 33.9716 0.0000
# 6 0.0000 0.0000 0.0000 0.0000 0.0000 -54.9562
#
#
#
# Elastic Compliance Matrix: (Units=1/GPa)
#
#
# Indices 1 2 3 4 5 6 
#
# 1 0.008290 0.000064 -0.007232 0.000000 0.000000 0.000000
# 2 0.000064 0.014863 -0.004335 0.000000 0.000000 0.000000
# 3 -0.007232 -0.004335 0.020143 0.000000 0.000000 0.000000
# 4 0.000000 0.000000 0.000000 -0.014162 0.000000 0.000000
# 5 0.000000 0.000000 0.000000 0.000000 0.029436 0.000000
# 6 0.000000 0.000000 0.000000 0.000000 0.000000 -0.018196
#
#
# Mechanical properties :
#
#
# Convention : Reuss Voigt Hill
#
# Bulk Modulus (GPa) = 49.28518 61.82621 55.55570
# Shear Modulus (GPa) = 71.28168 -3.47473 33.90348
#
# Velocity S-wave (km/s) = 5.68318 -1.25477 3.91944
# Velocity P-wave (km/s) = 8.08680 5.09067 6.75689
#
# Compressibility (1/GPa) = 0.02029008
#
# Stress axis : x y z
#
# Youngs Moduli (GPa) = 120.62553 67.28072 49.64481
#
# Poissons Ratio (x) = -0.00432 0.35904
# Poissons Ratio (y) = -0.00775 0.21522
# Poissons Ratio (z) = 0.87238 0.29168
#
# Static dielectric constant tensor:
#      x y z
#    x 1.884250 0.000000 0.000000 
#    y 0.000000 1.867660 0.000000 
#    z 0.000000 0.000000 1.768830 
# 
# From -- ./inp_files/10939.got.cif
#   From: 2010.05.17/outbox.cif.g08.bks.cpg/sg71_6_cif.got.tgz:10939.got - 2010.06.03 16:22:01.
