data_PCOD9518413
_publ_section_title
;
Structure prediction by ZEFSAII (Michael W. Deem and Ramdas Pophale) SiO2 
 PCOD9518413
Probable space group: I M M M
;
_chemical_formula_sum "Si O2"
_cell_formula_units_Z 72
_cell_length_a 30.962632
_cell_length_b 7.427745
_cell_length_c 15.556447
_cell_angle_alpha 90.000000
_cell_angle_beta 90.000000
_cell_angle_gamma 90.000000
_cell_volume 3577.711117
_symmetry_space_group_name_H-M "I M M M"
_symmetry_group_IT_number 71
_symmetry_cell_setting 'orthorhombic'
loop_
_space_group_symop_operation_xyz
x,y,z
-x,-y,z
x,-y,-z
-x,y,-z
-x,-y,-z
x,y,-z
-x,y,z
x,-y,z
1/2+x,1/2+y,1/2+z
1/2-x,1/2-y,1/2+z
1/2+x,1/2-y,1/2-z
1/2-x,1/2+y,1/2-z
1/2-x,1/2-y,1/2-z
1/2+x,1/2+y,1/2-z
1/2-x,1/2+y,1/2+z
1/2+x,1/2-y,1/2+z
loop_
_atom_site_type_symbol
_atom_site_label
_atom_site_fract_x
_atom_site_fract_y
_atom_site_fract_z
Si Si1 0.950220 0.285358 0.735393
Si Si2 0.447815 0.500000 0.095028
Si Si3 0.634701 0.781284 0.323668
Si Si4 0.221530 0.707695 0.500000
Si Si5 0.292810 0.783961 0.192163
Si Si6 0.177908 0.280863 0.000000
O O1 0.947952 0.500000 0.721190
O O2 0.914803 0.233548 0.805889
O O3 0.000000 0.240899 0.757119
O O4 0.937448 0.176326 0.650193
O O5 0.500000 0.500000 0.088015
O O6 0.428977 0.500000 0.000000
O O7 0.666105 0.719574 0.246916
O O8 0.653539 0.721416 0.414276
O O9 0.636637 0.000000 0.324020
O O10 0.206495 0.500000 0.500000
O O11 0.208926 0.785938 0.593840
O O12 0.273430 0.712680 0.500000
O O13 0.250000 0.750000 0.250000
O O14 0.295635 0.000000 0.185559
O O15 0.179893 0.500000 0.000000
#
# Coordination Sequence:
#
# PCOD9518413 Si02
#       6
#    16   8  16   8  16   8
#     4   9  18  35  57  79 109 148 184 221 272 327
#     4   9  18  34  56  81 109 139 181 232 274 319
#     4   9  18  33  53  78 104 138 180 221 268 320
#     4  10  20  32  48  75 104 135 172 214 268 321
#     4  10  19  33  51  72 103 136 172 217 265 314
#     4  10  18  32  55  76 103 138 177 220 264 316
#
# _framework density 20.124597999999999
#
# number of rings (size 3 to 8) (size 9 to 14) (size 15 to 20)
#    0.000    2.556    2.222    0.000    0.000    0.444 
#    6.000    2.778    0.000    3.333    0.000    2.333 
#    0.000    0.000    0.000    0.000    0.000    0.000 
#
# Total GULP energy -200775.893488 kJ/mol
# GULP energy per Si atom -5577.108152 kJ/mol
# Density = 2.007879 g / cm^3
# Si number density = 20.124598 Si / 1000 Ang^3
#
#
#
# Elastic Constant Matrix: (Units=GPa)
#
#
# Indices 1 2 3 4 5 6 
#
# 1 107.2823 7.2336 71.7181 0.0000 0.0000 0.0000
# 2 7.2336 62.1045 13.0563 0.0000 0.0000 0.0000
# 3 71.7181 13.0563 186.8074 0.0000 0.0000 0.0000
# 4 0.0000 0.0000 0.0000 14.4908 0.0000 0.0000
# 5 0.0000 0.0000 0.0000 0.0000 16.4718 0.0000
# 6 0.0000 0.0000 0.0000 0.0000 0.0000 13.9063
#
#
#
# Elastic Compliance Matrix: (Units=1/GPa)
#
#
# Indices 1 2 3 4 5 6 
#
# 1 0.012552 -0.000456 -0.004787 0.000000 0.000000 0.000000
# 2 -0.000456 0.016359 -0.000968 0.000000 0.000000 0.000000
# 3 -0.004787 -0.000968 0.007259 0.000000 0.000000 0.000000
# 4 0.000000 0.000000 0.000000 0.069009 0.000000 0.000000
# 5 0.000000 0.000000 0.000000 0.000000 0.060710 0.000000
# 6 0.000000 0.000000 0.000000 0.000000 0.000000 0.071910
#
#
# Mechanical properties :
#
#
# Convention : Reuss Voigt Hill
#
# Bulk Modulus (GPa) = 42.11051 60.02335 51.06693
# Shear Modulus (GPa) = 19.36962 26.58619 22.97790
#
# Velocity S-wave (km/s) = 3.10576 3.63861 3.38269
# Velocity P-wave (km/s) = 5.81647 6.89516 6.37866
#
# Compressibility (1/GPa) = 0.02374704
#
# Stress axis : x y z
#
# Youngs Moduli (GPa) = 79.66807 61.13013 137.76715
#
# Poissons Ratio (x) = 0.02785 0.65950
# Poissons Ratio (y) = 0.03630 0.13342
# Poissons Ratio (z) = 0.38138 0.05920
#
# Static dielectric constant tensor:
#      x y z
#    x 1.695130 0.000000 0.000000 
#    y 0.000000 1.709050 0.000000 
#    z 0.000000 0.000000 1.721950 
# 
# From -- ./inp_files/16435.got.cif
#   From: 2010.05.17/outbox.cif.g08.bks.cpg/sg71_9_cif.got.tgz:16435.got - 2010.06.03 16:22:01.
