data_PCOD9518110
_publ_section_title
;
Structure prediction by ZEFSAII (Michael W. Deem and Ramdas Pophale) SiO2 
 PCOD9518110
Probable space group: I M M M
;
_chemical_formula_sum "Si O2"
_cell_formula_units_Z 72
_cell_length_a 16.145596
_cell_length_b 9.276228
_cell_length_c 22.676314
_cell_angle_alpha 90.000000
_cell_angle_beta 90.000000
_cell_angle_gamma 90.000000
_cell_volume 3396.236756
_symmetry_space_group_name_H-M "I M M M"
_symmetry_group_IT_number 71
_symmetry_cell_setting 'orthorhombic'
loop_
_space_group_symop_operation_xyz
x,y,z
-x,-y,z
x,-y,-z
-x,y,-z
-x,-y,-z
x,y,-z
-x,y,z
x,-y,z
1/2+x,1/2+y,1/2+z
1/2-x,1/2-y,1/2+z
1/2+x,1/2-y,1/2-z
1/2-x,1/2+y,1/2-z
1/2-x,1/2-y,1/2-z
1/2+x,1/2+y,1/2-z
1/2-x,1/2+y,1/2+z
1/2+x,1/2-y,1/2+z
loop_
_atom_site_type_symbol
_atom_site_label
_atom_site_fract_x
_atom_site_fract_y
_atom_site_fract_z
Si Si1 0.000000 0.673853 0.395965
Si Si2 0.834031 0.334350 0.264462
Si Si3 0.500000 0.673380 0.230481
Si Si4 0.159328 0.660834 0.929536
Si Si5 0.500000 0.663825 0.572350
Si Si6 0.821952 0.338857 0.406106
O O1 0.000000 0.776180 0.338439
O O2 0.086456 0.698533 0.429092
O O3 0.000000 0.500000 0.379768
O O4 0.834251 0.500000 0.242813
O O5 0.750000 0.250000 0.250000
O O6 0.915795 0.246302 0.245083
O O7 0.834542 0.342276 0.335618
O O8 0.500000 0.500000 0.235922
O O9 0.155904 0.500000 0.905006
O O10 0.082945 0.756055 0.907507
O O11 0.247955 0.731987 0.919216
O O12 0.148377 0.652312 0.000000
O O13 0.500000 0.500000 0.592746
O O14 0.500000 0.662383 0.500000
O O15 0.798836 0.500000 0.426141
#
# Coordination Sequence:
#
# PCOD9518110 Si02
#       6
#     8  16   8  16   8  16
#     4   8  16  32  51  72  99 131 169 210 247 289
#     4  10  20  35  54  77 104 133 168 210 253 298
#     4  10  18  30  51  76 101 134 171 204 246 301
#     4  10  20  33  50  74 103 132 164 205 250 295
#     4   9  17  31  52  73  94 127 168 204 243 297
#     4   9  18  33  53  75 100 131 167 206 247 294
#
# _framework density 21.199935
#
# number of rings (size 3 to 8) (size 9 to 14) (size 15 to 20)
#    0.000    2.556    0.000    4.000    0.000    7.111 
#    0.000    1.667    0.000   10.000    0.000    0.000 
#    0.000    0.000    0.000    0.000    0.000    0.000 
#
# Total GULP energy -200910.338586 kJ/mol
# GULP energy per Si atom -5580.842739 kJ/mol
# Density = 2.115168 g / cm^3
# Si number density = 21.199935 Si / 1000 Ang^3
#
#
#
# Elastic Constant Matrix: (Units=GPa)
#
#
# Indices 1 2 3 4 5 6 
#
# 1 234.1927 145.6696 4.4030 0.0000 0.0000 0.0000
# 2 145.6696 212.5493 5.2248 0.0000 0.0000 0.0000
# 3 4.4030 5.2248 44.2408 0.0000 0.0000 0.0000
# 4 0.0000 0.0000 0.0000 14.6417 0.0000 0.0000
# 5 0.0000 0.0000 0.0000 0.0000 24.4670 0.0000
# 6 0.0000 0.0000 0.0000 0.0000 0.0000 32.1569
#
#
#
# Elastic Compliance Matrix: (Units=1/GPa)
#
#
# Indices 1 2 3 4 5 6 
#
# 1 0.007444 -0.005098 -0.000139 0.000000 0.000000 0.000000
# 2 -0.005098 0.008210 -0.000462 0.000000 0.000000 0.000000
# 3 -0.000139 -0.000462 0.022672 0.000000 0.000000 0.000000
# 4 0.000000 0.000000 0.000000 0.068298 0.000000 0.000000
# 5 0.000000 0.000000 0.000000 0.000000 0.040871 0.000000
# 6 0.000000 0.000000 0.000000 0.000000 0.000000 0.031098
#
#
# Mechanical properties :
#
#
# Convention : Reuss Voigt Hill
#
# Bulk Modulus (GPa) = 37.13659 89.06420 63.10039
# Shear Modulus (GPa) = 25.12987 36.63215 30.88101
#
# Velocity S-wave (km/s) = 3.44666 4.16136 3.82076
# Velocity P-wave (km/s) = 5.77881 8.07415 7.02092
#
# Compressibility (1/GPa) = 0.02692762
#
# Stress axis : x y z
#
# Youngs Moduli (GPa) = 134.34341 121.80170 44.10737
#
# Poissons Ratio (x) = 0.62095 0.00612
# Poissons Ratio (y) = 0.68489 0.02039
# Poissons Ratio (z) = 0.01864 0.05630
#
# Static dielectric constant tensor:
#      x y z
#    x 1.771780 0.000000 0.000000 
#    y 0.000000 1.735940 0.000000 
#    z 0.000000 0.000000 1.825900 
# 
# From -- ./inp_files/6531.got.cif
#   From: 2010.05.17/outbox.cif.g08.bks.cpg/sg71_4_cif.got.tgz:6531.got - 2010.06.03 16:22:01.
