data_PCOD9518875
_publ_section_title
;
Structure prediction by ZEFSAII (Michael W. Deem and Ramdas Pophale) SiO2 
 PCOD9518875
Probable space group: I M M M
;
_chemical_formula_sum "Si O2"
_cell_formula_units_Z 80
_cell_length_a 28.305724
_cell_length_b 7.478760
_cell_length_c 18.384944
_cell_angle_alpha 90.000000
_cell_angle_beta 90.000000
_cell_angle_gamma 90.000000
_cell_volume 3891.940352
_symmetry_space_group_name_H-M "I M M M"
_symmetry_group_IT_number 71
_symmetry_cell_setting 'orthorhombic'
loop_
_space_group_symop_operation_xyz
x,y,z
-x,-y,z
x,-y,-z
-x,y,-z
-x,-y,-z
x,y,-z
-x,y,z
x,-y,z
1/2+x,1/2+y,1/2+z
1/2-x,1/2-y,1/2+z
1/2+x,1/2-y,1/2-z
1/2-x,1/2+y,1/2-z
1/2-x,1/2-y,1/2-z
1/2+x,1/2+y,1/2-z
1/2-x,1/2+y,1/2+z
1/2+x,1/2-y,1/2+z
loop_
_atom_site_type_symbol
_atom_site_label
_atom_site_fract_x
_atom_site_fract_y
_atom_site_fract_z
Si Si1 0.344545 0.291459 0.220652
Si Si2 0.919318 0.718811 0.078667
Si Si3 0.787545 0.219073 0.581222
Si Si4 0.683534 0.204880 0.618920
Si Si5 0.448955 0.783855 0.262452
O O1 0.332497 0.500000 0.227011
O O2 0.321261 0.221946 0.146782
O O3 0.323866 0.205889 0.294069
O O4 0.401213 0.274101 0.222703
O O5 0.919700 0.500000 0.079882
O O6 0.864875 0.780980 0.086522
O O7 0.944372 0.774130 0.153020
O O8 0.938347 0.773550 0.000000
O O9 0.801800 0.273223 0.500000
O O10 0.733967 0.281322 0.597039
O O11 0.787611 0.000000 0.582560
O O12 0.684621 0.000000 0.593415
O O13 0.500000 0.725082 0.233586
O O14 0.448157 0.000000 0.261995
#
# Coordination Sequence:
#
# PCOD9518875 Si02
#       5
#    16  16  16  16  16
#     4  10  19  30  47  70  95 121 149 187 232 275
#     4   8  13  22  40  67  92 112 142 184 220 250
#     4   9  17  29  47  71  95 120 154 193 227 261
#     4   9  16  28  47  68  93 126 157 181 211 259
#     4   9  18  32  49  67  87 116 155 196 234 273
#
# _framework density 20.555298000000001
#
# number of rings (size 3 to 8) (size 9 to 14) (size 15 to 20)
#    0.000    3.000    0.000    3.000    0.000    3.200 
#    0.000    3.000    0.000   20.400    0.000    9.800 
#    0.000    0.000    0.000    0.000    0.000    0.000 
#
# Total GULP energy -223132.495028 kJ/mol
# GULP energy per Si atom -5578.312376 kJ/mol
# Density = 2.050851 g / cm^3
# Si number density = 20.555298 Si / 1000 Ang^3
#
#
#
# Elastic Constant Matrix: (Units=GPa)
#
#
# Indices 1 2 3 4 5 6 
#
# 1 85.5290 -5.6669 37.0338 0.0000 0.0000 0.0000
# 2 -5.6669 58.5044 -4.4059 0.0000 0.0000 0.0000
# 3 37.0338 -4.4059 92.1792 0.0000 0.0000 0.0000
# 4 0.0000 0.0000 0.0000 7.0519 0.0000 0.0000
# 5 0.0000 0.0000 0.0000 0.0000 -1.3920 0.0000
# 6 0.0000 0.0000 0.0000 0.0000 0.0000 -13.8116
#
#
#
# Elastic Compliance Matrix: (Units=1/GPa)
#
#
# Indices 1 2 3 4 5 6 
#
# 1 0.014207 0.000950 -0.005662 0.000000 0.000000 0.000000
# 2 0.000950 0.017218 0.000441 0.000000 0.000000 0.000000
# 3 -0.005662 0.000441 0.013144 0.000000 0.000000 0.000000
# 4 0.000000 0.000000 0.000000 0.141806 0.000000 0.000000
# 5 0.000000 0.000000 0.000000 0.000000 -0.718370 0.000000
# 6 0.000000 0.000000 0.000000 0.000000 0.000000 -0.072403
#
#
# Mechanical properties :
#
#
# Convention : Reuss Voigt Hill
#
# Bulk Modulus (GPa) = 27.75721 32.23718 29.99719
# Shear Modulus (GPa) = -8.56389 12.31976 1.87793
#
# Velocity S-wave (km/s) = -2.04336 2.45081 0.95686
# Velocity P-wave (km/s) = 2.82239 4.87092 3.98069
#
# Compressibility (1/GPa) = 0.03602668
#
# Stress axis : x y z
#
# Youngs Moduli (GPa) = 70.38989 58.07891 76.07816
#
# Poissons Ratio (x) = -0.05516 0.43077
# Poissons Ratio (y) = -0.06685 -0.03358
# Poissons Ratio (z) = 0.39856 -0.02564
#
# Static dielectric constant tensor:
#      x y z
#    x 1.733870 0.000000 0.000000 
#    y 0.000000 1.819240 0.000000 
#    z 0.000000 0.000000 1.713190 
# 
# From -- ./inp_files/8318.got.cif
#   From: 2010.05.17/outbox.cif.g08.bks.cpg/sg71_5_cif.got.tgz:8318.got - 2010.06.03 16:22:01.
