data_PCOD9518484
_publ_section_title
;
Structure prediction by ZEFSAII (Michael W. Deem and Ramdas Pophale) SiO2 
 PCOD9518484
Probable space group: I M M M
;
_chemical_formula_sum "Si O2"
_cell_formula_units_Z 96
_cell_length_a 28.030893
_cell_length_b 13.050745
_cell_length_c 12.418792
_cell_angle_alpha 90.000000
_cell_angle_beta 90.000000
_cell_angle_gamma 90.000000
_cell_volume 4543.092620
_symmetry_space_group_name_H-M "I M M M"
_symmetry_group_IT_number 71
_symmetry_cell_setting 'orthorhombic'
loop_
_space_group_symop_operation_xyz
x,y,z
-x,-y,z
x,-y,-z
-x,y,-z
-x,-y,-z
x,y,-z
-x,y,z
x,-y,z
1/2+x,1/2+y,1/2+z
1/2-x,1/2-y,1/2+z
1/2+x,1/2-y,1/2-z
1/2-x,1/2+y,1/2-z
1/2-x,1/2-y,1/2-z
1/2+x,1/2+y,1/2-z
1/2-x,1/2+y,1/2+z
1/2+x,1/2-y,1/2+z
loop_
_atom_site_type_symbol
_atom_site_label
_atom_site_fract_x
_atom_site_fract_y
_atom_site_fract_z
Si Si1 0.859138 0.320861 0.376912
Si Si2 0.169265 0.882205 0.716867
Si Si3 0.554710 0.154936 0.500000
Si Si4 0.415597 0.615132 0.370948
Si Si5 0.664350 0.126143 0.500000
Si Si6 0.221130 0.378764 0.786105
Si Si7 0.948128 0.328305 0.231239
O O1 0.860952 0.351397 0.500000
O O2 0.855516 0.197382 0.363590
O O3 0.812598 0.360769 0.315534
O O4 0.905308 0.354400 0.309750
O O5 0.138727 0.878538 0.827110
O O6 0.223962 0.847033 0.729670
O O7 0.168042 0.000000 0.679395
O O8 0.500000 0.205587 0.500000
O O9 0.612454 0.179131 0.500000
O O10 0.553549 0.109501 0.619732
O O11 0.420407 0.622740 0.500000
O O12 0.432718 0.500000 0.340924
O O13 0.441112 0.710941 0.313534
O O14 0.694038 0.158030 0.606048
O O15 0.658059 0.000000 0.500000
O O16 0.224547 0.500000 0.802423
O O17 0.000000 0.338626 0.281903
#
# Coordination Sequence:
#
# PCOD9518484 Si02
#       7
#    16  16   8  16   8  16  16
#     4  11  23  37  56  82 110 148 190 225 268 322
#     4   9  20  37  55  80 114 150 186 223 267 323
#     4  10  18  33  57  80 104 135 173 229 289 328
#     4   9  17  30  50  78 110 141 177 224 275 327
#     4  10  20  35  58  83 107 138 177 229 287 329
#     4  10  21  38  58  82 112 146 184 227 275 326
#     4  10  20  35  54  77 105 140 180 225 280 330
#
# _framework density 21.130980999999998
#
# number of rings (size 3 to 8) (size 9 to 14) (size 15 to 20)
#    0.000    2.167    2.500    0.500    1.167    2.167 
#    0.000    2.500    0.000    0.500    0.000    5.833 
#    0.000    0.000    0.000    0.000    0.000    0.000 
#
# Total GULP energy -267395.069500 kJ/mol
# GULP energy per Si atom -5570.730615 kJ/mol
# Density = 2.108289 g / cm^3
# Si number density = 21.130981 Si / 1000 Ang^3
#
#
#
# Elastic Constant Matrix: (Units=GPa)
#
#
# Indices 1 2 3 4 5 6 
#
# 1 145.4741 1.7672 46.6241 0.0000 0.0000 0.0000
# 2 1.7672 55.5385 -15.3413 0.0000 0.0000 0.0000
# 3 46.6241 -15.3413 122.3516 0.0000 0.0000 0.0000
# 4 0.0000 0.0000 0.0000 0.1921 0.0000 0.0000
# 5 0.0000 0.0000 0.0000 0.0000 17.1801 0.0000
# 6 0.0000 0.0000 0.0000 0.0000 0.0000 7.9056
#
#
#
# Elastic Compliance Matrix: (Units=1/GPa)
#
#
# Indices 1 2 3 4 5 6 
#
# 1 0.007897 -0.001121 -0.003150 0.000000 0.000000 0.000000
# 2 -0.001121 0.018811 0.002786 0.000000 0.000000 0.000000
# 3 -0.003150 0.002786 0.009723 0.000000 0.000000 0.000000
# 4 0.000000 0.000000 0.000000 5.205474 0.000000 0.000000
# 5 0.000000 0.000000 0.000000 0.000000 0.058207 0.000000
# 6 0.000000 0.000000 0.000000 0.000000 0.000000 0.126493
#
#
# Mechanical properties :
#
#
# Convention : Reuss Voigt Hill
#
# Bulk Modulus (GPa) = 29.88643 43.27380 36.58011
# Shear Modulus (GPa) = 0.91899 24.40984 12.66442
#
# Velocity S-wave (km/s) = 0.66019 3.40246 2.45078
# Velocity P-wave (km/s) = 3.84126 5.99658 5.03558
#
# Compressibility (1/GPa) = 0.03346000
#
# Stress axis : x y z
#
# Youngs Moduli (GPa) = 126.62614 53.16105 102.85050
#
# Poissons Ratio (x) = 0.05961 0.32398
# Poissons Ratio (y) = 0.14200 -0.28654
# Poissons Ratio (z) = 0.39887 -0.14810
#
# Static dielectric constant tensor:
#      x y z
#    x 1.770420 0.000000 0.000000 
#    y 0.000000 1.922300 0.000000 
#    z 0.000000 0.000000 1.716690 
# 
# From -- ./inp_files/29992.got.cif
#   From: 2010.05.17/outbox.cif.g08.bks.cpg/sg71_15_cif.got.tgz:29992.got - 2010.06.03 16:22:01.
