data_PCOD9518119
_publ_section_title
;
Structure prediction by ZEFSAII (Michael W. Deem and Ramdas Pophale) SiO2 
 PCOD9518119
Probable space group: I M M M
;
_chemical_formula_sum "Si O2"
_cell_formula_units_Z 80
_cell_length_a 26.749255
_cell_length_b 9.279124
_cell_length_c 15.281604
_cell_angle_alpha 90.000000
_cell_angle_beta 90.000000
_cell_angle_gamma 90.000000
_cell_volume 3793.041642
_symmetry_space_group_name_H-M "I M M M"
_symmetry_group_IT_number 71
_symmetry_cell_setting 'orthorhombic'
loop_
_space_group_symop_operation_xyz
x,y,z
-x,-y,z
x,-y,-z
-x,y,-z
-x,-y,-z
x,y,-z
-x,y,z
x,-y,z
1/2+x,1/2+y,1/2+z
1/2-x,1/2-y,1/2+z
1/2+x,1/2-y,1/2-z
1/2-x,1/2+y,1/2-z
1/2-x,1/2-y,1/2-z
1/2+x,1/2+y,1/2-z
1/2-x,1/2+y,1/2+z
1/2+x,1/2-y,1/2+z
loop_
_atom_site_type_symbol
_atom_site_label
_atom_site_fract_x
_atom_site_fract_y
_atom_site_fract_z
Si Si1 0.293901 0.162259 0.894892
Si Si2 0.500000 0.172646 0.654746
Si Si3 0.599259 0.334994 0.644765
Si Si4 0.199119 0.661498 0.895615
Si Si5 0.108071 0.838120 0.355529
Si Si6 0.000000 0.826892 0.658099
O O1 0.248899 0.261455 0.860480
O O2 0.347784 0.230049 0.876627
O O3 0.289846 0.000000 0.860653
O O4 0.288571 0.155894 0.000000
O O5 0.550578 0.243841 0.617288
O O6 0.500000 0.224810 0.756509
O O7 0.500000 0.000000 0.647220
O O8 0.596514 0.500000 0.613457
O O9 0.650270 0.257490 0.618534
O O10 0.600807 0.340020 0.750604
O O11 0.192506 0.500000 0.860048
O O12 0.205556 0.649718 0.000000
O O13 0.052533 0.802852 0.390220
O O14 0.122090 0.000000 0.384229
O O15 0.000000 0.000000 0.683139
#
# Coordination Sequence:
#
# PCOD9518119 Si02
#       6
#    16   8  16  16  16   8
#     4  10  21  36  53  74 102 137 174 212 258 310
#     4  10  18  30  51  78 107 138 171 208 253 302
#     4  10  20  35  55  79 107 137 171 211 255 305
#     4  10  21  37  56  77 102 134 172 213 258 308
#     4   9  18  33  54  78 103 134 172 213 254 300
#     4   8  16  32  51  74 105 137 171 210 255 307
#
# _framework density 21.091252999999998
#
# number of rings (size 3 to 8) (size 9 to 14) (size 15 to 20)
#    0.000    2.400    0.000    3.900    0.000    7.200 
#    0.000    1.000    0.000    6.000    0.000    0.000 
#    0.000    0.000    0.000    0.000    0.000    0.000 
#
# Total GULP energy -223296.642876 kJ/mol
# GULP energy per Si atom -5582.416072 kJ/mol
# Density = 2.104325 g / cm^3
# Si number density = 21.091253 Si / 1000 Ang^3
#
#
#
# Elastic Constant Matrix: (Units=GPa)
#
#
# Indices 1 2 3 4 5 6 
#
# 1 191.4897 116.4758 0.4949 0.0000 0.0000 0.0000
# 2 116.4758 195.9987 5.8357 0.0000 0.0000 0.0000
# 3 0.4949 5.8357 35.2033 0.0000 0.0000 0.0000
# 4 0.0000 0.0000 0.0000 17.0100 0.0000 0.0000
# 5 0.0000 0.0000 0.0000 0.0000 31.1192 0.0000
# 6 0.0000 0.0000 0.0000 0.0000 0.0000 38.3748
#
#
#
# Elastic Compliance Matrix: (Units=1/GPa)
#
#
# Indices 1 2 3 4 5 6 
#
# 1 0.008195 -0.004891 0.000696 0.000000 0.000000 0.000000
# 2 -0.004891 0.008046 -0.001265 0.000000 0.000000 0.000000
# 3 0.000696 -0.001265 0.028606 0.000000 0.000000 0.000000
# 4 0.000000 0.000000 0.000000 0.058789 0.000000 0.000000
# 5 0.000000 0.000000 0.000000 0.000000 0.032135 0.000000
# 6 0.000000 0.000000 0.000000 0.000000 0.000000 0.026059
#
#
# Mechanical properties :
#
#
# Convention : Reuss Voigt Hill
#
# Bulk Modulus (GPa) = 29.47500 74.25604 51.86552
# Shear Modulus (GPa) = 27.16503 37.29316 32.22910
#
# Velocity S-wave (km/s) = 3.59273 4.20954 3.91331
# Velocity P-wave (km/s) = 5.58709 7.67531 6.71290
#
# Compressibility (1/GPa) = 0.03392706
#
# Stress axis : x y z
#
# Youngs Moduli (GPa) = 122.01954 124.28085 34.95729
#
# Poissons Ratio (x) = 0.60785 -0.02432
# Poissons Ratio (y) = 0.59679 0.04422
# Poissons Ratio (z) = -0.08487 0.15723
#
# Static dielectric constant tensor:
#      x y z
#    x 1.754150 0.000000 0.000000 
#    y 0.000000 1.739990 0.000000 
#    z 0.000000 0.000000 1.801740 
# 
# From -- ./inp_files/10225.got.cif
#   From: 2010.05.17/outbox.cif.g08.bks.cpg/sg71_6_cif.got.tgz:10225.got - 2010.06.03 16:22:01.
