data_PCOD9518844
_publ_section_title
;
Structure prediction by ZEFSAII (Michael W. Deem and Ramdas Pophale) SiO2 
 PCOD9518844
Probable space group: I M M M
;
_chemical_formula_sum "Si O2"
_cell_formula_units_Z 104
_cell_length_a 21.368492
_cell_length_b 21.520264
_cell_length_c 14.081696
_cell_angle_alpha 90.000000
_cell_angle_beta 90.000000
_cell_angle_gamma 90.000000
_cell_volume 6475.546610
_symmetry_space_group_name_H-M "I M M M"
_symmetry_group_IT_number 71
_symmetry_cell_setting 'orthorhombic'
loop_
_space_group_symop_operation_xyz
x,y,z
-x,-y,z
x,-y,-z
-x,y,-z
-x,-y,-z
x,y,-z
-x,y,z
x,-y,z
1/2+x,1/2+y,1/2+z
1/2-x,1/2-y,1/2+z
1/2+x,1/2-y,1/2-z
1/2-x,1/2+y,1/2-z
1/2-x,1/2-y,1/2-z
1/2+x,1/2+y,1/2-z
1/2-x,1/2+y,1/2+z
1/2+x,1/2-y,1/2+z
loop_
_atom_site_type_symbol
_atom_site_label
_atom_site_fract_x
_atom_site_fract_y
_atom_site_fract_z
Si Si1 0.251570 0.708978 0.892797
Si Si2 0.243803 0.653839 0.308609
Si Si3 0.000000 0.769335 0.615461
Si Si4 0.369290 0.426635 0.710411
Si Si5 0.000000 0.924636 0.890770
Si Si6 0.367836 0.929435 0.885413
Si Si7 0.000000 0.627303 0.384172
Si Si8 0.886398 0.145220 0.607399
O O1 0.227118 0.671193 0.801061
O O2 0.248244 0.781338 0.864716
O O3 0.323367 0.685732 0.895348
O O4 0.226104 0.698723 0.000000
O O5 0.308154 0.614146 0.315864
O O6 0.186789 0.615011 0.350420
O O7 0.939781 0.808528 0.644042
O O8 0.000000 0.766620 0.500000
O O9 0.000000 0.698672 0.648602
O O10 0.358758 0.500000 0.692890
O O11 0.434182 0.406993 0.658808
O O12 0.379199 0.411880 0.821636
O O13 0.000000 0.000000 0.889118
O O14 0.000000 0.903925 0.000000
O O15 0.436338 0.906291 0.854260
O O16 0.356963 0.000000 0.853822
O O17 0.367721 0.928552 0.000000
O O18 0.000000 0.627248 0.500000
O O19 0.901470 0.125566 0.500000
#
# Coordination Sequence:
#
# PCOD9518844 Si02
#       8
#    16  16   8  16   8  16   8  16
#     4   9  18  32  48  68  96 126 156 195 243 286
#     4  10  19  31  50  73  95 123 160 200 238 281
#     4   9  15  24  42  66  90 119 156 189 219 270
#     4  10  20  33  48  67  92 123 160 199 238 283
#     4   9  19  34  47  59  83 121 159 194 232 269
#     4  10  19  30  46  71 102 130 156 190 235 290
#     4   9  17  29  46  68  97 130 155 183 233 292
#     4   9  17  29  46  69  95 122 153 192 238 285
#
# _framework density 16.060420000000001
#
# number of rings (size 3 to 8) (size 9 to 14) (size 15 to 20)
#    0.000    2.538    0.000    2.538    0.000    4.923 
#    0.000    1.538    0.000    4.154    0.000    0.538 
#    0.000    1.231    0.000    0.000    0.000    0.000 
#
# Total GULP energy -289553.227343 kJ/mol
# GULP energy per Si atom -5568.331295 kJ/mol
# Density = 1.602387 g / cm^3
# Si number density = 16.060420 Si / 1000 Ang^3
#
#
#
# Elastic Constant Matrix: (Units=GPa)
#
#
# Indices 1 2 3 4 5 6 
#
# 1 81.0195 34.6093 24.9839 0.0000 0.0000 0.0000
# 2 34.6093 54.9516 10.5647 0.0000 0.0000 0.0000
# 3 24.9839 10.5647 58.3398 0.0000 0.0000 0.0000
# 4 0.0000 0.0000 0.0000 14.7533 0.0000 0.0000
# 5 0.0000 0.0000 0.0000 0.0000 18.1208 0.0000
# 6 0.0000 0.0000 0.0000 0.0000 0.0000 15.3382
#
#
#
# Elastic Compliance Matrix: (Units=1/GPa)
#
#
# Indices 1 2 3 4 5 6 
#
# 1 0.018778 -0.010651 -0.006113 0.000000 0.000000 0.000000
# 2 -0.010651 0.024896 0.000053 0.000000 0.000000 0.000000
# 3 -0.006113 0.000053 0.019749 0.000000 0.000000 0.000000
# 4 0.000000 0.000000 0.000000 0.067781 0.000000 0.000000
# 5 0.000000 0.000000 0.000000 0.000000 0.055185 0.000000
# 6 0.000000 0.000000 0.000000 0.000000 0.000000 0.065197
#
#
# Mechanical properties :
#
#
# Convention : Reuss Voigt Hill
#
# Bulk Modulus (GPa) = 33.33238 37.18074 35.25656
# Shear Modulus (GPa) = 16.94871 17.91934 17.43403
#
# Velocity S-wave (km/s) = 3.25208 3.34390 3.29831
# Velocity P-wave (km/s) = 5.90769 6.17331 6.04196
#
# Compressibility (1/GPa) = 0.03000085
#
# Stress axis : x y z
#
# Youngs Moduli (GPa) = 53.25517 40.16729 50.63527
#
# Poissons Ratio (x) = 0.42783 0.30951
# Poissons Ratio (y) = 0.56723 -0.00268
# Poissons Ratio (z) = 0.32553 -0.00213
#
# Static dielectric constant tensor:
#      x y z
#    x 1.528370 0.000000 0.000000 
#    y 0.000000 1.526830 0.000000 
#    z 0.000000 0.000000 1.561160 
# 
# From -- ./inp_files/38386.got.cif
#   From: 2010.05.17/outbox.cif.g08.bks.cpg/sg71_20_cif.got.tgz:38386.got - 2010.06.03 16:22:01.
