data_PCOD9518428
_publ_section_title
;
Structure prediction by ZEFSAII (Michael W. Deem and Ramdas Pophale) SiO2 
 PCOD9518428
Probable space group: I M M M
;
_chemical_formula_sum "Si O2"
_cell_formula_units_Z 104
_cell_length_a 18.922077
_cell_length_b 18.156506
_cell_length_c 17.004049
_cell_angle_alpha 90.000000
_cell_angle_beta 90.000000
_cell_angle_gamma 90.000000
_cell_volume 5841.890748
_symmetry_space_group_name_H-M "I M M M"
_symmetry_group_IT_number 71
_symmetry_cell_setting 'orthorhombic'
loop_
_space_group_symop_operation_xyz
x,y,z
-x,-y,z
x,-y,-z
-x,y,-z
-x,-y,-z
x,y,-z
-x,y,z
x,-y,z
1/2+x,1/2+y,1/2+z
1/2-x,1/2-y,1/2+z
1/2+x,1/2-y,1/2-z
1/2-x,1/2+y,1/2-z
1/2-x,1/2-y,1/2-z
1/2+x,1/2+y,1/2-z
1/2-x,1/2+y,1/2+z
1/2+x,1/2-y,1/2+z
loop_
_atom_site_type_symbol
_atom_site_label
_atom_site_fract_x
_atom_site_fract_y
_atom_site_fract_z
Si Si1 0.706195 0.311629 0.202810
Si Si2 0.646466 0.156343 0.641727
Si Si3 0.789755 0.083886 0.156956
Si Si4 0.116463 0.084085 0.000000
Si Si5 0.580167 0.212620 0.806273
Si Si6 0.919272 0.252526 0.000000
Si Si7 0.082009 0.500000 0.094604
Si Si8 0.366808 0.085760 0.905901
O O1 0.750000 0.250000 0.250000
O O2 0.768103 0.344130 0.148164
O O3 0.683837 0.367414 0.271426
O O4 0.636997 0.274091 0.166569
O O5 0.610400 0.182687 0.723132
O O6 0.620718 0.213706 0.575351
O O7 0.618947 0.074576 0.623557
O O8 0.836307 0.087539 0.078608
O O9 0.710119 0.103368 0.131042
O O10 0.787955 0.000000 0.184047
O O11 0.078163 0.163402 0.000000
O O12 0.084213 0.000000 0.000000
O O13 0.500000 0.239565 0.797203
O O14 0.582315 0.144414 0.866326
O O15 0.000000 0.280629 0.000000
O O16 0.000000 0.500000 0.119959
O O17 0.083700 0.500000 0.000000
O O18 0.383385 0.000000 0.888182
O O19 0.363586 0.092784 0.000000
#
# Coordination Sequence:
#
# PCOD9518428 Si02
#       8
#    16  16  16   8  16   8   8  16
#     4  10  20  36  55  83 109 144 191 234 269 328
#     4  11  23  37  59  84 112 158 192 228 280 343
#     4  10  18  32  55  84 111 141 182 231 275 325
#     4  10  20  33  57  83 110 151 190 228 278 332
#     4  11  23  38  56  80 113 150 190 234 285 332
#     4  12  24  38  56  82 119 153 186 230 283 331
#     4  11  22  38  56  84 124 150 186 232 279 338
#     4  10  20  34  55  82 114 145 181 225 281 340
#
# _framework density 17.802455999999999
#
# number of rings (size 3 to 8) (size 9 to 14) (size 15 to 20)
#    0.000    1.462    4.615    3.231    2.154    0.769 
#    0.000    0.769    0.000    1.385    0.000    0.000 
#    0.000    0.615    0.000    0.000    0.000    0.000 
#
# Total GULP energy -289987.334835 kJ/mol
# GULP energy per Si atom -5576.679516 kJ/mol
# Density = 1.776194 g / cm^3
# Si number density = 17.802456 Si / 1000 Ang^3
#
#
#
# Elastic Constant Matrix: (Units=GPa)
#
#
# Indices 1 2 3 4 5 6 
#
# 1 125.0505 50.1323 23.8014 0.0000 0.0000 0.0000
# 2 50.1323 97.7683 37.1912 0.0000 0.0000 0.0000
# 3 23.8014 37.1912 51.3609 0.0000 0.0000 0.0000
# 4 0.0000 0.0000 0.0000 31.9830 0.0000 0.0000
# 5 0.0000 0.0000 0.0000 0.0000 8.2929 0.0000
# 6 0.0000 0.0000 0.0000 0.0000 0.0000 23.7261
#
#
#
# Elastic Compliance Matrix: (Units=1/GPa)
#
#
# Indices 1 2 3 4 5 6 
#
# 1 0.010127 -0.004703 -0.001288 0.000000 0.000000 0.000000
# 2 -0.004703 0.016301 -0.009624 0.000000 0.000000 0.000000
# 3 -0.001288 -0.009624 0.027036 0.000000 0.000000 0.000000
# 4 0.000000 0.000000 0.000000 0.031267 0.000000 0.000000
# 5 0.000000 0.000000 0.000000 0.000000 0.120585 0.000000
# 6 0.000000 0.000000 0.000000 0.000000 0.000000 0.042148
#
#
# Mechanical properties :
#
#
# Convention : Reuss Voigt Hill
#
# Bulk Modulus (GPa) = 44.97577 55.15882 50.06730
# Shear Modulus (GPa) = 17.47612 23.67074 20.57343
#
# Velocity S-wave (km/s) = 3.13656 3.65037 3.40317
# Velocity P-wave (km/s) = 6.19968 6.98699 6.60507
#
# Compressibility (1/GPa) = 0.02223419
#
# Stress axis : x y z
#
# Youngs Moduli (GPa) = 98.74293 61.34608 36.98805
#
# Poissons Ratio (x) = 0.28852 0.04762
# Poissons Ratio (y) = 0.46440 0.35598
# Poissons Ratio (z) = 0.12713 0.59041
#
# Static dielectric constant tensor:
#      x y z
#    x 1.637810 0.000000 0.000000 
#    y 0.000000 1.623790 0.000000 
#    z 0.000000 0.000000 1.767940 
# 
# From -- ./inp_files/46198.got.cif
#   From: 2010.05.17/outbox.cif.g08.bks.cpg/sg71_24_cif.got.tgz:46198.got - 2010.06.03 16:22:01.
