data_PCOD9518246
_publ_section_title
;
Structure prediction by ZEFSAII (Michael W. Deem and Ramdas Pophale) SiO2 
 PCOD9518246
Probable space group: I M M M
;
_chemical_formula_sum "Si O2"
_cell_formula_units_Z 104
_cell_length_a 24.896644
_cell_length_b 28.936333
_cell_length_c 8.985750
_cell_angle_alpha 90.000000
_cell_angle_beta 90.000000
_cell_angle_gamma 90.000000
_cell_volume 6473.492282
_symmetry_space_group_name_H-M "I M M M"
_symmetry_group_IT_number 71
_symmetry_cell_setting 'orthorhombic'
loop_
_space_group_symop_operation_xyz
x,y,z
-x,-y,z
x,-y,-z
-x,y,-z
-x,-y,-z
x,y,-z
-x,y,z
x,-y,z
1/2+x,1/2+y,1/2+z
1/2-x,1/2-y,1/2+z
1/2+x,1/2-y,1/2-z
1/2-x,1/2+y,1/2-z
1/2-x,1/2-y,1/2-z
1/2+x,1/2+y,1/2-z
1/2-x,1/2+y,1/2+z
1/2+x,1/2-y,1/2+z
loop_
_atom_site_type_symbol
_atom_site_label
_atom_site_fract_x
_atom_site_fract_y
_atom_site_fract_z
Si Si1 0.563751 0.500000 0.322207
Si Si2 0.937117 0.626980 0.677790
Si Si3 0.565235 0.222804 0.671170
Si Si4 0.436906 0.681827 0.178603
Si Si5 0.877271 0.087972 0.680401
Si Si6 0.736452 0.553268 0.819411
Si Si7 0.142737 0.554588 0.821125
O O1 0.500000 0.500000 0.292246
O O2 0.571789 0.500000 0.500000
O O3 0.590612 0.454651 0.251002
O O4 0.933834 0.627771 0.500000
O O5 0.918832 0.676504 0.742327
O O6 0.900903 0.586457 0.743719
O O7 0.000000 0.620462 0.719208
O O8 0.582329 0.220351 0.500000
O O9 0.500000 0.223534 0.675011
O O10 0.582280 0.270799 0.746110
O O11 0.500000 0.674690 0.215724
O O12 0.403515 0.636700 0.223018
O O13 0.433531 0.686969 0.000000
O O14 0.880428 0.083971 0.500000
O O15 0.814810 0.083182 0.725333
O O16 0.727201 0.500000 0.772764
O O17 0.796355 0.567217 0.772427
O O18 0.737640 0.552983 0.000000
O O19 0.135290 0.500000 0.789757
O O20 0.139178 0.560237 0.000000
#
# Coordination Sequence:
#
# PCOD9518246 Si02
#       7
#     8  16  16  16  16  16  16
#     4  11  23  33  41  63 101 135 162 203 256 297
#     4  10  20  33  50  73 101 129 156 192 237 282
#     4   9  17  30  49  70  93 125 161 194 234 288
#     4   9  17  28  44  70  99 124 156 199 244 288
#     4  10  18  31  52  71  91 126 169 207 242 291
#     4   8  14  28  50  72  92 120 163 207 240 276
#     4   9  18  32  51  74 100 129 160 195 235 283
#
# _framework density 16.065517
#
# number of rings (size 3 to 8) (size 9 to 14) (size 15 to 20)
#    0.000    2.692    0.769    2.538    0.000    5.231 
#    0.000    3.846    0.000    0.923    0.000    0.000 
#    0.000    0.000    0.000    0.000    0.000    0.000 
#
# Total GULP energy -289783.690972 kJ/mol
# GULP energy per Si atom -5572.763288 kJ/mol
# Density = 1.602895 g / cm^3
# Si number density = 16.065517 Si / 1000 Ang^3
#
#
#
# Elastic Constant Matrix: (Units=GPa)
#
#
# Indices 1 2 3 4 5 6 
#
# 1 103.2300 86.1069 41.5483 0.0000 0.0000 0.0000
# 2 86.1069 135.2483 53.7215 0.0000 0.0000 0.0000
# 3 41.5483 53.7215 35.4671 0.0000 0.0000 0.0000
# 4 0.0000 0.0000 0.0000 26.4739 0.0000 0.0000
# 5 0.0000 0.0000 0.0000 0.0000 14.1865 0.0000
# 6 0.0000 0.0000 0.0000 0.0000 0.0000 6.9648
#
#
#
# Elastic Compliance Matrix: (Units=1/GPa)
#
#
# Indices 1 2 3 4 5 6 
#
# 1 0.022427 -0.009646 -0.011661 0.000000 0.000000 0.000000
# 2 -0.009646 0.022710 -0.023098 0.000000 0.000000 0.000000
# 3 -0.011661 -0.023098 0.076842 0.000000 0.000000 0.000000
# 4 0.000000 0.000000 0.000000 0.037773 0.000000 0.000000
# 5 0.000000 0.000000 0.000000 0.000000 0.070490 0.000000
# 6 0.000000 0.000000 0.000000 0.000000 0.000000 0.143580
#
#
# Mechanical properties :
#
#
# Convention : Reuss Voigt Hill
#
# Bulk Modulus (GPa) = 30.14969 70.74433 50.44701
# Shear Modulus (GPa) = 10.55549 15.69627 13.12588
#
# Velocity S-wave (km/s) = 2.56604 3.12912 2.86146
# Velocity P-wave (km/s) = 5.25232 7.56212 6.51047
#
# Compressibility (1/GPa) = 0.03316784
#
# Stress axis : x y z
#
# Youngs Moduli (GPa) = 44.58972 44.03341 13.01378
#
# Poissons Ratio (x) = 0.42477 0.15175
# Poissons Ratio (y) = 0.43013 0.30059
# Poissons Ratio (z) = 0.51995 1.01709
#
# Static dielectric constant tensor:
#      x y z
#    x 1.537740 0.000000 0.000000 
#    y 0.000000 1.514450 0.000000 
#    z 0.000000 0.000000 1.539520 
# 
# From -- ./inp_files/15529.got.cif
#   From: 2010.05.17/outbox.cif.g08.bks.cpg/sg71_8_cif.got.tgz:15529.got - 2010.06.03 16:22:01.
