data_PCOD9518590
_publ_section_title
;
Structure prediction by ZEFSAII (Michael W. Deem and Ramdas Pophale) SiO2 
 PCOD9518590
Probable space group: I M M M
;
_chemical_formula_sum "Si O2"
_cell_formula_units_Z 72
_cell_length_a 19.830052
_cell_length_b 22.535092
_cell_length_c 9.344810
_cell_angle_alpha 90.000000
_cell_angle_beta 90.000000
_cell_angle_gamma 90.000000
_cell_volume 4175.934366
_symmetry_space_group_name_H-M "I M M M"
_symmetry_group_IT_number 71
_symmetry_cell_setting 'orthorhombic'
loop_
_space_group_symop_operation_xyz
x,y,z
-x,-y,z
x,-y,-z
-x,y,-z
-x,-y,-z
x,y,-z
-x,y,z
x,-y,z
1/2+x,1/2+y,1/2+z
1/2-x,1/2-y,1/2+z
1/2+x,1/2-y,1/2-z
1/2-x,1/2+y,1/2-z
1/2-x,1/2-y,1/2-z
1/2+x,1/2+y,1/2-z
1/2-x,1/2+y,1/2+z
1/2+x,1/2-y,1/2+z
loop_
_atom_site_type_symbol
_atom_site_label
_atom_site_fract_x
_atom_site_fract_y
_atom_site_fract_z
Si Si1 0.108011 0.135221 0.330864
Si Si2 0.500000 0.139516 0.328150
Si Si3 0.382169 0.070220 0.832156
Si Si4 0.500000 0.430658 0.343563
Si Si5 0.741908 0.431003 0.830327
Si Si6 0.000000 0.763476 0.669716
O O1 0.099942 0.124787 0.500000
O O2 0.064917 0.088734 0.242740
O O3 0.185432 0.118919 0.298368
O O4 0.067630 0.196778 0.303327
O O5 0.500000 0.136955 0.500000
O O6 0.564776 0.106726 0.260859
O O7 0.500000 0.206458 0.269095
O O8 0.307774 0.077870 0.765974
O O9 0.398365 0.000000 0.823168
O O10 0.384646 0.087140 0.000000
O O11 0.500000 0.500000 0.357300
O O12 0.500000 0.401835 0.500000
O O13 0.718173 0.500000 0.807626
O O14 0.758562 0.426747 0.000000
O O15 0.000000 0.748093 0.500000
#
# Coordination Sequence:
#
# PCOD9518590 Si02
#       6
#    16   8  16   8  16   8
#     4   9  18  33  53  74 101 141 182 220 261 307
#     4  12  24  38  58  80 103 135 176 220 265 314
#     4  10  21  37  58  84 111 137 166 206 262 322
#     4  10  19  27  40  68 103 138 178 223 267 309
#     4   9  17  31  53  82 113 141 172 213 261 314
#     4   9  19  36  55  76 104 140 184 227 264 304
#
# _framework density 17.24165
#
# number of rings (size 3 to 8) (size 9 to 14) (size 15 to 20)
#    0.000    2.333    0.000    3.667    0.000    7.111 
#    0.000    3.333    0.000    0.000    0.000    0.000 
#    0.000    0.000    0.000    0.000    0.000    0.000 
#
# Total GULP energy -200537.124356 kJ/mol
# GULP energy per Si atom -5570.475677 kJ/mol
# Density = 1.720241 g / cm^3
# Si number density = 17.241650 Si / 1000 Ang^3
#
#
#
# Elastic Constant Matrix: (Units=GPa)
#
#
# Indices 1 2 3 4 5 6 
#
# 1 109.0456 64.5530 79.3776 0.0000 0.0000 0.0000
# 2 64.5530 81.2115 78.3949 0.0000 0.0000 0.0000
# 3 79.3776 78.3949 95.7366 0.0000 0.0000 0.0000
# 4 0.0000 0.0000 0.0000 20.9707 0.0000 0.0000
# 5 0.0000 0.0000 0.0000 0.0000 48.0891 0.0000
# 6 0.0000 0.0000 0.0000 0.0000 0.0000 89.4928
#
#
#
# Elastic Compliance Matrix: (Units=1/GPa)
#
#
# Indices 1 2 3 4 5 6 
#
# 1 0.023137 0.000607 -0.019681 0.000000 0.000000 0.000000
# 2 0.000607 0.058781 -0.048636 0.000000 0.000000 0.000000
# 3 -0.019681 -0.048636 0.066589 0.000000 0.000000 0.000000
# 4 0.000000 0.000000 0.000000 0.047686 0.000000 0.000000
# 5 0.000000 0.000000 0.000000 0.000000 0.020795 0.000000
# 6 0.000000 0.000000 0.000000 0.000000 0.000000 0.011174
#
#
# Mechanical properties :
#
#
# Convention : Reuss Voigt Hill
#
# Bulk Modulus (GPa) = 76.41085 81.18274 78.79679
# Shear Modulus (GPa) = 13.58900 35.95507 24.77204
#
# Velocity S-wave (km/s) = 2.81045 4.57153 3.79457
# Velocity P-wave (km/s) = 7.41251 8.66329 8.06219
#
# Compressibility (1/GPa) = 0.01308715
#
# Stress axis : x y z
#
# Youngs Moduli (GPa) = 43.21989 17.01240 15.01743
#
# Poissons Ratio (x) = -0.01032 0.29555
# Poissons Ratio (y) = -0.02622 0.73039
# Poissons Ratio (z) = 0.85060 0.82742
#
# Static dielectric constant tensor:
#      x y z
#    x 1.618110 0.000000 0.000000 
#    y 0.000000 1.588750 0.000000 
#    z 0.000000 0.000000 1.581250 
# 
# From -- ./inp_files/10005.got.cif
#   From: 2010.05.17/outbox.cif.g08.bks.cpg/sg71_6_cif.got.tgz:10005.got - 2010.06.03 16:22:01.
