data_PCOD9518807
_publ_section_title
;
Structure prediction by ZEFSAII (Michael W. Deem and Ramdas Pophale) SiO2 
 PCOD9518807
Probable space group: I M M M
;
_chemical_formula_sum "Si O2"
_cell_formula_units_Z 104
_cell_length_a 8.882634
_cell_length_b 30.566606
_cell_length_c 23.409894
_cell_angle_alpha 90.000000
_cell_angle_beta 90.000000
_cell_angle_gamma 90.000000
_cell_volume 6356.066525
_symmetry_space_group_name_H-M "I M M M"
_symmetry_group_IT_number 71
_symmetry_cell_setting 'orthorhombic'
loop_
_space_group_symop_operation_xyz
x,y,z
-x,-y,z
x,-y,-z
-x,y,-z
-x,-y,-z
x,y,-z
-x,y,z
x,-y,z
1/2+x,1/2+y,1/2+z
1/2-x,1/2-y,1/2+z
1/2+x,1/2-y,1/2-z
1/2-x,1/2+y,1/2-z
1/2-x,1/2-y,1/2-z
1/2+x,1/2+y,1/2-z
1/2-x,1/2+y,1/2+z
1/2+x,1/2-y,1/2+z
loop_
_atom_site_type_symbol
_atom_site_label
_atom_site_fract_x
_atom_site_fract_y
_atom_site_fract_z
Si Si1 0.819459 0.102309 0.892555
Si Si2 0.819176 0.050817 0.220652
Si Si3 0.826392 0.280950 0.069363
Si Si4 0.679707 0.948198 0.000000
Si Si5 0.321696 0.190489 0.068064
Si Si6 0.818246 0.550350 0.842978
Si Si7 0.183877 0.622215 0.934240
O O1 0.773647 0.081009 0.832282
O O2 0.748996 0.074458 0.944197
O O3 0.763481 0.151802 0.899816
O O4 0.000000 0.100513 0.896902
O O5 0.744557 0.062596 0.280845
O O6 0.000000 0.053287 0.226485
O O7 0.780369 0.000000 0.208160
O O8 0.731555 0.238725 0.086450
O O9 0.769826 0.329185 0.086185
O O10 0.000000 0.275540 0.087719
O O11 0.826884 0.282110 0.000000
O O12 0.500000 0.941515 0.000000
O O13 0.710923 0.000000 0.000000
O O14 0.500000 0.185776 0.075117
O O15 0.287980 0.186084 0.000000
O O16 0.772647 0.500000 0.854785
O O17 0.767759 0.583954 0.891801
O O18 0.000000 0.551412 0.841193
O O19 0.000000 0.622954 0.934954
O O20 0.232032 0.615337 0.000000
#
# Coordination Sequence:
#
# PCOD9518807 Si02
#       7
#    16  16  16   8  16  16  16
#     4  11  21  33  51  70  91 124 166 204 239 290
#     4   9  19  35  51  67  90 124 165 203 237 277
#     4   8  14  26  45  66  91 126 163 193 228 281
#     4  11  23  35  47  69 101 129 153 195 254 297
#     4  10  19  30  45  68  99 125 151 195 250 295
#     4   9  17  29  48  74 100 128 162 197 237 285
#     4   8  14  26  46  74 104 130 158 195 236 281
#
# _framework density 16.362321000000001
#
# number of rings (size 3 to 8) (size 9 to 14) (size 15 to 20)
#    0.000    2.692    0.769    2.538    0.000    3.385 
#    0.000    3.846    0.000    2.308    0.000    2.154 
#    0.000    0.000    0.000    0.000    0.000    0.000 
#
# Total GULP energy -289826.225593 kJ/mol
# GULP energy per Si atom -5573.581261 kJ/mol
# Density = 1.632508 g / cm^3
# Si number density = 16.362321 Si / 1000 Ang^3
#
#
#
# Elastic Constant Matrix: (Units=GPa)
#
#
# Indices 1 2 3 4 5 6 
#
# 1 21.5258 38.9029 28.0286 0.0000 0.0000 0.0000
# 2 38.9029 142.3478 87.9520 0.0000 0.0000 0.0000
# 3 28.0286 87.9520 96.8188 0.0000 0.0000 0.0000
# 4 0.0000 0.0000 0.0000 13.1508 0.0000 0.0000
# 5 0.0000 0.0000 0.0000 0.0000 19.9656 0.0000
# 6 0.0000 0.0000 0.0000 0.0000 0.0000 17.2658
#
#
#
# Elastic Compliance Matrix: (Units=1/GPa)
#
#
# Indices 1 2 3 4 5 6 
#
# 1 0.095069 -0.020462 -0.008934 0.000000 0.000000 0.000000
# 2 -0.020462 0.020417 -0.012623 0.000000 0.000000 0.000000
# 3 -0.008934 -0.012623 0.024382 0.000000 0.000000 0.000000
# 4 0.000000 0.000000 0.000000 0.076041 0.000000 0.000000
# 5 0.000000 0.000000 0.000000 0.000000 0.050086 0.000000
# 6 0.000000 0.000000 0.000000 0.000000 0.000000 0.057918
#
#
# Mechanical properties :
#
#
# Convention : Reuss Voigt Hill
#
# Bulk Modulus (GPa) = 17.91168 63.38437 40.64802
# Shear Modulus (GPa) = 11.72165 17.13038 14.42601
#
# Velocity S-wave (km/s) = 2.67943 3.23916 2.97250
# Velocity P-wave (km/s) = 4.53245 7.26716 6.05619
#
# Compressibility (1/GPa) = 0.05582951
#
# Stress axis : x y z
#
# Youngs Moduli (GPa) = 10.51866 48.97965 41.01351
#
# Poissons Ratio (x) = 1.00221 0.36642
# Poissons Ratio (y) = 0.21523 0.51773
# Poissons Ratio (z) = 0.09398 0.61828
#
# Static dielectric constant tensor:
#      x y z
#    x 1.548520 0.000000 0.000000 
#    y 0.000000 1.562710 0.000000 
#    z 0.000000 0.000000 1.520960 
# 
# From -- ./inp_files/58017.got.cif
#   From: 2010.05.17/outbox.cif.g08.bks.cpg/sg71_30_cif.got.tgz:58017.got - 2010.06.03 16:22:01.
