data_PCOD9518097
_publ_section_title
;
Structure prediction by ZEFSAII (Michael W. Deem and Ramdas Pophale) SiO2 
 PCOD9518097
Probable space group: I M M M
;
_chemical_formula_sum "Si O2"
_cell_formula_units_Z 104
_cell_length_a 7.735809
_cell_length_b 29.560010
_cell_length_c 23.482556
_cell_angle_alpha 90.000000
_cell_angle_beta 90.000000
_cell_angle_gamma 90.000000
_cell_volume 5369.769968
_symmetry_space_group_name_H-M "I M M M"
_symmetry_group_IT_number 71
_symmetry_cell_setting 'orthorhombic'
loop_
_space_group_symop_operation_xyz
x,y,z
-x,-y,z
x,-y,-z
-x,y,-z
-x,-y,-z
x,y,-z
-x,y,z
x,-y,z
1/2+x,1/2+y,1/2+z
1/2-x,1/2-y,1/2+z
1/2+x,1/2-y,1/2-z
1/2-x,1/2+y,1/2-z
1/2-x,1/2-y,1/2-z
1/2+x,1/2+y,1/2-z
1/2-x,1/2+y,1/2+z
1/2+x,1/2-y,1/2+z
loop_
_atom_site_type_symbol
_atom_site_label
_atom_site_fract_x
_atom_site_fract_y
_atom_site_fract_z
Si Si1 0.792029 0.603557 0.882614
Si Si2 0.203996 0.947572 0.500000
Si Si3 0.711620 0.051236 0.270589
Si Si4 0.708826 0.448101 0.563133
Si Si5 0.709310 0.208582 0.188225
Si Si6 0.202440 0.612547 0.667898
Si Si7 0.297421 0.193356 0.681170
O O1 0.746459 0.582010 0.943592
O O2 0.737414 0.569223 0.832507
O O3 0.729356 0.653386 0.860031
O O4 0.000000 0.605856 0.882918
O O5 0.000000 0.952836 0.500000
O O6 0.277062 0.000000 0.500000
O O7 0.500000 0.051025 0.269073
O O8 0.775460 0.085635 0.222155
O O9 0.768716 0.000000 0.259937
O O10 0.763405 0.433690 0.500000
O O11 0.500000 0.447259 0.564877
O O12 0.763167 0.500000 0.571469
O O13 0.778106 0.417624 0.612859
O O14 0.500000 0.213355 0.188990
O O15 0.767652 0.162989 0.157338
O O16 0.770294 0.198506 0.253642
O O17 0.777325 0.254924 0.161290
O O18 0.000000 0.618371 0.681270
O O19 0.500000 0.182944 0.688279
#
# Coordination Sequence:
#
# PCOD9518097 Si02
#       7
#    16   8  16  16  16  16  16
#     4  10  19  35  58  80 102 136 183 224 259 311
#     4  11  25  41  55  77 111 145 179 225 278 329
#     4   9  16  27  47  76 106 132 162 207 259 304
#     4   9  19  35  51  68  97 137 175 209 248 298
#     4   9  17  30  49  77 111 138 163 202 257 312
#     4  10  18  30  50  78 106 132 166 211 256 301
#     4   9  17  31  52  78 105 133 169 211 251 303
#
# _framework density 19.367681999999999
#
# number of rings (size 3 to 8) (size 9 to 14) (size 15 to 20)
#    0.000    2.538    1.538    1.615    0.000    3.692 
#    0.000    1.538    1.692    2.769    0.000    0.000 
#    0.000    0.000    0.000    0.000    0.000    0.000 
#
# Total GULP energy -289675.342663 kJ/mol
# GULP energy per Si atom -5570.679667 kJ/mol
# Density = 1.932360 g / cm^3
# Si number density = 19.367682 Si / 1000 Ang^3
#
#
#
# Elastic Constant Matrix: (Units=GPa)
#
#
# Indices 1 2 3 4 5 6 
#
# 1 27.1145 5.5647 -1.7974 0.0000 0.0000 0.0000
# 2 5.5647 133.7671 56.4345 0.0000 0.0000 0.0000
# 3 -1.7974 56.4345 76.1744 0.0000 0.0000 0.0000
# 4 0.0000 0.0000 0.0000 17.7918 0.0000 0.0000
# 5 0.0000 0.0000 0.0000 0.0000 43.6531 0.0000
# 6 0.0000 0.0000 0.0000 0.0000 0.0000 19.5809
#
#
#
# Elastic Compliance Matrix: (Units=1/GPa)
#
#
# Indices 1 2 3 4 5 6 
#
# 1 0.037658 -0.002824 0.002981 0.000000 0.000000 0.000000
# 2 -0.002824 0.011086 -0.008280 0.000000 0.000000 0.000000
# 3 0.002981 -0.008280 0.019333 0.000000 0.000000 0.000000
# 4 0.000000 0.000000 0.000000 0.056206 0.000000 0.000000
# 5 0.000000 0.000000 0.000000 0.000000 0.022908 0.000000
# 6 0.000000 0.000000 0.000000 0.000000 0.000000 0.051070
#
#
# Mechanical properties :
#
#
# Convention : Reuss Voigt Hill
#
# Bulk Modulus (GPa) = 19.29388 39.71774 29.50581
# Shear Modulus (GPa) = 21.57183 27.99544 24.78363
#
# Velocity S-wave (km/s) = 3.34099 3.80606 3.58108
# Velocity P-wave (km/s) = 4.98663 6.31400 5.68916
#
# Compressibility (1/GPa) = 0.05182990
#
# Stress axis : x y z
#
# Youngs Moduli (GPa) = 26.55493 90.20022 51.72627
#
# Poissons Ratio (x) = 0.25474 -0.15419
# Poissons Ratio (y) = 0.07499 0.42830
# Poissons Ratio (z) = -0.07916 0.74687
#
# Static dielectric constant tensor:
#      x y z
#    x 1.749060 0.000000 0.000000 
#    y 0.000000 1.729570 0.000000 
#    z 0.000000 0.000000 1.654750 
# 
# From -- ./inp_files/11487.got.cif
#   From: 2010.05.17/outbox.cif.g08.bks.cpg/sg71_6_cif.got.tgz:11487.got - 2010.06.03 16:22:01.
