data_PCOD9518038
_publ_section_title
;
Structure prediction by ZEFSAII (Michael W. Deem and Ramdas Pophale) SiO2 
 PCOD9518038
Probable space group: I M M M
;
_chemical_formula_sum "Si O2"
_cell_formula_units_Z 104
_cell_length_a 13.355380
_cell_length_b 29.288963
_cell_length_c 14.134002
_cell_angle_alpha 90.000000
_cell_angle_beta 90.000000
_cell_angle_gamma 90.000000
_cell_volume 5528.730153
_symmetry_space_group_name_H-M "I M M M"
_symmetry_group_IT_number 71
_symmetry_cell_setting 'orthorhombic'
loop_
_space_group_symop_operation_xyz
x,y,z
-x,-y,z
x,-y,-z
-x,y,-z
-x,-y,-z
x,y,-z
-x,y,z
x,-y,z
1/2+x,1/2+y,1/2+z
1/2-x,1/2-y,1/2+z
1/2+x,1/2-y,1/2-z
1/2-x,1/2+y,1/2-z
1/2-x,1/2-y,1/2-z
1/2+x,1/2+y,1/2-z
1/2-x,1/2+y,1/2+z
1/2+x,1/2-y,1/2+z
loop_
_atom_site_type_symbol
_atom_site_label
_atom_site_fract_x
_atom_site_fract_y
_atom_site_fract_z
Si Si1 0.111675 0.552752 0.885364
Si Si2 0.119522 0.731021 0.605964
Si Si3 0.500000 0.448274 0.884559
Si Si4 0.379217 0.685938 0.768845
Si Si5 0.244084 0.640901 0.610627
Si Si6 0.383648 0.947567 0.885566
Si Si7 0.805403 0.894088 0.386768
O O1 0.129590 0.500000 0.858784
O O2 0.200308 0.585397 0.853745
O O3 0.000000 0.566084 0.855446
O O4 0.111977 0.553317 0.000000
O O5 0.154192 0.747044 0.500000
O O6 0.146635 0.762955 0.695396
O O7 0.158942 0.679822 0.616625
O O8 0.000000 0.731245 0.603106
O O9 0.500000 0.500000 0.854002
O O10 0.398870 0.424242 0.852392
O O11 0.500000 0.447113 0.000000
O O12 0.500000 0.682076 0.766164
O O13 0.331204 0.662859 0.675608
O O14 0.331241 0.655740 0.851967
O O15 0.274536 0.636949 0.500000
O O16 0.194563 0.592488 0.640815
O O17 0.500000 0.938551 0.857455
O O18 0.358753 0.000000 0.856735
O O19 0.383799 0.947229 0.000000
O O20 0.804976 0.895807 0.500000
#
# Coordination Sequence:
#
# PCOD9518038 Si02
#       7
#    16  16   8  16  16  16  16
#     4   8  14  26  45  68  96 134 176 215 264 329
#     4   9  18  34  59  87 110 133 166 216 275 329
#     4   9  16  26  44  70  97 129 173 223 275 321
#     4  11  22  35  51  75 109 142 181 221 262 307
#     4  10  20  35  56  79 107 142 179 215 260 322
#     4   8  14  28  54  84 108 131 166 220 282 331
#     4  10  18  30  49  71  99 134 174 223 275 319
#
# _framework density 18.810828999999998
#
# number of rings (size 3 to 8) (size 9 to 14) (size 15 to 20)
#    0.000    2.692    0.769    2.769    0.000    4.615 
#    0.000    3.077    0.000    2.769    0.000    4.308 
#    0.000    0.000    0.000    0.000    0.000    1.385 
#
# Total GULP energy -289579.015861 kJ/mol
# GULP energy per Si atom -5568.827228 kJ/mol
# Density = 1.876801 g / cm^3
# Si number density = 18.810829 Si / 1000 Ang^3
#
#
#
# Elastic Constant Matrix: (Units=GPa)
#
#
# Indices 1 2 3 4 5 6 
#
# 1 70.5981 39.0491 41.1249 0.0023 0.0009 0.0001
# 2 39.0491 94.3597 29.5708 0.0005 0.0002 0.0001
# 3 41.1249 29.5708 85.6093 0.0010 0.0011 0.0002
# 4 0.0023 0.0005 0.0010 -238.0220 -0.0041 -0.0005
# 5 0.0009 0.0002 0.0011 -0.0041 66.0847 -0.0001
# 6 0.0001 0.0001 0.0002 -0.0005 -0.0001 27.9619
#
#
#
# Elastic Compliance Matrix: (Units=1/GPa)
#
#
# Indices 1 2 3 4 5 6 
#
# 1 0.022985 -0.006786 -0.008697 0.000000 0.000000 0.000000
# 2 -0.006786 0.013888 -0.001537 0.000000 0.000000 0.000000
# 3 -0.008697 -0.001537 0.016390 0.000000 0.000000 0.000000
# 4 0.000000 0.000000 0.000000 -0.004201 0.000000 0.000000
# 5 0.000000 0.000000 0.000000 0.000000 0.015132 0.000000
# 6 0.000000 0.000000 0.000000 0.000000 0.000000 0.035763
#
#
# Mechanical properties :
#
#
# Convention : Reuss Voigt Hill
#
# Bulk Modulus (GPa) = 52.02602 52.22853 52.12727
# Shear Modulus (GPa) = 35.61143 -19.40695 8.10224
#
# Velocity S-wave (km/s) = 4.35574 -3.21548 2.07764
# Velocity P-wave (km/s) = 7.28108 3.74696 5.79024
#
# Compressibility (1/GPa) = 0.01922115
#
# Stress axis : x y z
#
# Youngs Moduli (GPa) = 43.50739 72.00558 61.01317
#
# Poissons Ratio (x) = 0.48864 0.53065
# Poissons Ratio (y) = 0.29525 0.09379
# Poissons Ratio (z) = 0.37839 0.11068
#
# Static dielectric constant tensor:
#      x y z
#    x 1.627540 0.000000 0.000000 
#    y 0.000000 1.657380 0.000000 
#    z 0.000000 0.000000 1.730210 
# 
# From -- ./inp_files/33305.got.cif
#   From: 2010.05.17/outbox.cif.g08.bks.cpg/sg71_17_cif.got.tgz:33305.got - 2010.06.03 16:22:01.
