data_PCOD9518787
_publ_section_title
;
Structure prediction by ZEFSAII (Michael W. Deem and Ramdas Pophale) SiO2 
 PCOD9518787
Probable space group: I M M M
;
_chemical_formula_sum "Si O2"
_cell_formula_units_Z 96
_cell_length_a 14.579445
_cell_length_b 15.247859
_cell_length_c 26.489215
_cell_angle_alpha 90.000000
_cell_angle_beta 90.000000
_cell_angle_gamma 90.000000
_cell_volume 5888.693461
_symmetry_space_group_name_H-M "I M M M"
_symmetry_group_IT_number 71
_symmetry_cell_setting 'orthorhombic'
loop_
_space_group_symop_operation_xyz
x,y,z
-x,-y,z
x,-y,-z
-x,y,-z
-x,-y,-z
x,y,-z
-x,y,z
x,-y,z
1/2+x,1/2+y,1/2+z
1/2-x,1/2-y,1/2+z
1/2+x,1/2-y,1/2-z
1/2-x,1/2+y,1/2-z
1/2-x,1/2-y,1/2-z
1/2+x,1/2+y,1/2-z
1/2-x,1/2+y,1/2+z
1/2+x,1/2-y,1/2+z
loop_
_atom_site_type_symbol
_atom_site_label
_atom_site_fract_x
_atom_site_fract_y
_atom_site_fract_z
Si Si1 0.890829 0.100524 0.848031
Si Si2 0.104574 0.894338 0.351276
Si Si3 0.893428 0.720469 0.101520
Si Si4 0.719869 0.649710 0.247719
Si Si5 0.260640 0.603538 0.942746
Si Si6 0.102141 0.403278 0.198027
O O1 0.869512 0.177876 0.887884
O O2 0.833004 0.118692 0.797448
O O3 0.000000 0.109414 0.836528
O O4 0.875290 0.000000 0.864795
O O5 0.155243 0.863344 0.300842
O O6 0.164419 0.872107 0.400507
O O7 0.000000 0.862362 0.354087
O O8 0.102303 0.000000 0.348836
O O9 0.825928 0.666790 0.065727
O O10 0.885367 0.670492 0.155586
O O11 0.000000 0.714809 0.085909
O O12 0.750000 0.750000 0.250000
O O13 0.815431 0.600708 0.237154
O O14 0.236803 0.500000 0.935369
O O15 0.295230 0.612170 0.000000
O O16 0.105258 0.500000 0.173470
O O17 0.000000 0.392179 0.220077
#
# Coordination Sequence:
#
# PCOD9518787 Si02
#       6
#    16  16  16  16  16  16
#     4  10  20  33  50  72  99 133 169 205 245 290
#     4  10  20  33  49  70  98 133 169 203 241 290
#     4  10  19  33  50  71  98 129 164 201 244 295
#     4  12  20  30  48  70 100 133 169 209 241 282
#     4  10  20  34  52  75 102 130 163 204 251 301
#     4  10  19  30  45  64  91 127 163 197 236 284
#
# _framework density 16.302427000000002
#
# number of rings (size 3 to 8) (size 9 to 14) (size 15 to 20)
#    0.000    1.667    3.333    2.500    0.000    3.667 
#    0.000    2.500    0.000    0.500    0.000    2.333 
#    0.000    0.000    0.000    6.000    0.000    0.333 
#
# Total GULP energy -267637.324758 kJ/mol
# GULP energy per Si atom -5575.777599 kJ/mol
# Density = 1.626532 g / cm^3
# Si number density = 16.302427 Si / 1000 Ang^3
#
#
#
# Elastic Constant Matrix: (Units=GPa)
#
#
# Indices 1 2 3 4 5 6 
#
# 1 84.5731 23.3331 30.7901 0.0000 0.0000 0.0000
# 2 23.3331 87.6621 4.5226 0.0000 0.0000 0.0000
# 3 30.7901 4.5226 44.1856 0.0000 0.0000 0.0000
# 4 0.0000 0.0000 0.0000 20.4918 0.0000 0.0000
# 5 0.0000 0.0000 0.0000 0.0000 9.8834 0.0000
# 6 0.0000 0.0000 0.0000 0.0000 0.0000 4.5324
#
#
#
# Elastic Compliance Matrix: (Units=1/GPa)
#
#
# Indices 1 2 3 4 5 6 
#
# 1 0.017110 -0.003960 -0.011517 0.000000 0.000000 0.000000
# 2 -0.003960 0.012384 0.001492 0.000000 0.000000 0.000000
# 3 -0.011517 0.001492 0.030505 0.000000 0.000000 0.000000
# 4 0.000000 0.000000 0.000000 0.048800 0.000000 0.000000
# 5 0.000000 0.000000 0.000000 0.000000 0.101179 0.000000
# 6 0.000000 0.000000 0.000000 0.000000 0.000000 0.220632
#
#
# Mechanical properties :
#
#
# Convention : Reuss Voigt Hill
#
# Bulk Modulus (GPa) = 31.22256 37.07913 34.15084
# Shear Modulus (GPa) = 10.65515 17.49987 14.07751
#
# Velocity S-wave (km/s) = 2.55932 3.27991 2.94176
# Velocity P-wave (km/s) = 5.28462 6.09407 5.70372
#
# Compressibility (1/GPa) = 0.03202813
#
# Stress axis : x y z
#
# Youngs Moduli (GPa) = 58.44654 80.74616 32.78173
#
# Poissons Ratio (x) = 0.31975 0.37756
# Poissons Ratio (y) = 0.23144 -0.04890
# Poissons Ratio (z) = 0.67315 -0.12046
#
# Static dielectric constant tensor:
#      x y z
#    x 1.565770 0.000000 0.000000 
#    y 0.000000 1.623290 0.000000 
#    z 0.000000 0.000000 1.527570 
# 
# From -- ./inp_files/52995.got.cif
#   From: 2010.05.17/outbox.cif.g08.bks.cpg/sg71_27_cif.got.tgz:52995.got - 2010.06.03 16:22:01.
