data_PCOD9518786
_publ_section_title
;
Structure prediction by ZEFSAII (Michael W. Deem and Ramdas Pophale) SiO2 
 PCOD9518786
Probable space group: I M M M
;
_chemical_formula_sum "Si O2"
_cell_formula_units_Z 96
_cell_length_a 16.544552
_cell_length_b 13.932076
_cell_length_c 25.078492
_cell_angle_alpha 90.000000
_cell_angle_beta 90.000000
_cell_angle_gamma 90.000000
_cell_volume 5780.591299
_symmetry_space_group_name_H-M "I M M M"
_symmetry_group_IT_number 71
_symmetry_cell_setting 'orthorhombic'
loop_
_space_group_symop_operation_xyz
x,y,z
-x,-y,z
x,-y,-z
-x,y,-z
-x,-y,-z
x,y,-z
-x,y,z
x,-y,z
1/2+x,1/2+y,1/2+z
1/2-x,1/2-y,1/2+z
1/2+x,1/2-y,1/2-z
1/2-x,1/2+y,1/2-z
1/2-x,1/2-y,1/2-z
1/2+x,1/2+y,1/2-z
1/2-x,1/2+y,1/2+z
1/2+x,1/2-y,1/2+z
loop_
_atom_site_type_symbol
_atom_site_label
_atom_site_fract_x
_atom_site_fract_y
_atom_site_fract_z
Si Si1 0.175747 0.110817 0.826485
Si Si2 0.317860 0.384815 0.557573
Si Si3 0.592994 0.299052 0.227343
Si Si4 0.638079 0.199451 0.941183
Si Si5 0.402243 0.390746 0.884962
Si Si6 0.628460 0.891092 0.168551
O O1 0.143308 0.139254 0.885353
O O2 0.144809 0.176109 0.778845
O O3 0.273400 0.113705 0.829784
O O4 0.152371 0.000000 0.815752
O O5 0.358486 0.365823 0.500000
O O6 0.302751 0.500000 0.560137
O O7 0.231571 0.332344 0.556550
O O8 0.500000 0.325535 0.237701
O O9 0.621174 0.358327 0.174986
O O10 0.597704 0.188400 0.209512
O O11 0.630493 0.310890 0.925297
O O12 0.602406 0.141209 0.891019
O O13 0.603228 0.181491 0.000000
O O14 0.500000 0.386040 0.887245
O O15 0.377423 0.500000 0.895667
O O16 0.604142 0.000000 0.179399
#
# Coordination Sequence:
#
# PCOD9518786 Si02
#       6
#    16  16  16  16  16  16
#     4   9  16  27  46  68  88 114 146 176 208 252
#     4   8  14  26  45  67  88 109 134 168 211 255
#     4  10  19  30  45  64  88 117 147 179 215 258
#     4   9  16  26  42  62  81 105 140 178 215 255
#     4   9  18  30  40  53  79 114 147 178 212 249
#     4   9  18  31  46  65  88 113 142 180 222 258
#
# _framework density 16.607298
#
# number of rings (size 3 to 8) (size 9 to 14) (size 15 to 20)
#    0.000    3.000    0.000    2.500    0.000    3.000 
#    0.000    0.833    0.000    2.000    0.000   11.667 
#    0.000    0.000    0.000    1.500    0.000    0.000 
#
# Total GULP energy -267240.352030 kJ/mol
# GULP energy per Si atom -5567.507334 kJ/mol
# Density = 1.656950 g / cm^3
# Si number density = 16.607298 Si / 1000 Ang^3
#
#
#
# Elastic Constant Matrix: (Units=GPa)
#
#
# Indices 1 2 3 4 5 6 
#
# 1 16.2430 9.2086 24.9447 0.0000 0.0000 0.0000
# 2 9.2086 71.2066 34.3458 0.0000 0.0000 0.0000
# 3 24.9447 34.3458 127.9610 0.0000 0.0000 0.0000
# 4 0.0000 0.0000 0.0000 15.9361 0.0000 0.0000
# 5 0.0000 0.0000 0.0000 0.0000 -1.6315 0.0000
# 6 0.0000 0.0000 0.0000 0.0000 0.0000 3.6565
#
#
#
# Elastic Compliance Matrix: (Units=1/GPa)
#
#
# Indices 1 2 3 4 5 6 
#
# 1 0.088665 -0.003595 -0.016319 0.000000 0.000000 0.000000
# 2 -0.003595 0.016278 -0.003668 0.000000 0.000000 0.000000
# 3 -0.016319 -0.003668 0.011981 0.000000 0.000000 0.000000
# 4 0.000000 0.000000 0.000000 0.062751 0.000000 0.000000
# 5 0.000000 0.000000 0.000000 0.000000 -0.612944 0.000000
# 6 0.000000 0.000000 0.000000 0.000000 0.000000 0.273487
#
#
# Mechanical properties :
#
#
# Convention : Reuss Voigt Hill
#
# Bulk Modulus (GPa) = 14.33515 39.15653 26.74584
# Shear Modulus (GPa) = -55.95083 13.38632 -21.28225
#
# Velocity S-wave (km/s) = -5.81065 2.84218 -3.58369
# Velocity P-wave (km/s) = 6.03056 5.86513 0.99193
#
# Compressibility (1/GPa) = 0.06975860
#
# Stress axis : x y z
#
# Youngs Moduli (GPa) = 11.27839 61.43283 83.46680
#
# Poissons Ratio (x) = 0.22084 1.36213
# Poissons Ratio (y) = 0.04054 0.30619
# Poissons Ratio (z) = 0.18406 0.22536
#
# Static dielectric constant tensor:
#      x y z
#    x 1.553820 0.000000 0.000000 
#    y 0.000000 1.551270 0.000000 
#    z 0.000000 0.000000 1.599860 
# 
# From -- ./inp_files/24220.got.cif
#   From: 2010.05.17/outbox.cif.g08.bks.cpg/sg71_13_cif.got.tgz:24220.got - 2010.06.03 16:22:01.
