data_PCOD9518429
_publ_section_title
;
Structure prediction by ZEFSAII (Michael W. Deem and Ramdas Pophale) SiO2 
 PCOD9518429
Probable space group: I M M M
;
_chemical_formula_sum "Si O2"
_cell_formula_units_Z 92
_cell_length_a 28.123736
_cell_length_b 7.465236
_cell_length_c 21.939668
_cell_angle_alpha 90.000000
_cell_angle_beta 90.000000
_cell_angle_gamma 90.000000
_cell_volume 4606.240459
_symmetry_space_group_name_H-M "I M M M"
_symmetry_group_IT_number 71
_symmetry_cell_setting 'orthorhombic'
loop_
_space_group_symop_operation_xyz
x,y,z
-x,-y,z
x,-y,-z
-x,y,-z
-x,-y,-z
x,y,-z
-x,y,z
x,-y,z
1/2+x,1/2+y,1/2+z
1/2-x,1/2-y,1/2+z
1/2+x,1/2-y,1/2-z
1/2-x,1/2+y,1/2-z
1/2-x,1/2-y,1/2-z
1/2+x,1/2+y,1/2-z
1/2-x,1/2+y,1/2+z
1/2+x,1/2-y,1/2+z
loop_
_atom_site_type_symbol
_atom_site_label
_atom_site_fract_x
_atom_site_fract_y
_atom_site_fract_z
Si Si1 0.116886 0.293631 0.399813
Si Si2 0.907688 0.000000 0.500000
Si Si3 0.500000 0.219543 0.429216
Si Si4 0.687033 0.786559 0.691446
Si Si5 0.088912 0.706829 0.851768
Si Si6 0.945174 0.215398 0.716558
Si Si7 0.706027 0.785291 0.828358
O O1 0.118803 0.500000 0.421328
O O2 0.094286 0.157374 0.447056
O O3 0.087717 0.289048 0.336735
O O4 0.169796 0.228132 0.380696
O O5 0.500000 0.267676 0.500000
O O6 0.547645 0.283680 0.394675
O O7 0.500000 0.000000 0.425052
O O8 0.642023 0.714139 0.654108
O O9 0.690680 0.715696 0.761137
O O10 0.738788 0.758538 0.662647
O O11 0.679571 0.000000 0.696728
O O12 0.094290 0.500000 0.871226
O O13 0.069695 0.714333 0.782652
O O14 0.000000 0.261387 0.704872
O O15 0.940747 0.000000 0.717666
O O16 0.702054 0.000000 0.825786
#
# Coordination Sequence:
#
# PCOD9518429 Si02
#       7
#    16   4   8  16  16  16  16
#     4  11  23  42  65  88 121 164 214 256 309 374
#     4  12  26  44  65  92 120 170 210 261 300 374
#     4   9  18  32  55  83 119 161 204 251 300 368
#     4   9  17  28  49  83 119 148 189 245 309 363
#     4  10  18  32  55  84 117 159 205 251 311 376
#     4  11  22  36  58  91 122 150 200 264 318 370
#     4   9  18  32  53  83 115 152 190 245 307 364
#
# _framework density 19.972905000000001
#
# number of rings (size 3 to 8) (size 9 to 14) (size 15 to 20)
#    0.000    2.000    3.478    0.783    1.217    1.739 
#    0.000    0.870    1.913    2.087    0.000    0.000 
#    0.000    0.000    0.000    0.000    0.000    0.000 
#
# Total GULP energy -256218.678610 kJ/mol
# GULP energy per Si atom -5569.971274 kJ/mol
# Density = 1.992745 g / cm^3
# Si number density = 19.972905 Si / 1000 Ang^3
#
#
#
# Elastic Constant Matrix: (Units=GPa)
#
#
# Indices 1 2 3 4 5 6 
#
# 1 125.0919 -1.3932 33.4553 0.0000 0.0000 0.0000
# 2 -1.3932 78.1062 2.5636 0.0000 0.0000 0.0000
# 3 33.4553 2.5636 92.6999 0.0000 0.0000 0.0000
# 4 0.0000 0.0000 0.0000 -19.6436 0.0000 0.0000
# 5 0.0000 0.0000 0.0000 0.0000 -5.7459 0.0000
# 6 0.0000 0.0000 0.0000 0.0000 0.0000 13.3087
#
#
#
# Elastic Compliance Matrix: (Units=1/GPa)
#
#
# Indices 1 2 3 4 5 6 
#
# 1 0.008854 0.000263 -0.003203 0.000000 0.000000 0.000000
# 2 0.000263 0.012823 -0.000450 0.000000 0.000000 0.000000
# 3 -0.003203 -0.000450 0.011956 0.000000 0.000000 0.000000
# 4 0.000000 0.000000 0.000000 -0.050907 0.000000 0.000000
# 5 0.000000 0.000000 0.000000 0.000000 -0.174038 0.000000
# 6 0.000000 0.000000 0.000000 0.000000 0.000000 0.075139
#
#
# Mechanical properties :
#
#
# Convention : Reuss Voigt Hill
#
# Bulk Modulus (GPa) = 37.23874 40.57217 38.90545
# Shear Modulus (GPa) = -49.77848 15.00198 -17.38825
#
# Velocity S-wave (km/s) = -4.99771 2.74362 -2.95378
# Velocity P-wave (km/s) = 3.82331 5.51311 2.80861
#
# Compressibility (1/GPa) = 0.02685376
#
# Stress axis : x y z
#
# Youngs Moduli (GPa) = 112.94899 77.98777 83.64202
#
# Poissons Ratio (x) = -0.02051 0.26786
# Poissons Ratio (y) = -0.02971 0.03760
# Poissons Ratio (z) = 0.36172 0.03506
#
# Static dielectric constant tensor:
#      x y z
#    x 1.746950 0.000000 0.000000 
#    y 0.000000 1.753260 0.000000 
#    z 0.000000 0.000000 1.656560 
# 
# From -- ./inp_files/56160.got.cif
#   From: 2010.05.17/outbox.cif.g08.bks.cpg/sg71_29_cif.got.tgz:56160.got - 2010.06.03 16:22:01.
