data_PCOD9518916
_publ_section_title
;
Structure prediction by ZEFSAII (Michael W. Deem and Ramdas Pophale) SiO2 
 PCOD9518916
Probable space group: I M M M
;
_chemical_formula_sum "Si O2"
_cell_formula_units_Z 88
_cell_length_a 23.751259
_cell_length_b 7.348277
_cell_length_c 23.275114
_cell_angle_alpha 90.000000
_cell_angle_beta 90.000000
_cell_angle_gamma 90.000000
_cell_volume 4062.224970
_symmetry_space_group_name_H-M "I M M M"
_symmetry_group_IT_number 71
_symmetry_cell_setting 'orthorhombic'
loop_
_space_group_symop_operation_xyz
x,y,z
-x,-y,z
x,-y,-z
-x,y,-z
-x,-y,-z
x,y,-z
-x,y,z
x,-y,z
1/2+x,1/2+y,1/2+z
1/2-x,1/2-y,1/2+z
1/2+x,1/2-y,1/2-z
1/2-x,1/2+y,1/2-z
1/2-x,1/2-y,1/2-z
1/2+x,1/2+y,1/2-z
1/2-x,1/2+y,1/2+z
1/2+x,1/2-y,1/2+z
loop_
_atom_site_type_symbol
_atom_site_label
_atom_site_fract_x
_atom_site_fract_y
_atom_site_fract_z
Si Si1 0.858192 0.777520 0.333778
Si Si2 0.564429 0.721570 0.063105
Si Si3 0.937349 0.219367 0.768043
Si Si4 0.066256 0.277064 0.000000
Si Si5 0.736210 0.217186 0.682544
Si Si6 0.375847 0.787695 0.618113
O O1 0.897537 0.717296 0.385221
O O2 0.887685 0.717545 0.274459
O O3 0.794676 0.718092 0.344669
O O4 0.857302 0.000000 0.332001
O O5 0.500000 0.778399 0.070365
O O6 0.564412 0.500000 0.064174
O O7 0.584132 0.777222 0.000000
O O8 0.923311 0.273581 0.832792
O O9 0.000000 0.279797 0.750452
O O10 0.937311 0.000000 0.765428
O O11 0.099477 0.216419 0.057791
O O12 0.065658 0.500000 0.000000
O O13 0.000000 0.222455 0.000000
O O14 0.750000 0.250000 0.750000
O O15 0.680383 0.289225 0.650294
O O16 0.732089 0.000000 0.677860
O O17 0.364123 0.000000 0.607005
#
# Coordination Sequence:
#
# PCOD9518916 Si02
#       6
#    16  16  16   8  16  16
#     4   9  16  27  42  63  93 126 156 190 237 287
#     4   8  13  22  37  59  89 123 155 186 226 280
#     4  10  19  30  48  73  99 127 159 199 247 296
#     4   9  18  34  53  71  97 133 168 208 257 300
#     4  10  19  32  50  71  96 126 159 196 240 289
#     4  10  20  34  52  73  97 130 168 204 247 301
#
# _framework density 21.663004999999998
#
# number of rings (size 3 to 8) (size 9 to 14) (size 15 to 20)
#    0.000    2.636    1.818    1.636    0.000    3.273 
#    1.636    0.455    0.000    1.636    0.000    0.000 
#    0.000    2.182    0.000   10.000    0.000    9.091 
#
# Total GULP energy -245413.154258 kJ/mol
# GULP energy per Si atom -5577.571688 kJ/mol
# Density = 2.161370 g / cm^3
# Si number density = 21.663005 Si / 1000 Ang^3
#
#
#
# Elastic Constant Matrix: (Units=GPa)
#
#
# Indices 1 2 3 4 5 6 
#
# 1 139.8559 6.3594 81.6284 0.0000 0.0000 0.0000
# 2 6.3594 82.1805 1.5733 0.0000 0.0000 0.0000
# 3 81.6284 1.5733 147.4616 0.0000 0.0000 0.0000
# 4 0.0000 0.0000 0.0000 14.4124 0.0000 0.0000
# 5 0.0000 0.0000 0.0000 0.0000 21.7799 0.0000
# 6 0.0000 0.0000 0.0000 0.0000 0.0000 -0.1324
#
#
#
# Elastic Compliance Matrix: (Units=1/GPa)
#
#
# Indices 1 2 3 4 5 6 
#
# 1 0.010604 -0.000708 -0.005862 0.000000 0.000000 0.000000
# 2 -0.000708 0.012218 0.000262 0.000000 0.000000 0.000000
# 3 -0.005862 0.000262 0.010024 0.000000 0.000000 0.000000
# 4 0.000000 0.000000 0.000000 0.069385 0.000000 0.000000
# 5 0.000000 0.000000 0.000000 0.000000 0.045914 0.000000
# 6 0.000000 0.000000 0.000000 0.000000 0.000000 -7.552841
#
#
# Mechanical properties :
#
#
# Convention : Reuss Voigt Hill
#
# Bulk Modulus (GPa) = 49.43635 60.95781 55.19708
# Shear Modulus (GPa) = -0.67702 25.87442 12.59870
#
# Velocity S-wave (km/s) = -0.55964 3.45977 2.41421
# Velocity P-wave (km/s) = 4.73841 6.64531 5.77117
#
# Compressibility (1/GPa) = 0.02022803
#
# Stress axis : x y z
#
# Youngs Moduli (GPa) = 94.30329 81.84548 99.76243
#
# Poissons Ratio (x) = 0.05798 0.58485
# Poissons Ratio (y) = 0.06680 -0.02611
# Poissons Ratio (z) = 0.55284 -0.02142
#
# Static dielectric constant tensor:
#      x y z
#    x 1.797440 0.000000 0.000000 
#    y 0.000000 1.858920 0.000000 
#    z 0.000000 0.000000 1.774250 
# 
# From -- ./inp_files/55578.got.cif
#   From: 2010.05.17/outbox.cif.g08.bks.cpg/sg71_28_cif.got.tgz:55578.got - 2010.06.03 16:22:01.
