data_PCOD9518138
_publ_section_title
;
Structure prediction by ZEFSAII (Michael W. Deem and Ramdas Pophale) SiO2 
 PCOD9518138
Probable space group: I M M M
;
_chemical_formula_sum "Si O2"
_cell_formula_units_Z 112
_cell_length_a 18.672404
_cell_length_b 18.589543
_cell_length_c 18.861354
_cell_angle_alpha 90.000000
_cell_angle_beta 90.000000
_cell_angle_gamma 90.000000
_cell_volume 6546.992069
_symmetry_space_group_name_H-M "I M M M"
_symmetry_group_IT_number 71
_symmetry_cell_setting 'orthorhombic'
loop_
_space_group_symop_operation_xyz
x,y,z
-x,-y,z
x,-y,-z
-x,y,-z
-x,-y,-z
x,y,-z
-x,y,z
x,-y,z
1/2+x,1/2+y,1/2+z
1/2-x,1/2-y,1/2+z
1/2+x,1/2-y,1/2-z
1/2-x,1/2+y,1/2-z
1/2-x,1/2-y,1/2-z
1/2+x,1/2+y,1/2-z
1/2-x,1/2+y,1/2+z
1/2+x,1/2-y,1/2+z
loop_
_atom_site_type_symbol
_atom_site_label
_atom_site_fract_x
_atom_site_fract_y
_atom_site_fract_z
Si Si1 0.282556 0.417039 0.148079
Si Si2 0.919343 0.270977 0.148530
Si Si3 0.081662 0.682880 0.305147
Si Si4 0.711265 0.314247 0.581756
Si Si5 0.779575 0.414314 0.303357
Si Si6 0.647229 0.284466 0.082156
Si Si7 0.125795 0.419244 0.083917
O O1 0.306669 0.500000 0.148251
O O2 0.256866 0.397188 0.227463
O O3 0.339737 0.361656 0.117642
O O4 0.210480 0.413200 0.100449
O O5 0.906669 0.272164 0.232825
O O6 0.860279 0.224375 0.108703
O O7 0.911646 0.353853 0.123582
O O8 0.000000 0.246295 0.133841
O O9 0.141668 0.621082 0.305574
O O10 0.095092 0.734870 0.371704
O O11 0.000000 0.656056 0.304211
O O12 0.704595 0.336803 0.500000
O O13 0.734058 0.378217 0.633965
O O14 0.775685 0.256057 0.585704
O O15 0.783759 0.500000 0.309629
O O16 0.626545 0.290123 0.000000
O O17 0.103704 0.500000 0.106735
O O18 0.113598 0.412783 0.000000
#
# Coordination Sequence:
#
# PCOD9518138 Si02
#       7
#    16  16  16  16  16  16  16
#     4  10  18  30  52  80 106 136 174 213 253 306
#     4  11  21  33  52  76 107 146 181 213 254 308
#     4  10  21  35  53  79 108 139 177 217 259 315
#     4  10  20  34  52  75 103 136 179 226 266 308
#     4  10  20  35  56  79 104 137 176 219 268 316
#     4  10  19  33  54  76 103 139 176 219 268 311
#     4  10  19  30  45  71 109 145 175 209 250 300
#
# _framework density 17.107092999999999
#
# number of rings (size 3 to 8) (size 9 to 14) (size 15 to 20)
#    0.000    1.857    2.857    1.714    0.000    5.429 
#    0.000    2.143    0.000    0.857    0.000   10.000 
#    0.000    0.000    0.000    0.000    0.000    0.000 
#
# Total GULP energy -312568.675040 kJ/mol
# GULP energy per Si atom -5581.583483 kJ/mol
# Density = 1.706816 g / cm^3
# Si number density = 17.107093 Si / 1000 Ang^3
#
#
#
# Elastic Constant Matrix: (Units=GPa)
#
#
# Indices 1 2 3 4 5 6 
#
# 1 36.7291 0.6434 23.7088 0.0000 0.0000 0.0000
# 2 0.6434 45.5478 42.1831 0.0000 0.0000 0.0000
# 3 23.7088 42.1831 112.6785 0.0000 0.0000 0.0000
# 4 0.0000 0.0000 0.0000 22.2101 0.0000 0.0000
# 5 0.0000 0.0000 0.0000 0.0000 4.3773 0.0000
# 6 0.0000 0.0000 0.0000 0.0000 0.0000 15.2316
#
#
#
# Elastic Compliance Matrix: (Units=1/GPa)
#
#
# Indices 1 2 3 4 5 6 
#
# 1 0.033941 0.009390 -0.010657 0.000000 0.000000 0.000000
# 2 0.009390 0.036205 -0.015530 0.000000 0.000000 0.000000
# 3 -0.010657 -0.015530 0.016931 0.000000 0.000000 0.000000
# 4 0.000000 0.000000 0.000000 0.045025 0.000000 0.000000
# 5 0.000000 0.000000 0.000000 0.000000 0.228449 0.000000
# 6 0.000000 0.000000 0.000000 0.000000 0.000000 0.065653
#
#
# Mechanical properties :
#
#
# Convention : Reuss Voigt Hill
#
# Bulk Modulus (GPa) = 18.69722 36.44733 27.57228
# Shear Modulus (GPa) = 10.46849 16.92515 13.69682
#
# Velocity S-wave (km/s) = 2.47642 3.14883 2.83265
# Velocity P-wave (km/s) = 4.37380 5.87978 5.18179
#
# Compressibility (1/GPa) = 0.05348390
#
# Stress axis : x y z
#
# Youngs Moduli (GPa) = 29.46291 27.62069 59.06347
#
# Poissons Ratio (x) = -0.25936 0.62944
# Poissons Ratio (y) = -0.27666 0.91724
# Poissons Ratio (z) = 0.31398 0.42894
#
# Static dielectric constant tensor:
#      x y z
#    x 1.561250 0.000000 0.000000 
#    y 0.000000 1.565250 0.000000 
#    z 0.000000 0.000000 1.583990 
# 
# From -- ./inp_files/46372.got.cif
#   From: 2010.05.17/outbox.cif.g08.bks.cpg/sg71_24_cif.got.tgz:46372.got - 2010.06.03 16:22:01.
