data_PCOD9518268
_publ_section_title
;
Structure prediction by ZEFSAII (Michael W. Deem and Ramdas Pophale) SiO2 
 PCOD9518268
Probable space group: I M M M
;
_chemical_formula_sum "Si O2"
_cell_formula_units_Z 88
_cell_length_a 11.979982
_cell_length_b 17.837947
_cell_length_c 22.810223
_cell_angle_alpha 90.000000
_cell_angle_beta 90.000000
_cell_angle_gamma 90.000000
_cell_volume 4874.505512
_symmetry_space_group_name_H-M "I M M M"
_symmetry_group_IT_number 71
_symmetry_cell_setting 'orthorhombic'
loop_
_space_group_symop_operation_xyz
x,y,z
-x,-y,z
x,-y,-z
-x,y,-z
-x,-y,-z
x,y,-z
-x,y,z
x,-y,z
1/2+x,1/2+y,1/2+z
1/2-x,1/2-y,1/2+z
1/2+x,1/2-y,1/2-z
1/2-x,1/2+y,1/2-z
1/2-x,1/2-y,1/2-z
1/2+x,1/2+y,1/2-z
1/2-x,1/2+y,1/2+z
1/2+x,1/2-y,1/2+z
loop_
_atom_site_type_symbol
_atom_site_label
_atom_site_fract_x
_atom_site_fract_y
_atom_site_fract_z
Si Si1 0.793915 0.306470 0.567907
Si Si2 0.711047 0.000000 0.436793
Si Si3 0.126519 0.136867 0.409990
Si Si4 0.132297 0.786935 0.826644
Si Si5 0.226329 0.142253 0.713916
Si Si6 0.372199 0.000000 0.693086
Si Si7 0.500000 0.913083 0.928824
O O1 0.765474 0.322041 0.500000
O O2 0.841240 0.221257 0.571235
O O3 0.690657 0.309732 0.612454
O O4 0.890582 0.364666 0.587633
O O5 0.788981 0.926125 0.433118
O O6 0.652687 0.000000 0.500000
O O7 0.637569 0.000000 0.378106
O O8 0.140069 0.133806 0.339584
O O9 0.000000 0.120807 0.427427
O O10 0.163906 0.843614 0.774548
O O11 0.193568 0.711051 0.805042
O O12 0.000000 0.777337 0.832271
O O13 0.306118 0.071377 0.716027
O O14 0.500000 0.000000 0.710722
O O15 0.500000 0.000000 0.908663
O O16 0.500000 0.914576 0.000000
#
# Coordination Sequence:
#
# PCOD9518268 Si02
#       7
#    16   8  16  16  16   8   8
#     4  10  20  34  55  82 108 142 182 220 271 327
#     4  10  21  31  46  79 115 149 185 213 259 318
#     4  10  18  31  52  76 109 147 182 223 264 310
#     4  10  20  37  57  80 110 141 175 221 270 326
#     4   9  20  36  55  80 103 140 184 221 267 316
#     4  10  20  38  57  76 107 140 180 229 263 305
#     4   9  18  36  58  77 105 137 175 228 272 318
#
# _framework density 18.053114000000001
#
# number of rings (size 3 to 8) (size 9 to 14) (size 15 to 20)
#    0.000    2.273    0.909    1.909    0.000    2.000 
#    4.909    1.364    0.000    6.545    0.000    2.545 
#    0.000    0.000    0.000    0.000    0.000    0.000 
#
# Total GULP energy -245450.524209 kJ/mol
# GULP energy per Si atom -5578.421005 kJ/mol
# Density = 1.801202 g / cm^3
# Si number density = 18.053114 Si / 1000 Ang^3
#
#
#
# Elastic Constant Matrix: (Units=GPa)
#
#
# Indices 1 2 3 4 5 6 
#
# 1 95.5734 9.6869 23.0525 0.0000 0.0000 0.0000
# 2 9.6869 85.1283 5.7534 0.0000 0.0000 0.0000
# 3 23.0525 5.7534 77.0966 0.0000 0.0000 0.0000
# 4 0.0000 0.0000 0.0000 28.0036 0.0000 0.0000
# 5 0.0000 0.0000 0.0000 0.0000 8.5833 0.0000
# 6 0.0000 0.0000 0.0000 0.0000 0.0000 5.2376
#
#
#
# Elastic Compliance Matrix: (Units=1/GPa)
#
#
# Indices 1 2 3 4 5 6 
#
# 1 0.011373 -0.001070 -0.003321 0.000000 0.000000 0.000000
# 2 -0.001070 0.011907 -0.000569 0.000000 0.000000 0.000000
# 3 -0.003321 -0.000569 0.014006 0.000000 0.000000 0.000000
# 4 0.000000 0.000000 0.000000 0.035710 0.000000 0.000000
# 5 0.000000 0.000000 0.000000 0.000000 0.116505 0.000000
# 6 0.000000 0.000000 0.000000 0.000000 0.000000 0.190928
#
#
# Mechanical properties :
#
#
# Convention : Reuss Voigt Hill
#
# Bulk Modulus (GPa) = 36.53954 37.19822 36.86888
# Shear Modulus (GPa) = 12.51661 22.98526 17.75093
#
# Velocity S-wave (km/s) = 2.63596 3.57207 3.13910
# Velocity P-wave (km/s) = 5.43584 6.13698 5.79702
#
# Compressibility (1/GPa) = 0.02736762
#
# Stress axis : x y z
#
# Youngs Moduli (GPa) = 87.93116 83.98322 71.39755
#
# Poissons Ratio (x) = 0.08984 0.23709
# Poissons Ratio (y) = 0.09406 0.04061
# Poissons Ratio (z) = 0.29199 0.04776
#
# Static dielectric constant tensor:
#      x y z
#    x 1.569930 0.000000 0.000000 
#    y 0.000000 1.624720 0.000000 
#    z 0.000000 0.000000 1.641180 
# 
# From -- ./inp_files/51831.got.cif
#   From: 2010.05.17/outbox.cif.g08.bks.cpg/sg71_26_cif.got.tgz:51831.got - 2010.06.03 16:22:01.
