data_PCOD9518176
_publ_section_title
;
Structure prediction by ZEFSAII (Michael W. Deem and Ramdas Pophale) SiO2 
 PCOD9518176
Probable space group: I M M M
;
_chemical_formula_sum "Si O2"
_cell_formula_units_Z 104
_cell_length_a 26.550394
_cell_length_b 27.173981
_cell_length_c 8.371731
_cell_angle_alpha 90.000000
_cell_angle_beta 90.000000
_cell_angle_gamma 90.000000
_cell_volume 6040.035662
_symmetry_space_group_name_H-M "I M M M"
_symmetry_group_IT_number 71
_symmetry_cell_setting 'orthorhombic'
loop_
_space_group_symop_operation_xyz
x,y,z
-x,-y,z
x,-y,-z
-x,y,-z
-x,-y,-z
x,y,-z
-x,y,z
x,-y,z
1/2+x,1/2+y,1/2+z
1/2-x,1/2-y,1/2+z
1/2+x,1/2-y,1/2-z
1/2-x,1/2+y,1/2-z
1/2-x,1/2-y,1/2-z
1/2+x,1/2+y,1/2-z
1/2-x,1/2+y,1/2+z
1/2+x,1/2-y,1/2+z
loop_
_atom_site_type_symbol
_atom_site_label
_atom_site_fract_x
_atom_site_fract_y
_atom_site_fract_z
Si Si1 0.801422 0.900726 0.668921
Si Si2 0.369760 0.688739 0.180380
Si Si3 0.442011 0.605221 0.310299
Si Si4 0.197515 0.725121 0.694661
Si Si5 0.676616 0.942021 0.000000
Si Si6 0.442255 0.500000 0.189812
Si Si7 0.799014 0.056193 0.000000
Si Si8 0.183801 0.614189 0.818446
O O1 0.820397 0.922562 0.500000
O O2 0.819283 0.844536 0.669647
O O3 0.741367 0.904914 0.668616
O O4 0.818626 0.920905 0.837685
O O5 0.409703 0.653046 0.263452
O O6 0.349168 0.739928 0.247073
O O7 0.388116 0.697283 0.000000
O O8 0.442531 0.601115 0.500000
O O9 0.500000 0.611029 0.252522
O O10 0.421886 0.553063 0.243266
O O11 0.198073 0.722226 0.500000
O O12 0.250000 0.750000 0.750000
O O13 0.189382 0.671231 0.768070
O O14 0.660552 0.915102 0.834033
O O15 0.738038 0.938994 0.000000
O O16 0.663493 0.000000 0.000000
O O17 0.500000 0.500000 0.253664
O O18 0.443004 0.500000 0.000000
O O19 0.812609 0.000000 0.000000
O O20 0.162297 0.609198 0.000000
#
# Coordination Sequence:
#
# PCOD9518176 Si02
#       8
#    16  16  16  16   8   8   8  16
#     4   9  18  31  44  62  88 114 150 196 236 294
#     4  10  21  34  48  69  95 123 158 197 250 304
#     4  10  21  36  53  73  95 121 161 214 264 317
#     4  11  20  31  49  73  99 128 161 206 252 302
#     4   9  18  32  48  66  92 125 163 204 239 284
#     4   9  17  33  57  75  89 117 157 205 267 323
#     4   9  18  30  44  60  81 118 155 189 244 294
#     4  10  18  31  48  69  95 124 161 200 246 292
#
# _framework density 17.218442
#
# number of rings (size 3 to 8) (size 9 to 14) (size 15 to 20)
#    0.000    2.231    2.308    1.154    1.077    3.692 
#    1.385    3.077    0.000    0.000    0.000    0.000 
#    0.000    0.000    0.000    0.000    0.000    1.538 
#
# Total GULP energy -289545.554984 kJ/mol
# GULP energy per Si atom -5568.183750 kJ/mol
# Density = 1.717925 g / cm^3
# Si number density = 17.218442 Si / 1000 Ang^3
#
#
#
# Elastic Constant Matrix: (Units=GPa)
#
#
# Indices 1 2 3 4 5 6 
#
# 1 33.1862 20.6393 14.9185 0.0000 0.0000 0.0000
# 2 20.6393 101.2754 69.2585 0.0000 0.0000 0.0000
# 3 14.9185 69.2585 132.8375 0.0000 0.0000 0.0000
# 4 0.0000 0.0000 0.0000 7.5734 0.0000 0.0000
# 5 0.0000 0.0000 0.0000 0.0000 17.2586 0.0000
# 6 0.0000 0.0000 0.0000 0.0000 0.0000 12.9030
#
#
#
# Elastic Compliance Matrix: (Units=1/GPa)
#
#
# Indices 1 2 3 4 5 6 
#
# 1 0.034516 -0.006812 -0.000325 0.000000 0.000000 0.000000
# 2 -0.006812 0.016690 -0.007937 0.000000 0.000000 0.000000
# 3 -0.000325 -0.007937 0.011702 0.000000 0.000000 0.000000
# 4 0.000000 0.000000 0.000000 0.132040 0.000000 0.000000
# 5 0.000000 0.000000 0.000000 0.000000 0.057942 0.000000
# 6 0.000000 0.000000 0.000000 0.000000 0.000000 0.077501
#
#
# Mechanical properties :
#
#
# Convention : Reuss Voigt Hill
#
# Bulk Modulus (GPa) = 30.52400 52.99241 41.75821
# Shear Modulus (GPa) = 13.46044 18.37920 15.91982
#
# Velocity S-wave (km/s) = 2.79900 3.27067 3.04399
# Velocity P-wave (km/s) = 5.31149 6.71613 6.05468
#
# Compressibility (1/GPa) = 0.03276111
#
# Stress axis : x y z
#
# Youngs Moduli (GPa) = 28.97248 59.91635 85.45185
#
# Poissons Ratio (x) = 0.40815 0.02775
# Poissons Ratio (y) = 0.19736 0.67821
# Poissons Ratio (z) = 0.00941 0.47554
#
# Static dielectric constant tensor:
#      x y z
#    x 1.588920 0.000000 0.000000 
#    y 0.000000 1.600860 0.000000 
#    z 0.000000 0.000000 1.630560 
# 
# From -- ./inp_files/15340.got.cif
#   From: 2010.05.17/outbox.cif.g08.bks.cpg/sg71_8_cif.got.tgz:15340.got - 2010.06.03 16:22:01.
