data_PCOD9518623
_publ_section_title
;
Structure prediction by ZEFSAII (Michael W. Deem and Ramdas Pophale) SiO2 
 PCOD9518623
Probable space group: I M M M
;
_chemical_formula_sum "Si O2"
_cell_formula_units_Z 48
_cell_length_a 22.514780
_cell_length_b 7.300356
_cell_length_c 13.111621
_cell_angle_alpha 90.000000
_cell_angle_beta 90.000000
_cell_angle_gamma 90.000000
_cell_volume 2155.103508
_symmetry_space_group_name_H-M "I M M M"
_symmetry_group_IT_number 71
_symmetry_cell_setting 'orthorhombic'
loop_
_space_group_symop_operation_xyz
x,y,z
-x,-y,z
x,-y,-z
-x,y,-z
-x,-y,-z
x,y,-z
-x,y,z
x,-y,z
1/2+x,1/2+y,1/2+z
1/2-x,1/2-y,1/2+z
1/2+x,1/2-y,1/2-z
1/2-x,1/2+y,1/2-z
1/2-x,1/2-y,1/2-z
1/2+x,1/2+y,1/2-z
1/2-x,1/2+y,1/2+z
1/2+x,1/2-y,1/2+z
loop_
_atom_site_type_symbol
_atom_site_label
_atom_site_fract_x
_atom_site_fract_y
_atom_site_fract_z
Si Si1 0.934176 0.276162 0.723450
Si Si2 0.593410 0.792097 0.000000
Si Si3 0.159023 0.721080 0.887868
Si Si4 0.230171 0.220707 0.500000
O O1 0.931018 0.500000 0.721817
O O2 0.926495 0.211129 0.607396
O O3 0.880975 0.211509 0.795993
O O4 0.000000 0.227754 0.761065
O O5 0.664818 0.796122 0.000000
O O6 0.570450 0.000000 0.000000
O O7 0.159646 0.500000 0.881301
O O8 0.228100 0.775511 0.903555
O O9 0.132594 0.767338 0.000000
O O10 0.225176 0.000000 0.500000
#
# Coordination Sequence:
#
# PCOD9518623 Si02
#       4
#    16   8  16   8
#     4   9  16  26  41  62  89 116 140 174 218 257
#     4  10  19  28  42  67  93 115 141 172 210 260
#     4   7  13  26  42  62  84 108 143 181 214 249
#     4   8  16  31  46  63  86 114 145 178 214 248
#
# _framework density 22.272711999999999
#
# number of rings (size 3 to 8) (size 9 to 14) (size 15 to 20)
#    1.000    2.667    0.000    0.500    0.000    4.000 
#    0.000    3.333    0.000    2.000    0.000    0.000 
#    0.000    1.333    0.000    0.000    0.000    0.000 
#
# Total GULP energy -133614.000221 kJ/mol
# GULP energy per Si atom -5567.250009 kJ/mol
# Density = 2.222202 g / cm^3
# Si number density = 22.272712 Si / 1000 Ang^3
#
#
#
# Elastic Constant Matrix: (Units=GPa)
#
#
# Indices 1 2 3 4 5 6 
#
# 1 127.1956 1.3552 26.1541 0.0000 0.0000 0.0000
# 2 1.3552 93.4519 -0.5966 0.0000 0.0000 0.0000
# 3 26.1541 -0.5966 52.8281 0.0000 0.0000 0.0000
# 4 0.0000 0.0000 0.0000 -19.6132 0.0000 0.0000
# 5 0.0000 0.0000 0.0000 0.0000 47.0986 0.0000
# 6 0.0000 0.0000 0.0000 0.0000 0.0000 7.4594
#
#
#
# Elastic Compliance Matrix: (Units=1/GPa)
#
#
# Indices 1 2 3 4 5 6 
#
# 1 0.008755 -0.000155 -0.004336 0.000000 0.000000 0.000000
# 2 -0.000155 0.010704 0.000197 0.000000 0.000000 0.000000
# 3 -0.004336 0.000197 0.021078 0.000000 0.000000 0.000000
# 4 0.000000 0.000000 0.000000 -0.050986 0.000000 0.000000
# 5 0.000000 0.000000 0.000000 0.000000 0.021232 0.000000
# 6 0.000000 0.000000 0.000000 0.000000 0.000000 0.134058
#
#
# Mechanical properties :
#
#
# Convention : Reuss Voigt Hill
#
# Bulk Modulus (GPa) = 31.29812 36.36678 33.83245
# Shear Modulus (GPa) = 30.47306 23.42648 26.94977
#
# Velocity S-wave (km/s) = 3.70290 3.24667 3.48227
# Velocity P-wave (km/s) = 5.68900 5.51524 5.60279
#
# Compressibility (1/GPa) = 0.03195080
#
# Stress axis : x y z
#
# Youngs Moduli (GPa) = 114.21810 93.42129 47.44208
#
# Poissons Ratio (x) = 0.01445 0.20572
# Poissons Ratio (y) = 0.01766 -0.00937
# Poissons Ratio (z) = 0.49528 -0.01845
#
# Static dielectric constant tensor:
#      x y z
#    x 1.784690 0.000000 0.000000 
#    y 0.000000 1.853290 0.000000 
#    z 0.000000 0.000000 1.817380 
# 
# From -- ./inp_files/19478.got.cif
#   From: 2010.05.17/outbox.cif.g08.bks.cpg/sg71_10_cif.got.tgz:19478.got - 2010.06.03 16:22:01.
