data_PCOD9518444
_publ_section_title
;
Structure prediction by ZEFSAII (Michael W. Deem and Ramdas Pophale) SiO2 
 PCOD9518444
Probable space group: I M M M
;
_chemical_formula_sum "Si O2"
_cell_formula_units_Z 88
_cell_length_a 22.722708
_cell_length_b 8.960946
_cell_length_c 22.938993
_cell_angle_alpha 90.000000
_cell_angle_beta 90.000000
_cell_angle_gamma 90.000000
_cell_volume 4670.768005
_symmetry_space_group_name_H-M "I M M M"
_symmetry_group_IT_number 71
_symmetry_cell_setting 'orthorhombic'
loop_
_space_group_symop_operation_xyz
x,y,z
-x,-y,z
x,-y,-z
-x,y,-z
-x,-y,-z
x,y,-z
-x,y,z
x,-y,z
1/2+x,1/2+y,1/2+z
1/2-x,1/2-y,1/2+z
1/2+x,1/2-y,1/2-z
1/2-x,1/2+y,1/2-z
1/2-x,1/2-y,1/2-z
1/2+x,1/2+y,1/2-z
1/2-x,1/2+y,1/2+z
1/2+x,1/2-y,1/2+z
loop_
_atom_site_type_symbol
_atom_site_label
_atom_site_fract_x
_atom_site_fract_y
_atom_site_fract_z
Si Si1 0.500000 0.181140 0.432832
Si Si2 0.226234 0.168232 0.000000
Si Si3 0.707645 0.672271 0.629214
Si Si4 0.093199 0.677247 0.835166
Si Si5 0.566084 0.322995 0.786866
Si Si6 0.153633 0.678278 0.377967
Si Si7 0.346549 0.325325 0.000000
O O1 0.500000 0.235824 0.500000
O O2 0.556531 0.222764 0.393061
O O3 0.500000 0.000000 0.436027
O O4 0.192527 0.178386 0.060235
O O5 0.276389 0.292577 0.000000
O O6 0.254672 0.000000 0.000000
O O7 0.700797 0.500000 0.648735
O O8 0.661588 0.778636 0.659974
O O9 0.776816 0.712087 0.632845
O O10 0.086187 0.500000 0.828175
O O11 0.069213 0.760271 0.778477
O O12 0.500000 0.295750 0.809727
O O13 0.576612 0.500000 0.786381
O O14 0.614031 0.242878 0.826757
O O15 0.149009 0.500000 0.381186
O O16 0.134020 0.748976 0.439702
O O17 0.359450 0.500000 0.000000
#
# Coordination Sequence:
#
# PCOD9518444 Si02
#       7
#     8   8  16  16  16  16   8
#     4   9  20  38  57  83 121 158 199 250 291 335
#     4   8  16  32  52  76 116 160 195 234 287 348
#     4   9  19  35  55  84 118 152 191 242 295 343
#     4  11  22  37  60  85 116 157 200 244 294 352
#     4  11  24  42  63  85 114 151 194 245 299 353
#     4  10  21  39  63  88 120 158 195 238 291 352
#     4  10  18  32  57  89 123 153 188 234 285 340
#
# _framework density 18.840585000000001
#
# number of rings (size 3 to 8) (size 9 to 14) (size 15 to 20)
#    0.000    2.091    0.909    3.545    1.273    5.455 
#    0.000    0.455    0.000    4.909    0.000    0.000 
#    0.000    0.000    0.000    0.000    0.000    0.000 
#
# Total GULP energy -245402.416604 kJ/mol
# GULP energy per Si atom -5577.327650 kJ/mol
# Density = 1.879770 g / cm^3
# Si number density = 18.840585 Si / 1000 Ang^3
#
#
#
# Elastic Constant Matrix: (Units=GPa)
#
#
# Indices 1 2 3 4 5 6 
#
# 1 95.0813 51.7551 56.6348 0.0000 0.0000 0.0000
# 2 51.7551 66.4821 36.7376 0.0000 0.0000 0.0000
# 3 56.6348 36.7376 100.7862 0.0000 0.0000 0.0000
# 4 0.0000 0.0000 0.0000 29.4235 0.0000 0.0000
# 5 0.0000 0.0000 0.0000 0.0000 16.7060 0.0000
# 6 0.0000 0.0000 0.0000 0.0000 0.0000 17.5167
#
#
#
# Elastic Compliance Matrix: (Units=1/GPa)
#
#
# Indices 1 2 3 4 5 6 
#
# 1 0.022210 -0.013015 -0.007736 0.000000 0.000000 0.000000
# 2 -0.013015 0.026462 -0.002332 0.000000 0.000000 0.000000
# 3 -0.007736 -0.002332 0.015119 0.000000 0.000000 0.000000
# 4 0.000000 0.000000 0.000000 0.033986 0.000000 0.000000
# 5 0.000000 0.000000 0.000000 0.000000 0.059859 0.000000
# 6 0.000000 0.000000 0.000000 0.000000 0.000000 0.057089
#
#
# Mechanical properties :
#
#
# Convention : Reuss Voigt Hill
#
# Bulk Modulus (GPa) = 56.73917 61.40049 59.06983
# Shear Modulus (GPa) = 18.74297 20.54405 19.64351
#
# Velocity S-wave (km/s) = 3.15750 3.30572 3.23246
# Velocity P-wave (km/s) = 6.59347 6.87246 6.73441
#
# Compressibility (1/GPa) = 0.01762451
#
# Stress axis : x y z
#
# Youngs Moduli (GPa) = 45.02545 37.78961 66.14026
#
# Poissons Ratio (x) = 0.49183 0.51168
# Poissons Ratio (y) = 0.58600 0.15426
# Poissons Ratio (z) = 0.34833 0.08814
#
# Static dielectric constant tensor:
#      x y z
#    x 1.653060 0.000000 0.000000 
#    y 0.000000 1.636220 0.000000 
#    z 0.000000 0.000000 1.663090 
# 
# From -- ./inp_files/55598.got.cif
#   From: 2010.05.17/outbox.cif.g08.bks.cpg/sg71_28_cif.got.tgz:55598.got - 2010.06.03 16:22:01.
