data_PCOD9518025
_publ_section_title
;
Structure prediction by ZEFSAII (Michael W. Deem and Ramdas Pophale) SiO2 
 PCOD9518025
Probable space group: I M M M
;
_chemical_formula_sum "Si O2"
_cell_formula_units_Z 80
_cell_length_a 21.016514
_cell_length_b 8.623402
_cell_length_c 25.625841
_cell_angle_alpha 90.000000
_cell_angle_beta 90.000000
_cell_angle_gamma 90.000000
_cell_volume 4644.269795
_symmetry_space_group_name_H-M "I M M M"
_symmetry_group_IT_number 71
_symmetry_cell_setting 'orthorhombic'
loop_
_space_group_symop_operation_xyz
x,y,z
-x,-y,z
x,-y,-z
-x,y,-z
-x,-y,-z
x,y,-z
-x,y,z
x,-y,z
1/2+x,1/2+y,1/2+z
1/2-x,1/2-y,1/2+z
1/2+x,1/2-y,1/2-z
1/2-x,1/2+y,1/2-z
1/2-x,1/2-y,1/2-z
1/2+x,1/2+y,1/2-z
1/2-x,1/2+y,1/2+z
1/2+x,1/2-y,1/2+z
loop_
_atom_site_type_symbol
_atom_site_label
_atom_site_fract_x
_atom_site_fract_y
_atom_site_fract_z
Si Si1 0.691841 0.686555 0.715389
Si Si2 0.756360 0.185073 0.000000
Si Si3 0.761904 0.314827 0.891924
Si Si4 0.888091 0.815471 0.500000
Si Si5 0.570949 0.314403 0.784357
Si Si6 0.382089 0.815801 0.891662
O O1 0.695842 0.500000 0.712744
O O2 0.750000 0.750000 0.750000
O O3 0.699511 0.756528 0.657979
O O4 0.626503 0.730385 0.744392
O O5 0.786701 0.243502 0.946261
O O6 0.685968 0.261762 0.000000
O O7 0.750071 0.000000 0.000000
O O8 0.761123 0.500000 0.894652
O O9 0.688941 0.255675 0.885819
O O10 0.912712 0.749034 0.554867
O O11 0.892558 0.000000 0.500000
O O12 0.500000 0.282303 0.764499
O O13 0.576755 0.500000 0.793056
O O14 0.581123 0.232161 0.839741
O O15 0.376245 0.000000 0.896067
#
# Coordination Sequence:
#
# PCOD9518025 Si02
#       6
#    16   8  16   8  16  16
#     4  11  21  34  55  81 108 139 178 222 266 315
#     4  10  18  30  48  75 108 137 172 217 266 315
#     4  11  20  32  51  77 109 142 176 216 264 317
#     4  10  18  30  49  71 100 137 177 218 264 313
#     4  10  22  39  56  75 104 142 180 218 266 321
#     4  11  20  32  51  75 104 136 177 223 267 312
#
# _framework density 17.225528000000001
#
# number of rings (size 3 to 8) (size 9 to 14) (size 15 to 20)
#    0.000    1.400    2.000    8.400    0.000    1.200 
#    0.000    0.500    0.000    3.000    0.000    0.700 
#    0.000    5.600    0.000    0.000    0.000    0.000 
#
# Total GULP energy -223415.672095 kJ/mol
# GULP energy per Si atom -5585.391802 kJ/mol
# Density = 1.718632 g / cm^3
# Si number density = 17.225528 Si / 1000 Ang^3
#
#
#
# Elastic Constant Matrix: (Units=GPa)
#
#
# Indices 1 2 3 4 5 6 
#
# 1 79.1544 35.8734 51.1958 0.0000 0.0000 0.0000
# 2 35.8734 95.6689 44.3615 0.0000 0.0000 0.0000
# 3 51.1958 44.3615 143.4658 0.0000 0.0000 0.0000
# 4 0.0000 0.0000 0.0000 34.3293 0.0000 0.0000
# 5 0.0000 0.0000 0.0000 0.0000 13.4155 0.0000
# 6 0.0000 0.0000 0.0000 0.0000 0.0000 13.7529
#
#
#
# Elastic Compliance Matrix: (Units=1/GPa)
#
#
# Indices 1 2 3 4 5 6 
#
# 1 0.017863 -0.004369 -0.005023 0.000000 0.000000 0.000000
# 2 -0.004369 0.013271 -0.002545 0.000000 0.000000 0.000000
# 3 -0.005023 -0.002545 0.009550 0.000000 0.000000 0.000000
# 4 0.000000 0.000000 0.000000 0.029130 0.000000 0.000000
# 5 0.000000 0.000000 0.000000 0.000000 0.074541 0.000000
# 6 0.000000 0.000000 0.000000 0.000000 0.000000 0.072712
#
#
# Mechanical properties :
#
#
# Convention : Reuss Voigt Hill
#
# Bulk Modulus (GPa) = 59.48912 64.57228 62.03070
# Shear Modulus (GPa) = 20.28054 24.75675 22.51865
#
# Velocity S-wave (km/s) = 3.43498 3.79517 3.61956
# Velocity P-wave (km/s) = 7.09525 7.53473 7.31829
#
# Compressibility (1/GPa) = 0.01680980
#
# Stress axis : x y z
#
# Youngs Moduli (GPa) = 55.98317 75.35377 104.71521
#
# Poissons Ratio (x) = 0.32919 0.52603
# Poissons Ratio (y) = 0.24457 0.26645
# Poissons Ratio (z) = 0.28123 0.19174
#
# Static dielectric constant tensor:
#      x y z
#    x 1.580950 0.000000 0.000000 
#    y 0.000000 1.576720 0.000000 
#    z 0.000000 0.000000 1.617530 
# 
# From -- ./inp_files/10774.got.cif
#   From: 2010.05.17/outbox.cif.g08.bks.cpg/sg71_6_cif.got.tgz:10774.got - 2010.06.03 16:22:01.
