data_PCOD9518728
_publ_section_title
;
Structure prediction by ZEFSAII (Michael W. Deem and Ramdas Pophale) SiO2 
 PCOD9518728
Probable space group: I M M M
;
_chemical_formula_sum "Si O2"
_cell_formula_units_Z 80
_cell_length_a 22.901747
_cell_length_b 7.949746
_cell_length_c 19.653121
_cell_angle_alpha 90.000000
_cell_angle_beta 90.000000
_cell_angle_gamma 90.000000
_cell_volume 3578.107576
_symmetry_space_group_name_H-M "I M M M"
_symmetry_group_IT_number 71
_symmetry_cell_setting 'orthorhombic'
loop_
_space_group_symop_operation_xyz
x,y,z
-x,-y,z
x,-y,-z
-x,y,-z
-x,-y,-z
x,y,-z
-x,y,z
x,-y,z
1/2+x,1/2+y,1/2+z
1/2-x,1/2-y,1/2+z
1/2+x,1/2-y,1/2-z
1/2-x,1/2+y,1/2-z
1/2-x,1/2-y,1/2-z
1/2+x,1/2+y,1/2-z
1/2-x,1/2+y,1/2+z
1/2+x,1/2-y,1/2+z
loop_
_atom_site_type_symbol
_atom_site_label
_atom_site_fract_x
_atom_site_fract_y
_atom_site_fract_z
Si Si1 0.377148 0.198190 0.000000
Si Si2 0.930755 0.296619 0.073255
Si Si3 0.757614 0.700177 0.147534
Si Si4 0.872001 0.703143 0.211119
Si Si5 0.874160 0.800955 0.355894
Si Si6 0.742122 0.297464 0.500000
O O1 0.403164 0.247936 0.072994
O O2 0.310190 0.266162 0.000000
O O3 0.373007 0.000000 0.000000
O O4 0.922455 0.500000 0.072836
O O5 0.904268 0.233720 0.143665
O O6 0.000000 0.266826 0.074748
O O7 0.908428 0.231492 0.000000
O O8 0.753083 0.500000 0.157225
O O9 0.805025 0.765792 0.201200
O O10 0.692254 0.774243 0.147188
O O11 0.782365 0.731074 0.071281
O O12 0.871316 0.500000 0.209725
O O13 0.899656 0.754183 0.282757
O O14 0.869618 0.000000 0.359245
O O15 0.740925 0.500000 0.500000
#
# Coordination Sequence:
#
# PCOD9518728 Si02
#       6
#     8  16  16  16  16   8
#     4   9  17  31  49  65  88 123 164 197 226 273
#     4   8  15  29  49  73  98 123 158 207 253 285
#     4   9  18  29  42  62  92 128 162 198 236 280
#     4  10  19  29  47  71  93 123 163 202 241 287
#     4  10  19  31  45  66  98 131 160 195 239 285
#     4   9  17  27  41  61  86 121 160 198 234 274
#
# _framework density 22.358188999999999
#
# number of rings (size 3 to 8) (size 9 to 14) (size 15 to 20)
#    0.000    2.800    0.000    2.400    1.400    4.000 
#    0.000    0.000    0.000    0.600    0.000    2.100 
#    0.000    5.600    0.000    0.000    0.000    0.000 
#
# Total GULP energy -223044.606804 kJ/mol
# GULP energy per Si atom -5576.115170 kJ/mol
# Density = 2.230730 g / cm^3
# Si number density = 22.358189 Si / 1000 Ang^3
#
#
#
# Elastic Constant Matrix: (Units=GPa)
#
#
# Indices 1 2 3 4 5 6 
#
# 1 8.6986 2.9793 22.6331 0.0000 0.0000 0.0000
# 2 2.9793 31.5334 4.1433 0.0000 0.0000 0.0000
# 3 22.6331 4.1433 211.2447 0.0000 0.0000 0.0000
# 4 0.0000 0.0000 0.0000 27.5658 0.0000 0.0000
# 5 0.0000 0.0000 0.0000 0.0000 22.1986 0.0000
# 6 0.0000 0.0000 0.0000 0.0000 0.0000 2.4947
#
#
#
# Elastic Compliance Matrix: (Units=1/GPa)
#
#
# Indices 1 2 3 4 5 6 
#
# 1 0.164763 -0.013282 -0.017393 0.000000 0.000000 0.000000
# 2 -0.013282 0.032865 0.000778 0.000000 0.000000 0.000000
# 3 -0.017393 0.000778 0.006582 0.000000 0.000000 0.000000
# 4 0.000000 0.000000 0.000000 0.036277 0.000000 0.000000
# 5 0.000000 0.000000 0.000000 0.000000 0.045048 0.000000
# 6 0.000000 0.000000 0.000000 0.000000 0.000000 0.400843
#
#
# Mechanical properties :
#
#
# Convention : Reuss Voigt Hill
#
# Bulk Modulus (GPa) = 6.92431 34.55424 20.73928
# Shear Modulus (GPa) = 6.29478 25.23323 15.76400
#
# Velocity S-wave (km/s) = 1.67974 3.36309 2.65819
# Velocity P-wave (km/s) = 2.62026 5.52892 4.32636
#
# Compressibility (1/GPa) = 0.14441863
#
# Stress axis : x y z
#
# Youngs Moduli (GPa) = 6.06932 30.42750 151.92855
#
# Poissons Ratio (x) = 0.40413 2.64242
# Poissons Ratio (y) = 0.08061 -0.11826
# Poissons Ratio (z) = 0.10556 -0.02369
#
# Static dielectric constant tensor:
#      x y z
#    x 1.860490 0.000000 0.000000 
#    y 0.000000 1.771560 0.000000 
#    z 0.000000 0.000000 1.929050 
# 
# From -- ./inp_files/14575.got.cif
#   From: 2010.05.17/outbox.cif.g08.bks.cpg/sg71_8_cif.got.tgz:14575.got - 2010.06.03 16:22:01.
