data_PCOD9518183
_publ_section_title
;
Structure prediction by ZEFSAII (Michael W. Deem and Ramdas Pophale) SiO2 
 PCOD9518183
Probable space group: I M M M
;
_chemical_formula_sum "Si O2"
_cell_formula_units_Z 96
_cell_length_a 25.948183
_cell_length_b 17.053013
_cell_length_c 13.956174
_cell_angle_alpha 90.000000
_cell_angle_beta 90.000000
_cell_angle_gamma 90.000000
_cell_volume 6175.533056
_symmetry_space_group_name_H-M "I M M M"
_symmetry_group_IT_number 71
_symmetry_cell_setting 'orthorhombic'
loop_
_space_group_symop_operation_xyz
x,y,z
-x,-y,z
x,-y,-z
-x,y,-z
-x,-y,-z
x,y,-z
-x,y,z
x,-y,z
1/2+x,1/2+y,1/2+z
1/2-x,1/2-y,1/2+z
1/2+x,1/2-y,1/2-z
1/2-x,1/2+y,1/2-z
1/2-x,1/2-y,1/2-z
1/2+x,1/2+y,1/2-z
1/2-x,1/2+y,1/2+z
1/2+x,1/2-y,1/2+z
loop_
_atom_site_type_symbol
_atom_site_label
_atom_site_fract_x
_atom_site_fract_y
_atom_site_fract_z
Si Si1 0.212112 0.593850 0.112946
Si Si2 0.628202 0.186228 0.257594
Si Si3 0.559030 0.094121 0.110922
Si Si4 0.652915 0.592911 0.389181
Si Si5 0.559328 0.294739 0.386894
Si Si6 0.206785 0.186809 0.723217
O O1 0.211514 0.500000 0.129123
O O2 0.168874 0.636982 0.177963
O O3 0.267050 0.631115 0.144482
O O4 0.202888 0.608361 0.000000
O O5 0.599463 0.132477 0.181675
O O6 0.586520 0.226083 0.327563
O O7 0.657601 0.257866 0.203824
O O8 0.500000 0.117117 0.134605
O O9 0.561787 0.000000 0.117513
O O10 0.568558 0.115418 0.000000
O O11 0.667331 0.609669 0.500000
O O12 0.652884 0.500000 0.375243
O O13 0.596127 0.629647 0.374078
O O14 0.690896 0.635178 0.315252
O O15 0.560381 0.275793 0.500000
O O16 0.500000 0.307484 0.358855
O O17 0.250000 0.250000 0.750000
#
# Coordination Sequence:
#
# PCOD9518183 Si02
#       6
#    16  16  16  16  16  16
#     4  10  20  33  48  65  88 118 151 187 226 269
#     4  10  18  31  49  69  90 119 152 187 223 267
#     4   9  18  32  49  69  93 120 149 183 224 268
#     4   9  17  30  48  68  92 122 154 188 225 268
#     4   9  17  28  44  69  98 124 150 182 222 267
#     4   9  19  31  46  66  89 117 150 188 229 268
#
# _framework density 15.545216
#
# number of rings (size 3 to 8) (size 9 to 14) (size 15 to 20)
#    0.000    2.667    0.000    2.500    0.000    5.000 
#    0.000    4.167    0.000    9.000    0.000    7.000 
#    0.000    0.000    0.000   31.000    0.000    0.500 
#
# Total GULP energy -267273.299367 kJ/mol
# GULP energy per Si atom -5568.193737 kJ/mol
# Density = 1.550983 g / cm^3
# Si number density = 15.545216 Si / 1000 Ang^3
#
#
#
# Elastic Constant Matrix: (Units=GPa)
#
#
# Indices 1 2 3 4 5 6 
#
# 1 96.2227 44.9828 64.0881 0.0000 0.0000 0.0000
# 2 44.9828 80.9243 54.7472 0.0000 0.0000 0.0000
# 3 64.0881 54.7472 80.8247 0.0000 0.0000 0.0000
# 4 0.0000 0.0000 0.0000 25.9181 0.0000 0.0000
# 5 0.0000 0.0000 0.0000 0.0000 32.4899 0.0000
# 6 0.0000 0.0000 0.0000 0.0000 0.0000 21.7308
#
#
#
# Elastic Compliance Matrix: (Units=1/GPa)
#
#
# Indices 1 2 3 4 5 6 
#
# 1 0.022051 -0.000791 -0.016949 0.000000 0.000000 0.000000
# 2 -0.000791 0.022838 -0.014843 0.000000 0.000000 0.000000
# 3 -0.016949 -0.014843 0.035866 0.000000 0.000000 0.000000
# 4 0.000000 0.000000 0.000000 0.038583 0.000000 0.000000
# 5 0.000000 0.000000 0.000000 0.000000 0.030779 0.000000
# 6 0.000000 0.000000 0.000000 0.000000 0.000000 0.046018
#
#
# Mechanical properties :
#
#
# Convention : Reuss Voigt Hill
#
# Bulk Modulus (GPa) = 64.14480 65.06755 64.60618
# Shear Modulus (GPa) = 18.76199 22.30468 20.53334
#
# Velocity S-wave (km/s) = 3.47786 3.79202 3.63833
# Velocity P-wave (km/s) = 7.58158 7.81795 7.70067
#
# Compressibility (1/GPa) = 0.01558973
#
# Stress axis : x y z
#
# Youngs Moduli (GPa) = 45.34912 43.78646 27.88179
#
# Poissons Ratio (x) = 0.03463 0.47258
# Poissons Ratio (y) = 0.03586 0.41384
# Poissons Ratio (z) = 0.76864 0.64990
#
# Static dielectric constant tensor:
#      x y z
#    x 1.521150 0.000000 0.000000 
#    y 0.000000 1.510430 0.000000 
#    z 0.000000 0.000000 1.502250 
# 
# From -- ./inp_files/24218.got.cif
#   From: 2010.05.17/outbox.cif.g08.bks.cpg/sg71_13_cif.got.tgz:24218.got - 2010.06.03 16:22:01.
