data_PCOD9518352
_publ_section_title
;
Structure prediction by ZEFSAII (Michael W. Deem and Ramdas Pophale) SiO2 
 PCOD9518352
Probable space group: I M M M
;
_chemical_formula_sum "Si O2"
_cell_formula_units_Z 104
_cell_length_a 18.064962
_cell_length_b 16.645173
_cell_length_c 21.096991
_cell_angle_alpha 90.000000
_cell_angle_beta 90.000000
_cell_angle_gamma 90.000000
_cell_volume 6343.747425
_symmetry_space_group_name_H-M "I M M M"
_symmetry_group_IT_number 71
_symmetry_cell_setting 'orthorhombic'
loop_
_space_group_symop_operation_xyz
x,y,z
-x,-y,z
x,-y,-z
-x,y,-z
-x,-y,-z
x,y,-z
-x,y,z
x,-y,z
1/2+x,1/2+y,1/2+z
1/2-x,1/2-y,1/2+z
1/2+x,1/2-y,1/2-z
1/2-x,1/2+y,1/2-z
1/2-x,1/2-y,1/2-z
1/2+x,1/2+y,1/2-z
1/2-x,1/2+y,1/2+z
1/2+x,1/2-y,1/2+z
loop_
_atom_site_type_symbol
_atom_site_label
_atom_site_fract_x
_atom_site_fract_y
_atom_site_fract_z
Si Si1 0.796629 0.754024 0.428116
Si Si2 0.665010 0.655571 0.371184
Si Si3 0.586994 0.187704 0.321874
Si Si4 0.780786 0.409392 0.876727
Si Si5 0.086127 0.242816 0.685149
Si Si6 0.916121 0.000000 0.075607
Si Si7 0.162832 0.909088 0.263949
O O1 0.823459 0.744824 0.500000
O O2 0.732521 0.690108 0.411708
O O3 0.757222 0.841319 0.420045
O O4 0.860016 0.745231 0.374658
O O5 0.609112 0.729037 0.356785
O O6 0.625004 0.580118 0.402063
O O7 0.691664 0.626198 0.302136
O O8 0.500000 0.171837 0.328178
O O9 0.639344 0.121159 0.353305
O O10 0.603763 0.202112 0.246888
O O11 0.782787 0.500000 0.902749
O O12 0.728482 0.409832 0.814705
O O13 0.101347 0.152141 0.709989
O O14 0.000000 0.253528 0.669203
O O15 0.000000 0.000000 0.100773
O O16 0.918370 0.000000 0.000000
O O17 0.135494 0.000000 0.255073
#
# Coordination Sequence:
#
# PCOD9518352 Si02
#       7
#    16  16  16  16  16   8  16
#     4  10  20  33  50  69  95 134 172 201 233 278
#     4  10  18  32  49  70  94 126 161 198 233 289
#     4   9  17  30  49  73  98 123 151 197 253 293
#     4   9  18  31  49  70  95 122 161 204 243 284
#     4   9  18  31  48  73 102 128 157 198 245 292
#     4  11  22  32  44  68 101 129 154 190 237 292
#     4   9  16  29  48  73  96 123 153 196 247 290
#
# _framework density 16.394096000000001
#
# number of rings (size 3 to 8) (size 9 to 14) (size 15 to 20)
#    0.000    2.538    0.769    1.846    0.000    5.538 
#    0.000    0.000    0.000    4.154    0.000    8.615 
#    0.000    1.846    0.000    0.000    0.000    0.000 
#
# Total GULP energy -289736.225161 kJ/mol
# GULP energy per Si atom -5571.850484 kJ/mol
# Density = 1.635678 g / cm^3
# Si number density = 16.394096 Si / 1000 Ang^3
#
#
#
# Elastic Constant Matrix: (Units=GPa)
#
#
# Indices 1 2 3 4 5 6 
#
# 1 70.1604 20.2720 17.7048 0.0000 0.0000 0.0000
# 2 20.2720 69.9369 8.9349 0.0000 0.0000 0.0000
# 3 17.7048 8.9349 58.2847 0.0000 0.0000 0.0000
# 4 0.0000 0.0000 0.0000 11.5336 0.0000 0.0000
# 5 0.0000 0.0000 0.0000 0.0000 13.5261 0.0000
# 6 0.0000 0.0000 0.0000 0.0000 0.0000 13.1445
#
#
#
# Elastic Compliance Matrix: (Units=1/GPa)
#
#
# Indices 1 2 3 4 5 6 
#
# 1 0.016588 -0.004248 -0.004388 0.000000 0.000000 0.000000
# 2 -0.004248 0.015672 -0.001112 0.000000 0.000000 0.000000
# 3 -0.004388 -0.001112 0.018660 0.000000 0.000000 0.000000
# 4 0.000000 0.000000 0.000000 0.086703 0.000000 0.000000
# 5 0.000000 0.000000 0.000000 0.000000 0.073931 0.000000
# 6 0.000000 0.000000 0.000000 0.000000 0.000000 0.076077
#
#
# Mechanical properties :
#
#
# Convention : Reuss Voigt Hill
#
# Bulk Modulus (GPa) = 31.82158 32.46729 32.14444
# Shear Modulus (GPa) = 15.74302 17.73886 16.74094
#
# Velocity S-wave (km/s) = 3.10221 3.29299 3.19902
# Velocity P-wave (km/s) = 5.68191 5.85710 5.77017
#
# Compressibility (1/GPa) = 0.03142521
#
# Stress axis : x y z
#
# Youngs Moduli (GPa) = 60.28628 63.80847 53.58931
#
# Poissons Ratio (x) = 0.27103 0.23513
# Poissons Ratio (y) = 0.25607 0.05960
# Poissons Ratio (z) = 0.26451 0.07097
#
# Static dielectric constant tensor:
#      x y z
#    x 1.529440 0.000000 0.000000 
#    y 0.000000 1.557670 0.000000 
#    z 0.000000 0.000000 1.545790 
# 
# From -- ./inp_files/54121.got.cif
#   From: 2010.05.17/outbox.cif.g08.bks.cpg/sg71_28_cif.got.tgz:54121.got - 2010.06.03 16:22:01.
