data_PCOD9518483
_publ_section_title
;
Structure prediction by ZEFSAII (Michael W. Deem and Ramdas Pophale) SiO2 
 PCOD9518483
Probable space group: I M M M
;
_chemical_formula_sum "Si O2"
_cell_formula_units_Z 88
_cell_length_a 28.463656
_cell_length_b 7.649021
_cell_length_c 18.319915
_cell_angle_alpha 90.000000
_cell_angle_beta 90.000000
_cell_angle_gamma 90.000000
_cell_volume 3988.595451
_symmetry_space_group_name_H-M "I M M M"
_symmetry_group_IT_number 71
_symmetry_cell_setting 'orthorhombic'
loop_
_space_group_symop_operation_xyz
x,y,z
-x,-y,z
x,-y,-z
-x,y,-z
-x,-y,-z
x,y,-z
-x,y,z
x,-y,z
1/2+x,1/2+y,1/2+z
1/2-x,1/2-y,1/2+z
1/2+x,1/2-y,1/2-z
1/2-x,1/2+y,1/2-z
1/2-x,1/2-y,1/2-z
1/2+x,1/2+y,1/2-z
1/2-x,1/2+y,1/2+z
1/2+x,1/2-y,1/2+z
loop_
_atom_site_type_symbol
_atom_site_label
_atom_site_fract_x
_atom_site_fract_y
_atom_site_fract_z
Si Si1 0.765308 0.706833 0.832208
Si Si2 0.825049 0.214716 0.416806
Si Si3 0.946314 0.214708 0.836872
Si Si4 0.500000 0.789500 0.083925
Si Si5 0.356117 0.708400 0.580293
Si Si6 0.910635 0.795291 0.320007
O O1 0.764475 0.500000 0.838122
O O2 0.750000 0.750000 0.750000
O O3 0.725508 0.774687 0.887728
O O4 0.816753 0.761522 0.858382
O O5 0.834129 0.269463 0.500000
O O6 0.864779 0.277248 0.360296
O O7 0.825968 0.000000 0.416761
O O8 0.907314 0.272510 0.894829
O O9 0.927391 0.275596 0.757809
O O10 0.000000 0.270925 0.848817
O O11 0.947222 0.000000 0.836221
O O12 0.454084 0.722599 0.125137
O O13 0.500000 0.000000 0.086755
O O14 0.500000 0.733760 0.000000
O O15 0.342271 0.777041 0.500000
O O16 0.360063 0.500000 0.574809
O O17 0.900746 0.000000 0.307219
#
# Coordination Sequence:
#
# PCOD9518483 Si02
#       6
#    16  16  16   8  16  16
#     4  11  22  38  60  84 114 151 191 236 287 343
#     4   9  18  32  53  81 109 139 179 227 276 328
#     4   9  17  32  56  84 113 146 189 239 284 328
#     4  11  23  35  47  71 110 145 174 220 283 339
#     4  10  21  37  59  88 120 152 189 236 290 348
#     4  10  18  33  57  79 100 136 187 232 266 317
#
# _framework density 22.062904
#
# number of rings (size 3 to 8) (size 9 to 14) (size 15 to 20)
#    0.000    2.091    0.909    3.000    0.000    5.818 
#    0.000    6.364    0.000    4.364    0.000    1.273 
#    0.000    0.000    0.000    0.000    0.000    0.000 
#
# Total GULP energy -245805.601736 kJ/mol
# GULP energy per Si atom -5586.490949 kJ/mol
# Density = 2.201269 g / cm^3
# Si number density = 22.062904 Si / 1000 Ang^3
#
#
#
# Elastic Constant Matrix: (Units=GPa)
#
#
# Indices 1 2 3 4 5 6 
#
# 1 163.4979 5.0919 54.3091 0.0000 0.0000 0.0000
# 2 5.0919 40.3751 4.1242 0.0000 0.0000 0.0000
# 3 54.3091 4.1242 112.6992 0.0000 0.0000 0.0000
# 4 0.0000 0.0000 0.0000 0.9187 0.0000 0.0000
# 5 0.0000 0.0000 0.0000 0.0000 8.6428 0.0000
# 6 0.0000 0.0000 0.0000 0.0000 0.0000 -1.0057
#
#
#
# Elastic Compliance Matrix: (Units=1/GPa)
#
#
# Indices 1 2 3 4 5 6 
#
# 1 0.007295 -0.000563 -0.003495 0.000000 0.000000 0.000000
# 2 -0.000563 0.024904 -0.000640 0.000000 0.000000 0.000000
# 3 -0.003495 -0.000640 0.010581 0.000000 0.000000 0.000000
# 4 0.000000 0.000000 0.000000 1.088444 0.000000 0.000000
# 5 0.000000 0.000000 0.000000 0.000000 0.115703 0.000000
# 6 0.000000 0.000000 0.000000 0.000000 0.000000 -0.994286
#
#
# Mechanical properties :
#
#
# Convention : Reuss Voigt Hill
#
# Bulk Modulus (GPa) = 29.95445 49.29139 39.62292
# Shear Modulus (GPa) = 18.30405 18.58097 18.44251
#
# Velocity S-wave (km/s) = 2.88345 2.90518 2.89434
# Velocity P-wave (km/s) = 4.96911 5.80028 5.40071
#
# Compressibility (1/GPa) = 0.03338402
#
# Stress axis : x y z
#
# Youngs Moduli (GPa) = 137.08711 40.15399 94.51223
#
# Poissons Ratio (x) = 0.02261 0.33029
# Poissons Ratio (y) = 0.07718 0.06049
# Poissons Ratio (z) = 0.47907 0.02570
#
# Static dielectric constant tensor:
#      x y z
#    x 1.772850 0.000000 0.000000 
#    y 0.000000 1.858290 0.000000 
#    z 0.000000 0.000000 1.776260 
# 
# From -- ./inp_files/49221.got.cif
#   From: 2010.05.17/outbox.cif.g08.bks.cpg/sg71_25_cif.got.tgz:49221.got - 2010.06.03 16:22:01.
