data_PCOD9518610
_publ_section_title
;
Structure prediction by ZEFSAII (Michael W. Deem and Ramdas Pophale) SiO2 
 PCOD9518610
Probable space group: I M M M
;
_chemical_formula_sum "Si O2"
_cell_formula_units_Z 112
_cell_length_a 18.976498
_cell_length_b 18.642552
_cell_length_c 20.219200
_cell_angle_alpha 90.000000
_cell_angle_beta 90.000000
_cell_angle_gamma 90.000000
_cell_volume 7152.953476
_symmetry_space_group_name_H-M "I M M M"
_symmetry_group_IT_number 71
_symmetry_cell_setting 'orthorhombic'
loop_
_space_group_symop_operation_xyz
x,y,z
-x,-y,z
x,-y,-z
-x,y,-z
-x,-y,-z
x,y,-z
-x,y,z
x,-y,z
1/2+x,1/2+y,1/2+z
1/2-x,1/2-y,1/2+z
1/2+x,1/2-y,1/2-z
1/2-x,1/2+y,1/2-z
1/2-x,1/2-y,1/2-z
1/2+x,1/2+y,1/2-z
1/2-x,1/2+y,1/2+z
1/2+x,1/2-y,1/2+z
loop_
_atom_site_type_symbol
_atom_site_label
_atom_site_fract_x
_atom_site_fract_y
_atom_site_fract_z
Si Si1 0.829088 0.418658 0.185611
Si Si2 0.418201 0.418514 0.147195
Si Si3 0.218835 0.884274 0.573820
Si Si4 0.713434 0.189226 0.796626
Si Si5 0.282439 0.726874 0.426542
Si Si6 0.080612 0.711519 0.865293
Si Si7 0.420309 0.274677 0.220342
O O1 0.851781 0.500000 0.197497
O O2 0.767937 0.417324 0.130329
O O3 0.798581 0.380009 0.251092
O O4 0.890090 0.366299 0.157456
O O5 0.500000 0.412626 0.125986
O O6 0.407398 0.500000 0.171070
O O7 0.361591 0.402339 0.090528
O O8 0.405665 0.357041 0.201852
O O9 0.237447 0.908604 0.500000
O O10 0.234940 0.799217 0.576794
O O11 0.750000 0.250000 0.750000
O O12 0.757725 0.180833 0.863532
O O13 0.637161 0.223233 0.812435
O O14 0.275418 0.695522 0.500000
O O15 0.362072 0.754874 0.414471
O O16 0.083289 0.759077 0.798392
O O17 0.000000 0.708307 0.888622
O O18 0.500000 0.258092 0.198717
#
# Coordination Sequence:
#
# PCOD9518610 Si02
#       7
#    16  16  16  16  16  16  16
#     4  10  20  31  49  75  98 127 165 200 245 295
#     4  10  19  28  40  62  93 126 158 191 228 274
#     4  10  19  31  45  64  93 126 159 191 228 280
#     4  11  16  32  52  69  94 125 164 205 243 285
#     4  10  19  31  51  73  94 125 165 204 245 289
#     4   9  18  32  50  69  97 129 160 204 247 289
#     4   9  16  28  46  67  91 123 157 197 243 282
#
# _framework density 15.657869
#
# number of rings (size 3 to 8) (size 9 to 14) (size 15 to 20)
#    0.000    2.143    5.714    0.429    0.000    2.000 
#    0.000    0.714    0.000    0.857    0.000    4.000 
#    0.000    0.000    0.000   14.000    0.000    0.000 
#
# Total GULP energy -311876.717686 kJ/mol
# GULP energy per Si atom -5569.227102 kJ/mol
# Density = 1.562223 g / cm^3
# Si number density = 15.657869 Si / 1000 Ang^3
#
#
#
# Elastic Constant Matrix: (Units=GPa)
#
#
# Indices 1 2 3 4 5 6 
#
# 1 82.2115 30.9912 36.1480 0.0000 0.0000 0.0000
# 2 30.9912 54.3603 30.6201 0.0000 0.0000 0.0000
# 3 36.1480 30.6201 85.1571 0.0000 0.0000 0.0000
# 4 0.0000 0.0000 0.0000 6.7686 0.0000 0.0000
# 5 0.0000 0.0000 0.0000 0.0000 13.7847 0.0000
# 6 0.0000 0.0000 0.0000 0.0000 0.0000 12.1449
#
#
#
# Elastic Compliance Matrix: (Units=1/GPa)
#
#
# Indices 1 2 3 4 5 6 
#
# 1 0.016835 -0.006988 -0.004634 0.000000 0.000000 0.000000
# 2 -0.006988 0.025968 -0.006371 0.000000 0.000000 0.000000
# 3 -0.004634 -0.006371 0.016001 0.000000 0.000000 0.000000
# 4 0.000000 0.000000 0.000000 0.147740 0.000000 0.000000
# 5 0.000000 0.000000 0.000000 0.000000 0.072544 0.000000
# 6 0.000000 0.000000 0.000000 0.000000 0.000000 0.082339
#
#
# Mechanical properties :
#
#
# Convention : Reuss Voigt Hill
#
# Bulk Modulus (GPa) = 43.82327 46.36085 45.09206
# Shear Modulus (GPa) = 12.34505 14.80428 13.57466
#
# Velocity S-wave (km/s) = 2.81094 3.07821 2.94760
# Velocity P-wave (km/s) = 6.21160 6.50437 6.35967
#
# Compressibility (1/GPa) = 0.02281893
#
# Stress axis : x y z
#
# Youngs Moduli (GPa) = 59.39868 38.50830 62.49650
#
# Poissons Ratio (x) = 0.26909 0.28959
# Poissons Ratio (y) = 0.41507 0.39818
# Poissons Ratio (z) = 0.27524 0.24535
#
# Static dielectric constant tensor:
#      x y z
#    x 1.560940 0.000000 0.000000 
#    y 0.000000 1.517470 0.000000 
#    z 0.000000 0.000000 1.525530 
# 
# From -- ./inp_files/54283.got.cif
#   From: 2010.05.17/outbox.cif.g08.bks.cpg/sg71_28_cif.got.tgz:54283.got - 2010.06.03 16:22:01.
