data_PCOD9518089
_publ_section_title
;
Structure prediction by ZEFSAII (Michael W. Deem and Ramdas Pophale) SiO2 
 PCOD9518089
Probable space group: I M M M
;
_chemical_formula_sum "Si O2"
_cell_formula_units_Z 88
_cell_length_a 25.161676
_cell_length_b 9.103629
_cell_length_c 23.016752
_cell_angle_alpha 90.000000
_cell_angle_beta 90.000000
_cell_angle_gamma 90.000000
_cell_volume 5272.276212
_symmetry_space_group_name_H-M "I M M M"
_symmetry_group_IT_number 71
_symmetry_cell_setting 'orthorhombic'
loop_
_space_group_symop_operation_xyz
x,y,z
-x,-y,z
x,-y,-z
-x,y,-z
-x,-y,-z
x,y,-z
-x,y,z
x,-y,z
1/2+x,1/2+y,1/2+z
1/2-x,1/2-y,1/2+z
1/2+x,1/2-y,1/2-z
1/2-x,1/2+y,1/2-z
1/2-x,1/2-y,1/2-z
1/2+x,1/2+y,1/2-z
1/2-x,1/2+y,1/2+z
1/2+x,1/2-y,1/2+z
loop_
_atom_site_type_symbol
_atom_site_label
_atom_site_fract_x
_atom_site_fract_y
_atom_site_fract_z
Si Si1 0.561490 0.176403 0.850911
Si Si2 0.259271 0.325334 0.568921
Si Si3 0.626597 0.677487 0.614448
Si Si4 0.438853 0.678790 0.500000
Si Si5 0.648412 0.675293 0.068133
Si Si6 0.938628 0.323585 0.215598
O O1 0.500000 0.214380 0.863931
O O2 0.602550 0.255470 0.892794
O O3 0.571427 0.213188 0.783151
O O4 0.566586 0.000000 0.856672
O O5 0.269534 0.302216 0.500000
O O6 0.250812 0.500000 0.576910
O O7 0.312136 0.281141 0.603371
O O8 0.205968 0.239783 0.584964
O O9 0.624379 0.500000 0.617437
O O10 0.592294 0.724075 0.558024
O O11 0.600855 0.745943 0.671463
O O12 0.438956 0.500000 0.500000
O O13 0.500000 0.728183 0.500000
O O14 0.648630 0.500000 0.073495
O O15 0.640156 0.713042 0.000000
O O16 0.934593 0.500000 0.210121
O O17 0.000000 0.282722 0.202288
#
# Coordination Sequence:
#
# PCOD9518089 Si02
#       6
#    16  16  16   8  16  16
#     4   9  19  37  58  77 100 134 172 206 246 302
#     4   9  17  32  52  73 101 137 176 213 250 298
#     4  10  18  30  50  76 101 133 177 217 255 298
#     4   9  16  26  43  71 105 133 164 213 260 295
#     4  10  21  35  53  80 109 132 160 204 258 308
#     4   9  19  35  52  72 102 137 171 210 256 304
#
# _framework density 16.691082999999999
#
# number of rings (size 3 to 8) (size 9 to 14) (size 15 to 20)
#    0.000    2.636    0.909    2.182    0.000    4.364 
#    0.000    5.000    0.000    1.636    0.000    0.000 
#    0.000    0.000    0.000    0.000    0.000    0.000 
#
# Total GULP energy -245392.244833 kJ/mol
# GULP energy per Si atom -5577.096473 kJ/mol
# Density = 1.665309 g / cm^3
# Si number density = 16.691083 Si / 1000 Ang^3
#
#
#
# Elastic Constant Matrix: (Units=GPa)
#
#
# Indices 1 2 3 4 5 6 
#
# 1 179.6529 63.7724 113.1598 0.0000 0.0000 0.0000
# 2 63.7724 30.0020 48.3671 0.0000 0.0000 0.0000
# 3 113.1598 48.3671 99.8410 0.0000 0.0000 0.0000
# 4 0.0000 0.0000 0.0000 28.9546 0.0000 0.0000
# 5 0.0000 0.0000 0.0000 0.0000 27.2135 0.0000
# 6 0.0000 0.0000 0.0000 0.0000 0.0000 25.7875
#
#
#
# Elastic Compliance Matrix: (Units=1/GPa)
#
#
# Indices 1 2 3 4 5 6 
#
# 1 0.025511 -0.034759 -0.012075 0.000000 0.000000 0.000000
# 2 -0.034759 0.199545 -0.057272 0.000000 0.000000 0.000000
# 3 -0.012075 -0.057272 0.051447 0.000000 0.000000 0.000000
# 4 0.000000 0.000000 0.000000 0.034537 0.000000 0.000000
# 5 0.000000 0.000000 0.000000 0.000000 0.036747 0.000000
# 6 0.000000 0.000000 0.000000 0.000000 0.000000 0.038779
#
#
# Mechanical properties :
#
#
# Convention : Reuss Voigt Hill
#
# Bulk Modulus (GPa) = 14.64334 84.45495 49.54914
# Shear Modulus (GPa) = 8.09662 22.00421 15.05041
#
# Velocity S-wave (km/s) = 2.20486 3.63481 3.00610
# Velocity P-wave (km/s) = 3.90820 8.26586 6.46523
#
# Compressibility (1/GPa) = 0.06829043
#
# Stress axis : x y z
#
# Youngs Moduli (GPa) = 39.19871 5.01139 19.43751
#
# Poissons Ratio (x) = 0.17419 0.23471
# Poissons Ratio (y) = 1.36252 1.11322
# Poissons Ratio (z) = 0.47334 0.28701
#
# Static dielectric constant tensor:
#      x y z
#    x 1.547500 0.000000 0.000000 
#    y 0.000000 1.554000 0.000000 
#    z 0.000000 0.000000 1.542240 
# 
# From -- ./inp_files/10425.got.cif
#   From: 2010.05.17/outbox.cif.g08.bks.cpg/sg71_6_cif.got.tgz:10425.got - 2010.06.03 16:22:01.
