data_PCOD9518202
_publ_section_title
;
Structure prediction by ZEFSAII (Michael W. Deem and Ramdas Pophale) SiO2 
 PCOD9518202
Probable space group: I M M M
;
_chemical_formula_sum "Si O2"
_cell_formula_units_Z 120
_cell_length_a 9.288508
_cell_length_b 28.894735
_cell_length_c 27.525837
_cell_angle_alpha 90.000000
_cell_angle_beta 90.000000
_cell_angle_gamma 90.000000
_cell_volume 7387.631239
_symmetry_space_group_name_H-M "I M M M"
_symmetry_group_IT_number 71
_symmetry_cell_setting 'orthorhombic'
loop_
_space_group_symop_operation_xyz
x,y,z
-x,-y,z
x,-y,-z
-x,y,-z
-x,-y,-z
x,y,-z
-x,y,z
x,-y,z
1/2+x,1/2+y,1/2+z
1/2-x,1/2-y,1/2+z
1/2+x,1/2-y,1/2-z
1/2-x,1/2+y,1/2-z
1/2-x,1/2-y,1/2-z
1/2+x,1/2+y,1/2-z
1/2-x,1/2+y,1/2+z
1/2+x,1/2-y,1/2+z
loop_
_atom_site_type_symbol
_atom_site_label
_atom_site_fract_x
_atom_site_fract_y
_atom_site_fract_z
Si Si1 0.670021 0.364795 0.736297
Si Si2 0.328687 0.290702 0.554628
Si Si3 0.667648 0.816686 0.153061
Si Si4 0.342370 0.053687 0.500000
Si Si5 0.667080 0.812824 0.587119
Si Si6 0.671326 0.404919 0.086482
Si Si7 0.834776 0.788823 0.319599
Si Si8 0.174919 0.053828 0.308270
O O1 0.500000 0.369678 0.725757
O O2 0.755901 0.353625 0.687624
O O3 0.683312 0.320069 0.772007
O O4 0.719004 0.410667 0.765596
O O5 0.285412 0.305429 0.500000
O O6 0.500000 0.299520 0.560306
O O7 0.244065 0.311298 0.600662
O O8 0.309777 0.235106 0.558979
O O9 0.500000 0.826988 0.146106
O O10 0.675430 0.766787 0.181075
O O11 0.500000 0.077452 0.500000
O O12 0.250814 0.064622 0.452754
O O13 0.364182 0.000000 0.500000
O O14 0.500000 0.825979 0.582668
O O15 0.772985 0.853857 0.573525
O O16 0.712259 0.803097 0.642622
O O17 0.500000 0.407775 0.083097
O O18 0.714157 0.422023 0.140483
O O19 0.000000 0.799280 0.337351
O O20 0.000000 0.052897 0.307327
O O21 0.223141 0.000000 0.305002
#
# Coordination Sequence:
#
# PCOD9518202 Si02
#       8
#    16  16  16   8  16  16  16  16
#     4  10  18  31  50  71 100 132 166 206 250 302
#     4   9  19  35  52  70  97 135 173 207 247 297
#     4  10  20  31  47  73 103 131 165 206 250 300
#     4  11  25  41  53  69  93 119 157 215 275 321
#     4  10  19  30  48  73  99 128 163 205 251 297
#     4  11  21  36  55  73  95 126 168 214 260 313
#     4   9  17  31  47  67  96 129 166 204 241 290
#     4   9  18  33  54  76  97 126 167 213 256 301
#
# _framework density 16.243366000000002
#
# number of rings (size 3 to 8) (size 9 to 14) (size 15 to 20)
#    0.000    2.200    1.333    2.200    0.933    2.933 
#    0.000    0.000    0.000    2.000    0.000    0.000 
#    0.000    0.533    0.000    6.133    0.000    1.733 
#
# Total GULP energy -334307.257050 kJ/mol
# GULP energy per Si atom -5571.787618 kJ/mol
# Density = 1.620640 g / cm^3
# Si number density = 16.243366 Si / 1000 Ang^3
#
#
#
# Elastic Constant Matrix: (Units=GPa)
#
#
# Indices 1 2 3 4 5 6 
#
# 1 63.6356 33.3307 54.5602 0.0000 0.0000 0.0000
# 2 33.3307 45.8017 48.5926 0.0000 0.0000 0.0000
# 3 54.5602 48.5926 108.9709 0.0000 0.0000 0.0000
# 4 0.0000 0.0000 0.0000 26.0516 0.0000 0.0000
# 5 0.0000 0.0000 0.0000 0.0000 21.7814 0.0000
# 6 0.0000 0.0000 0.0000 0.0000 0.0000 -6.7798
#
#
#
# Elastic Compliance Matrix: (Units=1/GPa)
#
#
# Indices 1 2 3 4 5 6 
#
# 1 0.030339 -0.011316 -0.010144 0.000000 0.000000 0.000000
# 2 -0.011316 0.045657 -0.014694 0.000000 0.000000 0.000000
# 3 -0.010144 -0.014694 0.020808 0.000000 0.000000 0.000000
# 4 0.000000 0.000000 0.000000 0.038385 0.000000 0.000000
# 5 0.000000 0.000000 0.000000 0.000000 0.045911 0.000000
# 6 0.000000 0.000000 0.000000 0.000000 0.000000 -0.147497
#
#
# Mechanical properties :
#
#
# Convention : Reuss Voigt Hill
#
# Bulk Modulus (GPa) = 40.82236 54.59726 47.70981
# Shear Modulus (GPa) = 43.82982 13.67228 28.75105
#
# Velocity S-wave (km/s) = 5.20017 2.90438 4.21172
# Velocity P-wave (km/s) = 7.82573 6.70315 7.28609
#
# Compressibility (1/GPa) = 0.02449638
#
# Stress axis : x y z
#
# Youngs Moduli (GPa) = 32.96090 21.90231 48.05773
#
# Poissons Ratio (x) = 0.24784 0.48752
# Poissons Ratio (y) = 0.37298 0.70616
# Poissons Ratio (z) = 0.33437 0.32183
#
# Static dielectric constant tensor:
#      x y z
#    x 1.557740 0.000000 0.000000 
#    y 0.000000 1.568480 0.000000 
#    z 0.000000 0.000000 1.553300 
# 
# From -- ./inp_files/63795.got.cif
#   From: 2010.05.17/outbox.cif.g08.bks.cpg/sg71_32_cif.got.tgz:63795.got - 2010.06.03 16:22:01.
