data_PCOD9518319
_publ_section_title
;
Structure prediction by ZEFSAII (Michael W. Deem and Ramdas Pophale) SiO2 
 PCOD9518319
Probable space group: I M M M
;
_chemical_formula_sum "Si O2"
_cell_formula_units_Z 88
_cell_length_a 28.918071
_cell_length_b 14.890728
_cell_length_c 12.198430
_cell_angle_alpha 90.000000
_cell_angle_beta 90.000000
_cell_angle_gamma 90.000000
_cell_volume 5252.779721
_symmetry_space_group_name_H-M "I M M M"
_symmetry_group_IT_number 71
_symmetry_cell_setting 'orthorhombic'
loop_
_space_group_symop_operation_xyz
x,y,z
-x,-y,z
x,-y,-z
-x,y,-z
-x,-y,-z
x,y,-z
-x,y,z
x,-y,z
1/2+x,1/2+y,1/2+z
1/2-x,1/2-y,1/2+z
1/2+x,1/2-y,1/2-z
1/2-x,1/2+y,1/2-z
1/2-x,1/2-y,1/2-z
1/2+x,1/2+y,1/2-z
1/2-x,1/2+y,1/2+z
1/2+x,1/2-y,1/2+z
loop_
_atom_site_type_symbol
_atom_site_label
_atom_site_fract_x
_atom_site_fract_y
_atom_site_fract_z
Si Si1 0.553962 0.807408 0.280113
Si Si2 0.146771 0.895553 0.000000
Si Si3 0.287350 0.895357 0.871833
Si Si4 0.443857 0.000000 0.626647
Si Si5 0.309922 0.392072 0.726629
Si Si6 0.136053 0.244733 0.628987
Si Si7 0.551120 0.688689 0.500000
O O1 0.500000 0.808828 0.243870
O O2 0.568949 0.908949 0.310510
O O3 0.588784 0.763028 0.194209
O O4 0.555399 0.751300 0.393109
O O5 0.166878 0.858570 0.887034
O O6 0.092169 0.881827 0.000000
O O7 0.159879 0.000000 0.000000
O O8 0.244545 0.874932 0.791524
O O9 0.330242 0.830236 0.854437
O O10 0.299711 0.000000 0.858105
O O11 0.272037 0.885002 0.000000
O O12 0.500000 0.000000 0.621167
O O13 0.427373 0.000000 0.500000
O O14 0.316053 0.500000 0.737014
O O15 0.335438 0.339257 0.822533
O O16 0.127530 0.234070 0.500000
O O17 0.500000 0.647751 0.500000
#
# Coordination Sequence:
#
# PCOD9518319 Si02
#       7
#    16   8  16   8  16  16   8
#     4  10  20  34  53  78 108 140 177 219 265 312
#     4  10  18  31  55  83 102 128 168 217 278 324
#     4   9  18  34  55  80 107 134 170 219 271 318
#     4   9  16  30  53  79 103 133 172 217 271 317
#     4  10  19  35  58  79 103 136 175 220 269 319
#     4  11  23  35  52  78 108 148 185 213 252 308
#     4  10  18  32  54  80 107 133 168 223 275 311
#
# _framework density 16.753035000000001
#
# number of rings (size 3 to 8) (size 9 to 14) (size 15 to 20)
#    0.000    2.091    3.636    0.545    1.273    0.909 
#    0.000    0.000    0.000    2.182    0.000    1.273 
#    0.000    0.000    0.000    0.000    0.000    0.000 
#
# Total GULP energy -245261.650188 kJ/mol
# GULP energy per Si atom -5574.128413 kJ/mol
# Density = 1.671490 g / cm^3
# Si number density = 16.753035 Si / 1000 Ang^3
#
#
#
# Elastic Constant Matrix: (Units=GPa)
#
#
# Indices 1 2 3 4 5 6 
#
# 1 86.8632 27.6394 57.7110 0.0000 0.0000 0.0000
# 2 27.6394 41.7621 33.0051 0.0000 0.0000 0.0000
# 3 57.7110 33.0051 103.1988 0.0000 0.0000 0.0000
# 4 0.0000 0.0000 0.0000 23.4533 0.0000 0.0000
# 5 0.0000 0.0000 0.0000 0.0000 12.5949 0.0000
# 6 0.0000 0.0000 0.0000 0.0000 0.0000 24.4322
#
#
#
# Elastic Compliance Matrix: (Units=1/GPa)
#
#
# Indices 1 2 3 4 5 6 
#
# 1 0.019272 -0.005671 -0.008964 0.000000 0.000000 0.000000
# 2 -0.005671 0.033713 -0.007611 0.000000 0.000000 0.000000
# 3 -0.008964 -0.007611 0.017137 0.000000 0.000000 0.000000
# 4 0.000000 0.000000 0.000000 0.042638 0.000000 0.000000
# 5 0.000000 0.000000 0.000000 0.000000 0.079397 0.000000
# 6 0.000000 0.000000 0.000000 0.000000 0.000000 0.040930
#
#
# Mechanical properties :
#
#
# Convention : Reuss Voigt Hill
#
# Bulk Modulus (GPa) = 39.01470 52.05945 45.53707
# Shear Modulus (GPa) = 17.47505 19.66066 18.56785
#
# Velocity S-wave (km/s) = 3.23321 3.42944 3.33277
# Velocity P-wave (km/s) = 6.10548 6.84277 6.48461
#
# Compressibility (1/GPa) = 0.02563137
#
# Stress axis : x y z
#
# Youngs Moduli (GPa) = 51.88807 29.66186 58.35337
#
# Poissons Ratio (x) = 0.16820 0.52307
# Poissons Ratio (y) = 0.29424 0.44413
# Poissons Ratio (z) = 0.46512 0.22576
#
# Static dielectric constant tensor:
#      x y z
#    x 1.565160 0.000000 0.000000 
#    y 0.000000 1.559760 0.000000 
#    z 0.000000 0.000000 1.558060 
# 
# From -- ./inp_files/28644.got.cif
#   From: 2010.05.17/outbox.cif.g08.bks.cpg/sg71_15_cif.got.tgz:28644.got - 2010.06.03 16:22:01.
