data_PCOD9518785
_publ_section_title
;
Structure prediction by ZEFSAII (Michael W. Deem and Ramdas Pophale) SiO2 
 PCOD9518785
Probable space group: I M M M
;
_chemical_formula_sum "Si O2"
_cell_formula_units_Z 80
_cell_length_a 22.212604
_cell_length_b 14.076543
_cell_length_c 18.023660
_cell_angle_alpha 90.000000
_cell_angle_beta 90.000000
_cell_angle_gamma 90.000000
_cell_volume 5635.578086
_symmetry_space_group_name_H-M "I M M M"
_symmetry_group_IT_number 71
_symmetry_cell_setting 'orthorhombic'
loop_
_space_group_symop_operation_xyz
x,y,z
-x,-y,z
x,-y,-z
-x,y,-z
-x,-y,-z
x,y,-z
-x,y,z
x,-y,z
1/2+x,1/2+y,1/2+z
1/2-x,1/2-y,1/2+z
1/2+x,1/2-y,1/2-z
1/2-x,1/2+y,1/2-z
1/2-x,1/2-y,1/2-z
1/2+x,1/2+y,1/2-z
1/2-x,1/2+y,1/2+z
1/2+x,1/2-y,1/2+z
loop_
_atom_site_type_symbol
_atom_site_label
_atom_site_fract_x
_atom_site_fract_y
_atom_site_fract_z
Si Si1 0.428118 0.886172 0.701374
Si Si2 0.733204 0.611994 0.588359
Si Si3 0.069406 0.615869 0.500000
Si Si4 0.000000 0.107120 0.089897
Si Si5 0.861623 0.615151 0.352743
Si Si6 0.614219 0.734208 0.588564
O O1 0.500000 0.866589 0.704414
O O2 0.394972 0.855981 0.777533
O O3 0.397197 0.829431 0.634548
O O4 0.421494 0.000000 0.693176
O O5 0.748126 0.618573 0.500000
O O6 0.718936 0.500000 0.601623
O O7 0.791709 0.639974 0.635826
O O8 0.676588 0.679491 0.603100
O O9 0.071324 0.500000 0.500000
O O10 0.102453 0.648194 0.574515
O O11 0.000000 0.643993 0.500000
O O12 0.940286 0.164042 0.110457
O O13 0.000000 0.000000 0.118523
O O14 0.000000 0.102409 0.000000
O O15 0.863441 0.500000 0.353839
O O16 0.610475 0.751477 0.500000
#
# Coordination Sequence:
#
# PCOD9518785 Si02
#       6
#    16  16   8   8  16  16
#     4  10  20  32  44  61  89 123 156 188 215 246
#     4   9  16  28  46  68  92 115 140 177 227 280
#     4   9  14  22  40  64  88 115 145 174 213 270
#     4   9  16  28  45  65  85 106 140 185 226 265
#     4   9  16  27  43  64  89 117 146 176 220 270
#     4  10  19  30  45  64  86 118 155 184 220 260
#
# _framework density 14.195525999999999
#
# number of rings (size 3 to 8) (size 9 to 14) (size 15 to 20)
#    0.000    2.600    2.000    1.200    0.000    6.000 
#    0.000    1.000    0.000    0.000    0.000    0.000 
#    0.000    0.000    0.000    1.500    0.000    0.300 
#
# Total GULP energy -222715.645237 kJ/mol
# GULP energy per Si atom -5567.891131 kJ/mol
# Density = 1.416322 g / cm^3
# Si number density = 14.195526 Si / 1000 Ang^3
#
#
#
# Elastic Constant Matrix: (Units=GPa)
#
#
# Indices 1 2 3 4 5 6 
#
# 1 120.2277 41.5819 61.2569 0.0000 0.0000 0.0000
# 2 41.5819 46.2801 39.3819 0.0000 0.0000 0.0000
# 3 61.2569 39.3819 78.9273 0.0000 0.0000 0.0000
# 4 0.0000 0.0000 0.0000 14.0087 0.0000 0.0000
# 5 0.0000 0.0000 0.0000 0.0000 21.9505 0.0000
# 6 0.0000 0.0000 0.0000 0.0000 0.0000 9.9181
#
#
#
# Elastic Compliance Matrix: (Units=1/GPa)
#
#
# Indices 1 2 3 4 5 6 
#
# 1 0.014678 -0.006072 -0.008362 0.000000 0.000000 0.000000
# 2 -0.006072 0.040064 -0.015277 0.000000 0.000000 0.000000
# 3 -0.008362 -0.015277 0.026783 0.000000 0.000000 0.000000
# 4 0.000000 0.000000 0.000000 0.071384 0.000000 0.000000
# 5 0.000000 0.000000 0.000000 0.000000 0.045557 0.000000
# 6 0.000000 0.000000 0.000000 0.000000 0.000000 0.100825
#
#
# Mechanical properties :
#
#
# Convention : Reuss Voigt Hill
#
# Bulk Modulus (GPa) = 45.24723 58.87514 52.06119
# Shear Modulus (GPa) = 13.65811 16.05643 14.85727
#
# Velocity S-wave (km/s) = 3.10521 3.36682 3.23865
# Velocity P-wave (km/s) = 6.69327 7.52851 7.12314
#
# Compressibility (1/GPa) = 0.02210080
#
# Stress axis : x y z
#
# Youngs Moduli (GPa) = 68.12745 24.96013 37.33734
#
# Poissons Ratio (x) = 0.15157 0.31222
# Poissons Ratio (y) = 0.41370 0.57042
# Poissons Ratio (z) = 0.56969 0.38133
#
# Static dielectric constant tensor:
#      x y z
#    x 1.474120 0.000000 0.000000 
#    y 0.000000 1.449440 0.000000 
#    z 0.000000 0.000000 1.463080 
# 
# From -- ./inp_files/24136.got.cif
#   From: 2010.05.17/outbox.cif.g08.bks.cpg/sg71_13_cif.got.tgz:24136.got - 2010.06.03 16:22:01.
