data_PCOD9518332
_publ_section_title
;
Structure prediction by ZEFSAII (Michael W. Deem and Ramdas Pophale) SiO2 
 PCOD9518332
Probable space group: I M M M
;
_chemical_formula_sum "Si O2"
_cell_formula_units_Z 104
_cell_length_a 22.608797
_cell_length_b 14.572084
_cell_length_c 17.273214
_cell_angle_alpha 90.000000
_cell_angle_beta 90.000000
_cell_angle_gamma 90.000000
_cell_volume 5690.786257
_symmetry_space_group_name_H-M "I M M M"
_symmetry_group_IT_number 71
_symmetry_cell_setting 'orthorhombic'
loop_
_space_group_symop_operation_xyz
x,y,z
-x,-y,z
x,-y,-z
-x,y,-z
-x,-y,-z
x,y,-z
-x,y,z
x,-y,z
1/2+x,1/2+y,1/2+z
1/2-x,1/2-y,1/2+z
1/2+x,1/2-y,1/2-z
1/2-x,1/2+y,1/2-z
1/2-x,1/2-y,1/2-z
1/2+x,1/2+y,1/2-z
1/2-x,1/2+y,1/2+z
1/2+x,1/2-y,1/2+z
loop_
_atom_site_type_symbol
_atom_site_label
_atom_site_fract_x
_atom_site_fract_y
_atom_site_fract_z
Si Si1 0.168768 0.753559 0.586824
Si Si2 0.616659 0.399443 0.712232
Si Si3 0.239272 0.152572 0.709994
Si Si4 0.931971 0.895911 0.618506
Si Si5 0.928052 0.394894 0.000000
Si Si6 0.641727 0.895764 0.781096
Si Si7 0.570869 0.213008 0.655271
O O1 0.182930 0.724207 0.500000
O O2 0.218796 0.819992 0.624076
O O3 0.110530 0.817469 0.587274
O O4 0.157230 0.668287 0.644944
O O5 0.608751 0.500000 0.676488
O O6 0.682855 0.391521 0.747202
O O7 0.575233 0.392424 0.788237
O O8 0.601640 0.312402 0.660102
O O9 0.250000 0.250000 0.750000
O O10 0.299922 0.101398 0.726402
O O11 0.000000 0.882454 0.597198
O O12 0.914177 0.000000 0.595734
O O13 0.911076 0.341412 0.922090
O O14 0.906925 0.500000 0.000000
O O15 0.000000 0.397777 0.000000
O O16 0.592434 0.844196 0.730061
O O17 0.625547 0.000000 0.801881
O O18 0.500000 0.223393 0.655935
#
# Coordination Sequence:
#
# PCOD9518332 Si02
#       7
#    16  16  16  16   8  16  16
#     4  10  21  36  55  84 119 147 181 232 282 331
#     4  10  18  31  57  86 113 145 182 229 282 339
#     4   9  17  37  57  79 109 146 186 229 275 326
#     4   9  17  31  52  79 112 151 190 223 267 329
#     4   9  20  38  57  79 111 147 186 244 302 339
#     4  11  22  38  61  82 108 150 195 235 278 333
#     4  11  21  37  59  84 112 147 191 238 289 345
#
# _framework density 18.275155000000002
#
# number of rings (size 3 to 8) (size 9 to 14) (size 15 to 20)
#    0.000    2.077    4.615    1.385    0.000    3.385 
#    1.385    1.154    0.000    1.385    0.000    2.154 
#    0.000    0.000    0.000    0.000    0.000    0.000 
#
# Total GULP energy -289859.429513 kJ/mol
# GULP energy per Si atom -5574.219798 kJ/mol
# Density = 1.823356 g / cm^3
# Si number density = 18.275155 Si / 1000 Ang^3
#
#
#
# Elastic Constant Matrix: (Units=GPa)
#
#
# Indices 1 2 3 4 5 6 
#
# 1 46.3571 12.3350 10.1309 0.0000 0.0000 0.0000
# 2 12.3350 142.3778 48.0270 0.0000 0.0000 0.0000
# 3 10.1309 48.0270 105.5027 0.0000 0.0000 0.0000
# 4 0.0000 0.0000 0.0000 -4.1119 0.0000 0.0000
# 5 0.0000 0.0000 0.0000 0.0000 0.9388 0.0000
# 6 0.0000 0.0000 0.0000 0.0000 0.0000 17.6989
#
#
#
# Elastic Compliance Matrix: (Units=1/GPa)
#
#
# Indices 1 2 3 4 5 6 
#
# 1 0.022277 -0.001428 -0.001489 0.000000 0.000000 0.000000
# 2 -0.001428 0.008389 -0.003682 0.000000 0.000000 0.000000
# 3 -0.001489 -0.003682 0.011298 0.000000 0.000000 0.000000
# 4 0.000000 0.000000 0.000000 -0.243197 0.000000 0.000000
# 5 0.000000 0.000000 0.000000 0.000000 1.065154 0.000000
# 6 0.000000 0.000000 0.000000 0.000000 0.000000 0.056501
#
#
# Mechanical properties :
#
#
# Convention : Reuss Voigt Hill
#
# Bulk Modulus (GPa) = 34.76298 48.35816 41.56057
# Shear Modulus (GPa) = 5.30106 17.82148 11.56127
#
# Velocity S-wave (km/s) = 1.70499 3.12617 2.51793
# Velocity P-wave (km/s) = 4.78950 6.28881 5.58965
#
# Compressibility (1/GPa) = 0.02876623
#
# Stress axis : x y z
#
# Youngs Moduli (GPa) = 44.88930 119.20062 88.51516
#
# Poissons Ratio (x) = 0.17017 0.13182
# Poissons Ratio (y) = 0.06409 0.32590
# Poissons Ratio (z) = 0.06685 0.43888
#
# Static dielectric constant tensor:
#      x y z
#    x 1.658520 0.000000 0.000000 
#    y 0.000000 1.632400 0.000000 
#    z 0.000000 0.000000 1.637760 
# 
# From -- ./inp_files/48227.got.cif
#   From: 2010.05.17/outbox.cif.g08.bks.cpg/sg71_25_cif.got.tgz:48227.got - 2010.06.03 16:22:01.
