data_PCOD9518766
_publ_section_title
;
Structure prediction by ZEFSAII (Michael W. Deem and Ramdas Pophale) SiO2 
 PCOD9518766
Probable space group: I M M M
;
_chemical_formula_sum "Si O2"
_cell_formula_units_Z 80
_cell_length_a 39.931955
_cell_length_b 14.447106
_cell_length_c 9.382751
_cell_angle_alpha 90.000000
_cell_angle_beta 90.000000
_cell_angle_gamma 90.000000
_cell_volume 5412.920186
_symmetry_space_group_name_H-M "I M M M"
_symmetry_group_IT_number 71
_symmetry_cell_setting 'orthorhombic'
loop_
_space_group_symop_operation_xyz
x,y,z
-x,-y,z
x,-y,-z
-x,y,-z
-x,-y,-z
x,y,-z
-x,y,z
x,-y,z
1/2+x,1/2+y,1/2+z
1/2-x,1/2-y,1/2+z
1/2+x,1/2-y,1/2-z
1/2-x,1/2+y,1/2-z
1/2-x,1/2-y,1/2-z
1/2+x,1/2+y,1/2-z
1/2-x,1/2+y,1/2+z
1/2+x,1/2-y,1/2+z
loop_
_atom_site_type_symbol
_atom_site_label
_atom_site_fract_x
_atom_site_fract_y
_atom_site_fract_z
Si Si1 0.603846 0.610545 0.330526
Si Si2 0.537456 0.612262 0.835041
Si Si3 0.767025 0.110685 0.665818
Si Si4 0.199438 0.606221 0.670740
Si Si5 0.163785 0.212143 0.328892
O O1 0.604390 0.623840 0.500000
O O2 0.608074 0.500000 0.302620
O O3 0.568101 0.640083 0.264641
O O4 0.633376 0.666193 0.254134
O O5 0.500000 0.643340 0.792626
O O6 0.536837 0.500000 0.832630
O O7 0.543260 0.639376 0.000000
O O8 0.760402 0.133261 0.500000
O O9 0.734600 0.134690 0.758366
O O10 0.801468 0.159878 0.707006
O O11 0.771768 0.000000 0.677231
O O12 0.203630 0.608830 0.500000
O O13 0.192167 0.500000 0.712960
O O14 0.170951 0.680536 0.706520
O O15 0.158653 0.203081 0.500000
#
# Coordination Sequence:
#
# PCOD9518766 Si02
#       5
#    16  16  16  16  16
#     4  10  20  30  41  62  90 116 142 174 209 242
#     4   8  14  26  44  63  84 114 147 171 194 233
#     4   9  17  28  42  60  80 105 139 175 212 256
#     4   9  18  31  45  61  80 104 139 182 222 256
#     4  10  19  30  44  60  82 113 143 173 212 256
#
# _framework density 14.779453999999999
#
# number of rings (size 3 to 8) (size 9 to 14) (size 15 to 20)
#    0.000    2.800    0.000    2.400    0.000    4.000 
#    0.000    4.000    0.000    0.000    0.000    0.000 
#    0.000    0.800    0.000    9.200    0.000    3.000 
#
# Total GULP energy -222871.373871 kJ/mol
# GULP energy per Si atom -5571.784347 kJ/mol
# Density = 1.474582 g / cm^3
# Si number density = 14.779454 Si / 1000 Ang^3
#
#
#
# Elastic Constant Matrix: (Units=GPa)
#
#
# Indices 1 2 3 4 5 6 
#
# 1 130.3352 62.8894 67.9570 0.0000 0.0000 0.0000
# 2 62.8894 53.0607 40.5462 0.0001 0.0000 0.0000
# 3 67.9570 40.5462 49.5115 0.0003 0.0001 0.0000
# 4 0.0000 0.0001 0.0003 14.3036 0.0001 0.0000
# 5 0.0000 0.0000 0.0001 0.0001 26.0208 0.0000
# 6 0.0000 0.0000 0.0000 0.0000 0.0000 15.9153
#
#
#
# Elastic Compliance Matrix: (Units=1/GPa)
#
#
# Indices 1 2 3 4 5 6 
#
# 1 0.029051 -0.010589 -0.031202 0.000001 0.000000 0.000000
# 2 -0.010589 0.054221 -0.029869 0.000000 0.000000 0.000000
# 3 -0.031202 -0.029869 0.087484 -0.000001 0.000000 0.000000
# 4 0.000001 0.000000 -0.000001 0.069912 0.000000 0.000000
# 5 0.000000 0.000000 0.000000 0.000000 0.038431 0.000000
# 6 0.000000 0.000000 0.000000 0.000000 0.000000 0.062833
#
#
# Mechanical properties :
#
#
# Convention : Reuss Voigt Hill
#
# Bulk Modulus (GPa) = 36.44863 63.96585 50.20724
# Shear Modulus (GPa) = 10.11332 15.34893 12.73112
#
# Velocity S-wave (km/s) = 2.61872 3.22612 2.93816
# Velocity P-wave (km/s) = 5.81883 7.56646 6.74945
#
# Compressibility (1/GPa) = 0.02743587
#
# Stress axis : x y z
#
# Youngs Moduli (GPa) = 34.42263 18.44289 11.43063
#
# Poissons Ratio (x) = 0.19529 0.35666
# Poissons Ratio (y) = 0.36450 0.34143
# Poissons Ratio (z) = 1.07405 0.55088
#
# Static dielectric constant tensor:
#      x y z
#    x 1.470580 0.000000 0.000000 
#    y 0.000000 1.498090 0.000000 
#    z 0.000000 0.000000 1.492490 
# 
# From -- ./inp_files/16537.got.cif
#   From: 2010.05.17/outbox.cif.g08.bks.cpg/sg71_9_cif.got.tgz:16537.got - 2010.06.03 16:22:01.
