data_PCOD9518552
_publ_section_title
;
Structure prediction by ZEFSAII (Michael W. Deem and Ramdas Pophale) SiO2 
 PCOD9518552
Probable space group: I M M M
;
_chemical_formula_sum "Si O2"
_cell_formula_units_Z 92
_cell_length_a 23.317436
_cell_length_b 17.756957
_cell_length_c 12.283332
_cell_angle_alpha 90.000000
_cell_angle_beta 90.000000
_cell_angle_gamma 90.000000
_cell_volume 5085.873183
_symmetry_space_group_name_H-M "I M M M"
_symmetry_group_IT_number 71
_symmetry_cell_setting 'orthorhombic'
loop_
_space_group_symop_operation_xyz
x,y,z
-x,-y,z
x,-y,-z
-x,y,-z
-x,-y,-z
x,y,-z
-x,y,z
x,-y,z
1/2+x,1/2+y,1/2+z
1/2-x,1/2-y,1/2+z
1/2+x,1/2-y,1/2-z
1/2-x,1/2+y,1/2-z
1/2-x,1/2-y,1/2-z
1/2+x,1/2+y,1/2-z
1/2-x,1/2+y,1/2+z
1/2+x,1/2-y,1/2+z
loop_
_atom_site_type_symbol
_atom_site_label
_atom_site_fract_x
_atom_site_fract_y
_atom_site_fract_z
Si Si1 0.148486 0.000000 0.254913
Si Si2 0.363054 0.352427 0.372988
Si Si3 0.890711 0.000000 0.500000
Si Si4 0.881531 0.262283 0.705273
Si Si5 0.234355 0.500000 0.627049
Si Si6 0.430956 0.915729 0.126772
Si Si7 0.932220 0.828800 0.500000
Si Si8 0.774565 0.666086 0.375429
O O1 0.122439 0.925548 0.199183
O O2 0.143272 0.000000 0.384931
O O3 0.213918 0.000000 0.212587
O O4 0.375779 0.363204 0.500000
O O5 0.392375 0.281000 0.317131
O O6 0.293915 0.339786 0.363133
O O7 0.923741 0.080460 0.500000
O O8 0.909992 0.343694 0.692713
O O9 0.903260 0.209796 0.605886
O O10 0.813344 0.278734 0.694384
O O11 0.256522 0.500000 0.500000
O O12 0.203798 0.579804 0.639745
O O13 0.500000 0.914235 0.126841
O O14 0.413987 0.000000 0.163160
O O15 0.412849 0.906729 0.000000
O O16 0.000000 0.811465 0.500000
O O17 0.785401 0.688090 0.500000
#
# Coordination Sequence:
#
# PCOD9518552 Si02
#       8
#     8  16   4  16   8  16   8  16
#     4  10  18  35  58  81 111 148 189 228 283 340
#     4  10  21  36  55  80 112 153 189 230 272 339
#     4  12  23  40  60  88 112 152 190 234 301 352
#     4  12  20  33  57  84 112 147 186 235 285 340
#     4   8  16  30  51  79 118 158 189 221 266 335
#     4   9  18  32  51  79 112 141 172 219 281 338
#     4  12  25  40  57  84 117 151 190 241 304 347
#     4   9  17  30  50  81 114 145 184 225 272 332
#
# _framework density 18.089321000000002
#
# number of rings (size 3 to 8) (size 9 to 14) (size 15 to 20)
#    0.000    1.913    3.478    3.522    1.217    0.000 
#    0.000    0.000    0.000    2.609    0.000    2.435 
#    0.000    0.000    0.000    0.000    0.000    0.000 
#
# Total GULP energy -256377.839456 kJ/mol
# GULP energy per Si atom -5573.431293 kJ/mol
# Density = 1.804815 g / cm^3
# Si number density = 18.089321 Si / 1000 Ang^3
#
#
#
# Elastic Constant Matrix: (Units=GPa)
#
#
# Indices 1 2 3 4 5 6 
#
# 1 34.0204 22.8109 16.3515 0.0000 0.0000 0.0000
# 2 22.8109 129.9821 59.0130 0.0000 0.0000 0.0000
# 3 16.3515 59.0130 114.2097 0.0000 0.0000 0.0000
# 4 0.0000 0.0000 0.0000 28.6100 0.0000 0.0000
# 5 0.0000 0.0000 0.0000 0.0000 12.2705 0.0000
# 6 0.0000 0.0000 0.0000 0.0000 0.0000 27.3098
#
#
#
# Elastic Compliance Matrix: (Units=1/GPa)
#
#
# Indices 1 2 3 4 5 6 
#
# 1 0.033777 -0.004876 -0.002316 0.000000 0.000000 0.000000
# 2 -0.004876 0.010755 -0.004859 0.000000 0.000000 0.000000
# 3 -0.002316 -0.004859 0.011598 0.000000 0.000000 0.000000
# 4 0.000000 0.000000 0.000000 0.034953 0.000000 0.000000
# 5 0.000000 0.000000 0.000000 0.000000 0.081497 0.000000
# 6 0.000000 0.000000 0.000000 0.000000 0.000000 0.036617
#
#
# Mechanical properties :
#
#
# Convention : Reuss Voigt Hill
#
# Bulk Modulus (GPa) = 31.22346 52.72921 41.97634
# Shear Modulus (GPa) = 20.49388 25.64050 23.06719
#
# Velocity S-wave (km/s) = 3.36955 3.76897 3.57484
# Velocity P-wave (km/s) = 5.69532 6.93923 6.34782
#
# Compressibility (1/GPa) = 0.03202720
#
# Stress axis : x y z
#
# Youngs Moduli (GPa) = 29.60606 92.97860 86.21994
#
# Poissons Ratio (x) = 0.45335 0.19972
# Poissons Ratio (y) = 0.14436 0.41896
# Poissons Ratio (z) = 0.06858 0.45180
#
# Static dielectric constant tensor:
#      x y z
#    x 1.667920 0.000000 0.000000 
#    y 0.000000 1.655130 0.000000 
#    z 0.000000 0.000000 1.585990 
# 
# From -- ./inp_files/28872.got.cif
#   From: 2010.05.17/outbox.cif.g08.bks.cpg/sg71_15_cif.got.tgz:28872.got - 2010.06.03 16:22:01.
