data_PCOD9518252
_publ_section_title
;
Structure prediction by ZEFSAII (Michael W. Deem and Ramdas Pophale) SiO2 
 PCOD9518252
Probable space group: I M M M
;
_chemical_formula_sum "Si O2"
_cell_formula_units_Z 116
_cell_length_a 29.970681
_cell_length_b 7.540654
_cell_length_c 24.299416
_cell_angle_alpha 90.000000
_cell_angle_beta 90.000000
_cell_angle_gamma 90.000000
_cell_volume 5491.632431
_symmetry_space_group_name_H-M "I M M M"
_symmetry_group_IT_number 71
_symmetry_cell_setting 'orthorhombic'
loop_
_space_group_symop_operation_xyz
x,y,z
-x,-y,z
x,-y,-z
-x,y,-z
-x,-y,-z
x,y,-z
-x,y,z
x,-y,z
1/2+x,1/2+y,1/2+z
1/2-x,1/2-y,1/2+z
1/2+x,1/2-y,1/2-z
1/2-x,1/2+y,1/2-z
1/2-x,1/2-y,1/2-z
1/2+x,1/2+y,1/2-z
1/2-x,1/2+y,1/2+z
1/2+x,1/2-y,1/2+z
loop_
_atom_site_type_symbol
_atom_site_label
_atom_site_fract_x
_atom_site_fract_y
_atom_site_fract_z
Si Si1 0.118756 0.298527 0.173480
Si Si2 0.166162 0.297862 0.357716
Si Si3 0.801150 0.196051 0.241313
Si Si4 0.255111 0.714151 0.937614
Si Si5 0.069957 0.285676 0.609858
Si Si6 0.049851 0.284825 0.737442
Si Si7 0.347769 0.782781 0.438354
Si Si8 0.000000 0.000000 0.571948
O O1 0.102838 0.500000 0.165511
O O2 0.168100 0.305224 0.200086
O O3 0.086337 0.217054 0.219394
O O4 0.123249 0.218163 0.112943
O O5 0.157075 0.500000 0.340078
O O6 0.175409 0.198814 0.300949
O O7 0.210256 0.287900 0.394158
O O8 0.122786 0.244506 0.392584
O O9 0.750000 0.250000 0.250000
O O10 0.801103 0.000000 0.217900
O O11 0.256506 0.500000 0.933462
O O12 0.203886 0.769071 0.929347
O O13 0.267740 0.763163 0.000000
O O14 0.062970 0.500000 0.601266
O O15 0.058213 0.239891 0.673756
O O16 0.038907 0.157493 0.574596
O O17 0.051588 0.500000 0.737924
O O18 0.000000 0.228583 0.752608
O O19 0.361045 0.728446 0.500000
O O20 0.348157 0.000000 0.437516
#
# Coordination Sequence:
#
# PCOD9518252 Si02
#       8
#    16  16  16  16  16  16  16   4
#     4  10  18  31  52  74 101 139 182 222 271 327
#     4  11  22  36  54  78 113 144 177 225 281 330
#     4  12  24  35  50  73 108 144 180 218 268 339
#     4   9  18  33  53  77 107 142 185 233 274 319
#     4  10  21  35  51  79 113 144 181 232 276 337
#     4   9  16  30  48  68 103 141 175 220 275 324
#     4   8  15  29  50  75 100 133 180 231 274 316
#     4  12  22  32  60  78 105 150 195 216 288 330
#
# _framework density 21.123044
#
# number of rings (size 3 to 8) (size 9 to 14) (size 15 to 20)
#    0.000    2.069    2.069    3.517    1.931    1.379 
#    0.000    0.000    0.000    1.655    0.000    3.862 
#    0.000    2.207    0.000    1.862    0.000    2.897 
#
# Total GULP energy -323240.113659 kJ/mol
# GULP energy per Si atom -5573.105408 kJ/mol
# Density = 2.107497 g / cm^3
# Si number density = 21.123044 Si / 1000 Ang^3
#
#
#
# Elastic Constant Matrix: (Units=GPa)
#
#
# Indices 1 2 3 4 5 6 
#
# 1 46.1423 1.7415 1.9948 0.0000 0.0000 0.0000
# 2 1.7415 74.1591 -4.3884 0.0000 0.0000 0.0000
# 3 1.9948 -4.3884 62.9961 0.0000 0.0000 0.0000
# 4 0.0000 0.0000 0.0000 3.2858 0.0000 0.0000
# 5 0.0000 0.0000 0.0000 0.0000 -11.5086 0.0000
# 6 0.0000 0.0000 0.0000 0.0000 0.0000 3.9173
#
#
#
# Elastic Compliance Matrix: (Units=1/GPa)
#
#
# Indices 1 2 3 4 5 6 
#
# 1 0.021724 -0.000553 -0.000726 0.000000 0.000000 0.000000
# 2 -0.000553 0.013554 0.000962 0.000000 0.000000 0.000000
# 3 -0.000726 0.000962 0.015964 0.000000 0.000000 0.000000
# 4 0.000000 0.000000 0.000000 0.304340 0.000000 0.000000
# 5 0.000000 0.000000 0.000000 0.000000 -0.086892 0.000000
# 6 0.000000 0.000000 0.000000 0.000000 0.000000 0.255279
#
#
# Mechanical properties :
#
#
# Convention : Reuss Voigt Hill
#
# Bulk Modulus (GPa) = 19.76009 20.22149 19.99079
# Shear Modulus (GPa) = 9.23404 11.40221 10.31812
#
# Velocity S-wave (km/s) = 2.09309 2.32588 2.21255
# Velocity P-wave (km/s) = 3.90083 4.09962 4.00146
#
# Compressibility (1/GPa) = 0.05060705
#
# Stress axis : x y z
#
# Youngs Moduli (GPa) = 46.03122 73.77667 62.64098
#
# Poissons Ratio (x) = 0.04081 0.04551
# Poissons Ratio (y) = 0.02546 -0.06024
# Poissons Ratio (z) = 0.03344 -0.07095
#
# Static dielectric constant tensor:
#      x y z
#    x 1.778550 0.000000 0.000000 
#    y 0.000000 1.875070 0.000000 
#    z 0.000000 0.000000 1.776640 
# 
# From -- ./inp_files/62357.got.cif
#   From: 2010.05.17/outbox.cif.g08.bks.cpg/sg71_32_cif.got.tgz:62357.got - 2010.06.03 16:22:01.
