data_PCOD9518168
_publ_section_title
;
Structure prediction by ZEFSAII (Michael W. Deem and Ramdas Pophale) SiO2 
 PCOD9518168
Probable space group: I M M M
;
_chemical_formula_sum "Si O2"
_cell_formula_units_Z 68
_cell_length_a 7.517609
_cell_length_b 24.253485
_cell_length_c 24.449793
_cell_angle_alpha 90.000000
_cell_angle_beta 90.000000
_cell_angle_gamma 90.000000
_cell_volume 4457.887167
_symmetry_space_group_name_H-M "I M M M"
_symmetry_group_IT_number 71
_symmetry_cell_setting 'orthorhombic'
loop_
_space_group_symop_operation_xyz
x,y,z
-x,-y,z
x,-y,-z
-x,y,-z
-x,-y,-z
x,y,-z
-x,y,z
x,-y,z
1/2+x,1/2+y,1/2+z
1/2-x,1/2-y,1/2+z
1/2+x,1/2-y,1/2-z
1/2-x,1/2+y,1/2-z
1/2-x,1/2-y,1/2-z
1/2+x,1/2+y,1/2-z
1/2-x,1/2+y,1/2+z
1/2+x,1/2-y,1/2+z
loop_
_atom_site_type_symbol
_atom_site_label
_atom_site_fract_x
_atom_site_fract_y
_atom_site_fract_z
Si Si1 0.288499 0.689766 0.275724
Si Si2 0.000000 0.869671 0.500000
Si Si3 0.000000 0.934524 0.386033
Si Si4 0.715510 0.255403 0.619245
Si Si5 0.214957 0.273300 0.000000
Si Si6 0.203432 0.636567 0.832498
O O1 0.500000 0.680671 0.275950
O O2 0.250000 0.750000 0.250000
O O3 0.223100 0.697995 0.338003
O O4 0.209671 0.646689 0.232814
O O5 0.000000 0.906694 0.445826
O O6 0.172623 0.829664 0.500000
O O7 0.170205 0.911206 0.353428
O O8 0.000000 0.000000 0.389721
O O9 0.500000 0.255696 0.622912
O O10 0.762278 0.258657 0.555758
O O11 0.769625 0.194570 0.640795
O O12 0.000000 0.283304 0.000000
O O13 0.000000 0.628253 0.849647
#
# Coordination Sequence:
#
# PCOD9518168 Si02
#       6
#    16   4   8  16   8  16
#     4   9  15  25  44  71  94 117 149 187 231 289
#     4  12  23  36  52  64  88 128 166 208 251 264
#     4  12  25  38  52  68  88 121 170 217 249 278
#     4   8  15  26  45  68  93 125 155 183 229 282
#     4  10  18  31  47  67  96 130 160 195 229 277
#     4  10  19  34  50  67  90 118 152 201 249 287
#
# _framework density 15.253863000000001
#
# number of rings (size 3 to 8) (size 9 to 14) (size 15 to 20)
#    0.000    2.353    3.529    2.294    0.000    0.471 
#    2.118    0.000    0.000    2.118    0.000    0.000 
#    0.000    0.000    0.000    2.118    0.000    3.059 
#
# Total GULP energy -189367.424648 kJ/mol
# GULP energy per Si atom -5569.630137 kJ/mol
# Density = 1.521914 g / cm^3
# Si number density = 15.253863 Si / 1000 Ang^3
#
#
#
# Elastic Constant Matrix: (Units=GPa)
#
#
# Indices 1 2 3 4 5 6 
#
# 1 70.8130 18.1554 19.6008 0.0000 0.0000 0.0000
# 2 18.1554 36.7811 41.4400 0.0000 0.0000 0.0000
# 3 19.6008 41.4400 142.0921 0.0000 0.0000 0.0000
# 4 0.0000 0.0000 0.0000 9.9563 0.0000 0.0000
# 5 0.0000 0.0000 0.0000 0.0000 12.6702 0.0000
# 6 0.0000 0.0000 0.0000 0.0000 0.0000 12.6832
#
#
#
# Elastic Compliance Matrix: (Units=1/GPa)
#
#
# Indices 1 2 3 4 5 6 
#
# 1 0.016170 -0.008145 0.000145 0.000000 0.000000 0.000000
# 2 -0.008145 0.044596 -0.011882 0.000000 0.000000 0.000000
# 3 0.000145 -0.011882 0.010483 0.000000 0.000000 0.000000
# 4 0.000000 0.000000 0.000000 0.100439 0.000000 0.000000
# 5 0.000000 0.000000 0.000000 0.000000 0.078925 0.000000
# 6 0.000000 0.000000 0.000000 0.000000 0.000000 0.078845
#
#
# Mechanical properties :
#
#
# Convention : Reuss Voigt Hill
#
# Bulk Modulus (GPa) = 31.76222 45.34207 38.55215
# Shear Modulus (GPa) = 13.16771 18.42794 15.79782
#
# Velocity S-wave (km/s) = 2.94128 3.47952 3.22166
# Velocity P-wave (km/s) = 5.69231 6.77733 6.25838
#
# Compressibility (1/GPa) = 0.03148395
#
# Stress axis : x y z
#
# Youngs Moduli (GPa) = 61.84371 22.42370 95.39135
#
# Poissons Ratio (x) = 0.18263 -0.01381
# Poissons Ratio (y) = 0.50370 1.13348
# Poissons Ratio (z) = -0.00895 0.26645
#
# Static dielectric constant tensor:
#      x y z
#    x 1.611520 0.000000 0.000000 
#    y 0.000000 1.453290 0.000000 
#    z 0.000000 0.000000 1.571250 
# 
# From -- ./inp_files/8039.got.cif
#   From: 2010.05.17/outbox.cif.g08.bks.cpg/sg71_5_cif.got.tgz:8039.got - 2010.06.03 16:22:01.
