data_PCOD9518961
_publ_section_title
;
Structure prediction by ZEFSAII (Michael W. Deem and Ramdas Pophale) SiO2 
 PCOD9518961
Probable space group: I M M M
;
_chemical_formula_sum "Si O2"
_cell_formula_units_Z 80
_cell_length_a 30.922414
_cell_length_b 14.051061
_cell_length_c 8.244880
_cell_angle_alpha 90.000000
_cell_angle_beta 90.000000
_cell_angle_gamma 90.000000
_cell_volume 3582.340382
_symmetry_space_group_name_H-M "I M M M"
_symmetry_group_IT_number 71
_symmetry_cell_setting 'orthorhombic'
loop_
_space_group_symop_operation_xyz
x,y,z
-x,-y,z
x,-y,-z
-x,y,-z
-x,-y,-z
x,y,-z
-x,y,z
x,-y,z
1/2+x,1/2+y,1/2+z
1/2-x,1/2-y,1/2+z
1/2+x,1/2-y,1/2-z
1/2-x,1/2+y,1/2-z
1/2-x,1/2-y,1/2-z
1/2+x,1/2+y,1/2-z
1/2-x,1/2+y,1/2+z
1/2+x,1/2-y,1/2+z
loop_
_atom_site_type_symbol
_atom_site_label
_atom_site_fract_x
_atom_site_fract_y
_atom_site_fract_z
Si Si1 0.315200 0.116505 0.324814
Si Si2 0.451996 0.712315 0.682524
Si Si3 0.046829 0.654405 0.500000
Si Si4 0.868766 0.885299 0.686935
Si Si5 0.857547 0.606138 0.500000
Si Si6 0.224872 0.884265 0.814733
O O1 0.330876 0.150477 0.500000
O O2 0.265290 0.143977 0.296069
O O3 0.317375 0.000000 0.328755
O O4 0.341857 0.149727 0.168699
O O5 0.449003 0.754281 0.500000
O O6 0.500000 0.664867 0.690811
O O7 0.451694 0.784245 0.834117
O O8 0.410272 0.647451 0.712116
O O9 0.091308 0.599131 0.500000
O O10 0.000000 0.605887 0.500000
O O11 0.873406 0.853019 0.500000
O O12 0.822403 0.853879 0.756794
O O13 0.868055 0.000000 0.686340
O O14 0.837565 0.500000 0.500000
O O15 0.224617 0.000000 0.811723
O O16 0.233113 0.855638 0.000000
#
# Coordination Sequence:
#
# PCOD9518961 Si02
#       6
#    16  16   8  16   8  16
#     4   9  16  28  48  77 111 142 172 210 259 319
#     4  10  21  38  58  78 103 144 190 225 269 326
#     4  10  22  41  61  80 106 139 179 223 271 335
#     4  10  19  30  49  81 114 145 185 232 274 306
#     4  10  20  35  58  87 111 134 171 221 275 327
#     4   9  15  25  43  72 110 145 180 218 257 308
#
# _framework density 22.331769000000001
#
# number of rings (size 3 to 8) (size 9 to 14) (size 15 to 20)
#    0.000    2.400    2.000    1.200    0.000    5.000 
#    0.000    2.000    0.000    1.200    0.000    5.600 
#    0.000    0.000    0.000    0.000    0.000    0.000 
#
# Total GULP energy -223382.003855 kJ/mol
# GULP energy per Si atom -5584.550096 kJ/mol
# Density = 2.228094 g / cm^3
# Si number density = 22.331769 Si / 1000 Ang^3
#
#
#
# Elastic Constant Matrix: (Units=GPa)
#
#
# Indices 1 2 3 4 5 6 
#
# 1 158.6517 12.6340 68.2413 0.0000 0.0000 0.0000
# 2 12.6340 44.4268 24.8016 0.0000 0.0000 0.0000
# 3 68.2413 24.8016 207.6781 0.0000 0.0000 0.0000
# 4 0.0000 0.0000 0.0000 -3.2921 0.0000 0.0000
# 5 0.0000 0.0000 0.0000 0.0000 38.3172 0.0000
# 6 0.0000 0.0000 0.0000 0.0000 0.0000 29.5076
#
#
#
# Elastic Compliance Matrix: (Units=1/GPa)
#
#
# Indices 1 2 3 4 5 6 
#
# 1 0.007367 -0.000797 -0.002326 0.000000 0.000000 0.000000
# 2 -0.000797 0.024203 -0.002629 0.000000 0.000000 0.000000
# 3 -0.002326 -0.002629 0.005893 0.000000 0.000000 0.000000
# 4 0.000000 0.000000 0.000000 -0.303756 0.000000 0.000000
# 5 0.000000 0.000000 0.000000 0.000000 0.026098 0.000000
# 6 0.000000 0.000000 0.000000 0.000000 0.000000 0.033890
#
#
# Mechanical properties :
#
#
# Convention : Reuss Voigt Hill
#
# Bulk Modulus (GPa) = 38.51891 69.12338 53.82115
# Shear Modulus (GPa) = -26.85998 33.24519 3.19260
#
# Velocity S-wave (km/s) = -3.47186 3.86255 1.19697
# Velocity P-wave (km/s) = 1.10190 7.13530 5.10523
#
# Compressibility (1/GPa) = 0.02596128
#
# Stress axis : x y z
#
# Youngs Moduli (GPa) = 135.74318 41.31732 169.68670
#
# Poissons Ratio (x) = 0.03292 0.39461
# Poissons Ratio (y) = 0.10815 0.44604
# Poissons Ratio (z) = 0.31568 0.10861
#
# Static dielectric constant tensor:
#      x y z
#    x 1.797820 0.000000 0.000000 
#    y 0.000000 1.868430 0.000000 
#    z 0.000000 0.000000 1.814240 
# 
# From -- ./inp_files/16574.got.cif
#   From: 2010.05.17/outbox.cif.g08.bks.cpg/sg71_9_cif.got.tgz:16574.got - 2010.06.03 16:22:01.
