data_PCOD9518234
_publ_section_title
;
Structure prediction by ZEFSAII (Michael W. Deem and Ramdas Pophale) SiO2 
 PCOD9518234
Probable space group: I M M M
;
_chemical_formula_sum "Si O2"
_cell_formula_units_Z 88
_cell_length_a 23.468904
_cell_length_b 8.104051
_cell_length_c 25.389902
_cell_angle_alpha 90.000000
_cell_angle_beta 90.000000
_cell_angle_gamma 90.000000
_cell_volume 4828.986580
_symmetry_space_group_name_H-M "I M M M"
_symmetry_group_IT_number 71
_symmetry_cell_setting 'orthorhombic'
loop_
_space_group_symop_operation_xyz
x,y,z
-x,-y,z
x,-y,-z
-x,y,-z
-x,-y,-z
x,y,-z
-x,y,z
x,-y,z
1/2+x,1/2+y,1/2+z
1/2-x,1/2-y,1/2+z
1/2+x,1/2-y,1/2-z
1/2-x,1/2+y,1/2-z
1/2-x,1/2-y,1/2-z
1/2+x,1/2+y,1/2-z
1/2-x,1/2+y,1/2+z
1/2+x,1/2-y,1/2+z
loop_
_atom_site_type_symbol
_atom_site_label
_atom_site_fract_x
_atom_site_fract_y
_atom_site_fract_z
Si Si1 0.066179 0.699112 0.263101
Si Si2 0.218588 0.197050 0.559898
Si Si3 0.889330 0.698959 0.373638
Si Si4 0.500000 0.798200 0.939305
Si Si5 0.653768 0.698786 0.440130
Si Si6 0.065122 0.198529 0.853218
O O1 0.066978 0.500000 0.262568
O O2 0.101746 0.756895 0.313608
O O3 0.084955 0.758857 0.205760
O O4 0.000000 0.750310 0.270401
O O5 0.206876 0.258404 0.500000
O O6 0.169245 0.251672 0.599117
O O7 0.281600 0.257273 0.574851
O O8 0.219523 0.000000 0.558443
O O9 0.891840 0.500000 0.372734
O O10 0.943248 0.755765 0.408622
O O11 0.500000 0.000000 0.939053
O O12 0.500000 0.744785 0.000000
O O13 0.643997 0.759663 0.500000
O O14 0.649552 0.500000 0.441382
O O15 0.607766 0.761071 0.398107
O O16 0.000000 0.260533 0.859248
O O17 0.063154 0.000000 0.857302
#
# Coordination Sequence:
#
# PCOD9518234 Si02
#       6
#    16  16  16   8  16  16
#     4   9  17  31  50  73 102 134 168 205 245 292
#     4  10  21  35  50  71 101 134 167 206 253 301
#     4  10  18  31  51  74  98 130 173 211 246 291
#     4   9  16  26  45  73  99 123 160 211 252 284
#     4   9  18  34  55  76  99 130 166 202 243 296
#     4   9  18  32  52  79 106 129 158 199 249 302
#
# _framework density 18.223286000000002
#
# number of rings (size 3 to 8) (size 9 to 14) (size 15 to 20)
#    0.000    2.636    0.909    1.091    0.000    3.636 
#    0.000    3.182    0.000    1.636    0.000    5.091 
#    0.000    0.000    0.000    0.000    0.000    0.000 
#
# Total GULP energy -245387.981035 kJ/mol
# GULP energy per Si atom -5576.999569 kJ/mol
# Density = 1.818181 g / cm^3
# Si number density = 18.223286 Si / 1000 Ang^3
#
#
#
# Elastic Constant Matrix: (Units=GPa)
#
#
# Indices 1 2 3 4 5 6 
#
# 1 129.5863 8.7417 123.5145 0.0000 0.0000 0.0000
# 2 8.7417 9.5717 12.9504 0.0000 0.0000 0.0000
# 3 123.5145 12.9504 170.8474 0.0000 0.0000 0.0000
# 4 0.0000 0.0000 0.0000 22.9004 0.0000 0.0000
# 5 0.0000 0.0000 0.0000 0.0000 28.4666 0.0000
# 6 0.0000 0.0000 0.0000 0.0000 0.0000 7.6722
#
#
#
# Elastic Compliance Matrix: (Units=1/GPa)
#
#
# Indices 1 2 3 4 5 6 
#
# 1 0.024847 0.001796 -0.018099 0.000000 0.000000 0.000000
# 2 0.001796 0.116543 -0.010132 0.000000 0.000000 0.000000
# 3 -0.018099 -0.010132 0.019706 0.000000 0.000000 0.000000
# 4 0.000000 0.000000 0.000000 0.043667 0.000000 0.000000
# 5 0.000000 0.000000 0.000000 0.000000 0.035129 0.000000
# 6 0.000000 0.000000 0.000000 0.000000 0.000000 0.130340
#
#
# Mechanical properties :
#
#
# Convention : Reuss Voigt Hill
#
# Bulk Modulus (GPa) = 9.24006 66.71321 37.97663
# Shear Modulus (GPa) = 10.88898 22.79443 16.84170
#
# Velocity S-wave (km/s) = 2.44710 3.54056 3.04334
# Velocity P-wave (km/s) = 3.61467 7.30769 5.76490
#
# Compressibility (1/GPa) = 0.10822444
#
# Stress axis : x y z
#
# Youngs Moduli (GPa) = 40.24630 8.58052 50.74551
#
# Poissons Ratio (x) = -0.01541 0.91846
# Poissons Ratio (y) = -0.07227 0.51417
# Poissons Ratio (z) = 0.72843 0.08694
#
# Static dielectric constant tensor:
#      x y z
#    x 1.598990 0.000000 0.000000 
#    y 0.000000 1.650680 0.000000 
#    z 0.000000 0.000000 1.633340 
# 
# From -- ./inp_files/10419.got.cif
#   From: 2010.05.17/outbox.cif.g08.bks.cpg/sg71_6_cif.got.tgz:10419.got - 2010.06.03 16:22:01.
