data_PCOD9518864
_publ_section_title
;
Structure prediction by ZEFSAII (Michael W. Deem and Ramdas Pophale) SiO2 
 PCOD9518864
Probable space group: I M M M
;
_chemical_formula_sum "Si O2"
_cell_formula_units_Z 104
_cell_length_a 24.123422
_cell_length_b 7.343649
_cell_length_c 27.326039
_cell_angle_alpha 90.000000
_cell_angle_beta 90.000000
_cell_angle_gamma 90.000000
_cell_volume 4840.915579
_symmetry_space_group_name_H-M "I M M M"
_symmetry_group_IT_number 71
_symmetry_cell_setting 'orthorhombic'
loop_
_space_group_symop_operation_xyz
x,y,z
-x,-y,z
x,-y,-z
-x,y,-z
-x,-y,-z
x,y,-z
-x,y,z
x,-y,z
1/2+x,1/2+y,1/2+z
1/2-x,1/2-y,1/2+z
1/2+x,1/2-y,1/2-z
1/2-x,1/2+y,1/2-z
1/2-x,1/2-y,1/2-z
1/2+x,1/2+y,1/2-z
1/2-x,1/2+y,1/2+z
1/2+x,1/2-y,1/2+z
loop_
_atom_site_type_symbol
_atom_site_label
_atom_site_fract_x
_atom_site_fract_y
_atom_site_fract_z
Si Si1 0.861469 0.278302 0.409722
Si Si2 0.238732 0.777371 0.943247
Si Si3 0.062276 0.784424 0.208575
Si Si4 0.564468 0.219276 0.446483
Si Si5 0.561934 0.218937 0.823747
Si Si6 0.062822 0.721914 0.500000
Si Si7 0.851461 0.797546 0.133983
O O1 0.859631 0.500000 0.408854
O O2 0.800009 0.222484 0.425541
O O3 0.888526 0.217059 0.358652
O O4 0.903805 0.222909 0.452106
O O5 0.196054 0.714832 0.900929
O O6 0.235645 0.000000 0.944008
O O7 0.228643 0.719993 0.000000
O O8 0.068879 0.763277 0.266715
O O9 0.116219 0.710280 0.179997
O O10 0.000000 0.713202 0.195476
O O11 0.061248 0.000000 0.197724
O O12 0.586060 0.271698 0.500000
O O13 0.500000 0.265317 0.444037
O O14 0.598210 0.308571 0.404099
O O15 0.568782 0.000000 0.442311
O O16 0.500000 0.282546 0.838868
O O17 0.560994 0.000000 0.827661
O O18 0.062054 0.500000 0.500000
O O19 0.000000 0.784484 0.500000
O O20 0.831572 0.000000 0.148762
#
# Coordination Sequence:
#
# PCOD9518864 Si02
#       7
#    16  16  16  16  16   8  16
#     4   9  15  25  41  65  97 126 150 183 230 280
#     4   9  16  27  43  65  94 126 155 186 232 282
#     4   9  18  32  47  64  89 120 153 193 241 282
#     4   9  18  31  45  64  92 122 150 187 241 296
#     4   9  17  29  47  71  95 119 151 191 233 279
#     4   9  14  20  36  64  97 127 150 179 226 282
#     4  10  19  30  47  69  90 118 162 204 230 266
#
# _framework density 21.483540999999999
#
# number of rings (size 3 to 8) (size 9 to 14) (size 15 to 20)
#    0.000    2.846    0.769    1.846    0.000    4.308 
#    0.000    3.077    0.000    0.923    0.000    0.538 
#    0.000    3.077    0.000    0.000    0.000    0.000 
#
# Total GULP energy -290008.303213 kJ/mol
# GULP energy per Si atom -5577.082754 kJ/mol
# Density = 2.143464 g / cm^3
# Si number density = 21.483541 Si / 1000 Ang^3
#
#
#
# Elastic Constant Matrix: (Units=GPa)
#
#
# Indices 1 2 3 4 5 6 
#
# 1 151.1553 5.9452 88.3500 0.0000 0.0000 0.0000
# 2 5.9452 77.5456 -0.0788 0.0000 0.0000 0.0000
# 3 88.3500 -0.0788 119.5112 0.0000 0.0000 0.0000
# 4 0.0000 0.0000 0.0000 9.0574 0.0000 0.0000
# 5 0.0000 0.0000 0.0000 0.0000 40.1618 0.0000
# 6 0.0000 0.0000 0.0000 0.0000 0.0000 -342.9604
#
#
#
# Elastic Compliance Matrix: (Units=1/GPa)
#
#
# Indices 1 2 3 4 5 6 
#
# 1 0.011713 -0.000907 -0.008659 0.000000 0.000000 0.000000
# 2 -0.000907 0.012966 0.000679 0.000000 0.000000 0.000000
# 3 -0.008659 0.000679 0.014769 0.000000 0.000000 0.000000
# 4 0.000000 0.000000 0.000000 0.110407 0.000000 0.000000
# 5 0.000000 0.000000 0.000000 0.000000 0.024899 0.000000
# 6 0.000000 0.000000 0.000000 0.000000 0.000000 -0.002916
#
#
# Mechanical properties :
#
#
# Convention : Reuss Voigt Hill
#
# Bulk Modulus (GPa) = 46.13934 59.62722 52.88328
# Shear Modulus (GPa) = 25.40165 -41.81520 -8.20678
#
# Velocity S-wave (km/s) = 3.44230 -4.41657 -1.95661
# Velocity P-wave (km/s) = 6.10921 1.34424 4.42320
#
# Compressibility (1/GPa) = 0.02167348
#
# Stress axis : x y z
#
# Youngs Moduli (GPa) = 85.37669 77.12572 67.70735
#
# Poissons Ratio (x) = 0.06994 0.58631
# Poissons Ratio (y) = 0.07742 -0.04597
# Poissons Ratio (z) = 0.73931 -0.05236
#
# Static dielectric constant tensor:
#      x y z
#    x 1.776440 0.000000 0.000000 
#    y 0.000000 1.845360 0.000000 
#    z 0.000000 0.000000 1.767300 
# 
# From -- ./inp_files/66793.got.cif
#   From: 2010.05.17/outbox.cif.g08.bks.cpg/sg71_34_cif.got.tgz:66793.got - 2010.06.03 16:22:01.
