data_PCOD9518439
_publ_section_title
;
Structure prediction by ZEFSAII (Michael W. Deem and Ramdas Pophale) SiO2 
 PCOD9518439
Probable space group: I M M M
;
_chemical_formula_sum "Si O2"
_cell_formula_units_Z 104
_cell_length_a 18.381686
_cell_length_b 17.858241
_cell_length_c 18.259196
_cell_angle_alpha 90.000000
_cell_angle_beta 90.000000
_cell_angle_gamma 90.000000
_cell_volume 5993.847280
_symmetry_space_group_name_H-M "I M M M"
_symmetry_group_IT_number 71
_symmetry_cell_setting 'orthorhombic'
loop_
_space_group_symop_operation_xyz
x,y,z
-x,-y,z
x,-y,-z
-x,y,-z
-x,-y,-z
x,y,-z
-x,y,z
x,-y,z
1/2+x,1/2+y,1/2+z
1/2-x,1/2-y,1/2+z
1/2+x,1/2-y,1/2-z
1/2-x,1/2+y,1/2-z
1/2-x,1/2-y,1/2-z
1/2+x,1/2+y,1/2-z
1/2-x,1/2+y,1/2+z
1/2+x,1/2-y,1/2+z
loop_
_atom_site_type_symbol
_atom_site_label
_atom_site_fract_x
_atom_site_fract_y
_atom_site_fract_z
Si Si1 0.140370 0.272364 0.145355
Si Si2 0.079873 0.761183 0.698668
Si Si3 0.585474 0.308100 0.500000
Si Si4 0.796621 0.415624 0.797407
Si Si5 0.728722 0.409133 0.500000
Si Si6 0.285458 0.171807 0.854290
Si Si7 0.418073 0.590086 0.000000
Si Si8 0.371263 0.584477 0.841654
O O1 0.092001 0.263262 0.217725
O O2 0.103308 0.241097 0.072328
O O3 0.163680 0.359021 0.147384
O O4 0.214440 0.224052 0.157914
O O5 0.143684 0.725234 0.649213
O O6 0.087465 0.850863 0.700544
O O7 0.000000 0.739752 0.672186
O O8 0.500000 0.330294 0.500000
O O9 0.645839 0.375279 0.500000
O O10 0.825262 0.500000 0.799593
O O11 0.797474 0.382307 0.715308
O O12 0.711980 0.416711 0.818558
O O13 0.728653 0.500000 0.500000
O O14 0.768818 0.374861 0.571975
O O15 0.377547 0.608786 0.926025
O O16 0.423377 0.500000 0.000000
O O17 0.500000 0.620795 0.000000
O O18 0.401014 0.500000 0.833369
#
# Coordination Sequence:
#
# PCOD9518439 Si02
#       8
#    16  16   8  16   8  16   8  16
#     4  10  19  37  56  78 109 151 188 225 276 336
#     4  11  20  33  55  80 110 146 186 231 277 329
#     4  10  22  38  60  87 117 145 175 223 280 336
#     4  10  18  32  57  81 105 138 186 239 270 315
#     4  10  22  38  64  87 111 148 182 222 277 335
#     4  10  19  37  55  80 111 147 190 229 273 332
#     4   9  18  30  40  58 100 144 168 196 249 322
#     4  10  19  31  49  75 108 144 179 220 276 325
#
# _framework density 17.351126000000001
#
# number of rings (size 3 to 8) (size 9 to 14) (size 15 to 20)
#    0.000    1.923    3.077    2.308    0.000    2.308 
#    0.000    2.308    0.000   18.462    0.000    0.000 
#    0.000    0.000    0.000    0.000    0.000    0.000 
#
# Total GULP energy -289772.539788 kJ/mol
# GULP energy per Si atom -5572.548842 kJ/mol
# Density = 1.731163 g / cm^3
# Si number density = 17.351126 Si / 1000 Ang^3
#
#
#
# Elastic Constant Matrix: (Units=GPa)
#
#
# Indices 1 2 3 4 5 6 
#
# 1 95.0889 34.0587 24.5882 0.0000 0.0000 0.0000
# 2 34.0587 118.8721 32.1056 0.0000 0.0000 0.0000
# 3 24.5882 32.1056 61.8215 0.0000 0.0000 0.0000
# 4 0.0000 0.0000 0.0000 22.7734 0.0000 0.0000
# 5 0.0000 0.0000 0.0000 0.0000 36.7151 0.0000
# 6 0.0000 0.0000 0.0000 0.0000 0.0000 30.5823
#
#
#
# Elastic Compliance Matrix: (Units=1/GPa)
#
#
# Indices 1 2 3 4 5 6 
#
# 1 0.012365 -0.002576 -0.003580 0.000000 0.000000 0.000000
# 2 -0.002576 0.010321 -0.004336 0.000000 0.000000 0.000000
# 3 -0.003580 -0.004336 0.019851 0.000000 0.000000 0.000000
# 4 0.000000 0.000000 0.000000 0.043911 0.000000 0.000000
# 5 0.000000 0.000000 0.000000 0.000000 0.027237 0.000000
# 6 0.000000 0.000000 0.000000 0.000000 0.000000 0.032699
#
#
# Mechanical properties :
#
#
# Convention : Reuss Voigt Hill
#
# Bulk Modulus (GPa) = 46.39493 50.80973 48.60233
# Shear Modulus (GPa) = 28.64479 30.34949 29.49714
#
# Velocity S-wave (km/s) = 4.06752 4.18681 4.12759
# Velocity P-wave (km/s) = 6.98975 7.26080 7.12656
#
# Compressibility (1/GPa) = 0.02155408
#
# Stress axis : x y z
#
# Youngs Moduli (GPa) = 80.87463 96.88589 50.37475
#
# Poissons Ratio (x) = 0.24955 0.18035
# Poissons Ratio (y) = 0.20831 0.21841
# Poissons Ratio (z) = 0.28955 0.42007
#
# Static dielectric constant tensor:
#      x y z
#    x 1.584380 0.000000 0.000000 
#    y 0.000000 1.606920 0.000000 
#    z 0.000000 0.000000 1.572290 
# 
# From -- ./inp_files/46191.got.cif
#   From: 2010.05.17/outbox.cif.g08.bks.cpg/sg71_24_cif.got.tgz:46191.got - 2010.06.03 16:22:01.
