data_PCOD9518934
_publ_section_title
;
Structure prediction by ZEFSAII (Michael W. Deem and Ramdas Pophale) SiO2 
 PCOD9518934
Probable space group: I M M M
;
_chemical_formula_sum "Si O2"
_cell_formula_units_Z 104
_cell_length_a 22.227195
_cell_length_b 25.872958
_cell_length_c 9.984878
_cell_angle_alpha 90.000000
_cell_angle_beta 90.000000
_cell_angle_gamma 90.000000
_cell_volume 5742.136418
_symmetry_space_group_name_H-M "I M M M"
_symmetry_group_IT_number 71
_symmetry_cell_setting 'orthorhombic'
loop_
_space_group_symop_operation_xyz
x,y,z
-x,-y,z
x,-y,-z
-x,y,-z
-x,-y,-z
x,y,-z
-x,y,z
x,-y,z
1/2+x,1/2+y,1/2+z
1/2-x,1/2-y,1/2+z
1/2+x,1/2-y,1/2-z
1/2-x,1/2+y,1/2-z
1/2-x,1/2-y,1/2-z
1/2+x,1/2+y,1/2-z
1/2-x,1/2+y,1/2+z
1/2+x,1/2-y,1/2+z
loop_
_atom_site_type_symbol
_atom_site_label
_atom_site_fract_x
_atom_site_fract_y
_atom_site_fract_z
Si Si1 0.071590 0.816738 0.156896
Si Si2 0.746663 0.439508 0.656039
Si Si3 0.428599 0.000000 0.844776
Si Si4 0.160069 0.118795 0.343767
Si Si5 0.257740 0.791228 0.638825
Si Si6 0.601342 0.803203 0.349865
Si Si7 0.622862 0.107080 0.160027
O O1 0.106753 0.854522 0.258005
O O2 0.085380 0.756018 0.186583
O O3 0.000000 0.824421 0.166431
O O4 0.089772 0.824907 0.000000
O O5 0.728480 0.432223 0.500000
O O6 0.764264 0.500000 0.671284
O O7 0.692592 0.425859 0.757186
O O8 0.805191 0.402919 0.678313
O O9 0.405190 0.053494 0.787392
O O10 0.500000 0.000000 0.844973
O O11 0.406746 0.000000 0.000000
O O12 0.145012 0.106050 0.500000
O O13 0.211990 0.162248 0.349128
O O14 0.244042 0.763263 0.500000
O O15 0.250000 0.750000 0.750000
O O16 0.326604 0.807409 0.638263
O O17 0.576131 0.812945 0.500000
O O18 0.590519 0.846151 0.237586
O O19 0.613059 0.112800 0.000000
#
# Coordination Sequence:
#
# PCOD9518934 Si02
#       7
#    16  16   8  16  16  16  16
#     4  10  22  40  59  78 107 151 193 225 265 326
#     4  10  20  35  56  82 112 144 183 229 278 335
#     4   9  18  34  53  73 103 145 192 237 276 317
#     4  11  22  35  55  84 113 142 178 225 284 338
#     4  10  19  30  48  76 107 138 173 213 262 315
#     4  10  20  34  51  77 112 145 178 222 273 321
#     4  10  19  32  53  80 108 144 189 234 277 322
#
# _framework density 18.111726000000001
#
# number of rings (size 3 to 8) (size 9 to 14) (size 15 to 20)
#    0.000    1.923    3.846    0.462    0.000    3.077 
#    0.000    0.385    0.000    0.923    0.000    3.231 
#    0.000    0.000    0.000    0.000    0.000    0.000 
#
# Total GULP energy -289560.909371 kJ/mol
# GULP energy per Si atom -5568.479026 kJ/mol
# Density = 1.807050 g / cm^3
# Si number density = 18.111726 Si / 1000 Ang^3
#
#
#
# Elastic Constant Matrix: (Units=GPa)
#
#
# Indices 1 2 3 4 5 6 
#
# 1 48.7843 2.2023 16.6497 0.0000 0.0000 0.0000
# 2 2.2023 44.7311 43.2554 0.0000 0.0000 0.0000
# 3 16.6497 43.2554 97.2616 0.0000 0.0000 0.0000
# 4 0.0000 0.0000 0.0000 30.9936 0.0000 0.0000
# 5 0.0000 0.0000 0.0000 0.0000 14.3009 0.0000
# 6 0.0000 0.0000 0.0000 0.0000 0.0000 7.8270
#
#
#
# Elastic Compliance Matrix: (Units=1/GPa)
#
#
# Indices 1 2 3 4 5 6 
#
# 1 0.022285 0.004548 -0.005837 0.000000 0.000000 0.000000
# 2 0.004548 0.040153 -0.018636 0.000000 0.000000 0.000000
# 3 -0.005837 -0.018636 0.019569 0.000000 0.000000 0.000000
# 4 0.000000 0.000000 0.000000 0.032265 0.000000 0.000000
# 5 0.000000 0.000000 0.000000 0.000000 0.069926 0.000000
# 6 0.000000 0.000000 0.000000 0.000000 0.000000 0.127763
#
#
# Mechanical properties :
#
#
# Convention : Reuss Voigt Hill
#
# Bulk Modulus (GPa) = 23.72147 34.99910 29.36028
# Shear Modulus (GPa) = 13.66629 19.20227 16.43428
#
# Velocity S-wave (km/s) = 2.74990 3.25962 3.01555
# Velocity P-wave (km/s) = 4.81750 5.79075 5.32640
#
# Compressibility (1/GPa) = 0.04215590
#
# Stress axis : x y z
#
# Youngs Moduli (GPa) = 44.87246 24.90483 51.10187
#
# Poissons Ratio (x) = -0.11326 0.29830
# Poissons Ratio (y) = -0.20406 0.95232
# Poissons Ratio (z) = 0.26194 0.46412
#
# Static dielectric constant tensor:
#      x y z
#    x 1.599350 0.000000 0.000000 
#    y 0.000000 1.614770 0.000000 
#    z 0.000000 0.000000 1.662650 
# 
# From -- ./inp_files/13255.got.cif
#   From: 2010.05.17/outbox.cif.g08.bks.cpg/sg71_7_cif.got.tgz:13255.got - 2010.06.03 16:22:01.
