data_PCOD9518783
_publ_section_title
;
Structure prediction by ZEFSAII (Michael W. Deem and Ramdas Pophale) SiO2 
 PCOD9518783
Probable space group: I M M M
;
_chemical_formula_sum "Si O2"
_cell_formula_units_Z 104
_cell_length_a 8.422288
_cell_length_b 25.321090
_cell_length_c 34.183268
_cell_angle_alpha 90.000000
_cell_angle_beta 90.000000
_cell_angle_gamma 90.000000
_cell_volume 7289.975434
_symmetry_space_group_name_H-M "I M M M"
_symmetry_group_IT_number 71
_symmetry_cell_setting 'orthorhombic'
loop_
_space_group_symop_operation_xyz
x,y,z
-x,-y,z
x,-y,-z
-x,y,-z
-x,-y,-z
x,y,-z
-x,y,z
x,-y,z
1/2+x,1/2+y,1/2+z
1/2-x,1/2-y,1/2+z
1/2+x,1/2-y,1/2-z
1/2-x,1/2+y,1/2-z
1/2-x,1/2-y,1/2-z
1/2+x,1/2+y,1/2-z
1/2-x,1/2+y,1/2+z
1/2+x,1/2-y,1/2+z
loop_
_atom_site_type_symbol
_atom_site_label
_atom_site_fract_x
_atom_site_fract_y
_atom_site_fract_z
Si Si1 0.308088 0.384296 0.955112
Si Si2 0.191269 0.441797 0.253461
Si Si3 0.810332 0.663076 0.119374
Si Si4 0.189452 0.829259 0.232787
Si Si5 0.807061 0.557407 0.161524
Si Si6 0.189291 0.770036 0.311405
Si Si7 0.317146 0.500000 0.047712
O O1 0.500000 0.387346 0.954706
O O2 0.252261 0.340555 0.924658
O O3 0.244897 0.442844 0.942405
O O4 0.259212 0.374870 0.000000
O O5 0.241565 0.500000 0.268021
O O6 0.260418 0.389609 0.272940
O O7 0.234637 0.439388 0.207371
O O8 0.000000 0.439530 0.255597
O O9 0.747564 0.608977 0.139634
O O10 0.756713 0.710055 0.147559
O O11 0.000000 0.661774 0.118810
O O12 0.246023 0.808355 0.275713
O O13 0.259248 0.788335 0.201546
O O14 0.000000 0.825003 0.232198
O O15 0.752654 0.500000 0.146340
O O16 0.000000 0.557750 0.159522
O O17 0.000000 0.773095 0.312808
O O18 0.500000 0.500000 0.061555
O O19 0.322780 0.500000 0.000000
#
# Coordination Sequence:
#
# PCOD9518783 Si02
#       7
#    16  16  16  16  16  16   8
#     4   9  18  32  46  58  77 105 135 169 212 261
#     4   9  16  28  45  61  82 113 142 167 204 254
#     4  11  20  29  45  63  82 102 134 177 216 257
#     4  10  19  30  45  63  84 107 137 176 212 244
#     4   8  15  26  38  54  78 106 133 166 210 253
#     4  10  20  32  45  60  81 109 140 171 209 257
#     4   7  12  26  45  59  73  99 133 167 207 257
#
# _framework density 14.266166
#
# number of rings (size 3 to 8) (size 9 to 14) (size 15 to 20)
#    0.000    2.692    1.538    3.231    1.077    1.846 
#    0.000    0.000    0.000    1.385    0.000    0.000 
#    0.000    0.000    0.000    0.000    0.000    0.769 
#
# Total GULP energy -289786.329936 kJ/mol
# GULP energy per Si atom -5572.814037 kJ/mol
# Density = 1.423370 g / cm^3
# Si number density = 14.266166 Si / 1000 Ang^3
#
#
#
# Elastic Constant Matrix: (Units=GPa)
#
#
# Indices 1 2 3 4 5 6 
#
# 1 19.9960 14.9192 18.6256 0.0000 0.0000 0.0000
# 2 14.9192 82.8951 44.9587 0.0000 0.0000 0.0000
# 3 18.6256 44.9587 74.9620 0.0000 0.0000 0.0000
# 4 0.0000 0.0000 0.0000 24.9980 0.0000 0.0000
# 5 0.0000 0.0000 0.0000 0.0000 14.2574 0.0000
# 6 0.0000 0.0000 0.0000 0.0000 0.0000 17.3372
#
#
#
# Elastic Compliance Matrix: (Units=1/GPa)
#
#
# Indices 1 2 3 4 5 6 
#
# 1 0.066151 -0.004433 -0.013777 0.000000 0.000000 0.000000
# 2 -0.004433 0.018176 -0.009800 0.000000 0.000000 0.000000
# 3 -0.013777 -0.009800 0.022641 0.000000 0.000000 0.000000
# 4 0.000000 0.000000 0.000000 0.040003 0.000000 0.000000
# 5 0.000000 0.000000 0.000000 0.000000 0.070139 0.000000
# 6 0.000000 0.000000 0.000000 0.000000 0.000000 0.057679
#
#
# Mechanical properties :
#
#
# Convention : Reuss Voigt Hill
#
# Bulk Modulus (GPa) = 19.62829 37.20666 28.41748
# Shear Modulus (GPa) = 14.37638 17.94184 16.15911
#
# Velocity S-wave (km/s) = 3.17791 3.55018 3.36919
# Velocity P-wave (km/s) = 5.22054 6.55302 5.92436
#
# Compressibility (1/GPa) = 0.05094687
#
# Stress axis : x y z
#
# Youngs Moduli (GPa) = 15.11700 55.01673 44.16815
#
# Poissons Ratio (x) = 0.24391 0.60852
# Poissons Ratio (y) = 0.06702 0.43284
# Poissons Ratio (z) = 0.20827 0.53915
#
# Static dielectric constant tensor:
#      x y z
#    x 1.483760 0.000000 0.000000 
#    y 0.000000 1.482260 0.000000 
#    z 0.000000 0.000000 1.471950 
# 
# From -- ./inp_files/68444.got.cif
#   From: 2010.05.17/outbox.cif.g08.bks.cpg/sg71_35_cif.got.tgz:68444.got - 2010.06.03 16:22:01.
