data_PCOD9518944
_publ_section_title
;
Structure prediction by ZEFSAII (Michael W. Deem and Ramdas Pophale) SiO2 
 PCOD9518944
Probable space group: I M M M
;
_chemical_formula_sum "Si O2"
_cell_formula_units_Z 80
_cell_length_a 30.741861
_cell_length_b 15.126741
_cell_length_c 7.541630
_cell_angle_alpha 90.000000
_cell_angle_beta 90.000000
_cell_angle_gamma 90.000000
_cell_volume 3507.040225
_symmetry_space_group_name_H-M "I M M M"
_symmetry_group_IT_number 71
_symmetry_cell_setting 'orthorhombic'
loop_
_space_group_symop_operation_xyz
x,y,z
-x,-y,z
x,-y,-z
-x,y,-z
-x,-y,-z
x,y,-z
-x,y,z
x,-y,z
1/2+x,1/2+y,1/2+z
1/2-x,1/2-y,1/2+z
1/2+x,1/2-y,1/2-z
1/2-x,1/2+y,1/2-z
1/2-x,1/2-y,1/2-z
1/2+x,1/2+y,1/2-z
1/2-x,1/2+y,1/2+z
1/2+x,1/2-y,1/2+z
loop_
_atom_site_type_symbol
_atom_site_label
_atom_site_fract_x
_atom_site_fract_y
_atom_site_fract_z
Si Si1 0.447757 0.405787 0.705086
Si Si2 0.779983 0.399933 0.786880
Si Si3 0.048578 0.292618 0.701383
Si Si4 0.318591 0.600575 0.216595
Si Si5 0.138844 0.723318 0.711307
O O1 0.433981 0.397796 0.500000
O O2 0.500000 0.413528 0.702255
O O3 0.430791 0.500000 0.778172
O O4 0.442360 0.313266 0.802244
O O5 0.788930 0.500000 0.725068
O O6 0.730972 0.376426 0.728649
O O7 0.818105 0.334397 0.735944
O O8 0.778442 0.401554 0.000000
O O9 0.045800 0.326368 0.500000
O O10 0.094567 0.321651 0.784695
O O11 0.000000 0.305758 0.781182
O O12 0.327788 0.500000 0.273845
O O13 0.350233 0.678044 0.279553
O O14 0.319814 0.600541 0.000000
O O15 0.132373 0.729763 0.500000
#
# Coordination Sequence:
#
# PCOD9518944 Si02
#       5
#    16  16  16  16  16
#     4   8  14  25  40  57  79 111 152 194 232 269
#     4   9  18  33  52  72  95 123 153 190 240 293
#     4   9  18  30  42  61  91 124 158 195 233 273
#     4   8  15  29  48  71 100 130 156 184 226 282
#     4  10  19  30  49  74  96 124 161 198 234 274
#
# _framework density 22.811259
#
# number of rings (size 3 to 8) (size 9 to 14) (size 15 to 20)
#    0.000    3.200    0.000    2.400    0.000    2.400 
#    0.000    4.000    0.000    2.400    0.000    4.200 
#    0.000    0.000    0.000    0.000    0.000    0.000 
#
# Total GULP energy -222878.611468 kJ/mol
# GULP energy per Si atom -5571.965287 kJ/mol
# Density = 2.275934 g / cm^3
# Si number density = 22.811259 Si / 1000 Ang^3
#
#
#
# Elastic Constant Matrix: (Units=GPa)
#
#
# Indices 1 2 3 4 5 6 
#
# 1 208.3514 48.5586 4.9698 0.0000 0.0000 0.0000
# 2 48.5586 29.2778 -1.7451 0.0000 0.0000 0.0000
# 3 4.9698 -1.7451 58.9037 0.0000 0.0000 0.0000
# 4 0.0000 0.0000 0.0000 17.5072 0.0000 0.0000
# 5 0.0000 0.0000 0.0000 0.0000 13.9983 0.0000
# 6 0.0000 0.0000 0.0000 0.0000 0.0000 2.6476
#
#
#
# Elastic Compliance Matrix: (Units=1/GPa)
#
#
# Indices 1 2 3 4 5 6 
#
# 1 0.007889 -0.013147 -0.001055 0.000000 0.000000 0.000000
# 2 -0.013147 0.056125 0.002772 0.000000 0.000000 0.000000
# 3 -0.001055 0.002772 0.017148 0.000000 0.000000 0.000000
# 4 0.000000 0.000000 0.000000 0.057119 0.000000 0.000000
# 5 0.000000 0.000000 0.000000 0.000000 0.071438 0.000000
# 6 0.000000 0.000000 0.000000 0.000000 0.000000 0.377707
#
#
# Mechanical properties :
#
#
# Convention : Reuss Voigt Hill
#
# Bulk Modulus (GPa) = 17.15198 44.45551 30.80374
# Shear Modulus (GPa) = 7.94004 23.14724 15.54364
#
# Velocity S-wave (km/s) = 1.86770 3.18894 2.61320
# Velocity P-wave (km/s) = 3.49092 5.75237 4.75796
#
# Compressibility (1/GPa) = 0.05830231
#
# Stress axis : x y z
#
# Youngs Moduli (GPa) = 126.76306 17.81733 58.31582
#
# Poissons Ratio (x) = 0.23424 0.06153
# Poissons Ratio (y) = 1.66652 -0.16165
# Poissons Ratio (z) = 0.13375 -0.04939
#
# Static dielectric constant tensor:
#      x y z
#    x 1.934140 0.000000 0.000000 
#    y 0.000000 1.860250 0.000000 
#    z 0.000000 0.000000 1.879010 
# 
# From -- ./inp_files/14520.got.cif
#   From: 2010.05.17/outbox.cif.g08.bks.cpg/sg71_8_cif.got.tgz:14520.got - 2010.06.03 16:22:01.
