data_PCOD9518259
_publ_section_title
;
Structure prediction by ZEFSAII (Michael W. Deem and Ramdas Pophale) SiO2 
 PCOD9518259
Probable space group: I M M M
;
_chemical_formula_sum "Si O2"
_cell_formula_units_Z 66
_cell_length_a 9.808646
_cell_length_b 19.083664
_cell_length_c 22.411608
_cell_angle_alpha 90.000000
_cell_angle_beta 90.000000
_cell_angle_gamma 90.000000
_cell_volume 4195.114704
_symmetry_space_group_name_H-M "I M M M"
_symmetry_group_IT_number 71
_symmetry_cell_setting 'orthorhombic'
loop_
_space_group_symop_operation_xyz
x,y,z
-x,-y,z
x,-y,-z
-x,y,-z
-x,-y,-z
x,y,-z
-x,y,z
x,-y,z
1/2+x,1/2+y,1/2+z
1/2-x,1/2-y,1/2+z
1/2+x,1/2-y,1/2-z
1/2-x,1/2+y,1/2-z
1/2-x,1/2-y,1/2-z
1/2+x,1/2+y,1/2-z
1/2-x,1/2+y,1/2+z
1/2+x,1/2-y,1/2+z
loop_
_atom_site_type_symbol
_atom_site_label
_atom_site_fract_x
_atom_site_fract_y
_atom_site_fract_z
Si Si1 0.500000 0.000000 0.500000
Si Si2 0.335583 0.000000 0.267388
Si Si3 0.251932 0.500000 0.094673
Si Si4 0.847615 0.154601 0.429698
Si Si5 0.158136 0.738811 0.841371
Si Si6 0.658407 0.850318 0.218543
O O1 0.380927 0.000000 0.552484
O O2 0.282700 0.000000 0.335042
O O3 0.296216 0.929314 0.232871
O O4 0.500000 0.000000 0.271337
O O5 0.330582 0.428377 0.080572
O O6 0.833110 0.168137 0.500000
O O7 0.733865 0.195471 0.392659
O O8 0.000000 0.175895 0.410257
O O9 0.243150 0.808399 0.825626
O O10 0.161721 0.690877 0.781723
O O11 0.000000 0.752516 0.855405
O O12 0.500000 0.850158 0.198398
#
# Coordination Sequence:
#
# PCOD9518259 Si02
#       6
#     2   8   8  16  16  16
#     4  12  24  28  54  72 112 140 186 226 246 284
#     4  10  18  31  52  75 102 133 175 208 252 300
#     4  12  21  33  48  74 105 142 179 213 250 291
#     4  11  23  36  50  71 103 140 176 213 254 302
#     4  10  20  33  52  73 100 131 172 213 256 303
#     4   9  18  33  51  72 100 133 167 212 255 302
#
# _framework density 15.732585
#
# number of rings (size 3 to 8) (size 9 to 14) (size 15 to 20)
#    0.000    1.697    4.242    1.091    1.697    2.424 
#    0.000    0.606    0.000    0.000    0.000    0.848 
#    0.000    6.788    0.000    0.000    0.000    0.000 
#
# Total GULP energy -183834.988326 kJ/mol
# GULP energy per Si atom -5570.757222 kJ/mol
# Density = 1.569678 g / cm^3
# Si number density = 15.732585 Si / 1000 Ang^3
#
#
#
# Elastic Constant Matrix: (Units=GPa)
#
#
# Indices 1 2 3 4 5 6 
#
# 1 117.6379 51.1945 49.2987 0.0000 0.0000 0.0000
# 2 51.1945 92.7341 32.7346 0.0000 0.0000 0.0000
# 3 49.2987 32.7346 50.8932 0.0000 0.0000 0.0000
# 4 0.0000 0.0000 0.0000 11.3363 0.0000 0.0000
# 5 0.0000 0.0000 0.0000 0.0000 22.7727 0.0000
# 6 0.0000 0.0000 0.0000 0.0000 0.0000 14.0630
#
#
#
# Elastic Compliance Matrix: (Units=1/GPa)
#
#
# Indices 1 2 3 4 5 6 
#
# 1 0.015483 -0.004209 -0.012291 0.000000 0.000000 0.000000
# 2 -0.004209 0.015095 -0.005632 0.000000 0.000000 0.000000
# 3 -0.012291 -0.005632 0.035177 0.000000 0.000000 0.000000
# 4 0.000000 0.000000 0.000000 0.088212 0.000000 0.000000
# 5 0.000000 0.000000 0.000000 0.000000 0.043912 0.000000
# 6 0.000000 0.000000 0.000000 0.000000 0.000000 0.071109
#
#
# Mechanical properties :
#
#
# Convention : Reuss Voigt Hill
#
# Bulk Modulus (GPa) = 46.52939 58.63564 52.58251
# Shear Modulus (GPa) = 15.60470 18.17023 16.88746
#
# Velocity S-wave (km/s) = 3.15282 3.40213 3.27984
# Velocity P-wave (km/s) = 6.54928 7.26524 6.91653
#
# Compressibility (1/GPa) = 0.02149179
#
# Stress axis : x y z
#
# Youngs Moduli (GPa) = 64.58674 66.24602 28.42736
#
# Poissons Ratio (x) = 0.27883 0.34939
# Poissons Ratio (y) = 0.27184 0.16011
# Poissons Ratio (z) = 0.79382 0.37311
#
# Static dielectric constant tensor:
#      x y z
#    x 1.539350 0.000000 0.000000 
#    y 0.000000 1.522240 0.000000 
#    z 0.000000 0.000000 1.495130 
# 
# From -- ./inp_files/50038.got.cif
#   From: 2010.05.17/outbox.cif.g08.bks.cpg/sg71_26_cif.got.tgz:50038.got - 2010.06.03 16:22:01.
