data_PCOD9518121
_publ_section_title
;
Structure prediction by ZEFSAII (Michael W. Deem and Ramdas Pophale) SiO2 
 PCOD9518121
Probable space group: I M M M
;
_chemical_formula_sum "Si O2"
_cell_formula_units_Z 88
_cell_length_a 19.525949
_cell_length_b 10.133279
_cell_length_c 24.363677
_cell_angle_alpha 90.000000
_cell_angle_beta 90.000000
_cell_angle_gamma 90.000000
_cell_volume 4820.643153
_symmetry_space_group_name_H-M "I M M M"
_symmetry_group_IT_number 71
_symmetry_cell_setting 'orthorhombic'
loop_
_space_group_symop_operation_xyz
x,y,z
-x,-y,z
x,-y,-z
-x,y,-z
-x,-y,-z
x,y,-z
-x,y,z
x,-y,z
1/2+x,1/2+y,1/2+z
1/2-x,1/2-y,1/2+z
1/2+x,1/2-y,1/2-z
1/2-x,1/2+y,1/2-z
1/2-x,1/2-y,1/2-z
1/2+x,1/2+y,1/2-z
1/2-x,1/2+y,1/2+z
1/2+x,1/2-y,1/2+z
loop_
_atom_site_type_symbol
_atom_site_label
_atom_site_fract_x
_atom_site_fract_y
_atom_site_fract_z
Si Si1 0.081542 0.735441 0.630348
Si Si2 0.583043 0.350255 0.244096
Si Si3 0.180876 0.654113 0.066141
Si Si4 0.917729 0.155435 0.130478
Si Si5 0.918314 0.000000 0.561587
Si Si6 0.798231 0.356712 0.564378
O O1 0.101262 0.755905 0.693902
O O2 0.133022 0.640760 0.599517
O O3 0.000000 0.705817 0.626543
O O4 0.095314 0.871787 0.597615
O O5 0.500000 0.354159 0.243969
O O6 0.606249 0.500000 0.232109
O O7 0.603309 0.316893 0.306110
O O8 0.182239 0.500000 0.083019
O O9 0.119842 0.739917 0.092121
O O10 0.249174 0.736511 0.081007
O O11 0.175575 0.657110 0.000000
O O12 0.000000 0.168849 0.126547
O O13 0.902382 0.000000 0.119121
O O14 0.886898 0.000000 0.500000
O O15 0.000000 0.000000 0.554538
O O16 0.815326 0.339965 0.500000
O O17 0.762793 0.500000 0.569979
#
# Coordination Sequence:
#
# PCOD9518121 Si02
#       6
#    16  16  16  16   8  16
#     4  10  18  30  51  78 108 143 183 226 268 311
#     4   8  14  28  50  78 110 143 177 216 263 311
#     4  10  22  39  58  80 107 139 175 220 273 327
#     4   9  18  34  59  87 112 140 175 213 259 322
#     4   9  16  24  40  72 106 134 170 218 262 300
#     4  10  22  38  54  74 106 146 182 222 274 328
#
# _framework density 18.254826000000001
#
# number of rings (size 3 to 8) (size 9 to 14) (size 15 to 20)
#    0.000    2.636    0.909    2.182    1.273    3.273 
#    0.000    4.545    0.000    3.273    0.000    0.000 
#    0.000    0.000    0.000    0.000    0.000    0.000 
#
# Total GULP energy -245045.410400 kJ/mol
# GULP energy per Si atom -5569.213873 kJ/mol
# Density = 1.821328 g / cm^3
# Si number density = 18.254826 Si / 1000 Ang^3
#
#
#
# Elastic Constant Matrix: (Units=GPa)
#
#
# Indices 1 2 3 4 5 6 
#
# 1 68.5269 50.5357 36.4920 0.0000 0.0000 0.0000
# 2 50.5357 126.3106 47.8479 0.0000 0.0000 0.0000
# 3 36.4920 47.8479 51.5029 0.0000 0.0000 0.0000
# 4 0.0000 0.0000 0.0000 25.0098 0.0000 0.0000
# 5 0.0000 0.0000 0.0000 0.0000 8.6417 0.0000
# 6 0.0000 0.0000 0.0000 0.0000 0.0000 19.6141
#
#
#
# Elastic Compliance Matrix: (Units=1/GPa)
#
#
# Indices 1 2 3 4 5 6 
#
# 1 0.025451 -0.005172 -0.013229 0.000000 0.000000 0.000000
# 2 -0.005172 0.013267 -0.008661 0.000000 0.000000 0.000000
# 3 -0.013229 -0.008661 0.036836 0.000000 0.000000 0.000000
# 4 0.000000 0.000000 0.000000 0.039984 0.000000 0.000000
# 5 0.000000 0.000000 0.000000 0.000000 0.115717 0.000000
# 6 0.000000 0.000000 0.000000 0.000000 0.000000 0.050984
#
#
# Mechanical properties :
#
#
# Convention : Reuss Voigt Hill
#
# Bulk Modulus (GPa) = 46.66080 57.34351 52.00215
# Shear Modulus (GPa) = 14.55576 18.08411 16.31994
#
# Velocity S-wave (km/s) = 2.82683 3.15087 2.99324
# Velocity P-wave (km/s) = 6.02253 6.68717 6.36354
#
# Compressibility (1/GPa) = 0.02143127
#
# Stress axis : x y z
#
# Youngs Moduli (GPa) = 39.29089 75.37444 27.14735
#
# Poissons Ratio (x) = 0.38981 0.35912
# Poissons Ratio (y) = 0.20320 0.23513
# Poissons Ratio (z) = 0.51976 0.65284
#
# Static dielectric constant tensor:
#      x y z
#    x 1.630330 0.000000 0.000000 
#    y 0.000000 1.650630 0.000000 
#    z 0.000000 0.000000 1.632610 
# 
# From -- ./inp_files/61108.got.cif
#   From: 2010.05.17/outbox.cif.g08.bks.cpg/sg71_31_cif.got.tgz:61108.got - 2010.06.03 16:22:01.
