data_PCOD9518083
_publ_section_title
;
Structure prediction by ZEFSAII (Michael W. Deem and Ramdas Pophale) SiO2 
 PCOD9518083
Probable space group: I M M M
;
_chemical_formula_sum "Si O2"
_cell_formula_units_Z 104
_cell_length_a 7.530732
_cell_length_b 19.594015
_cell_length_c 34.310800
_cell_angle_alpha 90.000000
_cell_angle_beta 90.000000
_cell_angle_gamma 90.000000
_cell_volume 5062.808177
_symmetry_space_group_name_H-M "I M M M"
_symmetry_group_IT_number 71
_symmetry_cell_setting 'orthorhombic'
loop_
_space_group_symop_operation_xyz
x,y,z
-x,-y,z
x,-y,-z
-x,y,-z
-x,-y,-z
x,y,-z
-x,y,z
x,-y,z
1/2+x,1/2+y,1/2+z
1/2-x,1/2-y,1/2+z
1/2+x,1/2-y,1/2-z
1/2-x,1/2+y,1/2-z
1/2-x,1/2-y,1/2-z
1/2+x,1/2+y,1/2-z
1/2-x,1/2+y,1/2+z
1/2+x,1/2-y,1/2+z
loop_
_atom_site_type_symbol
_atom_site_label
_atom_site_fract_x
_atom_site_fract_y
_atom_site_fract_z
Si Si1 0.287938 0.657454 0.120739
Si Si2 0.214464 0.812128 0.855259
Si Si3 0.209958 0.077458 0.915521
Si Si4 0.212494 0.824266 0.767257
Si Si5 0.217518 0.921300 0.698153
Si Si6 0.288739 0.077823 0.000000
Si Si7 0.283483 0.579428 0.955933
O O1 0.500000 0.647529 0.119981
O O2 0.255782 0.737139 0.128446
O O3 0.221938 0.616045 0.158617
O O4 0.221225 0.626947 0.079666
O O5 0.283159 0.871080 0.883713
O O6 0.281276 0.824284 0.811387
O O7 0.000000 0.816230 0.854096
O O8 0.232573 0.107773 0.958849
O O9 0.000000 0.071595 0.908651
O O10 0.284059 0.000000 0.914657
O O11 0.250000 0.750000 0.750000
O O12 0.278387 0.880179 0.736405
O O13 0.000000 0.833329 0.769431
O O14 0.000000 0.919439 0.698088
O O15 0.270861 0.000000 0.698794
O O16 0.500000 0.074993 0.000000
O O17 0.215991 0.000000 0.000000
O O18 0.500000 0.581458 0.956260
O O19 0.234474 0.500000 0.949030
O O20 0.226103 0.598347 0.000000
#
# Coordination Sequence:
#
# PCOD9518083 Si02
#       7
#    16  16  16  16  16   8  16
#     4  10  18  30  50  74 101 133 167 202 246 300
#     4  10  21  34  50  73 102 135 168 204 251 302
#     4   9  18  34  54  74  99 134 174 210 248 299
#     4  10  19  33  52  72  98 133 166 204 252 302
#     4   9  17  29  49  77 100 123 165 214 250 285
#     4   9  17  31  53  79 103 127 160 207 258 301
#     4   8  14  26  46  72 100 128 161 205 249 286
#
# _framework density 20.54196
#
# number of rings (size 3 to 8) (size 9 to 14) (size 15 to 20)
#    0.000    2.692    1.538    1.154    0.000    4.000 
#    1.385    3.077    0.000    3.231    0.000    3.231 
#    0.000    0.000    0.000    0.000    0.000    0.000 
#
# Total GULP energy -290106.352293 kJ/mol
# GULP energy per Si atom -5578.968313 kJ/mol
# Density = 2.049521 g / cm^3
# Si number density = 20.541960 Si / 1000 Ang^3
#
#
#
# Elastic Constant Matrix: (Units=GPa)
#
#
# Indices 1 2 3 4 5 6 
#
# 1 50.1324 1.2801 7.6798 0.0000 0.0000 0.0000
# 2 1.2801 148.8279 124.3737 0.0000 0.0000 0.0000
# 3 7.6798 124.3737 245.6095 0.0000 0.0000 0.0000
# 4 0.0000 0.0000 0.0000 43.5253 0.0000 0.0000
# 5 0.0000 0.0000 0.0000 0.0000 1.6322 0.0000
# 6 0.0000 0.0000 0.0000 0.0000 0.0000 17.8695
#
#
#
# Elastic Compliance Matrix: (Units=1/GPa)
#
#
# Indices 1 2 3 4 5 6 
#
# 1 0.020075 0.000610 -0.000937 0.000000 0.000000 0.000000
# 2 0.000610 0.011667 -0.005927 0.000000 0.000000 0.000000
# 3 -0.000937 -0.005927 0.007102 0.000000 0.000000 0.000000
# 4 0.000000 0.000000 0.000000 0.022975 0.000000 0.000000
# 5 0.000000 0.000000 0.000000 0.000000 0.612678 0.000000
# 6 0.000000 0.000000 0.000000 0.000000 0.000000 0.055961
#
#
# Mechanical properties :
#
#
# Convention : Reuss Voigt Hill
#
# Bulk Modulus (GPa) = 37.96941 79.02634 58.49787
# Shear Modulus (GPa) = 6.65118 33.35447 20.00282
#
# Velocity S-wave (km/s) = 1.80136 4.03392 3.12389
# Velocity P-wave (km/s) = 4.78022 7.76214 6.44598
#
# Compressibility (1/GPa) = 0.02633699
#
# Stress axis : x y z
#
# Youngs Moduli (GPa) = 49.81301 85.71009 140.80012
#
# Poissons Ratio (x) = -0.05229 0.13188
# Poissons Ratio (y) = -0.03039 0.83455
# Poissons Ratio (z) = 0.04666 0.50802
#
# Static dielectric constant tensor:
#      x y z
#    x 1.792270 0.000000 0.000000 
#    y 0.000000 1.691780 0.000000 
#    z 0.000000 0.000000 1.759200 
# 
# From -- ./inp_files/68256.got.cif
#   From: 2010.05.17/outbox.cif.g08.bks.cpg/sg71_35_cif.got.tgz:68256.got - 2010.06.03 16:22:01.
