data_PCOD9518833
_publ_section_title
;
Structure prediction by ZEFSAII (Michael W. Deem and Ramdas Pophale) SiO2 
 PCOD9518833
Probable space group: I M M M
;
_chemical_formula_sum "Si O2"
_cell_formula_units_Z 88
_cell_length_a 9.234988
_cell_length_b 20.853954
_cell_length_c 24.600411
_cell_angle_alpha 90.000000
_cell_angle_beta 90.000000
_cell_angle_gamma 90.000000
_cell_volume 4737.695120
_symmetry_space_group_name_H-M "I M M M"
_symmetry_group_IT_number 71
_symmetry_cell_setting 'orthorhombic'
loop_
_space_group_symop_operation_xyz
x,y,z
-x,-y,z
x,-y,-z
-x,y,-z
-x,-y,-z
x,y,-z
-x,y,z
x,-y,z
1/2+x,1/2+y,1/2+z
1/2-x,1/2-y,1/2+z
1/2+x,1/2-y,1/2-z
1/2-x,1/2+y,1/2-z
1/2-x,1/2-y,1/2-z
1/2+x,1/2+y,1/2-z
1/2-x,1/2+y,1/2+z
1/2+x,1/2-y,1/2+z
loop_
_atom_site_type_symbol
_atom_site_label
_atom_site_fract_x
_atom_site_fract_y
_atom_site_fract_z
Si Si1 0.826463 0.384298 0.558868
Si Si2 0.833086 0.500000 0.066324
Si Si3 0.825855 0.427838 0.320684
Si Si4 0.665836 0.697182 0.715296
Si Si5 0.666218 0.627818 0.934232
Si Si6 0.834347 0.757434 0.090492
O O1 0.791168 0.414590 0.500000
O O2 0.788379 0.420369 0.614833
O O3 0.749560 0.315462 0.561811
O O4 0.000000 0.375632 0.560468
O O5 0.749491 0.436115 0.084033
O O6 0.000000 0.500000 0.083939
O O7 0.833050 0.500000 0.000000
O O8 0.788409 0.500000 0.303245
O O9 0.746351 0.371285 0.288369
O O10 0.000000 0.419872 0.316095
O O11 0.500000 0.689955 0.734099
O O12 0.750000 0.750000 0.750000
O O13 0.663543 0.723522 0.653736
O O14 0.500000 0.628630 0.915375
O O15 0.750908 0.691221 0.917147
O O16 0.664175 0.626689 0.000000
O O17 0.000000 0.752099 0.071178
#
# Coordination Sequence:
#
# PCOD9518833 Si02
#       6
#    16   8  16  16  16  16
#     4   9  17  29  46  72 107 144 180 214 248 292
#     4   9  17  29  45  65  91 127 167 203 243 293
#     4   9  18  33  54  80 110 144 179 216 260 310
#     4  10  21  37  58  80 102 131 170 218 268 318
#     4  10  19  30  46  69  98 132 168 205 247 298
#     4  10  20  32  48  72  99 129 167 211 259 307
#
# _framework density 18.574432999999999
#
# number of rings (size 3 to 8) (size 9 to 14) (size 15 to 20)
#    0.000    2.455    0.000    2.455    0.000    7.636 
#    0.000    1.818    2.000    0.000    0.000    5.091 
#    0.000    0.000    0.000    0.000    0.000    0.000 
#
# Total GULP energy -245419.360647 kJ/mol
# GULP energy per Si atom -5577.712742 kJ/mol
# Density = 1.853216 g / cm^3
# Si number density = 18.574433 Si / 1000 Ang^3
#
#
#
# Elastic Constant Matrix: (Units=GPa)
#
#
# Indices 1 2 3 4 5 6 
#
# 1 80.2044 69.5030 16.7760 0.0000 0.0000 0.0000
# 2 69.5030 157.7553 19.2375 0.0000 0.0000 0.0000
# 3 16.7760 19.2375 36.8057 0.0000 0.0000 0.0000
# 4 0.0000 0.0000 0.0000 2.1761 0.0000 0.0000
# 5 0.0000 0.0000 0.0000 0.0000 20.6708 0.0000
# 6 0.0000 0.0000 0.0000 0.0000 0.0000 29.5289
#
#
#
# Elastic Compliance Matrix: (Units=1/GPa)
#
#
# Indices 1 2 3 4 5 6 
#
# 1 0.021016 -0.008642 -0.005062 0.000000 0.000000 0.000000
# 2 -0.008642 0.010324 -0.001457 0.000000 0.000000 0.000000
# 3 -0.005062 -0.001457 0.030239 0.000000 0.000000 0.000000
# 4 0.000000 0.000000 0.000000 0.459548 0.000000 0.000000
# 5 0.000000 0.000000 0.000000 0.000000 0.048377 0.000000
# 6 0.000000 0.000000 0.000000 0.000000 0.000000 0.033865
#
#
# Mechanical properties :
#
#
# Convention : Reuss Voigt Hill
#
# Bulk Modulus (GPa) = 31.99361 53.97761 42.98561
# Shear Modulus (GPa) = 7.76266 21.75841 14.76054
#
# Velocity S-wave (km/s) = 2.04653 3.42631 2.82205
# Velocity P-wave (km/s) = 4.77978 6.69149 5.81474
#
# Compressibility (1/GPa) = 0.03125624
#
# Stress axis : x y z
#
# Youngs Moduli (GPa) = 47.58374 96.86244 33.07022
#
# Poissons Ratio (x) = 0.83705 0.16741
# Poissons Ratio (y) = 0.41120 0.04819
# Poissons Ratio (z) = 0.24087 0.14115
#
# Static dielectric constant tensor:
#      x y z
#    x 1.633190 0.000000 0.000000 
#    y 0.000000 1.609440 0.000000 
#    z 0.000000 0.000000 1.661410 
# 
# From -- ./inp_files/50503.got.cif
#   From: 2010.05.17/outbox.cif.g08.bks.cpg/sg71_26_cif.got.tgz:50503.got - 2010.06.03 16:22:01.
