data_PCOD9518770
_publ_section_title
;
Structure prediction by ZEFSAII (Michael W. Deem and Ramdas Pophale) SiO2 
 PCOD9518770
Probable space group: I M M M
;
_chemical_formula_sum "Si O2"
_cell_formula_units_Z 80
_cell_length_a 26.993521
_cell_length_b 24.361416
_cell_length_c 8.760892
_cell_angle_alpha 90.000000
_cell_angle_beta 90.000000
_cell_angle_gamma 90.000000
_cell_volume 5761.166034
_symmetry_space_group_name_H-M "I M M M"
_symmetry_group_IT_number 71
_symmetry_cell_setting 'orthorhombic'
loop_
_space_group_symop_operation_xyz
x,y,z
-x,-y,z
x,-y,-z
-x,y,-z
-x,-y,-z
x,y,-z
-x,y,z
x,-y,z
1/2+x,1/2+y,1/2+z
1/2-x,1/2-y,1/2+z
1/2+x,1/2-y,1/2-z
1/2-x,1/2+y,1/2-z
1/2-x,1/2-y,1/2-z
1/2+x,1/2+y,1/2-z
1/2-x,1/2+y,1/2+z
1/2+x,1/2-y,1/2+z
loop_
_atom_site_type_symbol
_atom_site_label
_atom_site_fract_x
_atom_site_fract_y
_atom_site_fract_z
Si Si1 0.557158 0.116334 0.315337
Si Si2 0.355559 0.813125 0.817303
Si Si3 0.741471 0.114974 0.816732
Si Si4 0.702051 0.281033 0.683042
Si Si5 0.782385 0.500000 0.817579
Si Si6 0.102832 0.500000 0.185508
O O1 0.560520 0.118556 0.500000
O O2 0.500000 0.124528 0.272416
O O3 0.594450 0.160490 0.245571
O O4 0.575539 0.055674 0.266364
O O5 0.309638 0.853483 0.771709
O O6 0.343516 0.752952 0.750878
O O7 0.355854 0.810552 0.000000
O O8 0.787033 0.155547 0.777102
O O9 0.742263 0.055613 0.742106
O O10 0.740365 0.109378 0.000000
O O11 0.701993 0.276508 0.500000
O O12 0.750000 0.250000 0.750000
O O13 0.839986 0.500000 0.764142
O O14 0.782542 0.500000 0.000000
O O15 0.102651 0.500000 0.000000
#
# Coordination Sequence:
#
# PCOD9518770 Si02
#       6
#    16  16  16  16   8   8
#     4  10  19  31  46  61  80 109 146 187 225 259
#     4  10  19  30  44  61  82 108 138 177 219 258
#     4   9  18  30  42  59  83 109 136 170 212 255
#     4   9  17  29  45  63  81 104 135 171 212 257
#     4  11  19  26  43  63  82 112 145 178 211 248
#     4   9  17  29  42  59  79 107 147 188 224 252
#
# _framework density 13.886077999999999
#
# number of rings (size 3 to 8) (size 9 to 14) (size 15 to 20)
#    0.000    2.400    2.000    3.000    0.000    5.600 
#    0.000    0.500    0.000    1.200    0.000    0.000 
#    0.000    0.000    0.000    0.900    0.000   17.400 
#
# Total GULP energy -222885.707842 kJ/mol
# GULP energy per Si atom -5572.142696 kJ/mol
# Density = 1.385447 g / cm^3
# Si number density = 13.886078 Si / 1000 Ang^3
#
#
#
# Elastic Constant Matrix: (Units=GPa)
#
#
# Indices 1 2 3 4 5 6 
#
# 1 74.7679 69.5618 26.2557 0.0000 0.0000 0.0000
# 2 69.5618 128.5973 41.0976 0.0000 0.0000 0.0000
# 3 26.2557 41.0976 28.1224 0.0000 0.0000 0.0000
# 4 0.0000 0.0000 0.0000 21.2950 0.0000 0.0000
# 5 0.0000 0.0000 0.0000 0.0000 17.6545 0.0000
# 6 0.0000 0.0000 0.0000 0.0000 0.0000 15.5573
#
#
#
# Elastic Compliance Matrix: (Units=1/GPa)
#
#
# Indices 1 2 3 4 5 6 
#
# 1 0.027732 -0.012621 -0.007447 0.000000 0.000000 0.000000
# 2 -0.012621 0.020334 -0.017933 0.000000 0.000000 0.000000
# 3 -0.007447 -0.017933 0.068718 0.000000 0.000000 0.000000
# 4 0.000000 0.000000 0.000000 0.046959 0.000000 0.000000
# 5 0.000000 0.000000 0.000000 0.000000 0.056643 0.000000
# 6 0.000000 0.000000 0.000000 0.000000 0.000000 0.064278
#
#
# Mechanical properties :
#
#
# Convention : Reuss Voigt Hill
#
# Bulk Modulus (GPa) = 24.52021 56.14642 40.33331
# Shear Modulus (GPa) = 13.35962 17.20620 15.28291
#
# Velocity S-wave (km/s) = 3.10512 3.52390 3.32112
# Velocity P-wave (km/s) = 5.52740 7.55503 6.61932
#
# Compressibility (1/GPa) = 0.04078269
#
# Stress axis : x y z
#
# Youngs Moduli (GPa) = 36.05921 49.17776 14.55214
#
# Poissons Ratio (x) = 0.62068 0.10837
# Poissons Ratio (y) = 0.45511 0.26096
# Poissons Ratio (z) = 0.26854 0.88190
#
# Static dielectric constant tensor:
#      x y z
#    x 1.449500 0.000000 0.000000 
#    y 0.000000 1.467910 0.000000 
#    z 0.000000 0.000000 1.464180 
# 
# From -- ./inp_files/10747.got.cif
#   From: 2010.05.17/outbox.cif.g08.bks.cpg/sg71_6_cif.got.tgz:10747.got - 2010.06.03 16:22:01.
