data_PCOD9518001
_publ_section_title
;
Structure prediction by ZEFSAII (Michael W. Deem and Ramdas Pophale) SiO2 
 PCOD9518001
Probable space group: I M M M
;
_chemical_formula_sum "Si O2"
_cell_formula_units_Z 80
_cell_length_a 20.648958
_cell_length_b 9.380058
_cell_length_c 25.483445
_cell_angle_alpha 90.000000
_cell_angle_beta 90.000000
_cell_angle_gamma 90.000000
_cell_volume 4935.848292
_symmetry_space_group_name_H-M "I M M M"
_symmetry_group_IT_number 71
_symmetry_cell_setting 'orthorhombic'
loop_
_space_group_symop_operation_xyz
x,y,z
-x,-y,z
x,-y,-z
-x,y,-z
-x,-y,-z
x,y,-z
-x,y,z
x,-y,z
1/2+x,1/2+y,1/2+z
1/2-x,1/2-y,1/2+z
1/2+x,1/2-y,1/2-z
1/2-x,1/2+y,1/2-z
1/2-x,1/2-y,1/2-z
1/2+x,1/2+y,1/2-z
1/2-x,1/2+y,1/2+z
1/2+x,1/2-y,1/2+z
loop_
_atom_site_type_symbol
_atom_site_label
_atom_site_fract_x
_atom_site_fract_y
_atom_site_fract_z
Si Si1 0.573270 0.832259 0.290801
Si Si2 0.733522 0.337059 0.000000
Si Si3 0.693787 0.828820 0.781687
Si Si4 0.108604 0.334942 0.000000
Si Si5 0.232182 0.666725 0.602890
Si Si6 0.611292 0.332498 0.395010
O O1 0.500000 0.814044 0.271654
O O2 0.626210 0.796341 0.246813
O O3 0.583689 0.739285 0.342794
O O4 0.582339 0.000000 0.304528
O O5 0.812474 0.334494 0.000000
O O6 0.712412 0.257218 0.947408
O O7 0.712756 0.500000 0.000000
O O8 0.750000 0.750000 0.750000
O O9 0.699309 0.788044 0.842687
O O10 0.704150 0.000000 0.779309
O O11 0.089358 0.251385 0.052782
O O12 0.087476 0.500000 0.000000
O O13 0.218562 0.500000 0.593591
O O14 0.310259 0.679754 0.608862
O O15 0.595379 0.500000 0.398650
#
# Coordination Sequence:
#
# PCOD9518001 Si02
#       6
#    16   8  16   8  16  16
#     4  10  21  35  50  70  99 133 165 201 246 294
#     4   9  17  27  43  70  99 126 155 193 241 289
#     4  10  19  32  51  74  99 128 165 203 243 289
#     4   9  17  29  46  68  95 128 164 203 247 291
#     4   9  17  29  46  70  98 127 157 196 243 285
#     4  10  18  30  48  70  96 127 165 206 246 288
#
# _framework density 16.207953
#
# number of rings (size 3 to 8) (size 9 to 14) (size 15 to 20)
#    0.000    2.400    2.000    1.200    0.000    4.400 
#    0.000    0.500    0.000    3.000    0.000    0.700 
#    0.000    5.600    0.000    0.000    0.000    0.000 
#
# Total GULP energy -223120.140454 kJ/mol
# GULP energy per Si atom -5578.003511 kJ/mol
# Density = 1.617106 g / cm^3
# Si number density = 16.207953 Si / 1000 Ang^3
#
#
#
# Elastic Constant Matrix: (Units=GPa)
#
#
# Indices 1 2 3 4 5 6 
#
# 1 61.7148 44.7076 56.3012 0.0000 0.0000 0.0000
# 2 44.7076 79.8554 77.0425 0.0000 0.0000 0.0000
# 3 56.3012 77.0425 157.6334 0.0000 0.0000 0.0000
# 4 0.0000 0.0000 0.0000 28.1284 0.0000 0.0000
# 5 0.0000 0.0000 0.0000 0.0000 7.7244 0.0000
# 6 0.0000 0.0000 0.0000 0.0000 0.0000 11.3730
#
#
#
# Elastic Compliance Matrix: (Units=1/GPa)
#
#
# Indices 1 2 3 4 5 6 
#
# 1 0.028899 -0.011772 -0.004568 0.000000 0.000000 0.000000
# 2 -0.011772 0.028491 -0.009720 0.000000 0.000000 0.000000
# 3 -0.004568 -0.009720 0.012726 0.000000 0.000000 0.000000
# 4 0.000000 0.000000 0.000000 0.035551 0.000000 0.000000
# 5 0.000000 0.000000 0.000000 0.000000 0.129460 0.000000
# 6 0.000000 0.000000 0.000000 0.000000 0.000000 0.087928
#
#
# Mechanical properties :
#
#
# Convention : Reuss Voigt Hill
#
# Bulk Modulus (GPa) = 55.57025 72.81181 64.19103
# Shear Modulus (GPa) = 13.11734 17.52199 15.31966
#
# Velocity S-wave (km/s) = 2.84793 3.29153 3.07774
# Velocity P-wave (km/s) = 6.72120 7.71146 7.23330
#
# Compressibility (1/GPa) = 0.01799524
#
# Stress axis : x y z
#
# Youngs Moduli (GPa) = 34.60333 35.09845 78.57779
#
# Poissons Ratio (x) = 0.41318 0.35896
# Poissons Ratio (y) = 0.40735 0.76381
# Poissons Ratio (z) = 0.15808 0.34117
#
# Static dielectric constant tensor:
#      x y z
#    x 1.535290 0.000000 0.000000 
#    y 0.000000 1.542500 0.000000 
#    z 0.000000 0.000000 1.526670 
# 
# From -- ./inp_files/8409.got.cif
#   From: 2010.05.17/outbox.cif.g08.bks.cpg/sg71_5_cif.got.tgz:8409.got - 2010.06.03 16:22:01.
