data_PCOD9518735
_publ_section_title
;
Structure prediction by ZEFSAII (Michael W. Deem and Ramdas Pophale) SiO2 
 PCOD9518735
Probable space group: I M M M
;
_chemical_formula_sum "Si O2"
_cell_formula_units_Z 72
_cell_length_a 7.341765
_cell_length_b 17.316707
_cell_length_c 25.642177
_cell_angle_alpha 90.000000
_cell_angle_beta 90.000000
_cell_angle_gamma 90.000000
_cell_volume 3260.023131
_symmetry_space_group_name_H-M "I M M M"
_symmetry_group_IT_number 71
_symmetry_cell_setting 'orthorhombic'
loop_
_space_group_symop_operation_xyz
x,y,z
-x,-y,z
x,-y,-z
-x,y,-z
-x,-y,-z
x,y,-z
-x,y,z
x,-y,z
1/2+x,1/2+y,1/2+z
1/2-x,1/2-y,1/2+z
1/2+x,1/2-y,1/2-z
1/2-x,1/2+y,1/2-z
1/2-x,1/2-y,1/2-z
1/2+x,1/2+y,1/2-z
1/2-x,1/2+y,1/2+z
1/2+x,1/2-y,1/2+z
loop_
_atom_site_type_symbol
_atom_site_label
_atom_site_fract_x
_atom_site_fract_y
_atom_site_fract_z
Si Si1 0.219874 0.700180 0.150096
Si Si2 0.277530 0.000000 0.940028
Si Si3 0.722234 0.085432 0.261098
Si Si4 0.221779 0.587582 0.059139
Si Si5 0.712274 0.880577 0.145538
O O1 0.282231 0.655840 0.202309
O O2 0.282503 0.649013 0.101344
O O3 0.274178 0.788533 0.143747
O O4 0.000000 0.699250 0.150911
O O5 0.218293 0.073806 0.905102
O O6 0.500000 0.000000 0.943028
O O7 0.214480 0.000000 0.000000
O O8 0.500000 0.088008 0.260803
O O9 0.787701 0.094071 0.201734
O O10 0.771991 0.000000 0.281271
O O11 0.277496 0.500000 0.071812
O O12 0.000000 0.587813 0.059729
O O13 0.277990 0.605221 0.000000
O O14 0.500000 0.901744 0.147717
#
# Coordination Sequence:
#
# PCOD9518735 Si02
#       5
#    16   8  16  16  16
#     4  10  19  29  47  75 100 121 152 195 240 285
#     4   9  18  34  55  73  89 123 174 212 236 275
#     4   9  16  29  50  72  94 124 162 196 230 277
#     4   8  14  26  44  66  93 124 156 188 223 270
#     4  10  19  33  51  69  93 124 158 199 241 282
#
# _framework density 22.085733999999999
#
# number of rings (size 3 to 8) (size 9 to 14) (size 15 to 20)
#    0.000    2.778    1.111    2.000    0.000    3.556 
#    0.000    0.556    0.000    4.667    0.000    1.556 
#    0.000    0.000    0.000    0.000    0.000    0.000 
#
# Total GULP energy -201034.186725 kJ/mol
# GULP energy per Si atom -5584.282965 kJ/mol
# Density = 2.203547 g / cm^3
# Si number density = 22.085734 Si / 1000 Ang^3
#
#
#
# Elastic Constant Matrix: (Units=GPa)
#
#
# Indices 1 2 3 4 5 6 
#
# 1 83.1553 -4.2001 4.4570 0.0000 0.0000 0.0000
# 2 -4.2001 181.7803 118.0764 0.0000 0.0000 0.0000
# 3 4.4570 118.0764 178.2009 0.0000 0.0000 0.0000
# 4 0.0000 0.0000 0.0000 10.8765 0.0000 0.0000
# 5 0.0000 0.0000 0.0000 0.0000 -10.5299 0.0000
# 6 0.0000 0.0000 0.0000 0.0000 0.0000 17.5910
#
#
#
# Elastic Compliance Matrix: (Units=1/GPa)
#
#
# Indices 1 2 3 4 5 6 
#
# 1 0.012114 0.000837 -0.000858 0.000000 0.000000 0.000000
# 2 0.000837 0.009716 -0.006459 0.000000 0.000000 0.000000
# 3 -0.000858 -0.006459 0.009913 0.000000 0.000000 0.000000
# 4 0.000000 0.000000 0.000000 0.091942 0.000000 0.000000
# 5 0.000000 0.000000 0.000000 0.000000 -0.094967 0.000000
# 6 0.000000 0.000000 0.000000 0.000000 0.000000 0.056847
#
#
# Mechanical properties :
#
#
# Convention : Reuss Voigt Hill
#
# Bulk Modulus (GPa) = 53.23737 75.53369 64.38553
# Shear Modulus (GPa) = 47.71757 25.24105 36.47931
#
# Velocity S-wave (km/s) = 4.65323 3.38430 4.06854
# Velocity P-wave (km/s) = 7.28198 7.03888 7.16146
#
# Compressibility (1/GPa) = 0.01878380
#
# Stress axis : x y z
#
# Youngs Moduli (GPa) = 82.54960 102.92636 100.88210
#
# Poissons Ratio (x) = -0.08614 0.08651
# Poissons Ratio (y) = -0.06909 0.65155
# Poissons Ratio (z) = 0.07079 0.66476
#
# Static dielectric constant tensor:
#      x y z
#    x 1.859380 0.000000 0.000000 
#    y 0.000000 1.767950 0.000000 
#    z 0.000000 0.000000 1.791310 
# 
# From -- ./inp_files/6039.got.cif
#   From: 2010.05.17/outbox.cif.g08.bks.cpg/sg71_4_cif.got.tgz:6039.got - 2010.06.03 16:22:01.
