data_PCOD9518898
_publ_section_title
;
Structure prediction by ZEFSAII (Michael W. Deem and Ramdas Pophale) SiO2 
 PCOD9518898
Probable space group: I M M M
;
_chemical_formula_sum "Si O2"
_cell_formula_units_Z 120
_cell_length_a 21.097157
_cell_length_b 27.415278
_cell_length_c 12.630124
_cell_angle_alpha 90.000000
_cell_angle_beta 90.000000
_cell_angle_gamma 90.000000
_cell_volume 7305.066997
_symmetry_space_group_name_H-M "I M M M"
_symmetry_group_IT_number 71
_symmetry_cell_setting 'orthorhombic'
loop_
_space_group_symop_operation_xyz
x,y,z
-x,-y,z
x,-y,-z
-x,y,-z
-x,-y,-z
x,y,-z
-x,y,z
x,-y,z
1/2+x,1/2+y,1/2+z
1/2-x,1/2-y,1/2+z
1/2+x,1/2-y,1/2-z
1/2-x,1/2+y,1/2-z
1/2-x,1/2-y,1/2-z
1/2+x,1/2+y,1/2-z
1/2-x,1/2+y,1/2+z
1/2+x,1/2-y,1/2+z
loop_
_atom_site_type_symbol
_atom_site_label
_atom_site_fract_x
_atom_site_fract_y
_atom_site_fract_z
Si Si1 0.284030 0.308467 0.625730
Si Si2 0.072594 0.792658 0.377018
Si Si3 0.000000 0.942118 0.872744
Si Si4 0.838921 0.719108 0.257523
Si Si5 0.293840 0.558664 0.876951
Si Si6 0.115037 0.119519 0.772020
Si Si7 0.150783 0.554599 0.128248
Si Si8 0.425417 0.147563 0.625281
O O1 0.275519 0.306376 0.500000
O O2 0.216833 0.311715 0.686738
O O3 0.310616 0.257486 0.672677
O O4 0.334762 0.350614 0.655266
O O5 0.081927 0.805793 0.500000
O O6 0.122890 0.751849 0.342101
O O7 0.082856 0.839239 0.301707
O O8 0.000000 0.775286 0.364031
O O9 0.061794 0.912700 0.830772
O O10 0.000000 0.000000 0.840755
O O11 0.000000 0.940884 0.000000
O O12 0.887219 0.685350 0.195111
O O13 0.299265 0.500000 0.872251
O O14 0.344141 0.584561 0.803393
O O15 0.221882 0.570827 0.842504
O O16 0.301778 0.573248 0.000000
O O17 0.139033 0.500000 0.168411
O O18 0.098548 0.593847 0.156686
O O19 0.151835 0.551773 0.000000
O O20 0.411010 0.154306 0.500000
O O21 0.500000 0.152750 0.639066
#
# Coordination Sequence:
#
# PCOD9518898 Si02
#       8
#    16  16   8  16  16  16  16  16
#     4  10  21  35  53  75  97 127 171 216 259 309
#     4  10  20  34  52  74 103 136 170 206 249 311
#     4  11  24  40  55  73 101 137 176 220 268 315
#     4  10  20  34  52  73 102 133 165 211 261 305
#     4   9  17  30  50  76 104 132 165 207 257 308
#     4  11  20  35  54  75 100 133 171 214 259 313
#     4   8  15  28  45  68 100 135 167 201 244 294
#     4  10  19  30  47  73 105 138 171 205 244 299
#
# _framework density 16.426953999999999
#
# number of rings (size 3 to 8) (size 9 to 14) (size 15 to 20)
#    0.000    2.200    0.667    4.000    0.000    0.267 
#    0.000    5.333    0.000    1.600    0.000    0.000 
#    0.000    1.600    0.000   10.800    0.000    0.800 
#
# Total GULP energy -334500.778118 kJ/mol
# GULP energy per Si atom -5575.012969 kJ/mol
# Density = 1.638957 g / cm^3
# Si number density = 16.426954 Si / 1000 Ang^3
#
#
#
# Elastic Constant Matrix: (Units=GPa)
#
#
# Indices 1 2 3 4 5 6 
#
# 1 97.8334 54.6541 57.7022 0.0000 0.0000 0.0000
# 2 54.6541 72.9034 43.5128 0.0000 0.0000 0.0000
# 3 57.7022 43.5128 86.6915 0.0000 0.0000 0.0000
# 4 0.0000 0.0000 0.0000 20.1677 0.0000 0.0000
# 5 0.0000 0.0000 0.0000 0.0000 26.6444 0.0000
# 6 0.0000 0.0000 0.0000 0.0000 0.0000 24.5164
#
#
#
# Elastic Compliance Matrix: (Units=1/GPa)
#
#
# Indices 1 2 3 4 5 6 
#
# 1 0.021505 -0.010820 -0.008883 0.000000 0.000000 0.000000
# 2 -0.010820 0.025028 -0.005360 0.000000 0.000000 0.000000
# 3 -0.008883 -0.005360 0.020138 0.000000 0.000000 0.000000
# 4 0.000000 0.000000 0.000000 0.049584 0.000000 0.000000
# 5 0.000000 0.000000 0.000000 0.000000 0.037531 0.000000
# 6 0.000000 0.000000 0.000000 0.000000 0.000000 0.040789
#
#
# Mechanical properties :
#
#
# Convention : Reuss Voigt Hill
#
# Bulk Modulus (GPa) = 60.44342 63.24073 61.84208
# Shear Modulus (GPa) = 19.98263 21.03631 20.50947
#
# Velocity S-wave (km/s) = 3.49155 3.58243 3.53728
# Velocity P-wave (km/s) = 7.28902 7.46280 7.37642
#
# Compressibility (1/GPa) = 0.01654440
#
# Stress axis : x y z
#
# Youngs Moduli (GPa) = 46.50012 39.95582 49.65690
#
# Poissons Ratio (x) = 0.43233 0.44111
# Poissons Ratio (y) = 0.50314 0.26617
# Poissons Ratio (z) = 0.41307 0.21417
#
# Static dielectric constant tensor:
#      x y z
#    x 1.556220 0.000000 0.000000 
#    y 0.000000 1.547470 0.000000 
#    z 0.000000 0.000000 1.525840 
# 
# From -- ./inp_files/26297.got.cif
#   From: 2010.05.17/outbox.cif.g08.bks.cpg/sg71_14_cif.got.tgz:26297.got - 2010.06.03 16:22:01.
