data_PCOD9518534
_publ_section_title
;
Structure prediction by ZEFSAII (Michael W. Deem and Ramdas Pophale) SiO2 
 PCOD9518534
Probable space group: I M M M
;
_chemical_formula_sum "Si O2"
_cell_formula_units_Z 116
_cell_length_a 23.066765
_cell_length_b 7.701265
_cell_length_c 31.744629
_cell_angle_alpha 90.000000
_cell_angle_beta 90.000000
_cell_angle_gamma 90.000000
_cell_volume 5639.219699
_symmetry_space_group_name_H-M "I M M M"
_symmetry_group_IT_number 71
_symmetry_cell_setting 'orthorhombic'
loop_
_space_group_symop_operation_xyz
x,y,z
-x,-y,z
x,-y,-z
-x,y,-z
-x,-y,-z
x,y,-z
-x,y,z
x,-y,z
1/2+x,1/2+y,1/2+z
1/2-x,1/2-y,1/2+z
1/2+x,1/2-y,1/2-z
1/2-x,1/2+y,1/2-z
1/2-x,1/2-y,1/2-z
1/2+x,1/2+y,1/2-z
1/2-x,1/2+y,1/2+z
1/2+x,1/2-y,1/2+z
loop_
_atom_site_type_symbol
_atom_site_label
_atom_site_fract_x
_atom_site_fract_y
_atom_site_fract_z
Si Si1 0.275600 0.292128 0.295740
Si Si2 0.678982 0.787842 0.863992
Si Si3 0.433936 0.787707 0.813255
Si Si4 0.362798 0.193997 0.439156
Si Si5 0.271295 0.210835 0.047396
Si Si6 0.938538 0.200673 0.869713
Si Si7 0.899806 0.000000 0.000000
Si Si8 0.405941 0.199130 0.281168
O O1 0.282734 0.500000 0.300387
O O2 0.250000 0.250000 0.250000
O O3 0.231223 0.234612 0.332447
O O4 0.338618 0.209105 0.293599
O O5 0.617310 0.731181 0.844703
O O6 0.691560 0.732990 0.912056
O O7 0.679065 0.000000 0.863649
O O8 0.500000 0.734676 0.823243
O O9 0.417470 0.731585 0.765702
O O10 0.432849 0.000000 0.813513
O O11 0.294640 0.228709 0.445230
O O12 0.383997 0.209239 0.391173
O O13 0.395163 0.345781 0.464116
O O14 0.375977 0.000000 0.453525
O O15 0.270080 0.000000 0.047314
O O16 0.289407 0.265520 0.000000
O O17 0.936866 0.210176 0.819631
O O18 0.000000 0.275932 0.884955
O O19 0.936328 0.000000 0.881041
O O20 0.425300 0.000000 0.280719
#
# Coordination Sequence:
#
# PCOD9518534 Si02
#       8
#    16  16  16  16  16  16   4  16
#     4  11  20  33  52  78 113 147 183 235 297 362
#     4   9  18  31  51  78 111 152 191 236 301 357
#     4   9  17  31  51  77 110 150 198 246 291 352
#     4  12  23  40  67  92 120 159 200 248 307 367
#     4  10  18  34  58  85 118 151 192 246 302 363
#     4  11  24  42  60  83 119 160 203 253 305 357
#     4  12  22  44  65  92 128 154 199 254 310 362
#     4  11  21  35  56  83 113 151 202 249 298 356
#
# _framework density 20.570222000000001
#
# number of rings (size 3 to 8) (size 9 to 14) (size 15 to 20)
#    0.000    1.517    3.448    2.690    0.000    2.759 
#    0.000    1.379    0.000    1.241    0.000    2.897 
#    0.000    0.000    0.000    1.241    0.000    3.034 
#
# Total GULP energy -323316.848004 kJ/mol
# GULP energy per Si atom -5574.428414 kJ/mol
# Density = 2.052340 g / cm^3
# Si number density = 20.570222 Si / 1000 Ang^3
#
#
#
# Elastic Constant Matrix: (Units=GPa)
#
#
# Indices 1 2 3 4 5 6 
#
# 1 109.2166 2.9840 67.6530 0.0000 0.0000 0.0000
# 2 2.9840 72.3659 17.5460 0.0000 0.0000 0.0000
# 3 67.6530 17.5460 177.6470 0.0000 0.0000 0.0000
# 4 0.0000 0.0000 0.0000 17.1210 0.0000 0.0000
# 5 0.0000 0.0000 0.0000 0.0000 3.7261 0.0000
# 6 0.0000 0.0000 0.0000 0.0000 0.0000 -330.4477
#
#
#
# Elastic Compliance Matrix: (Units=1/GPa)
#
#
# Indices 1 2 3 4 5 6 
#
# 1 0.012011 0.000629 -0.004636 0.000000 0.000000 0.000000
# 2 0.000629 0.014191 -0.001641 0.000000 0.000000 0.000000
# 3 -0.004636 -0.001641 0.007557 0.000000 0.000000 0.000000
# 4 0.000000 0.000000 0.000000 0.058408 0.000000 0.000000
# 5 0.000000 0.000000 0.000000 0.000000 0.268379 0.000000
# 6 0.000000 0.000000 0.000000 0.000000 0.000000 -0.003026
#
#
# Mechanical properties :
#
#
# Convention : Reuss Voigt Hill
#
# Bulk Modulus (GPa) = 44.52078 59.51060 52.01569
# Shear Modulus (GPa) = 13.28718 -43.85037 -15.28159
#
# Velocity S-wave (km/s) = 2.54430 -4.62209 -2.72857
# Velocity P-wave (km/s) = 5.50650 0.71299 3.92619
#
# Compressibility (1/GPa) = 0.02246142
#
# Stress axis : x y z
#
# Youngs Moduli (GPa) = 83.25877 70.46900 132.33113
#
# Poissons Ratio (x) = -0.04431 0.61351
# Poissons Ratio (y) = -0.05236 0.21716
# Poissons Ratio (z) = 0.38600 0.11564
#
# Static dielectric constant tensor:
#      x y z
#    x 1.756910 0.000000 0.000000 
#    y 0.000000 1.762550 0.000000 
#    z 0.000000 0.000000 1.768620 
# 
# From -- ./inp_files/71058.got.cif
#   From: 2010.05.17/outbox.cif.g08.bks.cpg/sg71_36_cif.got.tgz:71058.got - 2010.06.03 16:22:01.
