data_PCOD9518388
_publ_section_title
;
Structure prediction by ZEFSAII (Michael W. Deem and Ramdas Pophale) SiO2 
 PCOD9518388
Probable space group: I M M M
;
_chemical_formula_sum "Si O2"
_cell_formula_units_Z 112
_cell_length_a 13.949020
_cell_length_b 13.733533
_cell_length_c 31.836367
_cell_angle_alpha 90.000000
_cell_angle_beta 90.000000
_cell_angle_gamma 90.000000
_cell_volume 6098.871384
_symmetry_space_group_name_H-M "I M M M"
_symmetry_group_IT_number 71
_symmetry_cell_setting 'orthorhombic'
loop_
_space_group_symop_operation_xyz
x,y,z
-x,-y,z
x,-y,-z
-x,y,-z
-x,-y,-z
x,y,-z
-x,y,z
x,-y,z
1/2+x,1/2+y,1/2+z
1/2-x,1/2-y,1/2+z
1/2+x,1/2-y,1/2-z
1/2-x,1/2+y,1/2-z
1/2-x,1/2-y,1/2-z
1/2+x,1/2+y,1/2-z
1/2-x,1/2+y,1/2+z
1/2+x,1/2-y,1/2+z
loop_
_atom_site_type_symbol
_atom_site_label
_atom_site_fract_x
_atom_site_fract_y
_atom_site_fract_z
Si Si1 0.213578 0.885005 0.047432
Si Si2 0.608999 0.382467 0.207924
Si Si3 0.605967 0.885702 0.167806
Si Si4 0.390158 0.228078 0.920658
Si Si5 0.887511 0.770487 0.121976
Si Si6 0.723644 0.615753 0.877071
Si Si7 0.808821 0.117338 0.202730
O O1 0.317104 0.833299 0.051244
O O2 0.147708 0.835336 0.082609
O O3 0.222824 0.000000 0.055819
O O4 0.176645 0.872131 0.000000
O O5 0.500000 0.348247 0.201009
O O6 0.605305 0.500000 0.210311
O O7 0.675402 0.361720 0.168137
O O8 0.650847 0.349514 0.252445
O O9 0.500000 0.871286 0.186387
O O10 0.612923 0.825843 0.124784
O O11 0.695264 0.863450 0.197609
O O12 0.614028 0.000000 0.156696
O O13 0.500000 0.230825 0.934826
O O14 0.345630 0.334173 0.911488
O O15 0.823894 0.672673 0.121012
O O16 0.860611 0.829296 0.164267
O O17 0.000000 0.752060 0.120229
O O18 0.731618 0.500000 0.881855
O O19 0.822968 0.000000 0.199150
#
# Coordination Sequence:
#
# PCOD9518388 Si02
#       7
#    16  16  16  16  16  16  16
#     4  10  21  37  58  88 123 152 177 210 260 327
#     4   9  18  32  52  79 109 142 182 229 280 332
#     4   9  16  28  48  74 106 143 179 214 261 325
#     4  10  19  33  55  83 112 146 185 222 266 322
#     4  11  23  38  56  80 107 142 189 234 279 332
#     4  10  21  38  57  77 105 143 190 241 285 326
#     4  10  18  32  53  79 111 145 182 226 275 332
#
# _framework density 18.364052999999998
#
# number of rings (size 3 to 8) (size 9 to 14) (size 15 to 20)
#    0.000    2.143    2.857    1.714    0.000    4.857 
#    0.000    2.143    0.000    9.429    0.000    8.000 
#    0.000    0.000    0.000    0.000    0.000    0.000 
#
# Total GULP energy -312596.842357 kJ/mol
# GULP energy per Si atom -5582.086471 kJ/mol
# Density = 1.832226 g / cm^3
# Si number density = 18.364053 Si / 1000 Ang^3
#
#
#
# Elastic Constant Matrix: (Units=GPa)
#
#
# Indices 1 2 3 4 5 6 
#
# 1 137.5624 33.5420 38.8029 0.0000 0.0000 0.0000
# 2 33.5420 113.3289 38.1074 0.0000 0.0000 0.0000
# 3 38.8029 38.1074 73.6953 0.0000 0.0000 0.0000
# 4 0.0000 0.0000 0.0000 17.7306 0.0000 0.0000
# 5 0.0000 0.0000 0.0000 0.0000 7.0475 0.0000
# 6 0.0000 0.0000 0.0000 0.0000 0.0000 12.8450
#
#
#
# Elastic Compliance Matrix: (Units=1/GPa)
#
#
# Indices 1 2 3 4 5 6 
#
# 1 0.008681 -0.001250 -0.003925 0.000000 0.000000 0.000000
# 2 -0.001250 0.010861 -0.004958 0.000000 0.000000 0.000000
# 3 -0.003925 -0.004958 0.018200 0.000000 0.000000 0.000000
# 4 0.000000 0.000000 0.000000 0.056400 0.000000 0.000000
# 5 0.000000 0.000000 0.000000 0.000000 0.141895 0.000000
# 6 0.000000 0.000000 0.000000 0.000000 0.000000 0.077851
#
#
# Mechanical properties :
#
#
# Convention : Reuss Voigt Hill
#
# Bulk Modulus (GPa) = 57.21881 60.61014 58.91448
# Shear Modulus (GPa) = 14.70682 21.80024 18.25353
#
# Velocity S-wave (km/s) = 2.83300 3.44919 3.15617
# Velocity P-wave (km/s) = 6.47509 6.99564 6.74039
#
# Compressibility (1/GPa) = 0.01747677
#
# Stress axis : x y z
#
# Youngs Moduli (GPa) = 115.19138 92.07314 54.94599
#
# Poissons Ratio (x) = 0.11506 0.21565
# Poissons Ratio (y) = 0.14395 0.27243
# Poissons Ratio (z) = 0.45210 0.45651
#
# Static dielectric constant tensor:
#      x y z
#    x 1.636720 0.000000 0.000000 
#    y 0.000000 1.646110 0.000000 
#    z 0.000000 0.000000 1.612630 
# 
# From -- ./inp_files/70086.got.cif
#   From: 2010.05.17/outbox.cif.g08.bks.cpg/sg71_36_cif.got.tgz:70086.got - 2010.06.03 16:22:01.
