data_PCOD9518668
_publ_section_title
;
Structure prediction by ZEFSAII (Michael W. Deem and Ramdas Pophale) SiO2 
 PCOD9518668
Probable space group: I M M M
;
_chemical_formula_sum "Si O2"
_cell_formula_units_Z 112
_cell_length_a 7.340662
_cell_length_b 24.961091
_cell_length_c 26.651793
_cell_angle_alpha 90.000000
_cell_angle_beta 90.000000
_cell_angle_gamma 90.000000
_cell_volume 4883.432876
_symmetry_space_group_name_H-M "I M M M"
_symmetry_group_IT_number 71
_symmetry_cell_setting 'orthorhombic'
loop_
_space_group_symop_operation_xyz
x,y,z
-x,-y,z
x,-y,-z
-x,y,-z
-x,-y,-z
x,y,-z
-x,y,z
x,-y,z
1/2+x,1/2+y,1/2+z
1/2-x,1/2-y,1/2+z
1/2+x,1/2-y,1/2-z
1/2-x,1/2+y,1/2-z
1/2-x,1/2-y,1/2-z
1/2+x,1/2+y,1/2-z
1/2-x,1/2+y,1/2+z
1/2+x,1/2-y,1/2+z
loop_
_atom_site_type_symbol
_atom_site_label
_atom_site_fract_x
_atom_site_fract_y
_atom_site_fract_z
Si Si1 0.221472 0.441338 0.615560
Si Si2 0.718329 0.251095 0.190138
Si Si3 0.777775 0.258385 0.500000
Si Si4 0.777412 0.322988 0.599182
Si Si5 0.719005 0.941445 0.232438
Si Si6 0.222428 0.939684 0.590714
Si Si7 0.721697 0.364206 0.000000
Si Si8 0.788848 0.868469 0.678907
O O1 0.281701 0.500000 0.596237
O O2 0.281449 0.384765 0.593109
O O3 0.271906 0.438387 0.674412
O O4 0.000000 0.441961 0.613157
O O5 0.500000 0.250607 0.185054
O O6 0.750000 0.250000 0.250000
O O7 0.781835 0.204688 0.151883
O O8 0.790135 0.309425 0.173322
O O9 0.722022 0.288249 0.551038
O O10 0.717288 0.196873 0.500000
O O11 0.000000 0.258438 0.500000
O O12 0.000000 0.323613 0.600159
O O13 0.500000 0.940830 0.233701
O O14 0.780756 0.891551 0.265145
O O15 0.780338 0.000000 0.252171
O O16 0.277798 0.898050 0.548217
O O17 0.285334 0.914667 0.643150
O O18 0.000000 0.942144 0.590102
O O19 0.285816 0.000000 0.582371
O O20 0.500000 0.362832 0.000000
O O21 0.000000 0.862675 0.664747
#
# Coordination Sequence:
#
# PCOD9518668 Si02
#       8
#    16  16   8  16  16  16   8  16
#     4   8  14  25  41  59  79 107 144 183 220 262
#     4  10  20  32  47  68  94 125 158 193 235 281
#     4   9  16  25  39  59  84 117 151 184 226 273
#     4   9  16  27  42  61  87 116 148 187 230 275
#     4   9  17  29  45  64  87 120 158 186 215 266
#     4   9  16  25  38  57  82 111 140 175 222 268
#     4   9  15  24  37  53  77 109 145 177 208 261
#     4  10  19  29  42  64  92 117 145 186 233 272
#
# _framework density 22.934688000000001
#
# number of rings (size 3 to 8) (size 9 to 14) (size 15 to 20)
#    0.000    2.857    0.000    3.214    0.000    6.857 
#    0.000    0.357    0.000    2.143    0.000    1.000 
#    0.000    5.714    0.000    0.000    0.000   23.857 
#
# Total GULP energy -312585.879584 kJ/mol
# GULP energy per Si atom -5581.890707 kJ/mol
# Density = 2.288249 g / cm^3
# Si number density = 22.934688 Si / 1000 Ang^3
#
#
#
# Elastic Constant Matrix: (Units=GPa)
#
#
# Indices 1 2 3 4 5 6 
#
# 1 85.1849 7.8929 -0.6024 0.0000 0.0000 0.0000
# 2 7.8929 237.8903 75.5177 0.0000 0.0000 0.0000
# 3 -0.6024 75.5177 90.5869 0.0000 0.0000 0.0000
# 4 0.0000 0.0000 0.0000 38.8520 0.0000 0.0000
# 5 0.0000 0.0000 0.0000 0.0000 3.0369 0.0000
# 6 0.0000 0.0000 0.0000 0.0000 0.0000 -5.0800
#
#
#
# Elastic Compliance Matrix: (Units=1/GPa)
#
#
# Indices 1 2 3 4 5 6 
#
# 1 0.011796 -0.000566 0.000550 0.000000 0.000000 0.000000
# 2 -0.000566 0.005744 -0.004792 0.000000 0.000000 0.000000
# 3 0.000550 -0.004792 0.015038 0.000000 0.000000 0.000000
# 4 0.000000 0.000000 0.000000 0.025739 0.000000 0.000000
# 5 0.000000 0.000000 0.000000 0.000000 0.329281 0.000000
# 6 0.000000 0.000000 0.000000 0.000000 0.000000 -0.196849
#
#
# Mechanical properties :
#
#
# Convention : Reuss Voigt Hill
#
# Bulk Modulus (GPa) = 43.55135 64.36429 53.95782
# Shear Modulus (GPa) = 24.03664 29.41871 26.72767
#
# Velocity S-wave (km/s) = 3.24087 3.58539 3.41747
# Velocity P-wave (km/s) = 5.74759 6.72794 6.25699
#
# Compressibility (1/GPa) = 0.02296140
#
# Stress axis : x y z
#
# Youngs Moduli (GPa) = 84.77799 174.10761 66.50020
#
# Poissons Ratio (x) = 0.09856 -0.03660
# Poissons Ratio (y) = 0.04799 0.31866
# Poissons Ratio (z) = -0.04666 0.83431
#
# Static dielectric constant tensor:
#      x y z
#    x 2.987300 0.000000 0.000000 
#    y 0.000000 1.852440 0.000000 
#    z 0.000000 0.000000 1.837090 
# 
# From -- ./inp_files/59175.got.cif
#   From: 2010.05.17/outbox.cif.g08.bks.cpg/sg71_30_cif.got.tgz:59175.got - 2010.06.03 16:22:01.
