data_PCOD9518716
_publ_section_title
;
Structure prediction by ZEFSAII (Michael W. Deem and Ramdas Pophale) SiO2 
 PCOD9518716
Probable space group: I M M M
;
_chemical_formula_sum "Si O2"
_cell_formula_units_Z 74
_cell_length_a 17.859537
_cell_length_b 27.212983
_cell_length_c 7.363548
_cell_angle_alpha 90.000000
_cell_angle_beta 90.000000
_cell_angle_gamma 90.000000
_cell_volume 3578.767365
_symmetry_space_group_name_H-M "I M M M"
_symmetry_group_IT_number 71
_symmetry_cell_setting 'orthorhombic'
loop_
_space_group_symop_operation_xyz
x,y,z
-x,-y,z
x,-y,-z
-x,y,-z
-x,-y,-z
x,y,-z
-x,y,z
x,-y,z
1/2+x,1/2+y,1/2+z
1/2-x,1/2-y,1/2+z
1/2+x,1/2-y,1/2-z
1/2-x,1/2+y,1/2-z
1/2-x,1/2-y,1/2-z
1/2+x,1/2+y,1/2-z
1/2-x,1/2+y,1/2+z
1/2+x,1/2-y,1/2+z
loop_
_atom_site_type_symbol
_atom_site_label
_atom_site_fract_x
_atom_site_fract_y
_atom_site_fract_z
Si Si1 0.640264 0.661503 0.222153
Si Si2 0.915434 0.556350 0.221529
Si Si3 0.500000 0.601812 0.797896
Si Si4 0.500000 0.500000 0.000000
Si Si5 0.085150 0.730639 0.718871
Si Si6 0.306363 0.140025 0.287371
O O1 0.577046 0.622480 0.281926
O O2 0.613663 0.715763 0.277430
O O3 0.723612 0.649127 0.288022
O O4 0.644778 0.661534 0.000000
O O5 0.901216 0.500000 0.274986
O O6 0.854177 0.594684 0.288568
O O7 0.000000 0.570019 0.277568
O O8 0.915416 0.557294 0.000000
O O9 0.500000 0.626202 0.000000
O O10 0.500000 0.544203 0.843473
O O11 0.083550 0.730975 0.500000
O O12 0.142581 0.688404 0.774039
O O13 0.000000 0.721651 0.782005
O O14 0.296132 0.128772 0.500000
#
# Coordination Sequence:
#
# PCOD9518716 Si02
#       6
#    16  16   8   2  16  16
#     4   9  16  29  45  62  93 126 156 185 240 293
#     4   8  14  26  41  59  88 121 144 173 232 289
#     4   8  14  28  42  66  95 129 160 190 236 284
#     4   8  16  24  48  72  96 132 168 208 222 288
#     4  10  19  31  48  65  88 131 166 184 232 297
#     4  10  19  29  45  73  94 116 155 208 241 274
#
# _framework density 20.677510999999999
#
# number of rings (size 3 to 8) (size 9 to 14) (size 15 to 20)
#    0.324    2.595    1.081    1.946    0.000    1.297 
#    1.946    0.000    0.000    0.649    0.000    3.027 
#    0.000    0.000    0.000    3.892    0.000    0.000 
#
# Total GULP energy -206081.193912 kJ/mol
# GULP energy per Si atom -5569.761998 kJ/mol
# Density = 2.063045 g / cm^3
# Si number density = 20.677511 Si / 1000 Ang^3
#
#
#
# Elastic Constant Matrix: (Units=GPa)
#
#
# Indices 1 2 3 4 5 6 
#
# 1 227.7302 111.2055 0.4201 0.0000 0.0000 0.0000
# 2 111.2055 134.3241 -9.2107 0.0000 0.0000 0.0000
# 3 0.4201 -9.2107 69.7914 0.0001 0.0001 0.0000
# 4 0.0000 0.0000 0.0001 10.5254 0.0000 0.0000
# 5 0.0000 0.0000 0.0001 0.0000 -0.3133 0.0000
# 6 0.0000 0.0000 0.0000 0.0000 0.0000 21.7007
#
#
#
# Elastic Compliance Matrix: (Units=1/GPa)
#
#
# Indices 1 2 3 4 5 6 
#
# 1 0.007422 -0.006204 -0.000863 0.000000 0.000000 0.000000
# 2 -0.006204 0.012698 0.001713 0.000000 0.000000 0.000000
# 3 -0.000863 0.001713 0.014560 0.000000 0.000004 0.000000
# 4 0.000000 0.000000 0.000000 0.095008 0.000004 0.000000
# 5 0.000000 0.000000 0.000004 0.000004 -3.191996 0.000000
# 6 0.000000 0.000000 0.000000 0.000000 0.000000 0.046081
#
#
# Mechanical properties :
#
#
# Convention : Reuss Voigt Hill
#
# Bulk Modulus (GPa) = 41.71556 70.74169 56.22863
# Shear Modulus (GPa) = -1.66804 28.34463 13.33829
#
# Velocity S-wave (km/s) = -0.89914 3.70644 2.54256
# Velocity P-wave (km/s) = 4.37496 7.25280 5.98930
#
# Compressibility (1/GPa) = 0.02397187
#
# Stress axis : x y z
#
# Youngs Moduli (GPa) = 134.72843 78.74974 68.68265
#
# Poissons Ratio (x) = 0.48857 0.05930
# Poissons Ratio (y) = 0.83587 -0.11767
# Poissons Ratio (z) = 0.11633 -0.13492
#
# Static dielectric constant tensor:
#      x y z
#    x 1.742410 0.000000 0.000000 
#    y 0.000000 1.687130 0.000000 
#    z 0.000000 0.000000 1.857940 
# 
# From -- ./inp_files/22441.got.cif
#   From: 2010.05.17/outbox.cif.g08.bks.cpg/sg71_12_cif.got.tgz:22441.got - 2010.06.03 16:22:01.
