data_PCOD9518956
_publ_section_title
;
Structure prediction by ZEFSAII (Michael W. Deem and Ramdas Pophale) SiO2 
 PCOD9518956
Probable space group: I M M M
;
_chemical_formula_sum "Si O2"
_cell_formula_units_Z 104
_cell_length_a 23.629512
_cell_length_b 27.330474
_cell_length_c 7.953981
_cell_angle_alpha 90.000000
_cell_angle_beta 90.000000
_cell_angle_gamma 90.000000
_cell_volume 5136.726771
_symmetry_space_group_name_H-M "I M M M"
_symmetry_group_IT_number 71
_symmetry_cell_setting 'orthorhombic'
loop_
_space_group_symop_operation_xyz
x,y,z
-x,-y,z
x,-y,-z
-x,y,-z
-x,-y,-z
x,y,-z
-x,y,z
x,-y,z
1/2+x,1/2+y,1/2+z
1/2-x,1/2-y,1/2+z
1/2+x,1/2-y,1/2-z
1/2-x,1/2+y,1/2-z
1/2-x,1/2-y,1/2-z
1/2+x,1/2+y,1/2-z
1/2-x,1/2+y,1/2+z
1/2+x,1/2-y,1/2+z
loop_
_atom_site_type_symbol
_atom_site_label
_atom_site_fract_x
_atom_site_fract_y
_atom_site_fract_z
Si Si1 0.603399 0.299922 0.198643
Si Si2 0.566082 0.500000 0.201306
Si Si3 0.062896 0.692674 0.200914
Si Si4 0.242187 0.056068 0.202546
Si Si5 0.124772 0.900148 0.802616
Si Si6 0.330651 0.871232 0.296837
Si Si7 0.230426 0.196792 0.701958
O O1 0.576732 0.250361 0.270953
O O2 0.585949 0.356219 0.228320
O O3 0.667082 0.305815 0.268384
O O4 0.604000 0.291398 0.000000
O O5 0.500000 0.500000 0.241247
O O6 0.594707 0.451646 0.273489
O O7 0.573177 0.500000 0.000000
O O8 0.111580 0.655103 0.263916
O O9 0.000000 0.682684 0.269429
O O10 0.061313 0.686110 0.000000
O O11 0.189288 0.089700 0.267110
O O12 0.304631 0.076060 0.250252
O O13 0.234358 0.000000 0.260026
O O14 0.238163 0.056361 0.000000
O O15 0.129479 0.890619 0.000000
O O16 0.332692 0.869192 0.500000
O O17 0.279157 0.837919 0.230683
O O18 0.228137 0.190710 0.500000
O O19 0.250000 0.250000 0.750000
#
# Coordination Sequence:
#
# PCOD9518956 Si02
#       7
#    16   8  16  16  16  16  16
#     4  11  22  35  54  84 117 148 186 232 282 332
#     4  11  25  43  61  81 109 149 196 243 286 329
#     4  10  22  40  59  80 112 154 196 235 278 338
#     4  10  21  37  57  86 118 145 181 232 290 346
#     4  11  22  38  60  85 115 152 193 235 284 339
#     4  10  20  35  56  84 113 145 186 231 287 346
#     4  10  19  30  49  79 111 141 177 220 271 327
#
# _framework density 20.246357
#
# number of rings (size 3 to 8) (size 9 to 14) (size 15 to 20)
#    0.000    1.615    3.846    1.154    0.000    4.308 
#    0.000    0.000    0.000    0.462    0.000    3.231 
#    0.000    0.000    0.000    0.000    0.000    0.000 
#
# Total GULP energy -289727.846706 kJ/mol
# GULP energy per Si atom -5571.689360 kJ/mol
# Density = 2.020028 g / cm^3
# Si number density = 20.246357 Si / 1000 Ang^3
#
#
#
# Elastic Constant Matrix: (Units=GPa)
#
#
# Indices 1 2 3 4 5 6 
#
# 1 95.5360 18.7013 21.1126 0.0000 0.0000 0.0000
# 2 18.7013 64.3390 1.7738 0.0000 0.0000 0.0000
# 3 21.1126 1.7738 22.1251 0.0000 0.0000 0.0000
# 4 0.0000 0.0000 0.0000 30.2310 0.0000 0.0000
# 5 0.0000 0.0000 0.0000 0.0000 16.0474 0.0000
# 6 0.0000 0.0000 0.0000 0.0000 0.0000 16.8932
#
#
#
# Elastic Compliance Matrix: (Units=1/GPa)
#
#
# Indices 1 2 3 4 5 6 
#
# 1 0.014108 -0.003738 -0.013162 0.000000 0.000000 0.000000
# 2 -0.003738 0.016567 0.002239 0.000000 0.000000 0.000000
# 3 -0.013162 0.002239 0.057578 0.000000 0.000000 0.000000
# 4 0.000000 0.000000 0.000000 0.033079 0.000000 0.000000
# 5 0.000000 0.000000 0.000000 0.000000 0.062316 0.000000
# 6 0.000000 0.000000 0.000000 0.000000 0.000000 0.059195
#
#
# Mechanical properties :
#
#
# Convention : Reuss Voigt Hill
#
# Bulk Modulus (GPa) = 16.96931 29.46393 23.21662
# Shear Modulus (GPa) = 17.13445 21.99514 19.56480
#
# Velocity S-wave (km/s) = 2.91228 3.29960 3.11197
# Velocity P-wave (km/s) = 4.43938 5.39451 4.94008
#
# Compressibility (1/GPa) = 0.05892991
#
# Stress axis : x y z
#
# Youngs Moduli (GPa) = 70.88314 60.35941 17.36768
#
# Poissons Ratio (x) = 0.22561 0.22860
# Poissons Ratio (y) = 0.26495 -0.03888
# Poissons Ratio (z) = 0.93300 -0.13512
#
# Static dielectric constant tensor:
#      x y z
#    x 1.774900 0.000000 0.000000 
#    y 0.000000 1.837660 0.000000 
#    z 0.000000 0.000000 1.723660 
# 
# From -- ./inp_files/13306.got.cif
#   From: 2010.05.17/outbox.cif.g08.bks.cpg/sg71_7_cif.got.tgz:13306.got - 2010.06.03 16:22:01.
