data_PCOD9518670
_publ_section_title
;
Structure prediction by ZEFSAII (Michael W. Deem and Ramdas Pophale) SiO2 
 PCOD9518670
Probable space group: I M M M
;
_chemical_formula_sum "Si O2"
_cell_formula_units_Z 80
_cell_length_a 21.018524
_cell_length_b 19.806168
_cell_length_c 7.596783
_cell_angle_alpha 90.000000
_cell_angle_beta 90.000000
_cell_angle_gamma 90.000000
_cell_volume 3162.513547
_symmetry_space_group_name_H-M "I M M M"
_symmetry_group_IT_number 71
_symmetry_cell_setting 'orthorhombic'
loop_
_space_group_symop_operation_xyz
x,y,z
-x,-y,z
x,-y,-z
-x,y,-z
-x,-y,-z
x,y,-z
-x,y,z
x,-y,z
1/2+x,1/2+y,1/2+z
1/2-x,1/2-y,1/2+z
1/2+x,1/2-y,1/2-z
1/2-x,1/2+y,1/2-z
1/2-x,1/2-y,1/2-z
1/2+x,1/2+y,1/2-z
1/2-x,1/2+y,1/2+z
1/2+x,1/2-y,1/2+z
loop_
_atom_site_type_symbol
_atom_site_label
_atom_site_fract_x
_atom_site_fract_y
_atom_site_fract_z
Si Si1 0.754366 0.500000 0.210487
Si Si2 0.076246 0.572825 0.204272
Si Si3 0.395209 0.500000 0.784249
Si Si4 0.601795 0.645866 0.799134
Si Si5 0.748269 0.647656 0.293195
Si Si6 0.629046 0.784701 0.793656
O O1 0.679496 0.500000 0.263022
O O2 0.778207 0.572445 0.275114
O O3 0.757977 0.500000 0.000000
O O4 0.097666 0.500000 0.278706
O O5 0.094622 0.643992 0.284416
O O6 0.000000 0.570765 0.206643
O O7 0.097062 0.574696 0.000000
O O8 0.419660 0.426571 0.722761
O O9 0.399332 0.500000 0.000000
O O10 0.679578 0.645013 0.797592
O O11 0.591367 0.720152 0.718313
O O12 0.578059 0.645768 0.000000
O O13 0.737647 0.659571 0.500000
O O14 0.800512 0.699666 0.219458
O O15 0.637911 0.769517 0.000000
#
# Coordination Sequence:
#
# PCOD9518670 Si02
#       6
#     8  16   8  16  16  16
#     4   9  17  29  43  59  84 127 172 205 239 286
#     4   9  20  39  58  75  96 124 164 212 258 309
#     4   7  12  25  45  61  82 121 164 196 223 264
#     4   9  17  31  47  68  98 135 173 202 237 293
#     4  10  19  29  42  66 100 133 165 208 248 287
#     4  10  21  32  47  73 102 128 161 206 253 301
#
# _framework density 25.296334999999999
#
# number of rings (size 3 to 8) (size 9 to 14) (size 15 to 20)
#    0.000    2.800    0.000    3.300    1.400    3.200 
#    0.000    1.000    0.000    0.000    0.000    0.700 
#    0.000    5.600    0.000    0.000    0.000    0.000 
#
# Total GULP energy -223180.613664 kJ/mol
# GULP energy per Si atom -5579.515342 kJ/mol
# Density = 2.523876 g / cm^3
# Si number density = 25.296335 Si / 1000 Ang^3
#
#
#
# Elastic Constant Matrix: (Units=GPa)
#
#
# Indices 1 2 3 4 5 6 
#
# 1 49.2544 25.9745 1.0802 0.0000 0.0000 0.0000
# 2 25.9745 267.4869 17.1810 0.0000 0.0000 0.0000
# 3 1.0802 17.1810 72.0302 0.0000 0.0000 0.0000
# 4 0.0000 0.0000 0.0000 21.8757 0.0000 0.0000
# 5 0.0000 0.0000 0.0000 0.0000 3.7161 0.0000
# 6 0.0000 0.0000 0.0000 0.0000 0.0000 18.0943
#
#
#
# Elastic Compliance Matrix: (Units=1/GPa)
#
#
# Indices 1 2 3 4 5 6 
#
# 1 0.021401 -0.002090 0.000177 0.000000 0.000000 0.000000
# 2 -0.002090 0.004001 -0.000923 0.000000 0.000000 0.000000
# 3 0.000177 -0.000923 0.014101 0.000000 0.000000 0.000000
# 4 0.000000 0.000000 0.000000 0.045713 0.000000 0.000000
# 5 0.000000 0.000000 0.000000 0.000000 0.269102 0.000000
# 6 0.000000 0.000000 0.000000 0.000000 0.000000 0.055266
#
#
# Mechanical properties :
#
#
# Convention : Reuss Voigt Hill
#
# Bulk Modulus (GPa) = 29.55781 53.02700 41.29241
# Shear Modulus (GPa) = 11.72249 31.70627 21.71438
#
# Velocity S-wave (km/s) = 2.15502 3.54417 2.93303
# Velocity P-wave (km/s) = 4.23109 6.14459 5.27533
#
# Compressibility (1/GPa) = 0.03383200
#
# Stress axis : x y z
#
# Youngs Moduli (GPa) = 46.72726 249.95703 70.91929
#
# Poissons Ratio (x) = 0.52229 -0.01259
# Poissons Ratio (y) = 0.09764 0.06545
# Poissons Ratio (z) = -0.00829 0.23069
#
# Static dielectric constant tensor:
#      x y z
#    x 2.023280 0.000000 0.000000 
#    y 0.000000 2.137090 0.000000 
#    z 0.000000 0.000000 1.967180 
# 
# From -- ./inp_files/14756.got.cif
#   From: 2010.05.17/outbox.cif.g08.bks.cpg/sg71_8_cif.got.tgz:14756.got - 2010.06.03 16:22:01.
