data_PCOD9518490
_publ_section_title
;
Structure prediction by ZEFSAII (Michael W. Deem and Ramdas Pophale) SiO2 
 PCOD9518490
Probable space group: I M M M
;
_chemical_formula_sum "Si O2"
_cell_formula_units_Z 80
_cell_length_a 13.097174
_cell_length_b 14.457330
_cell_length_c 23.030606
_cell_angle_alpha 90.000000
_cell_angle_beta 90.000000
_cell_angle_gamma 90.000000
_cell_volume 4360.849083
_symmetry_space_group_name_H-M "I M M M"
_symmetry_group_IT_number 71
_symmetry_cell_setting 'orthorhombic'
loop_
_space_group_symop_operation_xyz
x,y,z
-x,-y,z
x,-y,-z
-x,y,-z
-x,-y,-z
x,y,-z
-x,y,z
x,-y,z
1/2+x,1/2+y,1/2+z
1/2-x,1/2-y,1/2+z
1/2+x,1/2-y,1/2-z
1/2-x,1/2+y,1/2-z
1/2-x,1/2-y,1/2-z
1/2+x,1/2+y,1/2-z
1/2-x,1/2+y,1/2+z
1/2+x,1/2-y,1/2+z
loop_
_atom_site_type_symbol
_atom_site_label
_atom_site_fract_x
_atom_site_fract_y
_atom_site_fract_z
Si Si1 0.500000 0.683123 0.562711
Si Si2 0.000000 0.109752 0.810846
Si Si3 0.334183 0.157174 0.436775
Si Si4 0.174433 0.112040 0.272038
Si Si5 0.110889 0.607528 0.192193
Si Si6 0.114651 0.888949 0.404249
O O1 0.500000 0.634580 0.500000
O O2 0.500000 0.625838 0.621103
O O3 0.399821 0.748851 0.564461
O O4 0.898359 0.146171 0.779026
O O5 0.000000 0.000000 0.799923
O O6 0.358312 0.114034 0.500000
O O7 0.367472 0.108347 0.377117
O O8 0.211310 0.162238 0.432252
O O9 0.290237 0.148183 0.276022
O O10 0.123539 0.127552 0.334994
O O11 0.182333 0.000000 0.266943
O O12 0.105017 0.500000 0.209263
O O13 0.000000 0.650876 0.202619
O O14 0.000000 0.864906 0.423780
O O15 0.128693 0.000000 0.413822
#
# Coordination Sequence:
#
# PCOD9518490 Si02
#       6
#     8   8  16  16  16  16
#     4  10  22  37  49  66  94 122 152 196 243 285
#     4  10  18  33  58  75  84 110 150 192 249 307
#     4  10  19  31  43  59  94 136 164 193 232 267
#     4   8  14  26  46  70  91 115 148 188 236 279
#     4   9  16  26  43  66  95 129 161 189 214 255
#     4   9  16  28  47  70  99 130 164 200 221 248
#
# _framework density 18.345051999999999
#
# number of rings (size 3 to 8) (size 9 to 14) (size 15 to 20)
#    0.000    2.800    2.000    1.800    0.000    2.200 
#    0.000    6.000    0.000    0.000    0.000    0.000 
#    0.000    0.000    0.000   12.200    0.000    0.000 
#
# Total GULP energy -222715.744789 kJ/mol
# GULP energy per Si atom -5567.893620 kJ/mol
# Density = 1.830330 g / cm^3
# Si number density = 18.345052 Si / 1000 Ang^3
#
#
#
# Elastic Constant Matrix: (Units=GPa)
#
#
# Indices 1 2 3 4 5 6 
#
# 1 188.2277 22.9714 48.7806 0.0000 0.0000 0.0000
# 2 22.9714 18.8279 5.5514 0.0000 0.0000 0.0000
# 3 48.7806 5.5514 92.0214 0.0000 0.0000 0.0000
# 4 0.0000 0.0000 0.0000 18.7732 0.0000 0.0000
# 5 0.0000 0.0000 0.0000 0.0000 -24.9507 0.0000
# 6 0.0000 0.0000 0.0000 0.0000 0.0000 12.3157
#
#
#
# Elastic Compliance Matrix: (Units=1/GPa)
#
#
# Indices 1 2 3 4 5 6 
#
# 1 0.007108 -0.007699 -0.003304 0.000000 0.000000 0.000000
# 2 -0.007699 0.062413 0.000316 0.000000 0.000000 0.000000
# 3 -0.003304 0.000316 0.012599 0.000000 0.000000 0.000000
# 4 0.000000 0.000000 0.000000 0.053267 0.000000 0.000000
# 5 0.000000 0.000000 0.000000 0.000000 -0.040079 0.000000
# 6 0.000000 0.000000 0.000000 0.000000 0.000000 0.081197
#
#
# Mechanical properties :
#
#
# Convention : Reuss Voigt Hill
#
# Bulk Modulus (GPa) = 16.46169 50.40931 33.43550
# Shear Modulus (GPa) = 22.92235 16.01257 19.46746
#
# Velocity S-wave (km/s) = 3.53868 2.95762 3.26111
# Velocity P-wave (km/s) = 5.06845 6.26110 5.69608
#
# Compressibility (1/GPa) = 0.06074712
#
# Stress axis : x y z
#
# Youngs Moduli (GPa) = 140.67755 16.02243 79.36946
#
# Poissons Ratio (x) = 0.12335 0.26222
# Poissons Ratio (y) = 1.08303 -0.02507
# Poissons Ratio (z) = 0.46476 -0.00506
#
# Static dielectric constant tensor:
#      x y z
#    x 1.698740 0.000000 0.000000 
#    y 0.000000 1.632750 0.000000 
#    z 0.000000 0.000000 1.640090 
# 
# From -- ./inp_files/59987.got.cif
#   From: 2010.05.17/outbox.cif.g08.bks.cpg/sg71_30_cif.got.tgz:59987.got - 2010.06.03 16:22:01.
