data_PCOD9518057
_publ_section_title
;
Structure prediction by ZEFSAII (Michael W. Deem and Ramdas Pophale) SiO2 
 PCOD9518057
Probable space group: I M M M
;
_chemical_formula_sum "Si O2"
_cell_formula_units_Z 88
_cell_length_a 23.573676
_cell_length_b 23.355110
_cell_length_c 7.407565
_cell_angle_alpha 90.000000
_cell_angle_beta 90.000000
_cell_angle_gamma 90.000000
_cell_volume 4078.351921
_symmetry_space_group_name_H-M "I M M M"
_symmetry_group_IT_number 71
_symmetry_cell_setting 'orthorhombic'
loop_
_space_group_symop_operation_xyz
x,y,z
-x,-y,z
x,-y,-z
-x,y,-z
-x,-y,-z
x,y,-z
-x,y,z
x,-y,z
1/2+x,1/2+y,1/2+z
1/2-x,1/2-y,1/2+z
1/2+x,1/2-y,1/2-z
1/2-x,1/2+y,1/2-z
1/2-x,1/2-y,1/2-z
1/2+x,1/2+y,1/2-z
1/2-x,1/2+y,1/2+z
1/2+x,1/2-y,1/2+z
loop_
_atom_site_type_symbol
_atom_site_label
_atom_site_fract_x
_atom_site_fract_y
_atom_site_fract_z
Si Si1 0.562849 0.763471 0.280922
Si Si2 0.769683 0.314477 0.798126
Si Si3 0.853788 0.835804 0.218744
Si Si4 0.619771 0.120575 0.280089
Si Si5 0.066597 0.500000 0.220790
Si Si6 0.064392 0.936077 0.219869
O O1 0.562498 0.759920 0.500000
O O2 0.500000 0.745248 0.220386
O O3 0.614413 0.722494 0.221835
O O4 0.575581 0.828996 0.233269
O O5 0.750000 0.250000 0.750000
O O6 0.709455 0.345392 0.786626
O O7 0.819753 0.352956 0.714022
O O8 0.790898 0.306522 0.000000
O O9 0.893535 0.887308 0.278443
O O10 0.850748 0.834333 0.000000
O O11 0.621455 0.116256 0.500000
O O12 0.598870 0.058105 0.219427
O O13 0.000000 0.500000 0.274098
O O14 0.066725 0.500000 0.000000
O O15 0.000000 0.924821 0.276906
O O16 0.080429 0.000000 0.276079
O O17 0.064201 0.935310 0.000000
#
# Coordination Sequence:
#
# PCOD9518057 Si02
#       6
#    16  16  16  16   8  16
#     4   9  15  24  43  71  97 121 156 202 248 293
#     4  11  21  35  52  72 100 135 168 205 250 302
#     4  10  18  30  49  74 101 131 166 208 253 300
#     4   9  17  29  45  69 100 130 162 201 247 299
#     4   9  16  28  48  74 103 131 160 205 262 306
#     4   8  14  26  46  73 102 130 165 210 253 292
#
# _framework density 21.577342999999999
#
# number of rings (size 3 to 8) (size 9 to 14) (size 15 to 20)
#    0.000    2.636    1.818    2.182    0.000    4.364 
#    1.636    0.000    0.000    2.182    0.000    1.273 
#    0.000    2.909    0.000    0.000    0.000    0.000 
#
# Total GULP energy -245361.645652 kJ/mol
# GULP energy per Si atom -5576.401038 kJ/mol
# Density = 2.152823 g / cm^3
# Si number density = 21.577343 Si / 1000 Ang^3
#
#
#
# Elastic Constant Matrix: (Units=GPa)
#
#
# Indices 1 2 3 4 5 6 
#
# 1 139.5370 86.0675 -2.7287 0.0000 0.0000 0.0000
# 2 86.0675 136.8877 2.9756 0.0000 0.0000 0.0000
# 3 -2.7287 2.9756 64.5009 0.0000 0.0000 0.0000
# 4 0.0000 0.0000 0.0000 -5.7760 0.0000 0.0000
# 5 0.0000 0.0000 0.0000 0.0000 10.5006 0.0000
# 6 0.0000 0.0000 0.0000 0.0000 0.0000 32.2951
#
#
#
# Elastic Compliance Matrix: (Units=1/GPa)
#
#
# Indices 1 2 3 4 5 6 
#
# 1 0.011752 -0.007407 0.000839 0.000000 0.000000 0.000000
# 2 -0.007407 0.011981 -0.000866 0.000000 0.000000 0.000000
# 3 0.000839 -0.000866 0.015579 0.000000 0.000000 0.000000
# 4 0.000000 0.000000 0.000000 -0.173131 0.000000 0.000000
# 5 0.000000 0.000000 0.000000 0.000000 0.095233 0.000000
# 6 0.000000 0.000000 0.000000 0.000000 0.000000 0.030964
#
#
# Mechanical properties :
#
#
# Convention : Reuss Voigt Hill
#
# Bulk Modulus (GPa) = 40.91072 57.06161 48.98617
# Shear Modulus (GPa) = 324.77892 24.37802 174.57847
#
# Velocity S-wave (km/s) = 12.28191 3.36489 9.00466
# Velocity P-wave (km/s) = 14.83672 6.44975 11.43957
#
# Compressibility (1/GPa) = 0.02444347
#
# Stress axis : x y z
#
# Youngs Moduli (GPa) = 85.09415 83.46383 64.18855
#
# Poissons Ratio (x) = 0.61822 -0.05384
# Poissons Ratio (y) = 0.63030 0.05559
# Poissons Ratio (z) = -0.07138 0.07229
#
# Static dielectric constant tensor:
#      x y z
#    x 1.795220 0.000000 0.000000 
#    y 0.000000 1.779030 0.000000 
#    z 0.000000 0.000000 1.872820 
# 
# From -- ./inp_files/10454.got.cif
#   From: 2010.05.17/outbox.cif.g08.bks.cpg/sg71_6_cif.got.tgz:10454.got - 2010.06.03 16:22:01.
