data_PCOD9518644
_publ_section_title
;
Structure prediction by ZEFSAII (Michael W. Deem and Ramdas Pophale) SiO2 
 PCOD9518644
Probable space group: I M M M
;
_chemical_formula_sum "Si O2"
_cell_formula_units_Z 80
_cell_length_a 39.692655
_cell_length_b 7.517125
_cell_length_c 15.416073
_cell_angle_alpha 90.000000
_cell_angle_beta 90.000000
_cell_angle_gamma 90.000000
_cell_volume 4599.765374
_symmetry_space_group_name_H-M "I M M M"
_symmetry_group_IT_number 71
_symmetry_cell_setting 'orthorhombic'
loop_
_space_group_symop_operation_xyz
x,y,z
-x,-y,z
x,-y,-z
-x,y,-z
-x,-y,-z
x,y,-z
-x,y,z
x,-y,z
1/2+x,1/2+y,1/2+z
1/2-x,1/2-y,1/2+z
1/2+x,1/2-y,1/2-z
1/2-x,1/2+y,1/2-z
1/2-x,1/2-y,1/2-z
1/2+x,1/2+y,1/2-z
1/2-x,1/2+y,1/2+z
1/2+x,1/2-y,1/2+z
loop_
_atom_site_type_symbol
_atom_site_label
_atom_site_fract_x
_atom_site_fract_y
_atom_site_fract_z
Si Si1 0.609698 0.285546 0.099438
Si Si2 0.326917 0.212341 0.220049
Si Si3 0.267400 0.784750 0.901970
Si Si4 0.463774 0.287892 0.895350
Si Si5 0.810853 0.291544 0.095968
O O1 0.607625 0.500000 0.095267
O O2 0.640019 0.240493 0.162849
O O3 0.572964 0.219567 0.131783
O O4 0.615645 0.223230 0.000000
O O5 0.294407 0.281209 0.167480
O O6 0.328265 0.284216 0.318050
O O7 0.322044 0.000000 0.227396
O O8 0.229346 0.721561 0.887831
O O9 0.266712 0.000000 0.899359
O O10 0.277568 0.732526 0.000000
O O11 0.500000 0.215527 0.864135
O O12 0.464261 0.500000 0.877742
O O13 0.463549 0.268404 0.000000
O O14 0.819624 0.500000 0.090586
O O15 0.817282 0.213444 0.000000
#
# Coordination Sequence:
#
# PCOD9518644 Si02
#       5
#    16  16  16  16  16
#     4   9  17  27  40  61  85 107 133 161 186 220
#     4  10  19  29  41  57  80 108 131 157 200 243
#     4   9  17  28  41  57  76  99 128 160 197 241
#     4   7  10  19  36  56  78 104 131 156 181 212
#     4   9  18  31  44  57  73  97 134 174 204 232
#
# _framework density 17.392191
#
# number of rings (size 3 to 8) (size 9 to 14) (size 15 to 20)
#    0.000    3.200    0.000    3.000    0.000    2.800 
#    0.000    2.000    0.000    0.600    0.000    2.800 
#    0.000    0.800    0.000   10.000    0.000    0.400 
#
# Total GULP energy -222778.980877 kJ/mol
# GULP energy per Si atom -5569.474522 kJ/mol
# Density = 1.735261 g / cm^3
# Si number density = 17.392191 Si / 1000 Ang^3
#
#
#
# Elastic Constant Matrix: (Units=GPa)
#
#
# Indices 1 2 3 4 5 6 
#
# 1 70.8493 -8.7507 68.1233 0.0000 0.0000 0.0000
# 2 -8.7507 43.2151 6.1823 0.0000 0.0000 0.0000
# 3 68.1233 6.1823 120.4394 0.0000 0.0000 0.0000
# 4 0.0000 0.0000 0.0000 6.4359 0.0000 0.0000
# 5 0.0000 0.0000 0.0000 0.0000 4.8713 0.0000
# 6 0.0000 0.0000 0.0000 0.0000 0.0000 -20.6400
#
#
#
# Elastic Compliance Matrix: (Units=1/GPa)
#
#
# Indices 1 2 3 4 5 6 
#
# 1 0.034698 0.009906 -0.020134 0.000000 0.000000 0.000000
# 2 0.009906 0.026140 -0.006945 0.000000 0.000000 0.000000
# 3 -0.020134 -0.006945 0.020048 0.000000 0.000000 0.000000
# 4 0.000000 0.000000 0.000000 0.155378 0.000000 0.000000
# 5 0.000000 0.000000 0.000000 0.000000 0.205285 0.000000
# 6 0.000000 0.000000 0.000000 0.000000 0.000000 -0.048450
#
#
# Mechanical properties :
#
#
# Convention : Reuss Voigt Hill
#
# Bulk Modulus (GPa) = 21.48726 40.62372 31.05549
# Shear Modulus (GPa) = 11.28779 9.39671 10.34225
#
# Velocity S-wave (km/s) = 2.55034 2.32692 2.44119
# Velocity P-wave (km/s) = 4.58843 5.53422 5.08337
#
# Compressibility (1/GPa) = 0.04653920
#
# Stress axis : x y z
#
# Youngs Moduli (GPa) = 28.82038 38.25611 49.88063
#
# Poissons Ratio (x) = -0.37898 1.00431
# Poissons Ratio (y) = -0.28551 0.34643
# Poissons Ratio (z) = 0.58028 0.26569
#
# Static dielectric constant tensor:
#      x y z
#    x 1.611350 0.000000 0.000000 
#    y 0.000000 36.580040 0.000000 
#    z 0.000000 0.000000 1.613050 
# 
# From -- ./inp_files/22159.got.cif
#   From: 2010.05.17/outbox.cif.g08.bks.cpg/sg71_12_cif.got.tgz:22159.got - 2010.06.03 16:22:01.
