data_PCOD9518749
_publ_section_title
;
Structure prediction by ZEFSAII (Michael W. Deem and Ramdas Pophale) SiO2 
 PCOD9518749
Probable space group: I M M M
;
_chemical_formula_sum "Si O2"
_cell_formula_units_Z 80
_cell_length_a 19.900873
_cell_length_b 34.420461
_cell_length_c 8.478226
_cell_angle_alpha 90.000000
_cell_angle_beta 90.000000
_cell_angle_gamma 90.000000
_cell_volume 5807.561266
_symmetry_space_group_name_H-M "I M M M"
_symmetry_group_IT_number 71
_symmetry_cell_setting 'orthorhombic'
loop_
_space_group_symop_operation_xyz
x,y,z
-x,-y,z
x,-y,-z
-x,y,-z
-x,-y,-z
x,y,-z
-x,y,z
x,-y,z
1/2+x,1/2+y,1/2+z
1/2-x,1/2-y,1/2+z
1/2+x,1/2-y,1/2-z
1/2-x,1/2+y,1/2-z
1/2-x,1/2-y,1/2-z
1/2+x,1/2+y,1/2-z
1/2-x,1/2+y,1/2+z
1/2+x,1/2-y,1/2+z
loop_
_atom_site_type_symbol
_atom_site_label
_atom_site_fract_x
_atom_site_fract_y
_atom_site_fract_z
Si Si1 0.224610 0.810440 0.311719
Si Si2 0.352031 0.768073 0.190731
Si Si3 0.422014 0.543594 0.692145
Si Si4 0.000000 0.834534 0.689493
Si Si5 0.500000 0.756623 0.191496
Si Si6 0.366219 0.623623 0.311314
O O1 0.224080 0.810626 0.500000
O O2 0.298326 0.799073 0.251666
O O3 0.175870 0.774601 0.259859
O O4 0.195279 0.850951 0.251690
O O5 0.428644 0.773578 0.245847
O O6 0.351376 0.768587 0.000000
O O7 0.421576 0.543500 0.500000
O O8 0.500000 0.550874 0.738401
O O9 0.403574 0.500000 0.744032
O O10 0.375199 0.579066 0.744373
O O11 0.933868 0.854703 0.756637
O O12 0.000000 0.837554 0.500000
O O13 0.000000 0.789067 0.730441
O O14 0.500000 0.759227 0.000000
O O15 0.363498 0.623535 0.500000
#
# Coordination Sequence:
#
# PCOD9518749 Si02
#       6
#    16  16  16   8   8  16
#     4  10  19  30  42  58  82 109 134 168 211 244
#     4   9  17  30  44  58  78 106 138 169 204 246
#     4   8  14  25  40  58  80 104 133 171 208 239
#     4  11  19  29  40  58  83 108 136 171 213 246
#     4   9  16  29  45  58  76 105 137 171 210 242
#     4  11  19  28  43  62  79 104 142 177 206 244
#
# _framework density 13.775145
#
# number of rings (size 3 to 8) (size 9 to 14) (size 15 to 20)
#    0.000    2.400    3.000    2.100    0.000    0.800 
#    0.000    0.500    0.000    3.000    0.000    0.000 
#    0.000    0.000    0.000    0.900    0.000   20.600 
#
# Total GULP energy -222888.815987 kJ/mol
# GULP energy per Si atom -5572.220400 kJ/mol
# Density = 1.374379 g / cm^3
# Si number density = 13.775145 Si / 1000 Ang^3
#
#
#
# Elastic Constant Matrix: (Units=GPa)
#
#
# Indices 1 2 3 4 5 6 
#
# 1 109.8884 63.1852 20.0225 0.0000 0.0001 -0.0003
# 2 63.1852 103.9183 14.8867 -0.0008 -0.0008 0.0014
# 3 20.0225 14.8867 14.4178 -0.0148 -0.0024 0.0072
# 4 0.0000 -0.0008 -0.0148 11.9578 -0.0011 0.0020
# 5 0.0001 -0.0008 -0.0024 -0.0011 15.4901 0.0008
# 6 -0.0003 0.0014 0.0072 0.0020 0.0008 26.1833
#
#
#
# Elastic Compliance Matrix: (Units=1/GPa)
#
#
# Indices 1 2 3 4 5 6 
#
# 1 0.016215 -0.007785 -0.014480 -0.000018 -0.000003 0.000005
# 2 -0.007785 0.015031 -0.004709 -0.000005 0.000000 0.000000
# 3 -0.014480 -0.004709 0.094329 0.000116 0.000014 -0.000026
# 4 -0.000018 -0.000005 0.000116 0.083627 0.000006 -0.000007
# 5 -0.000003 0.000000 0.000014 0.000006 0.064558 -0.000002
# 6 0.000005 0.000000 -0.000026 -0.000007 -0.000002 0.038192
#
#
# Mechanical properties :
#
#
# Convention : Reuss Voigt Hill
#
# Bulk Modulus (GPa) = 13.96102 47.15703 30.55903
# Shear Modulus (GPa) = 12.82792 19.40158 16.11475
#
# Velocity S-wave (km/s) = 3.05493 3.75700 3.42401
# Velocity P-wave (km/s) = 4.75399 7.28888 6.15338
#
# Compressibility (1/GPa) = 0.07162799
#
# Stress axis : x y z
#
# Youngs Moduli (GPa) = 61.67275 66.53014 10.60114
#
# Poissons Ratio (x) = 0.51791 0.15350
# Poissons Ratio (y) = 0.48010 0.04992
# Poissons Ratio (z) = 0.89302 0.31328
#
# Static dielectric constant tensor:
#      x y z
#    x 1.448260 0.000000 0.000000 
#    y 0.000000 1.458390 0.000000 
#    z 0.000000 0.000000 1.468620 
# 
# From -- ./inp_files/11300.got.cif
#   From: 2010.05.17/outbox.cif.g08.bks.cpg/sg71_6_cif.got.tgz:11300.got - 2010.06.03 16:22:01.
