data_PCOD9518499
_publ_section_title
;
Structure prediction by ZEFSAII (Michael W. Deem and Ramdas Pophale) SiO2 
 PCOD9518499
Probable space group: I M M M
;
_chemical_formula_sum "Si O2"
_cell_formula_units_Z 96
_cell_length_a 20.479044
_cell_length_b 12.204605
_cell_length_c 19.525032
_cell_angle_alpha 90.000000
_cell_angle_beta 90.000000
_cell_angle_gamma 90.000000
_cell_volume 4880.059999
_symmetry_space_group_name_H-M "I M M M"
_symmetry_group_IT_number 71
_symmetry_cell_setting 'orthorhombic'
loop_
_space_group_symop_operation_xyz
x,y,z
-x,-y,z
x,-y,-z
-x,y,-z
-x,-y,-z
x,y,-z
-x,y,z
x,-y,z
1/2+x,1/2+y,1/2+z
1/2-x,1/2-y,1/2+z
1/2+x,1/2-y,1/2-z
1/2-x,1/2+y,1/2-z
1/2-x,1/2-y,1/2-z
1/2+x,1/2+y,1/2-z
1/2-x,1/2+y,1/2+z
1/2+x,1/2-y,1/2+z
loop_
_atom_site_type_symbol
_atom_site_label
_atom_site_fract_x
_atom_site_fract_y
_atom_site_fract_z
Si Si1 0.340853 0.878742 0.581579
Si Si2 0.876736 0.000000 0.575390
Si Si3 0.072012 0.000000 0.284290
Si Si4 0.295069 0.724877 0.920254
Si Si5 0.658409 0.330370 0.290928
Si Si6 0.188383 0.626289 0.293010
Si Si7 0.575872 0.317659 0.579483
O O1 0.329842 0.889886 0.500000
O O2 0.279002 0.804688 0.602557
O O3 0.407955 0.811986 0.587198
O O4 0.339990 0.000000 0.612065
O O5 0.928789 0.000000 0.634472
O O6 0.832265 0.108726 0.582177
O O7 0.905527 0.000000 0.500000
O O8 0.113067 0.104503 0.261465
O O9 0.000000 0.000000 0.254075
O O10 0.322263 0.812418 0.866091
O O11 0.295245 0.762017 0.000000
O O12 0.732867 0.369515 0.283615
O O13 0.657514 0.203480 0.265929
O O14 0.625474 0.362272 0.363709
O O15 0.167265 0.500000 0.292334
O O16 0.590313 0.347555 0.500000
O O17 0.500000 0.342283 0.592509
#
# Coordination Sequence:
#
# PCOD9518499 Si02
#       7
#    16   8   8  16  16  16  16
#     4   9  16  27  48  79 112 149 190 241 303 348
#     4  10  20  37  64  97 122 148 198 256 311 359
#     4  12  24  41  65  90 124 164 202 244 302 364
#     4  10  18  33  59  89 122 154 191 247 307 366
#     4  11  23  40  59  88 122 157 203 252 310 359
#     4  11  23  38  60  89 122 157 200 253 307 372
#     4  10  21  37  56  80 116 162 208 249 290 351
#
# _framework density 19.671889
#
# number of rings (size 3 to 8) (size 9 to 14) (size 15 to 20)
#    0.000    1.667    5.000    0.500    0.000    1.500 
#    0.000    2.083    0.000    3.000    0.000    0.000 
#    0.000    2.667    0.000    0.000    0.000    0.000 
#
# Total GULP energy -267641.172968 kJ/mol
# GULP energy per Si atom -5575.857770 kJ/mol
# Density = 1.962711 g / cm^3
# Si number density = 19.671889 Si / 1000 Ang^3
#
#
#
# Elastic Constant Matrix: (Units=GPa)
#
#
# Indices 1 2 3 4 5 6 
#
# 1 67.4328 9.2361 34.1210 0.0000 0.0000 0.0000
# 2 9.2361 107.1392 30.8906 0.0000 0.0000 0.0000
# 3 34.1210 30.8906 126.8635 0.0000 0.0000 0.0000
# 4 0.0000 0.0000 0.0000 20.9028 0.0000 0.0000
# 5 0.0000 0.0000 0.0000 0.0000 25.6093 0.0000
# 6 0.0000 0.0000 0.0000 0.0000 0.0000 -6.2278
#
#
#
# Elastic Compliance Matrix: (Units=1/GPa)
#
#
# Indices 1 2 3 4 5 6 
#
# 1 0.017168 -0.000160 -0.004579 0.000000 0.000000 0.000000
# 2 -0.000160 0.010040 -0.002402 0.000000 0.000000 0.000000
# 3 -0.004579 -0.002402 0.009699 0.000000 0.000000 0.000000
# 4 0.000000 0.000000 0.000000 0.047841 0.000000 0.000000
# 5 0.000000 0.000000 0.000000 0.000000 0.039048 0.000000
# 6 0.000000 0.000000 0.000000 0.000000 0.000000 -0.160570
#
#
# Mechanical properties :
#
#
# Convention : Reuss Voigt Hill
#
# Bulk Modulus (GPa) = 44.19587 49.99232 47.09409
# Shear Modulus (GPa) = -334.41536 23.20271 -155.60633
#
# Velocity S-wave (km/s) = -13.05242 3.43809 -8.90351
# Velocity P-wave (km/s) = 14.30520 6.42097 9.03908
#
# Compressibility (1/GPa) = 0.02262655
#
# Stress axis : x y z
#
# Youngs Moduli (GPa) = 58.24705 99.60277 103.10626
#
# Poissons Ratio (x) = 0.01593 0.47208
# Poissons Ratio (y) = 0.00931 0.24763
# Poissons Ratio (z) = 0.26669 0.23921
#
# Static dielectric constant tensor:
#      x y z
#    x 1.659770 0.000000 0.000000 
#    y 0.000000 1.746540 0.000000 
#    z 0.000000 0.000000 1.761820 
# 
# From -- ./inp_files/54917.got.cif
#   From: 2010.05.17/outbox.cif.g08.bks.cpg/sg71_28_cif.got.tgz:54917.got - 2010.06.03 16:22:01.
