data_PCOD9518598
_publ_section_title
;
Structure prediction by ZEFSAII (Michael W. Deem and Ramdas Pophale) SiO2 
 PCOD9518598
Probable space group: I M M M
;
_chemical_formula_sum "Si O2"
_cell_formula_units_Z 104
_cell_length_a 33.560466
_cell_length_b 8.835356
_cell_length_c 29.065073
_cell_angle_alpha 90.000000
_cell_angle_beta 90.000000
_cell_angle_gamma 90.000000
_cell_volume 8618.336634
_symmetry_space_group_name_H-M "I M M M"
_symmetry_group_IT_number 71
_symmetry_cell_setting 'orthorhombic'
loop_
_space_group_symop_operation_xyz
x,y,z
-x,-y,z
x,-y,-z
-x,y,-z
-x,-y,-z
x,y,-z
-x,y,z
x,-y,z
1/2+x,1/2+y,1/2+z
1/2-x,1/2-y,1/2+z
1/2+x,1/2-y,1/2-z
1/2-x,1/2+y,1/2-z
1/2-x,1/2-y,1/2-z
1/2+x,1/2+y,1/2-z
1/2-x,1/2+y,1/2+z
1/2+x,1/2-y,1/2+z
loop_
_atom_site_type_symbol
_atom_site_label
_atom_site_fract_x
_atom_site_fract_y
_atom_site_fract_z
Si Si1 0.222995 0.817901 0.500000
Si Si2 0.000000 0.682017 0.445299
Si Si3 0.772813 0.326207 0.818327
Si Si4 0.730884 0.818984 0.902726
Si Si5 0.148723 0.681002 0.350831
Si Si6 0.418050 0.317716 0.910633
Si Si7 0.631624 0.317099 0.000000
Si Si8 0.687904 0.673766 0.235237
O O1 0.239497 0.754456 0.547909
O O2 0.176815 0.764948 0.500000
O O3 0.224712 0.000000 0.500000
O O4 0.961178 0.747342 0.419812
O O5 0.000000 0.500000 0.443789
O O6 0.000000 0.726975 0.500000
O O7 0.783169 0.500000 0.828194
O O8 0.762278 0.236371 0.864531
O O9 0.731201 0.327031 0.789759
O O10 0.804756 0.249079 0.784691
O O11 0.686668 0.772958 0.883398
O O12 0.731124 0.000000 0.905986
O O13 0.145719 0.500000 0.352909
O O14 0.108173 0.756858 0.368448
O O15 0.160026 0.734441 0.299609
O O16 0.420754 0.500000 0.909066
O O17 0.392053 0.269817 0.955034
O O18 0.632606 0.500000 0.000000
O O19 0.674896 0.500000 0.239397
#
# Coordination Sequence:
#
# PCOD9518598 Si02
#       8
#     8   8  16  16  16  16   8  16
#     4  11  19  29  40  54  73  96 123 152 186 221
#     4  11  23  35  45  59  75  93 117 149 187 228
#     4   9  16  26  39  54  72  94 117 143 174 211
#     4  10  19  28  38  54  74  96 120 147 180 218
#     4  10  19  29  41  58  76  93 114 145 182 221
#     4  11  20  33  47  59  72  92 119 149 184 227
#     4   9  18  28  42  57  70  88 115 149 183 221
#     4   9  16  26  40  56  73  93 115 141 173 214
#
# _framework density 12.067292999999999
#
# number of rings (size 3 to 8) (size 9 to 14) (size 15 to 20)
#    0.000    2.077    2.308    2.769    0.000    5.231 
#    0.000    0.000    0.000    0.000    0.000    0.000 
#    0.000    0.000    0.000    0.000    0.000    0.000 
#
# Total GULP energy -289841.380485 kJ/mol
# GULP energy per Si atom -5573.872702 kJ/mol
# Density = 1.203983 g / cm^3
# Si number density = 12.067293 Si / 1000 Ang^3
#
#
#
# Elastic Constant Matrix: (Units=GPa)
#
#
# Indices 1 2 3 4 5 6 
#
# 1 41.3438 21.8512 39.4196 0.0000 0.0000 0.0000
# 2 21.8512 62.2168 37.5237 0.0000 0.0000 0.0000
# 3 39.4196 37.5237 89.8162 0.0000 0.0000 0.0000
# 4 0.0000 0.0000 0.0000 21.3799 0.0000 0.0000
# 5 0.0000 0.0000 0.0000 0.0000 13.2239 0.0000
# 6 0.0000 0.0000 0.0000 0.0000 0.0000 15.1780
#
#
#
# Elastic Compliance Matrix: (Units=1/GPa)
#
#
# Indices 1 2 3 4 5 6 
#
# 1 0.042698 -0.004938 -0.016677 0.000000 0.000000 0.000000
# 2 -0.004938 0.022058 -0.007048 0.000000 0.000000 0.000000
# 3 -0.016677 -0.007048 0.021398 0.000000 0.000000 0.000000
# 4 0.000000 0.000000 0.000000 0.046773 0.000000 0.000000
# 5 0.000000 0.000000 0.000000 0.000000 0.075620 0.000000
# 6 0.000000 0.000000 0.000000 0.000000 0.000000 0.065885
#
#
# Mechanical properties :
#
#
# Convention : Reuss Voigt Hill
#
# Bulk Modulus (GPa) = 34.68883 43.44066 39.06474
# Shear Modulus (GPa) = 14.64700 16.26186 15.45443
#
# Velocity S-wave (km/s) = 3.48771 3.67495 3.58255
# Velocity P-wave (km/s) = 6.71024 7.35417 7.03957
#
# Compressibility (1/GPa) = 0.02882773
#
# Stress axis : x y z
#
# Youngs Moduli (GPa) = 23.42034 45.33507 46.73384
#
# Poissons Ratio (x) = 0.22386 0.77937
# Poissons Ratio (y) = 0.11565 0.32939
# Poissons Ratio (z) = 0.39058 0.31953
#
# Static dielectric constant tensor:
#      x y z
#    x 1.369690 0.000000 0.000000 
#    y 0.000000 1.403640 0.000000 
#    z 0.000000 0.000000 1.393660 
# 
# From -- ./inp_files/63735.got.cif
#   From: 2010.05.17/outbox.cif.g08.bks.cpg/sg71_32_cif.got.tgz:63735.got - 2010.06.03 16:22:01.
