data_PCOD9518919
_publ_section_title
;
Structure prediction by ZEFSAII (Michael W. Deem and Ramdas Pophale) SiO2 
 PCOD9518919
Probable space group: I M M M
;
_chemical_formula_sum "Si O2"
_cell_formula_units_Z 88
_cell_length_a 7.536709
_cell_length_b 18.387105
_cell_length_c 28.774424
_cell_angle_alpha 90.000000
_cell_angle_beta 90.000000
_cell_angle_gamma 90.000000
_cell_volume 3987.509603
_symmetry_space_group_name_H-M "I M M M"
_symmetry_group_IT_number 71
_symmetry_cell_setting 'orthorhombic'
loop_
_space_group_symop_operation_xyz
x,y,z
-x,-y,z
x,-y,-z
-x,y,-z
-x,-y,-z
x,y,-z
-x,y,z
x,-y,z
1/2+x,1/2+y,1/2+z
1/2-x,1/2-y,1/2+z
1/2+x,1/2-y,1/2-z
1/2-x,1/2+y,1/2-z
1/2-x,1/2-y,1/2-z
1/2+x,1/2+y,1/2-z
1/2-x,1/2+y,1/2+z
1/2+x,1/2-y,1/2+z
loop_
_atom_site_type_symbol
_atom_site_label
_atom_site_fract_x
_atom_site_fract_y
_atom_site_fract_z
Si Si1 0.782472 0.918862 0.000000
Si Si2 0.288605 0.850294 0.448677
Si Si3 0.282135 0.579644 0.253290
Si Si4 0.784327 0.189224 0.077469
Si Si5 0.286115 0.290971 0.680161
Si Si6 0.296607 0.624290 0.844098
O O1 0.724227 0.874064 0.044431
O O2 0.000000 0.919524 0.000000
O O3 0.719411 0.000000 0.000000
O O4 0.223326 0.876988 0.500000
O O5 0.500000 0.847526 0.452972
O O6 0.220794 0.767860 0.440362
O O7 0.262643 0.885824 0.397556
O O8 0.500000 0.582630 0.253673
O O9 0.234119 0.500000 0.273163
O O10 0.224084 0.652833 0.280445
O O11 0.216682 0.583228 0.200053
O O12 0.739693 0.174695 0.130479
O O13 0.000000 0.193328 0.075251
O O14 0.500000 0.284263 0.684372
O O15 0.217757 0.208719 0.673084
O O16 0.500000 0.602884 0.845553
#
# Coordination Sequence:
#
# PCOD9518919 Si02
#       6
#     8  16  16  16  16  16
#     4   9  14  18  28  52  87 117 140 177 226 268
#     4   9  16  29  50  70  93 123 156 197 242 288
#     4   9  18  32  49  70  97 129 165 206 249 290
#     4   8  13  22  36  58  86 113 144 184 228 268
#     4   9  17  30  50  70  92 126 166 204 240 285
#     4  10  19  30  48  74 101 126 158 203 248 294
#
# _framework density 22.068912000000001
#
# number of rings (size 3 to 8) (size 9 to 14) (size 15 to 20)
#    0.000    3.000    0.909    2.182    0.000    1.091 
#    0.000    4.545    0.000    5.455    0.000    3.818 
#    0.000    3.636    0.000    0.000    0.000    0.000 
#
# Total GULP energy -244978.399081 kJ/mol
# GULP energy per Si atom -5567.690888 kJ/mol
# Density = 2.201868 g / cm^3
# Si number density = 22.068912 Si / 1000 Ang^3
#
#
#
# Elastic Constant Matrix: (Units=GPa)
#
#
# Indices 1 2 3 4 5 6 
#
# 1 51.3210 -9.6808 5.8520 0.0000 0.0000 0.0000
# 2 -9.6808 27.0496 10.6045 0.0000 0.0000 0.0000
# 3 5.8520 10.6045 142.3510 0.0000 0.0000 0.0000
# 4 0.0000 0.0000 0.0000 2.1097 0.0000 0.0000
# 5 0.0000 0.0000 0.0000 0.0000 17.9458 0.0000
# 6 0.0000 0.0000 0.0000 0.0000 0.0000 0.8628
#
#
#
# Elastic Compliance Matrix: (Units=1/GPa)
#
#
# Indices 1 2 3 4 5 6 
#
# 1 0.021194 0.008165 -0.001480 0.000000 0.000000 0.000000
# 2 0.008165 0.041227 -0.003407 0.000000 0.000000 0.000000
# 3 -0.001480 -0.003407 0.007340 0.000000 0.000000 0.000000
# 4 0.000000 0.000000 0.000000 0.473999 0.000000 0.000000
# 5 0.000000 0.000000 0.000000 0.000000 0.055723 0.000000
# 6 0.000000 0.000000 0.000000 0.000000 0.000000 1.159024
#
#
# Mechanical properties :
#
#
# Convention : Reuss Voigt Hill
#
# Bulk Modulus (GPa) = 13.10303 26.03032 19.56667
# Shear Modulus (GPa) = 2.81312 18.44672 10.62992
#
# Velocity S-wave (km/s) = 1.13025 2.89428 2.19708
# Velocity P-wave (km/s) = 2.76650 4.79476 3.91428
#
# Compressibility (1/GPa) = 0.07631825
#
# Stress axis : x y z
#
# Youngs Moduli (GPa) = 47.18284 24.25594 136.24884
#
# Poissons Ratio (x) = -0.19806 0.20159
# Poissons Ratio (y) = -0.38526 0.46418
# Poissons Ratio (z) = 0.06981 0.08264
#
# Static dielectric constant tensor:
#      x y z
#    x 1.838510 0.000000 0.000000 
#    y 0.000000 1.790870 0.000000 
#    z 0.000000 0.000000 1.846990 
# 
# From -- ./inp_files/68045.got.cif
#   From: 2010.05.17/outbox.cif.g08.bks.cpg/sg71_35_cif.got.tgz:68045.got - 2010.06.03 16:22:01.
