data_PCOD9518892
_publ_section_title
;
Structure prediction by ZEFSAII (Michael W. Deem and Ramdas Pophale) SiO2 
 PCOD9518892
Probable space group: I M M M
;
_chemical_formula_sum "Si O2"
_cell_formula_units_Z 104
_cell_length_a 22.555766
_cell_length_b 30.873443
_cell_length_c 9.276344
_cell_angle_alpha 90.000000
_cell_angle_beta 90.000000
_cell_angle_gamma 90.000000
_cell_volume 6459.806223
_symmetry_space_group_name_H-M "I M M M"
_symmetry_group_IT_number 71
_symmetry_cell_setting 'orthorhombic'
loop_
_space_group_symop_operation_xyz
x,y,z
-x,-y,z
x,-y,-z
-x,y,-z
-x,-y,-z
x,y,-z
-x,y,z
x,-y,z
1/2+x,1/2+y,1/2+z
1/2-x,1/2-y,1/2+z
1/2+x,1/2-y,1/2-z
1/2-x,1/2+y,1/2-z
1/2-x,1/2-y,1/2-z
1/2+x,1/2+y,1/2-z
1/2-x,1/2+y,1/2+z
1/2+x,1/2-y,1/2+z
loop_
_atom_site_type_symbol
_atom_site_label
_atom_site_fract_x
_atom_site_fract_y
_atom_site_fract_z
Si Si1 0.884090 0.949913 0.329354
Si Si2 0.000000 0.052834 0.833560
Si Si3 0.148498 0.376015 0.173423
Si Si4 0.688644 0.703041 0.334229
Si Si5 0.832629 0.712412 0.667118
Si Si6 0.712587 0.618667 0.829985
Si Si7 0.929268 0.449687 0.672445
O O1 0.896744 0.947422 0.500000
O O2 0.940479 0.932071 0.244383
O O3 0.824303 0.924232 0.300622
O O4 0.876235 0.000000 0.290745
O O5 0.000000 0.000000 0.822283
O O6 0.000000 0.064491 0.000000
O O7 0.140681 0.328912 0.248645
O O8 0.217939 0.386451 0.203299
O O9 0.107674 0.413536 0.241522
O O10 0.140376 0.373276 0.000000
O O11 0.669905 0.702865 0.500000
O O12 0.760575 0.708606 0.332128
O O13 0.657992 0.742287 0.249022
O O14 0.681899 0.657307 0.256629
O O15 0.851466 0.712999 0.500000
O O16 0.709187 0.629156 0.000000
O O17 0.919360 0.444642 0.500000
O O18 0.914118 0.500000 0.709838
O O19 0.000000 0.444470 0.697744
#
# Coordination Sequence:
#
# PCOD9518892 Si02
#       7
#    16   8  16  16  16  16  16
#     4   9  17  30  47  65  88 122 161 194 226 272
#     4   9  17  29  45  65  87 111 147 195 235 263
#     4  10  19  30  47  73 101 125 155 197 242 285
#     4   9  16  26  42  65  93 123 156 193 231 273
#     4   9  16  27  44  65  92 125 157 189 228 277
#     4   9  18  30  44  67  99 130 158 191 236 290
#     4   9  19  36  54  70  92 126 167 206 244 292
#
# _framework density 16.099553
#
# number of rings (size 3 to 8) (size 9 to 14) (size 15 to 20)
#    0.000    2.846    0.000    2.077    0.000    7.077 
#    0.000    2.308    0.000    1.846    2.000    0.000 
#    0.000    0.000    0.000    0.000    0.000    0.000 
#
# Total GULP energy -289549.494497 kJ/mol
# GULP energy per Si atom -5568.259510 kJ/mol
# Density = 1.606291 g / cm^3
# Si number density = 16.099553 Si / 1000 Ang^3
#
#
#
# Elastic Constant Matrix: (Units=GPa)
#
#
# Indices 1 2 3 4 5 6 
#
# 1 47.5471 49.1548 45.6708 0.0000 0.0000 0.0000
# 2 49.1548 115.4016 76.6078 0.0000 0.0000 0.0000
# 3 45.6708 76.6078 81.8122 0.0000 0.0000 0.0000
# 4 0.0000 0.0000 0.0000 28.9511 0.0000 0.0000
# 5 0.0000 0.0000 0.0000 0.0000 17.3438 0.0000
# 6 0.0000 0.0000 0.0000 0.0000 0.0000 10.7537
#
#
#
# Elastic Compliance Matrix: (Units=1/GPa)
#
#
# Indices 1 2 3 4 5 6 
#
# 1 0.047355 -0.006929 -0.019947 0.000000 0.000000 0.000000
# 2 -0.006929 0.023914 -0.018525 0.000000 0.000000 0.000000
# 3 -0.019947 -0.018525 0.040705 0.000000 0.000000 0.000000
# 4 0.000000 0.000000 0.000000 0.034541 0.000000 0.000000
# 5 0.000000 0.000000 0.000000 0.000000 0.057657 0.000000
# 6 0.000000 0.000000 0.000000 0.000000 0.000000 0.092992
#
#
# Mechanical properties :
#
#
# Convention : Reuss Voigt Hill
#
# Bulk Modulus (GPa) = 47.23235 65.29197 56.26216
# Shear Modulus (GPa) = 12.65744 16.29823 14.47784
#
# Velocity S-wave (km/s) = 2.80696 3.18518 3.00204
# Velocity P-wave (km/s) = 6.31718 7.36005 6.85847
#
# Compressibility (1/GPa) = 0.02117193
#
# Stress axis : x y z
#
# Youngs Moduli (GPa) = 21.11705 41.81593 24.56695
#
# Poissons Ratio (x) = 0.28974 0.49005
# Poissons Ratio (y) = 0.14632 0.45510
# Poissons Ratio (z) = 0.42123 0.77464
#
# Static dielectric constant tensor:
#      x y z
#    x 1.513260 0.000000 0.000000 
#    y 0.000000 1.538670 0.000000 
#    z 0.000000 0.000000 1.542700 
# 
# From -- ./inp_files/13642.got.cif
#   From: 2010.05.17/outbox.cif.g08.bks.cpg/sg71_7_cif.got.tgz:13642.got - 2010.06.03 16:22:01.
