data_PCOD9518532
_publ_section_title
;
Structure prediction by ZEFSAII (Michael W. Deem and Ramdas Pophale) SiO2 
 PCOD9518532
Probable space group: I M M M
;
_chemical_formula_sum "Si O2"
_cell_formula_units_Z 88
_cell_length_a 18.623513
_cell_length_b 14.568411
_cell_length_c 16.995255
_cell_angle_alpha 90.000000
_cell_angle_beta 90.000000
_cell_angle_gamma 90.000000
_cell_volume 4611.067468
_symmetry_space_group_name_H-M "I M M M"
_symmetry_group_IT_number 71
_symmetry_cell_setting 'orthorhombic'
loop_
_space_group_symop_operation_xyz
x,y,z
-x,-y,z
x,-y,-z
-x,y,-z
-x,-y,-z
x,y,-z
-x,y,z
x,-y,z
1/2+x,1/2+y,1/2+z
1/2-x,1/2-y,1/2+z
1/2+x,1/2-y,1/2-z
1/2-x,1/2+y,1/2-z
1/2-x,1/2-y,1/2-z
1/2+x,1/2+y,1/2-z
1/2-x,1/2+y,1/2+z
1/2+x,1/2-y,1/2+z
loop_
_atom_site_type_symbol
_atom_site_label
_atom_site_fract_x
_atom_site_fract_y
_atom_site_fract_z
Si Si1 0.214464 0.402300 0.248791
Si Si2 0.085726 0.607844 0.000000
Si Si3 0.293907 0.167142 0.914480
Si Si4 0.613179 0.396801 0.745881
Si Si5 0.354737 0.758709 0.635315
Si Si6 0.420241 0.316929 0.087235
O O1 0.192608 0.500000 0.213752
O O2 0.196219 0.397492 0.340380
O O3 0.300293 0.394076 0.243687
O O4 0.177184 0.319115 0.205898
O O5 0.109967 0.669713 0.074807
O O6 0.112015 0.500000 0.000000
O O7 0.000000 0.603072 0.000000
O O8 0.214678 0.211661 0.905183
O O9 0.354978 0.245268 0.909072
O O10 0.299221 0.123265 0.000000
O O11 0.593047 0.500000 0.721496
O O12 0.598292 0.320390 0.678655
O O13 0.584030 0.375931 0.833148
O O14 0.500000 0.273290 0.088197
O O15 0.413921 0.363144 0.000000
#
# Coordination Sequence:
#
# PCOD9518532 Si02
#       6
#    16   8  16  16  16  16
#     4  10  19  33  57  88 113 142 190 240 283 334
#     4  11  26  44  63  89 114 142 189 242 293 347
#     4  10  18  34  58  81 113 149 188 228 279 339
#     4  10  20  35  57  85 117 151 191 234 280 339
#     4  11  19  39  61  84 112 149 190 238 288 335
#     4  10  20  34  53  80 116 154 189 231 280 331
#
# _framework density 19.084517999999999
#
# number of rings (size 3 to 8) (size 9 to 14) (size 15 to 20)
#    0.000    1.727    4.545    1.636    0.000    1.818 
#    0.000    1.364    0.000    1.091    0.000    2.545 
#    0.000    0.000    0.000    0.000    0.000    0.000 
#
# Total GULP energy -245100.030035 kJ/mol
# GULP energy per Si atom -5570.455228 kJ/mol
# Density = 1.904108 g / cm^3
# Si number density = 19.084518 Si / 1000 Ang^3
#
#
#
# Elastic Constant Matrix: (Units=GPa)
#
#
# Indices 1 2 3 4 5 6 
#
# 1 48.2107 14.9434 23.1918 0.0000 0.0000 0.0000
# 2 14.9434 108.0554 46.5513 0.0000 0.0000 0.0000
# 3 23.1918 46.5513 128.2589 0.0000 0.0000 0.0000
# 4 0.0000 0.0000 0.0000 14.9643 0.0000 0.0000
# 5 0.0000 0.0000 0.0000 0.0000 47.6099 0.0000
# 6 0.0000 0.0000 0.0000 0.0000 0.0000 3.5776
#
#
#
# Elastic Compliance Matrix: (Units=1/GPa)
#
#
# Indices 1 2 3 4 5 6 
#
# 1 0.022962 -0.001644 -0.003555 0.000000 0.000000 0.000000
# 2 -0.001644 0.011087 -0.003727 0.000000 0.000000 0.000000
# 3 -0.003555 -0.003727 0.009792 0.000000 0.000000 0.000000
# 4 0.000000 0.000000 0.000000 0.066826 0.000000 0.000000
# 5 0.000000 0.000000 0.000000 0.000000 0.021004 0.000000
# 6 0.000000 0.000000 0.000000 0.000000 0.000000 0.279518
#
#
# Mechanical properties :
#
#
# Convention : Reuss Voigt Hill
#
# Bulk Modulus (GPa) = 38.47695 50.43311 44.45503
# Shear Modulus (GPa) = 11.42322 26.55294 18.98808
#
# Velocity S-wave (km/s) = 2.44920 3.73411 3.15770
# Velocity P-wave (km/s) = 5.31067 6.71379 6.05302
#
# Compressibility (1/GPa) = 0.02598959
#
# Stress axis : x y z
#
# Youngs Moduli (GPa) = 43.54994 90.19218 102.12101
#
# Poissons Ratio (x) = 0.14826 0.36308
# Poissons Ratio (y) = 0.07159 0.38060
# Poissons Ratio (z) = 0.15484 0.33614
#
# Static dielectric constant tensor:
#      x y z
#    x 1.650150 0.000000 0.000000 
#    y 0.000000 1.672810 0.000000 
#    z 0.000000 0.000000 1.693750 
# 
# From -- ./inp_files/36352.got.cif
#   From: 2010.05.17/outbox.cif.g08.bks.cpg/sg71_19_cif.got.tgz:36352.got - 2010.06.03 16:22:01.
