data_PCOD9518346
_publ_section_title
;
Structure prediction by ZEFSAII (Michael W. Deem and Ramdas Pophale) SiO2 
 PCOD9518346
Probable space group: I M M M
;
_chemical_formula_sum "Si O2"
_cell_formula_units_Z 72
_cell_length_a 28.753456
_cell_length_b 8.609765
_cell_length_c 19.671271
_cell_angle_alpha 90.000000
_cell_angle_beta 90.000000
_cell_angle_gamma 90.000000
_cell_volume 4869.829667
_symmetry_space_group_name_H-M "I M M M"
_symmetry_group_IT_number 71
_symmetry_cell_setting 'orthorhombic'
loop_
_space_group_symop_operation_xyz
x,y,z
-x,-y,z
x,-y,-z
-x,y,-z
-x,-y,-z
x,y,-z
-x,y,z
x,-y,z
1/2+x,1/2+y,1/2+z
1/2-x,1/2-y,1/2+z
1/2+x,1/2-y,1/2-z
1/2-x,1/2+y,1/2-z
1/2-x,1/2-y,1/2-z
1/2+x,1/2+y,1/2-z
1/2-x,1/2+y,1/2+z
1/2+x,1/2-y,1/2+z
loop_
_atom_site_type_symbol
_atom_site_label
_atom_site_fract_x
_atom_site_fract_y
_atom_site_fract_z
Si Si1 0.403650 0.312520 0.130830
Si Si2 0.343870 0.311764 0.000000
Si Si3 0.229841 0.814123 0.144160
Si Si4 0.000000 0.685505 0.420571
Si Si5 0.737136 0.186153 0.500000
Si Si6 0.820106 0.812475 0.718745
O O1 0.407956 0.500000 0.130821
O O2 0.372366 0.264897 0.066152
O O3 0.454159 0.242916 0.118471
O O4 0.371725 0.266444 0.195032
O O5 0.290984 0.257376 0.000000
O O6 0.342001 0.500000 0.000000
O O7 0.194959 0.767467 0.205197
O O8 0.280468 0.753199 0.168389
O O9 0.231196 0.000000 0.140766
O O10 0.216806 0.746946 0.070848
O O11 0.000000 0.500000 0.422923
O O12 0.000000 0.742406 0.500000
O O13 0.736435 0.000000 0.500000
O O14 0.817423 0.000000 0.713532
#
# Coordination Sequence:
#
# PCOD9518346 Si02
#       6
#    16   8  16   8   8  16
#     4  10  18  32  49  62  81 119 160 188 219 265
#     4   9  16  26  44  63  82 114 156 190 213 250
#     4  10  19  29  44  68  93 117 149 189 230 268
#     4  11  23  33  41  63  93 116 145 194 239 261
#     4  11  19  31  46  64  91 123 158 190 222 267
#     4   9  18  32  47  64  89 120 153 187 225 272
#
# _framework density 14.784912
#
# number of rings (size 3 to 8) (size 9 to 14) (size 15 to 20)
#    0.000    2.111    3.333    1.333    0.000    2.222 
#    0.000    0.000    0.000    0.000    0.000    0.000 
#    0.000    0.889    0.000   10.222    0.000    4.000 
#
# Total GULP energy -200681.710812 kJ/mol
# GULP energy per Si atom -5574.491967 kJ/mol
# Density = 1.475126 g / cm^3
# Si number density = 14.784912 Si / 1000 Ang^3
#
#
#
# Elastic Constant Matrix: (Units=GPa)
#
#
# Indices 1 2 3 4 5 6 
#
# 1 99.7317 22.9597 53.9347 0.0000 0.0000 0.0000
# 2 22.9597 20.6143 29.5142 0.0000 0.0000 0.0000
# 3 53.9347 29.5142 119.6389 0.0000 0.0000 0.0000
# 4 0.0000 0.0000 0.0000 20.3823 0.0000 0.0000
# 5 0.0000 0.0000 0.0000 0.0000 21.7554 0.0000
# 6 0.0000 0.0000 0.0000 0.0000 0.0000 16.8453
#
#
#
# Elastic Compliance Matrix: (Units=1/GPa)
#
#
# Indices 1 2 3 4 5 6 
#
# 1 0.014614 -0.010582 -0.003978 0.000000 0.000000 0.000000
# 2 -0.010582 0.082662 -0.015622 0.000000 0.000000 0.000000
# 3 -0.003978 -0.015622 0.014006 0.000000 0.000000 0.000000
# 4 0.000000 0.000000 0.000000 0.049062 0.000000 0.000000
# 5 0.000000 0.000000 0.000000 0.000000 0.045966 0.000000
# 6 0.000000 0.000000 0.000000 0.000000 0.000000 0.059364
#
#
# Mechanical properties :
#
#
# Convention : Reuss Voigt Hill
#
# Bulk Modulus (GPa) = 19.63900 50.31134 34.97517
# Shear Modulus (GPa) = 14.57685 20.70167 17.63926
#
# Velocity S-wave (km/s) = 3.14335 3.74597 3.45781
# Velocity P-wave (km/s) = 5.14648 7.26722 6.29677
#
# Compressibility (1/GPa) = 0.05091909
#
# Stress axis : x y z
#
# Youngs Moduli (GPa) = 68.42677 12.09741 71.40015
#
# Poissons Ratio (x) = 0.12801 0.28401
# Poissons Ratio (y) = 0.72408 1.11541
# Poissons Ratio (z) = 0.27219 0.18899
#
# Static dielectric constant tensor:
#      x y z
#    x 1.477600 0.000000 0.000000 
#    y 0.000000 1.502140 0.000000 
#    z 0.000000 0.000000 1.510820 
# 
# From -- ./inp_files/8201.got.cif
#   From: 2010.05.17/outbox.cif.g08.bks.cpg/sg71_5_cif.got.tgz:8201.got - 2010.06.03 16:22:01.
