data_PCOD9518450
_publ_section_title
;
Structure prediction by ZEFSAII (Michael W. Deem and Ramdas Pophale) SiO2 
 PCOD9518450
Probable space group: I M M M
;
_chemical_formula_sum "Si O2"
_cell_formula_units_Z 80
_cell_length_a 16.127441
_cell_length_b 12.595402
_cell_length_c 23.896038
_cell_angle_alpha 90.000000
_cell_angle_beta 90.000000
_cell_angle_gamma 90.000000
_cell_volume 4854.040495
_symmetry_space_group_name_H-M "I M M M"
_symmetry_group_IT_number 71
_symmetry_cell_setting 'orthorhombic'
loop_
_space_group_symop_operation_xyz
x,y,z
-x,-y,z
x,-y,-z
-x,y,-z
-x,-y,-z
x,y,-z
-x,y,z
x,-y,z
1/2+x,1/2+y,1/2+z
1/2-x,1/2-y,1/2+z
1/2+x,1/2-y,1/2-z
1/2-x,1/2+y,1/2-z
1/2-x,1/2-y,1/2-z
1/2+x,1/2+y,1/2-z
1/2-x,1/2+y,1/2+z
1/2+x,1/2-y,1/2+z
loop_
_atom_site_type_symbol
_atom_site_label
_atom_site_fract_x
_atom_site_fract_y
_atom_site_fract_z
Si Si1 0.599977 0.500000 0.179317
Si Si2 0.214824 0.700237 0.886188
Si Si3 0.671853 0.725623 0.209507
Si Si4 0.198959 0.000000 0.563617
Si Si5 0.905434 0.878959 0.932630
Si Si6 0.593329 0.120537 0.288969
O O1 0.500000 0.500000 0.182106
O O2 0.638794 0.604984 0.208126
O O3 0.632264 0.500000 0.114594
O O4 0.294327 0.746170 0.852812
O O5 0.245837 0.605845 0.926153
O O6 0.160642 0.793271 0.912668
O O7 0.157257 0.647850 0.838176
O O8 0.750000 0.750000 0.250000
O O9 0.604151 0.802175 0.236290
O O10 0.166656 0.000000 0.500000
O O11 0.000000 0.853538 0.914113
O O12 0.886917 0.000000 0.914005
O O13 0.905919 0.879251 0.000000
O O14 0.500000 0.129201 0.311044
O O15 0.608716 0.000000 0.270916
#
# Coordination Sequence:
#
# PCOD9518450 Si02
#       6
#     8  16  16   8  16  16
#     4  10  20  37  56  77 107 138 175 216 260 313
#     4  10  18  33  49  70  97 129 165 206 253 305
#     4   9  20  32  52  72 100 131 168 208 253 300
#     4  10  20  33  53  78 102 131 169 213 260 307
#     4   9  18  32  48  67  94 128 165 207 255 304
#     4  10  19  32  49  69  99 132 166 205 251 306
#
# _framework density 16.481114000000002
#
# number of rings (size 3 to 8) (size 9 to 14) (size 15 to 20)
#    0.000    2.400    1.000    2.400    4.200    1.000 
#    5.400    0.000    0.000    2.400    0.000    0.000 
#    0.000    0.000    0.000   37.200    0.400    0.000 
#
# Total GULP energy -222693.457073 kJ/mol
# GULP energy per Si atom -5567.336427 kJ/mol
# Density = 1.644360 g / cm^3
# Si number density = 16.481114 Si / 1000 Ang^3
#
#
#
# Elastic Constant Matrix: (Units=GPa)
#
#
# Indices 1 2 3 4 5 6 
#
# 1 71.0457 41.3603 14.2087 0.0000 0.0000 0.0000
# 2 41.3603 108.8141 39.8213 0.0000 0.0000 0.0000
# 3 14.2087 39.8213 53.0801 0.0000 0.0000 0.0000
# 4 0.0000 0.0000 0.0000 28.2172 0.0000 0.0000
# 5 0.0000 0.0000 0.0000 0.0000 23.3914 0.0000
# 6 0.0000 0.0000 0.0000 0.0000 0.0000 28.5347
#
#
#
# Elastic Compliance Matrix: (Units=1/GPa)
#
#
# Indices 1 2 3 4 5 6 
#
# 1 0.018082 -0.007033 0.000435 0.000000 0.000000 0.000000
# 2 -0.007033 0.015403 -0.009673 0.000000 0.000000 0.000000
# 3 0.000435 -0.009673 0.025980 0.000000 0.000000 0.000000
# 4 0.000000 0.000000 0.000000 0.035439 0.000000 0.000000
# 5 0.000000 0.000000 0.000000 0.000000 0.042751 0.000000
# 6 0.000000 0.000000 0.000000 0.000000 0.000000 0.035045
#
#
# Mechanical properties :
#
#
# Convention : Reuss Voigt Hill
#
# Bulk Modulus (GPa) = 37.14017 47.08008 42.11012
# Shear Modulus (GPa) = 23.34101 25.19863 24.26982
#
# Velocity S-wave (km/s) = 3.76736 3.91441 3.84159
# Velocity P-wave (km/s) = 6.44267 7.00416 6.72927
#
# Compressibility (1/GPa) = 0.02692503
#
# Stress axis : x y z
#
# Youngs Moduli (GPa) = 55.30231 64.92266 38.49163
#
# Poissons Ratio (x) = 0.45657 -0.01676
# Poissons Ratio (y) = 0.38891 0.37233
# Poissons Ratio (z) = -0.02408 0.62800
#
# Static dielectric constant tensor:
#      x y z
#    x 1.572870 0.000000 0.000000 
#    y 0.000000 1.558220 0.000000 
#    z 0.000000 0.000000 1.552020 
# 
# From -- ./inp_files/43493.got.cif
#   From: 2010.05.17/outbox.cif.g08.bks.cpg/sg71_22_cif.got.tgz:43493.got - 2010.06.03 16:22:01.
