data_PCOD9518613
_publ_section_title
;
Structure prediction by ZEFSAII (Michael W. Deem and Ramdas Pophale) SiO2 
 PCOD9518613
Probable space group: I M M M
;
_chemical_formula_sum "Si O2"
_cell_formula_units_Z 96
_cell_length_a 26.989436
_cell_length_b 29.422878
_cell_length_c 8.929429
_cell_angle_alpha 90.000000
_cell_angle_beta 90.000000
_cell_angle_gamma 90.000000
_cell_volume 7090.921028
_symmetry_space_group_name_H-M "I M M M"
_symmetry_group_IT_number 71
_symmetry_cell_setting 'orthorhombic'
loop_
_space_group_symop_operation_xyz
x,y,z
-x,-y,z
x,-y,-z
-x,y,-z
-x,-y,-z
x,y,-z
-x,y,z
x,-y,z
1/2+x,1/2+y,1/2+z
1/2-x,1/2-y,1/2+z
1/2+x,1/2-y,1/2-z
1/2-x,1/2+y,1/2-z
1/2-x,1/2-y,1/2-z
1/2+x,1/2+y,1/2-z
1/2-x,1/2+y,1/2+z
1/2+x,1/2-y,1/2+z
loop_
_atom_site_type_symbol
_atom_site_label
_atom_site_fract_x
_atom_site_fract_y
_atom_site_fract_z
Si Si1 0.144947 0.802471 0.178904
Si Si2 0.943378 0.141117 0.321678
Si Si3 0.402524 0.551930 0.321311
Si Si4 0.706038 0.551612 0.176938
Si Si5 0.701946 0.225611 0.179622
Si Si6 0.256206 0.637974 0.321597
O O1 0.096442 0.826190 0.244095
O O2 0.156512 0.753496 0.251599
O O3 0.192363 0.835090 0.213173
O O4 0.142300 0.798495 0.000000
O O5 0.935420 0.141326 0.500000
O O6 0.934019 0.090473 0.259328
O O7 0.000000 0.154579 0.290641
O O8 0.403866 0.558725 0.500000
O O9 0.418312 0.500000 0.288798
O O10 0.346013 0.556645 0.264123
O O11 0.723842 0.500000 0.203029
O O12 0.742054 0.590851 0.234621
O O13 0.696658 0.556959 0.000000
O O14 0.750000 0.250000 0.250000
O O15 0.711378 0.172553 0.214275
O O16 0.702752 0.230557 0.000000
O O17 0.256044 0.629815 0.500000
#
# Coordination Sequence:
#
# PCOD9518613 Si02
#       6
#    16  16  16  16  16  16
#     4  10  19  31  46  63  82 104 132 167 209 253
#     4  11  23  35  47  62  79 103 135 173 217 259
#     4  10  20  33  47  60  76 101 134 173 216 259
#     4  10  19  28  41  61  83 109 139 170 206 245
#     4   9  17  28  43  63  85 106 131 163 202 246
#     4   9  17  28  43  63  83 106 134 164 202 246
#
# _framework density 13.538437999999999
#
# number of rings (size 3 to 8) (size 9 to 14) (size 15 to 20)
#    0.000    2.167    1.667    3.500    0.000    7.000 
#    0.000    1.667    0.000    0.000    0.000    0.000 
#    0.000    0.000    0.000    0.000    0.000    0.833 
#
# Total GULP energy -267597.591287 kJ/mol
# GULP energy per Si atom -5574.949818 kJ/mol
# Density = 1.350762 g / cm^3
# Si number density = 13.538438 Si / 1000 Ang^3
#
#
#
# Elastic Constant Matrix: (Units=GPa)
#
#
# Indices 1 2 3 4 5 6 
#
# 1 49.6373 46.3153 31.9150 0.0000 0.0000 0.0000
# 2 46.3153 82.0219 44.5220 0.0000 0.0000 0.0000
# 3 31.9150 44.5220 50.9102 0.0000 0.0000 0.0000
# 4 0.0000 0.0000 0.0000 25.6639 0.0000 0.0000
# 5 0.0000 0.0000 0.0000 0.0000 16.3925 0.0000
# 6 0.0000 0.0000 0.0000 0.0000 0.0000 17.9716
#
#
#
# Elastic Compliance Matrix: (Units=1/GPa)
#
#
# Indices 1 2 3 4 5 6 
#
# 1 0.045938 -0.019623 -0.011637 0.000000 0.000000 0.000000
# 2 -0.019623 0.031591 -0.015326 0.000000 0.000000 0.000000
# 3 -0.011637 -0.015326 0.040340 0.000000 0.000000 0.000000
# 4 0.000000 0.000000 0.000000 0.038965 0.000000 0.000000
# 5 0.000000 0.000000 0.000000 0.000000 0.061004 0.000000
# 6 0.000000 0.000000 0.000000 0.000000 0.000000 0.055643
#
#
# Mechanical properties :
#
#
# Convention : Reuss Voigt Hill
#
# Bulk Modulus (GPa) = 40.48975 47.56377 44.02676
# Shear Modulus (GPa) = 13.33732 15.99339 14.66536
#
# Velocity S-wave (km/s) = 3.14211 3.44078 3.29483
# Velocity P-wave (km/s) = 6.56780 7.14101 6.86039
#
# Compressibility (1/GPa) = 0.02469761
#
# Stress axis : x y z
#
# Youngs Moduli (GPa) = 21.76826 31.65418 24.78899
#
# Poissons Ratio (x) = 0.62116 0.28848
# Poissons Ratio (y) = 0.42716 0.37991
# Poissons Ratio (z) = 0.25333 0.48512
#
# Static dielectric constant tensor:
#      x y z
#    x 1.423700 0.000000 0.000000 
#    y 0.000000 1.468680 0.000000 
#    z 0.000000 0.000000 1.448030 
# 
# From -- ./inp_files/13149.got.cif
#   From: 2010.05.17/outbox.cif.g08.bks.cpg/sg71_7_cif.got.tgz:13149.got - 2010.06.03 16:22:01.
