data_PCOD9518054
_publ_section_title
;
Structure prediction by ZEFSAII (Michael W. Deem and Ramdas Pophale) SiO2 
 PCOD9518054
Probable space group: I M M M
;
_chemical_formula_sum "Si O2"
_cell_formula_units_Z 104
_cell_length_a 29.234968
_cell_length_b 23.878308
_cell_length_c 7.703870
_cell_angle_alpha 90.000000
_cell_angle_beta 90.000000
_cell_angle_gamma 90.000000
_cell_volume 5377.929667
_symmetry_space_group_name_H-M "I M M M"
_symmetry_group_IT_number 71
_symmetry_cell_setting 'orthorhombic'
loop_
_space_group_symop_operation_xyz
x,y,z
-x,-y,z
x,-y,-z
-x,y,-z
-x,-y,-z
x,y,-z
-x,y,z
x,-y,z
1/2+x,1/2+y,1/2+z
1/2-x,1/2-y,1/2+z
1/2+x,1/2-y,1/2-z
1/2-x,1/2+y,1/2-z
1/2-x,1/2-y,1/2-z
1/2+x,1/2+y,1/2-z
1/2-x,1/2+y,1/2+z
1/2+x,1/2-y,1/2+z
loop_
_atom_site_type_symbol
_atom_site_label
_atom_site_fract_x
_atom_site_fract_y
_atom_site_fract_z
Si Si1 0.206289 0.807724 0.710595
Si Si2 0.947230 0.939423 0.712010
Si Si3 0.945524 0.500000 0.212619
Si Si4 0.194068 0.320543 0.701425
Si Si5 0.897000 0.615374 0.793304
Si Si6 0.448497 0.774892 0.708746
Si Si7 0.108475 0.835000 0.291292
O O1 0.209537 0.805623 0.500000
O O2 0.197026 0.743449 0.774275
O O3 0.252704 0.836047 0.776314
O O4 0.160619 0.838787 0.765926
O O5 0.946528 0.938083 0.500000
O O6 0.920570 0.886234 0.778768
O O7 0.000000 0.935938 0.763501
O O8 0.928733 0.000000 0.765042
O O9 0.917293 0.444201 0.270201
O O10 0.000000 0.500000 0.263438
O O11 0.945895 0.500000 0.000000
O O12 0.182773 0.314304 0.500000
O O13 0.155688 0.363620 0.768685
O O14 0.927520 0.666968 0.724338
O O15 0.903364 0.613029 0.000000
O O16 0.450601 0.779098 0.500000
O O17 0.500000 0.764803 0.773472
O O18 0.415091 0.723803 0.749337
O O19 0.109015 0.838331 0.500000
#
# Coordination Sequence:
#
# PCOD9518054 Si02
#       7
#    16  16   8  16  16  16  16
#     4   9  18  31  48  73 102 129 163 203 246 298
#     4   8  14  25  43  68  96 125 157 192 232 278
#     4   9  18  34  57  81 103 135 181 223 260 313
#     4  10  19  32  51  74 100 130 163 202 252 307
#     4  10  19  33  54  76 101 133 170 213 258 304
#     4  10  20  31  45  71 105 134 160 197 248 302
#     4  10  18  30  49  73  98 127 163 205 248 290
#
# _framework density 19.338296
#
# number of rings (size 3 to 8) (size 9 to 14) (size 15 to 20)
#    0.000    2.538    1.538    1.846    0.000    4.000 
#    0.000    0.385    1.692    2.308    0.000    2.154 
#    0.000    0.000    0.000    0.000    0.000    0.000 
#
# Total GULP energy -289686.289510 kJ/mol
# GULP energy per Si atom -5570.890183 kJ/mol
# Density = 1.929428 g / cm^3
# Si number density = 19.338296 Si / 1000 Ang^3
#
#
#
# Elastic Constant Matrix: (Units=GPa)
#
#
# Indices 1 2 3 4 5 6 
#
# 1 135.0343 54.4658 -3.2219 0.0000 0.0000 0.0000
# 2 54.4658 104.6112 -1.9800 0.0000 0.0000 0.0000
# 3 -3.2219 -1.9800 27.7122 0.0000 0.0000 0.0000
# 4 0.0000 0.0000 0.0000 13.7790 0.0000 0.0000
# 5 0.0000 0.0000 0.0000 0.0000 11.6841 0.0000
# 6 0.0000 0.0000 0.0000 0.0000 0.0000 13.6250
#
#
#
# Elastic Compliance Matrix: (Units=1/GPa)
#
#
# Indices 1 2 3 4 5 6 
#
# 1 0.009389 -0.004875 0.000743 0.000000 0.000000 0.000000
# 2 -0.004875 0.012103 0.000298 0.000000 0.000000 0.000000
# 3 0.000743 0.000298 0.036193 0.000000 0.000000 0.000000
# 4 0.000000 0.000000 0.000000 0.072574 0.000000 0.000000
# 5 0.000000 0.000000 0.000000 0.000000 0.085586 0.000000
# 6 0.000000 0.000000 0.000000 0.000000 0.000000 0.073395
#
#
# Mechanical properties :
#
#
# Convention : Reuss Voigt Hill
#
# Bulk Modulus (GPa) = 19.99251 40.65395 30.32323
# Shear Modulus (GPa) = 15.94493 22.35721 19.15107
#
# Velocity S-wave (km/s) = 2.87457 3.40385 3.15035
# Velocity P-wave (km/s) = 4.62367 6.04288 5.38027
#
# Compressibility (1/GPa) = 0.05001872
#
# Stress axis : x y z
#
# Youngs Moduli (GPa) = 106.50327 82.62582 27.62975
#
# Poissons Ratio (x) = 0.40276 -0.02054
# Poissons Ratio (y) = 0.51915 -0.00823
# Poissons Ratio (z) = -0.07917 -0.02462
#
# Static dielectric constant tensor:
#      x y z
#    x 1.699720 0.000000 0.000000 
#    y 0.000000 1.675660 0.000000 
#    z 0.000000 0.000000 1.730110 
# 
# From -- ./inp_files/17230.got.cif
#   From: 2010.05.17/outbox.cif.g08.bks.cpg/sg71_9_cif.got.tgz:17230.got - 2010.06.03 16:22:01.
