data_PCOD9518996
_publ_section_title
;
Structure prediction by ZEFSAII (Michael W. Deem and Ramdas Pophale) SiO2 
 PCOD9518996
Probable space group: I M M M
;
_chemical_formula_sum "Si O2"
_cell_formula_units_Z 96
_cell_length_a 20.789283
_cell_length_b 10.461637
_cell_length_c 28.818611
_cell_angle_alpha 90.000000
_cell_angle_beta 90.000000
_cell_angle_gamma 90.000000
_cell_volume 6267.757754
_symmetry_space_group_name_H-M "I M M M"
_symmetry_group_IT_number 71
_symmetry_cell_setting 'orthorhombic'
loop_
_space_group_symop_operation_xyz
x,y,z
-x,-y,z
x,-y,-z
-x,y,-z
-x,-y,-z
x,y,-z
-x,y,z
x,-y,z
1/2+x,1/2+y,1/2+z
1/2-x,1/2-y,1/2+z
1/2+x,1/2-y,1/2-z
1/2-x,1/2+y,1/2-z
1/2-x,1/2-y,1/2-z
1/2+x,1/2+y,1/2-z
1/2-x,1/2+y,1/2+z
1/2+x,1/2-y,1/2+z
loop_
_atom_site_type_symbol
_atom_site_label
_atom_site_fract_x
_atom_site_fract_y
_atom_site_fract_z
Si Si1 0.786999 0.142943 0.554541
Si Si2 0.401395 0.860527 0.853147
Si Si3 0.570748 0.739872 0.947293
Si Si4 0.928930 0.146732 0.279211
Si Si5 0.251248 0.144410 0.125395
Si Si6 0.202013 0.151030 0.224778
O O1 0.773089 0.159641 0.500000
O O2 0.864838 0.156608 0.559264
O O3 0.753058 0.250115 0.585439
O O4 0.768701 0.000000 0.568943
O O5 0.424465 0.841315 0.905936
O O6 0.424732 0.745402 0.821443
O O7 0.324016 0.855330 0.854491
O O8 0.421107 0.000000 0.835698
O O9 0.500000 0.676662 0.943636
O O10 0.574946 0.792205 0.000000
O O11 0.869373 0.170030 0.245007
O O12 0.000000 0.158821 0.257570
O O13 0.922671 0.000000 0.296149
O O14 0.206599 0.172135 0.169536
O O15 0.238694 0.000000 0.108160
O O16 0.250000 0.250000 0.250000
O O17 0.219515 0.000000 0.232672
#
# Coordination Sequence:
#
# PCOD9518996 Si02
#       6
#    16  16  16  16  16  16
#     4   9  18  31  46  65  88 114 146 186 230 272
#     4  10  19  31  46  64  86 114 153 197 235 272
#     4   9  18  30  41  56  82 115 151 192 235 275
#     4  10  21  34  48  68  94 123 152 187 234 281
#     4   9  18  31  47  67  89 116 152 189 227 270
#     4  10  19  33  51  70  93 121 157 195 230 275
#
# _framework density 15.316482000000001
#
# number of rings (size 3 to 8) (size 9 to 14) (size 15 to 20)
#    0.000    2.500    1.667    0.500    0.000    5.667 
#    0.000    5.833    0.000    0.000    0.000    0.000 
#    0.000    0.667    0.000    8.333    0.000    1.500 
#
# Total GULP energy -267263.905423 kJ/mol
# GULP energy per Si atom -5567.998030 kJ/mol
# Density = 1.528162 g / cm^3
# Si number density = 15.316482 Si / 1000 Ang^3
#
#
#
# Elastic Constant Matrix: (Units=GPa)
#
#
# Indices 1 2 3 4 5 6 
#
# 1 58.8855 40.7238 38.9784 0.0000 0.0000 0.0000
# 2 40.7238 115.2807 68.8445 0.0000 0.0000 0.0000
# 3 38.9784 68.8445 81.1653 0.0000 0.0000 0.0000
# 4 0.0000 0.0000 0.0000 20.2926 0.0000 0.0000
# 5 0.0000 0.0000 0.0000 0.0000 12.7661 0.0000
# 6 0.0000 0.0000 0.0000 0.0000 0.0000 9.3213
#
#
#
# Elastic Compliance Matrix: (Units=1/GPa)
#
#
# Indices 1 2 3 4 5 6 
#
# 1 0.025553 -0.003442 -0.009352 0.000000 0.000000 0.000000
# 2 -0.003442 0.018042 -0.013651 0.000000 0.000000 0.000000
# 3 -0.009352 -0.013651 0.028390 0.000000 0.000000 0.000000
# 4 0.000000 0.000000 0.000000 0.049279 0.000000 0.000000
# 5 0.000000 0.000000 0.000000 0.000000 0.078333 0.000000
# 6 0.000000 0.000000 0.000000 0.000000 0.000000 0.107281
#
#
# Mechanical properties :
#
#
# Convention : Reuss Voigt Hill
#
# Bulk Modulus (GPa) = 52.36585 61.38054 56.87319
# Shear Modulus (GPa) = 13.65625 15.59498 14.62562
#
# Velocity S-wave (km/s) = 2.98921 3.19436 3.09349
# Velocity P-wave (km/s) = 6.79539 7.33260 7.06910
#
# Compressibility (1/GPa) = 0.01909642
#
# Stress axis : x y z
#
# Youngs Moduli (GPa) = 39.13462 55.42499 35.22339
#
# Poissons Ratio (x) = 0.19076 0.32941
# Poissons Ratio (y) = 0.13469 0.48082
# Poissons Ratio (z) = 0.36599 0.75659
#
# Static dielectric constant tensor:
#      x y z
#    x 1.518050 0.000000 0.000000 
#    y 0.000000 1.529960 0.000000 
#    z 0.000000 0.000000 1.501810 
# 
# From -- ./inp_files/66952.got.cif
#   From: 2010.05.17/outbox.cif.g08.bks.cpg/sg71_34_cif.got.tgz:66952.got - 2010.06.03 16:22:01.
