data_PCOD9518392
_publ_section_title
;
Structure prediction by ZEFSAII (Michael W. Deem and Ramdas Pophale) SiO2 
 PCOD9518392
Probable space group: I M M M
;
_chemical_formula_sum "Si O2"
_cell_formula_units_Z 74
_cell_length_a 7.572028
_cell_length_b 29.335887
_cell_length_c 15.690786
_cell_angle_alpha 90.000000
_cell_angle_beta 90.000000
_cell_angle_gamma 90.000000
_cell_volume 3485.428151
_symmetry_space_group_name_H-M "I M M M"
_symmetry_group_IT_number 71
_symmetry_cell_setting 'orthorhombic'
loop_
_space_group_symop_operation_xyz
x,y,z
-x,-y,z
x,-y,-z
-x,y,-z
-x,-y,-z
x,y,-z
-x,y,z
x,-y,z
1/2+x,1/2+y,1/2+z
1/2-x,1/2-y,1/2+z
1/2+x,1/2-y,1/2-z
1/2-x,1/2+y,1/2-z
1/2-x,1/2-y,1/2-z
1/2+x,1/2+y,1/2-z
1/2-x,1/2+y,1/2+z
1/2+x,1/2-y,1/2+z
loop_
_atom_site_type_symbol
_atom_site_label
_atom_site_fract_x
_atom_site_fract_y
_atom_site_fract_z
Si Si1 0.711191 0.744172 0.150210
Si Si2 0.000000 0.000000 0.000000
Si Si3 0.283671 0.355939 0.904063
Si Si4 0.285580 0.842447 0.906469
Si Si5 0.795586 0.911588 0.242521
Si Si6 0.691467 0.000000 0.856308
O O1 0.500000 0.743248 0.138424
O O2 0.750000 0.750000 0.250000
O O3 0.777290 0.695606 0.116926
O O4 0.773618 0.790091 0.104244
O O5 0.153816 0.000000 0.925120
O O6 0.500000 0.355339 0.900549
O O7 0.223912 0.390001 0.829877
O O8 0.232565 0.368361 0.000000
O O9 0.500000 0.843494 0.901862
O O10 0.215001 0.872414 0.829494
O O11 0.233339 0.860019 0.000000
O O12 0.705495 0.955597 0.203239
O O13 0.000000 0.923518 0.256679
O O14 0.500000 0.000000 0.898439
#
# Coordination Sequence:
#
# PCOD9518392 Si02
#       6
#    16   2  16  16  16   8
#     4  10  18  32  53  81 118 159 208 261 320 385
#     4  12  26  52  76 110 130 168 222 260 316 414
#     4   9  18  34  60  88 119 167 222 273 329 385
#     4  10  21  34  53  82 118 161 206 253 317 387
#     4  11  22  40  62  91 126 162 214 272 322 392
#     4  12  27  47  72  99 138 174 208 268 332 390
#
# _framework density 21.231249999999999
#
# number of rings (size 3 to 8) (size 9 to 14) (size 15 to 20)
#    0.000    1.730    3.243    1.459    1.514    3.027 
#    0.000    0.541    0.000   10.378    0.000    0.000 
#    0.000    0.000    0.000    0.000    0.000    0.000 
#
# Total GULP energy -206566.433370 kJ/mol
# GULP energy per Si atom -5582.876578 kJ/mol
# Density = 2.118293 g / cm^3
# Si number density = 21.231250 Si / 1000 Ang^3
#
#
#
# Elastic Constant Matrix: (Units=GPa)
#
#
# Indices 1 2 3 4 5 6 
#
# 1 86.8458 24.5991 15.7754 0.0000 0.0000 0.0000
# 2 24.5991 119.6539 68.4975 0.0000 0.0000 0.0000
# 3 15.7754 68.4975 184.9939 0.0000 0.0000 0.0000
# 4 0.0000 0.0000 0.0000 -7.8365 0.0000 0.0000
# 5 0.0000 0.0000 0.0000 0.0000 2.9807 0.0000
# 6 0.0000 0.0000 0.0000 0.0000 0.0000 26.9991
#
#
#
# Elastic Compliance Matrix: (Units=1/GPa)
#
#
# Indices 1 2 3 4 5 6 
#
# 1 0.012230 -0.002433 -0.000142 0.000000 0.000000 0.000000
# 2 -0.002433 0.011089 -0.003899 0.000000 0.000000 0.000000
# 3 -0.000142 -0.003899 0.006861 0.000000 0.000000 0.000000
# 4 0.000000 0.000000 0.000000 -0.127609 0.000000 0.000000
# 5 0.000000 0.000000 0.000000 0.000000 0.335494 0.000000
# 6 0.000000 0.000000 0.000000 0.000000 0.000000 0.037038
#
#
# Mechanical properties :
#
#
# Convention : Reuss Voigt Hill
#
# Bulk Modulus (GPa) = 58.02782 67.69308 62.86045
# Shear Modulus (GPa) = 17.01865 23.27011 20.14438
#
# Velocity S-wave (km/s) = 2.83430 3.31423 3.08361
# Velocity P-wave (km/s) = 6.17265 6.82630 6.50769
#
# Compressibility (1/GPa) = 0.01723311
#
# Stress axis : x y z
#
# Youngs Moduli (GPa) = 81.76885 90.17615 145.74658
#
# Poissons Ratio (x) = 0.21939 0.02070
# Poissons Ratio (y) = 0.19894 0.56821
# Poissons Ratio (z) = 0.01162 0.35156
#
# Static dielectric constant tensor:
#      x y z
#    x 1.812660 0.000000 0.000000 
#    y 0.000000 1.749880 0.000000 
#    z 0.000000 0.000000 1.731470 
# 
# From -- ./inp_files/31510.got.cif
#   From: 2010.05.17/outbox.cif.g08.bks.cpg/sg71_16_cif.got.tgz:31510.got - 2010.06.03 16:22:01.
