data_PCOD9518393
_publ_section_title
;
Structure prediction by ZEFSAII (Michael W. Deem and Ramdas Pophale) SiO2 
 PCOD9518393
Probable space group: I M M M
;
_chemical_formula_sum "Si O2"
_cell_formula_units_Z 92
_cell_length_a 23.159577
_cell_length_b 13.006037
_cell_length_c 19.330498
_cell_angle_alpha 90.000000
_cell_angle_beta 90.000000
_cell_angle_gamma 90.000000
_cell_volume 5822.622721
_symmetry_space_group_name_H-M "I M M M"
_symmetry_group_IT_number 71
_symmetry_cell_setting 'orthorhombic'
loop_
_space_group_symop_operation_xyz
x,y,z
-x,-y,z
x,-y,-z
-x,y,-z
-x,-y,-z
x,y,-z
-x,y,z
x,-y,z
1/2+x,1/2+y,1/2+z
1/2-x,1/2-y,1/2+z
1/2+x,1/2-y,1/2-z
1/2-x,1/2+y,1/2-z
1/2-x,1/2-y,1/2-z
1/2+x,1/2+y,1/2-z
1/2-x,1/2+y,1/2+z
1/2+x,1/2-y,1/2+z
loop_
_atom_site_type_symbol
_atom_site_label
_atom_site_fract_x
_atom_site_fract_y
_atom_site_fract_z
Si Si1 0.435698 0.000000 0.616237
Si Si2 0.184810 0.378792 0.257239
Si Si3 0.935746 0.802603 0.000000
Si Si4 0.338942 0.000000 0.500000
Si Si5 0.937244 0.679049 0.229722
Si Si6 0.910949 0.114767 0.151002
Si Si7 0.192658 0.720826 0.000000
Si Si8 0.714614 0.298336 0.350991
O O1 0.382373 0.000000 0.564967
O O2 0.432447 0.899738 0.665019
O O3 0.500000 0.000000 0.584077
O O4 0.186936 0.500000 0.241602
O O5 0.119094 0.345978 0.274380
O O6 0.229777 0.350480 0.317287
O O7 0.201773 0.306654 0.191946
O O8 0.929968 0.865871 0.928614
O O9 0.877937 0.733333 0.000000
O O10 0.000000 0.753281 0.000000
O O11 0.299560 0.900187 0.500000
O O12 0.934701 0.793276 0.198171
O O13 0.000000 0.661379 0.262299
O O14 0.841821 0.129957 0.155793
O O15 0.927390 0.000000 0.171822
O O16 0.217824 0.771218 0.931372
#
# Coordination Sequence:
#
# PCOD9518393 Si02
#       8
#     8  16   8   4  16  16   8  16
#     4  10  19  30  42  66 102 131 168 206 235 279
#     4  10  18  32  54  70  93 128 167 203 251 304
#     4  10  19  30  41  58  89 131 170 199 227 273
#     4  12  19  26  46  68  92 142 167 192 242 286
#     4  10  20  31  46  69  96 124 160 209 248 292
#     4  10  19  30  43  62  92 128 167 203 239 279
#     4  10  22  33  47  69 101 127 168 212 247 296
#     4   9  20  34  48  72  96 127 166 212 248 290
#
# _framework density 15.80044
#
# number of rings (size 3 to 8) (size 9 to 14) (size 15 to 20)
#    0.000    2.087    0.870    4.565    1.217    3.826 
#    0.000    1.304    0.000    0.000    0.000    0.609 
#    0.000    1.391    0.000    0.783    0.000    0.000 
#
# Total GULP energy -256564.920513 kJ/mol
# GULP energy per Si atom -5577.498272 kJ/mol
# Density = 1.576448 g / cm^3
# Si number density = 15.800440 Si / 1000 Ang^3
#
#
#
# Elastic Constant Matrix: (Units=GPa)
#
#
# Indices 1 2 3 4 5 6 
#
# 1 113.9336 16.5477 37.9225 0.0000 0.0000 0.0000
# 2 16.5477 110.8426 11.4591 0.0000 0.0000 0.0000
# 3 37.9225 11.4591 50.9992 0.0000 0.0000 0.0000
# 4 0.0000 0.0000 0.0000 2.3943 0.0000 0.0000
# 5 0.0000 0.0000 0.0000 0.0000 -36.8531 0.0000
# 6 0.0000 0.0000 0.0000 0.0000 0.0000 4.1842
#
#
#
# Elastic Compliance Matrix: (Units=1/GPa)
#
#
# Indices 1 2 3 4 5 6 
#
# 1 0.011745 -0.000871 -0.008538 0.000000 0.000000 0.000000
# 2 -0.000871 0.009301 -0.001442 0.000000 0.000000 0.000000
# 3 -0.008538 -0.001442 0.026281 0.000000 0.000000 0.000000
# 4 0.000000 0.000000 0.000000 0.417658 0.000000 0.000000
# 5 0.000000 0.000000 0.000000 0.000000 -0.027135 0.000000
# 6 0.000000 0.000000 0.000000 0.000000 0.000000 0.238993
#
#
# Mechanical properties :
#
#
# Convention : Reuss Voigt Hill
#
# Bulk Modulus (GPa) = 39.02444 45.29267 42.15855
# Shear Modulus (GPa) = 7.07126 7.93482 7.50304
#
# Velocity S-wave (km/s) = 2.11780 2.24339 2.18150
# Velocity P-wave (km/s) = 5.54365 5.95299 5.75196
#
# Compressibility (1/GPa) = 0.02562497
#
# Stress axis : x y z
#
# Youngs Moduli (GPa) = 85.13968 107.51630 38.05014
#
# Poissons Ratio (x) = 0.09362 0.32488
# Poissons Ratio (y) = 0.07414 0.05488
# Poissons Ratio (z) = 0.72693 0.15507
#
# Static dielectric constant tensor:
#      x y z
#    x 1.558040 0.000000 0.000000 
#    y 0.000000 1.546850 0.000000 
#    z 0.000000 0.000000 1.499120 
# 
# From -- ./inp_files/48121.got.cif
#   From: 2010.05.17/outbox.cif.g08.bks.cpg/sg71_25_cif.got.tgz:48121.got - 2010.06.03 16:22:01.
