data_PCOD9518738
_publ_section_title
;
Structure prediction by ZEFSAII (Michael W. Deem and Ramdas Pophale) SiO2 
 PCOD9518738
Probable space group: I M M M
;
_chemical_formula_sum "Si O2"
_cell_formula_units_Z 116
_cell_length_a 7.346636
_cell_length_b 31.825100
_cell_length_c 19.864796
_cell_angle_alpha 90.000000
_cell_angle_beta 90.000000
_cell_angle_gamma 90.000000
_cell_volume 4644.536808
_symmetry_space_group_name_H-M "I M M M"
_symmetry_group_IT_number 71
_symmetry_cell_setting 'orthorhombic'
loop_
_space_group_symop_operation_xyz
x,y,z
-x,-y,z
x,-y,-z
-x,y,-z
-x,-y,-z
x,y,-z
-x,y,z
x,-y,z
1/2+x,1/2+y,1/2+z
1/2-x,1/2-y,1/2+z
1/2+x,1/2-y,1/2-z
1/2-x,1/2+y,1/2-z
1/2-x,1/2-y,1/2-z
1/2+x,1/2+y,1/2-z
1/2-x,1/2+y,1/2+z
1/2+x,1/2-y,1/2+z
loop_
_atom_site_type_symbol
_atom_site_label
_atom_site_fract_x
_atom_site_fract_y
_atom_site_fract_z
Si Si1 0.708922 0.902912 0.926566
Si Si2 0.279980 0.308801 0.395268
Si Si3 0.722287 0.043799 0.420543
Si Si4 0.209674 0.282219 0.109344
Si Si5 0.293305 0.869796 0.579138
Si Si6 0.781708 0.827055 0.257179
Si Si7 0.210588 0.923109 0.771854
Si Si8 0.500000 0.000000 0.751151
O O1 0.500000 0.917118 0.924727
O O2 0.713230 0.851976 0.926657
O O3 0.787761 0.916891 0.854369
O O4 0.785618 0.916406 0.000000
O O5 0.500000 0.309522 0.402409
O O6 0.214902 0.262255 0.414098
O O7 0.233836 0.311892 0.316779
O O8 0.767239 0.041562 0.500000
O O9 0.500000 0.044908 0.416190
O O10 0.791334 0.087641 0.392919
O O11 0.781201 0.000000 0.389406
O O12 0.299111 0.325267 0.085187
O O13 0.208513 0.293575 0.188788
O O14 0.000000 0.281840 0.085188
O O15 0.310035 0.877510 0.500000
O O16 0.500000 0.866088 0.606223
O O17 0.729391 0.876832 0.257668
O O18 0.000000 0.826758 0.263880
O O19 0.000000 0.930335 0.753378
O O20 0.341730 0.961858 0.753610
#
# Coordination Sequence:
#
# PCOD9518738 Si02
#       8
#    16  16  16  16  16  16  16   4
#     4  10  20  36  58  85 118 158 205 252 303 363
#     4   9  19  33  49  76 105 143 191 237 292 358
#     4   7   9  15  30  49  72 107 147 185 230 288
#     4  10  19  29  49  76 105 139 185 238 297 354
#     4   8  14  24  37  59  93 129 166 214 274 339
#     4   9  19  35  54  75 105 142 187 236 290 354
#     4  10  22  40  63  92 122 161 206 246 305 369
#     4  12  22  40  69  96 124 162 203 262 306 358
#
# _framework density 24.975580000000001
#
# number of rings (size 3 to 8) (size 9 to 14) (size 15 to 20)
#    0.000    2.897    0.690    3.103    0.966    2.759 
#    0.000    2.069    1.517    1.241    0.000    0.000 
#    0.000    0.000    0.000    3.448    0.000    3.724 
#
# Total GULP energy -322910.643429 kJ/mol
# GULP energy per Si atom -5567.424887 kJ/mol
# Density = 2.491873 g / cm^3
# Si number density = 24.975580 Si / 1000 Ang^3
#
#
#
# Elastic Constant Matrix: (Units=GPa)
#
#
# Indices 1 2 3 4 5 6 
#
# 1 124.2527 30.9974 0.1344 0.0000 0.0000 0.0000
# 2 30.9974 157.7190 -13.8045 0.0000 0.0000 0.0000
# 3 0.1344 -13.8045 87.3138 0.0000 0.0000 0.0000
# 4 0.0000 0.0000 0.0000 18.5383 0.0000 0.0000
# 5 0.0000 0.0000 0.0000 0.0000 -0.3739 0.0000
# 6 0.0000 0.0000 0.0000 0.0000 0.0000 4.2623
#
#
#
# Elastic Compliance Matrix: (Units=1/GPa)
#
#
# Indices 1 2 3 4 5 6 
#
# 1 0.008470 -0.001689 -0.000280 0.000000 0.000000 0.000000
# 2 -0.001689 0.006766 0.001072 0.000000 0.000000 0.000000
# 3 -0.000280 0.001072 0.011623 0.000000 0.000000 0.000000
# 4 0.000000 0.000000 0.000000 0.053942 0.000000 0.000000
# 5 0.000000 0.000000 0.000000 0.000000 -2.674357 -0.000001
# 6 0.000000 0.000000 0.000000 0.000000 -0.000001 0.234614
#
#
# Mechanical properties :
#
#
# Convention : Reuss Voigt Hill
#
# Bulk Modulus (GPa) = 39.89596 44.88224 42.38910
# Shear Modulus (GPa) = -2.12875 27.94922 12.91024
#
# Velocity S-wave (km/s) = -0.92422 3.34887 2.27604
# Velocity P-wave (km/s) = 3.85613 5.74131 4.89042
#
# Compressibility (1/GPa) = 0.02506520
#
# Stress axis : x y z
#
# Youngs Moduli (GPa) = 118.06649 147.79296 86.03694
#
# Poissons Ratio (x) = 0.24964 0.02410
# Poissons Ratio (y) = 0.19943 -0.09226
# Poissons Ratio (z) = 0.03307 -0.15849
#
# Static dielectric constant tensor:
#      x y z
#    x 2.017760 0.000000 0.000000 
#    y 0.000000 2.015320 0.000000 
#    z 0.000000 0.000000 2.113990 
# 
# From -- ./inp_files/58290.got.cif
#   From: 2010.05.17/outbox.cif.g08.bks.cpg/sg71_30_cif.got.tgz:58290.got - 2010.06.03 16:22:01.
