data_PCOD9518151
_publ_section_title
;
Structure prediction by ZEFSAII (Michael W. Deem and Ramdas Pophale) SiO2 
 PCOD9518151
Probable space group: I M M M
;
_chemical_formula_sum "Si O2"
_cell_formula_units_Z 96
_cell_length_a 17.916645
_cell_length_b 17.506888
_cell_length_c 17.684914
_cell_angle_alpha 90.000000
_cell_angle_beta 90.000000
_cell_angle_gamma 90.000000
_cell_volume 5547.133197
_symmetry_space_group_name_H-M "I M M M"
_symmetry_group_IT_number 71
_symmetry_cell_setting 'orthorhombic'
loop_
_space_group_symop_operation_xyz
x,y,z
-x,-y,z
x,-y,-z
-x,y,-z
-x,-y,-z
x,y,-z
-x,y,z
x,-y,z
1/2+x,1/2+y,1/2+z
1/2-x,1/2-y,1/2+z
1/2+x,1/2-y,1/2-z
1/2-x,1/2+y,1/2-z
1/2-x,1/2-y,1/2-z
1/2+x,1/2+y,1/2-z
1/2-x,1/2+y,1/2+z
1/2+x,1/2-y,1/2+z
loop_
_atom_site_type_symbol
_atom_site_label
_atom_site_fract_x
_atom_site_fract_y
_atom_site_fract_z
Si Si1 0.410532 0.293888 0.126958
Si Si2 0.584835 0.500000 0.591865
Si Si3 0.090837 0.912634 0.500000
Si Si4 0.588034 0.085145 0.756595
Si Si5 0.320590 0.647095 0.411263
Si Si6 0.835529 0.256224 0.776430
Si Si7 0.355735 0.872410 0.084035
O O1 0.500000 0.290072 0.126480
O O2 0.381851 0.290525 0.212937
O O3 0.378964 0.216466 0.089768
O O4 0.386808 0.365044 0.074804
O O5 0.500000 0.500000 0.619354
O O6 0.583516 0.500000 0.500000
O O7 0.629464 0.575566 0.613756
O O8 0.000000 0.913802 0.500000
O O9 0.116937 0.000000 0.500000
O O10 0.500000 0.097503 0.742970
O O11 0.634722 0.156856 0.725148
O O12 0.602916 0.087857 0.846784
O O13 0.608465 0.000000 0.729052
O O14 0.333701 0.662719 0.500000
O O15 0.339593 0.717914 0.358102
O O16 0.233422 0.624673 0.403708
O O17 0.750000 0.250000 0.750000
O O18 0.372889 0.901203 0.000000
#
# Coordination Sequence:
#
# PCOD9518151 Si02
#       7
#    16   8   8  16  16  16  16
#     4  10  19  32  53  78 110 148 184 224 272 325
#     4   9  20  38  56  80 113 144 180 230 288 332
#     4   9  18  34  54  78 113 151 183 220 271 329
#     4  10  22  37  54  80 115 151 183 224 279 334
#     4  10  21  36  59  84 111 146 184 232 285 340
#     4  11  20  36  57  82 110 145 191 231 276 333
#     4  10  18  30  54  81 109 143 181 221 268 331
#
# _framework density 17.306236999999999
#
# number of rings (size 3 to 8) (size 9 to 14) (size 15 to 20)
#    0.000    2.000    4.167    2.000    1.167    2.667 
#    1.500    0.833    0.000    0.500    0.000    1.167 
#    0.000    0.000    0.000    0.000    0.000    0.000 
#
# Total GULP energy -267648.414993 kJ/mol
# GULP energy per Si atom -5576.008646 kJ/mol
# Density = 1.726685 g / cm^3
# Si number density = 17.306237 Si / 1000 Ang^3
#
#
#
# Elastic Constant Matrix: (Units=GPa)
#
#
# Indices 1 2 3 4 5 6 
#
# 1 93.5339 53.9584 21.5339 0.0000 0.0000 0.0000
# 2 53.9584 140.9622 39.6157 0.0000 0.0000 0.0000
# 3 21.5339 39.6157 62.8624 0.0000 0.0000 0.0000
# 4 0.0000 0.0000 0.0000 15.2843 0.0000 0.0000
# 5 0.0000 0.0000 0.0000 0.0000 25.1403 0.0000
# 6 0.0000 0.0000 0.0000 0.0000 0.0000 -120.9465
#
#
#
# Elastic Compliance Matrix: (Units=1/GPa)
#
#
# Indices 1 2 3 4 5 6 
#
# 1 0.013871 -0.004829 -0.001708 0.000000 0.000000 0.000000
# 2 -0.004829 0.010302 -0.004838 0.000000 0.000000 0.000000
# 3 -0.001708 -0.004838 0.019542 0.000000 0.000000 0.000000
# 4 0.000000 0.000000 0.000000 0.065427 0.000000 0.000000
# 5 0.000000 0.000000 0.000000 0.000000 0.039777 0.000000
# 6 0.000000 0.000000 0.000000 0.000000 0.000000 -0.008268
#
#
# Mechanical properties :
#
#
# Convention : Reuss Voigt Hill
#
# Bulk Modulus (GPa) = 47.70163 58.61939 53.16051
# Shear Modulus (GPa) = 29.34457 -3.95434 12.69511
#
# Velocity S-wave (km/s) = 4.12224 -1.51324 2.71136
# Velocity P-wave (km/s) = 7.09086 5.55807 6.37073
#
# Compressibility (1/GPa) = 0.02096365
#
# Stress axis : x y z
#
# Youngs Moduli (GPa) = 72.09504 97.06398 51.17225
#
# Poissons Ratio (x) = 0.46877 0.08740
# Poissons Ratio (y) = 0.34818 0.24758
# Poissons Ratio (z) = 0.12313 0.46962
#
# Static dielectric constant tensor:
#      x y z
#    x 1.586420 0.000000 0.000000 
#    y 0.000000 1.597290 0.000000 
#    z 0.000000 0.000000 1.599350 
# 
# From -- ./inp_files/54234.got.cif
#   From: 2010.05.17/outbox.cif.g08.bks.cpg/sg71_28_cif.got.tgz:54234.got - 2010.06.03 16:22:01.
