data_PCOD9518587
_publ_section_title
;
Structure prediction by ZEFSAII (Michael W. Deem and Ramdas Pophale) SiO2 
 PCOD9518587
Probable space group: I M M M
;
_chemical_formula_sum "Si O2"
_cell_formula_units_Z 96
_cell_length_a 8.496498
_cell_length_b 24.782664
_cell_length_c 23.102083
_cell_angle_alpha 90.000000
_cell_angle_beta 90.000000
_cell_angle_gamma 90.000000
_cell_volume 4864.509862
_symmetry_space_group_name_H-M "I M M M"
_symmetry_group_IT_number 71
_symmetry_cell_setting 'orthorhombic'
loop_
_space_group_symop_operation_xyz
x,y,z
-x,-y,z
x,-y,-z
-x,y,-z
-x,-y,-z
x,y,-z
-x,y,z
x,-y,z
1/2+x,1/2+y,1/2+z
1/2-x,1/2-y,1/2+z
1/2+x,1/2-y,1/2-z
1/2-x,1/2+y,1/2-z
1/2-x,1/2-y,1/2-z
1/2+x,1/2+y,1/2-z
1/2-x,1/2+y,1/2+z
1/2+x,1/2-y,1/2+z
loop_
_atom_site_type_symbol
_atom_site_label
_atom_site_fract_x
_atom_site_fract_y
_atom_site_fract_z
Si Si1 0.327147 0.000000 0.200931
Si Si2 0.691574 0.724252 0.500000
Si Si3 0.187671 0.618894 0.183690
Si Si4 0.820886 0.083514 0.877870
Si Si5 0.181602 0.818954 0.796124
Si Si6 0.813558 0.397092 0.500000
Si Si7 0.177804 0.000000 0.318024
Si Si8 0.808381 0.725545 0.124192
O O1 0.300663 0.050949 0.160867
O O2 0.192655 0.000000 0.248487
O O3 0.500000 0.000000 0.228439
O O4 0.500000 0.716866 0.500000
O O5 0.774817 0.666511 0.500000
O O6 0.734953 0.754329 0.560054
O O7 0.241356 0.645384 0.245205
O O8 0.247803 0.558784 0.168924
O O9 0.237181 0.664035 0.137038
O O10 0.000000 0.616023 0.185633
O O11 0.818527 0.144168 0.853929
O O12 0.767485 0.079545 0.943235
O O13 0.000000 0.064012 0.870213
O O14 0.249518 0.762893 0.821663
O O15 0.000000 0.810438 0.778459
O O16 0.000000 0.406282 0.500000
O O17 0.000000 0.000000 0.338559
O O18 0.000000 0.728902 0.126943
#
# Coordination Sequence:
#
# PCOD9518587 Si02
#       8
#     8   8  16  16  16   8   8  16
#     4  12  24  39  59  84 113 145 191 249 295 327
#     4  10  18  38  63  82 113 156 193 229 283 351
#     4  11  22  36  57  88 119 147 187 241 290 331
#     4  11  22  38  60  81 110 153 201 237 281 344
#     4  10  19  34  57  85 116 153 190 226 279 347
#     4  12  24  37  55  84 117 151 199 247 287 323
#     4  12  24  40  59  80 111 156 195 225 281 355
#     4   9  19  35  59  88 116 150 191 233 282 340
#
# _framework density 19.734774999999999
#
# number of rings (size 3 to 8) (size 9 to 14) (size 15 to 20)
#    0.000    1.333    3.333    3.750    0.000    1.000 
#    0.000    4.167    0.000    0.500    0.000    3.500 
#    0.000    0.000    0.000    0.000    0.000    0.000 
#
# Total GULP energy -267784.432424 kJ/mol
# GULP energy per Si atom -5578.842342 kJ/mol
# Density = 1.968986 g / cm^3
# Si number density = 19.734775 Si / 1000 Ang^3
#
#
#
# Elastic Constant Matrix: (Units=GPa)
#
#
# Indices 1 2 3 4 5 6 
#
# 1 60.1287 18.7165 -4.0854 0.0000 0.0000 0.0000
# 2 18.7165 122.4519 2.3041 0.0000 0.0000 0.0000
# 3 -4.0854 2.3041 35.0837 0.0000 0.0000 0.0000
# 4 0.0000 0.0000 0.0000 36.1437 0.0000 0.0000
# 5 0.0000 0.0000 0.0000 0.0000 17.7000 0.0000
# 6 0.0000 0.0000 0.0000 0.0000 0.0000 18.1959
#
#
#
# Elastic Compliance Matrix: (Units=1/GPa)
#
#
# Indices 1 2 3 4 5 6 
#
# 1 0.017635 -0.002737 0.002233 0.000000 0.000000 0.000000
# 2 -0.002737 0.008602 -0.000884 0.000000 0.000000 0.000000
# 3 0.002233 -0.000884 0.028821 0.000000 0.000000 0.000000
# 4 0.000000 0.000000 0.000000 0.027667 0.000000 0.000000
# 5 0.000000 0.000000 0.000000 0.000000 0.056497 0.000000
# 6 0.000000 0.000000 0.000000 0.000000 0.000000 0.054957
#
#
# Mechanical properties :
#
#
# Convention : Reuss Voigt Hill
#
# Bulk Modulus (GPa) = 19.12700 27.94829 23.53765
# Shear Modulus (GPa) = 23.32278 27.78986 25.55632
#
# Velocity S-wave (km/s) = 3.44148 3.75663 3.60250
# Velocity P-wave (km/s) = 5.05022 5.74535 5.40896
#
# Compressibility (1/GPa) = 0.05228211
#
# Stress axis : x y z
#
# Youngs Moduli (GPa) = 56.70593 116.25862 34.69647
#
# Poissons Ratio (x) = 0.31825 -0.07749
# Poissons Ratio (y) = 0.15523 0.03066
# Poissons Ratio (z) = -0.12664 0.10274
#
# Static dielectric constant tensor:
#      x y z
#    x 1.685020 0.000000 0.000000 
#    y 0.000000 1.764180 0.000000 
#    z 0.000000 0.000000 1.683920 
# 
# From -- ./inp_files/57812.got.cif
#   From: 2010.05.17/outbox.cif.g08.bks.cpg/sg71_29_cif.got.tgz:57812.got - 2010.06.03 16:22:01.
