data_PCOD9518755
_publ_section_title
;
Structure prediction by ZEFSAII (Michael W. Deem and Ramdas Pophale) SiO2 
 PCOD9518755
Probable space group: I M M M
;
_chemical_formula_sum "Si O2"
_cell_formula_units_Z 120
_cell_length_a 21.559876
_cell_length_b 31.184340
_cell_length_c 12.794091
_cell_angle_alpha 90.000000
_cell_angle_beta 90.000000
_cell_angle_gamma 90.000000
_cell_volume 8601.857644
_symmetry_space_group_name_H-M "I M M M"
_symmetry_group_IT_number 71
_symmetry_cell_setting 'orthorhombic'
loop_
_space_group_symop_operation_xyz
x,y,z
-x,-y,z
x,-y,-z
-x,y,-z
-x,-y,-z
x,y,-z
-x,y,z
x,-y,z
1/2+x,1/2+y,1/2+z
1/2-x,1/2-y,1/2+z
1/2+x,1/2-y,1/2-z
1/2-x,1/2+y,1/2-z
1/2-x,1/2-y,1/2-z
1/2+x,1/2+y,1/2-z
1/2-x,1/2+y,1/2+z
1/2+x,1/2-y,1/2+z
loop_
_atom_site_type_symbol
_atom_site_label
_atom_site_fract_x
_atom_site_fract_y
_atom_site_fract_z
Si Si1 0.823790 0.048497 0.877871
Si Si2 0.181122 0.694612 0.241889
Si Si3 0.574956 0.549875 0.000000
Si Si4 0.572903 0.237055 0.623111
Si Si5 0.572673 0.583608 0.228461
Si Si6 0.201086 0.221599 0.621687
Si Si7 0.751155 0.132960 0.122232
Si Si8 0.375468 0.674468 0.711130
O O1 0.882810 0.056751 0.804511
O O2 0.771989 0.084285 0.855062
O O3 0.801525 0.000000 0.864687
O O4 0.841468 0.054627 0.000000
O O5 0.114774 0.705050 0.192298
O O6 0.195491 0.731605 0.327021
O O7 0.231862 0.702719 0.151553
O O8 0.198106 0.650940 0.301421
O O9 0.592047 0.573774 0.108161
O O10 0.596348 0.500000 0.000000
O O11 0.500000 0.548729 0.000000
O O12 0.585531 0.231081 0.500000
O O13 0.500000 0.231068 0.641770
O O14 0.591497 0.285864 0.654241
O O15 0.500000 0.572720 0.239077
O O16 0.583768 0.632816 0.263750
O O17 0.191758 0.223470 0.500000
O O18 0.150783 0.192572 0.680067
O O19 0.814256 0.159987 0.146451
O O20 0.735244 0.137355 0.000000
#
# Coordination Sequence:
#
# PCOD9518755 Si02
#       8
#    16  16   8  16  16  16  16  16
#     4   9  18  31  46  66  89 110 137 178 227 272
#     4   9  17  27  41  62  82 106 142 174 203 252
#     4   9  18  30  42  54  70 104 152 194 229 265
#     4  10  19  30  44  61  87 119 144 173 212 253
#     4  10  19  30  43  59  82 115 155 192 223 260
#     4   9  16  25  40  58  79 106 135 175 218 246
#     4   9  16  28  46  64  84 111 141 177 218 254
#     4   9  18  28  41  61  84 109 147 185 215 251
#
# _framework density 13.950476
#
# number of rings (size 3 to 8) (size 9 to 14) (size 15 to 20)
#    0.000    2.733    0.000    2.800    0.933    1.600 
#    0.000    0.667    0.000    7.200    0.000    0.000 
#    0.000    0.533    0.000    4.800    0.000    0.000 
#
# Total GULP energy -334161.056189 kJ/mol
# GULP energy per Si atom -5569.350936 kJ/mol
# Density = 1.391872 g / cm^3
# Si number density = 13.950476 Si / 1000 Ang^3
#
#
#
# Elastic Constant Matrix: (Units=GPa)
#
#
# Indices 1 2 3 4 5 6 
#
# 1 59.1218 38.4160 39.5038 0.0000 0.0000 0.0000
# 2 38.4160 76.1247 41.1966 0.0000 0.0000 0.0000
# 3 39.5038 41.1966 82.2552 0.0000 0.0000 0.0000
# 4 0.0000 0.0000 0.0000 16.6018 0.0000 0.0000
# 5 0.0000 0.0000 0.0000 0.0000 17.1754 0.0000
# 6 0.0000 0.0000 0.0000 0.0000 0.0000 10.6923
#
#
#
# Elastic Compliance Matrix: (Units=1/GPa)
#
#
# Indices 1 2 3 4 5 6 
#
# 1 0.029503 -0.009905 -0.009208 0.000000 0.000000 0.000000
# 2 -0.009905 0.021346 -0.005934 0.000000 0.000000 0.000000
# 3 -0.009208 -0.005934 0.019552 0.000000 0.000000 0.000000
# 4 0.000000 0.000000 0.000000 0.060235 0.000000 0.000000
# 5 0.000000 0.000000 0.000000 0.000000 0.058223 0.000000
# 6 0.000000 0.000000 0.000000 0.000000 0.000000 0.093525
#
#
# Mechanical properties :
#
#
# Convention : Reuss Voigt Hill
#
# Bulk Modulus (GPa) = 49.24636 50.63717 49.94177
# Shear Modulus (GPa) = 14.73850 15.45291 15.09571
#
# Velocity S-wave (km/s) = 3.25389 3.33182 3.29309
# Velocity P-wave (km/s) = 7.03524 7.15388 7.09481
#
# Compressibility (1/GPa) = 0.02030607
#
# Stress axis : x y z
#
# Youngs Moduli (GPa) = 33.89456 46.84643 51.14689
#
# Poissons Ratio (x) = 0.46404 0.47097
# Poissons Ratio (y) = 0.33574 0.30350
# Poissons Ratio (z) = 0.31211 0.27798
#
# Static dielectric constant tensor:
#      x y z
#    x 1.444800 0.000000 0.000000 
#    y 0.000000 1.475520 0.000000 
#    z 0.000000 0.000000 1.458540 
# 
# From -- ./inp_files/28087.got.cif
#   From: 2010.05.17/outbox.cif.g08.bks.cpg/sg71_15_cif.got.tgz:28087.got - 2010.06.03 16:22:01.
