data_PCOD9518306
_publ_section_title
;
Structure prediction by ZEFSAII (Michael W. Deem and Ramdas Pophale) SiO2 
 PCOD9518306
Probable space group: I M M M
;
_chemical_formula_sum "Si O2"
_cell_formula_units_Z 90
_cell_length_a 8.123400
_cell_length_b 22.645582
_cell_length_c 24.636455
_cell_angle_alpha 90.000000
_cell_angle_beta 90.000000
_cell_angle_gamma 90.000000
_cell_volume 4532.100602
_symmetry_space_group_name_H-M "I M M M"
_symmetry_group_IT_number 71
_symmetry_cell_setting 'orthorhombic'
loop_
_space_group_symop_operation_xyz
x,y,z
-x,-y,z
x,-y,-z
-x,y,-z
-x,-y,-z
x,y,-z
-x,y,z
x,-y,z
1/2+x,1/2+y,1/2+z
1/2-x,1/2-y,1/2+z
1/2+x,1/2-y,1/2-z
1/2-x,1/2+y,1/2-z
1/2-x,1/2-y,1/2-z
1/2+x,1/2+y,1/2-z
1/2-x,1/2+y,1/2+z
1/2+x,1/2-y,1/2+z
loop_
_atom_site_type_symbol
_atom_site_label
_atom_site_fract_x
_atom_site_fract_y
_atom_site_fract_z
Si Si1 0.697947 0.844776 0.881130
Si Si2 0.190400 0.295879 0.000000
Si Si3 0.804817 0.065738 0.788988
Si Si4 0.000000 0.500000 0.000000
Si Si5 0.300522 0.838348 0.000000
Si Si6 0.188042 0.406005 0.168815
Si Si7 0.694525 0.707932 0.118043
Si Si8 0.687463 0.500000 0.913287
O O1 0.500000 0.844509 0.877605
O O2 0.763743 0.885862 0.834004
O O3 0.741050 0.866758 0.942168
O O4 0.751813 0.776038 0.877041
O O5 0.271169 0.314403 0.056561
O O6 0.212903 0.225112 0.000000
O O7 0.000000 0.313596 0.000000
O O8 0.725499 0.078884 0.730883
O O9 0.000000 0.065660 0.780608
O O10 0.752845 0.000000 0.807058
O O11 0.152504 0.500000 0.046889
O O12 0.500000 0.827287 0.000000
O O13 0.218699 0.337005 0.158177
O O14 0.295888 0.443717 0.126933
O O15 0.000000 0.420717 0.156978
O O16 0.500000 0.707138 0.127530
O O17 0.500000 0.500000 0.936525
#
# Coordination Sequence:
#
# PCOD9518306 Si02
#       8
#    16   8  16   2   8  16  16   8
#     4   9  19  37  62  92 123 160 208 259 315 386
#     4  10  18  31  53  85 119 159 203 246 298 370
#     4  11  24  41  63  88 119 164 213 261 324 388
#     4  12  26  48  68 106 132 176 234 282 326 398
#     4   8  16  34  58  84 122 162 196 243 309 375
#     4  12  24  42  66  93 123 166 220 269 320 390
#     4  10  21  38  60  88 124 164 204 257 324 382
#     4  12  25  47  71  96 135 176 223 282 335 381
#
# _framework density 19.858339999999998
#
# number of rings (size 3 to 8) (size 9 to 14) (size 15 to 20)
#    0.000    1.600    1.778    4.667    0.000    6.044 
#    1.600    2.222    0.000    2.667    0.000    0.000 
#    0.000    0.000    0.000    0.000    0.000    0.000 
#
# Total GULP energy -250924.818196 kJ/mol
# GULP energy per Si atom -5576.107071 kJ/mol
# Density = 1.981314 g / cm^3
# Si number density = 19.858340 Si / 1000 Ang^3
#
#
#
# Elastic Constant Matrix: (Units=GPa)
#
#
# Indices 1 2 3 4 5 6 
#
# 1 77.4417 22.3056 36.1167 0.0000 0.0000 0.0000
# 2 22.3056 88.9552 51.0022 0.0000 0.0000 0.0000
# 3 36.1167 51.0022 90.1039 0.0000 0.0000 0.0000
# 4 0.0000 0.0000 0.0000 -63.4252 0.0000 0.0000
# 5 0.0000 0.0000 0.0000 0.0000 22.8196 0.0000
# 6 0.0000 0.0000 0.0000 0.0000 0.0000 25.3806
#
#
#
# Elastic Compliance Matrix: (Units=1/GPa)
#
#
# Indices 1 2 3 4 5 6 
#
# 1 0.015896 -0.000493 -0.006093 0.000000 0.000000 0.000000
# 2 -0.000493 0.016658 -0.009232 0.000000 0.000000 0.000000
# 3 -0.006093 -0.009232 0.018766 0.000000 0.000000 0.000000
# 4 0.000000 0.000000 0.000000 -0.015767 0.000000 0.000000
# 5 0.000000 0.000000 0.000000 0.000000 0.043822 0.000000
# 6 0.000000 0.000000 0.000000 0.000000 0.000000 0.039400
#
#
# Mechanical properties :
#
#
# Convention : Reuss Voigt Hill
#
# Bulk Modulus (GPa) = 50.79747 52.81663 51.80705
# Shear Modulus (GPa) = 31.85272 6.76010 19.30641
#
# Velocity S-wave (km/s) = 4.00934 1.84704 3.12141
# Velocity P-wave (km/s) = 6.86065 5.58598 6.25586
#
# Compressibility (1/GPa) = 0.01968602
#
# Stress axis : x y z
#
# Youngs Moduli (GPa) = 62.90724 60.03104 53.28792
#
# Poissons Ratio (x) = 0.02958 0.32468
# Poissons Ratio (y) = 0.03099 0.49193
# Poissons Ratio (z) = 0.38329 0.55418
#
# Static dielectric constant tensor:
#      x y z
#    x 1.704740 0.000000 0.000000 
#    y 0.000000 1.717550 0.000000 
#    z 0.000000 0.000000 1.695270 
# 
# From -- ./inp_files/50624.got.cif
#   From: 2010.05.17/outbox.cif.g08.bks.cpg/sg71_26_cif.got.tgz:50624.got - 2010.06.03 16:22:01.
