data_PCOD9518377
_publ_section_title
;
Structure prediction by ZEFSAII (Michael W. Deem and Ramdas Pophale) SiO2 
 PCOD9518377
Probable space group: I M M M
;
_chemical_formula_sum "Si O2"
_cell_formula_units_Z 92
_cell_length_a 29.046351
_cell_length_b 25.636263
_cell_length_c 7.501723
_cell_angle_alpha 90.000000
_cell_angle_beta 90.000000
_cell_angle_gamma 90.000000
_cell_volume 5586.082215
_symmetry_space_group_name_H-M "I M M M"
_symmetry_group_IT_number 71
_symmetry_cell_setting 'orthorhombic'
loop_
_space_group_symop_operation_xyz
x,y,z
-x,-y,z
x,-y,-z
-x,y,-z
-x,-y,-z
x,y,-z
-x,y,z
x,-y,z
1/2+x,1/2+y,1/2+z
1/2-x,1/2-y,1/2+z
1/2+x,1/2-y,1/2-z
1/2-x,1/2+y,1/2-z
1/2-x,1/2-y,1/2-z
1/2+x,1/2+y,1/2-z
1/2-x,1/2+y,1/2+z
1/2+x,1/2-y,1/2+z
loop_
_atom_site_type_symbol
_atom_site_label
_atom_site_fract_x
_atom_site_fract_y
_atom_site_fract_z
Si Si1 0.500000 0.776104 0.500000
Si Si2 0.251967 0.667128 0.215402
Si Si3 0.617758 0.093165 0.214871
Si Si4 0.825728 0.747826 0.209992
Si Si5 0.220803 0.558267 0.791940
Si Si6 0.920316 0.706720 0.294740
Si Si7 0.552266 0.000000 0.782475
O O1 0.540388 0.777834 0.657165
O O2 0.208471 0.702023 0.279534
O O3 0.297684 0.698861 0.262621
O O4 0.248208 0.608018 0.283202
O O5 0.248914 0.666074 0.000000
O O6 0.667439 0.075628 0.282835
O O7 0.601178 0.150734 0.263530
O O8 0.580062 0.051048 0.273573
O O9 0.620740 0.091545 0.000000
O O10 0.876083 0.744715 0.292177
O O11 0.831466 0.739358 0.000000
O O12 0.225969 0.500000 0.714410
O O13 0.233351 0.554573 0.000000
O O14 0.936735 0.701529 0.500000
O O15 0.500000 0.000000 0.720669
O O16 0.551615 0.000000 0.000000
#
# Coordination Sequence:
#
# PCOD9518377 Si02
#       7
#     4  16  16  16  16  16   8
#     4  12  26  40  56  75 102 140 179 228 272 326
#     4   9  18  30  48  73 103 134 172 215 265 323
#     4  10  20  32  48  66  89 126 170 219 272 317
#     4  10  18  32  52  76 102 132 169 219 268 318
#     4  10  19  31  48  70 100 135 172 215 266 320
#     4  11  23  38  56  76 102 135 176 223 273 321
#     4   9  18  32  45  59  83 117 166 226 272 312
#
# _framework density 16.469504000000001
#
# number of rings (size 3 to 8) (size 9 to 14) (size 15 to 20)
#    0.000    2.000    3.478    0.783    2.435    1.391 
#    0.000    0.000    0.000    1.043    0.000    0.000 
#    0.000    0.000    0.000    1.565    0.000   13.304 
#
# Total GULP energy -256170.331774 kJ/mol
# GULP energy per Si atom -5568.920256 kJ/mol
# Density = 1.643202 g / cm^3
# Si number density = 16.469504 Si / 1000 Ang^3
#
#
#
# Elastic Constant Matrix: (Units=GPa)
#
#
# Indices 1 2 3 4 5 6 
#
# 1 97.7160 59.9157 20.3271 0.0000 0.0000 0.0000
# 2 59.9157 87.7490 15.1628 0.0000 0.0000 0.0000
# 3 20.3271 15.1628 74.3831 0.0000 0.0000 0.0000
# 4 0.0000 0.0000 0.0000 6.4007 0.0000 0.0000
# 5 0.0000 0.0000 0.0000 0.0000 22.0270 0.0000
# 6 0.0000 0.0000 0.0000 0.0000 0.0000 -2.0753
#
#
#
# Elastic Compliance Matrix: (Units=1/GPa)
#
#
# Indices 1 2 3 4 5 6 
#
# 1 0.018044 -0.011887 -0.002508 0.000000 0.000000 0.000000
# 2 -0.011887 0.019644 -0.000756 0.000000 0.000000 0.000000
# 3 -0.002508 -0.000756 0.014283 0.000000 0.000000 0.000000
# 4 0.000000 0.000000 0.000000 0.156232 0.000000 0.000000
# 5 0.000000 0.000000 0.000000 0.000000 0.045399 0.000000
# 6 0.000000 0.000000 0.000000 0.000000 0.000000 -0.481858
#
#
# Mechanical properties :
#
#
# Convention : Reuss Voigt Hill
#
# Bulk Modulus (GPa) = 46.14861 50.07324 48.11092
# Shear Modulus (GPa) = -26.21492 16.23332 -4.99080
#
# Velocity S-wave (km/s) = -3.99397 3.14293 -1.74267
# Velocity P-wave (km/s) = 2.61006 6.60608 5.02258
#
# Compressibility (1/GPa) = 0.02166913
#
# Stress axis : x y z
#
# Youngs Moduli (GPa) = 55.41900 50.90720 70.01178
#
# Poissons Ratio (x) = 0.60516 0.17558
# Poissons Ratio (y) = 0.65879 0.05291
# Poissons Ratio (z) = 0.13898 0.03847
#
# Static dielectric constant tensor:
#      x y z
#    x 1.531350 0.000000 0.000000 
#    y 0.000000 1.581800 0.000000 
#    z 0.000000 0.000000 1.609820 
# 
# From -- ./inp_files/15194.got.cif
#   From: 2010.05.17/outbox.cif.g08.bks.cpg/sg71_8_cif.got.tgz:15194.got - 2010.06.03 16:22:01.
