data_PCOD9518509
_publ_section_title
;
Structure prediction by ZEFSAII (Michael W. Deem and Ramdas Pophale) SiO2 
 PCOD9518509
Probable space group: I M M M
;
_chemical_formula_sum "Si O2"
_cell_formula_units_Z 64
_cell_length_a 15.763109
_cell_length_b 10.889456
_cell_length_c 21.305911
_cell_angle_alpha 90.000000
_cell_angle_beta 90.000000
_cell_angle_gamma 90.000000
_cell_volume 3657.195457
_symmetry_space_group_name_H-M "I M M M"
_symmetry_group_IT_number 71
_symmetry_cell_setting 'orthorhombic'
loop_
_space_group_symop_operation_xyz
x,y,z
-x,-y,z
x,-y,-z
-x,y,-z
-x,-y,-z
x,y,-z
-x,y,z
x,-y,z
1/2+x,1/2+y,1/2+z
1/2-x,1/2-y,1/2+z
1/2+x,1/2-y,1/2-z
1/2-x,1/2+y,1/2-z
1/2-x,1/2-y,1/2-z
1/2+x,1/2+y,1/2-z
1/2-x,1/2+y,1/2+z
1/2+x,1/2-y,1/2+z
loop_
_atom_site_type_symbol
_atom_site_label
_atom_site_fract_x
_atom_site_fract_y
_atom_site_fract_z
Si Si1 0.352297 0.500000 0.729442
Si Si2 0.702790 0.260345 0.682065
Si Si3 0.500000 0.769284 0.891210
Si Si4 0.000000 0.000000 0.330651
Si Si5 0.500000 0.000000 0.797028
Si Si6 0.664009 0.000000 0.290733
Si Si7 0.319598 0.147070 0.069885
O O1 0.360630 0.625194 0.690297
O O2 0.416884 0.500000 0.786747
O O3 0.254840 0.500000 0.754462
O O4 0.750000 0.250000 0.750000
O O5 0.662375 0.127251 0.671550
O O6 0.767104 0.294007 0.626629
O O7 0.500000 0.628477 0.868173
O O8 0.413866 0.798084 0.927700
O O9 0.500000 0.873557 0.836568
O O10 0.585779 0.000000 0.756772
O O11 0.324403 0.000000 0.080077
O O12 0.283490 0.167863 0.000000
#
# Coordination Sequence:
#
# PCOD9518509 Si02
#       7
#     8  16   8   4   4   8  16
#     4  10  18  34  50  78 115 152 195 235 284 335
#     4  10  19  34  56  79 111 148 191 242 286 335
#     4  12  21  35  54  83 124 162 200 232 283 357
#     4  12  24  34  55  90 123 166 190 244 302 342
#     4  12  20  34  61  90 121 160 198 238 296 352
#     4  10  20  32  52  84 115 146 187 245 294 341
#     4  11  22  38  59  85 115 161 206 240 288 356
#
# _framework density 17.499749000000001
#
# number of rings (size 3 to 8) (size 9 to 14) (size 15 to 20)
#    0.000    1.250    2.500    7.875    0.000    1.000 
#    0.000    3.125    0.000    0.000    0.000    5.250 
#    0.000    0.000    0.000    0.000    0.000    0.000 
#
# Total GULP energy -178442.905640 kJ/mol
# GULP energy per Si atom -5576.340801 kJ/mol
# Density = 1.745992 g / cm^3
# Si number density = 17.499749 Si / 1000 Ang^3
#
#
#
# Elastic Constant Matrix: (Units=GPa)
#
#
# Indices 1 2 3 4 5 6 
#
# 1 51.9856 20.5265 38.6424 0.0000 0.0000 0.0000
# 2 20.5265 182.6622 51.0496 0.0000 0.0000 0.0000
# 3 38.6424 51.0496 113.4955 0.0000 0.0000 0.0000
# 4 0.0000 0.0000 0.0000 20.7129 0.0000 0.0000
# 5 0.0000 0.0000 0.0000 0.0000 86.0858 0.0000
# 6 0.0000 0.0000 0.0000 0.0000 0.0000 10.0971
#
#
#
# Elastic Compliance Matrix: (Units=1/GPa)
#
#
# Indices 1 2 3 4 5 6 
#
# 1 0.025795 -0.000508 -0.008554 0.000000 0.000000 0.000000
# 2 -0.000508 0.006272 -0.002648 0.000000 0.000000 0.000000
# 3 -0.008554 -0.002648 0.012914 0.000000 0.000000 0.000000
# 4 0.000000 0.000000 0.000000 0.048279 0.000000 0.000000
# 5 0.000000 0.000000 0.000000 0.000000 0.011616 0.000000
# 6 0.000000 0.000000 0.000000 0.000000 0.000000 0.099039
#
#
# Mechanical properties :
#
#
# Convention : Reuss Voigt Hill
#
# Bulk Modulus (GPa) = 46.37994 63.17560 54.77777
# Shear Modulus (GPa) = 21.31987 39.24079 30.28033
#
# Velocity S-wave (km/s) = 3.49420 4.74050 4.16424
# Velocity P-wave (km/s) = 6.54522 8.13279 7.38181
#
# Compressibility (1/GPa) = 0.02156104
#
# Stress axis : x y z
#
# Youngs Moduli (GPa) = 38.76690 159.44556 77.43269
#
# Poissons Ratio (x) = 0.08101 0.66237
# Poissons Ratio (y) = 0.01970 0.20504
# Poissons Ratio (z) = 0.33162 0.42221
#
# Static dielectric constant tensor:
#      x y z
#    x 1.639260 0.000000 0.000000 
#    y 0.000000 1.692490 0.000000 
#    z 0.000000 0.000000 1.598360 
# 
# From -- ./inp_files/23291.got.cif
#   From: 2010.05.17/outbox.cif.g08.bks.cpg/sg71_12_cif.got.tgz:23291.got - 2010.06.03 16:22:01.
