data_PCOD9518809
_publ_section_title
;
Structure prediction by ZEFSAII (Michael W. Deem and Ramdas Pophale) SiO2 
 PCOD9518809
Probable space group: I M M M
;
_chemical_formula_sum "Si O2"
_cell_formula_units_Z 100
_cell_length_a 8.256402
_cell_length_b 19.276641
_cell_length_c 33.963065
_cell_angle_alpha 90.000000
_cell_angle_beta 90.000000
_cell_angle_gamma 90.000000
_cell_volume 5405.415293
_symmetry_space_group_name_H-M "I M M M"
_symmetry_group_IT_number 71
_symmetry_cell_setting 'orthorhombic'
loop_
_space_group_symop_operation_xyz
x,y,z
-x,-y,z
x,-y,-z
-x,y,-z
-x,-y,-z
x,y,-z
-x,y,z
x,-y,z
1/2+x,1/2+y,1/2+z
1/2-x,1/2-y,1/2+z
1/2+x,1/2-y,1/2-z
1/2-x,1/2+y,1/2-z
1/2-x,1/2-y,1/2-z
1/2+x,1/2+y,1/2-z
1/2-x,1/2+y,1/2+z
1/2+x,1/2-y,1/2+z
loop_
_atom_site_type_symbol
_atom_site_label
_atom_site_fract_x
_atom_site_fract_y
_atom_site_fract_z
Si Si1 0.304112 0.730605 0.043276
Si Si2 0.192367 0.885419 0.061572
Si Si3 0.807793 0.185972 0.373338
Si Si4 0.303983 0.340031 0.353011
Si Si5 0.694756 0.579463 0.275950
Si Si6 0.206654 0.500000 0.500000
Si Si7 0.692233 0.921020 0.690966
O O1 0.500000 0.738796 0.045505
O O2 0.227403 0.806860 0.047945
O O3 0.252713 0.685713 0.080989
O O4 0.263697 0.702795 0.000000
O O5 0.235583 0.884791 0.107903
O O6 0.000000 0.900774 0.057033
O O7 0.284719 0.939490 0.034352
O O8 0.765222 0.263135 0.358266
O O9 0.734209 0.128463 0.345080
O O10 0.000000 0.177053 0.372575
O O11 0.500000 0.334473 0.352478
O O12 0.247260 0.375529 0.312795
O O13 0.500000 0.577698 0.278432
O O14 0.754718 0.500000 0.278894
O O15 0.740527 0.606001 0.232697
O O16 0.500000 0.924184 0.694716
O O17 0.754954 0.000000 0.685357
#
# Coordination Sequence:
#
# PCOD9518809 Si02
#       7
#    16  16  16  16  16   4  16
#     4   9  18  34  52  71  99 132 168 208 248 291
#     4  10  19  30  45  69 100 136 177 218 256 294
#     4  10  20  34  55  79 103 134 170 209 252 301
#     4   9  19  33  50  73 104 139 177 219 260 300
#     4   9  18  33  52  74 101 137 177 215 256 302
#     4  12  21  28  45  74 105 140 183 226 261 296
#     4  10  21  37  57  80 104 129 159 202 255 313
#
# _framework density 18.499965
#
# number of rings (size 3 to 8) (size 9 to 14) (size 15 to 20)
#    0.000    2.400    0.800    1.680    1.120    2.880 
#    0.000    0.800    0.000    0.480    0.000    3.360 
#    0.000    0.000    0.000    0.000    0.000    0.000 
#
# Total GULP energy -278387.797861 kJ/mol
# GULP energy per Si atom -5567.755957 kJ/mol
# Density = 1.845786 g / cm^3
# Si number density = 18.499965 Si / 1000 Ang^3
#
#
#
# Elastic Constant Matrix: (Units=GPa)
#
#
# Indices 1 2 3 4 5 6 
#
# 1 13.7646 5.5541 15.3091 0.0000 0.0000 0.0000
# 2 5.5541 48.6534 61.5632 0.0000 0.0000 0.0000
# 3 15.3091 61.5632 178.0607 0.0000 0.0000 0.0000
# 4 0.0000 0.0000 0.0000 153.9359 0.0000 0.0000
# 5 0.0000 0.0000 0.0000 0.0000 6.5429 0.0000
# 6 0.0000 0.0000 0.0000 0.0000 0.0000 -44.8790
#
#
#
# Elastic Compliance Matrix: (Units=1/GPa)
#
#
# Indices 1 2 3 4 5 6 
#
# 1 0.080348 -0.000767 -0.006643 0.000000 0.000000 0.000000
# 2 -0.000767 0.036546 -0.012570 0.000000 0.000000 0.000000
# 3 -0.006643 -0.012570 0.010533 0.000000 0.000000 0.000000
# 4 0.000000 0.000000 0.000000 0.006496 0.000000 0.000000
# 5 0.000000 0.000000 0.000000 0.000000 0.152837 0.000000
# 6 0.000000 0.000000 0.000000 0.000000 0.000000 -0.022282
#
#
# Mechanical properties :
#
#
# Convention : Reuss Voigt Hill
#
# Bulk Modulus (GPa) = 11.43266 45.03681 28.23474
# Shear Modulus (GPa) = 14.98833 33.65678 24.32255
#
# Velocity S-wave (km/s) = 2.84946 4.26994 3.62986
# Velocity P-wave (km/s) = 4.12542 6.97904 5.73263
#
# Compressibility (1/GPa) = 0.08746870
#
# Stress axis : x y z
#
# Youngs Moduli (GPa) = 12.44584 27.36292 94.93947
#
# Poissons Ratio (x) = 0.02098 0.63068
# Poissons Ratio (y) = 0.00954 1.19334
# Poissons Ratio (z) = 0.08268 0.34394
#
# Static dielectric constant tensor:
#      x y z
#    x 1.660440 0.000000 0.000000 
#    y 0.000000 1.599460 0.000000 
#    z 0.000000 0.000000 1.661730 
# 
# From -- ./inp_files/68279.got.cif
#   From: 2010.05.17/outbox.cif.g08.bks.cpg/sg71_35_cif.got.tgz:68279.got - 2010.06.03 16:22:01.
