data_PCOD9518130
_publ_section_title
;
Structure prediction by ZEFSAII (Michael W. Deem and Ramdas Pophale) SiO2 
 PCOD9518130
Probable space group: I M M M
;
_chemical_formula_sum "Si O2"
_cell_formula_units_Z 120
_cell_length_a 26.534007
_cell_length_b 7.386119
_cell_length_c 28.802110
_cell_angle_alpha 90.000000
_cell_angle_beta 90.000000
_cell_angle_gamma 90.000000
_cell_volume 5644.733522
_symmetry_space_group_name_H-M "I M M M"
_symmetry_group_IT_number 71
_symmetry_cell_setting 'orthorhombic'
loop_
_space_group_symop_operation_xyz
x,y,z
-x,-y,z
x,-y,-z
-x,y,-z
-x,-y,-z
x,y,-z
-x,y,z
x,-y,z
1/2+x,1/2+y,1/2+z
1/2-x,1/2-y,1/2+z
1/2+x,1/2-y,1/2-z
1/2-x,1/2+y,1/2-z
1/2-x,1/2-y,1/2-z
1/2+x,1/2+y,1/2-z
1/2-x,1/2+y,1/2+z
1/2+x,1/2-y,1/2+z
loop_
_atom_site_type_symbol
_atom_site_label
_atom_site_fract_x
_atom_site_fract_y
_atom_site_fract_z
Si Si1 0.143730 0.721508 0.926357
Si Si2 0.694229 0.785715 0.231883
Si Si3 0.163584 0.209939 0.627286
Si Si4 0.058091 0.216465 0.236801
Si Si5 0.141129 0.298063 0.822569
Si Si6 0.441643 0.721251 0.841440
Si Si7 0.742597 0.279735 0.948833
Si Si8 0.559271 0.779331 0.500000
O O1 0.142191 0.500000 0.926566
O O2 0.144205 0.784412 0.873001
O O3 0.198764 0.775841 0.945142
O O4 0.094809 0.776665 0.956216
O O5 0.750000 0.750000 0.250000
O O6 0.683882 0.714721 0.180339
O O7 0.662733 0.710420 0.275602
O O8 0.684769 0.000000 0.228754
O O9 0.105992 0.283031 0.627778
O O10 0.205690 0.285828 0.592202
O O11 0.158215 0.000000 0.614179
O O12 0.083859 0.306830 0.193201
O O13 0.073750 0.274274 0.288781
O O14 0.000000 0.257786 0.235813
O O15 0.064061 0.000000 0.233704
O O16 0.164252 0.500000 0.826097
O O17 0.500000 0.777381 0.850933
O O18 0.442575 0.500000 0.842018
O O19 0.744022 0.500000 0.946050
O O20 0.723455 0.230056 0.000000
O O21 0.500000 0.721180 0.500000
O O22 0.557833 0.000000 0.500000
#
# Coordination Sequence:
#
# PCOD9518130 Si02
#       8
#    16  16  16  16  16  16  16   8
#     4   9  16  28  43  63  94 126 156 198 252 299
#     4  11  22  34  47  69 102 135 166 203 251 305
#     4  10  18  30  52  76  97 128 171 208 245 302
#     4   9  17  30  47  66  93 131 168 194 228 287
#     4  10  20  31  46  70  99 127 158 203 251 291
#     4   8  14  26  45  68  95 129 164 196 233 287
#     4   9  16  28  48  72  96 125 162 207 254 298
#     4   9  16  26  42  62  87 125 164 196 242 301
#
# _framework density 21.258755000000001
#
# number of rings (size 3 to 8) (size 9 to 14) (size 15 to 20)
#    0.000    2.600    2.000    2.000    0.000    3.467 
#    0.000    1.333    0.000    1.200    0.000    3.267 
#    0.000    1.600    0.000    1.200    0.000    1.333 
#
# Total GULP energy -334253.214229 kJ/mol
# GULP energy per Si atom -5570.886904 kJ/mol
# Density = 2.121037 g / cm^3
# Si number density = 21.258755 Si / 1000 Ang^3
#
#
#
# Elastic Constant Matrix: (Units=GPa)
#
#
# Indices 1 2 3 4 5 6 
#
# 1 146.9451 1.3246 87.3108 0.0000 0.0000 0.0000
# 2 1.3246 62.0750 2.7665 0.0000 0.0000 0.0000
# 3 87.3108 2.7665 157.6250 0.0000 0.0000 0.0000
# 4 0.0000 0.0000 0.0000 2.1064 0.0000 0.0000
# 5 0.0000 0.0000 0.0000 0.0000 39.1395 0.0000
# 6 0.0000 0.0000 0.0000 0.0000 0.0000 1.0441
#
#
#
# Elastic Compliance Matrix: (Units=1/GPa)
#
#
# Indices 1 2 3 4 5 6 
#
# 1 0.010144 0.000034 -0.005619 0.000000 0.000000 0.000000
# 2 0.000034 0.016122 -0.000302 0.000000 0.000000 0.000000
# 3 -0.005619 -0.000302 0.009462 0.000000 0.000000 0.000000
# 4 0.000000 0.000000 0.000000 0.474746 0.000000 0.000000
# 5 0.000000 0.000000 0.000000 0.000000 0.025550 0.000000
# 6 0.000000 0.000000 0.000000 0.000000 0.000000 0.957757
#
#
# Mechanical properties :
#
#
# Convention : Reuss Voigt Hill
#
# Bulk Modulus (GPa) = 41.74702 61.04990 51.39846
# Shear Modulus (GPa) = 3.30351 26.80754 15.05553
#
# Velocity S-wave (km/s) = 1.24793 3.55493 2.66410
# Velocity P-wave (km/s) = 4.66440 6.75499 5.80459
#
# Compressibility (1/GPa) = 0.02395381
#
# Stress axis : x y z
#
# Youngs Moduli (GPa) = 98.58168 62.02600 105.68411
#
# Poissons Ratio (x) = -0.00211 0.59389
# Poissons Ratio (y) = -0.00335 0.03189
# Poissons Ratio (z) = 0.55397 0.01872
#
# Static dielectric constant tensor:
#      x y z
#    x 1.987780 0.000000 0.000000 
#    y 0.000000 2.951920 0.000000 
#    z 0.000000 0.000000 1.783520 
# 
# From -- ./inp_files/67197.got.cif
#   From: 2010.05.17/outbox.cif.g08.bks.cpg/sg71_34_cif.got.tgz:67197.got - 2010.06.03 16:22:01.
