data_PCOD9518076
_publ_section_title
;
Structure prediction by ZEFSAII (Michael W. Deem and Ramdas Pophale) SiO2 
 PCOD9518076
Probable space group: I M M M
;
_chemical_formula_sum "Si O2"
_cell_formula_units_Z 120
_cell_length_a 17.882648
_cell_length_b 22.117811
_cell_length_c 15.831624
_cell_angle_alpha 90.000000
_cell_angle_beta 90.000000
_cell_angle_gamma 90.000000
_cell_volume 6261.803536
_symmetry_space_group_name_H-M "I M M M"
_symmetry_group_IT_number 71
_symmetry_cell_setting 'orthorhombic'
loop_
_space_group_symop_operation_xyz
x,y,z
-x,-y,z
x,-y,-z
-x,y,-z
-x,-y,-z
x,y,-z
-x,y,z
x,-y,z
1/2+x,1/2+y,1/2+z
1/2-x,1/2-y,1/2+z
1/2+x,1/2-y,1/2-z
1/2-x,1/2+y,1/2-z
1/2-x,1/2-y,1/2-z
1/2+x,1/2+y,1/2-z
1/2-x,1/2+y,1/2+z
1/2+x,1/2-y,1/2+z
loop_
_atom_site_type_symbol
_atom_site_label
_atom_site_fract_x
_atom_site_fract_y
_atom_site_fract_z
Si Si1 0.578783 0.748597 0.596008
Si Si2 0.715462 0.930818 0.600385
Si Si3 0.917827 0.069731 0.102927
Si Si4 0.500000 0.429688 0.897095
Si Si5 0.858443 0.846448 0.601828
Si Si6 0.706155 0.340017 0.601016
Si Si7 0.677148 0.224822 0.800014
Si Si8 0.414586 0.863557 0.319307
O O1 0.573549 0.727270 0.500000
O O2 0.500000 0.733723 0.639579
O O3 0.651759 0.715410 0.626415
O O4 0.585357 0.820272 0.598371
O O5 0.697132 0.925943 0.500000
O O6 0.781245 0.882758 0.617957
O O7 0.644746 0.915083 0.659215
O O8 0.740745 0.000000 0.614197
O O9 0.843920 0.104104 0.132289
O O10 0.000000 0.093760 0.129307
O O11 0.914521 0.000000 0.127078
O O12 0.917419 0.072720 0.000000
O O13 0.500000 0.500000 0.867461
O O14 0.573247 0.390742 0.873099
O O15 0.500000 0.432543 0.000000
O O16 0.863082 0.836041 0.500000
O O17 0.856470 0.782637 0.650683
O O18 0.712929 0.343488 0.500000
O O19 0.785912 0.325168 0.638370
O O20 0.750000 0.250000 0.750000
O O21 0.617372 0.186004 0.746834
O O22 0.500000 0.882117 0.301153
#
# Coordination Sequence:
#
# PCOD9518076 Si02
#       8
#    16  16  16   8  16  16  16  16
#     4   9  16  27  46  73 100 128 164 208 261 324
#     4  10  20  36  60  87 114 148 189 232 281 342
#     4   8  14  26  47  76 106 133 163 205 260 321
#     4   9  18  34  60  92 120 150 188 229 276 334
#     4  10  20  36  59  87 118 150 189 235 280 335
#     4  10  18  30  50  73 101 136 179 224 267 322
#     4  12  22  36  53  77 106 146 185 230 284 336
#     4  11  23  37  52  75 107 143 184 232 286 339
#
# _framework density 19.163808
#
# number of rings (size 3 to 8) (size 9 to 14) (size 15 to 20)
#    0.000    2.067    2.667    2.000    0.933    6.400 
#    0.000    1.333    0.000    0.000    0.000    0.000 
#    0.000    0.000    0.000    6.000    0.000    0.400 
#
# Total GULP energy -334137.425795 kJ/mol
# GULP energy per Si atom -5568.957097 kJ/mol
# Density = 1.912019 g / cm^3
# Si number density = 19.163808 Si / 1000 Ang^3
#
#
#
# Elastic Constant Matrix: (Units=GPa)
#
#
# Indices 1 2 3 4 5 6 
#
# 1 110.3277 32.1478 37.7961 0.0000 0.0000 0.0000
# 2 32.1478 81.4038 22.2762 0.0000 0.0000 0.0000
# 3 37.7961 22.2762 35.3878 0.0000 0.0000 0.0000
# 4 0.0000 0.0000 0.0000 19.6884 0.0000 0.0000
# 5 0.0000 0.0000 0.0000 0.0000 15.2558 0.0000
# 6 0.0000 0.0000 0.0000 0.0000 0.0000 32.2538
#
#
#
# Elastic Compliance Matrix: (Units=1/GPa)
#
#
# Indices 1 2 3 4 5 6 
#
# 1 0.014509 -0.001799 -0.014364 0.000000 0.000000 0.000000
# 2 -0.001799 0.015064 -0.007561 0.000000 0.000000 0.000000
# 3 -0.014364 -0.007561 0.048359 0.000000 0.000000 0.000000
# 4 0.000000 0.000000 0.000000 0.050791 0.000000 0.000000
# 5 0.000000 0.000000 0.000000 0.000000 0.065549 0.000000
# 6 0.000000 0.000000 0.000000 0.000000 0.000000 0.031004
#
#
# Mechanical properties :
#
#
# Convention : Reuss Voigt Hill
#
# Bulk Modulus (GPa) = 32.80385 45.72885 39.26635
# Shear Modulus (GPa) = 17.67499 22.43289 20.05394
#
# Velocity S-wave (km/s) = 3.04025 3.42509 3.23840
# Velocity P-wave (km/s) = 5.42945 6.28932 5.87514
#
# Compressibility (1/GPa) = 0.03048422
#
# Stress axis : x y z
#
# Youngs Moduli (GPa) = 68.92322 66.38331 20.67865
#
# Poissons Ratio (x) = 0.11944 0.29702
# Poissons Ratio (y) = 0.12401 0.15635
# Poissons Ratio (z) = 0.98999 0.50192
#
# Static dielectric constant tensor:
#      x y z
#    x 1.736230 0.000000 0.000000 
#    y 0.000000 1.676950 0.000000 
#    z 0.000000 0.000000 1.716780 
# 
# From -- ./inp_files/46471.got.cif
#   From: 2010.05.17/outbox.cif.g08.bks.cpg/sg71_24_cif.got.tgz:46471.got - 2010.06.03 16:22:01.
