data_PCOD9518366
_publ_section_title
;
Structure prediction by ZEFSAII (Michael W. Deem and Ramdas Pophale) SiO2 
 PCOD9518366
Probable space group: I M M M
;
_chemical_formula_sum "Si O2"
_cell_formula_units_Z 120
_cell_length_a 12.932210
_cell_length_b 24.022349
_cell_length_c 23.039599
_cell_angle_alpha 90.000000
_cell_angle_beta 90.000000
_cell_angle_gamma 90.000000
_cell_volume 7157.529332
_symmetry_space_group_name_H-M "I M M M"
_symmetry_group_IT_number 71
_symmetry_cell_setting 'orthorhombic'
loop_
_space_group_symop_operation_xyz
x,y,z
-x,-y,z
x,-y,-z
-x,y,-z
-x,-y,-z
x,y,-z
-x,y,z
x,-y,z
1/2+x,1/2+y,1/2+z
1/2-x,1/2-y,1/2+z
1/2+x,1/2-y,1/2-z
1/2-x,1/2+y,1/2-z
1/2-x,1/2-y,1/2-z
1/2+x,1/2+y,1/2-z
1/2-x,1/2+y,1/2+z
1/2+x,1/2-y,1/2+z
loop_
_atom_site_type_symbol
_atom_site_label
_atom_site_fract_x
_atom_site_fract_y
_atom_site_fract_z
Si Si1 0.621742 0.260117 0.185464
Si Si2 0.125506 0.000000 0.933687
Si Si3 0.877970 0.561220 0.810719
Si Si4 0.888546 0.200186 0.936953
Si Si5 0.619548 0.892312 0.565679
Si Si6 0.715037 0.707033 0.065094
Si Si7 0.618042 0.599684 0.349847
Si Si8 0.762334 0.655705 0.260243
O O1 0.500000 0.260139 0.198660
O O2 0.640928 0.280273 0.119148
O O3 0.684451 0.304436 0.224624
O O4 0.669465 0.199094 0.201187
O O5 0.154504 0.053133 0.895171
O O6 0.000000 0.000000 0.937146
O O7 0.164032 0.000000 0.000000
O O8 0.837536 0.500000 0.792196
O O9 0.867127 0.566724 0.880334
O O10 0.828237 0.615779 0.781748
O O11 0.000000 0.562534 0.797497
O O12 0.795190 0.241915 0.934073
O O13 0.885940 0.156447 0.886212
O O14 0.000000 0.230005 0.934217
O O15 0.885101 0.171040 0.000000
O O16 0.628777 0.915227 0.500000
O O17 0.500000 0.870667 0.570250
O O18 0.708761 0.845851 0.572285
O O19 0.668080 0.703865 0.000000
O O20 0.500000 0.586131 0.330993
O O21 0.695568 0.612963 0.298531
#
# Coordination Sequence:
#
# PCOD9518366 Si02
#       8
#    16   8  16  16  16  16  16  16
#     4  11  23  38  55  77 105 140 182 224 267 317
#     4   9  18  32  50  76 109 139 170 215 267 313
#     4  10  21  36  56  81 108 139 175 215 262 317
#     4   9  16  27  46  73 103 131 164 212 268 321
#     4   9  17  31  53  81 110 136 166 209 262 319
#     4  10  18  32  51  76 104 135 174 216 266 316
#     4  10  19  31  50  75 102 137 178 215 258 315
#     4  11  22  38  54  77 107 145 176 220 264 317
#
# _framework density 16.765561999999999
#
# number of rings (size 3 to 8) (size 9 to 14) (size 15 to 20)
#    0.000    2.067    2.667    1.600    0.933    3.733 
#    0.000    1.333    0.000    0.000    0.000    0.000 
#    0.000    3.200    0.000    0.000    0.000    0.000 
#
# Total GULP energy -334029.751541 kJ/mol
# GULP energy per Si atom -5567.162526 kJ/mol
# Density = 1.672740 g / cm^3
# Si number density = 16.765562 Si / 1000 Ang^3
#
#
#
# Elastic Constant Matrix: (Units=GPa)
#
#
# Indices 1 2 3 4 5 6 
#
# 1 66.2494 27.8048 33.2298 0.0000 0.0000 0.0000
# 2 27.8048 74.6928 33.8405 0.0000 0.0000 0.0000
# 3 33.2298 33.8405 86.9507 0.0000 0.0000 0.0000
# 4 0.0000 0.0000 0.0000 21.5611 0.0000 0.0000
# 5 0.0000 0.0000 0.0000 0.0000 22.6613 0.0000
# 6 0.0000 0.0000 0.0000 0.0000 0.0000 15.8464
#
#
#
# Elastic Compliance Matrix: (Units=1/GPa)
#
#
# Indices 1 2 3 4 5 6 
#
# 1 0.020018 -0.004839 -0.005767 0.000000 0.000000 0.000000
# 2 -0.004839 0.017424 -0.004932 0.000000 0.000000 0.000000
# 3 -0.005767 -0.004932 0.015624 0.000000 0.000000 0.000000
# 4 0.000000 0.000000 0.000000 0.046380 0.000000 0.000000
# 5 0.000000 0.000000 0.000000 0.000000 0.044128 0.000000
# 6 0.000000 0.000000 0.000000 0.000000 0.000000 0.063106
#
#
# Mechanical properties :
#
#
# Convention : Reuss Voigt Hill
#
# Bulk Modulus (GPa) = 45.47446 46.40479 45.93963
# Shear Modulus (GPa) = 20.40100 20.88160 20.64130
#
# Velocity S-wave (km/s) = 3.49211 3.53300 3.51261
# Velocity P-wave (km/s) = 6.59108 6.66195 6.62661
#
# Compressibility (1/GPa) = 0.02199036
#
# Stress axis : x y z
#
# Youngs Moduli (GPa) = 49.95493 57.39204 64.00327
#
# Poissons Ratio (x) = 0.27772 0.36910
# Poissons Ratio (y) = 0.24173 0.31566
# Poissons Ratio (z) = 0.28809 0.28306
#
# Static dielectric constant tensor:
#      x y z
#    x 1.560060 0.000000 0.000000 
#    y 0.000000 1.568680 0.000000 
#    z 0.000000 0.000000 1.609060 
# 
# From -- ./inp_files/52248.got.cif
#   From: 2010.05.17/outbox.cif.g08.bks.cpg/sg71_27_cif.got.tgz:52248.got - 2010.06.03 16:22:01.
