data_PCOD9518287
_publ_section_title
;
Structure prediction by ZEFSAII (Michael W. Deem and Ramdas Pophale) SiO2 
 PCOD9518287
Probable space group: I M M M
;
_chemical_formula_sum "Si O2"
_cell_formula_units_Z 104
_cell_length_a 33.651282
_cell_length_b 7.360382
_cell_length_c 18.519529
_cell_angle_alpha 90.000000
_cell_angle_beta 90.000000
_cell_angle_gamma 90.000000
_cell_volume 4587.033436
_symmetry_space_group_name_H-M "I M M M"
_symmetry_group_IT_number 71
_symmetry_cell_setting 'orthorhombic'
loop_
_space_group_symop_operation_xyz
x,y,z
-x,-y,z
x,-y,-z
-x,y,-z
-x,-y,-z
x,y,-z
-x,y,z
x,-y,z
1/2+x,1/2+y,1/2+z
1/2-x,1/2-y,1/2+z
1/2+x,1/2-y,1/2-z
1/2-x,1/2+y,1/2-z
1/2-x,1/2-y,1/2-z
1/2+x,1/2+y,1/2-z
1/2-x,1/2+y,1/2+z
1/2+x,1/2-y,1/2+z
loop_
_atom_site_type_symbol
_atom_site_label
_atom_site_fract_x
_atom_site_fract_y
_atom_site_fract_z
Si Si1 0.740898 0.277763 0.080778
Si Si2 0.836784 0.209104 0.348038
Si Si3 0.120731 0.278154 0.919298
Si Si4 0.955523 0.285444 0.839787
Si Si5 0.690378 0.219817 0.688336
Si Si6 0.500000 0.721715 0.917021
Si Si7 0.425254 0.719195 0.178212
O O1 0.741088 0.500000 0.082196
O O2 0.696313 0.214113 0.098299
O O3 0.770704 0.220544 0.144382
O O4 0.753602 0.224759 0.000000
O O5 0.816379 0.212691 0.269067
O O6 0.881076 0.287850 0.340745
O O7 0.842437 0.000000 0.370272
O O8 0.120835 0.500000 0.918815
O O9 0.077249 0.214415 0.895165
O O10 0.152888 0.223223 0.860209
O O11 0.131058 0.220974 0.000000
O O12 0.958594 0.500000 0.854087
O O13 0.937835 0.265866 0.759540
O O14 0.000000 0.209042 0.843143
O O15 0.691007 0.000000 0.692271
O O16 0.500000 0.500000 0.915819
O O17 0.539649 0.780604 0.874923
O O18 0.500000 0.778643 0.000000
O O19 0.424028 0.500000 0.175054
#
# Coordination Sequence:
#
# PCOD9518287 Si02
#       7
#    16  16  16  16  16   8  16
#     4   9  18  32  50  74 102 130 164 206 249 293
#     4  10  20  32  50  76 102 129 163 205 251 296
#     4   9  17  29  47  73 100 126 162 204 243 284
#     4  10  19  31  50  74  99 129 163 203 248 292
#     4  10  18  31  53  75  97 131 168 203 243 292
#     4   9  18  32  51  75  98 125 168 212 245 285
#     4  10  19  32  51  73  99 132 164 200 247 297
#
# _framework density 22.672605000000001
#
# number of rings (size 3 to 8) (size 9 to 14) (size 15 to 20)
#    0.000    2.385    2.308    0.923    0.000    2.769 
#    0.000    4.615    0.000    5.538    0.000    3.231 
#    0.000    0.000    0.000    0.000    0.000    0.000 
#
# Total GULP energy -290556.801467 kJ/mol
# GULP energy per Si atom -5587.630797 kJ/mol
# Density = 2.262100 g / cm^3
# Si number density = 22.672605 Si / 1000 Ang^3
#
#
#
# Elastic Constant Matrix: (Units=GPa)
#
#
# Indices 1 2 3 4 5 6 
#
# 1 126.1628 -1.5036 2.4907 0.0000 0.0000 0.0000
# 2 -1.5036 84.3734 -15.2197 0.0000 0.0000 0.0000
# 3 2.4907 -15.2197 62.0038 0.0000 0.0000 0.0000
# 4 0.0000 0.0000 0.0000 14.7960 0.0000 0.0000
# 5 0.0000 0.0000 0.0000 0.0000 12.0443 0.0000
# 6 0.0000 0.0000 0.0000 0.0000 0.0000 -12.3223
#
#
#
# Elastic Compliance Matrix: (Units=1/GPa)
#
#
# Indices 1 2 3 4 5 6 
#
# 1 0.007933 0.000088 -0.000297 0.000000 0.000000 0.000000
# 2 0.000088 0.012402 0.003041 0.000000 0.000000 0.000000
# 3 -0.000297 0.003041 0.016886 0.000000 0.000000 0.000000
# 4 0.000000 0.000000 0.000000 0.067586 0.000000 0.000000
# 5 0.000000 0.000000 0.000000 0.000000 0.083027 0.000000
# 6 0.000000 0.000000 0.000000 0.000000 0.000000 -0.081154
#
#
# Mechanical properties :
#
#
# Convention : Reuss Voigt Hill
#
# Bulk Modulus (GPa) = 23.31844 27.11941 25.21893
# Shear Modulus (GPa) = 43.36026 22.02177 32.69101
#
# Velocity S-wave (km/s) = 4.37790 3.11994 3.80132
# Velocity P-wave (km/s) = 5.98848 4.99660 5.51488
#
# Compressibility (1/GPa) = 0.04288451
#
# Stress axis : x y z
#
# Youngs Moduli (GPa) = 126.05284 80.63124 59.21936
#
# Poissons Ratio (x) = -0.00708 0.01760
# Poissons Ratio (y) = -0.01106 -0.18007
# Poissons Ratio (z) = 0.03745 -0.24518
#
# Static dielectric constant tensor:
#      x y z
#    x 1.855940 0.000000 0.000000 
#    y 0.000000 1.263250 0.000000 
#    z 0.000000 0.000000 1.766360 
# 
# From -- ./inp_files/49409.got.cif
#   From: 2010.05.17/outbox.cif.g08.bks.cpg/sg71_25_cif.got.tgz:49409.got - 2010.06.03 16:22:01.
