data_PCOD9518657
_publ_section_title
;
Structure prediction by ZEFSAII (Michael W. Deem and Ramdas Pophale) SiO2 
 PCOD9518657
Probable space group: I M M M
;
_chemical_formula_sum "Si O2"
_cell_formula_units_Z 104
_cell_length_a 7.839581
_cell_length_b 34.093370
_cell_length_c 25.806652
_cell_angle_alpha 90.000000
_cell_angle_beta 90.000000
_cell_angle_gamma 90.000000
_cell_volume 6897.543512
_symmetry_space_group_name_H-M "I M M M"
_symmetry_group_IT_number 71
_symmetry_cell_setting 'orthorhombic'
loop_
_space_group_symop_operation_xyz
x,y,z
-x,-y,z
x,-y,-z
-x,y,-z
-x,-y,-z
x,y,-z
-x,y,z
x,-y,z
1/2+x,1/2+y,1/2+z
1/2-x,1/2-y,1/2+z
1/2+x,1/2-y,1/2-z
1/2-x,1/2+y,1/2-z
1/2-x,1/2-y,1/2-z
1/2+x,1/2+y,1/2-z
1/2-x,1/2+y,1/2+z
1/2+x,1/2-y,1/2+z
loop_
_atom_site_type_symbol
_atom_site_label
_atom_site_fract_x
_atom_site_fract_y
_atom_site_fract_z
Si Si1 0.297960 0.455913 0.885789
Si Si2 0.797809 0.239665 0.056202
Si Si3 0.206755 0.831047 0.443347
Si Si4 0.698822 0.952556 0.500000
Si Si5 0.703816 0.733039 0.668630
Si Si6 0.794284 0.122258 0.342421
Si Si7 0.202816 0.309322 0.230047
O O1 0.500000 0.459301 0.877007
O O2 0.224025 0.500000 0.881674
O O3 0.276941 0.440618 0.945000
O O4 0.230341 0.422341 0.847604
O O5 0.773821 0.286675 0.059316
O O6 0.727492 0.224473 0.111123
O O7 0.000000 0.231088 0.054686
O O8 0.725142 0.227285 0.000000
O O9 0.255922 0.847481 0.500000
O O10 0.268090 0.854886 0.393781
O O11 0.000000 0.829623 0.441680
O O12 0.500000 0.942927 0.500000
O O13 0.718249 0.000000 0.500000
O O14 0.500000 0.737687 0.663342
O O15 0.735809 0.700594 0.712305
O O16 0.771557 0.774278 0.692534
O O17 0.748636 0.148744 0.293465
O O18 0.000000 0.120965 0.345082
O O19 0.000000 0.305752 0.230418
#
# Coordination Sequence:
#
# PCOD9518657 Si02
#       7
#    16  16  16   8  16  16  16
#     4   9  18  31  45  58  74 100 131 162 200 249
#     4   9  16  27  42  58  77 100 127 159 194 233
#     4   9  17  26  36  52  74  98 124 158 199 239
#     4   9  17  29  43  59  77  97 125 163 207 249
#     4   9  17  29  42  57  79 104 129 158 194 232
#     4  10  19  29  43  58  76  98 128 167 204 241
#     4  10  19  29  42  59  77 101 132 163 196 234
#
# _framework density 15.077832000000001
#
# number of rings (size 3 to 8) (size 9 to 14) (size 15 to 20)
#    0.000    2.692    1.538    0.692    1.077    2.769 
#    0.000    0.000    0.000    0.000    0.000    0.000 
#    0.000    0.000    0.000    0.000    0.000    0.769 
#
# Total GULP energy -289685.003111 kJ/mol
# GULP energy per Si atom -5570.865444 kJ/mol
# Density = 1.504351 g / cm^3
# Si number density = 15.077832 Si / 1000 Ang^3
#
#
#
# Elastic Constant Matrix: (Units=GPa)
#
#
# Indices 1 2 3 4 5 6 
#
# 1 10.9596 -6.3970 4.6446 0.0000 0.0000 0.0000
# 2 -6.3970 58.4231 49.5811 0.0000 0.0000 0.0000
# 3 4.6446 49.5811 127.4513 0.0000 0.0000 0.0000
# 4 0.0000 0.0000 0.0000 23.2002 0.0000 0.0000
# 5 0.0000 0.0000 0.0000 0.0000 7.7416 0.0000
# 6 0.0000 0.0000 0.0000 0.0000 0.0000 8.2309
#
#
#
# Elastic Compliance Matrix: (Units=1/GPa)
#
#
# Indices 1 2 3 4 5 6 
#
# 1 0.110246 0.023111 -0.013008 0.000000 0.000000 0.000000
# 2 0.023111 0.030397 -0.012667 0.000000 0.000000 0.000000
# 3 -0.013008 -0.012667 0.013248 0.000000 0.000000 0.000000
# 4 0.000000 0.000000 0.000000 0.043103 0.000000 0.000000
# 5 0.000000 0.000000 0.000000 0.000000 0.129172 0.000000
# 6 0.000000 0.000000 0.000000 0.000000 0.000000 0.121493
#
#
# Mechanical properties :
#
#
# Convention : Reuss Voigt Hill
#
# Bulk Modulus (GPa) = 6.72214 32.49904 19.61059
# Shear Modulus (GPa) = 9.95269 17.76823 13.86046
#
# Velocity S-wave (km/s) = 2.57200 3.43656 3.03522
# Velocity P-wave (km/s) = 3.64530 6.11126 5.03169
#
# Compressibility (1/GPa) = 0.14876210
#
# Stress axis : x y z
#
# Youngs Moduli (GPa) = 9.07061 32.89774 75.48298
#
# Poissons Ratio (x) = -0.76029 0.98189
# Poissons Ratio (y) = -0.20963 0.95617
# Poissons Ratio (z) = 0.11799 0.41673
#
# Static dielectric constant tensor:
#      x y z
#    x 1.535860 0.000000 0.000000 
#    y 0.000000 1.513620 0.000000 
#    z 0.000000 0.000000 1.535320 
# 
# From -- ./inp_files/15804.got.cif
#   From: 2010.05.17/outbox.cif.g08.bks.cpg/sg71_8_cif.got.tgz:15804.got - 2010.06.03 16:22:01.
