data_PCOD9518126
_publ_section_title
;
Structure prediction by ZEFSAII (Michael W. Deem and Ramdas Pophale) SiO2 
 PCOD9518126
Probable space group: I M M M
;
_chemical_formula_sum "Si O2"
_cell_formula_units_Z 120
_cell_length_a 16.876375
_cell_length_b 21.323229
_cell_length_c 19.439817
_cell_angle_alpha 90.000000
_cell_angle_beta 90.000000
_cell_angle_gamma 90.000000
_cell_volume 6995.589389
_symmetry_space_group_name_H-M "I M M M"
_symmetry_group_IT_number 71
_symmetry_cell_setting 'orthorhombic'
loop_
_space_group_symop_operation_xyz
x,y,z
-x,-y,z
x,-y,-z
-x,y,-z
-x,-y,-z
x,y,-z
-x,y,z
x,-y,z
1/2+x,1/2+y,1/2+z
1/2-x,1/2-y,1/2+z
1/2+x,1/2-y,1/2-z
1/2-x,1/2+y,1/2-z
1/2-x,1/2-y,1/2-z
1/2+x,1/2+y,1/2-z
1/2-x,1/2+y,1/2+z
1/2+x,1/2-y,1/2+z
loop_
_atom_site_type_symbol
_atom_site_label
_atom_site_fract_x
_atom_site_fract_y
_atom_site_fract_z
Si Si1 0.653579 0.636489 0.148816
Si Si2 0.093184 0.663972 0.286327
Si Si3 0.816957 0.573639 0.189916
Si Si4 0.841498 0.779845 0.924159
Si Si5 0.843823 0.272355 0.421341
Si Si6 0.000000 0.074940 0.580058
Si Si7 0.092541 0.201641 0.218956
Si Si8 0.091225 0.358257 0.077626
O O1 0.735283 0.598668 0.155738
O O2 0.656923 0.699914 0.103328
O O3 0.579005 0.598777 0.118481
O O4 0.637214 0.659412 0.226304
O O5 0.153069 0.611710 0.257248
O O6 0.110239 0.687186 0.364077
O O7 0.108287 0.725810 0.239360
O O8 0.000000 0.646760 0.279434
O O9 0.811774 0.500000 0.202942
O O10 0.882693 0.591602 0.133177
O O11 0.748178 0.792121 0.920378
O O12 0.883356 0.810021 0.859052
O O13 0.857206 0.705051 0.917834
O O14 0.871290 0.798196 0.000000
O O15 0.873361 0.277352 0.500000
O O16 0.000000 0.096504 0.500000
O O17 0.000000 0.000000 0.580095
O O18 0.000000 0.191522 0.229113
O O19 0.000000 0.339056 0.088655
O O20 0.099121 0.382789 0.000000
#
# Coordination Sequence:
#
# PCOD9518126 Si02
#       8
#    16  16  16  16  16   8  16  16
#     4  11  21  38  56  82 111 145 189 233 278 340
#     4  10  21  36  54  82 113 146 190 239 293 342
#     4  12  24  37  57  78 107 152 199 237 274 329
#     4  10  18  30  51  80 112 144 174 216 279 339
#     4  10  20  34  57  85 112 143 182 236 297 347
#     4  11  24  40  56  78 115 157 190 228 276 335
#     4  10  18  32  55  80 107 141 177 224 285 344
#     4  10  20  34  50  72 107 147 186 225 269 324
#
# _framework density 17.153665
#
# number of rings (size 3 to 8) (size 9 to 14) (size 15 to 20)
#    0.000    1.533    3.333    2.400    0.933    5.067 
#    0.000    0.667    0.000    0.400    0.000    0.933 
#    0.000    2.133    0.000    0.000    0.000    0.000 
#
# Total GULP energy -334738.485423 kJ/mol
# GULP energy per Si atom -5578.974757 kJ/mol
# Density = 1.711462 g / cm^3
# Si number density = 17.153665 Si / 1000 Ang^3
#
#
#
# Elastic Constant Matrix: (Units=GPa)
#
#
# Indices 1 2 3 4 5 6 
#
# 1 63.0794 25.1017 20.7767 0.0000 0.0000 0.0000
# 2 25.1017 44.5860 22.0918 0.0000 0.0000 0.0000
# 3 20.7767 22.0918 116.1060 0.0000 0.0000 0.0000
# 4 0.0000 0.0000 0.0000 14.6892 0.0000 0.0000
# 5 0.0000 0.0000 0.0000 0.0000 29.3965 0.0000
# 6 0.0000 0.0000 0.0000 0.0000 0.0000 11.7873
#
#
#
# Elastic Compliance Matrix: (Units=1/GPa)
#
#
# Indices 1 2 3 4 5 6 
#
# 1 0.020710 -0.010846 -0.001642 0.000000 0.000000 0.000000
# 2 -0.010846 0.030443 -0.003852 0.000000 0.000000 0.000000
# 3 -0.001642 -0.003852 0.009640 0.000000 0.000000 0.000000
# 4 0.000000 0.000000 0.000000 0.068077 0.000000 0.000000
# 5 0.000000 0.000000 0.000000 0.000000 0.034018 0.000000
# 6 0.000000 0.000000 0.000000 0.000000 0.000000 0.084837
#
#
# Mechanical properties :
#
#
# Convention : Reuss Voigt Hill
#
# Bulk Modulus (GPa) = 35.57070 39.96798 37.76934
# Shear Modulus (GPa) = 17.25474 21.56135 19.40805
#
# Velocity S-wave (km/s) = 3.17502 3.54920 3.36731
# Velocity P-wave (km/s) = 5.85000 6.33611 6.09790
#
# Compressibility (1/GPa) = 0.02811303
#
# Stress axis : x y z
#
# Youngs Moduli (GPa) = 48.28589 32.84803 103.73905
#
# Poissons Ratio (x) = 0.35627 0.17037
# Poissons Ratio (y) = 0.52370 0.39957
# Poissons Ratio (z) = 0.07930 0.12652
#
# Static dielectric constant tensor:
#      x y z
#    x 1.588410 0.000000 0.000000 
#    y 0.000000 1.552650 0.000000 
#    z 0.000000 0.000000 1.608460 
# 
# From -- ./inp_files/47566.got.cif
#   From: 2010.05.17/outbox.cif.g08.bks.cpg/sg71_24_cif.got.tgz:47566.got - 2010.06.03 16:22:01.
