data_PCOD9518381
_publ_section_title
;
Structure prediction by ZEFSAII (Michael W. Deem and Ramdas Pophale) SiO2 
 PCOD9518381
Probable space group: I M M M
;
_chemical_formula_sum "Si O2"
_cell_formula_units_Z 96
_cell_length_a 15.022682
_cell_length_b 19.768915
_cell_length_c 17.500232
_cell_angle_alpha 90.000000
_cell_angle_beta 90.000000
_cell_angle_gamma 90.000000
_cell_volume 5197.256062
_symmetry_space_group_name_H-M "I M M M"
_symmetry_group_IT_number 71
_symmetry_cell_setting 'orthorhombic'
loop_
_space_group_symop_operation_xyz
x,y,z
-x,-y,z
x,-y,-z
-x,y,-z
-x,-y,-z
x,y,-z
-x,y,z
x,-y,z
1/2+x,1/2+y,1/2+z
1/2-x,1/2-y,1/2+z
1/2+x,1/2-y,1/2-z
1/2-x,1/2+y,1/2-z
1/2-x,1/2-y,1/2-z
1/2+x,1/2+y,1/2-z
1/2-x,1/2+y,1/2+z
1/2+x,1/2-y,1/2+z
loop_
_atom_site_type_symbol
_atom_site_label
_atom_site_fract_x
_atom_site_fract_y
_atom_site_fract_z
Si Si1 0.895517 0.079324 0.319546
Si Si2 0.891562 0.920085 0.000000
Si Si3 0.341251 0.779370 0.714118
Si Si4 0.896929 0.134893 0.839345
Si Si5 0.892395 0.423147 0.500000
Si Si6 0.277571 0.679015 0.087415
Si Si7 0.896226 0.311097 0.377916
O O1 0.858498 0.097394 0.235007
O O2 0.843756 0.122046 0.381729
O O3 0.000000 0.099024 0.320882
O O4 0.889179 0.000000 0.332464
O O5 0.858393 0.884779 0.078101
O O6 0.000000 0.913739 0.000000
O O7 0.871533 0.000000 0.000000
O O8 0.250000 0.750000 0.750000
O O9 0.391720 0.713921 0.681191
O O10 0.308124 0.821960 0.642333
O O11 0.387693 0.815251 0.785770
O O12 0.000000 0.113308 0.842682
O O13 0.856832 0.500000 0.500000
O O14 0.870188 0.377986 0.425349
O O15 0.000000 0.428134 0.500000
O O16 0.331753 0.749774 0.097123
O O17 0.253657 0.670367 0.000000
O O18 0.000000 0.295623 0.396086
#
# Coordination Sequence:
#
# PCOD9518381 Si02
#       7
#    16   8  16  16   8  16  16
#     4  10  20  34  54  79 106 137 177 225 270 318
#     4   9  18  30  47  75 109 144 176 211 262 317
#     4  10  20  33  51  73 103 138 180 218 259 314
#     4  10  18  32  53  76 105 140 182 223 263 316
#     4   9  18  32  55  87 112 127 156 214 277 329
#     4  11  22  35  53  75 106 142 182 221 272 319
#     4  10  18  33  57  79 104 138 176 215 263 326
#
# _framework density 18.471285000000002
#
# number of rings (size 3 to 8) (size 9 to 14) (size 15 to 20)
#    0.000    2.000    4.167    1.500    1.167    3.333 
#    0.000    1.667    0.000    4.000    0.000    0.000 
#    0.000    0.000    0.000    7.500    0.000    0.000 
#
# Total GULP energy -267615.740272 kJ/mol
# GULP energy per Si atom -5575.327922 kJ/mol
# Density = 1.842924 g / cm^3
# Si number density = 18.471285 Si / 1000 Ang^3
#
#
#
# Elastic Constant Matrix: (Units=GPa)
#
#
# Indices 1 2 3 4 5 6 
#
# 1 20.2833 1.1795 7.1540 0.0000 0.0000 0.0000
# 2 1.1795 68.8027 49.1496 0.0000 0.0000 0.0000
# 3 7.1540 49.1496 167.9453 0.0000 0.0000 0.0000
# 4 0.0000 0.0000 0.0000 22.1969 0.0000 0.0000
# 5 0.0000 0.0000 0.0000 0.0000 18.5300 0.0000
# 6 0.0000 0.0000 0.0000 0.0000 0.0000 -1.0669
#
#
#
# Elastic Compliance Matrix: (Units=1/GPa)
#
#
# Indices 1 2 3 4 5 6 
#
# 1 0.050092 0.000841 -0.002380 0.000000 0.000000 0.000000
# 2 0.000841 0.018390 -0.005418 0.000000 0.000000 0.000000
# 3 -0.002380 -0.005418 0.007641 0.000000 0.000000 0.000000
# 4 0.000000 0.000000 0.000000 0.045051 0.000000 0.000000
# 5 0.000000 0.000000 0.000000 0.000000 0.053967 0.000000
# 6 0.000000 0.000000 0.000000 0.000000 0.000000 -0.937302
#
#
# Mechanical properties :
#
#
# Convention : Reuss Voigt Hill
#
# Bulk Modulus (GPa) = 16.07438 41.33306 28.70372
# Shear Modulus (GPa) = -6.87275 21.23521 7.18123
#
# Velocity S-wave (km/s) = -1.93102 3.39430 1.97388
# Velocity P-wave (km/s) = 1.93635 6.14713 4.55723
#
# Compressibility (1/GPa) = 0.06221080
#
# Stress axis : x y z
#
# Youngs Moduli (GPa) = 19.96318 54.37713 130.86922
#
# Poissons Ratio (x) = -0.04575 0.31147
# Poissons Ratio (y) = -0.01680 0.70902
# Poissons Ratio (z) = 0.04751 0.29460
#
# Static dielectric constant tensor:
#      x y z
#    x 1.680730 0.000000 0.000000 
#    y 0.000000 1.619440 0.000000 
#    z 0.000000 0.000000 1.685340 
# 
# From -- ./inp_files/46075.got.cif
#   From: 2010.05.17/outbox.cif.g08.bks.cpg/sg71_24_cif.got.tgz:46075.got - 2010.06.03 16:22:01.
