data_PCOD9518722
_publ_section_title
;
Structure prediction by ZEFSAII (Michael W. Deem and Ramdas Pophale) SiO2 
 PCOD9518722
Probable space group: I M M M
;
_chemical_formula_sum "Si O2"
_cell_formula_units_Z 96
_cell_length_a 30.575178
_cell_length_b 17.230119
_cell_length_c 7.633166
_cell_angle_alpha 90.000000
_cell_angle_beta 90.000000
_cell_angle_gamma 90.000000
_cell_volume 4021.258373
_symmetry_space_group_name_H-M "I M M M"
_symmetry_group_IT_number 71
_symmetry_cell_setting 'orthorhombic'
loop_
_space_group_symop_operation_xyz
x,y,z
-x,-y,z
x,-y,-z
-x,y,-z
-x,-y,-z
x,y,-z
-x,y,z
x,-y,z
1/2+x,1/2+y,1/2+z
1/2-x,1/2-y,1/2+z
1/2+x,1/2-y,1/2-z
1/2-x,1/2+y,1/2-z
1/2-x,1/2-y,1/2-z
1/2+x,1/2+y,1/2-z
1/2-x,1/2+y,1/2+z
1/2+x,1/2-y,1/2+z
loop_
_atom_site_type_symbol
_atom_site_label
_atom_site_fract_x
_atom_site_fract_y
_atom_site_fract_z
Si Si1 0.198483 0.790056 0.298433
Si Si2 0.761964 0.584331 0.789509
Si Si3 0.371135 0.411421 0.287182
Si Si4 0.353894 0.858424 0.205535
Si Si5 0.047146 0.812956 0.786863
Si Si6 0.548229 0.866141 0.709369
O O1 0.206436 0.769736 0.500000
O O2 0.242630 0.831971 0.223682
O O3 0.169531 0.867771 0.291936
O O4 0.165955 0.723938 0.217872
O O5 0.744219 0.500000 0.725854
O O6 0.813274 0.586302 0.745249
O O7 0.757329 0.585919 0.000000
O O8 0.368294 0.406945 0.500000
O O9 0.373304 0.500000 0.236529
O O10 0.413677 0.365268 0.226933
O O11 0.401602 0.891695 0.257023
O O12 0.358231 0.845228 0.000000
O O13 0.050292 0.723708 0.730388
O O14 0.000000 0.844000 0.734232
O O15 0.048476 0.811064 0.000000
O O16 0.544809 0.868669 0.500000
O O17 0.500000 0.897165 0.773216
#
# Coordination Sequence:
#
# PCOD9518722 Si02
#       6
#    16  16  16  16  16  16
#     4  10  21  37  55  78 108 146 186 222 268 325
#     4  10  22  40  60  80 107 147 189 227 272 329
#     4  10  19  29  46  73 103 139 183 231 278 319
#     4  11  22  35  57  88 116 144 180 227 280 327
#     4   8  14  26  44  67  97 134 177 224 270 313
#     4   9  17  32  56  82 109 146 188 227 269 321
#
# _framework density 23.873123
#
# number of rings (size 3 to 8) (size 9 to 14) (size 15 to 20)
#    0.000    2.333    1.667    2.500    0.000    3.333 
#    0.000    1.667    0.000    1.000    0.000    4.667 
#    0.000    0.000    0.000    0.000    0.000    0.000 
#
# Total GULP energy -267441.147112 kJ/mol
# GULP energy per Si atom -5571.690565 kJ/mol
# Density = 2.381879 g / cm^3
# Si number density = 23.873123 Si / 1000 Ang^3
#
#
#
# Elastic Constant Matrix: (Units=GPa)
#
#
# Indices 1 2 3 4 5 6 
#
# 1 139.5241 -4.1366 12.1260 0.0000 0.0000 0.0000
# 2 -4.1366 59.6231 4.4096 0.0000 0.0000 0.0000
# 3 12.1260 4.4096 50.6219 0.0000 0.0000 0.0000
# 4 0.0000 0.0000 0.0000 14.6876 0.0000 0.0000
# 5 0.0000 0.0000 0.0000 0.0000 -34.6763 0.0000
# 6 0.0000 0.0000 0.0000 0.0000 0.0000 -34.6769
#
#
#
# Elastic Compliance Matrix: (Units=1/GPa)
#
#
# Indices 1 2 3 4 5 6 
#
# 1 0.007344 0.000644 -0.001815 0.000000 0.000000 0.000000
# 2 0.000644 0.016937 -0.001630 0.000000 0.000000 0.000000
# 3 -0.001815 -0.001630 0.020331 0.000000 0.000000 0.000000
# 4 0.000000 0.000000 0.000000 0.068085 0.000000 0.000000
# 5 0.000000 0.000000 0.000000 0.000000 -0.028838 0.000000
# 6 0.000000 0.000000 0.000000 0.000000 0.000000 -0.028838
#
#
# Mechanical properties :
#
#
# Convention : Reuss Voigt Hill
#
# Bulk Modulus (GPa) = 25.63434 30.50747 28.07091
# Shear Modulus (GPa) = 67.90990 4.89154 36.40072
#
# Velocity S-wave (km/s) = 5.33928 1.43298 3.90905
# Velocity P-wave (km/s) = 6.98367 3.94267 5.67081
#
# Compressibility (1/GPa) = 0.03901017
#
# Stress axis : x y z
#
# Youngs Moduli (GPa) = 136.16426 59.04162 49.18573
#
# Poissons Ratio (x) = -0.03801 0.08929
# Poissons Ratio (y) = -0.08766 0.08015
# Poissons Ratio (z) = 0.24718 0.09621
#
# Static dielectric constant tensor:
#      x y z
#    x 2.058980 0.000000 0.000000 
#    y 0.000000 1.931530 0.000000 
#    z 0.000000 0.000000 1.878620 
# 
# From -- ./inp_files/14867.got.cif
#   From: 2010.05.17/outbox.cif.g08.bks.cpg/sg71_8_cif.got.tgz:14867.got - 2010.06.03 16:22:01.
