data_PCOD9518417
_publ_section_title
;
Structure prediction by ZEFSAII (Michael W. Deem and Ramdas Pophale) SiO2 
 PCOD9518417
Probable space group: I M M M
;
_chemical_formula_sum "Si O2"
_cell_formula_units_Z 88
_cell_length_a 18.184544
_cell_length_b 18.517831
_cell_length_c 15.176506
_cell_angle_alpha 90.000000
_cell_angle_beta 90.000000
_cell_angle_gamma 90.000000
_cell_volume 5110.511022
_symmetry_space_group_name_H-M "I M M M"
_symmetry_group_IT_number 71
_symmetry_cell_setting 'orthorhombic'
loop_
_space_group_symop_operation_xyz
x,y,z
-x,-y,z
x,-y,-z
-x,y,-z
-x,-y,-z
x,y,-z
-x,y,z
x,-y,z
1/2+x,1/2+y,1/2+z
1/2-x,1/2-y,1/2+z
1/2+x,1/2-y,1/2-z
1/2-x,1/2+y,1/2-z
1/2-x,1/2-y,1/2-z
1/2+x,1/2+y,1/2-z
1/2-x,1/2+y,1/2+z
1/2+x,1/2-y,1/2+z
loop_
_atom_site_type_symbol
_atom_site_label
_atom_site_fract_x
_atom_site_fract_y
_atom_site_fract_z
Si Si1 0.690350 0.769935 0.824347
Si Si2 0.587317 0.362541 0.828954
Si Si3 0.323978 0.415952 0.000000
Si Si4 0.876332 0.919531 0.138554
Si Si5 0.729114 0.217410 0.500000
Si Si6 0.919573 0.199213 0.000000
Si Si7 0.200855 0.581515 0.604463
O O1 0.750000 0.750000 0.750000
O O2 0.620814 0.717530 0.815479
O O3 0.731426 0.750909 0.915178
O O4 0.670813 0.854197 0.834592
O O5 0.500000 0.362078 0.841347
O O6 0.628297 0.395314 0.913900
O O7 0.607774 0.406672 0.741119
O O8 0.307395 0.500000 0.000000
O O9 0.250925 0.366586 0.000000
O O10 0.789147 0.916634 0.118773
O O11 0.902021 0.000000 0.112951
O O12 0.910900 0.854796 0.082879
O O13 0.645231 0.242456 0.500000
O O14 0.000000 0.232536 0.000000
O O15 0.186484 0.593517 0.500000
O O16 0.176146 0.500000 0.626233
#
# Coordination Sequence:
#
# PCOD9518417 Si02
#       7
#    16  16   8  16   8   8  16
#     4  11  18  34  55  73 102 140 179 217 256 310
#     4  11  23  35  52  77 106 138 172 216 265 310
#     4  10  23  40  57  70  94 137 181 221 261 303
#     4  11  20  32  50  77 110 140 171 204 251 316
#     4  10  20  36  50  75 101 131 181 220 248 307
#     4  12  21  32  51  78 113 144 163 200 264 317
#     4  10  18  32  55  79 105 137 176 220 261 307
#
# _framework density 17.219412999999999
#
# number of rings (size 3 to 8) (size 9 to 14) (size 15 to 20)
#    0.000    1.273    5.455    1.636    0.000    3.273 
#    0.000    0.000    0.000    0.818    0.000    1.273 
#    0.000    6.182    0.000    0.000    0.000    0.727 
#
# Total GULP energy -245579.754174 kJ/mol
# GULP energy per Si atom -5581.358049 kJ/mol
# Density = 1.718022 g / cm^3
# Si number density = 17.219413 Si / 1000 Ang^3
#
#
#
# Elastic Constant Matrix: (Units=GPa)
#
#
# Indices 1 2 3 4 5 6 
#
# 1 61.7657 32.8155 9.7318 0.0000 0.0000 0.0000
# 2 32.8155 145.2034 27.4999 0.0000 0.0000 0.0000
# 3 9.7318 27.4999 102.9099 0.0000 0.0000 0.0000
# 4 0.0000 0.0000 0.0000 25.5494 0.0000 0.0000
# 5 0.0000 0.0000 0.0000 0.0000 -1.4760 0.0000
# 6 0.0000 0.0000 0.0000 0.0000 0.0000 11.1859
#
#
#
# Elastic Compliance Matrix: (Units=1/GPa)
#
#
# Indices 1 2 3 4 5 6 
#
# 1 0.018442 -0.004042 -0.000664 0.000000 0.000000 0.000000
# 2 -0.004042 0.008140 -0.001793 0.000000 0.000000 0.000000
# 3 -0.000664 -0.001793 0.010259 0.000000 0.000000 0.000000
# 4 0.000000 0.000000 0.000000 0.039140 0.000000 0.000000
# 5 0.000000 0.000000 0.000000 0.000000 -0.677500 0.000000
# 6 0.000000 0.000000 0.000000 0.000000 0.000000 0.089398
#
#
# Mechanical properties :
#
#
# Convention : Reuss Voigt Hill
#
# Bulk Modulus (GPa) = 41.94012 49.99706 45.96859
# Shear Modulus (GPa) = -10.17967 23.04065 6.43049
#
# Velocity S-wave (km/s) = -2.43404 3.66192 1.93457
# Velocity P-wave (km/s) = 4.06322 6.85404 5.63416
#
# Compressibility (1/GPa) = 0.02384352
#
# Stress axis : x y z
#
# Youngs Moduli (GPa) = 54.22291 122.85053 97.47410
#
# Poissons Ratio (x) = 0.49659 0.06471
# Poissons Ratio (y) = 0.21918 0.17476
# Poissons Ratio (z) = 0.03600 0.22026
#
# Static dielectric constant tensor:
#      x y z
#    x 1.556550 0.000000 0.000000 
#    y 0.000000 1.625480 0.000000 
#    z 0.000000 0.000000 1.588560 
# 
# From -- ./inp_files/36411.got.cif
#   From: 2010.05.17/outbox.cif.g08.bks.cpg/sg71_19_cif.got.tgz:36411.got - 2010.06.03 16:22:01.
