data_PCOD9518105
_publ_section_title
;
Structure prediction by ZEFSAII (Michael W. Deem and Ramdas Pophale) SiO2 
 PCOD9518105
Probable space group: I M M M
;
_chemical_formula_sum "Si O2"
_cell_formula_units_Z 112
_cell_length_a 14.839383
_cell_length_b 26.563581
_cell_length_c 17.307728
_cell_angle_alpha 90.000000
_cell_angle_beta 90.000000
_cell_angle_gamma 90.000000
_cell_volume 6822.484013
_symmetry_space_group_name_H-M "I M M M"
_symmetry_group_IT_number 71
_symmetry_cell_setting 'orthorhombic'
loop_
_space_group_symop_operation_xyz
x,y,z
-x,-y,z
x,-y,-z
-x,y,-z
-x,-y,-z
x,y,-z
-x,y,z
x,-y,z
1/2+x,1/2+y,1/2+z
1/2-x,1/2-y,1/2+z
1/2+x,1/2-y,1/2-z
1/2-x,1/2+y,1/2-z
1/2-x,1/2-y,1/2-z
1/2+x,1/2+y,1/2-z
1/2-x,1/2+y,1/2+z
1/2+x,1/2-y,1/2+z
loop_
_atom_site_type_symbol
_atom_site_label
_atom_site_fract_x
_atom_site_fract_y
_atom_site_fract_z
Si Si1 0.603336 0.648358 0.406307
Si Si2 0.205191 0.252026 0.905596
Si Si3 0.103357 0.379162 0.348249
Si Si4 0.892036 0.344756 0.824511
Si Si5 0.598101 0.227942 0.089429
Si Si6 0.733535 0.442037 0.593476
Si Si7 0.390731 0.945163 0.590336
O O1 0.600748 0.647764 0.500000
O O2 0.500000 0.649953 0.378843
O O3 0.658319 0.698744 0.385496
O O4 0.656663 0.597994 0.382765
O O5 0.154506 0.297294 0.863779
O O6 0.309595 0.250855 0.879510
O O7 0.201105 0.257103 0.000000
O O8 0.123838 0.352987 0.266126
O O9 0.108919 0.332519 0.407234
O O10 0.173692 0.421828 0.370237
O O11 0.000000 0.397645 0.345712
O O12 0.859595 0.396309 0.864702
O O13 0.000000 0.339999 0.835818
O O14 0.500000 0.239414 0.126024
O O15 0.594003 0.243091 0.000000
O O16 0.741285 0.439628 0.500000
O O17 0.714785 0.500000 0.614227
O O18 0.367582 0.941254 0.500000
O O19 0.500000 0.945215 0.594865
O O20 0.360030 0.000000 0.619542
#
# Coordination Sequence:
#
# PCOD9518105 Si02
#       7
#    16  16  16  16  16  16  16
#     4   9  17  30  48  71  97 124 155 195 246 292
#     4  10  18  30  51  74  97 127 161 198 237 282
#     4  10  20  33  47  66  94 126 157 195 244 290
#     4  10  20  30  44  71 102 129 155 189 236 287
#     4   9  17  31  50  67  88 123 163 199 236 280
#     4  10  20  34  51  70  92 122 166 212 246 283
#     4   8  14  26  43  61  86 122 157 186 221 272
#
# _framework density 16.416308000000001
#
# number of rings (size 3 to 8) (size 9 to 14) (size 15 to 20)
#    0.000    2.571    1.429    1.714    0.000    4.000 
#    0.000    3.571    0.000    0.000    0.000    0.000 
#    0.000    0.571    0.000    5.286    0.000    0.143 
#
# Total GULP energy -311890.060772 kJ/mol
# GULP energy per Si atom -5569.465371 kJ/mol
# Density = 1.637894 g / cm^3
# Si number density = 16.416308 Si / 1000 Ang^3
#
#
#
# Elastic Constant Matrix: (Units=GPa)
#
#
# Indices 1 2 3 4 5 6 
#
# 1 103.5185 61.2597 27.0214 0.0001 0.0000 0.0000
# 2 61.2597 121.3879 30.6295 -0.0001 0.0000 0.0000
# 3 27.0214 30.6295 24.2657 -0.0009 0.0000 0.0000
# 4 0.0001 -0.0001 -0.0009 -34.3731 0.0001 0.0001
# 5 0.0000 0.0000 0.0000 0.0001 14.1115 0.0000
# 6 0.0000 0.0000 0.0000 0.0001 0.0000 25.9002
#
#
#
# Elastic Compliance Matrix: (Units=1/GPa)
#
#
# Indices 1 2 3 4 5 6 
#
# 1 0.015500 -0.005087 -0.010839 0.000000 0.000000 0.000000
# 2 -0.005087 0.013758 -0.011701 0.000000 0.000000 0.000000
# 3 -0.010839 -0.011701 0.068050 -0.000002 0.000000 0.000000
# 4 0.000000 0.000000 -0.000002 -0.029093 0.000000 0.000000
# 5 0.000000 0.000000 0.000000 0.000000 0.070864 0.000000
# 6 0.000000 0.000000 0.000000 0.000000 0.000000 0.038610
#
#
# Mechanical properties :
#
#
# Convention : Reuss Voigt Hill
#
# Bulk Modulus (GPa) = 23.77919 54.11036 38.94477
# Shear Modulus (GPa) = 20.24618 9.81182 15.02900
#
# Velocity S-wave (km/s) = 3.51564 2.44742 3.02899
# Velocity P-wave (km/s) = 5.56742 6.40464 6.00065
#
# Compressibility (1/GPa) = 0.04205358
#
# Stress axis : x y z
#
# Youngs Moduli (GPa) = 64.51686 72.68562 14.69517
#
# Poissons Ratio (x) = 0.36977 0.15927
# Poissons Ratio (y) = 0.32821 0.17195
# Poissons Ratio (z) = 0.69927 0.85049
#
# Static dielectric constant tensor:
#      x y z
#    x 1.572300 0.000000 0.000000 
#    y 0.000000 1.539250 0.000000 
#    z 0.000000 0.000000 1.588030 
# 
# From -- ./inp_files/35133.got.cif
#   From: 2010.05.17/outbox.cif.g08.bks.cpg/sg71_18_cif.got.tgz:35133.got - 2010.06.03 16:22:01.
