data_PCOD9518273
_publ_section_title
;
Structure prediction by ZEFSAII (Michael W. Deem and Ramdas Pophale) SiO2 
 PCOD9518273
Probable space group: I M M M
;
_chemical_formula_sum "Si O2"
_cell_formula_units_Z 104
_cell_length_a 23.038429
_cell_length_b 27.475537
_cell_length_c 7.902094
_cell_angle_alpha 90.000000
_cell_angle_beta 90.000000
_cell_angle_gamma 90.000000
_cell_volume 5001.971834
_symmetry_space_group_name_H-M "I M M M"
_symmetry_group_IT_number 71
_symmetry_cell_setting 'orthorhombic'
loop_
_space_group_symop_operation_xyz
x,y,z
-x,-y,z
x,-y,-z
-x,y,-z
-x,-y,-z
x,y,-z
-x,y,z
x,-y,z
1/2+x,1/2+y,1/2+z
1/2-x,1/2-y,1/2+z
1/2+x,1/2-y,1/2-z
1/2-x,1/2+y,1/2-z
1/2-x,1/2-y,1/2-z
1/2+x,1/2+y,1/2-z
1/2-x,1/2+y,1/2+z
1/2+x,1/2-y,1/2+z
loop_
_atom_site_type_symbol
_atom_site_label
_atom_site_fract_x
_atom_site_fract_y
_atom_site_fract_z
Si Si1 0.808301 0.314272 0.700608
Si Si2 0.724245 0.442045 0.192691
Si Si3 0.932901 0.500000 0.792641
Si Si4 0.319781 0.297027 0.794869
Si Si5 0.561696 0.656920 0.197535
Si Si6 0.348553 0.913460 0.701208
Si Si7 0.904055 0.054977 0.195917
O O1 0.815360 0.314355 0.500000
O O2 0.740090 0.322748 0.741217
O O3 0.819014 0.259241 0.763524
O O4 0.851246 0.355584 0.771233
O O5 0.730014 0.500000 0.177891
O O6 0.784704 0.425602 0.272656
O O7 0.664704 0.433982 0.289897
O O8 0.717417 0.421996 0.000000
O O9 0.897402 0.548619 0.738099
O O10 0.000000 0.500000 0.736820
O O11 0.933929 0.500000 0.000000
O O12 0.378610 0.321812 0.730532
O O13 0.319368 0.297406 0.000000
O O14 0.500000 0.672956 0.273361
O O15 0.565364 0.598696 0.209657
O O16 0.561342 0.670757 0.000000
O O17 0.344597 0.922400 0.500000
O O18 0.913482 0.000000 0.261633
O O19 0.921470 0.055912 0.000000
#
# Coordination Sequence:
#
# PCOD9518273 Si02
#       7
#    16  16   8  16  16  16  16
#     4  10  20  33  54  83 110 135 167 213 271 324
#     4   9  16  28  47  71  99 131 168 208 248 291
#     4   9  18  34  55  77 105 145 190 229 264 313
#     4   9  19  37  56  77 106 137 171 215 265 315
#     4  10  21  37  56  74  94 130 178 217 248 291
#     4  10  18  31  52  78 105 137 177 218 262 311
#     4  10  21  34  48  72 106 137 165 202 253 305
#
# _framework density 20.791801
#
# number of rings (size 3 to 8) (size 9 to 14) (size 15 to 20)
#    0.000    2.385    0.769    1.846    0.000    7.077 
#    0.000    2.692    0.000    1.846    0.000    0.000 
#    0.000    0.000    0.000    0.000    0.000    0.000 
#
# Total GULP energy -290016.788070 kJ/mol
# GULP energy per Si atom -5577.245924 kJ/mol
# Density = 2.074448 g / cm^3
# Si number density = 20.791801 Si / 1000 Ang^3
#
#
#
# Elastic Constant Matrix: (Units=GPa)
#
#
# Indices 1 2 3 4 5 6 
#
# 1 126.2447 77.3556 1.6812 0.0000 0.0000 0.0000
# 2 77.3556 110.8614 -2.2444 0.0000 0.0000 0.0000
# 3 1.6812 -2.2444 18.9315 0.0000 0.0000 0.0000
# 4 0.0000 0.0000 0.0000 20.6138 0.0000 0.0000
# 5 0.0000 0.0000 0.0000 0.0000 -1.4490 0.0000
# 6 0.0000 0.0000 0.0000 0.0000 0.0000 15.0062
#
#
#
# Elastic Compliance Matrix: (Units=1/GPa)
#
#
# Indices 1 2 3 4 5 6 
#
# 1 0.013945 -0.009779 -0.002398 0.000000 0.000000 0.000000
# 2 -0.009779 0.015899 0.002753 0.000000 0.000000 0.000000
# 3 -0.002398 0.002753 0.053361 0.000000 0.000000 0.000000
# 4 0.000000 0.000000 0.000000 0.048511 0.000000 0.000000
# 5 0.000000 0.000000 0.000000 0.000000 -0.690123 0.000000
# 6 0.000000 0.000000 0.000000 0.000000 0.000000 0.066639
#
#
# Mechanical properties :
#
#
# Convention : Reuss Voigt Hill
#
# Bulk Modulus (GPa) = 15.53779 45.51359 30.52569
# Shear Modulus (GPa) = -11.07500 18.78387 3.85444
#
# Velocity S-wave (km/s) = -2.31045 3.00897 1.36303
# Velocity P-wave (km/s) = 0.60966 5.83177 4.14616
#
# Compressibility (1/GPa) = 0.06435923
#
# Stress axis : x y z
#
# Youngs Moduli (GPa) = 71.71002 62.89518 18.74016
#
# Poissons Ratio (x) = 0.61505 0.04493
# Poissons Ratio (y) = 0.70125 -0.05160
# Poissons Ratio (z) = 0.17194 -0.17317
#
# Static dielectric constant tensor:
#      x y z
#    x 1.765470 0.000000 0.000000 
#    y 0.000000 1.782270 0.000000 
#    z 0.000000 0.000000 1.751210 
# 
# From -- ./inp_files/11112.got.cif
#   From: 2010.05.17/outbox.cif.g08.bks.cpg/sg71_6_cif.got.tgz:11112.got - 2010.06.03 16:22:01.
