data_PCOD9518281
_publ_section_title
;
Structure prediction by ZEFSAII (Michael W. Deem and Ramdas Pophale) SiO2 
 PCOD9518281
Probable space group: I M M M
;
_chemical_formula_sum "Si O2"
_cell_formula_units_Z 72
_cell_length_a 13.931718
_cell_length_b 7.775586
_cell_length_c 32.677425
_cell_angle_alpha 90.000000
_cell_angle_beta 90.000000
_cell_angle_gamma 90.000000
_cell_volume 3539.856288
_symmetry_space_group_name_H-M "I M M M"
_symmetry_group_IT_number 71
_symmetry_cell_setting 'orthorhombic'
loop_
_space_group_symop_operation_xyz
x,y,z
-x,-y,z
x,-y,-z
-x,y,-z
-x,-y,-z
x,y,-z
-x,y,z
x,-y,z
1/2+x,1/2+y,1/2+z
1/2-x,1/2-y,1/2+z
1/2+x,1/2-y,1/2-z
1/2-x,1/2+y,1/2-z
1/2-x,1/2-y,1/2-z
1/2+x,1/2+y,1/2-z
1/2-x,1/2+y,1/2+z
1/2+x,1/2-y,1/2+z
loop_
_atom_site_type_symbol
_atom_site_label
_atom_site_fract_x
_atom_site_fract_y
_atom_site_fract_z
Si Si1 0.500000 0.708622 0.135835
Si Si2 0.693415 0.710477 0.912678
Si Si3 0.111997 0.790257 0.500000
Si Si4 0.500000 0.796515 0.230233
Si Si5 0.889467 0.299858 0.129199
Si Si6 0.326994 0.309445 0.282583
O O1 0.500000 0.500000 0.135601
O O2 0.400250 0.762841 0.114020
O O3 0.500000 0.773664 0.181955
O O4 0.695595 0.500000 0.910976
O O5 0.667321 0.762115 0.958936
O O6 0.797973 0.771311 0.896571
O O7 0.000000 0.734373 0.500000
O O8 0.109094 0.000000 0.500000
O O9 0.585024 0.701414 0.252374
O O10 0.500000 0.000000 0.240039
O O11 0.897341 0.500000 0.117627
O O12 0.854172 0.291274 0.176371
O O13 0.000000 0.228171 0.126154
O O14 0.302592 0.500000 0.297019
O O15 0.250000 0.250000 0.250000
#
# Coordination Sequence:
#
# PCOD9518281 Si02
#       6
#     8  16   8   8  16  16
#     4  10  18  31  52  80 112 144 191 245 294 344
#     4   9  17  29  50  80 111 147 188 237 292 345
#     4   9  14  26  49  81 117 144 180 235 294 350
#     4  12  24  38  55  81 115 151 193 242 292 342
#     4  10  20  35  53  76 113 155 194 236 289 347
#     4  12  24  39  59  82 110 149 197 245 293 344
#
# _framework density 20.339807
#
# number of rings (size 3 to 8) (size 9 to 14) (size 15 to 20)
#    0.000    1.667    2.222    4.333    0.000    1.778 
#    0.000    0.556    0.000    3.333    0.000    3.889 
#    0.000    1.778    0.000    0.000    0.000    0.000 
#
# Total GULP energy -200565.648574 kJ/mol
# GULP energy per Si atom -5571.268016 kJ/mol
# Density = 2.029351 g / cm^3
# Si number density = 20.339807 Si / 1000 Ang^3
#
#
#
# Elastic Constant Matrix: (Units=GPa)
#
#
# Indices 1 2 3 4 5 6 
#
# 1 209.6512 -0.8886 80.2147 0.0000 0.0000 0.0000
# 2 -0.8886 38.2048 -10.1496 0.0000 0.0000 0.0000
# 3 80.2147 -10.1496 148.7149 0.0000 0.0000 0.0000
# 4 0.0000 0.0000 0.0000 13.6844 0.0000 0.0000
# 5 0.0000 0.0000 0.0000 0.0000 70.7902 0.0000
# 6 0.0000 0.0000 0.0000 0.0000 0.0000 97.5595
#
#
#
# Elastic Compliance Matrix: (Units=1/GPa)
#
#
# Indices 1 2 3 4 5 6 
#
# 1 0.006030 -0.000737 -0.003303 0.000000 0.000000 0.000000
# 2 -0.000737 0.026748 0.002223 0.000000 0.000000 0.000000
# 3 -0.003303 0.002223 0.008658 0.000000 0.000000 0.000000
# 4 0.000000 0.000000 0.000000 0.073076 0.000000 0.000000
# 5 0.000000 0.000000 0.000000 0.000000 0.014126 0.000000
# 6 0.000000 0.000000 0.000000 0.000000 0.000000 0.010250
#
#
# Mechanical properties :
#
#
# Convention : Reuss Voigt Hill
#
# Bulk Modulus (GPa) = 26.45358 59.43599 42.94478
# Shear Modulus (GPa) = 32.23230 58.23309 45.23270
#
# Velocity S-wave (km/s) = 3.98514 5.35652 4.72089
# Velocity P-wave (km/s) = 5.84886 8.21835 7.13269
#
# Compressibility (1/GPa) = 0.03780207
#
# Stress axis : x y z
#
# Youngs Moduli (GPa) = 165.82381 37.38568 115.50488
#
# Poissons Ratio (x) = 0.02756 0.38152
# Poissons Ratio (y) = 0.12225 -0.25679
# Poissons Ratio (z) = 0.54773 -0.08312
#
# Static dielectric constant tensor:
#      x y z
#    x 1.718250 0.000000 0.000000 
#    y 0.000000 1.777380 0.000000 
#    z 0.000000 0.000000 2.148850 
# 
# From -- ./inp_files/69738.got.cif
#   From: 2010.05.17/outbox.cif.g08.bks.cpg/sg71_35_cif.got.tgz:69738.got - 2010.06.03 16:22:01.
