data_PCOD9518835
_publ_section_title
;
Structure prediction by ZEFSAII (Michael W. Deem and Ramdas Pophale) SiO2 
 PCOD9518835
Probable space group: I M M M
;
_chemical_formula_sum "Si O2"
_cell_formula_units_Z 96
_cell_length_a 31.116738
_cell_length_b 7.652296
_cell_length_c 19.530764
_cell_angle_alpha 90.000000
_cell_angle_beta 90.000000
_cell_angle_gamma 90.000000
_cell_volume 4650.557904
_symmetry_space_group_name_H-M "I M M M"
_symmetry_group_IT_number 71
_symmetry_cell_setting 'orthorhombic'
loop_
_space_group_symop_operation_xyz
x,y,z
-x,-y,z
x,-y,-z
-x,y,-z
-x,-y,-z
x,y,-z
-x,y,z
x,-y,z
1/2+x,1/2+y,1/2+z
1/2-x,1/2-y,1/2+z
1/2+x,1/2-y,1/2-z
1/2-x,1/2+y,1/2-z
1/2-x,1/2-y,1/2-z
1/2+x,1/2+y,1/2-z
1/2-x,1/2+y,1/2+z
1/2+x,1/2-y,1/2+z
loop_
_atom_site_type_symbol
_atom_site_label
_atom_site_fract_x
_atom_site_fract_y
_atom_site_fract_z
Si Si1 0.201776 0.706202 0.228655
Si Si2 0.427511 0.711342 0.574657
Si Si3 0.327814 0.709293 0.575551
Si Si4 0.544629 0.202052 0.281713
Si Si5 0.450950 0.212646 0.079303
Si Si6 0.880303 0.713525 0.690036
O O1 0.196584 0.500000 0.231884
O O2 0.250000 0.750000 0.250000
O O3 0.193662 0.750536 0.148571
O O4 0.166469 0.776887 0.283872
O O5 0.443718 0.760821 0.500000
O O6 0.429178 0.500000 0.579803
O O7 0.377593 0.766104 0.579814
O O8 0.452473 0.789125 0.637438
O O9 0.311102 0.771780 0.500000
O O10 0.327875 0.500000 0.571448
O O11 0.500000 0.285393 0.259004
O O12 0.588329 0.272386 0.251474
O O13 0.543723 0.000000 0.259425
O O14 0.500000 0.266420 0.100128
O O15 0.409736 0.268789 0.124782
O O16 0.451327 0.000000 0.082126
O O17 0.445455 0.263682 0.000000
O O18 0.877332 0.500000 0.684697
#
# Coordination Sequence:
#
# PCOD9518835 Si02
#       6
#    16  16  16  16  16  16
#     4  11  22  36  55  79 107 140 179 223 271 324
#     4   9  18  32  49  69  97 133 170 209 252 300
#     4   9  18  35  58  80 102 133 175 221 268 317
#     4  10  19  30  46  70 100 133 170 212 255 302
#     4   8  13  23  43  71 101 133 167 203 250 313
#     4   9  17  30  46  68  99 134 170 211 260 310
#
# _framework density 20.642683000000002
#
# number of rings (size 3 to 8) (size 9 to 14) (size 15 to 20)
#    0.000    2.667    1.667    2.500    0.000    3.333 
#    0.000    4.167    0.000    3.000    0.000    0.000 
#    0.000    2.000    0.000   18.500    0.000   16.667 
#
# Total GULP energy -267220.239238 kJ/mol
# GULP energy per Si atom -5567.088317 kJ/mol
# Density = 2.059570 g / cm^3
# Si number density = 20.642683 Si / 1000 Ang^3
#
#
#
# Elastic Constant Matrix: (Units=GPa)
#
#
# Indices 1 2 3 4 5 6 
#
# 1 163.1515 5.5242 85.4168 0.0000 0.0000 0.0000
# 2 5.5242 34.6239 3.4713 0.0000 0.0000 0.0000
# 3 85.4168 3.4713 164.6762 0.0000 0.0000 0.0000
# 4 0.0000 0.0000 0.0000 -39.2367 0.0000 0.0000
# 5 0.0000 0.0000 0.0000 0.0000 53.5228 0.0000
# 6 0.0000 0.0000 0.0000 0.0000 0.0000 -14.4048
#
#
#
# Elastic Compliance Matrix: (Units=1/GPa)
#
#
# Indices 1 2 3 4 5 6 
#
# 1 0.008443 -0.000910 -0.004360 0.000000 0.000000 0.000000
# 2 -0.000910 0.029041 -0.000140 0.000000 0.000000 0.000000
# 3 -0.004360 -0.000140 0.008337 0.000000 0.000000 0.000000
# 4 0.000000 0.000000 0.000000 -0.025486 0.000000 0.000000
# 5 0.000000 0.000000 0.000000 0.000000 0.018684 0.000000
# 6 0.000000 0.000000 0.000000 0.000000 0.000000 -0.069421
#
#
# Mechanical properties :
#
#
# Convention : Reuss Voigt Hill
#
# Bulk Modulus (GPa) = 28.57102 61.25290 44.91196
# Shear Modulus (GPa) = -631.64443 17.84553 -306.89945
#
# Velocity S-wave (km/s) = -17.51153 2.94342 -12.20635
# Velocity P-wave (km/s) = 19.87463 6.42565 13.29872
#
# Compressibility (1/GPa) = 0.03500050
#
# Stress axis : x y z
#
# Youngs Moduli (GPa) = 118.44491 34.43403 119.94719
#
# Poissons Ratio (x) = 0.03133 0.52297
# Poissons Ratio (y) = 0.10778 0.01682
# Poissons Ratio (z) = 0.51642 0.00483
#
# Static dielectric constant tensor:
#      x y z
#    x 1.713880 0.000000 0.000000 
#    y 0.000000 1.833020 0.000000 
#    z 0.000000 0.000000 1.771790 
# 
# From -- ./inp_files/48059.got.cif
#   From: 2010.05.17/outbox.cif.g08.bks.cpg/sg71_25_cif.got.tgz:48059.got - 2010.06.03 16:22:01.
