data_PCOD9518725
_publ_section_title
;
Structure prediction by ZEFSAII (Michael W. Deem and Ramdas Pophale) SiO2 
 PCOD9518725
Probable space group: I M M M
;
_chemical_formula_sum "Si O2"
_cell_formula_units_Z 100
_cell_length_a 7.800170
_cell_length_b 23.924304
_cell_length_c 28.610317
_cell_angle_alpha 90.000000
_cell_angle_beta 90.000000
_cell_angle_gamma 90.000000
_cell_volume 5339.075349
_symmetry_space_group_name_H-M "I M M M"
_symmetry_group_IT_number 71
_symmetry_cell_setting 'orthorhombic'
loop_
_space_group_symop_operation_xyz
x,y,z
-x,-y,z
x,-y,-z
-x,y,-z
-x,-y,-z
x,y,-z
-x,y,z
x,-y,z
1/2+x,1/2+y,1/2+z
1/2-x,1/2-y,1/2+z
1/2+x,1/2-y,1/2-z
1/2-x,1/2+y,1/2-z
1/2-x,1/2-y,1/2-z
1/2+x,1/2+y,1/2-z
1/2-x,1/2+y,1/2+z
1/2+x,1/2-y,1/2+z
loop_
_atom_site_type_symbol
_atom_site_label
_atom_site_fract_x
_atom_site_fract_y
_atom_site_fract_z
Si Si1 0.000000 0.500000 0.371675
Si Si2 0.302364 0.667503 0.152971
Si Si3 0.201332 0.823430 0.926075
Si Si4 0.209370 0.117141 0.254335
Si Si5 0.000000 0.406473 0.449352
Si Si6 0.704484 0.196746 0.550550
Si Si7 0.702134 0.708501 0.680070
Si Si8 0.293163 0.500000 0.704865
O O1 0.000000 0.552818 0.405661
O O2 0.829437 0.500000 0.339993
O O3 0.500000 0.652916 0.150004
O O4 0.224915 0.628432 0.193306
O O5 0.240722 0.666548 0.099568
O O6 0.285006 0.730886 0.172816
O O7 0.331125 0.868163 0.945859
O O8 0.256382 0.761522 0.942684
O O9 0.215755 0.822512 0.869755
O O10 0.000000 0.831740 0.937996
O O11 0.268707 0.167583 0.220370
O O12 0.248272 0.056434 0.233600
O O13 0.000000 0.120789 0.254491
O O14 0.000000 0.434591 0.500000
O O15 0.771329 0.176140 0.500000
O O16 0.500000 0.197630 0.547713
O O17 0.500000 0.719101 0.688275
O O18 0.500000 0.500000 0.694708
#
# Coordination Sequence:
#
# PCOD9518725 Si02
#       8
#     4  16  16  16   8  16  16   8
#     4  12  27  44  56  84 100 126 195 234 272 342
#     4  10  19  29  46  79 110 134 168 209 260 323
#     4   9  19  35  55  78 104 139 185 220 258 320
#     4   9  18  34  55  75 101 136 172 211 268 326
#     4  12  25  38  56  76 106 142 176 234 289 313
#     4   9  18  33  50  71 104 144 180 210 248 312
#     4   9  17  31  49  74 105 140 172 207 258 322
#     4  10  22  45  65  77 103 141 179 232 281 315
#
# _framework density 18.729834
#
# number of rings (size 3 to 8) (size 9 to 14) (size 15 to 20)
#    0.000    2.400    0.000    3.480    4.480    3.200 
#    4.320    0.000    0.000    1.440    0.000    0.560 
#    0.000    4.480    0.000    0.000    0.000    0.000 
#
# Total GULP energy -278805.203635 kJ/mol
# GULP energy per Si atom -5576.104073 kJ/mol
# Density = 1.868720 g / cm^3
# Si number density = 18.729834 Si / 1000 Ang^3
#
#
#
# Elastic Constant Matrix: (Units=GPa)
#
#
# Indices 1 2 3 4 5 6 
#
# 1 44.6293 16.4647 32.3006 0.0000 0.0000 0.0000
# 2 16.4647 43.2897 50.8760 0.0000 0.0000 0.0000
# 3 32.3006 50.8760 175.0190 0.0000 0.0000 0.0000
# 4 0.0000 0.0000 0.0000 28.0443 0.0000 0.0000
# 5 0.0000 0.0000 0.0000 0.0000 33.2716 0.0000
# 6 0.0000 0.0000 0.0000 0.0000 0.0000 84.0130
#
#
#
# Elastic Compliance Matrix: (Units=1/GPa)
#
#
# Indices 1 2 3 4 5 6 
#
# 1 0.027092 -0.006726 -0.003045 0.000000 0.000000 0.000000
# 2 -0.006726 0.036757 -0.009443 0.000000 0.000000 0.000000
# 3 -0.003045 -0.009443 0.009021 0.000000 0.000000 0.000000
# 4 0.000000 0.000000 0.000000 0.035658 0.000000 0.000000
# 5 0.000000 0.000000 0.000000 0.000000 0.030056 0.000000
# 6 0.000000 0.000000 0.000000 0.000000 0.000000 0.011903
#
#
# Mechanical properties :
#
#
# Convention : Reuss Voigt Hill
#
# Bulk Modulus (GPa) = 29.03495 51.35784 40.19640
# Shear Modulus (GPa) = 24.95088 39.95223 32.45155
#
# Velocity S-wave (km/s) = 3.65382 4.62354 4.16698
# Velocity P-wave (km/s) = 5.77375 7.48216 6.68277
#
# Compressibility (1/GPa) = 0.03444125
#
# Stress axis : x y z
#
# Youngs Moduli (GPa) = 36.91157 27.20600 110.85585
#
# Poissons Ratio (x) = 0.18298 0.33754
# Poissons Ratio (y) = 0.24825 1.04686
# Poissons Ratio (z) = 0.11239 0.25692
#
# Static dielectric constant tensor:
#      x y z
#    x 1.686390 0.000000 0.000000 
#    y 0.000000 1.621080 0.000000 
#    z 0.000000 0.000000 1.713460 
# 
# From -- ./inp_files/68312.got.cif
#   From: 2010.05.17/outbox.cif.g08.bks.cpg/sg71_35_cif.got.tgz:68312.got - 2010.06.03 16:22:01.
