data_PCOD9518342
_publ_section_title
;
Structure prediction by ZEFSAII (Michael W. Deem and Ramdas Pophale) SiO2 
 PCOD9518342
Probable space group: I M M M
;
_chemical_formula_sum "Si O2"
_cell_formula_units_Z 104
_cell_length_a 20.700070
_cell_length_b 17.607923
_cell_length_c 18.417729
_cell_angle_alpha 90.000000
_cell_angle_beta 90.000000
_cell_angle_gamma 90.000000
_cell_volume 6712.990350
_symmetry_space_group_name_H-M "I M M M"
_symmetry_group_IT_number 71
_symmetry_cell_setting 'orthorhombic'
loop_
_space_group_symop_operation_xyz
x,y,z
-x,-y,z
x,-y,-z
-x,y,-z
-x,-y,-z
x,y,-z
-x,y,z
x,-y,z
1/2+x,1/2+y,1/2+z
1/2-x,1/2-y,1/2+z
1/2+x,1/2-y,1/2-z
1/2-x,1/2+y,1/2-z
1/2-x,1/2-y,1/2-z
1/2+x,1/2+y,1/2-z
1/2-x,1/2+y,1/2+z
1/2+x,1/2-y,1/2+z
loop_
_atom_site_type_symbol
_atom_site_label
_atom_site_fract_x
_atom_site_fract_y
_atom_site_fract_z
Si Si1 0.175503 0.772213 0.916276
Si Si2 0.306985 0.684129 0.084459
Si Si3 0.146646 0.912808 0.716845
Si Si4 0.923686 0.773069 0.785788
Si Si5 0.622762 0.826480 0.152101
Si Si6 0.000000 0.588358 0.586931
Si Si7 0.255421 0.413126 0.650100
O O1 0.233608 0.712594 0.900904
O O2 0.117549 0.764707 0.859346
O O3 0.207968 0.854762 0.902919
O O4 0.155919 0.764276 0.000000
O O5 0.328887 0.619305 0.140013
O O6 0.351821 0.757070 0.102208
O O7 0.312273 0.663515 0.000000
O O8 0.094196 0.854545 0.749637
O O9 0.205926 0.909092 0.773956
O O10 0.124826 0.000000 0.712388
O O11 0.898627 0.710991 0.727993
O O12 0.000000 0.766428 0.797026
O O13 0.562974 0.869594 0.117011
O O14 0.683242 0.882640 0.160625
O O15 0.000000 0.500000 0.608891
O O16 0.000000 0.591797 0.500000
O O17 0.256141 0.500000 0.624546
#
# Coordination Sequence:
#
# PCOD9518342 Si02
#       7
#    16  16  16  16  16   8  16
#     4   9  18  31  48  73 100 122 155 199 241 288
#     4   9  17  30  49  70  93 122 152 194 247 286
#     4   9  18  31  48  70  93 119 158 203 240 281
#     4  10  19  32  50  69  93 131 166 197 235 277
#     4  10  18  32  48  68  93 127 162 195 226 283
#     4  11  22  32  44  68 100 128 154 189 232 280
#     4   9  17  30  49  70  94 124 155 192 240 287
#
# _framework density 15.49235
#
# number of rings (size 3 to 8) (size 9 to 14) (size 15 to 20)
#    0.000    2.538    0.769    1.846    0.000    5.538 
#    0.000    0.000    0.000    0.000    0.000    6.462 
#    0.000    0.615    0.000    0.000    0.000    0.000 
#
# Total GULP energy -289866.241861 kJ/mol
# GULP energy per Si atom -5574.350805 kJ/mol
# Density = 1.545709 g / cm^3
# Si number density = 15.492350 Si / 1000 Ang^3
#
#
#
# Elastic Constant Matrix: (Units=GPa)
#
#
# Indices 1 2 3 4 5 6 
#
# 1 80.4436 -0.7478 34.8660 0.0000 0.0000 0.0000
# 2 -0.7478 34.3978 17.7652 0.0000 0.0000 0.0000
# 3 34.8660 17.7652 91.1464 0.0000 0.0000 0.0000
# 4 0.0000 0.0000 0.0000 13.6521 0.0000 0.0000
# 5 0.0000 0.0000 0.0000 0.0000 15.6440 0.0000
# 6 0.0000 0.0000 0.0000 0.0000 0.0000 12.8392
#
#
#
# Elastic Compliance Matrix: (Units=1/GPa)
#
#
# Indices 1 2 3 4 5 6 
#
# 1 0.015322 0.003736 -0.006589 0.000000 0.000000 0.000000
# 2 0.003736 0.033237 -0.007907 0.000000 0.000000 0.000000
# 3 -0.006589 -0.007907 0.015033 0.000000 0.000000 0.000000
# 4 0.000000 0.000000 0.000000 0.073249 0.000000 0.000000
# 5 0.000000 0.000000 0.000000 0.000000 0.063922 0.000000
# 6 0.000000 0.000000 0.000000 0.000000 0.000000 0.077887
#
#
# Mechanical properties :
#
#
# Convention : Reuss Voigt Hill
#
# Bulk Modulus (GPa) = 23.76944 34.41719 29.09331
# Shear Modulus (GPa) = 15.91376 18.70068 17.30722
#
# Velocity S-wave (km/s) = 3.20847 3.47809 3.34600
# Velocity P-wave (km/s) = 5.39460 6.19623 5.80926
#
# Compressibility (1/GPa) = 0.04207083
#
# Stress axis : x y z
#
# Youngs Moduli (GPa) = 65.26697 30.08724 66.51986
#
# Poissons Ratio (x) = -0.11241 0.43831
# Poissons Ratio (y) = -0.24385 0.52599
# Poissons Ratio (z) = 0.43006 0.23791
#
# Static dielectric constant tensor:
#      x y z
#    x 1.491970 0.000000 0.000000 
#    y 0.000000 1.510140 0.000000 
#    z 0.000000 0.000000 1.499030 
# 
# From -- ./inp_files/46116.got.cif
#   From: 2010.05.17/outbox.cif.g08.bks.cpg/sg71_24_cif.got.tgz:46116.got - 2010.06.03 16:22:01.
