data_PCOD9518693
_publ_section_title
;
Structure prediction by ZEFSAII (Michael W. Deem and Ramdas Pophale) SiO2 
 PCOD9518693
Probable space group: I M M M
;
_chemical_formula_sum "Si O2"
_cell_formula_units_Z 112
_cell_length_a 30.539286
_cell_length_b 7.284409
_cell_length_c 22.838982
_cell_angle_alpha 90.000000
_cell_angle_beta 90.000000
_cell_angle_gamma 90.000000
_cell_volume 5080.774776
_symmetry_space_group_name_H-M "I M M M"
_symmetry_group_IT_number 71
_symmetry_cell_setting 'orthorhombic'
loop_
_space_group_symop_operation_xyz
x,y,z
-x,-y,z
x,-y,-z
-x,y,-z
-x,-y,-z
x,y,-z
-x,y,z
x,-y,z
1/2+x,1/2+y,1/2+z
1/2-x,1/2-y,1/2+z
1/2+x,1/2-y,1/2-z
1/2-x,1/2+y,1/2-z
1/2-x,1/2-y,1/2-z
1/2+x,1/2+y,1/2-z
1/2-x,1/2+y,1/2+z
1/2+x,1/2-y,1/2+z
loop_
_atom_site_type_symbol
_atom_site_label
_atom_site_fract_x
_atom_site_fract_y
_atom_site_fract_z
Si Si1 0.547997 0.722579 0.431096
Si Si2 0.596890 0.223235 0.065888
Si Si3 0.729483 0.275816 0.566898
Si Si4 0.548791 0.776648 0.817752
Si Si5 0.138825 0.788621 0.882016
Si Si6 0.184548 0.723205 0.367509
Si Si7 0.864130 0.721594 0.747482
O O1 0.551925 0.766892 0.500000
O O2 0.500000 0.786394 0.410258
O O3 0.547028 0.500000 0.426726
O O4 0.591243 0.789937 0.398111
O O5 0.563125 0.278816 0.116608
O O6 0.645160 0.276535 0.088716
O O7 0.596239 0.000000 0.064992
O O8 0.588099 0.285662 0.000000
O O9 0.738494 0.224304 0.500000
O O10 0.729208 0.500000 0.569112
O O11 0.681741 0.210269 0.586970
O O12 0.768662 0.215252 0.609166
O O13 0.500000 0.715262 0.802933
O O14 0.587654 0.719201 0.774409
O O15 0.548800 0.000000 0.817136
O O16 0.145443 0.784329 0.812579
O O17 0.136926 0.000000 0.902040
O O18 0.184849 0.500000 0.367238
O O19 0.170071 0.780856 0.302528
O O20 0.863941 0.500000 0.748115
#
# Coordination Sequence:
#
# PCOD9518693 Si02
#       7
#    16  16  16  16  16  16  16
#     4   8  14  26  44  64  86 111 137 170 216 262
#     4   8  12  18  31  53  81 110 137 168 209 252
#     4   9  16  26  43  66  88 108 133 172 217 251
#     4   8  14  24  37  54  78 109 143 175 205 241
#     4  10  19  29  44  68  90 106 135 178 214 245
#     4   8  14  25  40  58  82 113 145 170 198 245
#     4   9  18  31  44  59  84 119 149 168 197 247
#
# _framework density 22.043880999999999
#
# number of rings (size 3 to 8) (size 9 to 14) (size 15 to 20)
#    0.000    3.429    0.000    3.000    0.000    4.857 
#    0.000    1.429    0.000    1.714    0.000    1.000 
#    0.000   13.714    0.000    5.143    0.000    5.714 
#
# Total GULP energy -312557.396117 kJ/mol
# GULP energy per Si atom -5581.382074 kJ/mol
# Density = 2.199371 g / cm^3
# Si number density = 22.043881 Si / 1000 Ang^3
#
#
#
# Elastic Constant Matrix: (Units=GPa)
#
#
# Indices 1 2 3 4 5 6 
#
# 1 177.0938 6.2243 52.7913 0.0000 0.0000 0.0000
# 2 6.2243 92.6955 -8.4355 0.0000 0.0000 0.0000
# 3 52.7913 -8.4355 61.8479 0.0000 0.0000 0.0000
# 4 0.0000 0.0000 0.0000 5.2884 0.0000 0.0000
# 5 0.0000 0.0000 0.0000 0.0000 22.9336 0.0000
# 6 0.0000 0.0000 0.0000 0.0000 0.0000 -105.9770
#
#
#
# Elastic Compliance Matrix: (Units=1/GPa)
#
#
# Indices 1 2 3 4 5 6 
#
# 1 0.007689 -0.001127 -0.006716 0.000000 0.000000 0.000000
# 2 -0.001127 0.011089 0.002475 0.000000 0.000000 0.000000
# 3 -0.006716 0.002475 0.022239 0.000000 0.000000 0.000000
# 4 0.000000 0.000000 0.000000 0.189094 0.000000 0.000000
# 5 0.000000 0.000000 0.000000 0.000000 0.043604 0.000000
# 6 0.000000 0.000000 0.000000 0.000000 0.000000 -0.009436
#
#
# Mechanical properties :
#
#
# Convention : Reuss Voigt Hill
#
# Bulk Modulus (GPa) = 33.02681 48.08858 40.55769
# Shear Modulus (GPa) = 17.53711 3.18614 10.36162
#
# Velocity S-wave (km/s) = 2.82362 1.20354 2.17040
# Velocity P-wave (km/s) = 5.06411 4.87787 4.97186
#
# Compressibility (1/GPa) = 0.03027843
#
# Stress axis : x y z
#
# Youngs Moduli (GPa) = 130.06417 90.17997 44.96566
#
# Poissons Ratio (x) = 0.10168 0.30201
# Poissons Ratio (y) = 0.14664 -0.11128
# Poissons Ratio (z) = 0.87357 -0.22318
#
# Static dielectric constant tensor:
#      x y z
#    x 1.790200 0.000000 0.000000 
#    y 0.000000 1.888610 0.000000 
#    z 0.000000 0.000000 1.741930 
# 
# From -- ./inp_files/56408.got.cif
#   From: 2010.05.17/outbox.cif.g08.bks.cpg/sg71_29_cif.got.tgz:56408.got - 2010.06.03 16:22:01.
