data_PCOD9518120
_publ_section_title
;
Structure prediction by ZEFSAII (Michael W. Deem and Ramdas Pophale) SiO2 
 PCOD9518120
Probable space group: I M M M
;
_chemical_formula_sum "Si O2"
_cell_formula_units_Z 104
_cell_length_a 29.444898
_cell_length_b 21.736746
_cell_length_c 7.688867
_cell_angle_alpha 90.000000
_cell_angle_beta 90.000000
_cell_angle_gamma 90.000000
_cell_volume 4921.153746
_symmetry_space_group_name_H-M "I M M M"
_symmetry_group_IT_number 71
_symmetry_cell_setting 'orthorhombic'
loop_
_space_group_symop_operation_xyz
x,y,z
-x,-y,z
x,-y,-z
-x,y,-z
-x,-y,-z
x,y,-z
-x,y,z
x,-y,z
1/2+x,1/2+y,1/2+z
1/2-x,1/2-y,1/2+z
1/2+x,1/2-y,1/2-z
1/2-x,1/2+y,1/2-z
1/2-x,1/2-y,1/2-z
1/2+x,1/2+y,1/2-z
1/2-x,1/2+y,1/2+z
1/2+x,1/2-y,1/2+z
loop_
_atom_site_type_symbol
_atom_site_label
_atom_site_fract_x
_atom_site_fract_y
_atom_site_fract_z
Si Si1 0.205617 0.682559 0.795033
Si Si2 0.051170 0.380604 0.287426
Si Si3 0.855671 0.433335 0.710329
Si Si4 0.447414 0.258521 0.789260
Si Si5 0.053282 0.000000 0.286541
Si Si6 0.809012 0.817226 0.798305
Si Si7 0.396238 0.377296 0.796089
O O1 0.173415 0.624898 0.767174
O O2 0.185737 0.747445 0.724446
O O3 0.255474 0.670221 0.718944
O O4 0.212437 0.692370 0.000000
O O5 0.050255 0.380687 0.500000
O O6 0.092237 0.423677 0.233122
O O7 0.062500 0.310768 0.229717
O O8 0.000000 0.396066 0.230738
O O9 0.855122 0.433006 0.500000
O O10 0.838607 0.500000 0.769788
O O11 0.500000 0.271482 0.749860
O O12 0.417232 0.314181 0.721416
O O13 0.443142 0.256436 0.000000
O O14 0.080414 0.939040 0.226278
O O15 0.053740 0.000000 0.500000
O O16 0.000000 0.000000 0.235776
O O17 0.842248 0.867710 0.717277
O O18 0.821255 0.816435 0.000000
O O19 0.407990 0.377499 0.000000
#
# Coordination Sequence:
#
# PCOD9518120 Si02
#       7
#    16  16  16  16   8  16  16
#     4  10  21  38  59  81 104 135 175 221 273 329
#     4   8  14  25  43  71 105 137 172 215 257 298
#     4  10  20  33  51  78 111 145 178 213 258 308
#     4   8  13  22  41  70 100 132 173 218 259 299
#     4   9  18  32  51  79 115 151 189 231 270 319
#     4  10  21  37  58  82 106 131 169 224 281 330
#     4  10  18  30  51  78 107 143 182 220 267 322
#
# _framework density 21.133257
#
# number of rings (size 3 to 8) (size 9 to 14) (size 15 to 20)
#    0.000    2.692    0.000    3.231    0.000    5.538 
#    1.385    1.923    0.000    2.769    0.000    7.538 
#    0.000    0.000    0.000    0.000    0.000    0.000 
#
# Total GULP energy -290099.193291 kJ/mol
# GULP energy per Si atom -5578.830640 kJ/mol
# Density = 2.108516 g / cm^3
# Si number density = 21.133257 Si / 1000 Ang^3
#
#
#
# Elastic Constant Matrix: (Units=GPa)
#
#
# Indices 1 2 3 4 5 6 
#
# 1 90.8200 72.4155 -3.8416 0.0000 0.0000 0.0000
# 2 72.4155 94.8478 2.4948 0.0000 0.0000 0.0000
# 3 -3.8416 2.4948 37.4310 0.0000 0.0000 0.0000
# 4 0.0000 0.0000 0.0000 9.4174 0.0000 0.0000
# 5 0.0000 0.0000 0.0000 0.0000 3.4461 0.0000
# 6 0.0000 0.0000 0.0000 0.0000 0.0000 25.1972
#
#
#
# Elastic Compliance Matrix: (Units=1/GPa)
#
#
# Indices 1 2 3 4 5 6 
#
# 1 0.028862 -0.022153 0.004439 0.000000 0.000000 0.000000
# 2 -0.022153 0.027565 -0.004111 0.000000 0.000000 0.000000
# 3 0.004439 -0.004111 0.027445 0.000000 0.000000 0.000000
# 4 0.000000 0.000000 0.000000 0.106186 0.000000 0.000000
# 5 0.000000 0.000000 0.000000 0.000000 0.290187 0.000000
# 6 0.000000 0.000000 0.000000 0.000000 0.000000 0.039687
#
#
# Mechanical properties :
#
#
# Convention : Reuss Voigt Hill
#
# Bulk Modulus (GPa) = 24.86172 40.58180 32.72176
# Shear Modulus (GPa) = 8.66568 17.74747 13.20657
#
# Velocity S-wave (km/s) = 2.02716 2.90105 2.50255
# Velocity P-wave (km/s) = 4.15560 5.51960 4.88544
#
# Compressibility (1/GPa) = 0.04022247
#
# Stress axis : x y z
#
# Youngs Moduli (GPa) = 34.64758 36.27823 36.43610
#
# Poissons Ratio (x) = 0.80366 -0.16173
# Poissons Ratio (y) = 0.76754 0.14978
# Poissons Ratio (z) = -0.15379 0.14913
#
# Static dielectric constant tensor:
#      x y z
#    x 1.745850 0.000000 0.000000 
#    y 0.000000 1.767760 0.000000 
#    z 0.000000 0.000000 1.825680 
# 
# From -- ./inp_files/16987.got.cif
#   From: 2010.05.17/outbox.cif.g08.bks.cpg/sg71_9_cif.got.tgz:16987.got - 2010.06.03 16:22:01.
