data_PCOD9518430
_publ_section_title
;
Structure prediction by ZEFSAII (Michael W. Deem and Ramdas Pophale) SiO2 
 PCOD9518430
Probable space group: I M M M
;
_chemical_formula_sum "Si O2"
_cell_formula_units_Z 104
_cell_length_a 7.658921
_cell_length_b 23.359540
_cell_length_c 27.369508
_cell_angle_alpha 90.000000
_cell_angle_beta 90.000000
_cell_angle_gamma 90.000000
_cell_volume 4896.647789
_symmetry_space_group_name_H-M "I M M M"
_symmetry_group_IT_number 71
_symmetry_cell_setting 'orthorhombic'
loop_
_space_group_symop_operation_xyz
x,y,z
-x,-y,z
x,-y,-z
-x,y,-z
-x,-y,-z
x,y,-z
-x,y,z
x,-y,z
1/2+x,1/2+y,1/2+z
1/2-x,1/2-y,1/2+z
1/2+x,1/2-y,1/2-z
1/2-x,1/2+y,1/2-z
1/2-x,1/2-y,1/2-z
1/2+x,1/2+y,1/2-z
1/2-x,1/2+y,1/2+z
1/2+x,1/2-y,1/2+z
loop_
_atom_site_type_symbol
_atom_site_label
_atom_site_fract_x
_atom_site_fract_y
_atom_site_fract_z
Si Si1 0.787762 0.895306 0.944431
Si Si2 0.800485 0.228971 0.941480
Si Si3 0.206380 0.561093 0.343310
Si Si4 0.288474 0.180084 0.799069
Si Si5 0.706082 0.435715 0.000000
Si Si6 0.710927 0.851752 0.588911
Si Si7 0.792367 0.307588 0.188134
O O1 0.719260 0.832074 0.928924
O O2 0.730330 0.936332 0.901569
O O3 0.000000 0.893054 0.945031
O O4 0.732822 0.908528 0.000000
O O5 0.720735 0.289994 0.929278
O O6 0.000000 0.229131 0.922325
O O7 0.811830 0.226745 0.000000
O O8 0.278540 0.500000 0.325248
O O9 0.277733 0.620876 0.322216
O O10 0.000000 0.561286 0.332331
O O11 0.500000 0.179333 0.799304
O O12 0.238602 0.240398 0.824195
O O13 0.223375 0.183268 0.742848
O O14 0.748184 0.400087 0.950773
O O15 0.783418 0.500000 0.000000
O O16 0.500000 0.441250 0.000000
O O17 0.500000 0.849777 0.589165
O O18 0.770256 0.850531 0.645558
O O19 0.000000 0.315346 0.191248
#
# Coordination Sequence:
#
# PCOD9518430 Si02
#       7
#    16  16  16  16   8  16  16
#     4   9  18  32  51  74 100 129 165 212 259 298
#     4   8  13  24  45  72  99 124 150 191 247 296
#     4  10  21  35  49  66  97 142 179 207 245 296
#     4   9  18  34  53  78 111 141 171 210 262 319
#     4  11  25  41  53  71 107 149 182 217 268 329
#     4  10  18  32  56  81 103 132 174 217 259 313
#     4   9  18  32  56  86 109 131 166 218 273 317
#
# _framework density 21.23902
#
# number of rings (size 3 to 8) (size 9 to 14) (size 15 to 20)
#    0.000    2.692    0.769    2.077    0.000    4.000 
#    0.000    3.077    0.000    2.769    0.000    0.000 
#    0.000    0.000    0.000    0.000    0.000    0.000 
#
# Total GULP energy -289787.393296 kJ/mol
# GULP energy per Si atom -5572.834486 kJ/mol
# Density = 2.119068 g / cm^3
# Si number density = 21.239020 Si / 1000 Ang^3
#
#
#
# Elastic Constant Matrix: (Units=GPa)
#
#
# Indices 1 2 3 4 5 6 
#
# 1 40.0744 -4.0841 1.8263 0.0000 0.0000 0.0000
# 2 -4.0841 135.1197 75.8970 0.0000 0.0000 0.0000
# 3 1.8263 75.8970 109.7660 0.0000 0.0000 0.0000
# 4 0.0000 0.0000 0.0000 11.5083 0.0000 0.0000
# 5 0.0000 0.0000 0.0000 0.0000 13.7047 0.0000
# 6 0.0000 0.0000 0.0000 0.0000 0.0000 11.7988
#
#
#
# Elastic Compliance Matrix: (Units=1/GPa)
#
#
# Indices 1 2 3 4 5 6 
#
# 1 0.025190 0.001630 -0.001546 0.000000 0.000000 0.000000
# 2 0.001630 0.012206 -0.008467 0.000000 0.000000 0.000000
# 3 -0.001546 -0.008467 0.014990 0.000000 0.000000 0.000000
# 4 0.000000 0.000000 0.000000 0.086894 0.000000 0.000000
# 5 0.000000 0.000000 0.000000 0.000000 0.072968 0.000000
# 6 0.000000 0.000000 0.000000 0.000000 0.000000 0.084755
#
#
# Mechanical properties :
#
#
# Convention : Reuss Voigt Hill
#
# Bulk Modulus (GPa) = 28.07388 48.02649 38.05019
# Shear Modulus (GPa) = 15.35427 21.49041 18.42234
#
# Velocity S-wave (km/s) = 2.69165 3.18439 2.94833
# Velocity P-wave (km/s) = 4.78610 6.01514 5.43547
#
# Compressibility (1/GPa) = 0.03562030
#
# Stress axis : x y z
#
# Youngs Moduli (GPa) = 39.69808 81.92735 66.70964
#
# Poissons Ratio (x) = -0.13353 0.10314
# Poissons Ratio (y) = -0.06470 0.56482
# Poissons Ratio (z) = 0.06137 0.69366
#
# Static dielectric constant tensor:
#      x y z
#    x 1.796770 0.000000 0.000000 
#    y 0.000000 1.798610 0.000000 
#    z 0.000000 0.000000 1.813400 
# 
# From -- ./inp_files/63530.got.cif
#   From: 2010.05.17/outbox.cif.g08.bks.cpg/sg71_32_cif.got.tgz:63530.got - 2010.06.03 16:22:01.
