data_PCOD9518908
_publ_section_title
;
Structure prediction by ZEFSAII (Michael W. Deem and Ramdas Pophale) SiO2 
 PCOD9518908
Probable space group: I M M M
;
_chemical_formula_sum "Si O2"
_cell_formula_units_Z 80
_cell_length_a 23.798527
_cell_length_b 9.129470
_cell_length_c 24.785601
_cell_angle_alpha 90.000000
_cell_angle_beta 90.000000
_cell_angle_gamma 90.000000
_cell_volume 5385.116429
_symmetry_space_group_name_H-M "I M M M"
_symmetry_group_IT_number 71
_symmetry_cell_setting 'orthorhombic'
loop_
_space_group_symop_operation_xyz
x,y,z
-x,-y,z
x,-y,-z
-x,y,-z
-x,-y,-z
x,y,-z
-x,y,z
x,-y,z
1/2+x,1/2+y,1/2+z
1/2-x,1/2-y,1/2+z
1/2+x,1/2-y,1/2-z
1/2-x,1/2+y,1/2-z
1/2-x,1/2-y,1/2-z
1/2+x,1/2+y,1/2-z
1/2-x,1/2+y,1/2+z
1/2+x,1/2-y,1/2+z
loop_
_atom_site_type_symbol
_atom_site_label
_atom_site_fract_x
_atom_site_fract_y
_atom_site_fract_z
Si Si1 0.663810 0.173982 0.727676
Si Si2 0.253048 0.174089 0.561159
Si Si3 0.934611 0.825948 0.166558
Si Si4 0.731826 0.826508 0.832295
Si Si5 0.612304 0.174260 0.561411
O O1 0.606372 0.247233 0.708848
O O2 0.681511 0.198519 0.789808
O O3 0.713943 0.244812 0.692540
O O4 0.662342 0.000000 0.717465
O O5 0.236770 0.214123 0.500000
O O6 0.223134 0.262819 0.608313
O O7 0.320451 0.198610 0.565823
O O8 0.244169 0.000000 0.568002
O O9 0.918575 0.763475 0.107665
O O10 0.000000 0.797248 0.177458
O O11 0.924923 0.000000 0.167622
O O12 0.742838 0.000000 0.834180
O O13 0.595523 0.212138 0.500000
O O14 0.602837 0.000000 0.568824
#
# Coordination Sequence:
#
# PCOD9518908 Si02
#       5
#    16  16  16  16  16
#     4  10  20  33  48  67  91 120 154 188 229 280
#     4   9  17  29  46  69  96 124 153 185 224 272
#     4  11  23  35  47  66  91 118 155 201 239 271
#     4  10  19  30  48  72  94 117 149 190 231 273
#     4   9  18  32  48  65  87 119 159 196 230 272
#
# _framework density 14.855760999999999
#
# number of rings (size 3 to 8) (size 9 to 14) (size 15 to 20)
#    0.000    2.200    2.000    3.000    0.000    5.200 
#    0.000    4.000    0.000    0.000    0.000    0.000 
#    0.000    0.800    0.000    8.800    0.000    6.400 
#
# Total GULP energy -223139.693288 kJ/mol
# GULP energy per Si atom -5578.492332 kJ/mol
# Density = 1.482195 g / cm^3
# Si number density = 14.855761 Si / 1000 Ang^3
#
#
#
# Elastic Constant Matrix: (Units=GPa)
#
#
# Indices 1 2 3 4 5 6 
#
# 1 68.9826 56.7726 62.6099 0.0000 0.0000 0.0000
# 2 56.7726 77.2624 75.9533 0.0000 0.0000 0.0000
# 3 62.6099 75.9533 131.0681 0.0000 0.0000 0.0000
# 4 0.0000 0.0000 0.0000 28.6919 0.0000 0.0000
# 5 0.0000 0.0000 0.0000 0.0000 16.1501 0.0000
# 6 0.0000 0.0000 0.0000 0.0000 0.0000 20.9711
#
#
#
# Elastic Compliance Matrix: (Units=1/GPa)
#
#
# Indices 1 2 3 4 5 6 
#
# 1 0.037812 -0.023304 -0.004558 0.000000 0.000000 0.000000
# 2 -0.023304 0.044439 -0.014620 0.000000 0.000000 0.000000
# 3 -0.004558 -0.014620 0.018279 0.000000 0.000000 0.000000
# 4 0.000000 0.000000 0.000000 0.034853 0.000000 0.000000
# 5 0.000000 0.000000 0.000000 0.000000 0.061919 0.000000
# 6 0.000000 0.000000 0.000000 0.000000 0.000000 0.047685
#
#
# Mechanical properties :
#
#
# Convention : Reuss Voigt Hill
#
# Bulk Modulus (GPa) = 64.24041 74.22052 69.23047
# Shear Modulus (GPa) = 14.91912 18.62780 16.77346
#
# Velocity S-wave (km/s) = 3.17245 3.54490 3.36384
# Velocity P-wave (km/s) = 7.53365 8.17462 7.86067
#
# Compressibility (1/GPa) = 0.01556653
#
# Stress axis : x y z
#
# Youngs Moduli (GPa) = 26.44634 22.50281 54.70629
#
# Poissons Ratio (x) = 0.52440 0.24937
# Poissons Ratio (y) = 0.61629 0.79982
# Poissons Ratio (z) = 0.12055 0.32900
#
# Static dielectric constant tensor:
#      x y z
#    x 1.466400 0.000000 0.000000 
#    y 0.000000 1.491400 0.000000 
#    z 0.000000 0.000000 1.509080 
# 
# From -- ./inp_files/16538.got.cif
#   From: 2010.05.17/outbox.cif.g08.bks.cpg/sg71_9_cif.got.tgz:16538.got - 2010.06.03 16:22:01.
