data_PCOD9518998
_publ_section_title
;
Structure prediction by ZEFSAII (Michael W. Deem and Ramdas Pophale) SiO2 
 PCOD9518998
Probable space group: I M M M
;
_chemical_formula_sum "Si O2"
_cell_formula_units_Z 100
_cell_length_a 21.367767
_cell_length_b 8.833722
_cell_length_c 31.894359
_cell_angle_alpha 90.000000
_cell_angle_beta 90.000000
_cell_angle_gamma 90.000000
_cell_volume 6020.280761
_symmetry_space_group_name_H-M "I M M M"
_symmetry_group_IT_number 71
_symmetry_cell_setting 'orthorhombic'
loop_
_space_group_symop_operation_xyz
x,y,z
-x,-y,z
x,-y,-z
-x,y,-z
-x,-y,-z
x,y,-z
-x,y,z
x,-y,z
1/2+x,1/2+y,1/2+z
1/2-x,1/2-y,1/2+z
1/2+x,1/2-y,1/2-z
1/2-x,1/2+y,1/2-z
1/2-x,1/2-y,1/2-z
1/2+x,1/2+y,1/2-z
1/2-x,1/2+y,1/2+z
1/2+x,1/2-y,1/2+z
loop_
_atom_site_type_symbol
_atom_site_label
_atom_site_fract_x
_atom_site_fract_y
_atom_site_fract_z
Si Si1 0.886026 0.825065 0.654311
Si Si2 0.805781 0.819680 0.778874
Si Si3 0.071449 0.320233 0.261897
Si Si4 0.747121 0.818992 0.047371
Si Si5 0.000000 0.689459 0.500000
Si Si6 0.261967 0.820688 0.636244
Si Si7 0.895827 0.672642 0.571696
O O1 0.915345 0.720682 0.689707
O O2 0.811577 0.798105 0.648015
O O3 0.912576 0.785206 0.608964
O O4 0.895429 0.000000 0.665748
O O5 0.750000 0.750000 0.750000
O O6 0.873000 0.763806 0.762476
O O7 0.797506 0.764840 0.826639
O O8 0.801108 0.000000 0.775812
O O9 0.077425 0.500000 0.255513
O O10 0.000000 0.275489 0.251134
O O11 0.774383 0.740435 0.089183
O O12 0.672526 0.793595 0.052700
O O13 0.757852 0.000000 0.049867
O O14 0.765732 0.769335 0.000000
O O15 0.053824 0.682091 0.464078
O O16 0.274184 0.000000 0.637793
O O17 0.893061 0.500000 0.588405
#
# Coordination Sequence:
#
# PCOD9518998 Si02
#       7
#    16  16  16  16   4  16  16
#     4  10  21  36  52  72 100 135 175 225 277 324
#     4  12  23  37  59  84 111 144 183 229 276 330
#     4  11  24  40  58  80 108 144 182 223 273 328
#     4   9  17  31  49  70  98 132 170 219 275 325
#     4  12  21  32  49  66  85 128 185 234 279 328
#     4  10  20  34  54  79 105 138 179 225 274 327
#     4  10  19  31  46  64  89 124 172 224 271 322
#
# _framework density 16.610522
#
# number of rings (size 3 to 8) (size 9 to 14) (size 15 to 20)
#    0.000    1.600    2.400    3.600    1.120    2.880 
#    0.000    0.800    0.000    0.000    0.000    0.000 
#    0.000    0.640    0.000    6.720    0.000    2.880 
#
# Total GULP energy -278484.670975 kJ/mol
# GULP energy per Si atom -5569.693420 kJ/mol
# Density = 1.657272 g / cm^3
# Si number density = 16.610522 Si / 1000 Ang^3
#
#
#
# Elastic Constant Matrix: (Units=GPa)
#
#
# Indices 1 2 3 4 5 6 
#
# 1 67.4719 44.3599 49.5463 0.0000 0.0000 0.0000
# 2 44.3599 70.8404 54.0465 0.0000 0.0000 0.0000
# 3 49.5463 54.0465 122.6865 0.0000 0.0000 0.0000
# 4 0.0000 0.0000 0.0000 102.9390 0.0000 0.0000
# 5 0.0000 0.0000 0.0000 0.0000 -24.8463 0.0000
# 6 0.0000 0.0000 0.0000 0.0000 0.0000 42.5669
#
#
#
# Elastic Compliance Matrix: (Units=1/GPa)
#
#
# Indices 1 2 3 4 5 6 
#
# 1 0.027273 -0.013067 -0.005258 0.000000 0.000000 0.000000
# 2 -0.013067 0.027523 -0.006848 0.000000 0.000000 0.000000
# 3 -0.005258 -0.006848 0.013291 0.000000 0.000000 0.000000
# 4 0.000000 0.000000 0.000000 0.009714 0.000000 0.000000
# 5 0.000000 0.000000 0.000000 0.000000 -0.040247 0.000000
# 6 0.000000 0.000000 0.000000 0.000000 0.000000 0.023492
#
#
# Mechanical properties :
#
#
# Convention : Reuss Voigt Hill
#
# Bulk Modulus (GPa) = 56.36292 61.87822 59.12057
# Shear Modulus (GPa) = 42.62453 31.66833 37.14643
#
# Velocity S-wave (km/s) = 5.07118 4.37111 4.73410
# Velocity P-wave (km/s) = 8.26407 7.92520 8.09641
#
# Compressibility (1/GPa) = 0.01774216
#
# Stress axis : x y z
#
# Youngs Moduli (GPa) = 36.66685 36.33362 75.24077
#
# Poissons Ratio (x) = 0.47476 0.39559
# Poissons Ratio (y) = 0.47911 0.51521
# Poissons Ratio (z) = 0.19278 0.24880
#
# Static dielectric constant tensor:
#      x y z
#    x 1.547980 0.000000 0.000000 
#    y 0.000000 1.581250 0.000000 
#    z 0.000000 0.000000 1.567440 
# 
# From -- ./inp_files/70785.got.cif
#   From: 2010.05.17/outbox.cif.g08.bks.cpg/sg71_36_cif.got.tgz:70785.got - 2010.06.03 16:22:01.
