data_PCOD9518050
_publ_section_title
;
Structure prediction by ZEFSAII (Michael W. Deem and Ramdas Pophale) SiO2 
 PCOD9518050
Probable space group: I M M M
;
_chemical_formula_sum "Si O2"
_cell_formula_units_Z 72
_cell_length_a 15.211222
_cell_length_b 28.293450
_cell_length_c 7.443467
_cell_angle_alpha 90.000000
_cell_angle_beta 90.000000
_cell_angle_gamma 90.000000
_cell_volume 3203.504062
_symmetry_space_group_name_H-M "I M M M"
_symmetry_group_IT_number 71
_symmetry_cell_setting 'orthorhombic'
loop_
_space_group_symop_operation_xyz
x,y,z
-x,-y,z
x,-y,-z
-x,y,-z
-x,-y,-z
x,y,-z
-x,y,z
x,-y,z
1/2+x,1/2+y,1/2+z
1/2-x,1/2-y,1/2+z
1/2+x,1/2-y,1/2-z
1/2-x,1/2+y,1/2-z
1/2-x,1/2-y,1/2-z
1/2+x,1/2+y,1/2-z
1/2-x,1/2+y,1/2+z
1/2+x,1/2-y,1/2+z
loop_
_atom_site_type_symbol
_atom_site_label
_atom_site_fract_x
_atom_site_fract_y
_atom_site_fract_z
Si Si1 0.098546 0.872004 0.784707
Si Si2 0.906131 0.330822 0.781124
Si Si3 0.848336 0.231998 0.785559
Si Si4 0.218680 0.589037 0.214446
Si Si5 0.602679 0.000000 0.279802
O O1 0.127425 0.819814 0.714910
O O2 0.177424 0.908456 0.748051
O O3 0.000000 0.883541 0.719833
O O4 0.093807 0.868825 0.000000
O O5 0.902958 0.276917 0.718557
O O6 0.825783 0.362565 0.716383
O O7 0.000000 0.352975 0.734294
O O8 0.901358 0.329367 0.000000
O O9 0.750000 0.250000 0.750000
O O10 0.861024 0.229143 0.000000
O O11 0.159628 0.545452 0.278988
O O12 0.208818 0.588919 0.000000
O O13 0.500000 0.000000 0.223916
O O14 0.600994 0.000000 0.500000
#
# Coordination Sequence:
#
# PCOD9518050 Si02
#       5
#    16  16  16  16   8
#     4  10  21  36  53  74 105 145 181 214 257 308
#     4   9  16  27  47  74 101 131 167 204 248 306
#     4  10  18  30  49  73 103 137 174 214 255 300
#     4  10  19  33  55  81 105 132 170 218 265 309
#     4   9  18  34  58  87 112 132 163 213 270 321
#
# _framework density 22.475387999999999
#
# number of rings (size 3 to 8) (size 9 to 14) (size 15 to 20)
#    0.000    2.333    2.222    1.333    0.000    5.778 
#    0.000    1.111    0.000   10.000    0.000    0.000 
#    0.000    0.000    0.000    0.000    0.000    0.000 
#
# Total GULP energy -200869.559571 kJ/mol
# GULP energy per Si atom -5579.709988 kJ/mol
# Density = 2.242423 g / cm^3
# Si number density = 22.475388 Si / 1000 Ang^3
#
#
#
# Elastic Constant Matrix: (Units=GPa)
#
#
# Indices 1 2 3 4 5 6 
#
# 1 213.3347 80.2603 -5.5669 -0.0014 -0.0018 -0.0003
# 2 80.2603 106.1068 7.4607 0.0024 0.0037 -0.0005
# 3 -5.5669 7.4607 69.7968 0.0007 0.0162 -0.0049
# 4 -0.0014 0.0024 0.0007 0.2463 0.0092 -0.0023
# 5 -0.0018 0.0037 0.0162 0.0092 10.4535 -0.0008
# 6 -0.0003 -0.0005 -0.0049 -0.0023 -0.0008 32.2684
#
#
#
# Elastic Compliance Matrix: (Units=1/GPa)
#
#
# Indices 1 2 3 4 5 6 
#
# 1 0.006631 -0.005091 0.001073 0.000085 0.000001 0.000000
# 2 -0.005091 0.013405 -0.001839 -0.000156 -0.000003 0.000000
# 3 0.001073 -0.001839 0.014609 -0.000019 -0.000022 0.000002
# 4 0.000085 -0.000156 -0.000019 4.059819 -0.003575 0.000284
# 5 0.000001 -0.000003 -0.000022 -0.003575 0.095665 0.000002
# 6 0.000000 0.000000 0.000002 0.000284 0.000002 0.030990
#
#
# Mechanical properties :
#
#
# Convention : Reuss Voigt Hill
#
# Bulk Modulus (GPa) = 43.60883 61.50518 52.55701
# Shear Modulus (GPa) = 1.17911 29.06594 15.12253
#
# Velocity S-wave (km/s) = 0.72510 3.60006 2.59675
# Velocity P-wave (km/s) = 4.48844 6.68622 5.69437
#
# Compressibility (1/GPa) = 0.02293113
#
# Stress axis : x y z
#
# Youngs Moduli (GPa) = 150.81086 74.60067 68.44882
#
# Poissons Ratio (x) = 0.37980 -0.07345
# Poissons Ratio (y) = 0.76779 0.12587
# Poissons Ratio (z) = -0.16183 0.13718
#
# Static dielectric constant tensor:
#      x y z
#    x 1.881930 0.000000 0.000000 
#    y 0.000000 1.821710 0.000000 
#    z 0.000000 0.000000 1.884110 
# 
# From -- ./inp_files/6007.got.cif
#   From: 2010.05.17/outbox.cif.g08.bks.cpg/sg71_4_cif.got.tgz:6007.got - 2010.06.03 16:22:01.
