data_PCOD9518052
_publ_section_title
;
Structure prediction by ZEFSAII (Michael W. Deem and Ramdas Pophale) SiO2 
 PCOD9518052
Probable space group: I M M M
;
_chemical_formula_sum "Si O2"
_cell_formula_units_Z 72
_cell_length_a 19.274034
_cell_length_b 21.441305
_cell_length_c 8.007313
_cell_angle_alpha 90.000000
_cell_angle_beta 90.000000
_cell_angle_gamma 90.000000
_cell_volume 3309.105706
_symmetry_space_group_name_H-M "I M M M"
_symmetry_group_IT_number 71
_symmetry_cell_setting 'orthorhombic'
loop_
_space_group_symop_operation_xyz
x,y,z
-x,-y,z
x,-y,-z
-x,y,-z
-x,-y,-z
x,y,-z
-x,y,z
x,-y,z
1/2+x,1/2+y,1/2+z
1/2-x,1/2-y,1/2+z
1/2+x,1/2-y,1/2-z
1/2-x,1/2+y,1/2-z
1/2-x,1/2-y,1/2-z
1/2+x,1/2+y,1/2-z
1/2-x,1/2+y,1/2+z
1/2+x,1/2-y,1/2+z
loop_
_atom_site_type_symbol
_atom_site_label
_atom_site_fract_x
_atom_site_fract_y
_atom_site_fract_z
Si Si1 0.580007 0.902462 0.000000
Si Si2 0.919721 0.750661 0.500000
Si Si3 0.420787 0.423602 0.500000
Si Si4 0.832121 0.400784 0.813803
Si Si5 0.829030 0.075039 0.311891
Si Si6 0.670701 0.246533 0.687894
O O1 0.582175 0.825923 0.000000
O O2 0.620191 0.924634 0.165028
O O3 0.500000 0.920757 0.000000
O O4 0.878968 0.771417 0.666450
O O5 0.000000 0.769672 0.500000
O O6 0.421628 0.500000 0.500000
O O7 0.500000 0.401944 0.500000
O O8 0.379857 0.403983 0.334048
O O9 0.750774 0.408704 0.773154
O O10 0.845438 0.326950 0.824073
O O11 0.843733 0.427009 0.000000
O O12 0.844849 0.097286 0.500000
O O13 0.833017 0.000000 0.315720
O O14 0.664340 0.272642 0.500000
O O15 0.750000 0.250000 0.750000
#
# Coordination Sequence:
#
# PCOD9518052 Si02
#       6
#     8   8   8  16  16  16
#     4   9  17  29  46  69  96 122 150 187 230 271
#     4   9  18  31  47  70  98 122 151 196 237 272
#     4   9  17  28  44  68  94 119 151 191 230 268
#     4   9  18  30  47  71  92 118 153 190 227 267
#     4   9  17  30  48  69  91 119 153 189 229 270
#     4  10  18  30  49  73  92 120 157 192 231 275
#
# _framework density 21.758144000000001
#
# number of rings (size 3 to 8) (size 9 to 14) (size 15 to 20)
#    0.000    2.778    1.111    0.667    0.000    1.333 
#    0.000    6.667    0.000    2.667    0.000    3.111 
#    0.000    0.000    0.000    0.000    0.000    0.000 
#
# Total GULP energy -201100.190423 kJ/mol
# GULP energy per Si atom -5586.116401 kJ/mol
# Density = 2.170862 g / cm^3
# Si number density = 21.758144 Si / 1000 Ang^3
#
#
#
# Elastic Constant Matrix: (Units=GPa)
#
#
# Indices 1 2 3 4 5 6 
#
# 1 188.2592 -3.8457 176.5107 0.0000 0.0000 0.0000
# 2 -3.8457 66.4432 19.8231 0.0000 0.0000 0.0000
# 3 176.5107 19.8231 244.4763 0.0000 0.0000 0.0000
# 4 0.0000 0.0000 0.0000 -29.0446 0.0000 0.0000
# 5 0.0000 0.0000 0.0000 0.0000 24.6197 0.0000
# 6 0.0000 0.0000 0.0000 0.0000 0.0000 19.5894
#
#
#
# Elastic Compliance Matrix: (Units=1/GPa)
#
#
# Indices 1 2 3 4 5 6 
#
# 1 0.017942 0.005025 -0.013362 0.000000 0.000000 0.000000
# 2 0.005025 0.016831 -0.004993 0.000000 0.000000 0.000000
# 3 -0.013362 -0.004993 0.014142 0.000000 0.000000 0.000000
# 4 0.000000 0.000000 0.000000 -0.034430 0.000000 0.000000
# 5 0.000000 0.000000 0.000000 0.000000 0.040618 0.000000
# 6 0.000000 0.000000 0.000000 0.000000 0.000000 0.051048
#
#
# Mechanical properties :
#
#
# Convention : Reuss Voigt Hill
#
# Bulk Modulus (GPa) = 44.93068 98.23944 71.58506
# Shear Modulus (GPa) = 35.65586 23.47894 29.56740
#
# Velocity S-wave (km/s) = 4.05252 3.28851 3.69034
# Velocity P-wave (km/s) = 6.52626 7.72449 7.15052
#
# Compressibility (1/GPa) = 0.02225651
#
# Stress axis : x y z
#
# Youngs Moduli (GPa) = 55.73403 59.41476 70.70978
#
# Poissons Ratio (x) = -0.29855 0.94481
# Poissons Ratio (y) = -0.28006 0.35303
# Poissons Ratio (z) = 0.74470 0.29664
#
# Static dielectric constant tensor:
#      x y z
#    x 1.684340 0.000000 0.000000 
#    y 0.000000 1.864610 0.000000 
#    z 0.000000 0.000000 1.788030 
# 
# From -- ./inp_files/6138.got.cif
#   From: 2010.05.17/outbox.cif.g08.bks.cpg/sg71_4_cif.got.tgz:6138.got - 2010.06.03 16:22:01.
