data_PCOD9518715
_publ_section_title
;
Structure prediction by ZEFSAII (Michael W. Deem and Ramdas Pophale) SiO2 
 PCOD9518715
Probable space group: I M M M
;
_chemical_formula_sum "Si O2"
_cell_formula_units_Z 64
_cell_length_a 39.317363
_cell_length_b 10.454409
_cell_length_c 9.483288
_cell_angle_alpha 90.000000
_cell_angle_beta 90.000000
_cell_angle_gamma 90.000000
_cell_volume 3898.008742
_symmetry_space_group_name_H-M "I M M M"
_symmetry_group_IT_number 71
_symmetry_cell_setting 'orthorhombic'
loop_
_space_group_symop_operation_xyz
x,y,z
-x,-y,z
x,-y,-z
-x,y,-z
-x,-y,-z
x,y,-z
-x,y,z
x,-y,z
1/2+x,1/2+y,1/2+z
1/2-x,1/2-y,1/2+z
1/2+x,1/2-y,1/2-z
1/2-x,1/2+y,1/2-z
1/2-x,1/2-y,1/2-z
1/2+x,1/2+y,1/2-z
1/2-x,1/2+y,1/2+z
1/2+x,1/2-y,1/2+z
loop_
_atom_site_type_symbol
_atom_site_label
_atom_site_fract_x
_atom_site_fract_y
_atom_site_fract_z
Si Si1 0.538148 0.844629 0.663207
Si Si2 0.670474 0.238839 0.331651
Si Si3 0.209933 0.000000 0.831958
Si Si4 0.104373 0.345384 0.665845
Si Si5 0.719331 0.000000 0.668056
O O1 0.544126 0.807664 0.500000
O O2 0.500000 0.802638 0.704368
O O3 0.568878 0.803855 0.762862
O O4 0.537826 0.000000 0.666092
O O5 0.663445 0.232859 0.500000
O O6 0.688287 0.373348 0.299356
O O7 0.636071 0.216456 0.246075
O O8 0.696808 0.124683 0.298321
O O9 0.245389 0.000000 0.750180
O O10 0.216721 0.000000 0.000000
O O11 0.104823 0.317124 0.500000
O O12 0.107125 0.500000 0.682376
O O13 0.725775 0.000000 0.500000
#
# Coordination Sequence:
#
# PCOD9518715 Si02
#       5
#    16  16   8  16   8
#     4   8  14  25  42  65  95 131 165 197 239 290
#     4  10  20  35  52  72  98 130 165 200 243 294
#     4  10  22  36  52  74  99 126 161 206 248 289
#     4  10  19  29  45  71  99 129 165 205 245 284
#     4  10  20  34  54  74  95 128 163 198 246 299
#
# _framework density 16.418638999999999
#
# number of rings (size 3 to 8) (size 9 to 14) (size 15 to 20)
#    0.000    2.500    1.250    2.250    0.000    3.500 
#    0.000    2.500    0.000    0.000    0.000    0.875 
#    0.000    7.000    0.000    0.000    0.000    0.000 
#
# Total GULP energy -178436.711231 kJ/mol
# GULP energy per Si atom -5576.147226 kJ/mol
# Density = 1.638127 g / cm^3
# Si number density = 16.418639 Si / 1000 Ang^3
#
#
#
# Elastic Constant Matrix: (Units=GPa)
#
#
# Indices 1 2 3 4 5 6 
#
# 1 200.6545 65.4267 112.5856 0.0000 0.0000 0.0000
# 2 65.4267 87.1631 47.5630 0.0000 0.0000 0.0000
# 3 112.5856 47.5630 83.1217 0.0000 0.0000 0.0000
# 4 0.0000 0.0000 0.0000 7.7322 0.0000 0.0000
# 5 0.0000 0.0000 0.0000 0.0000 36.4506 0.0000
# 6 0.0000 0.0000 0.0000 0.0000 0.0000 -3.1413
#
#
#
# Elastic Compliance Matrix: (Units=1/GPa)
#
#
# Indices 1 2 3 4 5 6 
#
# 1 0.020771 -0.000348 -0.027934 0.000000 0.000000 0.000000
# 2 -0.000348 0.016687 -0.009077 0.000000 0.000000 0.000000
# 3 -0.027934 -0.009077 0.055061 0.000000 0.000000 0.000000
# 4 0.000000 0.000000 0.000000 0.129330 0.000000 0.000000
# 5 0.000000 0.000000 0.000000 0.000000 0.027434 0.000000
# 6 0.000000 0.000000 0.000000 0.000000 0.000000 -0.318344
#
#
# Mechanical properties :
#
#
# Convention : Reuss Voigt Hill
#
# Bulk Modulus (GPa) = 56.18064 91.34333 73.76199
# Shear Modulus (GPa) = 431.34283 17.89924 224.62103
#
# Velocity S-wave (km/s) = 16.22608 3.30537 11.70921
# Velocity P-wave (km/s) = 19.63006 8.38582 15.09406
#
# Compressibility (1/GPa) = 0.01779973
#
# Stress axis : x y z
#
# Youngs Moduli (GPa) = 48.14419 59.92625 18.16171
#
# Poissons Ratio (x) = 0.02085 0.50734
# Poissons Ratio (y) = 0.01675 0.16486
# Poissons Ratio (z) = 1.34488 0.54397
#
# Static dielectric constant tensor:
#      x y z
#    x 1.533290 0.000000 0.000000 
#    y 0.000000 1.533020 0.000000 
#    z 0.000000 0.000000 1.543240 
# 
# From -- ./inp_files/16180.got.cif
#   From: 2010.05.17/outbox.cif.g08.bks.cpg/sg71_9_cif.got.tgz:16180.got - 2010.06.03 16:22:01.
