data_PCOD9518843
_publ_section_title
;
Structure prediction by ZEFSAII (Michael W. Deem and Ramdas Pophale) SiO2 
 PCOD9518843
Probable space group: I M M M
;
_chemical_formula_sum "Si O2"
_cell_formula_units_Z 72
_cell_length_a 13.287048
_cell_length_b 14.908799
_cell_length_c 22.665219
_cell_angle_alpha 90.000000
_cell_angle_beta 90.000000
_cell_angle_gamma 90.000000
_cell_volume 4489.842259
_symmetry_space_group_name_H-M "I M M M"
_symmetry_group_IT_number 71
_symmetry_cell_setting 'orthorhombic'
loop_
_space_group_symop_operation_xyz
x,y,z
-x,-y,z
x,-y,-z
-x,y,-z
-x,-y,-z
x,y,-z
-x,y,z
x,-y,z
1/2+x,1/2+y,1/2+z
1/2-x,1/2-y,1/2+z
1/2+x,1/2-y,1/2-z
1/2-x,1/2+y,1/2-z
1/2-x,1/2-y,1/2-z
1/2+x,1/2+y,1/2-z
1/2-x,1/2+y,1/2+z
1/2+x,1/2-y,1/2+z
loop_
_atom_site_type_symbol
_atom_site_label
_atom_site_fract_x
_atom_site_fract_y
_atom_site_fract_z
Si Si1 0.765402 0.000000 0.697622
Si Si2 0.613653 0.303719 0.068367
Si Si3 0.119002 0.500000 0.692435
Si Si4 0.796262 0.000000 0.433384
Si Si5 0.794612 0.313670 0.664370
Si Si6 0.618630 0.330555 0.749126
O O1 0.832199 0.087306 0.714003
O O2 0.672841 0.000000 0.743287
O O3 0.735782 0.000000 0.628601
O O4 0.500000 0.289174 0.091186
O O5 0.638435 0.409335 0.070174
O O6 0.690559 0.246440 0.106886
O O7 0.617323 0.276850 0.000000
O O8 0.157017 0.588749 0.659336
O O9 0.000000 0.500000 0.698146
O O10 0.749194 0.000000 0.500000
O O11 0.681342 0.324486 0.688404
O O12 0.855404 0.259804 0.715222
O O13 0.500000 0.342539 0.742092
#
# Coordination Sequence:
#
# PCOD9518843 Si02
#       6
#     8  16   8   8  16  16
#     4  10  19  30  50  77  97 124 157 196 246 289
#     4  10  19  31  49  72  98 128 159 196 242 287
#     4  10  20  33  48  69  99 131 162 196 236 282
#     4  10  19  30  46  71 102 129 155 194 244 290
#     4  10  20  32  47  70  96 127 163 195 237 284
#     4  10  19  31  49  71  96 124 156 200 245 285
#
# _framework density 16.036199
#
# number of rings (size 3 to 8) (size 9 to 14) (size 15 to 20)
#    0.000    2.000    2.222    2.667    0.000    2.222 
#    0.000    0.556    0.000    3.000    0.000    3.111 
#    0.000    5.333    0.000    0.000    0.000    0.000 
#
# Total GULP energy -200647.339390 kJ/mol
# GULP energy per Si atom -5573.537205 kJ/mol
# Density = 1.599970 g / cm^3
# Si number density = 16.036199 Si / 1000 Ang^3
#
#
#
# Elastic Constant Matrix: (Units=GPa)
#
#
# Indices 1 2 3 4 5 6 
#
# 1 73.9014 24.3234 23.9528 0.0000 0.0000 0.0000
# 2 24.3234 111.4935 22.3417 0.0000 0.0000 0.0000
# 3 23.9528 22.3417 78.6029 0.0000 0.0000 0.0000
# 4 0.0000 0.0000 0.0000 26.8768 0.0000 0.0000
# 5 0.0000 0.0000 0.0000 0.0000 13.5860 0.0000
# 6 0.0000 0.0000 0.0000 0.0000 0.0000 9.9327
#
#
#
# Elastic Compliance Matrix: (Units=1/GPa)
#
#
# Indices 1 2 3 4 5 6 
#
# 1 0.015702 -0.002616 -0.004042 0.000000 0.000000 0.000000
# 2 -0.002616 0.009947 -0.002030 0.000000 0.000000 0.000000
# 3 -0.004042 -0.002030 0.014531 0.000000 0.000000 0.000000
# 4 0.000000 0.000000 0.000000 0.037207 0.000000 0.000000
# 5 0.000000 0.000000 0.000000 0.000000 0.073605 0.000000
# 6 0.000000 0.000000 0.000000 0.000000 0.000000 0.100678
#
#
# Mechanical properties :
#
#
# Convention : Reuss Voigt Hill
#
# Bulk Modulus (GPa) = 43.84994 45.02596 44.43795
# Shear Modulus (GPa) = 18.07365 22.97110 20.52238
#
# Velocity S-wave (km/s) = 3.36080 3.78888 3.58124
# Velocity P-wave (km/s) = 6.51642 6.87601 6.69863
#
# Compressibility (1/GPa) = 0.02280505
#
# Stress axis : x y z
#
# Youngs Moduli (GPa) = 63.68451 100.53708 68.81950
#
# Poissons Ratio (x) = 0.26298 0.27814
# Poissons Ratio (y) = 0.16658 0.13971
# Poissons Ratio (z) = 0.25738 0.20410
#
# Static dielectric constant tensor:
#      x y z
#    x 1.514380 0.000000 0.000000 
#    y 0.000000 1.549940 0.000000 
#    z 0.000000 0.000000 1.555360 
# 
# From -- ./inp_files/32637.got.cif
#   From: 2010.05.17/outbox.cif.g08.bks.cpg/sg71_17_cif.got.tgz:32637.got - 2010.06.03 16:22:01.
