data_PCOD9518438
_publ_section_title
;
Structure prediction by ZEFSAII (Michael W. Deem and Ramdas Pophale) SiO2 
 PCOD9518438
Probable space group: I M M M
;
_chemical_formula_sum "Si O2"
_cell_formula_units_Z 72
_cell_length_a 26.003128
_cell_length_b 7.545652
_cell_length_c 18.791654
_cell_angle_alpha 90.000000
_cell_angle_beta 90.000000
_cell_angle_gamma 90.000000
_cell_volume 3687.120857
_symmetry_space_group_name_H-M "I M M M"
_symmetry_group_IT_number 71
_symmetry_cell_setting 'orthorhombic'
loop_
_space_group_symop_operation_xyz
x,y,z
-x,-y,z
x,-y,-z
-x,y,-z
-x,-y,-z
x,y,-z
-x,y,z
x,-y,z
1/2+x,1/2+y,1/2+z
1/2-x,1/2-y,1/2+z
1/2+x,1/2-y,1/2-z
1/2-x,1/2+y,1/2-z
1/2-x,1/2-y,1/2-z
1/2+x,1/2+y,1/2-z
1/2-x,1/2+y,1/2+z
1/2+x,1/2-y,1/2+z
loop_
_atom_site_type_symbol
_atom_site_label
_atom_site_fract_x
_atom_site_fract_y
_atom_site_fract_z
Si Si1 0.558876 0.714137 0.920961
Si Si2 0.248122 0.789035 0.165356
Si Si3 0.061043 0.500000 0.085765
Si Si4 0.135858 0.796239 0.147672
Si Si5 0.144069 0.706108 0.690227
O O1 0.500000 0.769957 0.910662
O O2 0.559730 0.500000 0.919569
O O3 0.595440 0.780598 0.859824
O O4 0.575403 0.771017 0.000000
O O5 0.250000 0.750000 0.250000
O O6 0.194210 0.723900 0.133104
O O7 0.305591 0.726591 0.146694
O O8 0.245149 0.000000 0.154254
O O9 0.091990 0.669474 0.116758
O O10 0.000000 0.500000 0.104774
O O11 0.064433 0.500000 0.000000
O O12 0.134498 0.797294 0.234061
O O13 0.130607 0.000000 0.122739
O O14 0.153816 0.500000 0.707851
#
# Coordination Sequence:
#
# PCOD9518438 Si02
#       5
#    16  16   8  16  16
#     4   9  19  35  50  68 105 156 202 240 279 328
#     4   8  16  29  52  84 115 147 181 226 283 344
#     4  11  26  46  64  86 117 153 200 254 305 364
#     4  10  20  39  64  89 118 152 189 239 299 355
#     4  10  18  32  56  88 120 150 192 242 288 339
#
# _framework density 19.527431
#
# number of rings (size 3 to 8) (size 9 to 14) (size 15 to 20)
#    0.000    2.556    1.111    1.333    1.556    3.556 
#    0.000    3.333    0.000    4.000    0.000    0.000 
#    0.000    0.000    0.000    0.000    0.000    0.000 
#
# Total GULP energy -200513.507318 kJ/mol
# GULP energy per Si atom -5569.819648 kJ/mol
# Density = 1.948299 g / cm^3
# Si number density = 19.527431 Si / 1000 Ang^3
#
#
#
# Elastic Constant Matrix: (Units=GPa)
#
#
# Indices 1 2 3 4 5 6 
#
# 1 123.2545 39.5112 48.4974 0.0000 0.0000 0.0000
# 2 39.5112 90.0523 12.8213 0.0000 0.0000 0.0000
# 3 48.4974 12.8213 43.7059 0.0000 0.0000 0.0000
# 4 0.0000 0.0000 0.0000 16.6894 0.0000 0.0000
# 5 0.0000 0.0000 0.0000 0.0000 -76.2014 0.0000
# 6 0.0000 0.0000 0.0000 0.0000 0.0000 16.9657
#
#
#
# Elastic Compliance Matrix: (Units=1/GPa)
#
#
# Indices 1 2 3 4 5 6 
#
# 1 0.016121 -0.004724 -0.016502 0.000000 0.000000 0.000000
# 2 -0.004724 0.012973 0.001436 0.000000 0.000000 0.000000
# 3 -0.016502 0.001436 0.040771 0.000000 0.000000 0.000000
# 4 0.000000 0.000000 0.000000 0.059918 0.000000 0.000000
# 5 0.000000 0.000000 0.000000 0.000000 -0.013123 0.000000
# 6 0.000000 0.000000 0.000000 0.000000 0.000000 0.058942
#
#
# Mechanical properties :
#
#
# Convention : Reuss Voigt Hill
#
# Bulk Modulus (GPa) = 33.02098 50.96360 41.99229
# Shear Modulus (GPa) = 22.19493 1.90294 12.04894
#
# Velocity S-wave (km/s) = 3.37501 0.98824 2.48670
# Velocity P-wave (km/s) = 5.66872 5.23997 5.45855
#
# Compressibility (1/GPa) = 0.03028377
#
# Stress axis : x y z
#
# Youngs Moduli (GPa) = 62.03172 77.08470 24.52748
#
# Poissons Ratio (x) = 0.36412 0.40476
# Poissons Ratio (y) = 0.29301 -0.03522
# Poissons Ratio (z) = 1.02367 -0.11068
#
# Static dielectric constant tensor:
#      x y z
#    x 1.736740 0.000000 0.000000 
#    y 0.000000 1.796030 0.000000 
#    z 0.000000 0.000000 1.637610 
# 
# From -- ./inp_files/55400.got.cif
#   From: 2010.05.17/outbox.cif.g08.bks.cpg/sg71_28_cif.got.tgz:55400.got - 2010.06.03 16:22:01.
