data_PCOD9518394
_publ_section_title
;
Structure prediction by ZEFSAII (Michael W. Deem and Ramdas Pophale) SiO2 
 PCOD9518394
Probable space group: I M M M
;
_chemical_formula_sum "Si O2"
_cell_formula_units_Z 104
_cell_length_a 12.273864
_cell_length_b 28.371686
_cell_length_c 17.120331
_cell_angle_alpha 90.000000
_cell_angle_beta 90.000000
_cell_angle_gamma 90.000000
_cell_volume 5961.816552
_symmetry_space_group_name_H-M "I M M M"
_symmetry_group_IT_number 71
_symmetry_cell_setting 'orthorhombic'
loop_
_space_group_symop_operation_xyz
x,y,z
-x,-y,z
x,-y,-z
-x,y,-z
-x,-y,-z
x,y,-z
-x,y,z
x,-y,z
1/2+x,1/2+y,1/2+z
1/2-x,1/2-y,1/2+z
1/2+x,1/2-y,1/2-z
1/2-x,1/2+y,1/2-z
1/2-x,1/2-y,1/2-z
1/2+x,1/2+y,1/2-z
1/2-x,1/2+y,1/2+z
1/2+x,1/2-y,1/2+z
loop_
_atom_site_type_symbol
_atom_site_label
_atom_site_fract_x
_atom_site_fract_y
_atom_site_fract_z
Si Si1 0.369621 0.052637 0.237221
Si Si2 0.766330 0.782928 0.411245
Si Si3 0.500000 0.656731 0.738702
Si Si4 0.500000 0.588918 0.411659
Si Si5 0.227076 0.185568 0.825347
Si Si6 0.500000 0.330854 0.911976
Si Si7 0.629489 0.851181 0.688506
Si Si8 0.260620 0.586949 0.588265
O O1 0.500000 0.054930 0.226784
O O2 0.340753 0.093984 0.297885
O O3 0.313132 0.064230 0.154849
O O4 0.340146 0.000000 0.262773
O O5 0.737974 0.772066 0.500000
O O6 0.744103 0.736261 0.362049
O O7 0.891737 0.799091 0.407865
O O8 0.693083 0.825895 0.380604
O O9 0.500000 0.618495 0.668956
O O10 0.387352 0.684170 0.721749
O O11 0.500000 0.640591 0.829472
O O12 0.500000 0.612707 0.500000
O O13 0.617841 0.564746 0.409715
O O14 0.324994 0.173919 0.766393
O O15 0.225494 0.142364 0.887734
O O16 0.500000 0.353276 0.000000
O O17 0.500000 0.846533 0.680956
O O18 0.218170 0.583036 0.500000
#
# Coordination Sequence:
#
# PCOD9518394 Si02
#       8
#    16  16   8   8  16   8  16  16
#     4   9  19  36  55  76 101 133 175 222 269 322
#     4  11  23  36  51  75 108 140 176 223 265 314
#     4  10  18  32  54  71  99 148 185 218 259 307
#     4   8  16  30  49  75 107 138 174 214 258 315
#     4  10  20  32  52  74 105 143 184 214 257 315
#     4  10  22  36  50  73 102 142 184 216 262 313
#     4  10  21  35  55  78 103 137 175 221 269 316
#     4   9  17  31  49  74 105 140 176 215 260 311
#
# _framework density 17.444348000000002
#
# number of rings (size 3 to 8) (size 9 to 14) (size 15 to 20)
#    0.000    2.308    1.538    0.923    2.154    1.538 
#    0.000    1.154    0.000    1.846    0.000    2.154 
#    0.000    1.846    0.000    0.000    0.000    0.000 
#
# Total GULP energy -289542.760581 kJ/mol
# GULP energy per Si atom -5568.130011 kJ/mol
# Density = 1.740464 g / cm^3
# Si number density = 17.444348 Si / 1000 Ang^3
#
#
#
# Elastic Constant Matrix: (Units=GPa)
#
#
# Indices 1 2 3 4 5 6 
#
# 1 64.5570 29.8224 16.3364 0.0000 0.0000 0.0000
# 2 29.8224 86.1252 25.5492 0.0000 0.0000 0.0000
# 3 16.3364 25.5492 79.3045 0.0000 0.0000 0.0000
# 4 0.0000 0.0000 0.0000 7.6879 0.0000 0.0000
# 5 0.0000 0.0000 0.0000 0.0000 20.6608 0.0000
# 6 0.0000 0.0000 0.0000 0.0000 0.0000 8.2860
#
#
#
# Elastic Compliance Matrix: (Units=1/GPa)
#
#
# Indices 1 2 3 4 5 6 
#
# 1 0.018710 -0.005899 -0.001954 0.000000 0.000000 0.000000
# 2 -0.005899 0.014698 -0.003520 0.000000 0.000000 0.000000
# 3 -0.001954 -0.003520 0.014146 0.000000 0.000000 0.000000
# 4 0.000000 0.000000 0.000000 0.130074 0.000000 0.000000
# 5 0.000000 0.000000 0.000000 0.000000 0.048401 0.000000
# 6 0.000000 0.000000 0.000000 0.000000 0.000000 0.120685
#
#
# Mechanical properties :
#
#
# Convention : Reuss Voigt Hill
#
# Bulk Modulus (GPa) = 40.30906 41.48919 40.89912
# Shear Modulus (GPa) = 13.23703 17.87888 15.55795
#
# Velocity S-wave (km/s) = 2.75765 3.20489 2.98965
# Velocity P-wave (km/s) = 5.77035 6.12621 5.95094
#
# Compressibility (1/GPa) = 0.02480832
#
# Stress axis : x y z
#
# Youngs Moduli (GPa) = 53.44847 68.03729 70.69096
#
# Poissons Ratio (x) = 0.40135 0.13811
# Poissons Ratio (y) = 0.31529 0.24883
# Poissons Ratio (z) = 0.10442 0.23949
#
# Static dielectric constant tensor:
#      x y z
#    x 1.600490 0.000000 0.000000 
#    y 0.000000 1.606710 0.000000 
#    z 0.000000 0.000000 1.604740 
# 
# From -- ./inp_files/43830.got.cif
#   From: 2010.05.17/outbox.cif.g08.bks.cpg/sg71_22_cif.got.tgz:43830.got - 2010.06.03 16:22:01.
