data_PCOD9518865
_publ_section_title
;
Structure prediction by ZEFSAII (Michael W. Deem and Ramdas Pophale) SiO2 
 PCOD9518865
Probable space group: I M M M
;
_chemical_formula_sum "Si O2"
_cell_formula_units_Z 88
_cell_length_a 32.460618
_cell_length_b 15.730951
_cell_length_c 7.269739
_cell_angle_alpha 90.000000
_cell_angle_beta 90.000000
_cell_angle_gamma 90.000000
_cell_volume 3712.193288
_symmetry_space_group_name_H-M "I M M M"
_symmetry_group_IT_number 71
_symmetry_cell_setting 'orthorhombic'
loop_
_space_group_symop_operation_xyz
x,y,z
-x,-y,z
x,-y,-z
-x,y,-z
-x,-y,-z
x,y,-z
-x,y,z
x,-y,z
1/2+x,1/2+y,1/2+z
1/2-x,1/2-y,1/2+z
1/2+x,1/2-y,1/2-z
1/2-x,1/2+y,1/2-z
1/2-x,1/2-y,1/2-z
1/2+x,1/2+y,1/2-z
1/2-x,1/2+y,1/2+z
1/2+x,1/2-y,1/2+z
loop_
_atom_site_type_symbol
_atom_site_label
_atom_site_fract_x
_atom_site_fract_y
_atom_site_fract_z
Si Si1 0.102676 0.660114 0.224787
Si Si2 0.194836 0.656360 0.791622
Si Si3 0.561357 0.500000 0.291388
Si Si4 0.156154 0.000000 0.277921
Si Si5 0.784092 0.850480 0.723845
Si Si6 0.545566 0.311744 0.723768
Si Si7 0.952705 0.500000 0.223738
O O1 0.149451 0.644877 0.289508
O O2 0.081969 0.749028 0.283840
O O3 0.072544 0.583675 0.278253
O O4 0.104333 0.662397 0.000000
O O5 0.203312 0.757741 0.792702
O O6 0.238148 0.623351 0.712910
O O7 0.192518 0.622928 0.000000
O O8 0.545331 0.500000 0.500000
O O9 0.610515 0.500000 0.295209
O O10 0.548997 0.591027 0.210229
O O11 0.181829 0.917797 0.221936
O O12 0.153651 0.000000 0.500000
O O13 0.782687 0.846046 0.500000
O O14 0.547849 0.314294 0.500000
O O15 0.500000 0.278037 0.770863
O O16 0.000000 0.500000 0.285148
O O17 0.953509 0.500000 0.000000
#
# Coordination Sequence:
#
# PCOD9518865 Si02
#       7
#    16  16   8   8  16  16   8
#     4   9  16  25  40  62  88 118 150 183 221 267
#     4   9  17  30  47  67  90 116 148 186 224 262
#     4  10  19  30  47  69  91 118 154 191 223 261
#     4  10  20  32  45  64  91 123 153 182 223 270
#     4   9  18  31  46  64  90 122 152 183 222 268
#     4   9  16  26  41  63  90 117 146 183 226 269
#     4   9  16  25  37  58  91 124 147 175 224 277
#
# _framework density 23.705663999999999
#
# number of rings (size 3 to 8) (size 9 to 14) (size 15 to 20)
#    0.000    2.818    0.000    1.909    0.000    6.182 
#    0.000    3.636    0.000    1.091    0.000    1.909 
#    0.000    2.909    0.000    0.000    0.000    0.182 
#
# Total GULP energy -245812.878263 kJ/mol
# GULP energy per Si atom -5586.656324 kJ/mol
# Density = 2.365171 g / cm^3
# Si number density = 23.705664 Si / 1000 Ang^3
#
#
#
# Elastic Constant Matrix: (Units=GPa)
#
#
# Indices 1 2 3 4 5 6 
#
# 1 217.1329 37.0653 4.0549 0.0000 0.0000 0.0000
# 2 37.0653 67.9780 -2.6623 0.0000 0.0000 0.0000
# 3 4.0549 -2.6623 107.0211 0.0000 0.0000 0.0000
# 4 0.0000 0.0000 0.0000 -9.3775 0.0000 0.0000
# 5 0.0000 0.0000 0.0000 0.0000 -3.8088 0.0000
# 6 0.0000 0.0000 0.0000 0.0000 0.0000 42.7692
#
#
#
# Elastic Compliance Matrix: (Units=1/GPa)
#
#
# Indices 1 2 3 4 5 6 
#
# 1 0.005085 -0.002783 -0.000262 0.000000 0.000000 0.000000
# 2 -0.002783 0.016248 0.000510 0.000000 0.000000 0.000000
# 3 -0.000262 0.000510 0.009367 0.000000 0.000000 0.000000
# 4 0.000000 0.000000 0.000000 -0.106638 0.000000 0.000000
# 5 0.000000 0.000000 0.000000 0.000000 -0.262549 0.000000
# 6 0.000000 0.000000 0.000000 0.000000 0.000000 0.023381
#
#
# Mechanical properties :
#
#
# Convention : Reuss Voigt Hill
#
# Bulk Modulus (GPa) = 39.01780 52.11643 45.56712
# Shear Modulus (GPa) = -16.58420 29.49483 6.45532
#
# Velocity S-wave (km/s) = -2.64784 3.53116 1.65198
# Velocity P-wave (km/s) = 2.67337 6.21756 4.78565
#
# Compressibility (1/GPa) = 0.02562933
#
# Stress axis : x y z
#
# Youngs Moduli (GPa) = 196.63923 61.54556 106.76284
#
# Poissons Ratio (x) = 0.17129 0.02796
# Poissons Ratio (y) = 0.54727 -0.05441
# Poissons Ratio (z) = 0.05150 -0.03137
#
# Static dielectric constant tensor:
#      x y z
#    x 1.861140 0.000000 0.000000 
#    y 0.000000 1.826710 0.000000 
#    z 0.000000 0.000000 1.931670 
# 
# From -- ./inp_files/16759.got.cif
#   From: 2010.05.17/outbox.cif.g08.bks.cpg/sg71_9_cif.got.tgz:16759.got - 2010.06.03 16:22:01.
