data_PCOD9518425
_publ_section_title
;
Structure prediction by ZEFSAII (Michael W. Deem and Ramdas Pophale) SiO2 
 PCOD9518425
Probable space group: I M M M
;
_chemical_formula_sum "Si O2"
_cell_formula_units_Z 88
_cell_length_a 17.921517
_cell_length_b 8.764675
_cell_length_c 29.620899
_cell_angle_alpha 90.000000
_cell_angle_beta 90.000000
_cell_angle_gamma 90.000000
_cell_volume 4652.740389
_symmetry_space_group_name_H-M "I M M M"
_symmetry_group_IT_number 71
_symmetry_cell_setting 'orthorhombic'
loop_
_space_group_symop_operation_xyz
x,y,z
-x,-y,z
x,-y,-z
-x,y,-z
-x,-y,-z
x,y,-z
-x,y,z
x,-y,z
1/2+x,1/2+y,1/2+z
1/2-x,1/2-y,1/2+z
1/2+x,1/2-y,1/2-z
1/2-x,1/2+y,1/2-z
1/2-x,1/2-y,1/2-z
1/2+x,1/2+y,1/2-z
1/2-x,1/2+y,1/2+z
1/2+x,1/2-y,1/2+z
loop_
_atom_site_type_symbol
_atom_site_label
_atom_site_fract_x
_atom_site_fract_y
_atom_site_fract_z
Si Si1 0.586863 0.313950 0.296105
Si Si2 0.720478 0.317961 0.051271
Si Si3 0.909256 0.823750 0.302710
Si Si4 0.412801 0.180972 0.897164
Si Si5 0.353902 0.684532 0.391478
Si Si6 0.000000 0.185713 0.051932
O O1 0.500000 0.268094 0.302106
O O2 0.586575 0.500000 0.294924
O O3 0.614916 0.265132 0.246626
O O4 0.633180 0.265819 0.339762
O O5 0.724965 0.500000 0.052623
O O6 0.639301 0.264872 0.067337
O O7 0.780652 0.248328 0.085229
O O8 0.735617 0.266179 0.000000
O O9 0.888246 0.728046 0.346518
O O10 0.000000 0.823930 0.300415
O O11 0.885755 0.000000 0.308795
O O12 0.500000 0.223182 0.901904
O O13 0.406024 0.000000 0.902524
O O14 0.351127 0.500000 0.391831
O O15 0.426053 0.732002 0.420954
O O16 0.000000 0.000000 0.051373
O O17 0.000000 0.238025 0.000000
#
# Coordination Sequence:
#
# PCOD9518425 Si02
#       6
#    16  16  16  16  16   8
#     4   8  13  25  49  82 114 146 184 224 263 309
#     4  11  25  42  57  76 107 145 182 223 275 331
#     4   8  14  27  51  81 113 146 177 211 261 322
#     4  10  21  38  61  87 110 133 171 223 275 329
#     4  10  18  32  55  82 112 145 187 232 271 313
#     4   9  16  26  47  79 109 141 185 233 274 313
#
# _framework density 18.913585999999999
#
# number of rings (size 3 to 8) (size 9 to 14) (size 15 to 20)
#    0.000    2.636    0.909    2.727    0.000    3.636 
#    0.000    4.091    0.000    2.727    0.000    0.000 
#    0.000    0.000    0.000    0.000    0.000    0.000 
#
# Total GULP energy -245411.531272 kJ/mol
# GULP energy per Si atom -5577.534802 kJ/mol
# Density = 1.887054 g / cm^3
# Si number density = 18.913586 Si / 1000 Ang^3
#
#
#
# Elastic Constant Matrix: (Units=GPa)
#
#
# Indices 1 2 3 4 5 6 
#
# 1 45.8219 10.9458 6.5545 0.0000 0.0000 0.0000
# 2 10.9458 9.4345 1.1759 0.0000 0.0000 0.0000
# 3 6.5545 1.1759 31.4926 0.0000 0.0000 0.0000
# 4 0.0000 0.0000 0.0000 21.7018 0.0000 0.0000
# 5 0.0000 0.0000 0.0000 0.0000 12.8588 0.0000
# 6 0.0000 0.0000 0.0000 0.0000 0.0000 9.3210
#
#
#
# Elastic Compliance Matrix: (Units=1/GPa)
#
#
# Indices 1 2 3 4 5 6 
#
# 1 0.030995 -0.035320 -0.005132 0.000000 0.000000 0.000000
# 2 -0.035320 0.146738 0.001872 0.000000 0.000000 0.000000
# 3 -0.005132 0.001872 0.032752 0.000000 0.000000 0.000000
# 4 0.000000 0.000000 0.000000 0.046079 0.000000 0.000000
# 5 0.000000 0.000000 0.000000 0.000000 0.077768 0.000000
# 6 0.000000 0.000000 0.000000 0.000000 0.000000 0.107285
#
#
# Mechanical properties :
#
#
# Convention : Reuss Voigt Hill
#
# Bulk Modulus (GPa) = 7.50049 13.78905 10.64477
# Shear Modulus (GPa) = 8.87754 13.31451 11.09603
#
# Velocity S-wave (km/s) = 2.16885 2.65611 2.42475
# Velocity P-wave (km/s) = 3.20097 4.08815 3.67145
#
# Compressibility (1/GPa) = 0.13332463
#
# Stress axis : x y z
#
# Youngs Moduli (GPa) = 32.26329 6.81485 30.53277
#
# Poissons Ratio (x) = 0.24070 0.15670
# Poissons Ratio (y) = 1.13955 -0.05716
# Poissons Ratio (z) = 0.16558 -0.01276
#
# Static dielectric constant tensor:
#      x y z
#    x 1.643670 0.000000 0.000000 
#    y 0.000000 1.637550 0.000000 
#    z 0.000000 0.000000 1.677860 
# 
# From -- ./inp_files/70385.got.cif
#   From: 2010.05.17/outbox.cif.g08.bks.cpg/sg71_36_cif.got.tgz:70385.got - 2010.06.03 16:22:01.
