data_PCOD9518279
_publ_section_title
;
Structure prediction by ZEFSAII (Michael W. Deem and Ramdas Pophale) SiO2 
 PCOD9518279
Probable space group: I M M M
;
_chemical_formula_sum "Si O2"
_cell_formula_units_Z 66
_cell_length_a 26.331602
_cell_length_b 7.298613
_cell_length_c 15.896369
_cell_angle_alpha 90.000000
_cell_angle_beta 90.000000
_cell_angle_gamma 90.000000
_cell_volume 3055.030525
_symmetry_space_group_name_H-M "I M M M"
_symmetry_group_IT_number 71
_symmetry_cell_setting 'orthorhombic'
loop_
_space_group_symop_operation_xyz
x,y,z
-x,-y,z
x,-y,-z
-x,y,-z
-x,-y,-z
x,y,-z
-x,y,z
x,-y,z
1/2+x,1/2+y,1/2+z
1/2-x,1/2-y,1/2+z
1/2+x,1/2-y,1/2-z
1/2-x,1/2+y,1/2-z
1/2-x,1/2-y,1/2-z
1/2+x,1/2+y,1/2-z
1/2-x,1/2+y,1/2+z
1/2+x,1/2-y,1/2+z
loop_
_atom_site_type_symbol
_atom_site_label
_atom_site_fract_x
_atom_site_fract_y
_atom_site_fract_z
Si Si1 0.262013 0.278757 0.903257
Si Si2 0.500000 0.500000 0.500000
Si Si3 0.842384 0.277674 0.832517
Si Si4 0.874955 0.290631 0.655502
Si Si5 0.405684 0.220433 0.500000
Si Si6 0.441003 0.224260 0.000000
O O1 0.264179 0.500000 0.899500
O O2 0.215799 0.216030 0.844415
O O3 0.317361 0.209632 0.878714
O O4 0.250662 0.229226 0.000000
O O5 0.455743 0.340051 0.500000
O O6 0.840138 0.500000 0.825927
O O7 0.869899 0.208689 0.748560
O O8 0.872987 0.236303 0.916853
O O9 0.892428 0.500000 0.666799
O O10 0.911252 0.211819 0.583493
O O11 0.415071 0.000000 0.500000
O O12 0.500000 0.274879 0.000000
O O13 0.438175 0.000000 0.000000
#
# Coordination Sequence:
#
# PCOD9518279 Si02
#       6
#    16   2  16  16   8   8
#     4  10  18  31  52  78 115 155 187 226 294 365
#     4  12  26  44  64  98 116 154 210 248 318 366
#     4   9  18  35  59  83 110 153 194 232 291 364
#     4  10  19  33  54  82 110 143 195 240 289 352
#     4  10  21  44  66  85 122 159 197 256 302 353
#     4   9  18  33  51  74 108 142 182 245 289 330
#
# _framework density 21.603712999999999
#
# number of rings (size 3 to 8) (size 9 to 14) (size 15 to 20)
#    0.000    2.303    2.424    0.909    0.000    0.000 
#    6.545    0.000    0.000    1.455    0.000    0.000 
#    0.000    0.000    0.000    0.000    0.000    0.000 
#
# Total GULP energy -184084.844129 kJ/mol
# GULP energy per Si atom -5578.328610 kJ/mol
# Density = 2.155454 g / cm^3
# Si number density = 21.603713 Si / 1000 Ang^3
#
#
#
# Elastic Constant Matrix: (Units=GPa)
#
#
# Indices 1 2 3 4 5 6 
#
# 1 169.6555 13.5930 89.3194 0.0000 0.0000 0.0000
# 2 13.5930 92.9092 11.6890 0.0000 0.0000 0.0000
# 3 89.3194 11.6890 197.0879 0.0000 0.0000 0.0000
# 4 0.0000 0.0000 0.0000 -10.6650 0.0000 0.0000
# 5 0.0000 0.0000 0.0000 0.0000 11.3363 0.0000
# 6 0.0000 0.0000 0.0000 0.0000 0.0000 43.3470
#
#
#
# Elastic Compliance Matrix: (Units=1/GPa)
#
#
# Indices 1 2 3 4 5 6 
#
# 1 0.007786 -0.000700 -0.003487 0.000000 0.000000 0.000000
# 2 -0.000700 0.010907 -0.000329 0.000000 0.000000 0.000000
# 3 -0.003487 -0.000329 0.006674 0.000000 0.000000 0.000000
# 4 0.000000 0.000000 0.000000 -0.093765 0.000000 0.000000
# 5 0.000000 0.000000 0.000000 0.000000 0.088212 0.000000
# 6 0.000000 0.000000 0.000000 0.000000 0.000000 0.023070
#
#
# Mechanical properties :
#
#
# Convention : Reuss Voigt Hill
#
# Bulk Modulus (GPa) = 61.22542 76.53948 68.88245
# Shear Modulus (GPa) = 87.16455 31.80708 59.48581
#
# Velocity S-wave (km/s) = 6.35882 3.84121 5.25307
# Velocity P-wave (km/s) = 9.07274 7.42826 8.29137
#
# Compressibility (1/GPa) = 0.01633309
#
# Stress axis : x y z
#
# Youngs Moduli (GPa) = 128.43007 91.68321 149.83971
#
# Poissons Ratio (x) = 0.06422 0.52252
# Poissons Ratio (y) = 0.08996 0.04936
# Poissons Ratio (z) = 0.44786 0.03020
#
# Static dielectric constant tensor:
#      x y z
#    x 1.711350 0.000000 0.000000 
#    y 0.000000 1.823890 0.000000 
#    z 0.000000 0.000000 1.795580 
# 
# From -- ./inp_files/31384.got.cif
#   From: 2010.05.17/outbox.cif.g08.bks.cpg/sg71_16_cif.got.tgz:31384.got - 2010.06.03 16:22:01.
