data_PCOD9518724
_publ_section_title
;
Structure prediction by ZEFSAII (Michael W. Deem and Ramdas Pophale) SiO2 
 PCOD9518724
Probable space group: I M M M
;
_chemical_formula_sum "Si O2"
_cell_formula_units_Z 96
_cell_length_a 14.142083
_cell_length_b 25.740230
_cell_length_c 13.004720
_cell_angle_alpha 90.000000
_cell_angle_beta 90.000000
_cell_angle_gamma 90.000000
_cell_volume 4733.984275
_symmetry_space_group_name_H-M "I M M M"
_symmetry_group_IT_number 71
_symmetry_cell_setting 'orthorhombic'
loop_
_space_group_symop_operation_xyz
x,y,z
-x,-y,z
x,-y,-z
-x,y,-z
-x,-y,-z
x,y,-z
-x,y,z
x,-y,z
1/2+x,1/2+y,1/2+z
1/2-x,1/2-y,1/2+z
1/2+x,1/2-y,1/2-z
1/2-x,1/2+y,1/2-z
1/2-x,1/2-y,1/2-z
1/2+x,1/2+y,1/2-z
1/2-x,1/2+y,1/2+z
1/2+x,1/2-y,1/2+z
loop_
_atom_site_type_symbol
_atom_site_label
_atom_site_fract_x
_atom_site_fract_y
_atom_site_fract_z
Si Si1 0.500000 0.059283 0.665643
Si Si2 0.392120 0.272898 0.113485
Si Si3 0.395829 0.638831 0.287506
Si Si4 0.500000 0.897353 0.114057
Si Si5 0.642724 0.438396 0.114885
Si Si6 0.171564 0.631851 0.890320
Si Si7 0.309813 0.832701 0.167593
O O1 0.500000 0.063930 0.789585
O O2 0.412614 0.091705 0.624615
O O3 0.500000 0.000000 0.633251
O O4 0.500000 0.251645 0.116768
O O5 0.386898 0.314707 0.203440
O O6 0.320808 0.225423 0.126500
O O7 0.379748 0.297179 0.000000
O O8 0.500000 0.644487 0.339073
O O9 0.400859 0.587194 0.216694
O O10 0.295466 0.642853 0.348511
O O11 0.401432 0.864569 0.125938
O O12 0.500000 0.920287 0.000000
O O13 0.655344 0.500000 0.127955
O O14 0.738810 0.405760 0.110394
O O15 0.599714 0.431267 0.000000
O O16 0.175197 0.668073 0.791135
O O17 0.163932 0.659362 0.000000
#
# Coordination Sequence:
#
# PCOD9518724 Si02
#       7
#     8  16  16   8  16  16  16
#     4  10  19  29  46  75 109 142 179 220 272 336
#     4  10  19  33  56  81 106 140 185 230 274 320
#     4  10  21  34  49  76 111 143 176 217 272 327
#     4  10  20  36  59  82 100 129 182 237 278 316
#     4   9  17  30  48  70 100 139 181 222 261 307
#     4   9  18  30  46  73 110 148 183 219 263 323
#     4  10  19  34  55  79 103 139 184 227 267 318
#
# _framework density 20.278901999999999
#
# number of rings (size 3 to 8) (size 9 to 14) (size 15 to 20)
#    0.000    2.333    0.833    2.250    0.000    3.500 
#    0.000    0.833    0.000    2.000    0.000    0.000 
#    0.000    0.000    0.000   24.000    0.000    2.000 
#
# Total GULP energy -267396.535215 kJ/mol
# GULP energy per Si atom -5570.761150 kJ/mol
# Density = 2.023275 g / cm^3
# Si number density = 20.278902 Si / 1000 Ang^3
#
#
#
# Elastic Constant Matrix: (Units=GPa)
#
#
# Indices 1 2 3 4 5 6 
#
# 1 127.3588 -3.9441 19.9004 0.0000 0.0000 0.0000
# 2 -3.9441 47.5305 2.4589 0.0001 0.0000 0.0000
# 3 19.9004 2.4589 61.3087 0.0001 0.0000 0.0000
# 4 0.0000 0.0001 0.0001 11.5164 0.0000 0.0000
# 5 0.0000 0.0000 0.0000 0.0000 2.6678 0.0000
# 6 0.0000 0.0000 0.0000 0.0000 0.0000 45.4055
#
#
#
# Elastic Compliance Matrix: (Units=1/GPa)
#
#
# Indices 1 2 3 4 5 6 
#
# 1 0.008304 0.000830 -0.002729 0.000000 0.000000 0.000000
# 2 0.000830 0.021166 -0.001118 0.000000 0.000000 0.000000
# 3 -0.002729 -0.001118 0.017241 0.000000 0.000000 0.000000
# 4 0.000000 0.000000 0.000000 0.086833 0.000000 0.000000
# 5 0.000000 0.000000 0.000000 0.000000 0.374845 0.000000
# 6 0.000000 0.000000 0.000000 0.000000 0.000000 0.022024
#
#
# Mechanical properties :
#
#
# Convention : Reuss Voigt Hill
#
# Bulk Modulus (GPa) = 24.58357 30.33648 27.46003
# Shear Modulus (GPa) = 9.09081 26.43678 17.76379
#
# Velocity S-wave (km/s) = 2.11958 3.61454 2.96290
# Velocity P-wave (km/s) = 4.25902 5.69315 5.02748
#
# Compressibility (1/GPa) = 0.04067757
#
# Stress axis : x y z
#
# Youngs Moduli (GPa) = 120.42506 47.24591 57.99968
#
# Poissons Ratio (x) = -0.03922 0.15826
# Poissons Ratio (y) = -0.09998 0.06487
# Poissons Ratio (z) = 0.32860 0.05284
#
# Static dielectric constant tensor:
#      x y z
#    x 1.784320 0.000000 0.000000 
#    y 0.000000 1.671870 0.000000 
#    z 0.000000 0.000000 1.749270 
# 
# From -- ./inp_files/34802.got.cif
#   From: 2010.05.17/outbox.cif.g08.bks.cpg/sg71_18_cif.got.tgz:34802.got - 2010.06.03 16:22:01.
