data_PCOD9518006
_publ_section_title
;
Structure prediction by ZEFSAII (Michael W. Deem and Ramdas Pophale) SiO2 
 PCOD9518006
Probable space group: I M M M
;
_chemical_formula_sum "Si O2"
_cell_formula_units_Z 128
_cell_length_a 19.551995
_cell_length_b 23.263907
_cell_length_c 17.807426
_cell_angle_alpha 90.000000
_cell_angle_beta 90.000000
_cell_angle_gamma 90.000000
_cell_volume 8099.810881
_symmetry_space_group_name_H-M "I M M M"
_symmetry_group_IT_number 71
_symmetry_cell_setting 'orthorhombic'
loop_
_space_group_symop_operation_xyz
x,y,z
-x,-y,z
x,-y,-z
-x,y,-z
-x,-y,-z
x,y,-z
-x,y,z
x,-y,z
1/2+x,1/2+y,1/2+z
1/2-x,1/2-y,1/2+z
1/2+x,1/2-y,1/2-z
1/2-x,1/2+y,1/2-z
1/2-x,1/2-y,1/2-z
1/2+x,1/2+y,1/2-z
1/2-x,1/2+y,1/2+z
1/2+x,1/2-y,1/2+z
loop_
_atom_site_type_symbol
_atom_site_label
_atom_site_fract_x
_atom_site_fract_y
_atom_site_fract_z
Si Si1 0.218270 0.064388 0.256721
Si Si2 0.423035 0.674348 0.880533
Si Si3 0.420740 0.809816 0.087383
Si Si4 0.077856 0.118581 0.222528
Si Si5 0.799544 0.725868 0.857023
Si Si6 0.783104 0.117444 0.582807
Si Si7 0.701229 0.827294 0.193433
Si Si8 0.421244 0.297017 0.585577
O O1 0.138055 0.074010 0.238255
O O2 0.227901 0.076513 0.345718
O O3 0.258777 0.114301 0.212869
O O4 0.239463 0.000000 0.237685
O O5 0.500000 0.656669 0.902508
O O6 0.414600 0.740762 0.901689
O O7 0.417126 0.664896 0.790653
O O8 0.362408 0.637046 0.914593
O O9 0.500000 0.824652 0.103695
O O10 0.365762 0.836709 0.143439
O O11 0.406899 0.823004 0.000000
O O12 0.089793 0.152058 0.145146
O O13 0.000000 0.095810 0.223691
O O14 0.760162 0.675316 0.900294
O O15 0.750331 0.781323 0.848172
O O16 0.815252 0.702564 0.773389
O O17 0.868134 0.746874 0.896489
O O18 0.766754 0.094733 0.500000
O O19 0.411984 0.316661 0.500000
O O20 0.500000 0.278059 0.594756
#
# Coordination Sequence:
#
# PCOD9518006 Si02
#       8
#    16  16  16  16  16  16  16  16
#     4  10  21  36  51  68  92 128 175 212 238 279
#     4   9  16  26  43  69 102 135 160 185 229 292
#     4  10  19  29  46  75 105 129 154 189 241 302
#     4   9  17  31  48  66  93 129 168 207 239 273
#     4  10  18  30  48  72 100 130 161 195 238 294
#     4  10  19  30  48  74 102 130 158 196 246 292
#     4  10  19  32  49  71  98 128 164 202 240 284
#     4  10  19  29  45  71 100 128 156 192 244 296
#
# _framework density 15.802837999999999
#
# number of rings (size 3 to 8) (size 9 to 14) (size 15 to 20)
#    0.000    2.250    2.500    1.500    0.000    3.250 
#    0.000    0.000    0.000    1.875    0.000    6.125 
#    0.000    0.000    0.000   13.250    0.000    0.000 
#
# Total GULP energy -356782.659392 kJ/mol
# GULP energy per Si atom -5574.729053 kJ/mol
# Density = 1.576687 g / cm^3
# Si number density = 15.802838 Si / 1000 Ang^3
#
#
#
# Elastic Constant Matrix: (Units=GPa)
#
#
# Indices 1 2 3 4 5 6 
#
# 1 67.7019 22.5192 44.3148 0.0000 0.0000 0.0000
# 2 22.5192 53.3284 14.7220 0.0000 0.0000 0.0000
# 3 44.3148 14.7220 76.3922 0.0000 0.0000 0.0000
# 4 0.0000 0.0000 0.0000 3.8429 0.0000 0.0000
# 5 0.0000 0.0000 0.0000 0.0000 22.7015 0.0000
# 6 0.0000 0.0000 0.0000 0.0000 0.0000 9.0464
#
#
#
# Elastic Compliance Matrix: (Units=1/GPa)
#
#
# Indices 1 2 3 4 5 6 
#
# 1 0.026230 -0.007262 -0.013816 0.000000 0.000000 0.000000
# 2 -0.007262 0.021816 0.000008 0.000000 0.000000 0.000000
# 3 -0.013816 0.000008 0.021103 0.000000 0.000000 0.000000
# 4 0.000000 0.000000 0.000000 0.260223 0.000000 0.000000
# 5 0.000000 0.000000 0.000000 0.000000 0.044050 0.000000
# 6 0.000000 0.000000 0.000000 0.000000 0.000000 0.110541
#
#
# Mechanical properties :
#
#
# Convention : Reuss Voigt Hill
#
# Bulk Modulus (GPa) = 37.02412 40.05938 38.54175
# Shear Modulus (GPa) = 9.34395 14.84260 12.09327
#
# Velocity S-wave (km/s) = 2.43427 3.06802 2.76933
# Velocity P-wave (km/s) = 5.60183 6.16075 5.88793
#
# Compressibility (1/GPa) = 0.02700942
#
# Stress axis : x y z
#
# Youngs Moduli (GPa) = 38.12484 45.83802 47.38565
#
# Poissons Ratio (x) = 0.33287 0.65469
# Poissons Ratio (y) = 0.27686 -0.00040
# Poissons Ratio (z) = 0.52674 -0.00038
#
# Static dielectric constant tensor:
#      x y z
#    x 1.544320 0.000000 0.000000 
#    y 0.000000 1.488090 0.000000 
#    z 0.000000 0.000000 1.551110 
# 
# From -- ./inp_files/47761.got.cif
#   From: 2010.05.17/outbox.cif.g08.bks.cpg/sg71_24_cif.got.tgz:47761.got - 2010.06.03 16:22:01.
