data_PCOD9518295
_publ_section_title
;
Structure prediction by ZEFSAII (Michael W. Deem and Ramdas Pophale) SiO2 
 PCOD9518295
Probable space group: I M M M
;
_chemical_formula_sum "Si O2"
_cell_formula_units_Z 104
_cell_length_a 25.999740
_cell_length_b 24.623542
_cell_length_c 7.760183
_cell_angle_alpha 90.000000
_cell_angle_beta 90.000000
_cell_angle_gamma 90.000000
_cell_volume 4968.113311
_symmetry_space_group_name_H-M "I M M M"
_symmetry_group_IT_number 71
_symmetry_cell_setting 'orthorhombic'
loop_
_space_group_symop_operation_xyz
x,y,z
-x,-y,z
x,-y,-z
-x,y,-z
-x,-y,-z
x,y,-z
-x,y,z
x,-y,z
1/2+x,1/2+y,1/2+z
1/2-x,1/2-y,1/2+z
1/2+x,1/2-y,1/2-z
1/2-x,1/2+y,1/2-z
1/2-x,1/2-y,1/2-z
1/2+x,1/2+y,1/2-z
1/2-x,1/2+y,1/2+z
1/2+x,1/2-y,1/2+z
loop_
_atom_site_type_symbol
_atom_site_label
_atom_site_fract_x
_atom_site_fract_y
_atom_site_fract_z
Si Si1 0.500000 0.061657 0.206220
Si Si2 0.244767 0.170576 0.697265
Si Si3 0.290383 0.941058 0.801481
Si Si4 0.649899 0.220941 0.711071
Si Si5 0.939803 0.062175 0.789849
Si Si6 0.391011 0.105603 0.702257
Si Si7 0.371438 0.336271 0.699522
O O1 0.550863 0.090572 0.269367
O O2 0.500000 0.000000 0.269775
O O3 0.500000 0.061304 0.000000
O O4 0.233500 0.185279 0.500000
O O5 0.269791 0.110764 0.701971
O O6 0.290503 0.210069 0.765161
O O7 0.190822 0.162339 0.792969
O O8 0.351885 0.934786 0.795429
O O9 0.274944 0.000000 0.733761
O O10 0.273301 0.936827 0.000000
O O11 0.651569 0.223385 0.500000
O O12 0.620460 0.166682 0.762211
O O13 0.622080 0.275484 0.774849
O O14 0.901551 0.110807 0.729522
O O15 0.000000 0.072489 0.743902
O O16 0.926757 0.000000 0.733755
O O17 0.937490 0.061198 0.000000
O O18 0.378723 0.102589 0.500000
O O19 0.387621 0.334016 0.500000
#
# Coordination Sequence:
#
# PCOD9518295 Si02
#       7
#     8  16  16  16  16  16  16
#     4  11  23  37  53  75 103 137 180 221 258 310
#     4  10  20  33  49  72 106 140 171 212 261 314
#     4  10  20  34  52  74 101 135 175 216 260 313
#     4   8  17  33  50  73 103 134 171 212 258 312
#     4   8  15  29  49  75 104 130 161 207 261 310
#     4  10  20  35  53  75 103 135 172 219 269 314
#     4  10  18  31  53  78 102 133 174 215 255 306
#
# _framework density 20.933499000000001
#
# number of rings (size 3 to 8) (size 9 to 14) (size 15 to 20)
#    0.000    2.538    0.000    3.923    0.000    4.308 
#    1.385    5.385    0.000    0.462    0.000    1.077 
#    0.000    0.000    0.000    0.000    0.000    0.000 
#
# Total GULP energy -289859.030860 kJ/mol
# GULP energy per Si atom -5574.212132 kJ/mol
# Density = 2.088585 g / cm^3
# Si number density = 20.933499 Si / 1000 Ang^3
#
#
#
# Elastic Constant Matrix: (Units=GPa)
#
#
# Indices 1 2 3 4 5 6 
#
# 1 75.2320 60.7240 -4.3644 0.0000 0.0000 0.0000
# 2 60.7240 173.3602 13.3468 0.0000 0.0000 0.0000
# 3 -4.3644 13.3468 42.2874 0.0000 0.0000 0.0000
# 4 0.0000 0.0000 0.0000 6.6355 0.0000 0.0000
# 5 0.0000 0.0000 0.0000 0.0000 28.8330 0.0000
# 6 0.0000 0.0000 0.0000 0.0000 0.0000 38.0559
#
#
#
# Elastic Compliance Matrix: (Units=1/GPa)
#
#
# Indices 1 2 3 4 5 6 
#
# 1 0.019238 -0.007063 0.004215 0.000000 0.000000 0.000000
# 2 -0.007063 0.008505 -0.003413 0.000000 0.000000 0.000000
# 3 0.004215 -0.003413 0.025160 0.000000 0.000000 0.000000
# 4 0.000000 0.000000 0.000000 0.150705 0.000000 0.000000
# 5 0.000000 0.000000 0.000000 0.000000 0.034682 0.000000
# 6 0.000000 0.000000 0.000000 0.000000 0.000000 0.026277
#
#
# Mechanical properties :
#
#
# Convention : Reuss Voigt Hill
#
# Bulk Modulus (GPa) = 24.76503 47.81025 36.28764
# Shear Modulus (GPa) = 17.20869 29.44976 23.32923
#
# Velocity S-wave (km/s) = 2.87028 3.75484 3.34195
# Velocity P-wave (km/s) = 4.77919 6.45655 5.68013
#
# Compressibility (1/GPa) = 0.04037952
#
# Stress axis : x y z
#
# Youngs Moduli (GPa) = 51.98142 117.57624 39.74564
#
# Poissons Ratio (x) = 0.83044 -0.16752
# Poissons Ratio (y) = 0.36714 0.13567
# Poissons Ratio (z) = -0.21909 0.40133
#
# Static dielectric constant tensor:
#      x y z
#    x 1.754680 0.000000 0.000000 
#    y 0.000000 1.795880 0.000000 
#    z 0.000000 0.000000 1.802310 
# 
# From -- ./inp_files/15305.got.cif
#   From: 2010.05.17/outbox.cif.g08.bks.cpg/sg71_8_cif.got.tgz:15305.got - 2010.06.03 16:22:01.
