data_PCOD9518304
_publ_section_title
;
Structure prediction by ZEFSAII (Michael W. Deem and Ramdas Pophale) SiO2 
 PCOD9518304
Probable space group: I M M M
;
_chemical_formula_sum "Si O2"
_cell_formula_units_Z 120
_cell_length_a 17.465848
_cell_length_b 20.642314
_cell_length_c 17.931408
_cell_angle_alpha 90.000000
_cell_angle_beta 90.000000
_cell_angle_gamma 90.000000
_cell_volume 6464.909484
_symmetry_space_group_name_H-M "I M M M"
_symmetry_group_IT_number 71
_symmetry_cell_setting 'orthorhombic'
loop_
_space_group_symop_operation_xyz
x,y,z
-x,-y,z
x,-y,-z
-x,y,-z
-x,-y,-z
x,y,-z
-x,y,z
x,-y,z
1/2+x,1/2+y,1/2+z
1/2-x,1/2-y,1/2+z
1/2+x,1/2-y,1/2-z
1/2-x,1/2+y,1/2-z
1/2-x,1/2-y,1/2-z
1/2+x,1/2+y,1/2-z
1/2-x,1/2+y,1/2+z
1/2+x,1/2-y,1/2+z
loop_
_atom_site_type_symbol
_atom_site_label
_atom_site_fract_x
_atom_site_fract_y
_atom_site_fract_z
Si Si1 0.593996 0.500000 0.915313
Si Si2 0.692728 0.668787 0.694453
Si Si3 0.408257 0.076474 0.410288
Si Si4 0.585975 0.134254 0.089941
Si Si5 0.855580 0.778314 0.412371
Si Si6 0.914520 0.885404 0.686568
Si Si7 0.802596 0.313561 0.833401
Si Si8 0.764639 0.570506 0.410504
O O1 0.500000 0.500000 0.918682
O O2 0.620577 0.438389 0.868756
O O3 0.621317 0.500000 0.000000
O O4 0.630830 0.627693 0.739076
O O5 0.764153 0.671515 0.752839
O O6 0.663220 0.741233 0.677370
O O7 0.717479 0.629741 0.622222
O O8 0.396066 0.084919 0.500000
O O9 0.500000 0.085644 0.396616
O O10 0.357151 0.129733 0.365435
O O11 0.390518 0.000000 0.393139
O O12 0.500000 0.129990 0.120593
O O13 0.625058 0.203766 0.103994
O O14 0.647134 0.080897 0.113939
O O15 0.580033 0.129385 0.000000
O O16 0.866925 0.789678 0.500000
O O17 0.911788 0.820477 0.362149
O O18 0.770588 0.799787 0.387401
O O19 0.000000 0.905889 0.703746
O O20 0.762759 0.572659 0.500000
O O21 0.737057 0.500000 0.385360
#
# Coordination Sequence:
#
# PCOD9518304 Si02
#       8
#     8  16  16  16  16  16  16  16
#     4   9  18  34  54  78 111 147 182 223 279 349
#     4  10  22  37  56  81 112 148 193 245 290 346
#     4   9  19  37  61  90 124 160 199 245 296 350
#     4   9  17  30  51  79 108 140 181 231 285 338
#     4  10  18  31  53  81 112 145 183 227 276 335
#     4  10  21  35  53  79 111 148 185 228 285 345
#     4  10  20  36  56  82 114 154 191 232 289 345
#     4  10  21  37  57  78 105 147 193 243 300 348
#
# _framework density 18.561744000000001
#
# number of rings (size 3 to 8) (size 9 to 14) (size 15 to 20)
#    0.000    2.333    1.333    1.600    0.933    3.200 
#    3.600    2.000    0.000    0.400    0.000    0.933 
#    0.000    0.000    0.000    0.000    0.000    0.000 
#
# Total GULP energy -334279.939509 kJ/mol
# GULP energy per Si atom -5571.332325 kJ/mol
# Density = 1.851950 g / cm^3
# Si number density = 18.561744 Si / 1000 Ang^3
#
#
#
# Elastic Constant Matrix: (Units=GPa)
#
#
# Indices 1 2 3 4 5 6 
#
# 1 55.6122 30.6849 27.1983 0.0000 0.0000 0.0000
# 2 30.6849 103.5815 32.8483 0.0000 0.0000 0.0000
# 3 27.1983 32.8483 46.4424 0.0000 0.0000 0.0000
# 4 0.0000 0.0000 0.0000 29.6437 0.0000 0.0000
# 5 0.0000 0.0000 0.0000 0.0000 -3.3552 0.0000
# 6 0.0000 0.0000 0.0000 0.0000 0.0000 32.3671
#
#
#
# Elastic Compliance Matrix: (Units=1/GPa)
#
#
# Indices 1 2 3 4 5 6 
#
# 1 0.026279 -0.003744 -0.012742 0.000000 0.000000 0.000000
# 2 -0.003744 0.012979 -0.006987 0.000000 0.000000 0.000000
# 3 -0.012742 -0.006987 0.033936 0.000000 0.000000 0.000000
# 4 0.000000 0.000000 0.000000 0.033734 0.000000 0.000000
# 5 0.000000 0.000000 0.000000 0.000000 -0.298049 0.000000
# 6 0.000000 0.000000 0.000000 0.000000 0.000000 0.030896
#
#
# Mechanical properties :
#
#
# Convention : Reuss Voigt Hill
#
# Bulk Modulus (GPa) = 38.09822 43.01102 40.55462
# Shear Modulus (GPa) = -47.83412 19.39142 -14.22135
#
# Velocity S-wave (km/s) = -5.08195 3.23569 -2.77097
# Velocity P-wave (km/s) = 3.72361 6.09768 3.41441
#
# Compressibility (1/GPa) = 0.02624794
#
# Stress axis : x y z
#
# Youngs Moduli (GPa) = 38.05282 77.04582 29.46701
#
# Poissons Ratio (x) = 0.28848 0.37546
# Poissons Ratio (y) = 0.14248 0.20590
# Poissons Ratio (z) = 0.48486 0.53835
#
# Static dielectric constant tensor:
#      x y z
#    x 1.620280 0.000000 0.000000 
#    y 0.000000 1.715570 0.000000 
#    z 0.000000 0.000000 1.631830 
# 
# From -- ./inp_files/46474.got.cif
#   From: 2010.05.17/outbox.cif.g08.bks.cpg/sg71_24_cif.got.tgz:46474.got - 2010.06.03 16:22:01.
