data_PCOD9518754
_publ_section_title
;
Structure prediction by ZEFSAII (Michael W. Deem and Ramdas Pophale) SiO2 
 PCOD9518754
Probable space group: I M M M
;
_chemical_formula_sum "Si O2"
_cell_formula_units_Z 96
_cell_length_a 28.309641
_cell_length_b 29.465194
_cell_length_c 8.974599
_cell_angle_alpha 90.000000
_cell_angle_beta 90.000000
_cell_angle_gamma 90.000000
_cell_volume 7486.153357
_symmetry_space_group_name_H-M "I M M M"
_symmetry_group_IT_number 71
_symmetry_cell_setting 'orthorhombic'
loop_
_space_group_symop_operation_xyz
x,y,z
-x,-y,z
x,-y,-z
-x,y,-z
-x,-y,-z
x,y,-z
-x,y,z
x,-y,z
1/2+x,1/2+y,1/2+z
1/2-x,1/2-y,1/2+z
1/2+x,1/2-y,1/2-z
1/2-x,1/2+y,1/2-z
1/2-x,1/2-y,1/2-z
1/2+x,1/2+y,1/2-z
1/2-x,1/2+y,1/2+z
1/2+x,1/2-y,1/2+z
loop_
_atom_site_type_symbol
_atom_site_label
_atom_site_fract_x
_atom_site_fract_y
_atom_site_fract_z
Si Si1 0.095973 0.718996 0.176310
Si Si2 0.342028 0.872493 0.323653
Si Si3 0.500000 0.907988 0.678610
Si Si4 0.178105 0.770887 0.328094
Si Si5 0.000000 0.692256 0.677917
Si Si6 0.405760 0.053197 0.176317
Si Si7 0.259133 0.178387 0.171886
O O1 0.122685 0.670563 0.198378
O O2 0.131392 0.757159 0.238227
O O3 0.047142 0.716871 0.264694
O O4 0.088029 0.724290 0.000000
O O5 0.339159 0.880788 0.500000
O O6 0.364586 0.914909 0.239245
O O7 0.291606 0.857417 0.258475
O O8 0.500000 0.905331 0.500000
O O9 0.500000 0.857532 0.746973
O O10 0.453505 0.933285 0.737584
O O11 0.167777 0.781587 0.500000
O O12 0.210099 0.809229 0.251413
O O13 0.210330 0.725164 0.327182
O O14 0.000000 0.687990 0.500000
O O15 0.395921 0.000000 0.197238
O O16 0.412465 0.061722 0.000000
O O17 0.252235 0.165451 0.000000
#
# Coordination Sequence:
#
# PCOD9518754 Si02
#       7
#    16  16   8  16   8  16  16
#     4  10  19  30  43  59  79 101 128 160 197 237
#     4  10  19  30  45  61  78  99 125 158 198 242
#     4  12  23  35  48  61  74  96 128 166 208 251
#     4   9  16  26  40  59  80 101 125 152 187 229
#     4  12  22  31  45  60  78 103 132 166 203 243
#     4  11  23  36  48  61  77  98 127 165 208 252
#     4   9  16  26  41  59  80 101 123 151 188 231
#
# _framework density 12.823676000000001
#
# number of rings (size 3 to 8) (size 9 to 14) (size 15 to 20)
#    0.000    1.833    1.667    4.250    0.000    7.667 
#    0.000    0.000    0.000    0.000    0.000    0.000 
#    0.000    0.000    0.000    0.000    0.000    0.000 
#
# Total GULP energy -267840.951795 kJ/mol
# GULP energy per Si atom -5580.019829 kJ/mol
# Density = 1.279449 g / cm^3
# Si number density = 12.823676 Si / 1000 Ang^3
#
#
#
# Elastic Constant Matrix: (Units=GPa)
#
#
# Indices 1 2 3 4 5 6 
#
# 1 83.3883 49.9178 66.6200 0.0000 0.0000 0.0000
# 2 49.9178 44.5377 42.9444 0.0000 0.0000 0.0000
# 3 66.6200 42.9444 119.8497 0.0000 0.0000 0.0000
# 4 0.0000 0.0000 0.0000 15.9167 0.0000 0.0000
# 5 0.0000 0.0000 0.0000 0.0000 24.4602 0.0000
# 6 0.0000 0.0000 0.0000 0.0000 0.0000 3.5074
#
#
#
# Elastic Compliance Matrix: (Units=1/GPa)
#
#
# Indices 1 2 3 4 5 6 
#
# 1 0.043322 -0.038710 -0.010211 0.000000 0.000000 0.000000
# 2 -0.038710 0.068894 -0.003169 0.000000 0.000000 0.000000
# 3 -0.010211 -0.003169 0.015155 0.000000 0.000000 0.000000
# 4 0.000000 0.000000 0.000000 0.062827 0.000000 0.000000
# 5 0.000000 0.000000 0.000000 0.000000 0.040883 0.000000
# 6 0.000000 0.000000 0.000000 0.000000 0.000000 0.285111
#
#
# Mechanical properties :
#
#
# Convention : Reuss Voigt Hill
#
# Bulk Modulus (GPa) = 43.11702 62.97112 53.04407
# Shear Modulus (GPa) = 7.96050 14.66310 11.31180
#
# Velocity S-wave (km/s) = 2.49422 3.38515 2.97324
# Velocity P-wave (km/s) = 6.48003 8.03062 7.29663
#
# Compressibility (1/GPa) = 0.02319270
#
# Stress axis : x y z
#
# Youngs Moduli (GPa) = 23.08299 14.51501 65.98542
#
# Poissons Ratio (x) = 0.56187 0.67375
# Poissons Ratio (y) = 0.89354 0.20909
# Poissons Ratio (z) = 0.23569 0.04599
#
# Static dielectric constant tensor:
#      x y z
#    x 1.409380 0.000000 0.000000 
#    y 0.000000 1.390490 0.000000 
#    z 0.000000 0.000000 1.427510 
# 
# From -- ./inp_files/13190.got.cif
#   From: 2010.05.17/outbox.cif.g08.bks.cpg/sg71_7_cif.got.tgz:13190.got - 2010.06.03 16:22:01.
