data_PCOD9518369
_publ_section_title
;
Structure prediction by ZEFSAII (Michael W. Deem and Ramdas Pophale) SiO2 
 PCOD9518369
Probable space group: I M M M
;
_chemical_formula_sum "Si O2"
_cell_formula_units_Z 128
_cell_length_a 17.290254
_cell_length_b 19.420798
_cell_length_c 22.815088
_cell_angle_alpha 90.000000
_cell_angle_beta 90.000000
_cell_angle_gamma 90.000000
_cell_volume 7661.090498
_symmetry_space_group_name_H-M "I M M M"
_symmetry_group_IT_number 71
_symmetry_cell_setting 'orthorhombic'
loop_
_space_group_symop_operation_xyz
x,y,z
-x,-y,z
x,-y,-z
-x,y,-z
-x,-y,-z
x,y,-z
-x,y,z
x,-y,z
1/2+x,1/2+y,1/2+z
1/2-x,1/2-y,1/2+z
1/2+x,1/2-y,1/2-z
1/2-x,1/2+y,1/2-z
1/2-x,1/2-y,1/2-z
1/2+x,1/2+y,1/2-z
1/2-x,1/2+y,1/2+z
1/2+x,1/2-y,1/2+z
loop_
_atom_site_type_symbol
_atom_site_label
_atom_site_fract_x
_atom_site_fract_y
_atom_site_fract_z
Si Si1 0.798420 0.920061 0.568429
Si Si2 0.125005 0.577882 0.886765
Si Si3 0.139020 0.281287 0.295023
Si Si4 0.587699 0.777190 0.567290
Si Si5 0.320023 0.421757 0.735447
Si Si6 0.315399 0.285873 0.671478
Si Si7 0.912015 0.858031 0.655654
Si Si8 0.866137 0.577292 0.749921
O O1 0.785256 0.905024 0.500000
O O2 0.717162 0.914661 0.602392
O O3 0.862212 0.872409 0.597910
O O4 0.823404 0.000000 0.573538
O O5 0.103779 0.500000 0.905152
O O6 0.088508 0.640755 0.921364
O O7 0.108461 0.584618 0.817516
O O8 0.222594 0.280673 0.326759
O O9 0.155031 0.257398 0.227847
O O10 0.090364 0.221917 0.325646
O O11 0.106992 0.358527 0.289144
O O12 0.609050 0.763779 0.500000
O O13 0.500000 0.752363 0.577604
O O14 0.645763 0.743312 0.613532
O O15 0.338219 0.500000 0.719388
O O16 0.335852 0.365017 0.685843
O O17 0.367662 0.398941 0.792597
O O18 0.228066 0.418012 0.749554
O O19 0.000000 0.881318 0.649839
O O20 0.887071 0.500000 0.730243
#
# Coordination Sequence:
#
# PCOD9518369 Si02
#       8
#    16  16  16  16  16  16  16  16
#     4  10  20  33  49  68  93 128 167 201 234 277
#     4  10  18  32  52  70  91 123 163 203 235 273
#     4   9  17  31  50  72  95 119 155 199 241 286
#     4  11  23  35  47  66  97 134 168 202 237 280
#     4   9  17  30  49  73  94 114 150 199 247 291
#     4   9  17  31  52  70  90 121 156 197 243 288
#     4  11  21  30  44  67  98 131 159 193 234 280
#     4   9  15  28  52  74  94 119 149 193 243 288
#
# _framework density 16.707805
#
# number of rings (size 3 to 8) (size 9 to 14) (size 15 to 20)
#    0.000    2.250    2.500    2.250    0.000    4.250 
#    0.000    1.250    0.000    0.750    0.000    0.875 
#    0.000    1.500    0.000    1.125    0.000    0.000 
#
# Total GULP energy -356989.724845 kJ/mol
# GULP energy per Si atom -5577.964451 kJ/mol
# Density = 1.666978 g / cm^3
# Si number density = 16.707805 Si / 1000 Ang^3
#
#
#
# Elastic Constant Matrix: (Units=GPa)
#
#
# Indices 1 2 3 4 5 6 
#
# 1 36.0867 14.1147 21.4915 0.0000 0.0000 0.0000
# 2 14.1147 97.1690 28.0182 0.0000 0.0000 0.0000
# 3 21.4915 28.0182 72.7147 0.0000 0.0000 0.0000
# 4 0.0000 0.0000 0.0000 20.5075 0.0000 0.0000
# 5 0.0000 0.0000 0.0000 0.0000 6.9305 0.0000
# 6 0.0000 0.0000 0.0000 0.0000 0.0000 0.8979
#
#
#
# Elastic Compliance Matrix: (Units=1/GPa)
#
#
# Indices 1 2 3 4 5 6 
#
# 1 0.034082 -0.002302 -0.009186 0.000000 0.000000 0.000000
# 2 -0.002302 0.011733 -0.003841 0.000000 0.000000 0.000000
# 3 -0.009186 -0.003841 0.017947 0.000000 0.000000 0.000000
# 4 0.000000 0.000000 0.000000 0.048763 0.000000 0.000000
# 5 0.000000 0.000000 0.000000 0.000000 0.144291 0.000000
# 6 0.000000 0.000000 0.000000 0.000000 0.000000 1.113751
#
#
# Mechanical properties :
#
#
# Convention : Reuss Voigt Hill
#
# Bulk Modulus (GPa) = 30.20690 37.02435 33.61562
# Shear Modulus (GPa) = 3.54042 15.15689 9.34866
#
# Velocity S-wave (km/s) = 1.45727 3.01520 2.36802
# Velocity P-wave (km/s) = 4.57715 5.85918 5.25739
#
# Compressibility (1/GPa) = 0.03310502
#
# Stress axis : x y z
#
# Youngs Moduli (GPa) = 29.34064 85.22868 55.71851
#
# Poissons Ratio (x) = 0.19619 0.51185
# Poissons Ratio (y) = 0.06754 0.21399
# Poissons Ratio (z) = 0.26954 0.32733
#
# Static dielectric constant tensor:
#      x y z
#    x 1.575820 0.000000 0.000000 
#    y 0.000000 1.597900 0.000000 
#    z 0.000000 0.000000 1.533210 
# 
# From -- ./inp_files/54464.got.cif
#   From: 2010.05.17/outbox.cif.g08.bks.cpg/sg71_28_cif.got.tgz:54464.got - 2010.06.03 16:22:01.
