data_PCOD9518141
_publ_section_title
;
Structure prediction by ZEFSAII (Michael W. Deem and Ramdas Pophale) SiO2 
 PCOD9518141
Probable space group: I M M M
;
_chemical_formula_sum "Si O2"
_cell_formula_units_Z 96
_cell_length_a 20.949911
_cell_length_b 29.939245
_cell_length_c 8.059650
_cell_angle_alpha 90.000000
_cell_angle_beta 90.000000
_cell_angle_gamma 90.000000
_cell_volume 5055.210088
_symmetry_space_group_name_H-M "I M M M"
_symmetry_group_IT_number 71
_symmetry_cell_setting 'orthorhombic'
loop_
_space_group_symop_operation_xyz
x,y,z
-x,-y,z
x,-y,-z
-x,y,-z
-x,-y,-z
x,y,-z
-x,y,z
x,-y,z
1/2+x,1/2+y,1/2+z
1/2-x,1/2-y,1/2+z
1/2+x,1/2-y,1/2-z
1/2-x,1/2+y,1/2-z
1/2-x,1/2-y,1/2-z
1/2+x,1/2+y,1/2-z
1/2-x,1/2+y,1/2+z
1/2+x,1/2-y,1/2+z
loop_
_atom_site_type_symbol
_atom_site_label
_atom_site_fract_x
_atom_site_fract_y
_atom_site_fract_z
Si Si1 0.650658 0.215438 0.307293
Si Si2 0.330785 0.051213 0.300587
Si Si3 0.072728 0.370857 0.696516
Si Si4 0.067786 0.947831 0.298537
Si Si5 0.793661 0.196421 0.801744
Si Si6 0.802343 0.095621 0.298166
O O1 0.632979 0.215683 0.500000
O O2 0.608411 0.176389 0.228385
O O3 0.725359 0.203398 0.285654
O O4 0.653856 0.266884 0.245236
O O5 0.326940 0.048636 0.500000
O O6 0.385480 0.087471 0.261342
O O7 0.263085 0.071821 0.241251
O O8 0.340976 0.000000 0.240082
O O9 0.069392 0.376488 0.500000
O O10 0.000000 0.370354 0.763329
O O11 0.068610 0.943938 0.500000
O O12 0.134054 0.928628 0.238188
O O13 0.000000 0.927943 0.240754
O O14 0.067058 0.000000 0.259807
O O15 0.809342 0.145890 0.762803
O O16 0.784897 0.202615 0.000000
O O17 0.800461 0.095423 0.500000
#
# Coordination Sequence:
#
# PCOD9518141 Si02
#       6
#    16  16  16  16  16  16
#     4  10  20  36  57  81 106 139 180 220 266 324
#     4  10  21  36  55  81 111 145 190 238 280 329
#     4  11  24  40  58  81 111 147 187 235 288 337
#     4   8  14  26  46  73 105 141 180 220 261 307
#     4  10  20  33  54  82 111 138 171 218 271 325
#     4  10  18  30  52  82 112 144 182 225 271 319
#
# _framework density 18.990309
#
# number of rings (size 3 to 8) (size 9 to 14) (size 15 to 20)
#    0.000    2.167    1.667    2.500    0.000    6.000 
#    0.000    2.500    0.000    5.000    0.000    1.167 
#    0.000    0.000    0.000    0.000    0.000    0.000 
#
# Total GULP energy -267426.067390 kJ/mol
# GULP energy per Si atom -5571.376404 kJ/mol
# Density = 1.894709 g / cm^3
# Si number density = 18.990309 Si / 1000 Ang^3
#
#
#
# Elastic Constant Matrix: (Units=GPa)
#
#
# Indices 1 2 3 4 5 6 
#
# 1 147.8843 93.0284 8.7385 0.0000 0.0000 0.0000
# 2 93.0284 148.6187 9.7189 0.0000 0.0000 0.0000
# 3 8.7385 9.7189 18.3257 0.0000 0.0000 0.0000
# 4 0.0000 0.0000 0.0000 26.9171 0.0000 0.0000
# 5 0.0000 0.0000 0.0000 0.0000 13.3458 0.0000
# 6 0.0000 0.0000 0.0000 0.0000 0.0000 25.7892
#
#
#
# Elastic Compliance Matrix: (Units=1/GPa)
#
#
# Indices 1 2 3 4 5 6 
#
# 1 0.011204 -0.006903 -0.001681 0.000000 0.000000 0.000000
# 2 -0.006903 0.011224 -0.002661 0.000000 0.000000 0.000000
# 3 -0.001681 -0.002661 0.056781 0.000000 0.000000 0.000000
# 4 0.000000 0.000000 0.000000 0.037151 0.000000 0.000000
# 5 0.000000 0.000000 0.000000 0.000000 0.074930 0.000000
# 6 0.000000 0.000000 0.000000 0.000000 0.000000 0.038776
#
#
# Mechanical properties :
#
#
# Convention : Reuss Voigt Hill
#
# Bulk Modulus (GPa) = 17.63110 59.75557 38.69334
# Shear Modulus (GPa) = 18.41878 26.76662 22.59270
#
# Velocity S-wave (km/s) = 3.11771 3.75839 3.45294
# Velocity P-wave (km/s) = 4.71853 7.09709 6.02632
#
# Compressibility (1/GPa) = 0.05671796
#
# Stress axis : x y z
#
# Youngs Moduli (GPa) = 89.25445 89.09723 17.61154
#
# Poissons Ratio (x) = 0.61505 0.02961
# Poissons Ratio (y) = 0.61614 0.04686
# Poissons Ratio (z) = 0.15008 0.23706
#
# Static dielectric constant tensor:
#      x y z
#    x 1.669510 0.000000 0.000000 
#    y 0.000000 1.698780 0.000000 
#    z 0.000000 0.000000 1.685520 
# 
# From -- ./inp_files/10870.got.cif
#   From: 2010.05.17/outbox.cif.g08.bks.cpg/sg71_6_cif.got.tgz:10870.got - 2010.06.03 16:22:01.
