data_PCOD9518327
_publ_section_title
;
Structure prediction by ZEFSAII (Michael W. Deem and Ramdas Pophale) SiO2 
 PCOD9518327
Probable space group: I M M M
;
_chemical_formula_sum "Si O2"
_cell_formula_units_Z 104
_cell_length_a 15.593909
_cell_length_b 19.145045
_cell_length_c 18.852697
_cell_angle_alpha 90.000000
_cell_angle_beta 90.000000
_cell_angle_gamma 90.000000
_cell_volume 5628.398966
_symmetry_space_group_name_H-M "I M M M"
_symmetry_group_IT_number 71
_symmetry_cell_setting 'orthorhombic'
loop_
_space_group_symop_operation_xyz
x,y,z
-x,-y,z
x,-y,-z
-x,y,-z
-x,-y,-z
x,y,-z
-x,y,z
x,-y,z
1/2+x,1/2+y,1/2+z
1/2-x,1/2-y,1/2+z
1/2+x,1/2-y,1/2-z
1/2-x,1/2+y,1/2-z
1/2-x,1/2-y,1/2-z
1/2+x,1/2+y,1/2-z
1/2-x,1/2+y,1/2+z
1/2+x,1/2-y,1/2+z
loop_
_atom_site_type_symbol
_atom_site_label
_atom_site_fract_x
_atom_site_fract_y
_atom_site_fract_z
Si Si1 0.103886 0.306585 0.918647
Si Si2 0.396868 0.078847 0.311677
Si Si3 0.603857 0.423494 0.084175
Si Si4 0.401790 0.718094 0.152635
Si Si5 0.324081 0.290051 0.296167
Si Si6 0.675217 0.132576 0.165074
Si Si7 0.600790 0.000000 0.084843
O O1 0.126485 0.381098 0.883514
O O2 0.144670 0.251568 0.864487
O O3 0.000000 0.299934 0.916709
O O4 0.131609 0.299875 0.000000
O O5 0.500000 0.076995 0.308358
O O6 0.365927 0.120341 0.242635
O O7 0.364087 0.000000 0.308828
O O8 0.500000 0.422973 0.094836
O O9 0.634751 0.500000 0.110182
O O10 0.637736 0.352011 0.118546
O O11 0.618548 0.420560 0.000000
O O12 0.500000 0.725059 0.129347
O O13 0.397022 0.704666 0.237174
O O14 0.356631 0.792017 0.136284
O O15 0.250000 0.250000 0.250000
O O16 0.276722 0.359785 0.322203
O O17 0.644748 0.068884 0.117036
O O18 0.500000 0.000000 0.105953
O O19 0.605741 0.000000 0.000000
#
# Coordination Sequence:
#
# PCOD9518327 Si02
#       7
#    16  16  16  16  16  16   8
#     4  10  20  35  57  85 116 149 190 241 291 345
#     4  10  18  31  56  83 112 151 193 232 284 346
#     4   8  15  29  48  73 106 138 168 211 268 321
#     4  10  18  31  56  82 107 141 190 232 268 328
#     4  10  20  34  53  79 108 143 184 230 282 333
#     4  11  21  35  56  81 112 150 184 234 288 335
#     4  11  24  40  58  84 114 146 190 235 282 342
#
# _framework density 18.477723999999998
#
# number of rings (size 3 to 8) (size 9 to 14) (size 15 to 20)
#    0.000    2.077    3.846    2.308    0.000    1.538 
#    1.385    5.385    0.000    0.000    0.000    0.000 
#    0.000    2.462    0.000    0.000    0.000    0.000 
#
# Total GULP energy -289770.726226 kJ/mol
# GULP energy per Si atom -5572.513966 kJ/mol
# Density = 1.843567 g / cm^3
# Si number density = 18.477724 Si / 1000 Ang^3
#
#
#
# Elastic Constant Matrix: (Units=GPa)
#
#
# Indices 1 2 3 4 5 6 
#
# 1 19.8787 18.8096 1.4487 0.0000 0.0000 0.0000
# 2 18.8096 149.5783 54.5216 0.0000 0.0000 0.0000
# 3 1.4487 54.5216 92.1414 0.0000 0.0000 0.0000
# 4 0.0000 0.0000 0.0000 32.9759 0.0000 0.0000
# 5 0.0000 0.0000 0.0000 0.0000 5.6451 0.0000
# 6 0.0000 0.0000 0.0000 0.0000 0.0000 20.8618
#
#
#
# Elastic Compliance Matrix: (Units=1/GPa)
#
#
# Indices 1 2 3 4 5 6 
#
# 1 0.058449 -0.008944 0.004373 0.000000 0.000000 0.000000
# 2 -0.008944 0.009893 -0.005713 0.000000 0.000000 0.000000
# 3 0.004373 -0.005713 0.014165 0.000000 0.000000 0.000000
# 4 0.000000 0.000000 0.000000 0.030325 0.000000 0.000000
# 5 0.000000 0.000000 0.000000 0.000000 0.177144 0.000000
# 6 0.000000 0.000000 0.000000 0.000000 0.000000 0.047934
#
#
# Mechanical properties :
#
#
# Convention : Reuss Voigt Hill
#
# Bulk Modulus (GPa) = 16.14490 45.68427 30.91459
# Shear Modulus (GPa) = 13.18828 24.35112 18.76970
#
# Velocity S-wave (km/s) = 2.67449 3.63418 3.19062
# Velocity P-wave (km/s) = 4.27711 6.51055 5.50822
#
# Compressibility (1/GPa) = 0.06193907
#
# Stress axis : x y z
#
# Youngs Moduli (GPa) = 17.10882 101.08571 70.59860
#
# Poissons Ratio (x) = 0.90413 -0.30876
# Poissons Ratio (y) = 0.15302 0.40333
# Poissons Ratio (z) = -0.07482 0.57750
#
# Static dielectric constant tensor:
#      x y z
#    x 1.694530 0.000000 0.000000 
#    y 0.000000 1.673380 0.000000 
#    z 0.000000 0.000000 1.628440 
# 
# From -- ./inp_files/46141.got.cif
#   From: 2010.05.17/outbox.cif.g08.bks.cpg/sg71_24_cif.got.tgz:46141.got - 2010.06.03 16:22:01.
