data_PCOD9518044
_publ_section_title
;
Structure prediction by ZEFSAII (Michael W. Deem and Ramdas Pophale) SiO2 
 PCOD9518044
Probable space group: I M M M
;
_chemical_formula_sum "Si O2"
_cell_formula_units_Z 72
_cell_length_a 8.197946
_cell_length_b 28.712234
_cell_length_c 17.495522
_cell_angle_alpha 90.000000
_cell_angle_beta 90.000000
_cell_angle_gamma 90.000000
_cell_volume 4118.119480
_symmetry_space_group_name_H-M "I M M M"
_symmetry_group_IT_number 71
_symmetry_cell_setting 'orthorhombic'
loop_
_space_group_symop_operation_xyz
x,y,z
-x,-y,z
x,-y,-z
-x,y,-z
-x,-y,-z
x,y,-z
-x,y,z
x,-y,z
1/2+x,1/2+y,1/2+z
1/2-x,1/2-y,1/2+z
1/2+x,1/2-y,1/2-z
1/2-x,1/2+y,1/2-z
1/2-x,1/2-y,1/2-z
1/2+x,1/2+y,1/2-z
1/2-x,1/2+y,1/2+z
1/2+x,1/2-y,1/2+z
loop_
_atom_site_type_symbol
_atom_site_label
_atom_site_fract_x
_atom_site_fract_y
_atom_site_fract_z
Si Si1 0.500000 0.943696 0.086319
Si Si2 0.816014 0.944889 0.187611
Si Si3 0.304523 0.299312 0.086290
Si Si4 0.309876 0.865110 0.275655
Si Si5 0.306144 0.283112 0.319580
O O1 0.666762 0.931972 0.131110
O O2 0.500000 0.000000 0.082105
O O3 0.500000 0.925143 0.000000
O O4 0.790461 0.911997 0.260905
O O5 0.000000 0.937356 0.156818
O O6 0.800844 0.000000 0.204528
O O7 0.500000 0.299716 0.091368
O O8 0.239059 0.335416 0.149630
O O9 0.245754 0.247120 0.107610
O O10 0.254520 0.311250 0.000000
O O11 0.500000 0.875811 0.280003
O O12 0.275057 0.831875 0.202213
O O13 0.500000 0.288828 0.318058
O O14 0.250000 0.250000 0.250000
#
# Coordination Sequence:
#
# PCOD9518044 Si02
#       5
#     8  16  16  16  16
#     4   9  18  34  54  78 107 137 173 217 268 320
#     4  10  20  35  56  82 111 144 185 227 269 321
#     4  10  20  34  52  76 107 140 177 224 275 324
#     4  11  20  33  55  78 105 141 184 224 268 324
#     4  10  18  30  49  72  99 131 172 215 263 321
#
# _framework density 17.483708
#
# number of rings (size 3 to 8) (size 9 to 14) (size 15 to 20)
#    0.000    1.889    1.111    7.333    0.000    2.222 
#    0.000    3.333    0.000    3.333    0.000    4.667 
#    0.000    0.000    0.000    0.000    0.000    0.000 
#
# Total GULP energy -200617.882966 kJ/mol
# GULP energy per Si atom -5572.718971 kJ/mol
# Density = 1.744391 g / cm^3
# Si number density = 17.483708 Si / 1000 Ang^3
#
#
#
# Elastic Constant Matrix: (Units=GPa)
#
#
# Indices 1 2 3 4 5 6 
#
# 1 110.2204 26.1650 33.2257 0.0000 0.0000 0.0000
# 2 26.1650 71.3191 36.1613 0.0000 0.0000 0.0000
# 3 33.2257 36.1613 88.7191 0.0000 0.0000 0.0000
# 4 0.0000 0.0000 0.0000 19.0449 0.0000 0.0000
# 5 0.0000 0.0000 0.0000 0.0000 19.6918 0.0000
# 6 0.0000 0.0000 0.0000 0.0000 0.0000 26.1329
#
#
#
# Elastic Compliance Matrix: (Units=1/GPa)
#
#
# Indices 1 2 3 4 5 6 
#
# 1 0.010531 -0.002349 -0.002986 0.000000 0.000000 0.000000
# 2 -0.002349 0.018198 -0.006538 0.000000 0.000000 0.000000
# 3 -0.002986 -0.006538 0.015055 0.000000 0.000000 0.000000
# 4 0.000000 0.000000 0.000000 0.052508 0.000000 0.000000
# 5 0.000000 0.000000 0.000000 0.000000 0.050782 0.000000
# 6 0.000000 0.000000 0.000000 0.000000 0.000000 0.038266
#
#
# Mechanical properties :
#
#
# Convention : Reuss Voigt Hill
#
# Bulk Modulus (GPa) = 49.90737 51.26250 50.58494
# Shear Modulus (GPa) = 23.17339 24.62102 23.89721
#
# Velocity S-wave (km/s) = 3.64459 3.75671 3.70107
# Velocity P-wave (km/s) = 6.80572 6.94269 6.87454
#
# Compressibility (1/GPa) = 0.02003712
#
# Stress axis : x y z
#
# Youngs Moduli (GPa) = 94.96128 54.95050 66.42498
#
# Poissons Ratio (x) = 0.12909 0.19836
# Poissons Ratio (y) = 0.22309 0.43426
# Poissons Ratio (z) = 0.28357 0.35925
#
# Static dielectric constant tensor:
#      x y z
#    x 1.606090 0.000000 0.000000 
#    y 0.000000 1.609970 0.000000 
#    z 0.000000 0.000000 1.606070 
# 
# From -- ./inp_files/42186.got.cif
#   From: 2010.05.17/outbox.cif.g08.bks.cpg/sg71_22_cif.got.tgz:42186.got - 2010.06.03 16:22:01.
