data_PCOD9518549
_publ_section_title
;
Structure prediction by ZEFSAII (Michael W. Deem and Ramdas Pophale) SiO2 
 PCOD9518549
Probable space group: I M M M
;
_chemical_formula_sum "Si O2"
_cell_formula_units_Z 104
_cell_length_a 22.100572
_cell_length_b 17.834781
_cell_length_c 14.925418
_cell_angle_alpha 90.000000
_cell_angle_beta 90.000000
_cell_angle_gamma 90.000000
_cell_volume 5882.985768
_symmetry_space_group_name_H-M "I M M M"
_symmetry_group_IT_number 71
_symmetry_cell_setting 'orthorhombic'
loop_
_space_group_symop_operation_xyz
x,y,z
-x,-y,z
x,-y,-z
-x,y,-z
-x,-y,-z
x,y,-z
-x,y,z
x,-y,z
1/2+x,1/2+y,1/2+z
1/2-x,1/2-y,1/2+z
1/2+x,1/2-y,1/2-z
1/2-x,1/2+y,1/2-z
1/2-x,1/2-y,1/2-z
1/2+x,1/2+y,1/2-z
1/2-x,1/2+y,1/2+z
1/2+x,1/2-y,1/2+z
loop_
_atom_site_type_symbol
_atom_site_label
_atom_site_fract_x
_atom_site_fract_y
_atom_site_fract_z
Si Si1 0.226133 0.692353 0.826552
Si Si2 0.275775 0.911088 0.830000
Si Si3 0.928661 0.087128 0.240069
Si Si4 0.345727 0.328469 0.394390
Si Si5 0.000000 0.585406 0.610186
Si Si6 0.856212 0.841581 0.395275
Si Si7 0.612882 0.177275 0.103939
O O1 0.250000 0.750000 0.750000
O O2 0.208633 0.619252 0.769632
O O3 0.175887 0.742512 0.875793
O O4 0.283814 0.667887 0.885257
O O5 0.210531 0.880247 0.860610
O O6 0.325615 0.869125 0.889450
O O7 0.278611 0.000000 0.837090
O O8 0.901709 0.142651 0.164786
O O9 0.887755 0.100031 0.328952
O O10 0.000000 0.101037 0.257640
O O11 0.922299 0.000000 0.211878
O O12 0.354955 0.338713 0.500000
O O13 0.058902 0.628886 0.642894
O O14 0.000000 0.500000 0.639203
O O15 0.000000 0.584177 0.500000
O O16 0.870707 0.853671 0.500000
O O17 0.880087 0.760727 0.360044
O O18 0.598687 0.188800 0.000000
#
# Coordination Sequence:
#
# PCOD9518549 Si02
#       7
#    16  16  16  16   8  16  16
#     4  10  18  35  56  81 112 142 179 231 285 337
#     4  11  20  31  53  81 111 144 180 224 280 342
#     4  11  25  42  57  80 116 153 195 246 291 338
#     4  11  21  37  61  84 110 147 190 238 292 342
#     4   9  18  30  42  64 105 141 164 207 265 317
#     4  11  21  37  59  81 107 147 192 230 278 336
#     4  10  19  31  48  75 106 140 181 221 265 331
#
# _framework density 17.678097999999999
#
# number of rings (size 3 to 8) (size 9 to 14) (size 15 to 20)
#    0.000    1.462    6.154    1.846    1.077    3.692 
#    0.000    1.538    0.000    1.385    0.000    0.000 
#    0.000    0.000    0.000    3.385    0.000    0.000 
#
# Total GULP energy -289792.414306 kJ/mol
# GULP energy per Si atom -5572.931044 kJ/mol
# Density = 1.763786 g / cm^3
# Si number density = 17.678098 Si / 1000 Ang^3
#
#
#
# Elastic Constant Matrix: (Units=GPa)
#
#
# Indices 1 2 3 4 5 6 
#
# 1 61.6960 3.0304 15.4302 0.0000 0.0000 0.0000
# 2 3.0304 38.6163 17.0259 0.0000 0.0000 0.0000
# 3 15.4302 17.0259 85.4710 0.0000 0.0000 0.0000
# 4 0.0000 0.0000 0.0000 12.8090 0.0000 0.0000
# 5 0.0000 0.0000 0.0000 0.0000 8.5687 0.0000
# 6 0.0000 0.0000 0.0000 0.0000 0.0000 24.3859
#
#
#
# Elastic Compliance Matrix: (Units=1/GPa)
#
#
# Indices 1 2 3 4 5 6 
#
# 1 0.016975 0.000021 -0.003069 0.000000 0.000000 0.000000
# 2 0.000021 0.028389 -0.005659 0.000000 0.000000 0.000000
# 3 -0.003069 -0.005659 0.013381 0.000000 0.000000 0.000000
# 4 0.000000 0.000000 0.000000 0.078070 0.000000 0.000000
# 5 0.000000 0.000000 0.000000 0.000000 0.116703 0.000000
# 6 0.000000 0.000000 0.000000 0.000000 0.000000 0.041007
#
#
# Mechanical properties :
#
#
# Convention : Reuss Voigt Hill
#
# Bulk Modulus (GPa) = 24.19443 28.52848 26.36145
# Shear Modulus (GPa) = 15.35075 19.17249 17.26162
#
# Velocity S-wave (km/s) = 2.94997 3.29680 3.12820
# Velocity P-wave (km/s) = 5.03179 5.53757 5.29073
#
# Compressibility (1/GPa) = 0.04133183
#
# Stress axis : x y z
#
# Youngs Moduli (GPa) = 58.91028 35.22466 74.73209
#
# Poissons Ratio (x) = -0.00073 0.22933
# Poissons Ratio (y) = -0.00123 0.42290
# Poissons Ratio (z) = 0.18078 0.19933
#
# Static dielectric constant tensor:
#      x y z
#    x 1.631450 0.000000 0.000000 
#    y 0.000000 1.619790 0.000000 
#    z 0.000000 0.000000 1.620440 
# 
# From -- ./inp_files/38109.got.cif
#   From: 2010.05.17/outbox.cif.g08.bks.cpg/sg71_20_cif.got.tgz:38109.got - 2010.06.03 16:22:01.
