data_PCOD9518085
_publ_section_title
;
Structure prediction by ZEFSAII (Michael W. Deem and Ramdas Pophale) SiO2 
 PCOD9518085
Probable space group: I M M M
;
_chemical_formula_sum "Si O2"
_cell_formula_units_Z 72
_cell_length_a 11.654656
_cell_length_b 18.763234
_cell_length_c 14.333082
_cell_angle_alpha 90.000000
_cell_angle_beta 90.000000
_cell_angle_gamma 90.000000
_cell_volume 3134.344579
_symmetry_space_group_name_H-M "I M M M"
_symmetry_group_IT_number 71
_symmetry_cell_setting 'orthorhombic'
loop_
_space_group_symop_operation_xyz
x,y,z
-x,-y,z
x,-y,-z
-x,y,-z
-x,-y,-z
x,y,-z
-x,y,z
x,-y,z
1/2+x,1/2+y,1/2+z
1/2-x,1/2-y,1/2+z
1/2+x,1/2-y,1/2-z
1/2-x,1/2+y,1/2-z
1/2-x,1/2-y,1/2-z
1/2+x,1/2+y,1/2-z
1/2-x,1/2+y,1/2+z
1/2+x,1/2-y,1/2+z
loop_
_atom_site_type_symbol
_atom_site_label
_atom_site_fract_x
_atom_site_fract_y
_atom_site_fract_z
Si Si1 0.000000 0.917633 0.852219
Si Si2 0.630813 0.777831 0.114842
Si Si3 0.865135 0.500000 0.886725
Si Si4 0.500000 0.581965 0.129475
Si Si5 0.747626 0.642444 0.896078
Si Si6 0.245627 0.581000 0.390548
O O1 0.000000 0.915262 0.741162
O O2 0.123553 0.890239 0.883537
O O3 0.000000 0.000000 0.884913
O O4 0.500000 0.760697 0.143714
O O5 0.726479 0.720386 0.146416
O O6 0.663570 0.857274 0.146619
O O7 0.632897 0.776212 0.000000
O O8 0.810304 0.574241 0.851638
O O9 0.000000 0.500000 0.870211
O O10 0.844084 0.500000 0.000000
O O11 0.500000 0.500000 0.102118
O O12 0.383948 0.617124 0.096110
O O13 0.798661 0.652067 0.000000
O O14 0.218691 0.574528 0.500000
O O15 0.239687 0.500000 0.351028
#
# Coordination Sequence:
#
# PCOD9518085 Si02
#       6
#     8  16   8   8  16  16
#     4   9  19  33  49  73  99 125 165 213 253 298
#     4   9  17  29  48  76 104 126 161 213 254 292
#     4   9  18  31  47  71 103 134 167 206 244 291
#     4  11  19  29  51  77  96 131 173 208 247 289
#     4  10  18  30  50  74 102 134 167 205 245 290
#     4   9  17  32  53  73  96 130 166 207 260 313
#
# _framework density 22.971311
#
# number of rings (size 3 to 8) (size 9 to 14) (size 15 to 20)
#    0.000    2.556    2.222    0.667    0.000    2.222 
#    2.000    3.333    0.000    1.333    0.000    0.000 
#    0.000    0.000    0.000    0.000    0.000    0.000 
#
# Total GULP energy -200747.629837 kJ/mol
# GULP energy per Si atom -5576.323051 kJ/mol
# Density = 2.291903 g / cm^3
# Si number density = 22.971311 Si / 1000 Ang^3
#
#
#
# Elastic Constant Matrix: (Units=GPa)
#
#
# Indices 1 2 3 4 5 6 
#
# 1 77.3881 56.8698 -5.9069 0.0000 0.0000 0.0000
# 2 56.8698 170.3300 23.3349 0.0000 0.0001 0.0000
# 3 -5.9069 23.3349 59.1566 0.0001 0.0002 0.0000
# 4 0.0000 0.0000 0.0001 13.7692 0.0001 0.0000
# 5 0.0000 0.0001 0.0002 0.0001 -78.8117 0.0000
# 6 0.0000 0.0000 0.0000 0.0000 0.0000 34.4071
#
#
#
# Elastic Compliance Matrix: (Units=1/GPa)
#
#
# Indices 1 2 3 4 5 6 
#
# 1 0.018166 -0.006675 0.004447 0.000000 0.000000 0.000000
# 2 -0.006675 0.008659 -0.004082 0.000000 0.000000 0.000000
# 3 0.004447 -0.004082 0.018958 0.000000 0.000000 0.000000
# 4 0.000000 0.000000 0.000000 0.072626 0.000000 0.000000
# 5 0.000000 0.000000 0.000000 0.000000 -0.012688 0.000000
# 6 0.000000 0.000000 0.000000 0.000000 0.000000 0.029064
#
#
# Mechanical properties :
#
#
# Convention : Reuss Voigt Hill
#
# Bulk Modulus (GPa) = 30.15330 50.60781 40.38056
# Shear Modulus (GPa) = 31.55393 9.37803 20.46598
#
# Velocity S-wave (km/s) = 3.71026 2.02271 2.98809
# Velocity P-wave (km/s) = 5.61335 5.24727 5.43340
#
# Compressibility (1/GPa) = 0.03316387
#
# Stress axis : x y z
#
# Youngs Moduli (GPa) = 55.04735 115.49110 52.74687
#
# Poissons Ratio (x) = 0.77085 -0.23455
# Poissons Ratio (y) = 0.36742 0.21531
# Poissons Ratio (z) = -0.24478 0.47143
#
# Static dielectric constant tensor:
#      x y z
#    x 1.822050 0.000000 0.000000 
#    y 0.000000 1.924460 0.000000 
#    z 0.000000 0.000000 1.854590 
# 
# From -- ./inp_files/43102.got.cif
#   From: 2010.05.17/outbox.cif.g08.bks.cpg/sg71_22_cif.got.tgz:43102.got - 2010.06.03 16:22:01.
