data_PCOD9518348
_publ_section_title
;
Structure prediction by ZEFSAII (Michael W. Deem and Ramdas Pophale) SiO2 
 PCOD9518348
Probable space group: I M M M
;
_chemical_formula_sum "Si O2"
_cell_formula_units_Z 96
_cell_length_a 24.222781
_cell_length_b 7.413490
_cell_length_c 26.180993
_cell_angle_alpha 90.000000
_cell_angle_beta 90.000000
_cell_angle_gamma 90.000000
_cell_volume 4701.460843
_symmetry_space_group_name_H-M "I M M M"
_symmetry_group_IT_number 71
_symmetry_cell_setting 'orthorhombic'
loop_
_space_group_symop_operation_xyz
x,y,z
-x,-y,z
x,-y,-z
-x,y,-z
-x,-y,-z
x,y,-z
-x,y,z
x,-y,z
1/2+x,1/2+y,1/2+z
1/2-x,1/2-y,1/2+z
1/2+x,1/2-y,1/2-z
1/2-x,1/2+y,1/2-z
1/2-x,1/2-y,1/2-z
1/2+x,1/2+y,1/2-z
1/2-x,1/2+y,1/2+z
1/2+x,1/2-y,1/2+z
loop_
_atom_site_type_symbol
_atom_site_label
_atom_site_fract_x
_atom_site_fract_y
_atom_site_fract_z
Si Si1 0.390449 0.792964 0.653159
Si Si2 0.500000 0.780096 0.708660
Si Si3 0.802365 0.780367 0.557899
Si Si4 0.878288 0.778817 0.348717
Si Si5 0.500000 0.709420 0.171382
Si Si6 0.824141 0.720375 0.942014
Si Si7 0.685081 0.286067 0.253599
O O1 0.445160 0.716263 0.679449
O O2 0.365621 0.713256 0.601359
O O3 0.342570 0.792021 0.695724
O O4 0.404800 0.000000 0.641070
O O5 0.500000 0.718770 0.767142
O O6 0.500000 0.000000 0.710791
O O7 0.816231 0.724231 0.500000
O O8 0.844232 0.721093 0.601605
O O9 0.739173 0.725290 0.568889
O O10 0.802688 0.000000 0.558182
O O11 0.846790 0.721673 0.297092
O O12 0.941556 0.715313 0.347471
O O13 0.878545 0.000000 0.348163
O O14 0.500000 0.500000 0.155915
O O15 0.824254 0.500000 0.940617
O O16 0.837796 0.773444 0.000000
O O17 0.676923 0.500000 0.256619
O O18 0.750000 0.250000 0.250000
#
# Coordination Sequence:
#
# PCOD9518348 Si02
#       7
#    16   8  16  16   8  16  16
#     4  10  19  32  49  71  99 128 165 206 246 294
#     4  10  20  32  47  69  99 131 162 205 252 286
#     4   8  13  23  40  63  91 121 152 190 239 287
#     4   9  17  28  44  66  92 123 158 194 233 282
#     4  10  18  32  49  65  91 129 166 195 230 290
#     4   8  14  26  46  69  94 127 163 200 246 296
#     4  11  21  32  48  71  99 128 160 201 250 298
#
# _framework density 20.419186
#
# number of rings (size 3 to 8) (size 9 to 14) (size 15 to 20)
#    0.000    2.667    1.667    2.500    0.000    2.667 
#    0.000    0.833    0.000    5.500    0.000    0.000 
#    0.000    8.000    0.000    0.000    0.000    0.000 
#
# Total GULP energy -267971.713425 kJ/mol
# GULP energy per Si atom -5582.744030 kJ/mol
# Density = 2.037271 g / cm^3
# Si number density = 20.419186 Si / 1000 Ang^3
#
#
#
# Elastic Constant Matrix: (Units=GPa)
#
#
# Indices 1 2 3 4 5 6 
#
# 1 87.1329 -12.0017 30.8571 0.0000 0.0000 0.0000
# 2 -12.0017 67.4427 -10.6550 0.0000 0.0000 0.0000
# 3 30.8571 -10.6550 95.0868 0.0000 0.0000 0.0000
# 4 0.0000 0.0000 0.0000 5.8832 0.0000 0.0000
# 5 0.0000 0.0000 0.0000 0.0000 30.3512 0.0000
# 6 0.0000 0.0000 0.0000 0.0000 0.0000 3.1036
#
#
#
# Elastic Compliance Matrix: (Units=1/GPa)
#
#
# Indices 1 2 3 4 5 6 
#
# 1 0.013155 0.001697 -0.004079 0.000000 0.000000 0.000000
# 2 0.001697 0.015313 0.001165 0.000000 0.000000 0.000000
# 3 -0.004079 0.001165 0.011971 0.000000 0.000000 0.000000
# 4 0.000000 0.000000 0.000000 0.169977 0.000000 0.000000
# 5 0.000000 0.000000 0.000000 0.000000 0.032948 0.000000
# 6 0.000000 0.000000 0.000000 0.000000 0.000000 0.322205
#
#
# Mechanical properties :
#
#
# Convention : Reuss Voigt Hill
#
# Bulk Modulus (GPa) = 26.31200 29.56257 27.93729
# Shear Modulus (GPa) = 8.61073 23.96506 16.28790
#
# Velocity S-wave (km/s) = 2.05576 3.42958 2.82738
# Velocity P-wave (km/s) = 4.30682 5.49472 4.93663
#
# Compressibility (1/GPa) = 0.03800548
#
# Stress axis : x y z
#
# Youngs Moduli (GPa) = 76.01738 65.30216 83.53565
#
# Poissons Ratio (x) = -0.11079 0.34073
# Poissons Ratio (y) = -0.12897 -0.09735
# Poissons Ratio (z) = 0.31006 -0.07610
#
# Static dielectric constant tensor:
#      x y z
#    x 1.707450 0.000000 0.000000 
#    y 0.000000 1.856910 0.000000 
#    z 0.000000 0.000000 1.691900 
# 
# From -- ./inp_files/61561.got.cif
#   From: 2010.05.17/outbox.cif.g08.bks.cpg/sg71_31_cif.got.tgz:61561.got - 2010.06.03 16:22:01.
