data_PCOD9518459
_publ_section_title
;
Structure prediction by ZEFSAII (Michael W. Deem and Ramdas Pophale) SiO2 
 PCOD9518459
Probable space group: I M M M
;
_chemical_formula_sum "Si O2"
_cell_formula_units_Z 72
_cell_length_a 14.697204
_cell_length_b 15.462329
_cell_length_c 14.568967
_cell_angle_alpha 90.000000
_cell_angle_beta 90.000000
_cell_angle_gamma 90.000000
_cell_volume 3310.841511
_symmetry_space_group_name_H-M "I M M M"
_symmetry_group_IT_number 71
_symmetry_cell_setting 'orthorhombic'
loop_
_space_group_symop_operation_xyz
x,y,z
-x,-y,z
x,-y,-z
-x,y,-z
-x,-y,-z
x,y,-z
-x,y,z
x,-y,z
1/2+x,1/2+y,1/2+z
1/2-x,1/2-y,1/2+z
1/2+x,1/2-y,1/2-z
1/2-x,1/2+y,1/2-z
1/2-x,1/2-y,1/2-z
1/2+x,1/2+y,1/2-z
1/2-x,1/2+y,1/2+z
1/2+x,1/2-y,1/2+z
loop_
_atom_site_type_symbol
_atom_site_label
_atom_site_fract_x
_atom_site_fract_y
_atom_site_fract_z
Si Si1 0.212027 0.671076 0.650822
Si Si2 0.107670 0.000000 0.387853
Si Si3 0.095224 0.099690 0.110597
Si Si4 0.107568 0.500000 0.869561
Si Si5 0.253031 0.855963 0.644003
Si Si6 0.105355 0.500000 0.354524
O O1 0.316643 0.646373 0.641668
O O2 0.209819 0.766317 0.607496
O O3 0.198986 0.672377 0.760472
O O4 0.154382 0.589085 0.614519
O O5 0.165861 0.080835 0.349847
O O6 0.114758 0.000000 0.500000
O O7 0.000000 0.000000 0.364923
O O8 0.000000 0.138262 0.143191
O O9 0.099467 0.000000 0.139674
O O10 0.095015 0.099941 0.000000
O O11 0.167210 0.415957 0.899327
O O12 0.111109 0.500000 0.757391
O O13 0.000000 0.500000 0.894352
O O14 0.000000 0.500000 0.380752
#
# Coordination Sequence:
#
# PCOD9518459 Si02
#       6
#    16   8  16   8  16   8
#     4  10  18  33  53  78 108 134 173 223 270 324
#     4  10  22  40  57  75 106 149 195 237 273 314
#     4   9  18  31  48  73 104 136 166 200 254 320
#     4   8  15  31  49  69 101 132 161 206 265 321
#     4   9  20  33  53  81 102 133 180 226 271 316
#     4   9  17  29  47  69  99 137 167 203 261 320
#
# _framework density 21.746737
#
# number of rings (size 3 to 8) (size 9 to 14) (size 15 to 20)
#    0.000    2.778    1.111    1.333    0.000    3.556 
#    0.000    4.444    0.000    6.667    0.000    0.000 
#    0.000    0.000    0.000    0.000    0.000    0.000 
#
# Total GULP energy -200434.700576 kJ/mol
# GULP energy per Si atom -5567.630572 kJ/mol
# Density = 2.169724 g / cm^3
# Si number density = 21.746737 Si / 1000 Ang^3
#
#
#
# Elastic Constant Matrix: (Units=GPa)
#
#
# Indices 1 2 3 4 5 6 
#
# 1 170.0589 98.1639 -0.5638 0.0000 0.0000 0.0000
# 2 98.1639 201.3396 14.5468 0.0000 0.0000 0.0000
# 3 -0.5638 14.5468 59.5456 0.0000 0.0000 0.0000
# 4 0.0000 0.0000 0.0000 -6.6222 0.0000 0.0000
# 5 0.0000 0.0000 0.0000 0.0000 58.9158 0.0000
# 6 0.0000 0.0000 0.0000 0.0000 0.0000 -1.6937
#
#
#
# Elastic Compliance Matrix: (Units=1/GPa)
#
#
# Indices 1 2 3 4 5 6 
#
# 1 0.008251 -0.004101 0.001080 0.000000 0.000000 0.000000
# 2 -0.004101 0.007094 -0.001772 0.000000 0.000000 0.000000
# 3 0.001080 -0.001772 0.017237 0.000000 0.000000 0.000000
# 4 0.000000 0.000000 0.000000 -0.151007 0.000000 0.000000
# 5 0.000000 0.000000 0.000000 0.000000 0.016973 0.000000
# 6 0.000000 0.000000 0.000000 0.000000 0.000000 -0.590439
#
#
# Mechanical properties :
#
#
# Convention : Reuss Voigt Hill
#
# Bulk Modulus (GPa) = 43.48486 72.80423 58.14454
# Shear Modulus (GPa) = -7.41137 31.37314 11.98089
#
# Velocity S-wave (km/s) = -1.84809 3.80236 2.34973
# Velocity P-wave (km/s) = 3.93517 7.26830 5.84438
#
# Compressibility (1/GPa) = 0.02299651
#
# Stress axis : x y z
#
# Youngs Moduli (GPa) = 121.19663 140.96134 58.01493
#
# Poissons Ratio (x) = 0.57806 -0.06265
# Poissons Ratio (y) = 0.49701 0.10280
# Poissons Ratio (z) = -0.13089 0.24977
#
# Static dielectric constant tensor:
#      x y z
#    x 1.750770 0.000000 0.000000 
#    y 0.000000 1.855460 0.000000 
#    z 0.000000 0.000000 1.905570 
# 
# From -- ./inp_files/34117.got.cif
#   From: 2010.05.17/outbox.cif.g08.bks.cpg/sg71_18_cif.got.tgz:34117.got - 2010.06.03 16:22:01.
