data_PCOD9518031
_publ_section_title
;
Structure prediction by ZEFSAII (Michael W. Deem and Ramdas Pophale) SiO2 
 PCOD9518031
Probable space group: I M M M
;
_chemical_formula_sum "Si O2"
_cell_formula_units_Z 72
_cell_length_a 29.262941
_cell_length_b 16.653970
_cell_length_c 8.711920
_cell_angle_alpha 90.000000
_cell_angle_beta 90.000000
_cell_angle_gamma 90.000000
_cell_volume 4245.703173
_symmetry_space_group_name_H-M "I M M M"
_symmetry_group_IT_number 71
_symmetry_cell_setting 'orthorhombic'
loop_
_space_group_symop_operation_xyz
x,y,z
-x,-y,z
x,-y,-z
-x,y,-z
-x,-y,-z
x,y,-z
-x,y,z
x,-y,z
1/2+x,1/2+y,1/2+z
1/2-x,1/2-y,1/2+z
1/2+x,1/2-y,1/2-z
1/2-x,1/2+y,1/2-z
1/2-x,1/2-y,1/2-z
1/2+x,1/2+y,1/2-z
1/2-x,1/2+y,1/2+z
1/2+x,1/2-y,1/2+z
loop_
_atom_site_type_symbol
_atom_site_label
_atom_site_fract_x
_atom_site_fract_y
_atom_site_fract_z
Si Si1 0.858453 0.243908 0.684406
Si Si2 0.055447 0.500000 0.825460
Si Si3 0.447926 0.829869 0.184649
Si Si4 0.723940 0.828235 0.683674
Si Si5 0.193168 0.090261 0.816809
O O1 0.854265 0.242640 0.500000
O O2 0.910454 0.263830 0.728961
O O3 0.826532 0.315429 0.750184
O O4 0.839090 0.159994 0.749003
O O5 0.067881 0.582757 0.742901
O O6 0.000000 0.500000 0.826938
O O7 0.072094 0.500000 0.000000
O O8 0.500000 0.815007 0.239234
O O9 0.449107 0.832488 0.000000
O O10 0.723437 0.827265 0.500000
O O11 0.750000 0.750000 0.750000
O O12 0.756182 0.898654 0.745569
O O13 0.176630 0.000000 0.784963
O O14 0.196271 0.101597 0.000000
#
# Coordination Sequence:
#
# PCOD9518031 Si02
#       5
#    16   8  16  16  16
#     4  10  19  32  52  75 100 131 166 205 247 292
#     4   9  17  29  47  71  97 125 159 201 245 287
#     4   9  18  33  52  73  99 133 169 203 244 294
#     4  10  18  30  49  70  96 126 158 197 241 290
#     4  10  20  34  52  73  99 131 166 205 247 294
#
# _framework density 16.958321000000002
#
# number of rings (size 3 to 8) (size 9 to 14) (size 15 to 20)
#    0.000    2.333    0.000    6.333    0.000    4.889 
#    2.000    0.000    0.000    0.667    0.000    4.667 
#    0.000    0.000    0.000    0.000    0.000    0.000 
#
# Total GULP energy -200564.874934 kJ/mol
# GULP energy per Si atom -5571.246526 kJ/mol
# Density = 1.691972 g / cm^3
# Si number density = 16.958321 Si / 1000 Ang^3
#
#
#
# Elastic Constant Matrix: (Units=GPa)
#
#
# Indices 1 2 3 4 5 6 
#
# 1 108.8964 57.1355 39.0151 0.0000 0.0000 0.0000
# 2 57.1355 98.3297 37.7826 0.0000 0.0000 0.0000
# 3 39.0151 37.7826 73.2988 0.0000 0.0000 0.0000
# 4 0.0000 0.0000 0.0000 21.7610 0.0000 0.0000
# 5 0.0000 0.0000 0.0000 0.0000 19.2450 0.0000
# 6 0.0000 0.0000 0.0000 0.0000 0.0000 23.9329
#
#
#
# Elastic Compliance Matrix: (Units=1/GPa)
#
#
# Indices 1 2 3 4 5 6 
#
# 1 0.014135 -0.006637 -0.004103 0.000000 0.000000 0.000000
# 2 -0.006637 0.015798 -0.004610 0.000000 0.000000 0.000000
# 3 -0.004103 -0.004610 0.018203 0.000000 0.000000 0.000000
# 4 0.000000 0.000000 0.000000 0.045954 0.000000 0.000000
# 5 0.000000 0.000000 0.000000 0.000000 0.051962 0.000000
# 6 0.000000 0.000000 0.000000 0.000000 0.000000 0.041784
#
#
# Mechanical properties :
#
#
# Convention : Reuss Voigt Hill
#
# Bulk Modulus (GPa) = 57.35314 60.93235 59.14274
# Shear Modulus (GPa) = 22.28685 22.76054 22.52369
#
# Velocity S-wave (km/s) = 3.62914 3.66751 3.64837
# Velocity P-wave (km/s) = 7.17317 7.34457 7.25938
#
# Compressibility (1/GPa) = 0.01743584
#
# Stress axis : x y z
#
# Youngs Moduli (GPa) = 70.74526 63.29948 54.93574
#
# Poissons Ratio (x) = 0.42012 0.22539
# Poissons Ratio (y) = 0.46954 0.25328
# Poissons Ratio (z) = 0.29025 0.29184
#
# Static dielectric constant tensor:
#      x y z
#    x 1.627940 0.000000 0.000000 
#    y 0.000000 1.658230 0.000000 
#    z 0.000000 0.000000 1.573240 
# 
# From -- ./inp_files/14484.got.cif
#   From: 2010.05.17/outbox.cif.g08.bks.cpg/sg71_8_cif.got.tgz:14484.got - 2010.06.03 16:22:01.
