data_PCOD9518479
_publ_section_title
;
Structure prediction by ZEFSAII (Michael W. Deem and Ramdas Pophale) SiO2 
 PCOD9518479
Probable space group: I M M M
;
_chemical_formula_sum "Si O2"
_cell_formula_units_Z 104
_cell_length_a 13.817953
_cell_length_b 17.842992
_cell_length_c 21.171221
_cell_angle_alpha 90.000000
_cell_angle_beta 90.000000
_cell_angle_gamma 90.000000
_cell_volume 5219.841280
_symmetry_space_group_name_H-M "I M M M"
_symmetry_group_IT_number 71
_symmetry_cell_setting 'orthorhombic'
loop_
_space_group_symop_operation_xyz
x,y,z
-x,-y,z
x,-y,-z
-x,y,-z
-x,-y,-z
x,y,-z
-x,y,z
x,-y,z
1/2+x,1/2+y,1/2+z
1/2-x,1/2-y,1/2+z
1/2+x,1/2-y,1/2-z
1/2-x,1/2+y,1/2-z
1/2-x,1/2-y,1/2-z
1/2+x,1/2+y,1/2-z
1/2-x,1/2+y,1/2+z
1/2+x,1/2-y,1/2+z
loop_
_atom_site_type_symbol
_atom_site_label
_atom_site_fract_x
_atom_site_fract_y
_atom_site_fract_z
Si Si1 0.385217 0.295329 0.203420
Si Si2 0.706262 0.082638 0.890972
Si Si3 0.203026 0.636021 0.254478
Si Si4 0.116056 0.740013 0.430915
Si Si5 0.386515 0.328086 0.424757
Si Si6 0.383474 0.167309 0.626581
Si Si7 0.118051 0.585218 0.000000
O O1 0.500000 0.305086 0.212117
O O2 0.316771 0.351585 0.241186
O O3 0.350515 0.213919 0.227192
O O4 0.359415 0.292347 0.128775
O O5 0.689897 0.085233 0.815458
O O6 0.650683 0.154708 0.918990
O O7 0.817345 0.103722 0.906477
O O8 0.680767 0.000000 0.915051
O O9 0.157120 0.622366 0.186222
O O10 0.151280 0.764503 0.500000
O O11 0.000000 0.738409 0.431501
O O12 0.375387 0.311003 0.500000
O O13 0.500000 0.342464 0.414214
O O14 0.357189 0.255419 0.382705
O O15 0.500000 0.166642 0.630402
O O16 0.351720 0.127510 0.562712
O O17 0.150534 0.500000 0.000000
O O18 0.000000 0.586024 0.000000
#
# Coordination Sequence:
#
# PCOD9518479 Si02
#       7
#    16  16  16  16  16  16   8
#     4   9  17  32  52  76 103 126 163 216 264 312
#     4  11  24  37  48  69 105 144 184 225 257 297
#     4  10  20  32  49  75  98 137 175 208 260 313
#     4   9  18  33  53  76 101 130 164 209 263 316
#     4  10  20  35  56  80 105 136 175 221 271 313
#     4  10  18  33  56  82 109 136 168 212 262 319
#     4   9  18  32  52  82 114 138 162 199 260 332
#
# _framework density 19.923977000000001
#
# number of rings (size 3 to 8) (size 9 to 14) (size 15 to 20)
#    0.000    2.231    0.769    3.692    0.000    4.923 
#    1.385    1.538    0.000    0.000    0.000    0.000 
#    0.000    0.615    0.000    0.000    0.000    0.000 
#
# Total GULP energy -290071.984047 kJ/mol
# GULP energy per Si atom -5578.307386 kJ/mol
# Density = 1.987863 g / cm^3
# Si number density = 19.923977 Si / 1000 Ang^3
#
#
#
# Elastic Constant Matrix: (Units=GPa)
#
#
# Indices 1 2 3 4 5 6 
#
# 1 49.3985 -14.9259 7.7739 0.0000 0.0000 0.0000
# 2 -14.9259 24.4488 -6.8102 0.0000 0.0000 0.0000
# 3 7.7739 -6.8102 107.2139 0.0000 0.0000 0.0000
# 4 0.0000 0.0000 0.0000 10.2669 0.0000 0.0000
# 5 0.0000 0.0000 0.0000 0.0000 30.5041 0.0000
# 6 0.0000 0.0000 0.0000 0.0000 0.0000 9.5269
#
#
#
# Elastic Compliance Matrix: (Units=1/GPa)
#
#
# Indices 1 2 3 4 5 6 
#
# 1 0.024899 0.014963 -0.000855 0.000000 0.000000 0.000000
# 2 0.014963 0.050630 0.002131 0.000000 0.000000 0.000000
# 3 -0.000855 0.002131 0.009525 0.000000 0.000000 0.000000
# 4 0.000000 0.000000 0.000000 0.097400 0.000000 0.000000
# 5 0.000000 0.000000 0.000000 0.000000 0.032782 0.000000
# 6 0.000000 0.000000 0.000000 0.000000 0.000000 0.104966
#
#
# Mechanical properties :
#
#
# Convention : Reuss Voigt Hill
#
# Bulk Modulus (GPa) = 8.50839 17.01520 12.76179
# Shear Modulus (GPa) = 15.29514 23.06116 19.17815
#
# Velocity S-wave (km/s) = 2.77370 3.40583 3.10589
# Velocity P-wave (km/s) = 3.81282 4.90152 4.39104
#
# Compressibility (1/GPa) = 0.11753110
#
# Stress axis : x y z
#
# Youngs Moduli (GPa) = 40.16213 19.75113 104.99227
#
# Poissons Ratio (x) = -0.29553 0.08977
# Poissons Ratio (y) = -0.60093 -0.22375
# Poissons Ratio (z) = 0.03434 -0.04209
#
# Static dielectric constant tensor:
#      x y z
#    x 1.724200 0.000000 0.000000 
#    y 0.000000 1.672740 0.000000 
#    z 0.000000 0.000000 1.768230 
# 
# From -- ./inp_files/53207.got.cif
#   From: 2010.05.17/outbox.cif.g08.bks.cpg/sg71_27_cif.got.tgz:53207.got - 2010.06.03 16:22:01.
