data_PCOD9518827
_publ_section_title
;
Structure prediction by ZEFSAII (Michael W. Deem and Ramdas Pophale) SiO2 
 PCOD9518827
Probable space group: I M M M
;
_chemical_formula_sum "Si O2"
_cell_formula_units_Z 128
_cell_length_a 17.687607
_cell_length_b 19.042675
_cell_length_c 22.958143
_cell_angle_alpha 90.000000
_cell_angle_beta 90.000000
_cell_angle_gamma 90.000000
_cell_volume 7732.746840
_symmetry_space_group_name_H-M "I M M M"
_symmetry_group_IT_number 71
_symmetry_cell_setting 'orthorhombic'
loop_
_space_group_symop_operation_xyz
x,y,z
-x,-y,z
x,-y,-z
-x,y,-z
-x,-y,-z
x,y,-z
-x,y,z
x,-y,z
1/2+x,1/2+y,1/2+z
1/2-x,1/2-y,1/2+z
1/2+x,1/2-y,1/2-z
1/2-x,1/2+y,1/2-z
1/2-x,1/2-y,1/2-z
1/2+x,1/2+y,1/2-z
1/2-x,1/2+y,1/2+z
1/2+x,1/2-y,1/2+z
loop_
_atom_site_type_symbol
_atom_site_label
_atom_site_fract_x
_atom_site_fract_y
_atom_site_fract_z
Si Si1 0.349534 0.315584 0.067976
Si Si2 0.912054 0.639850 0.842524
Si Si3 0.917775 0.920770 0.351444
Si Si4 0.910461 0.786154 0.786323
Si Si5 0.910565 0.715206 0.340709
Si Si6 0.207464 0.419254 0.931812
Si Si7 0.141050 0.580394 0.278122
Si Si8 0.679474 0.580742 0.737787
O O1 0.411104 0.367559 0.095951
O O2 0.358894 0.247886 0.108803
O O3 0.273650 0.361887 0.075412
O O4 0.359891 0.300762 0.000000
O O5 0.889101 0.720311 0.827310
O O6 0.860493 0.604113 0.890727
O O7 0.901116 0.598304 0.782045
O O8 0.000000 0.639622 0.858695
O O9 0.852410 0.912309 0.303673
O O10 0.000000 0.911282 0.321834
O O11 0.914084 0.000000 0.373538
O O12 0.899061 0.758857 0.719654
O O13 0.862897 0.856666 0.795713
O O14 0.000000 0.798612 0.793550
O O15 0.887558 0.636186 0.325030
O O16 0.000000 0.719452 0.354871
O O17 0.231113 0.500000 0.917680
O O18 0.186304 0.418586 0.000000
O O19 0.128075 0.500000 0.294823
O O20 0.230652 0.590068 0.266007
O O21 0.661770 0.500000 0.719798
#
# Coordination Sequence:
#
# PCOD9518827 Si02
#       8
#    16  16  16  16  16  16  16  16
#     4  11  22  35  52  72  97 130 172 218 253 297
#     4  10  21  34  53  78 104 138 176 213 251 297
#     4  10  19  30  46  69 102 141 172 202 243 292
#     4   9  18  32  49  74 107 139 172 209 252 304
#     4  10  21  35  52  74 100 134 171 209 259 310
#     4  10  22  38  54  75 105 140 175 211 251 295
#     4  10  21  34  52  78 103 132 169 213 261 308
#     4  10  19  30  48  75 105 139 173 204 250 309
#
# _framework density 16.552980000000002
#
# number of rings (size 3 to 8) (size 9 to 14) (size 15 to 20)
#    0.000    2.000    1.250    3.375    1.750    6.500 
#    0.000    1.250    0.000    0.375    0.000    0.875 
#    0.000    0.500    0.000    2.750    0.000    0.000 
#
# Total GULP energy -356953.655493 kJ/mol
# GULP energy per Si atom -5577.400867 kJ/mol
# Density = 1.651530 g / cm^3
# Si number density = 16.552980 Si / 1000 Ang^3
#
#
#
# Elastic Constant Matrix: (Units=GPa)
#
#
# Indices 1 2 3 4 5 6 
#
# 1 52.4665 46.2302 37.6542 0.0000 0.0000 0.0000
# 2 46.2302 120.7288 44.4045 0.0000 0.0000 0.0000
# 3 37.6542 44.4045 69.9031 0.0000 0.0000 0.0000
# 4 0.0000 0.0000 0.0000 26.9140 0.0000 0.0000
# 5 0.0000 0.0000 0.0000 0.0000 11.7098 0.0000
# 6 0.0000 0.0000 0.0000 0.0000 0.0000 27.6727
#
#
#
# Elastic Compliance Matrix: (Units=1/GPa)
#
#
# Indices 1 2 3 4 5 6 
#
# 1 0.037309 -0.008997 -0.014382 0.000000 0.000000 0.000000
# 2 -0.008997 0.012978 -0.003398 0.000000 0.000000 0.000000
# 3 -0.014382 -0.003398 0.024211 0.000000 0.000000 0.000000
# 4 0.000000 0.000000 0.000000 0.037155 0.000000 0.000000
# 5 0.000000 0.000000 0.000000 0.000000 0.085399 0.000000
# 6 0.000000 0.000000 0.000000 0.000000 0.000000 0.036137
#
#
# Mechanical properties :
#
#
# Convention : Reuss Voigt Hill
#
# Bulk Modulus (GPa) = 47.74458 55.51959 51.63208
# Shear Modulus (GPa) = 17.02290 20.91326 18.96808
#
# Velocity S-wave (km/s) = 3.21033 3.55831 3.38879
# Velocity P-wave (km/s) = 6.53052 7.10601 6.82434
#
# Compressibility (1/GPa) = 0.02094479
#
# Stress axis : x y z
#
# Youngs Moduli (GPa) = 26.80339 77.05463 41.30401
#
# Poissons Ratio (x) = 0.69325 0.59403
# Poissons Ratio (y) = 0.24115 0.14034
# Poissons Ratio (z) = 0.38548 0.26180
#
# Static dielectric constant tensor:
#      x y z
#    x 1.576370 0.000000 0.000000 
#    y 0.000000 1.588840 0.000000 
#    z 0.000000 0.000000 1.533300 
# 
# From -- ./inp_files/60897.got.cif
#   From: 2010.05.17/outbox.cif.g08.bks.cpg/sg71_31_cif.got.tgz:60897.got - 2010.06.03 16:22:01.
