data_PCOD9518624
_publ_section_title
;
Structure prediction by ZEFSAII (Michael W. Deem and Ramdas Pophale) SiO2 
 PCOD9518624
Probable space group: I M M M
;
_chemical_formula_sum "Si O2"
_cell_formula_units_Z 112
_cell_length_a 15.378492
_cell_length_b 14.532820
_cell_length_c 30.256669
_cell_angle_alpha 90.000000
_cell_angle_beta 90.000000
_cell_angle_gamma 90.000000
_cell_volume 6762.149371
_symmetry_space_group_name_H-M "I M M M"
_symmetry_group_IT_number 71
_symmetry_cell_setting 'orthorhombic'
loop_
_space_group_symop_operation_xyz
x,y,z
-x,-y,z
x,-y,-z
-x,y,-z
-x,-y,-z
x,y,-z
-x,y,z
x,-y,z
1/2+x,1/2+y,1/2+z
1/2-x,1/2-y,1/2+z
1/2+x,1/2-y,1/2-z
1/2-x,1/2+y,1/2-z
1/2-x,1/2-y,1/2-z
1/2+x,1/2+y,1/2-z
1/2-x,1/2+y,1/2+z
1/2+x,1/2-y,1/2+z
loop_
_atom_site_type_symbol
_atom_site_label
_atom_site_fract_x
_atom_site_fract_y
_atom_site_fract_z
Si Si1 0.397483 0.896656 0.259187
Si Si2 0.822080 0.605122 0.669357
Si Si3 0.901135 0.716691 0.154948
Si Si4 0.786682 0.784895 0.621328
Si Si5 0.127476 0.104215 0.795346
Si Si6 0.600842 0.392347 0.052916
Si Si7 0.599573 0.610548 0.192941
O O1 0.500000 0.903876 0.265112
O O2 0.383061 0.862038 0.209484
O O3 0.369588 0.835252 0.300243
O O4 0.358879 0.000000 0.261749
O O5 0.844808 0.500000 0.656322
O O6 0.813386 0.678806 0.630505
O O7 0.729321 0.603101 0.693921
O O8 0.818520 0.706673 0.122488
O O9 0.908310 0.822161 0.170405
O O10 0.000000 0.686208 0.142069
O O11 0.832247 0.828313 0.578709
O O12 0.830509 0.839671 0.662355
O O13 0.110926 0.133007 0.744842
O O14 0.095464 0.000000 0.800565
O O15 0.500000 0.370905 0.064350
O O16 0.615260 0.500000 0.064690
O O17 0.609264 0.384379 0.000000
O O18 0.500000 0.633534 0.180019
O O19 0.609664 0.500000 0.188994
#
# Coordination Sequence:
#
# PCOD9518624 Si02
#       7
#    16  16  16  16  16  16  16
#     4   9  17  28  39  53  84 131 170 197 228 266
#     4   9  18  30  42  61  90 125 167 203 228 263
#     4  10  20  31  43  63  91 125 167 203 228 263
#     4  11  20  30  49  71  92 121 153 192 239 277
#     4   9  17  29  43  59  87 127 164 201 243 277
#     4   9  19  37  60  83 102 117 136 169 222 289
#     4  10  19  28  42  68  96 120 153 199 246 285
#
# _framework density 16.562781000000001
#
# number of rings (size 3 to 8) (size 9 to 14) (size 15 to 20)
#    0.000    2.429    0.000    3.429    0.000    8.857 
#    0.000    0.000    0.000    0.857    0.000    2.000 
#    0.000    0.000    0.000    7.143    0.000    0.000 
#
# Total GULP energy -312024.570117 kJ/mol
# GULP energy per Si atom -5571.867324 kJ/mol
# Density = 1.652508 g / cm^3
# Si number density = 16.562781 Si / 1000 Ang^3
#
#
#
# Elastic Constant Matrix: (Units=GPa)
#
#
# Indices 1 2 3 4 5 6 
#
# 1 78.7860 34.4017 32.8602 0.0000 0.0000 0.0000
# 2 34.4017 58.5510 27.5871 0.0000 0.0000 0.0000
# 3 32.8602 27.5871 48.1457 0.0000 0.0000 0.0000
# 4 0.0000 0.0000 0.0000 22.2547 0.0000 0.0000
# 5 0.0000 0.0000 0.0000 0.0000 31.0426 0.0000
# 6 0.0000 0.0000 0.0000 0.0000 0.0000 18.0219
#
#
#
# Elastic Compliance Matrix: (Units=1/GPa)
#
#
# Indices 1 2 3 4 5 6 
#
# 1 0.019730 -0.007188 -0.009347 0.000000 0.000000 0.000000
# 2 -0.007188 0.026014 -0.010000 0.000000 0.000000 0.000000
# 3 -0.009347 -0.010000 0.032880 0.000000 0.000000 0.000000
# 4 0.000000 0.000000 0.000000 0.044934 0.000000 0.000000
# 5 0.000000 0.000000 0.000000 0.000000 0.032214 0.000000
# 6 0.000000 0.000000 0.000000 0.000000 0.000000 0.055488
#
#
# Mechanical properties :
#
#
# Convention : Reuss Voigt Hill
#
# Bulk Modulus (GPa) = 39.13388 41.68671 40.41030
# Shear Modulus (GPa) = 18.32523 20.30609 19.31566
#
# Velocity S-wave (km/s) = 3.32988 3.50524 3.41868
# Velocity P-wave (km/s) = 6.20186 6.45026 6.32728
#
# Compressibility (1/GPa) = 0.02555331
#
# Stress axis : x y z
#
# Youngs Moduli (GPa) = 50.68461 38.44064 30.41394
#
# Poissons Ratio (x) = 0.27632 0.28428
# Poissons Ratio (y) = 0.36433 0.30413
# Poissons Ratio (z) = 0.47375 0.38440
#
# Static dielectric constant tensor:
#      x y z
#    x 1.685880 0.000000 0.000000 
#    y 0.000000 1.627700 0.000000 
#    z 0.000000 0.000000 1.527010 
# 
# From -- ./inp_files/35153.got.cif
#   From: 2010.05.17/outbox.cif.g08.bks.cpg/sg71_18_cif.got.tgz:35153.got - 2010.06.03 16:22:01.
