data_PCOD9518017
_publ_section_title
;
Structure prediction by ZEFSAII (Michael W. Deem and Ramdas Pophale) SiO2 
 PCOD9518017
Probable space group: I M M M
;
_chemical_formula_sum "Si O2"
_cell_formula_units_Z 128
_cell_length_a 23.319564
_cell_length_b 12.320476
_cell_length_c 27.787629
_cell_angle_alpha 90.000000
_cell_angle_beta 90.000000
_cell_angle_gamma 90.000000
_cell_volume 7983.611686
_symmetry_space_group_name_H-M "I M M M"
_symmetry_group_IT_number 71
_symmetry_cell_setting 'orthorhombic'
loop_
_space_group_symop_operation_xyz
x,y,z
-x,-y,z
x,-y,-z
-x,y,-z
-x,-y,-z
x,y,-z
-x,y,z
x,-y,z
1/2+x,1/2+y,1/2+z
1/2-x,1/2-y,1/2+z
1/2+x,1/2-y,1/2-z
1/2-x,1/2+y,1/2-z
1/2-x,1/2-y,1/2-z
1/2+x,1/2+y,1/2-z
1/2-x,1/2+y,1/2+z
1/2+x,1/2-y,1/2+z
loop_
_atom_site_type_symbol
_atom_site_label
_atom_site_fract_x
_atom_site_fract_y
_atom_site_fract_z
Si Si1 0.561619 0.131546 0.054978
Si Si2 0.282079 0.629484 0.555209
Si Si3 0.863174 0.763744 0.129716
Si Si4 0.431265 0.369016 0.719739
Si Si5 0.782230 0.627667 0.198030
Si Si6 0.836319 0.240762 0.715643
Si Si7 0.329856 0.131497 0.116509
Si Si8 0.067886 0.629357 0.053323
O O1 0.500000 0.166744 0.074623
O O2 0.615328 0.163488 0.085442
O O3 0.561653 0.000000 0.053981
O O4 0.566502 0.167904 0.000000
O O5 0.284271 0.672071 0.500000
O O6 0.278800 0.500000 0.551397
O O7 0.335006 0.659066 0.589530
O O8 0.225645 0.663288 0.585198
O O9 0.900571 0.823931 0.170908
O O10 0.811598 0.697677 0.155575
O O11 0.901875 0.683241 0.098428
O O12 0.500000 0.343304 0.721077
O O13 0.425771 0.500000 0.721172
O O14 0.393707 0.315567 0.763174
O O15 0.790274 0.500000 0.190641
O O16 0.815203 0.672623 0.244725
O O17 0.715480 0.655029 0.207614
O O18 0.837985 0.307311 0.666406
O O19 0.328031 0.000000 0.123464
O O20 0.075894 0.500000 0.055100
O O21 0.000000 0.650978 0.055516
O O22 0.088273 0.666612 0.000000
#
# Coordination Sequence:
#
# PCOD9518017 Si02
#       8
#    16  16  16  16  16  16  16  16
#     4   8  14  25  42  65  94 129 164 194 230 282
#     4  10  20  32  48  74 107 139 169 205 250 302
#     4  11  19  33  53  76 100 131 170 211 250 299
#     4  10  22  38  55  74  99 132 171 215 258 301
#     4  10  20  33  50  73  98 127 163 205 253 301
#     4  10  20  34  51  74  97 129 165 208 251 298
#     4  10  18  30  48  73 104 135 165 200 249 302
#     4   9  18  32  50  73 101 134 170 206 247 297
#
# _framework density 16.032844000000001
#
# number of rings (size 3 to 8) (size 9 to 14) (size 15 to 20)
#    0.000    2.250    1.250    3.375    0.000    2.000 
#    0.000    0.000    0.000    7.125    0.000    5.250 
#    0.000    0.000    0.000    6.000    0.000    0.500 
#
# Total GULP energy -356300.411036 kJ/mol
# GULP energy per Si atom -5567.193922 kJ/mol
# Density = 1.599635 g / cm^3
# Si number density = 16.032844 Si / 1000 Ang^3
#
#
#
# Elastic Constant Matrix: (Units=GPa)
#
#
# Indices 1 2 3 4 5 6 
#
# 1 113.0423 35.3857 57.1096 0.0000 0.0000 0.0000
# 2 35.3857 40.4181 31.7595 0.0000 0.0000 0.0000
# 3 57.1096 31.7595 110.4416 0.0000 0.0000 0.0000
# 4 0.0000 0.0000 0.0000 28.6150 0.0000 0.0000
# 5 0.0000 0.0000 0.0000 0.0000 25.2880 0.0000
# 6 0.0000 0.0000 0.0000 0.0000 0.0000 9.1259
#
#
#
# Elastic Compliance Matrix: (Units=1/GPa)
#
#
# Indices 1 2 3 4 5 6 
#
# 1 0.013886 -0.008416 -0.004760 0.000000 0.000000 0.000000
# 2 -0.008416 0.037066 -0.006307 0.000000 0.000000 0.000000
# 3 -0.004760 -0.006307 0.013330 0.000000 0.000000 0.000000
# 4 0.000000 0.000000 0.000000 0.034947 0.000000 0.000000
# 5 0.000000 0.000000 0.000000 0.000000 0.039544 0.000000
# 6 0.000000 0.000000 0.000000 0.000000 0.000000 0.109578
#
#
# Mechanical properties :
#
#
# Convention : Reuss Voigt Hill
#
# Bulk Modulus (GPa) = 39.50310 56.93463 48.21886
# Shear Modulus (GPa) = 16.90593 21.91559 19.41076
#
# Velocity S-wave (km/s) = 3.25076 3.70120 3.48327
# Velocity P-wave (km/s) = 6.22754 7.33849 6.80572
#
# Compressibility (1/GPa) = 0.02531447
#
# Stress axis : x y z
#
# Youngs Moduli (GPa) = 72.01698 26.97915 75.02124
#
# Poissons Ratio (x) = 0.22707 0.35710
# Poissons Ratio (y) = 0.60613 0.47314
# Poissons Ratio (z) = 0.34280 0.17015
#
# Static dielectric constant tensor:
#      x y z
#    x 1.552880 0.000000 0.000000 
#    y 0.000000 1.515950 0.000000 
#    z 0.000000 0.000000 1.548990 
# 
# From -- ./inp_files/67011.got.cif
#   From: 2010.05.17/outbox.cif.g08.bks.cpg/sg71_34_cif.got.tgz:67011.got - 2010.06.03 16:22:01.
