data_PCOD9518004
_publ_section_title
;
Structure prediction by ZEFSAII (Michael W. Deem and Ramdas Pophale) SiO2 
 PCOD9518004
Probable space group: I M M M
;
_chemical_formula_sum "Si O2"
_cell_formula_units_Z 72
_cell_length_a 7.316198
_cell_length_b 28.140827
_cell_length_c 15.214352
_cell_angle_alpha 90.000000
_cell_angle_beta 90.000000
_cell_angle_gamma 90.000000
_cell_volume 3132.389551
_symmetry_space_group_name_H-M "I M M M"
_symmetry_group_IT_number 71
_symmetry_cell_setting 'orthorhombic'
loop_
_space_group_symop_operation_xyz
x,y,z
-x,-y,z
x,-y,-z
-x,y,-z
-x,-y,-z
x,y,-z
-x,y,z
x,-y,z
1/2+x,1/2+y,1/2+z
1/2-x,1/2-y,1/2+z
1/2+x,1/2-y,1/2-z
1/2-x,1/2+y,1/2-z
1/2-x,1/2-y,1/2-z
1/2+x,1/2+y,1/2-z
1/2-x,1/2+y,1/2+z
1/2+x,1/2-y,1/2+z
loop_
_atom_site_type_symbol
_atom_site_label
_atom_site_fract_x
_atom_site_fract_y
_atom_site_fract_z
Si Si1 0.776136 0.500000 0.898392
Si Si2 0.783056 0.263634 0.648983
Si Si3 0.207786 0.583185 0.228234
Si Si4 0.723862 0.130683 0.900319
Si Si5 0.221227 0.837483 0.594225
O O1 0.714629 0.545334 0.840773
O O2 0.000000 0.500000 0.902468
O O3 0.715149 0.500000 0.000000
O O4 0.750000 0.250000 0.750000
O O5 0.713905 0.315523 0.622604
O O6 0.717000 0.217049 0.598253
O O7 0.000000 0.265921 0.633514
O O8 0.287660 0.595019 0.323723
O O9 0.207159 0.632796 0.175662
O O10 0.000000 0.567211 0.243956
O O11 0.500000 0.130815 0.896546
O O12 0.775641 0.118823 0.000000
O O13 0.274508 0.858847 0.500000
O O14 0.000000 0.838156 0.599867
#
# Coordination Sequence:
#
# PCOD9518004 Si02
#       5
#     8  16  16  16  16
#     4   9  18  32  50  74 102 127 155 203 262 301
#     4  10  18  30  48  70  99 132 164 199 240 286
#     4  10  19  33  53  74  96 128 168 206 245 296
#     4   9  17  30  49  72  98 130 165 200 242 290
#     4  10  20  32  48  72 102 133 162 198 247 296
#
# _framework density 22.985645999999999
#
# number of rings (size 3 to 8) (size 9 to 14) (size 15 to 20)
#    0.000    2.333    2.222    1.333    0.000    4.000 
#    0.000    1.111    0.000    9.333    0.000    0.000 
#    0.000    1.778    0.000    0.000    0.000    0.000 
#
# Total GULP energy -201013.308690 kJ/mol
# GULP energy per Si atom -5583.703019 kJ/mol
# Density = 2.293333 g / cm^3
# Si number density = 22.985646 Si / 1000 Ang^3
#
#
#
# Elastic Constant Matrix: (Units=GPa)
#
#
# Indices 1 2 3 4 5 6 
#
# 1 92.9980 3.4890 -1.4893 0.0000 0.0000 0.0000
# 2 3.4890 109.5442 79.6480 0.0000 0.0000 0.0000
# 3 -1.4893 79.6480 233.5739 0.0000 0.0000 0.0000
# 4 0.0000 0.0000 0.0000 35.2341 0.0000 0.0000
# 5 0.0000 0.0000 0.0000 0.0000 2.7369 0.0000
# 6 0.0000 0.0000 0.0000 0.0000 0.0000 -36.9339
#
#
#
# Elastic Compliance Matrix: (Units=1/GPa)
#
#
# Indices 1 2 3 4 5 6 
#
# 1 0.010776 -0.000523 0.000247 0.000000 0.000000 0.000000
# 2 -0.000523 0.012164 -0.004151 0.000000 0.000000 0.000000
# 3 0.000247 -0.004151 0.005698 0.000000 0.000000 0.000000
# 4 0.000000 0.000000 0.000000 0.028382 0.000000 0.000000
# 5 0.000000 0.000000 0.000000 0.000000 0.365375 0.000000
# 6 0.000000 0.000000 0.000000 0.000000 0.000000 -0.027075
#
#
# Mechanical properties :
#
#
# Convention : Reuss Voigt Hill
#
# Bulk Modulus (GPa) = 50.54425 66.60128 58.57276
# Shear Modulus (GPa) = 12.17232 23.83865 18.00548
#
# Velocity S-wave (km/s) = 2.30372 3.22391 2.80185
# Velocity P-wave (km/s) = 5.39568 6.54952 6.00040
#
# Compressibility (1/GPa) = 0.01978464
#
# Stress axis : x y z
#
# Youngs Moduli (GPa) = 92.79464 82.21267 175.48850
#
# Poissons Ratio (x) = 0.04298 -0.04334
# Poissons Ratio (y) = 0.04851 0.72847
# Poissons Ratio (z) = -0.02292 0.34127
#
# Static dielectric constant tensor:
#      x y z
#    x 1.910030 0.000000 0.000000 
#    y 0.000000 1.842920 0.000000 
#    z 0.000000 0.000000 1.853000 
# 
# From -- ./inp_files/6012.got.cif
#   From: 2010.05.17/outbox.cif.g08.bks.cpg/sg71_4_cif.got.tgz:6012.got - 2010.06.03 16:22:01.
