data_PCOD9518329
_publ_section_title
;
Structure prediction by ZEFSAII (Michael W. Deem and Ramdas Pophale) SiO2 
 PCOD9518329
Probable space group: I M M M
;
_chemical_formula_sum "Si O2"
_cell_formula_units_Z 88
_cell_length_a 28.685369
_cell_length_b 14.353932
_cell_length_c 11.089200
_cell_angle_alpha 90.000000
_cell_angle_beta 90.000000
_cell_angle_gamma 90.000000
_cell_volume 4565.954103
_symmetry_space_group_name_H-M "I M M M"
_symmetry_group_IT_number 71
_symmetry_cell_setting 'orthorhombic'
loop_
_space_group_symop_operation_xyz
x,y,z
-x,-y,z
x,-y,-z
-x,y,-z
-x,-y,-z
x,y,-z
-x,y,z
x,-y,z
1/2+x,1/2+y,1/2+z
1/2-x,1/2-y,1/2+z
1/2+x,1/2-y,1/2-z
1/2-x,1/2+y,1/2-z
1/2-x,1/2-y,1/2-z
1/2+x,1/2+y,1/2-z
1/2-x,1/2+y,1/2+z
1/2+x,1/2-y,1/2+z
loop_
_atom_site_type_symbol
_atom_site_label
_atom_site_fract_x
_atom_site_fract_y
_atom_site_fract_z
Si Si1 0.150015 0.604132 0.000000
Si Si2 0.500000 0.607796 0.856773
Si Si3 0.156694 0.106823 0.864322
Si Si4 0.052106 0.317727 0.000000
Si Si5 0.648631 0.889081 0.769634
Si Si6 0.582621 0.269145 0.249957
Si Si7 0.743202 0.816615 0.864655
O O1 0.093702 0.607657 0.000000
O O2 0.162007 0.643479 0.868511
O O3 0.168975 0.500000 0.000000
O O4 0.500000 0.500000 0.808849
O O5 0.544921 0.668294 0.817671
O O6 0.500000 0.601179 0.000000
O O7 0.128580 0.168819 0.771427
O O8 0.212207 0.115917 0.856115
O O9 0.142780 0.000000 0.851486
O O10 0.144068 0.138871 0.000000
O O11 0.060231 0.257938 0.120849
O O12 0.000000 0.356115 0.000000
O O13 0.603578 0.827120 0.804071
O O14 0.693684 0.867213 0.849089
O O15 0.639120 0.000000 0.766651
O O16 0.750000 0.750000 0.750000
O O17 0.744896 0.773450 0.000000
#
# Coordination Sequence:
#
# PCOD9518329 Si02
#       7
#     8   8  16   8  16  16  16
#     4   8  18  33  56  86 120 160 194 239 300 354
#     4  11  26  45  62  82 115 157 199 247 307 370
#     4  10  20  35  58  88 119 151 193 249 306 357
#     4  10  18  31  56  86 116 146 184 244 297 352
#     4  10  21  38  62  92 125 162 204 247 301 366
#     4  11  20  38  62  87 119 155 193 246 304 357
#     4  11  23  38  61  88 123 164 201 251 310 363
#
# _framework density 19.27308
#
# number of rings (size 3 to 8) (size 9 to 14) (size 15 to 20)
#    0.000    1.727    3.636    1.091    1.273    2.000 
#    0.000    0.909    0.000    0.545    0.000    0.000 
#    0.000    0.000    0.000    0.000    0.000    0.000 
#
# Total GULP energy -245199.142465 kJ/mol
# GULP energy per Si atom -5572.707783 kJ/mol
# Density = 1.922921 g / cm^3
# Si number density = 19.273080 Si / 1000 Ang^3
#
#
#
# Elastic Constant Matrix: (Units=GPa)
#
#
# Indices 1 2 3 4 5 6 
#
# 1 111.9207 45.9923 24.8464 0.0000 0.0000 0.0000
# 2 45.9923 107.2820 37.3600 0.0000 0.0000 0.0000
# 3 24.8464 37.3600 69.4318 0.0000 0.0000 0.0000
# 4 0.0000 0.0000 0.0000 21.8957 0.0000 0.0000
# 5 0.0000 0.0000 0.0000 0.0000 30.7191 0.0000
# 6 0.0000 0.0000 0.0000 0.0000 0.0000 22.0306
#
#
#
# Elastic Compliance Matrix: (Units=1/GPa)
#
#
# Indices 1 2 3 4 5 6 
#
# 1 0.011011 -0.004120 -0.001723 0.000000 0.000000 0.000000
# 2 -0.004120 0.013012 -0.005527 0.000000 0.000000 0.000000
# 3 -0.001723 -0.005527 0.017993 0.000000 0.000000 0.000000
# 4 0.000000 0.000000 0.000000 0.045671 0.000000 0.000000
# 5 0.000000 0.000000 0.000000 0.000000 0.032553 0.000000
# 6 0.000000 0.000000 0.000000 0.000000 0.000000 0.045391
#
#
# Mechanical properties :
#
#
# Convention : Reuss Voigt Hill
#
# Bulk Modulus (GPa) = 51.88061 56.11468 53.99764
# Shear Modulus (GPa) = 25.66758 26.95813 26.31286
#
# Velocity S-wave (km/s) = 3.65332 3.74404 3.69896
# Velocity P-wave (km/s) = 6.69125 6.91876 6.80595
#
# Compressibility (1/GPa) = 0.01927502
#
# Stress axis : x y z
#
# Youngs Moduli (GPa) = 90.82172 76.84965 55.57587
#
# Poissons Ratio (x) = 0.31664 0.09577
# Poissons Ratio (y) = 0.37420 0.30719
# Poissons Ratio (z) = 0.15650 0.42477
#
# Static dielectric constant tensor:
#      x y z
#    x 1.665450 0.000000 0.000000 
#    y 0.000000 1.695930 0.000000 
#    z 0.000000 0.000000 1.700050 
# 
# From -- ./inp_files/28643.got.cif
#   From: 2010.05.17/outbox.cif.g08.bks.cpg/sg71_15_cif.got.tgz:28643.got - 2010.06.03 16:22:01.
