data_PCOD9518029
_publ_section_title
;
Structure prediction by ZEFSAII (Michael W. Deem and Ramdas Pophale) SiO2 
 PCOD9518029
Probable space group: I M M M
;
_chemical_formula_sum "Si O2"
_cell_formula_units_Z 80
_cell_length_a 20.011707
_cell_length_b 7.856331
_cell_length_c 27.015968
_cell_angle_alpha 90.000000
_cell_angle_beta 90.000000
_cell_angle_gamma 90.000000
_cell_volume 4247.412506
_symmetry_space_group_name_H-M "I M M M"
_symmetry_group_IT_number 71
_symmetry_cell_setting 'orthorhombic'
loop_
_space_group_symop_operation_xyz
x,y,z
-x,-y,z
x,-y,-z
-x,y,-z
-x,-y,-z
x,y,-z
-x,y,z
x,-y,z
1/2+x,1/2+y,1/2+z
1/2-x,1/2-y,1/2+z
1/2+x,1/2-y,1/2-z
1/2-x,1/2+y,1/2-z
1/2-x,1/2-y,1/2-z
1/2+x,1/2+y,1/2-z
1/2-x,1/2+y,1/2+z
1/2+x,1/2-y,1/2+z
loop_
_atom_site_type_symbol
_atom_site_label
_atom_site_fract_x
_atom_site_fract_y
_atom_site_fract_z
Si Si1 0.576201 0.294852 0.692341
Si Si2 0.671602 0.709177 0.107741
Si Si3 0.189742 0.192699 0.000000
Si Si4 0.662187 0.693734 0.000000
Si Si5 0.077010 0.792308 0.303574
Si Si6 0.674691 0.798213 0.395629
O O1 0.500000 0.236217 0.682930
O O2 0.574760 0.500000 0.693422
O O3 0.595797 0.237590 0.747841
O O4 0.626702 0.242868 0.649674
O O5 0.670904 0.500000 0.106731
O O6 0.645521 0.768689 0.053768
O O7 0.626312 0.765931 0.153342
O O8 0.748980 0.762421 0.113381
O O9 0.152150 0.224636 0.948678
O O10 0.256437 0.307607 0.000000
O O11 0.214574 0.000000 0.000000
O O12 0.636886 0.500000 0.000000
O O13 0.000000 0.742371 0.312396
O O14 0.078462 0.000000 0.303942
O O15 0.677364 0.000000 0.401282
#
# Coordination Sequence:
#
# PCOD9518029 Si02
#       6
#    16  16   8   8  16  16
#     4   9  18  32  48  66  90 121 157 195 231 270
#     4   8  14  25  42  65  93 124 155 189 230 272
#     4  10  18  30  49  70  93 121 153 187 223 270
#     4   8  14  26  43  65  97 128 151 186 235 275
#     4   8  14  26  44  65  92 126 159 191 230 273
#     4  10  19  31  48  70  96 122 149 187 233 277
#
# _framework density 18.834997000000001
#
# number of rings (size 3 to 8) (size 9 to 14) (size 15 to 20)
#    0.000    3.200    0.000    3.900    0.000    1.200 
#    0.000    1.000    0.000   10.800    0.000    0.000 
#    0.000   12.800    0.000    0.000    0.000    0.000 
#
# Total GULP energy -222787.627858 kJ/mol
# GULP energy per Si atom -5569.690696 kJ/mol
# Density = 1.879213 g / cm^3
# Si number density = 18.834997 Si / 1000 Ang^3
#
#
#
# Elastic Constant Matrix: (Units=GPa)
#
#
# Indices 1 2 3 4 5 6 
#
# 1 74.8230 8.1834 106.2238 0.0000 0.0000 0.0000
# 2 8.1834 31.4712 13.6600 0.0000 0.0000 0.0000
# 3 106.2238 13.6600 227.5420 0.0000 0.0000 0.0000
# 4 0.0000 0.0000 0.0000 14.3212 0.0000 0.0000
# 5 0.0000 0.0000 0.0000 0.0000 -29.7792 0.0000
# 6 0.0000 0.0000 0.0000 0.0000 0.0000 11.6462
#
#
#
# Elastic Compliance Matrix: (Units=1/GPa)
#
#
# Indices 1 2 3 4 5 6 
#
# 1 0.039796 -0.002345 -0.018437 0.000000 0.000000 0.000000
# 2 -0.002345 0.032763 -0.000872 0.000000 0.000000 0.000000
# 3 -0.018437 -0.000872 0.013054 0.000000 0.000000 0.000000
# 4 0.000000 0.000000 0.000000 0.069826 0.000000 0.000000
# 5 0.000000 0.000000 0.000000 0.000000 -0.033580 0.000000
# 6 0.000000 0.000000 0.000000 0.000000 0.000000 0.085865
#
#
# Mechanical properties :
#
#
# Convention : Reuss Voigt Hill
#
# Bulk Modulus (GPa) = 23.63817 65.55227 44.59522
# Shear Modulus (GPa) = 18.85822 12.95557 15.90689
#
# Velocity S-wave (km/s) = 3.16766 2.62553 2.90925
# Velocity P-wave (km/s) = 5.09472 6.63854 5.91719
#
# Compressibility (1/GPa) = 0.04230446
#
# Stress axis : x y z
#
# Youngs Moduli (GPa) = 25.12794 30.52183 76.60321
#
# Poissons Ratio (x) = 0.07159 1.41236
# Poissons Ratio (y) = 0.05894 0.06679
# Poissons Ratio (z) = 0.46329 0.02661
#
# Static dielectric constant tensor:
#      x y z
#    x 1.622500 0.000000 0.000000 
#    y 0.000000 1.708850 0.000000 
#    z 0.000000 0.000000 1.682030 
# 
# From -- ./inp_files/14585.got.cif
#   From: 2010.05.17/outbox.cif.g08.bks.cpg/sg71_8_cif.got.tgz:14585.got - 2010.06.03 16:22:01.
