data_PCOD9518850
_publ_section_title
;
Structure prediction by ZEFSAII (Michael W. Deem and Ramdas Pophale) SiO2 
 PCOD9518850
Probable space group: I M M M
;
_chemical_formula_sum "Si O2"
_cell_formula_units_Z 88
_cell_length_a 7.728722
_cell_length_b 20.856179
_cell_length_c 24.571852
_cell_angle_alpha 90.000000
_cell_angle_beta 90.000000
_cell_angle_gamma 90.000000
_cell_volume 3960.776372
_symmetry_space_group_name_H-M "I M M M"
_symmetry_group_IT_number 71
_symmetry_cell_setting 'orthorhombic'
loop_
_space_group_symop_operation_xyz
x,y,z
-x,-y,z
x,-y,-z
-x,y,-z
-x,-y,-z
x,y,-z
-x,y,z
x,-y,z
1/2+x,1/2+y,1/2+z
1/2-x,1/2-y,1/2+z
1/2+x,1/2-y,1/2-z
1/2-x,1/2+y,1/2-z
1/2-x,1/2-y,1/2-z
1/2+x,1/2+y,1/2-z
1/2-x,1/2+y,1/2+z
1/2+x,1/2-y,1/2+z
loop_
_atom_site_type_symbol
_atom_site_label
_atom_site_fract_x
_atom_site_fract_y
_atom_site_fract_z
Si Si1 0.695258 0.000000 0.774171
Si Si2 0.204536 0.142425 0.343871
Si Si3 0.212710 0.231631 0.559583
Si Si4 0.809277 0.500000 0.855787
Si Si5 0.701648 0.862377 0.896615
Si Si6 0.211099 0.500000 0.436211
Si Si7 0.802536 0.141790 0.778557
O O1 0.794151 0.935173 0.785861
O O2 0.500000 0.000000 0.798825
O O3 0.675059 0.000000 0.709498
O O4 0.274845 0.189114 0.389962
O O5 0.224456 0.069139 0.364856
O O6 0.274624 0.152878 0.282004
O O7 0.000000 0.153457 0.337968
O O8 0.262447 0.207257 0.500000
O O9 0.273514 0.304637 0.567482
O O10 0.000000 0.231330 0.561576
O O11 0.000000 0.500000 0.880692
O O12 0.500000 0.867569 0.910484
O O13 0.712595 0.837389 0.834157
O O14 0.772922 0.933602 0.908326
O O15 0.257074 0.500000 0.500000
O O16 0.000000 0.500000 0.433106
O O17 0.000000 0.164408 0.779769
#
# Coordination Sequence:
#
# PCOD9518850 Si02
#       7
#     8  16  16   8  16   8  16
#     4   9  16  28  47  71 100 132 166 203 245 297
#     4   9  18  33  53  76 103 136 172 211 258 311
#     4   9  18  34  55  76  98 130 177 227 265 300
#     4   9  17  30  51  78 103 129 162 202 251 306
#     4  10  19  31  51  77 103 134 174 217 258 303
#     4   9  17  30  50  76 102 129 167 214 256 292
#     4  10  19  30  46  72 106 138 167 204 257 316
#
# _framework density 22.217865
#
# number of rings (size 3 to 8) (size 9 to 14) (size 15 to 20)
#    0.000    2.636    0.000    2.182    0.000    6.545 
#    0.000    1.364    0.000    7.091    0.000    0.000 
#    0.000    0.000    0.000    0.000    0.000    0.000 
#
# Total GULP energy -245179.113444 kJ/mol
# GULP energy per Si atom -5572.252578 kJ/mol
# Density = 2.216730 g / cm^3
# Si number density = 22.217865 Si / 1000 Ang^3
#
#
#
# Elastic Constant Matrix: (Units=GPa)
#
#
# Indices 1 2 3 4 5 6 
#
# 1 33.8774 -3.6866 -5.1995 0.0000 0.0000 0.0000
# 2 -3.6866 78.1327 63.7019 0.0000 0.0000 0.0000
# 3 -5.1995 63.7019 149.1415 0.0000 0.0000 0.0000
# 4 0.0000 0.0000 0.0000 31.5266 0.0000 0.0000
# 5 0.0000 0.0000 0.0000 0.0000 13.8892 0.0000
# 6 0.0000 0.0000 0.0000 0.0000 0.0000 -8.7849
#
#
#
# Elastic Compliance Matrix: (Units=1/GPa)
#
#
# Indices 1 2 3 4 5 6 
#
# 1 0.029714 0.000855 0.000671 0.000000 0.000000 0.000000
# 2 0.000855 0.019662 -0.008368 0.000000 0.000000 0.000000
# 3 0.000671 -0.008368 0.010303 0.000000 0.000000 0.000000
# 4 0.000000 0.000000 0.000000 0.031719 0.000000 0.000000
# 5 0.000000 0.000000 0.000000 0.000000 0.071998 0.000000
# 6 0.000000 0.000000 0.000000 0.000000 0.000000 -0.113832
#
#
# Mechanical properties :
#
#
# Convention : Reuss Voigt Hill
#
# Bulk Modulus (GPa) = 21.74199 41.19813 31.47006
# Shear Modulus (GPa) = 63.62927 21.08191 42.35559
#
# Velocity S-wave (km/s) = 5.35733 3.08372 4.37094
# Velocity P-wave (km/s) = 6.93361 5.59126 6.29830
#
# Compressibility (1/GPa) = 0.04599394
#
# Stress axis : x y z
#
# Youngs Moduli (GPa) = 33.65399 50.86036 97.06233
#
# Poissons Ratio (x) = -0.04350 -0.06509
# Poissons Ratio (y) = -0.02878 0.81223
# Poissons Ratio (z) = -0.02257 0.42561
#
# Static dielectric constant tensor:
#      x y z
#    x 1.859770 0.000000 0.000000 
#    y 0.000000 1.842110 0.000000 
#    z 0.000000 0.000000 1.834520 
# 
# From -- ./inp_files/12609.got.cif
#   From: 2010.05.17/outbox.cif.g08.bks.cpg/sg71_7_cif.got.tgz:12609.got - 2010.06.03 16:22:01.
