data_PCOD9518565
_publ_section_title
;
Structure prediction by ZEFSAII (Michael W. Deem and Ramdas Pophale) SiO2 
 PCOD9518565
Probable space group: I M M M
;
_chemical_formula_sum "Si O2"
_cell_formula_units_Z 88
_cell_length_a 22.944650
_cell_length_b 17.666927
_cell_length_c 11.797880
_cell_angle_alpha 90.000000
_cell_angle_beta 90.000000
_cell_angle_gamma 90.000000
_cell_volume 4782.405821
_symmetry_space_group_name_H-M "I M M M"
_symmetry_group_IT_number 71
_symmetry_cell_setting 'orthorhombic'
loop_
_space_group_symop_operation_xyz
x,y,z
-x,-y,z
x,-y,-z
-x,y,-z
-x,-y,-z
x,y,-z
-x,y,z
x,-y,z
1/2+x,1/2+y,1/2+z
1/2-x,1/2-y,1/2+z
1/2+x,1/2-y,1/2-z
1/2-x,1/2+y,1/2-z
1/2-x,1/2-y,1/2-z
1/2+x,1/2+y,1/2-z
1/2-x,1/2+y,1/2+z
1/2+x,1/2-y,1/2+z
loop_
_atom_site_type_symbol
_atom_site_label
_atom_site_fract_x
_atom_site_fract_y
_atom_site_fract_z
Si Si1 0.153789 0.414614 0.000000
Si Si2 0.363569 0.409420 0.133382
Si Si3 0.431517 0.227176 0.500000
Si Si4 0.066933 0.500000 0.637685
Si Si5 0.735480 0.911607 0.721047
Si Si6 0.361056 0.149712 0.135426
Si Si7 0.431483 0.284161 0.251911
O O1 0.106371 0.348923 0.000000
O O2 0.195103 0.407317 0.109500
O O3 0.128768 0.500000 0.000000
O O4 0.370081 0.500000 0.141069
O O5 0.300528 0.389224 0.185916
O O6 0.412120 0.364368 0.202101
O O7 0.364717 0.389215 0.000000
O O8 0.500000 0.207353 0.500000
O O9 0.419888 0.274016 0.385589
O O10 0.065392 0.500000 0.500000
O O11 0.102018 0.424992 0.671741
O O12 0.000000 0.500000 0.677869
O O13 0.703486 0.861898 0.815276
O O14 0.736785 0.000000 0.757342
O O15 0.393318 0.221550 0.187209
O O16 0.360627 0.153651 0.000000
O O17 0.500000 0.270644 0.232052
#
# Coordination Sequence:
#
# PCOD9518565 Si02
#       7
#     8  16   8   8  16  16  16
#     4  10  18  35  62  85 114 164 206 239 289 341
#     4  10  22  42  67  92 115 148 197 253 307 360
#     4  10  22  41  59  86 124 158 196 245 293 350
#     4   9  18  32  50  75 117 167 202 230 274 338
#     4  10  19  36  60  87 121 158 198 246 292 347
#     4  11  21  34  55  87 123 161 201 239 289 349
#     4  11  24  42  62  86 120 155 195 249 305 357
#
# _framework density 18.400780999999998
#
# number of rings (size 3 to 8) (size 9 to 14) (size 15 to 20)
#    0.000    1.727    3.636    1.091    0.000    3.455 
#    1.636    1.364    0.000    1.636    0.000    0.000 
#    0.000    0.000    0.000    0.000    0.000    0.000 
#
# Total GULP energy -245746.906420 kJ/mol
# GULP energy per Si atom -5585.156964 kJ/mol
# Density = 1.835890 g / cm^3
# Si number density = 18.400781 Si / 1000 Ang^3
#
#
#
# Elastic Constant Matrix: (Units=GPa)
#
#
# Indices 1 2 3 4 5 6 
#
# 1 37.0120 24.0641 35.1403 0.0000 0.0000 0.0000
# 2 24.0641 44.2615 30.7420 0.0000 0.0000 0.0000
# 3 35.1403 30.7420 94.8399 0.0000 0.0000 0.0000
# 4 0.0000 0.0000 0.0000 21.9997 0.0000 0.0000
# 5 0.0000 0.0000 0.0000 0.0000 21.2426 0.0000
# 6 0.0000 0.0000 0.0000 0.0000 0.0000 22.9440
#
#
#
# Elastic Compliance Matrix: (Units=1/GPa)
#
#
# Indices 1 2 3 4 5 6 
#
# 1 0.051791 -0.019138 -0.012986 0.000000 0.000000 0.000000
# 2 -0.019138 0.036229 -0.004653 0.000000 0.000000 0.000000
# 3 -0.012986 -0.004653 0.016864 0.000000 0.000000 0.000000
# 4 0.000000 0.000000 0.000000 0.045455 0.000000 0.000000
# 5 0.000000 0.000000 0.000000 0.000000 0.047075 0.000000
# 6 0.000000 0.000000 0.000000 0.000000 0.000000 0.043584
#
#
# Mechanical properties :
#
#
# Convention : Reuss Voigt Hill
#
# Bulk Modulus (GPa) = 31.91769 39.55624 35.73697
# Shear Modulus (GPa) = 15.38485 18.98174 17.18330
#
# Velocity S-wave (km/s) = 2.89467 3.21529 3.05919
# Velocity P-wave (km/s) = 5.34375 5.94373 5.65170
#
# Compressibility (1/GPa) = 0.03133058
#
# Stress axis : x y z
#
# Youngs Moduli (GPa) = 19.30856 27.60194 59.29859
#
# Poissons Ratio (x) = 0.52824 0.77005
# Poissons Ratio (y) = 0.36953 0.27589
# Poissons Ratio (z) = 0.25074 0.12842
#
# Static dielectric constant tensor:
#      x y z
#    x 1.614360 0.000000 0.000000 
#    y 0.000000 1.628180 0.000000 
#    z 0.000000 0.000000 1.627320 
# 
# From -- ./inp_files/27228.got.cif
#   From: 2010.05.17/outbox.cif.g08.bks.cpg/sg71_14_cif.got.tgz:27228.got - 2010.06.03 16:22:01.
