data_PCOD9518571
_publ_section_title
;
Structure prediction by ZEFSAII (Michael W. Deem and Ramdas Pophale) SiO2 
 PCOD9518571
Probable space group: I M M M
;
_chemical_formula_sum "Si O2"
_cell_formula_units_Z 98
_cell_length_a 11.681187
_cell_length_b 28.477570
_cell_length_c 16.234685
_cell_angle_alpha 90.000000
_cell_angle_beta 90.000000
_cell_angle_gamma 90.000000
_cell_volume 5400.497520
_symmetry_space_group_name_H-M "I M M M"
_symmetry_group_IT_number 71
_symmetry_cell_setting 'orthorhombic'
loop_
_space_group_symop_operation_xyz
x,y,z
-x,-y,z
x,-y,-z
-x,y,-z
-x,-y,-z
x,y,-z
-x,y,z
x,-y,z
1/2+x,1/2+y,1/2+z
1/2-x,1/2-y,1/2+z
1/2+x,1/2-y,1/2-z
1/2-x,1/2+y,1/2-z
1/2-x,1/2-y,1/2-z
1/2+x,1/2+y,1/2-z
1/2-x,1/2+y,1/2+z
1/2+x,1/2-y,1/2+z
loop_
_atom_site_type_symbol
_atom_site_label
_atom_site_fract_x
_atom_site_fract_y
_atom_site_fract_z
Si Si1 0.000000 0.945127 0.186562
Si Si2 0.000000 0.911983 0.624208
Si Si3 0.000000 0.000000 0.500000
Si Si4 0.728355 0.411331 0.594745
Si Si5 0.364034 0.944998 0.246414
Si Si6 0.637229 0.320624 0.336959
Si Si7 0.634437 0.779805 0.596487
Si Si8 0.280395 0.364224 0.165128
O O1 0.000000 0.922537 0.277085
O O2 0.111970 0.931433 0.135120
O O3 0.000000 0.000000 0.199678
O O4 0.884931 0.882582 0.610495
O O5 0.000000 0.958808 0.571602
O O6 0.741212 0.424686 0.500000
O O7 0.828523 0.430069 0.653761
O O8 0.708559 0.355426 0.604225
O O9 0.500000 0.939872 0.258882
O O10 0.292860 0.909313 0.304056
O O11 0.333375 0.000000 0.259625
O O12 0.500000 0.325754 0.351827
O O13 0.667734 0.266621 0.352609
O O14 0.667643 0.338599 0.245919
O O15 0.648892 0.769026 0.500000
O O16 0.500000 0.788305 0.611735
O O17 0.703164 0.825921 0.620664
#
# Coordination Sequence:
#
# PCOD9518571 Si02
#       8
#     8   8   2  16  16  16  16  16
#     4  12  21  36  58  84 124 156 199 250 290 368
#     4  12  24  43  64  94 122 153 206 240 320 366
#     4  12  32  40  68 100 124 172 192 256 320 390
#     4  11  21  33  56  89 123 160 197 246 304 354
#     4  10  22  38  57  81 111 160 205 246 296 353
#     4  10  18  36  59  88 116 157 196 247 298 363
#     4  10  22  37  58  86 118 153 197 249 300 357
#     4  11  21  39  63  86 118 152 199 252 298 368
#
# _framework density 18.146477000000001
#
# number of rings (size 3 to 8) (size 9 to 14) (size 15 to 20)
#    0.000    1.306    5.306    2.204    2.286    2.612 
#    0.000    0.816    1.796    0.000    0.000    3.429 
#    0.000    0.000    0.000    0.000    0.000    0.000 
#
# Total GULP energy -273326.091019 kJ/mol
# GULP energy per Si atom -5578.083490 kJ/mol
# Density = 1.810517 g / cm^3
# Si number density = 18.146477 Si / 1000 Ang^3
#
#
#
# Elastic Constant Matrix: (Units=GPa)
#
#
# Indices 1 2 3 4 5 6 
#
# 1 81.3732 67.1696 22.5025 0.0000 0.0000 0.0000
# 2 67.1696 155.9167 29.3852 0.0000 0.0000 0.0000
# 3 22.5025 29.3852 44.1942 -0.0001 0.0000 0.0000
# 4 0.0000 0.0000 -0.0001 23.8189 0.0000 0.0000
# 5 0.0000 0.0000 0.0000 0.0000 13.0558 0.0000
# 6 0.0000 0.0000 0.0000 0.0000 0.0000 20.4678
#
#
#
# Elastic Compliance Matrix: (Units=1/GPa)
#
#
# Indices 1 2 3 4 5 6 
#
# 1 0.020028 -0.007667 -0.005100 0.000000 0.000000 0.000000
# 2 -0.007667 0.010268 -0.002923 0.000000 0.000000 0.000000
# 3 -0.005100 -0.002923 0.027168 0.000000 0.000000 0.000000
# 4 0.000000 0.000000 0.000000 0.041983 0.000000 0.000000
# 5 0.000000 0.000000 0.000000 0.000000 0.076594 0.000000
# 6 0.000000 0.000000 0.000000 0.000000 0.000000 0.048857
#
#
# Mechanical properties :
#
#
# Convention : Reuss Voigt Hill
#
# Bulk Modulus (GPa) = 38.33876 57.73320 48.03598
# Shear Modulus (GPa) = 18.86984 22.29695 20.58340
#
# Velocity S-wave (km/s) = 3.22819 3.50911 3.37158
# Velocity P-wave (km/s) = 5.92184 6.95001 6.45643
#
# Compressibility (1/GPa) = 0.02608326
#
# Stress axis : x y z
#
# Youngs Moduli (GPa) = 49.92971 97.39364 36.80830
#
# Poissons Ratio (x) = 0.74672 0.18772
# Poissons Ratio (y) = 0.38281 0.10760
# Poissons Ratio (z) = 0.25464 0.28470
#
# Static dielectric constant tensor:
#      x y z
#    x 1.620430 0.000000 0.000000 
#    y 0.000000 1.630800 0.000000 
#    z 0.000000 0.000000 1.616060 
# 
# From -- ./inp_files/33264.got.cif
#   From: 2010.05.17/outbox.cif.g08.bks.cpg/sg71_17_cif.got.tgz:33264.got - 2010.06.03 16:22:01.
