data_PCOD9518647
_publ_section_title
;
Structure prediction by ZEFSAII (Michael W. Deem and Ramdas Pophale) SiO2 
 PCOD9518647
Probable space group: I M M M
;
_chemical_formula_sum "Si O2"
_cell_formula_units_Z 72
_cell_length_a 23.164511
_cell_length_b 23.971711
_cell_length_c 9.131221
_cell_angle_alpha 90.000000
_cell_angle_beta 90.000000
_cell_angle_gamma 90.000000
_cell_volume 5070.502766
_symmetry_space_group_name_H-M "I M M M"
_symmetry_group_IT_number 71
_symmetry_cell_setting 'orthorhombic'
loop_
_space_group_symop_operation_xyz
x,y,z
-x,-y,z
x,-y,-z
-x,y,-z
-x,-y,-z
x,y,-z
-x,y,z
x,-y,z
1/2+x,1/2+y,1/2+z
1/2-x,1/2-y,1/2+z
1/2+x,1/2-y,1/2-z
1/2-x,1/2+y,1/2-z
1/2-x,1/2-y,1/2-z
1/2+x,1/2+y,1/2-z
1/2-x,1/2+y,1/2+z
1/2+x,1/2-y,1/2+z
loop_
_atom_site_type_symbol
_atom_site_label
_atom_site_fract_x
_atom_site_fract_y
_atom_site_fract_z
Si Si1 0.118452 0.110552 0.176753
Si Si2 0.569263 0.500000 0.826465
Si Si3 0.432465 0.720477 0.173226
Si Si4 0.665057 0.218158 0.332431
Si Si5 0.735574 0.664389 0.667744
O O1 0.094583 0.054688 0.248652
O O2 0.084374 0.163547 0.242663
O O3 0.186290 0.120503 0.211913
O O4 0.112846 0.110220 0.000000
O O5 0.500000 0.500000 0.810794
O O6 0.582441 0.500000 0.000000
O O7 0.500000 0.732288 0.194671
O O8 0.390942 0.768526 0.235978
O O9 0.421664 0.712835 0.000000
O O10 0.649578 0.206533 0.500000
O O11 0.701254 0.276407 0.330637
O O12 0.708545 0.172433 0.267331
O O13 0.752958 0.653945 0.500000
#
# Coordination Sequence:
#
# PCOD9518647 Si02
#       5
#    16   8  16  16  16
#     4  10  20  32  46  61  77 103 139 177 212 244
#     4  11  23  35  45  59  81 109 140 175 214 249
#     4  10  19  29  41  58  82 111 139 168 204 244
#     4   9  16  25  40  60  79 102 131 163 199 240
#     4   8  15  27  41  58  78  99 127 164 205 245
#
# _framework density 14.199775000000001
#
# number of rings (size 3 to 8) (size 9 to 14) (size 15 to 20)
#    0.000    2.556    0.000    4.333    0.000   11.556 
#    0.000    0.000    0.000    0.000    0.000    0.000 
#    0.000    0.000    0.000    1.000    0.000   19.333 
#
# Total GULP energy -200577.011190 kJ/mol
# GULP energy per Si atom -5571.583644 kJ/mol
# Density = 1.416746 g / cm^3
# Si number density = 14.199775 Si / 1000 Ang^3
#
#
#
# Elastic Constant Matrix: (Units=GPa)
#
#
# Indices 1 2 3 4 5 6 
#
# 1 98.8234 45.3459 74.6738 0.0000 0.0000 0.0000
# 2 45.3459 40.2383 38.5580 0.0000 0.0000 0.0000
# 3 74.6738 38.5580 101.1110 0.0000 0.0000 0.0000
# 4 0.0000 0.0000 0.0000 8.6705 0.0000 0.0000
# 5 0.0000 0.0000 0.0000 0.0000 25.7249 0.0000
# 6 0.0000 0.0000 0.0000 0.0000 0.0000 24.3469
#
#
#
# Elastic Compliance Matrix: (Units=1/GPa)
#
#
# Indices 1 2 3 4 5 6 
#
# 1 0.030741 -0.020310 -0.014959 0.000000 0.000000 0.000000
# 2 -0.020310 0.052580 -0.005052 0.000000 0.000000 0.000000
# 3 -0.014959 -0.005052 0.022864 0.000000 0.000000 0.000000
# 4 0.000000 0.000000 0.000000 0.115334 0.000000 0.000000
# 5 0.000000 0.000000 0.000000 0.000000 0.038873 0.000000
# 6 0.000000 0.000000 0.000000 0.000000 0.000000 0.041073
#
#
# Mechanical properties :
#
#
# Convention : Reuss Voigt Hill
#
# Bulk Modulus (GPa) = 39.14558 61.92534 50.53546
# Shear Modulus (GPa) = 12.80012 17.18812 14.99412
#
# Velocity S-wave (km/s) = 3.00564 3.48293 3.25305
# Velocity P-wave (km/s) = 6.29863 7.73816 7.05521
#
# Compressibility (1/GPa) = 0.02554567
#
# Stress axis : x y z
#
# Youngs Moduli (GPa) = 32.52939 19.01852 43.73667
#
# Poissons Ratio (x) = 0.38626 0.65424
# Poissons Ratio (y) = 0.66066 0.22095
# Poissons Ratio (z) = 0.48660 0.09608
#
# Static dielectric constant tensor:
#      x y z
#    x 1.472650 0.000000 0.000000 
#    y 0.000000 1.446050 0.000000 
#    z 0.000000 0.000000 1.478340 
# 
# From -- ./inp_files/10106.got.cif
#   From: 2010.05.17/outbox.cif.g08.bks.cpg/sg71_6_cif.got.tgz:10106.got - 2010.06.03 16:22:01.
