data_PCOD9518250
_publ_section_title
;
Structure prediction by ZEFSAII (Michael W. Deem and Ramdas Pophale) SiO2 
 PCOD9518250
Probable space group: I M M M
;
_chemical_formula_sum "Si O2"
_cell_formula_units_Z 104
_cell_length_a 27.219520
_cell_length_b 9.701643
_cell_length_c 23.966697
_cell_angle_alpha 90.000000
_cell_angle_beta 90.000000
_cell_angle_gamma 90.000000
_cell_volume 6328.983118
_symmetry_space_group_name_H-M "I M M M"
_symmetry_group_IT_number 71
_symmetry_cell_setting 'orthorhombic'
loop_
_space_group_symop_operation_xyz
x,y,z
-x,-y,z
x,-y,-z
-x,y,-z
-x,-y,-z
x,y,-z
-x,y,z
x,-y,z
1/2+x,1/2+y,1/2+z
1/2-x,1/2-y,1/2+z
1/2+x,1/2-y,1/2-z
1/2-x,1/2+y,1/2-z
1/2-x,1/2-y,1/2-z
1/2+x,1/2+y,1/2-z
1/2-x,1/2+y,1/2+z
1/2+x,1/2-y,1/2+z
loop_
_atom_site_type_symbol
_atom_site_label
_atom_site_fract_x
_atom_site_fract_y
_atom_site_fract_z
Si Si1 0.445210 0.842962 0.758661
Si Si2 0.125184 0.661301 0.363967
Si Si3 0.443364 0.653476 0.933182
Si Si4 0.210862 0.838795 0.321111
Si Si5 0.000000 0.167315 0.064672
Si Si6 0.307190 0.339047 0.689077
Si Si7 0.582460 0.334959 0.653832
O O1 0.500000 0.829685 0.782847
O O2 0.405249 0.823133 0.806396
O O3 0.439303 0.738813 0.708060
O O4 0.439978 0.000000 0.737373
O O5 0.135211 0.500000 0.372394
O O6 0.090615 0.727326 0.410348
O O7 0.173684 0.751878 0.358389
O O8 0.500000 0.672833 0.915992
O O9 0.427707 0.500000 0.913328
O O10 0.442298 0.652150 0.000000
O O11 0.263739 0.765837 0.325594
O O12 0.191080 0.829670 0.256858
O O13 0.213163 0.000000 0.335240
O O14 0.048997 0.206746 0.100399
O O15 0.000000 0.000000 0.062805
O O16 0.000000 0.215332 0.000000
O O17 0.294912 0.500000 0.676702
O O18 0.358862 0.305961 0.658629
O O19 0.577721 0.500000 0.658918
#
# Coordination Sequence:
#
# PCOD9518250 Si02
#       7
#    16  16  16  16   8  16  16
#     4  10  20  31  44  69 105 137 165 202 253 305
#     4  11  21  32  49  74 106 138 170 213 260 307
#     4   9  19  36  55  74  99 135 177 216 253 298
#     4  10  19  31  49  72 101 135 173 212 257 312
#     4   9  18  32  53  81 107 133 170 213 256 301
#     4   9  18  31  47  71 101 134 172 211 254 310
#     4  10  18  31  52  74 100 133 168 207 252 308
#
# _framework density 16.43234
#
# number of rings (size 3 to 8) (size 9 to 14) (size 15 to 20)
#    0.000    2.231    2.308    1.846    0.000    3.077 
#    0.000    0.769    0.000    1.846    0.000    2.154 
#    0.000    0.000    0.000    0.000    0.000    0.000 
#
# Total GULP energy -289677.838890 kJ/mol
# GULP energy per Si atom -5570.727671 kJ/mol
# Density = 1.639494 g / cm^3
# Si number density = 16.432340 Si / 1000 Ang^3
#
#
#
# Elastic Constant Matrix: (Units=GPa)
#
#
# Indices 1 2 3 4 5 6 
#
# 1 109.8744 67.2915 31.5546 0.0000 0.0000 0.0000
# 2 67.2915 87.6629 30.5808 0.0000 0.0000 0.0000
# 3 31.5546 30.5808 49.5638 0.0000 0.0000 0.0000
# 4 0.0000 0.0000 0.0000 16.7451 0.0000 0.0000
# 5 0.0000 0.0000 0.0000 0.0000 37.0555 0.0000
# 6 0.0000 0.0000 0.0000 0.0000 0.0000 28.6146
#
#
#
# Elastic Compliance Matrix: (Units=1/GPa)
#
#
# Indices 1 2 3 4 5 6 
#
# 1 0.017686 -0.012294 -0.003674 0.000000 0.000000 0.000000
# 2 -0.012294 0.023082 -0.006415 0.000000 0.000000 0.000000
# 3 -0.003674 -0.006415 0.026473 0.000000 0.000000 0.000000
# 4 0.000000 0.000000 0.000000 0.059719 0.000000 0.000000
# 5 0.000000 0.000000 0.000000 0.000000 0.026987 0.000000
# 6 0.000000 0.000000 0.000000 0.000000 0.000000 0.034947
#
#
# Mechanical properties :
#
#
# Convention : Reuss Voigt Hill
#
# Bulk Modulus (GPa) = 44.49367 56.21720 50.35543
# Shear Modulus (GPa) = 20.73378 24.32797 22.53087
#
# Velocity S-wave (km/s) = 3.55599 3.85189 3.70689
# Velocity P-wave (km/s) = 6.63293 7.35312 7.00229
#
# Compressibility (1/GPa) = 0.02247511
#
# Stress axis : x y z
#
# Youngs Moduli (GPa) = 56.54167 43.32287 37.77438
#
# Poissons Ratio (x) = 0.53263 0.13879
# Poissons Ratio (y) = 0.69515 0.24231
# Poissons Ratio (z) = 0.20774 0.27790
#
# Static dielectric constant tensor:
#      x y z
#    x 1.576330 0.000000 0.000000 
#    y 0.000000 1.550060 0.000000 
#    z 0.000000 0.000000 1.534760 
# 
# From -- ./inp_files/57965.got.cif
#   From: 2010.05.17/outbox.cif.g08.bks.cpg/sg71_29_cif.got.tgz:57965.got - 2010.06.03 16:22:01.
