data_PCOD9518208
_publ_section_title
;
Structure prediction by ZEFSAII (Michael W. Deem and Ramdas Pophale) SiO2 
 PCOD9518208
Probable space group: I M M M
;
_chemical_formula_sum "Si O2"
_cell_formula_units_Z 88
_cell_length_a 19.703316
_cell_length_b 8.746695
_cell_length_c 28.605111
_cell_angle_alpha 90.000000
_cell_angle_beta 90.000000
_cell_angle_gamma 90.000000
_cell_volume 4929.773237
_symmetry_space_group_name_H-M "I M M M"
_symmetry_group_IT_number 71
_symmetry_cell_setting 'orthorhombic'
loop_
_space_group_symop_operation_xyz
x,y,z
-x,-y,z
x,-y,-z
-x,y,-z
-x,-y,-z
x,y,-z
-x,y,z
x,-y,z
1/2+x,1/2+y,1/2+z
1/2-x,1/2-y,1/2+z
1/2+x,1/2-y,1/2-z
1/2-x,1/2+y,1/2-z
1/2-x,1/2-y,1/2-z
1/2+x,1/2+y,1/2-z
1/2-x,1/2+y,1/2+z
1/2+x,1/2-y,1/2+z
loop_
_atom_site_type_symbol
_atom_site_label
_atom_site_fract_x
_atom_site_fract_y
_atom_site_fract_z
Si Si1 0.078308 0.684514 0.376216
Si Si2 0.582378 0.324262 0.777688
Si Si3 0.660051 0.684953 0.407923
Si Si4 0.079146 0.317247 0.821071
Si Si5 0.077370 0.186135 0.000000
Si Si6 0.694521 0.813518 0.053914
O O1 0.078737 0.500000 0.374661
O O2 0.103207 0.745195 0.326019
O O3 0.128122 0.734977 0.417533
O O4 0.000000 0.733334 0.383421
O O5 0.500000 0.320465 0.778179
O O6 0.604304 0.500000 0.776647
O O7 0.602162 0.240614 0.729933
O O8 0.658165 0.500000 0.405051
O O9 0.626237 0.751629 0.361693
O O10 0.616298 0.732767 0.453207
O O11 0.737321 0.731763 0.418644
O O12 0.080324 0.500000 0.821823
O O13 0.000000 0.267963 0.828179
O O14 0.000000 0.239268 0.000000
O O15 0.077183 0.000000 0.000000
O O16 0.694566 0.000000 0.052687
O O17 0.695958 0.762092 0.000000
#
# Coordination Sequence:
#
# PCOD9518208 Si02
#       6
#    16  16  16  16   8  16
#     4   9  17  30  51  78 105 132 164 205 253 304
#     4   9  17  31  52  76 101 130 166 208 252 299
#     4  10  18  31  50  72  99 133 173 212 248 291
#     4  10  20  33  50  74 104 134 165 206 255 303
#     4   9  16  26  45  71  94 122 166 213 247 281
#     4   9  17  31  51  75 103 135 170 209 253 296
#
# _framework density 17.850719999999999
#
# number of rings (size 3 to 8) (size 9 to 14) (size 15 to 20)
#    0.000    2.636    0.909    1.636    0.000    4.364 
#    0.000    4.091    0.000    3.273    0.000    2.545 
#    0.000    0.000    0.000    0.000    0.000    0.000 
#
# Total GULP energy -245314.389281 kJ/mol
# GULP energy per Si atom -5575.327029 kJ/mol
# Density = 1.781009 g / cm^3
# Si number density = 17.850720 Si / 1000 Ang^3
#
#
#
# Elastic Constant Matrix: (Units=GPa)
#
#
# Indices 1 2 3 4 5 6 
#
# 1 106.3901 23.3195 81.9923 0.0000 0.0000 0.0000
# 2 23.3195 20.3690 28.8483 0.0000 0.0000 0.0000
# 3 81.9923 28.8483 150.0336 0.0000 0.0000 0.0000
# 4 0.0000 0.0000 0.0000 22.6279 0.0000 0.0000
# 5 0.0000 0.0000 0.0000 0.0000 -34.1707 0.0000
# 6 0.0000 0.0000 0.0000 0.0000 0.0000 11.6764
#
#
#
# Elastic Compliance Matrix: (Units=1/GPa)
#
#
# Indices 1 2 3 4 5 6 
#
# 1 0.017321 -0.008828 -0.007769 0.000000 0.000000 0.000000
# 2 -0.008828 0.071966 -0.009013 0.000000 0.000000 0.000000
# 3 -0.007769 -0.009013 0.012644 0.000000 0.000000 0.000000
# 4 0.000000 0.000000 0.000000 0.044193 0.000000 0.000000
# 5 0.000000 0.000000 0.000000 0.000000 -0.029265 0.000000
# 6 0.000000 0.000000 0.000000 0.000000 0.000000 0.085643
#
#
# Mechanical properties :
#
#
# Convention : Reuss Voigt Hill
#
# Bulk Modulus (GPa) = 19.71926 60.56811 40.14369
# Shear Modulus (GPa) = 18.47568 9.53555 14.00561
#
# Velocity S-wave (km/s) = 3.22065 2.31375 2.80410
# Velocity P-wave (km/s) = 4.99007 6.41420 5.74642
#
# Compressibility (1/GPa) = 0.05071184
#
# Stress axis : x y z
#
# Youngs Moduli (GPa) = 57.73196 13.89544 79.09059
#
# Poissons Ratio (x) = 0.12267 0.61443
# Poissons Ratio (y) = 0.50965 0.71286
# Poissons Ratio (z) = 0.44850 0.12524
#
# Static dielectric constant tensor:
#      x y z
#    x 1.611520 0.000000 0.000000 
#    y 0.000000 1.608010 0.000000 
#    z 0.000000 0.000000 1.586500 
# 
# From -- ./inp_files/10492.got.cif
#   From: 2010.05.17/outbox.cif.g08.bks.cpg/sg71_6_cif.got.tgz:10492.got - 2010.06.03 16:22:01.
