data_PCOD9518870
_publ_section_title
;
Structure prediction by ZEFSAII (Michael W. Deem and Ramdas Pophale) SiO2 
 PCOD9518870
Probable space group: I M M M
;
_chemical_formula_sum "Si O2"
_cell_formula_units_Z 112
_cell_length_a 15.875998
_cell_length_b 19.736013
_cell_length_c 19.192658
_cell_angle_alpha 90.000000
_cell_angle_beta 90.000000
_cell_angle_gamma 90.000000
_cell_volume 6013.614475
_symmetry_space_group_name_H-M "I M M M"
_symmetry_group_IT_number 71
_symmetry_cell_setting 'orthorhombic'
loop_
_space_group_symop_operation_xyz
x,y,z
-x,-y,z
x,-y,-z
-x,y,-z
-x,-y,-z
x,y,-z
-x,y,z
x,-y,z
1/2+x,1/2+y,1/2+z
1/2-x,1/2-y,1/2+z
1/2+x,1/2-y,1/2-z
1/2-x,1/2+y,1/2-z
1/2-x,1/2-y,1/2-z
1/2+x,1/2+y,1/2-z
1/2-x,1/2+y,1/2+z
1/2+x,1/2-y,1/2+z
loop_
_atom_site_type_symbol
_atom_site_label
_atom_site_fract_x
_atom_site_fract_y
_atom_site_fract_z
Si Si1 0.146427 0.292976 0.299936
Si Si2 0.397857 0.845334 0.421266
Si Si3 0.897121 0.925093 0.343504
Si Si4 0.598659 0.293808 0.923124
Si Si5 0.398530 0.574450 0.681344
Si Si6 0.397928 0.923591 0.716811
Si Si7 0.341511 0.281408 0.662879
O O1 0.103320 0.268790 0.370494
O O2 0.133080 0.368874 0.272860
O O3 0.243725 0.281038 0.317918
O O4 0.116204 0.245861 0.235046
O O5 0.371542 0.862237 0.500000
O O6 0.500000 0.842439 0.420387
O O7 0.372374 0.897522 0.360234
O O8 0.363635 0.772634 0.396183
O O9 0.864002 0.861049 0.386484
O O10 0.871762 0.919593 0.262577
O O11 0.000000 0.923597 0.343675
O O12 0.872448 0.000000 0.369574
O O13 0.500000 0.308745 0.930820
O O14 0.634677 0.281515 0.000000
O O15 0.500000 0.574900 0.680168
O O16 0.370808 0.500000 0.655734
O O17 0.367646 0.642466 0.645024
O O18 0.500000 0.923038 0.718851
O O19 0.368446 0.000000 0.729261
#
# Coordination Sequence:
#
# PCOD9518870 Si02
#       7
#    16  16  16  16  16  16  16
#     4  10  20  32  47  71  98 130 171 211 245 292
#     4   9  18  32  52  78 104 131 164 202 249 307
#     4   8  14  25  42  66  96 128 160 196 237 278
#     4  10  19  30  47  69  96 132 168 207 249 286
#     4   9  16  27  47  73  98 125 158 199 243 284
#     4   9  18  33  54  77 100 129 165 210 261 304
#     4  10  19  31  49  71  97 134 168 202 247 288
#
# _framework density 18.624407000000001
#
# number of rings (size 3 to 8) (size 9 to 14) (size 15 to 20)
#    0.000    2.714    1.429    1.714    0.000    2.857 
#    0.000    2.857    0.000    0.857    0.000    8.000 
#    0.000    0.000    0.000    0.000    0.000    0.000 
#
# Total GULP energy -312062.401980 kJ/mol
# GULP energy per Si atom -5572.542892 kJ/mol
# Density = 1.858202 g / cm^3
# Si number density = 18.624407 Si / 1000 Ang^3
#
#
#
# Elastic Constant Matrix: (Units=GPa)
#
#
# Indices 1 2 3 4 5 6 
#
# 1 7.6369 -3.9312 -1.5759 0.0000 0.0000 0.0000
# 2 -3.9312 114.5557 28.1145 0.0000 0.0000 0.0000
# 3 -1.5759 28.1145 56.9096 0.0000 0.0000 0.0000
# 4 0.0000 0.0000 0.0000 12.7036 0.0000 0.0000
# 5 0.0000 0.0000 0.0000 0.0000 8.2401 0.0000
# 6 0.0000 0.0000 0.0000 0.0000 0.0000 1.4408
#
#
#
# Elastic Compliance Matrix: (Units=1/GPa)
#
#
# Indices 1 2 3 4 5 6 
#
# 1 0.133431 0.004179 0.001630 0.000000 0.000000 0.000000
# 2 0.004179 0.010065 -0.004856 0.000000 0.000000 0.000000
# 3 0.001630 -0.004856 0.020016 0.000000 0.000000 0.000000
# 4 0.000000 0.000000 0.000000 0.078718 0.000000 0.000000
# 5 0.000000 0.000000 0.000000 0.000000 0.121357 0.000000
# 6 0.000000 0.000000 0.000000 0.000000 0.000000 0.694040
#
#
# Mechanical properties :
#
#
# Convention : Reuss Voigt Hill
#
# Bulk Modulus (GPa) = 6.04531 24.92411 15.48471
# Shear Modulus (GPa) = 4.50101 14.90990 9.70546
#
# Velocity S-wave (km/s) = 1.55627 2.83248 2.28527
# Velocity P-wave (km/s) = 2.54603 4.91007 3.91095
#
# Compressibility (1/GPa) = 0.16541744
#
# Stress axis : x y z
#
# Youngs Moduli (GPa) = 7.49450 99.35756 49.95989
#
# Poissons Ratio (x) = -0.41520 -0.08145
# Poissons Ratio (y) = -0.03132 0.24263
# Poissons Ratio (z) = -0.01222 0.48252
#
# Static dielectric constant tensor:
#      x y z
#    x 1.671260 0.000000 0.000000 
#    y 0.000000 1.656680 0.000000 
#    z 0.000000 0.000000 1.645690 
# 
# From -- ./inp_files/47514.got.cif
#   From: 2010.05.17/outbox.cif.g08.bks.cpg/sg71_24_cif.got.tgz:47514.got - 2010.06.03 16:22:01.
