data_PCOD9518243
_publ_section_title
;
Structure prediction by ZEFSAII (Michael W. Deem and Ramdas Pophale) SiO2 
 PCOD9518243
Probable space group: I M M M
;
_chemical_formula_sum "Si O2"
_cell_formula_units_Z 74
_cell_length_a 7.396392
_cell_length_b 29.812059
_cell_length_c 15.853223
_cell_angle_alpha 90.000000
_cell_angle_beta 90.000000
_cell_angle_gamma 90.000000
_cell_volume 3495.662221
_symmetry_space_group_name_H-M "I M M M"
_symmetry_group_IT_number 71
_symmetry_cell_setting 'orthorhombic'
loop_
_space_group_symop_operation_xyz
x,y,z
-x,-y,z
x,-y,-z
-x,y,-z
-x,-y,-z
x,y,-z
-x,y,z
x,-y,z
1/2+x,1/2+y,1/2+z
1/2-x,1/2-y,1/2+z
1/2+x,1/2-y,1/2-z
1/2-x,1/2+y,1/2-z
1/2-x,1/2-y,1/2-z
1/2+x,1/2+y,1/2-z
1/2-x,1/2+y,1/2+z
1/2+x,1/2-y,1/2+z
loop_
_atom_site_type_symbol
_atom_site_label
_atom_site_fract_x
_atom_site_fract_y
_atom_site_fract_z
Si Si1 0.715715 0.742957 0.151094
Si Si2 0.000000 0.000000 0.000000
Si Si3 0.283651 0.354385 0.906414
Si Si4 0.279066 0.838969 0.907505
Si Si5 0.714675 0.905768 0.237290
Si Si6 0.721604 0.000000 0.841611
O O1 0.500000 0.741929 0.138075
O O2 0.750000 0.750000 0.250000
O O3 0.786685 0.694996 0.120281
O O4 0.781845 0.787703 0.104805
O O5 0.839821 0.000000 0.926039
O O6 0.500000 0.350560 0.911138
O O7 0.249400 0.389295 0.831748
O O8 0.217580 0.366448 0.000000
O O9 0.500000 0.838551 0.905246
O O10 0.213628 0.869705 0.830820
O O11 0.226061 0.856135 0.000000
O O12 0.500000 0.904922 0.226997
O O13 0.770216 0.955497 0.211397
O O14 0.500000 0.000000 0.856733
#
# Coordination Sequence:
#
# PCOD9518243 Si02
#       6
#    16   2  16  16  16   8
#     4  10  18  31  51  78 113 151 194 245 299 358
#     4  12  26  44  76 102 122 184 206 244 332 390
#     4  10  21  36  57  84 117 157 204 257 310 367
#     4   9  17  30  52  79 109 151 195 232 293 368
#     4  10  21  39  61  86 119 157 197 254 311 364
#     4  10  25  45  66  99 136 162 210 266 312 380
#
# _framework density 21.169093
#
# number of rings (size 3 to 8) (size 9 to 14) (size 15 to 20)
#    0.000    2.162    2.162    0.811    3.027    3.027 
#    0.000    0.541    0.000    6.486    0.000    0.000 
#    0.000    0.000    0.000    0.000    0.000    0.000 
#
# Total GULP energy -206355.852804 kJ/mol
# GULP energy per Si atom -5577.185211 kJ/mol
# Density = 2.112091 g / cm^3
# Si number density = 21.169093 Si / 1000 Ang^3
#
#
#
# Elastic Constant Matrix: (Units=GPa)
#
#
# Indices 1 2 3 4 5 6 
#
# 1 80.5015 24.0605 8.5007 0.0000 0.0000 0.0000
# 2 24.0605 160.1248 111.8167 0.0000 0.0000 0.0000
# 3 8.5007 111.8167 217.0573 0.0000 0.0000 -0.0001
# 4 0.0000 0.0000 0.0000 -0.4080 0.0000 0.0000
# 5 0.0000 0.0000 0.0000 0.0000 22.6411 0.0000
# 6 0.0000 0.0000 -0.0001 0.0000 0.0000 -8.0728
#
#
#
# Elastic Compliance Matrix: (Units=1/GPa)
#
#
# Indices 1 2 3 4 5 6 
#
# 1 0.013091 -0.002513 0.000782 0.000000 0.000000 0.000000
# 2 -0.002513 0.010236 -0.005175 0.000001 0.000000 0.000000
# 3 0.000782 -0.005175 0.007242 -0.000001 0.000000 0.000000
# 4 0.000000 0.000001 -0.000001 -2.450928 0.000000 0.000003
# 5 0.000000 0.000000 0.000000 0.000000 0.044168 0.000000
# 6 0.000000 0.000000 0.000000 0.000003 0.000000 -0.123873
#
#
# Mechanical properties :
#
#
# Convention : Reuss Voigt Hill
#
# Bulk Modulus (GPa) = 59.67516 82.93771 71.30643
# Shear Modulus (GPa) = -2.01559 23.71910 10.85176
#
# Velocity S-wave (km/s) = -0.97683 3.35096 2.26657
# Velocity P-wave (km/s) = 5.19410 7.36448 6.37237
#
# Compressibility (1/GPa) = 0.01675739
#
# Stress axis : x y z
#
# Youngs Moduli (GPa) = 76.39038 97.69081 138.07831
#
# Poissons Ratio (x) = 0.24550 -0.10796
# Poissons Ratio (y) = 0.19197 0.71453
# Poissons Ratio (z) = -0.05973 0.50553
#
# Static dielectric constant tensor:
#      x y z
#    x 1.858250 0.000000 0.000000 
#    y 0.000000 1.754370 0.000000 
#    z 0.000000 0.000000 1.757490 
# 
# From -- ./inp_files/31509.got.cif
#   From: 2010.05.17/outbox.cif.g08.bks.cpg/sg71_16_cif.got.tgz:31509.got - 2010.06.03 16:22:01.
