data_PCOD9518000
_publ_section_title
;
Structure prediction by ZEFSAII (Michael W. Deem and Ramdas Pophale) SiO2 
 PCOD9518000
Probable space group: I M M M
;
_chemical_formula_sum "Si O2"
_cell_formula_units_Z 104
_cell_length_a 7.337469
_cell_length_b 19.646249
_cell_length_c 34.243356
_cell_angle_alpha 90.000000
_cell_angle_beta 90.000000
_cell_angle_gamma 90.000000
_cell_volume 4936.307940
_symmetry_space_group_name_H-M "I M M M"
_symmetry_group_IT_number 71
_symmetry_cell_setting 'orthorhombic'
loop_
_space_group_symop_operation_xyz
x,y,z
-x,-y,z
x,-y,-z
-x,y,-z
-x,-y,-z
x,y,-z
-x,y,z
x,-y,z
1/2+x,1/2+y,1/2+z
1/2-x,1/2-y,1/2+z
1/2+x,1/2-y,1/2-z
1/2-x,1/2+y,1/2-z
1/2-x,1/2-y,1/2-z
1/2+x,1/2+y,1/2-z
1/2-x,1/2+y,1/2+z
1/2+x,1/2-y,1/2+z
loop_
_atom_site_type_symbol
_atom_site_label
_atom_site_fract_x
_atom_site_fract_y
_atom_site_fract_z
Si Si1 0.787182 0.165506 0.882415
Si Si2 0.720464 0.922032 0.805665
Si Si3 0.209461 0.417183 0.000000
Si Si4 0.216885 0.326462 0.764289
Si Si5 0.722869 0.078058 0.415334
Si Si6 0.222191 0.921428 0.955441
Si Si7 0.223212 0.688244 0.852168
O O1 0.773829 0.114435 0.845858
O O2 0.713127 0.129197 0.921401
O O3 0.713533 0.238171 0.867746
O O4 0.000000 0.177824 0.890741
O O5 0.500000 0.921790 0.804757
O O6 0.786533 0.878717 0.768354
O O7 0.781481 0.000000 0.804425
O O8 0.287943 0.398245 0.958142
O O9 0.206950 0.500000 0.000000
O O10 0.000000 0.393259 0.000000
O O11 0.250000 0.250000 0.750000
O O12 0.286117 0.329217 0.808522
O O13 0.000000 0.337790 0.766249
O O14 0.500000 0.077493 0.416763
O O15 0.777491 0.129454 0.381907
O O16 0.778708 0.000000 0.408617
O O17 0.000000 0.921066 0.954725
O O18 0.276652 0.000000 0.947697
O O19 0.276052 0.903929 0.000000
O O20 0.000000 0.690493 0.850902
#
# Coordination Sequence:
#
# PCOD9518000 Si02
#       7
#    16  16   8  16  16  16  16
#     4  10  18  30  48  70  96 123 155 192 232 278
#     4  10  21  34  49  71  95 121 156 194 231 273
#     4   7  10  18  32  50  78 118 154 179 214 268
#     4  10  19  33  50  66  91 123 154 189 231 277
#     4   8  13  22  36  56  85 120 154 186 222 267
#     4   8  14  25  41  62  89 120 151 184 227 275
#     4   9  17  27  41  63  87 115 153 191 225 270
#
# _framework density 21.068377999999999
#
# number of rings (size 3 to 8) (size 9 to 14) (size 15 to 20)
#    0.000    3.000    1.538    1.846    0.000    1.538 
#    1.385    3.077    0.000    0.462    0.000    2.154 
#    0.000    0.615    0.000    0.000    0.000   17.308 
#
# Total GULP energy -290151.296852 kJ/mol
# GULP energy per Si atom -5579.832632 kJ/mol
# Density = 2.102043 g / cm^3
# Si number density = 21.068378 Si / 1000 Ang^3
#
#
#
# Elastic Constant Matrix: (Units=GPa)
#
#
# Indices 1 2 3 4 5 6 
#
# 1 78.9333 -8.2425 -2.7534 0.0000 0.0000 0.0000
# 2 -8.2425 129.8148 102.2943 0.0000 0.0000 0.0000
# 3 -2.7534 102.2943 224.9965 0.0000 0.0000 0.0000
# 4 0.0000 0.0000 0.0000 44.4625 0.0000 0.0000
# 5 0.0000 0.0000 0.0000 0.0000 1.8278 0.0000
# 6 0.0000 0.0000 0.0000 0.0000 0.0000 -0.7997
#
#
#
# Elastic Compliance Matrix: (Units=1/GPa)
#
#
# Indices 1 2 3 4 5 6 
#
# 1 0.012769 0.001072 -0.000331 0.000000 0.000000 0.000000
# 2 0.001072 0.012094 -0.005485 0.000000 0.000000 0.000000
# 3 -0.000331 -0.005485 0.006934 0.000000 0.000000 0.000000
# 4 0.000000 0.000000 0.000000 0.022491 0.000000 0.000000
# 5 0.000000 0.000000 0.000000 0.000000 0.547093 0.000000
# 6 0.000000 0.000000 0.000000 0.000000 0.000000 -1.250414
#
#
# Mechanical properties :
#
#
# Convention : Reuss Voigt Hill
#
# Bulk Modulus (GPa) = 44.82691 68.48238 56.65464
# Shear Modulus (GPa) = -7.91005 31.92788 12.00891
#
# Velocity S-wave (km/s) = -1.93975 3.89709 2.39005
# Velocity P-wave (km/s) = 4.03810 7.26809 5.87926
#
# Compressibility (1/GPa) = 0.02230803
#
# Stress axis : x y z
#
# Youngs Moduli (GPa) = 78.31302 82.68748 144.20983
#
# Poissons Ratio (x) = -0.08860 0.04772
# Poissons Ratio (y) = -0.08392 0.79103
# Poissons Ratio (z) = 0.02591 0.45356
#
# Static dielectric constant tensor:
#      x y z
#    x 1.891390 0.000000 0.000000 
#    y 0.000000 1.704460 0.000000 
#    z 0.000000 0.000000 1.752420 
# 
# From -- ./inp_files/69447.got.cif
#   From: 2010.05.17/outbox.cif.g08.bks.cpg/sg71_35_cif.got.tgz:69447.got - 2010.06.03 16:22:01.
