data_PCOD9518328
_publ_section_title
;
Structure prediction by ZEFSAII (Michael W. Deem and Ramdas Pophale) SiO2 
 PCOD9518328
Probable space group: I M M M
;
_chemical_formula_sum "Si O2"
_cell_formula_units_Z 80
_cell_length_a 14.570160
_cell_length_b 12.367806
_cell_length_c 20.151283
_cell_angle_alpha 90.000000
_cell_angle_beta 90.000000
_cell_angle_gamma 90.000000
_cell_volume 3631.279580
_symmetry_space_group_name_H-M "I M M M"
_symmetry_group_IT_number 71
_symmetry_cell_setting 'orthorhombic'
loop_
_space_group_symop_operation_xyz
x,y,z
-x,-y,z
x,-y,-z
-x,y,-z
-x,-y,-z
x,y,-z
-x,y,z
x,-y,z
1/2+x,1/2+y,1/2+z
1/2-x,1/2-y,1/2+z
1/2+x,1/2-y,1/2-z
1/2-x,1/2+y,1/2-z
1/2-x,1/2-y,1/2-z
1/2+x,1/2+y,1/2-z
1/2-x,1/2+y,1/2+z
1/2+x,1/2-y,1/2+z
loop_
_atom_site_type_symbol
_atom_site_label
_atom_site_fract_x
_atom_site_fract_y
_atom_site_fract_z
Si Si1 0.607548 0.500000 0.874146
Si Si2 0.609211 0.500000 0.284459
Si Si3 0.368882 0.122404 0.000000
Si Si4 0.390498 0.712752 0.356672
Si Si5 0.387203 0.876816 0.250509
Si Si6 0.894543 0.766542 0.627559
Si Si7 0.349288 0.625174 0.500000
O O1 0.500000 0.500000 0.896711
O O2 0.615277 0.500000 0.794289
O O3 0.647057 0.382503 0.893219
O O4 0.500000 0.500000 0.299631
O O5 0.647267 0.391753 0.317478
O O6 0.396176 0.187149 0.934571
O O7 0.259559 0.117068 0.000000
O O8 0.402892 0.000000 0.000000
O O9 0.500000 0.714432 0.347000
O O10 0.358251 0.821014 0.319629
O O11 0.375001 0.689905 0.433767
O O12 0.500000 0.881163 0.247496
O O13 0.356310 0.798383 0.190587
O O14 0.354529 0.000000 0.243603
O O15 0.000000 0.792233 0.647356
O O16 0.385879 0.500000 0.500000
#
# Coordination Sequence:
#
# PCOD9518328 Si02
#       7
#     8   8   8  16  16  16   8
#     4   9  16  29  55  91 113 125 161 222 279 308
#     4   9  14  25  51  87 113 125 155 216 277 316
#     4  11  25  40  51  71 108 149 182 216 259 312
#     4  10  18  31  56  85 109 135 172 219 267 316
#     4   9  17  30  53  84 112 138 171 214 262 314
#     4  10  19  34  59  84 107 136 174 220 264 313
#     4  11  23  37  53  75 107 143 180 223 267 311
#
# _framework density 22.030801
#
# number of rings (size 3 to 8) (size 9 to 14) (size 15 to 20)
#    0.000    2.200    3.000    1.200    0.000    2.400 
#    0.000    3.000    4.400    2.400    0.000    0.000 
#    0.000    0.000    0.000    0.000    0.000    0.000 
#
# Total GULP energy -223294.059584 kJ/mol
# GULP energy per Si atom -5582.351490 kJ/mol
# Density = 2.198066 g / cm^3
# Si number density = 22.030801 Si / 1000 Ang^3
#
#
#
# Elastic Constant Matrix: (Units=GPa)
#
#
# Indices 1 2 3 4 5 6 
#
# 1 45.3773 11.0480 -13.4062 0.0000 0.0000 0.0000
# 2 11.0480 213.3056 72.7191 0.0000 0.0000 0.0000
# 3 -13.4062 72.7191 108.2961 0.0000 0.0000 0.0000
# 4 0.0000 0.0000 0.0000 8.0785 0.0000 0.0000
# 5 0.0000 0.0000 0.0000 0.0000 460.3852 0.0000
# 6 0.0000 0.0000 0.0000 0.0000 0.0000 5.5125
#
#
#
# Elastic Compliance Matrix: (Units=1/GPa)
#
#
# Indices 1 2 3 4 5 6 
#
# 1 0.024229 -0.002954 0.004983 0.000000 0.000000 0.000000
# 2 -0.002954 0.006440 -0.004690 0.000000 0.000000 0.000000
# 3 0.004983 -0.004690 0.013000 0.000000 0.000000 0.000000
# 4 0.000000 0.000000 0.000000 0.123785 0.000000 0.000000
# 5 0.000000 0.000000 0.000000 0.000000 0.002172 0.000000
# 6 0.000000 0.000000 0.000000 0.000000 0.000000 0.181405
#
#
# Mechanical properties :
#
#
# Convention : Reuss Voigt Hill
#
# Bulk Modulus (GPa) = 26.07787 56.41120 41.24453
# Shear Modulus (GPa) = 13.54520 114.56980 64.05750
#
# Velocity S-wave (km/s) = 2.48227 7.21923 5.39810
# Velocity P-wave (km/s) = 4.48087 9.75453 7.59043
#
# Compressibility (1/GPa) = 0.03834669
#
# Stress axis : x y z
#
# Youngs Moduli (GPa) = 41.27354 155.28042 76.92324
#
# Poissons Ratio (x) = 0.45863 -0.38328
# Poissons Ratio (y) = 0.12190 0.36077
# Poissons Ratio (z) = -0.20565 0.72826
#
# Static dielectric constant tensor:
#      x y z
#    x 1.855740 0.000000 0.000000 
#    y 0.000000 1.838450 0.000000 
#    z 0.000000 0.000000 1.770000 
# 
# From -- ./inp_files/23893.got.cif
#   From: 2010.05.17/outbox.cif.g08.bks.cpg/sg71_12_cif.got.tgz:23893.got - 2010.06.03 16:22:01.
