data_PCOD9518952
_publ_section_title
;
Structure prediction by ZEFSAII (Michael W. Deem and Ramdas Pophale) SiO2 
 PCOD9518952
Probable space group: I M M M
;
_chemical_formula_sum "Si O2"
_cell_formula_units_Z 88
_cell_length_a 8.576186
_cell_length_b 27.959915
_cell_length_c 19.458893
_cell_angle_alpha 90.000000
_cell_angle_beta 90.000000
_cell_angle_gamma 90.000000
_cell_volume 4666.036892
_symmetry_space_group_name_H-M "I M M M"
_symmetry_group_IT_number 71
_symmetry_cell_setting 'orthorhombic'
loop_
_space_group_symop_operation_xyz
x,y,z
-x,-y,z
x,-y,-z
-x,y,-z
-x,-y,-z
x,y,-z
-x,y,z
x,-y,z
1/2+x,1/2+y,1/2+z
1/2-x,1/2-y,1/2+z
1/2+x,1/2-y,1/2-z
1/2-x,1/2+y,1/2-z
1/2-x,1/2-y,1/2-z
1/2+x,1/2+y,1/2-z
1/2-x,1/2+y,1/2+z
1/2+x,1/2-y,1/2+z
loop_
_atom_site_type_symbol
_atom_site_label
_atom_site_fract_x
_atom_site_fract_y
_atom_site_fract_z
Si Si1 0.818241 0.814956 0.199098
Si Si2 0.184636 0.553211 0.834471
Si Si3 0.188109 0.157133 0.648798
Si Si4 0.683081 0.425886 0.686688
Si Si5 0.812415 0.251046 0.576208
Si Si6 0.689878 0.500000 0.575923
O O1 0.756380 0.820115 0.277676
O O2 0.806636 0.869696 0.174637
O O3 0.741173 0.781939 0.141687
O O4 0.000000 0.800905 0.204107
O O5 0.242285 0.500000 0.856989
O O6 0.254023 0.603072 0.863063
O O7 0.222884 0.558056 0.753427
O O8 0.000000 0.554123 0.845474
O O9 0.230969 0.195876 0.591615
O O10 0.000000 0.154241 0.654411
O O11 0.500000 0.436781 0.700795
O O12 0.735135 0.454352 0.620238
O O13 0.755454 0.265923 0.500000
O O14 0.000000 0.253267 0.575298
O O15 0.500000 0.500000 0.572204
O O16 0.753459 0.500000 0.500000
#
# Coordination Sequence:
#
# PCOD9518952 Si02
#       6
#    16  16  16  16  16   8
#     4   9  18  31  50  76 100 129 171 213 250 292
#     4  10  19  30  49  77 104 126 155 201 254 302
#     4   9  19  35  54  76 101 132 171 211 248 294
#     4   9  17  30  48  69  95 129 169 208 245 290
#     4  10  21  36  53  74 102 135 169 207 255 307
#     4   9  16  26  43  65  91 129 172 209 242 281
#
# _framework density 18.859688999999999
#
# number of rings (size 3 to 8) (size 9 to 14) (size 15 to 20)
#    0.000    2.636    0.909    2.182    0.000    5.818 
#    0.000    1.818    0.000    1.636    0.000    3.818 
#    0.000    0.000    0.000    0.000    0.000    0.000 
#
# Total GULP energy -245026.742435 kJ/mol
# GULP energy per Si atom -5568.789601 kJ/mol
# Density = 1.881676 g / cm^3
# Si number density = 18.859689 Si / 1000 Ang^3
#
#
#
# Elastic Constant Matrix: (Units=GPa)
#
#
# Indices 1 2 3 4 5 6 
#
# 1 15.2500 19.8854 8.5211 0.0000 0.0000 0.0000
# 2 19.8854 83.3374 19.1716 0.0000 0.0000 0.0000
# 3 8.5211 19.1716 27.1192 0.0000 0.0000 0.0000
# 4 0.0000 0.0000 0.0000 13.1357 0.0000 0.0000
# 5 0.0000 0.0000 0.0000 0.0000 8.4569 0.0000
# 6 0.0000 0.0000 0.0000 0.0000 0.0000 24.2847
#
#
#
# Elastic Compliance Matrix: (Units=1/GPa)
#
#
# Indices 1 2 3 4 5 6 
#
# 1 0.101841 -0.020229 -0.017699 0.000000 0.000000 0.000000
# 2 -0.020229 0.018348 -0.006615 0.000000 0.000000 0.000000
# 3 -0.017699 -0.006615 0.047112 0.000000 0.000000 0.000000
# 4 0.000000 0.000000 0.000000 0.076128 0.000000 0.000000
# 5 0.000000 0.000000 0.000000 0.000000 0.118246 0.000000
# 6 0.000000 0.000000 0.000000 0.000000 0.000000 0.041178
#
#
# Mechanical properties :
#
#
# Convention : Reuss Voigt Hill
#
# Bulk Modulus (GPa) = 12.78516 24.54032 18.66274
# Shear Modulus (GPa) = 9.65230 14.38403 12.01817
#
# Velocity S-wave (km/s) = 2.26474 2.76467 2.52710
# Velocity P-wave (km/s) = 3.69223 4.81991 4.29326
#
# Compressibility (1/GPa) = 0.07821570
#
# Stress axis : x y z
#
# Youngs Moduli (GPa) = 9.81919 54.50166 21.22623
#
# Poissons Ratio (x) = 1.10252 0.37568
# Poissons Ratio (y) = 0.19863 0.14041
# Poissons Ratio (z) = 0.17379 0.36051
#
# Static dielectric constant tensor:
#      x y z
#    x 1.662840 0.000000 0.000000 
#    y 0.000000 1.677650 0.000000 
#    z 0.000000 0.000000 1.651860 
# 
# From -- ./inp_files/42502.got.cif
#   From: 2010.05.17/outbox.cif.g08.bks.cpg/sg71_22_cif.got.tgz:42502.got - 2010.06.03 16:22:01.
