data_PCOD9518915
_publ_section_title
;
Structure prediction by ZEFSAII (Michael W. Deem and Ramdas Pophale) SiO2 
 PCOD9518915
Probable space group: I M M M
;
_chemical_formula_sum "Si O2"
_cell_formula_units_Z 128
_cell_length_a 25.197140
_cell_length_b 13.668763
_cell_length_c 24.049142
_cell_angle_alpha 90.000000
_cell_angle_beta 90.000000
_cell_angle_gamma 90.000000
_cell_volume 8282.854818
_symmetry_space_group_name_H-M "I M M M"
_symmetry_group_IT_number 71
_symmetry_cell_setting 'orthorhombic'
loop_
_space_group_symop_operation_xyz
x,y,z
-x,-y,z
x,-y,-z
-x,y,-z
-x,-y,-z
x,y,-z
-x,y,z
x,-y,z
1/2+x,1/2+y,1/2+z
1/2-x,1/2-y,1/2+z
1/2+x,1/2-y,1/2-z
1/2-x,1/2+y,1/2-z
1/2-x,1/2-y,1/2-z
1/2+x,1/2+y,1/2-z
1/2-x,1/2+y,1/2+z
1/2+x,1/2-y,1/2+z
loop_
_atom_site_type_symbol
_atom_site_label
_atom_site_fract_x
_atom_site_fract_y
_atom_site_fract_z
Si Si1 0.164765 0.614395 0.436766
Si Si2 0.783479 0.889791 0.106183
Si Si3 0.358382 0.885967 0.279489
Si Si4 0.241566 0.716147 0.812856
Si Si5 0.062082 0.234251 0.831672
Si Si6 0.400570 0.386342 0.563434
Si Si7 0.357483 0.242552 0.166584
Si Si8 0.437003 0.613268 0.778923
O O1 0.152081 0.642101 0.500000
O O2 0.151053 0.500000 0.428667
O O3 0.228620 0.621075 0.427445
O O4 0.138260 0.681206 0.389911
O O5 0.783125 0.806486 0.152791
O O6 0.836616 0.881423 0.070177
O O7 0.782959 0.000000 0.130655
O O8 0.301491 0.869222 0.309302
O O9 0.401628 0.826330 0.315302
O O10 0.355799 0.833650 0.218747
O O11 0.370305 0.000000 0.273881
O O12 0.250000 0.750000 0.750000
O O13 0.300872 0.701001 0.835419
O O14 0.075491 0.185216 0.890553
O O15 0.072929 0.153912 0.783360
O O16 0.000000 0.259599 0.829183
O O17 0.415392 0.362876 0.500000
O O18 0.415810 0.500000 0.574422
O O19 0.403790 0.318290 0.180019
O O20 0.500000 0.621495 0.789107
O O21 0.421650 0.500000 0.782778
#
# Coordination Sequence:
#
# PCOD9518915 Si02
#       8
#    16  16  16  16  16  16  16  16
#     4   9  16  27  46  72 102 133 160 189 229 277
#     4   9  16  28  45  67  98 129 159 191 230 285
#     4  10  19  32  48  68  96 126 158 199 242 283
#     4   9  17  28  42  69  99 125 153 185 238 285
#     4  10  20  34  49  68  94 126 164 203 243 284
#     4  10  19  30  48  73  98 125 158 197 243 292
#     4   9  18  30  48  75 100 124 156 192 233 283
#     4   9  18  33  52  72  96 126 157 192 237 289
#
# _framework density 15.453607999999999
#
# number of rings (size 3 to 8) (size 9 to 14) (size 15 to 20)
#    0.000    2.625    1.250    1.125    0.000    6.250 
#    0.000    0.625    0.000    2.250    0.000    2.625 
#    0.000    0.000    0.000    0.000    0.000    0.000 
#
# Total GULP energy -356510.232678 kJ/mol
# GULP energy per Si atom -5570.472386 kJ/mol
# Density = 1.541844 g / cm^3
# Si number density = 15.453608 Si / 1000 Ang^3
#
#
#
# Elastic Constant Matrix: (Units=GPa)
#
#
# Indices 1 2 3 4 5 6 
#
# 1 51.3567 46.5640 32.1067 0.0000 0.0000 0.0000
# 2 46.5640 100.5186 49.7101 0.0000 0.0000 0.0000
# 3 32.1067 49.7101 94.8946 0.0000 0.0000 0.0000
# 4 0.0000 0.0000 0.0000 22.7521 0.0000 0.0000
# 5 0.0000 0.0000 0.0000 0.0000 12.5882 0.0000
# 6 0.0000 0.0000 0.0000 0.0000 0.0000 19.9416
#
#
#
# Elastic Compliance Matrix: (Units=1/GPa)
#
#
# Indices 1 2 3 4 5 6 
#
# 1 0.034948 -0.013957 -0.004513 0.000000 0.000000 0.000000
# 2 -0.013957 0.019001 -0.005231 0.000000 0.000000 0.000000
# 3 -0.004513 -0.005231 0.014805 0.000000 0.000000 0.000000
# 4 0.000000 0.000000 0.000000 0.043952 0.000000 0.000000
# 5 0.000000 0.000000 0.000000 0.000000 0.079439 0.000000
# 6 0.000000 0.000000 0.000000 0.000000 0.000000 0.050146
#
#
# Mechanical properties :
#
#
# Convention : Reuss Voigt Hill
#
# Bulk Modulus (GPa) = 46.83568 55.94794 51.39181
# Shear Modulus (GPa) = 16.84571 18.94899 17.89735
#
# Velocity S-wave (km/s) = 3.30522 3.50549 3.40683
# Velocity P-wave (km/s) = 6.70366 7.25721 6.98592
#
# Compressibility (1/GPa) = 0.02135124
#
# Stress axis : x y z
#
# Youngs Moduli (GPa) = 28.61420 52.62871 67.54371
#
# Poissons Ratio (x) = 0.73456 0.30481
# Poissons Ratio (y) = 0.39938 0.35334
# Poissons Ratio (z) = 0.12913 0.27532
#
# Static dielectric constant tensor:
#      x y z
#    x 1.618030 0.000000 0.000000 
#    y 0.000000 1.492450 0.000000 
#    z 0.000000 0.000000 1.501730 
# 
# From -- ./inp_files/28037.got.cif
#   From: 2010.05.17/outbox.cif.g08.bks.cpg/sg71_15_cif.got.tgz:28037.got - 2010.06.03 16:22:01.
