data_PCOD9518913
_publ_section_title
;
Structure prediction by ZEFSAII (Michael W. Deem and Ramdas Pophale) SiO2 
 PCOD9518913
Probable space group: I M M M
;
_chemical_formula_sum "Si O2"
_cell_formula_units_Z 88
_cell_length_a 7.416108
_cell_length_b 28.449912
_cell_length_c 18.258887
_cell_angle_alpha 90.000000
_cell_angle_beta 90.000000
_cell_angle_gamma 90.000000
_cell_volume 3852.399112
_symmetry_space_group_name_H-M "I M M M"
_symmetry_group_IT_number 71
_symmetry_cell_setting 'orthorhombic'
loop_
_space_group_symop_operation_xyz
x,y,z
-x,-y,z
x,-y,-z
-x,y,-z
-x,-y,-z
x,y,-z
-x,y,z
x,-y,z
1/2+x,1/2+y,1/2+z
1/2-x,1/2-y,1/2+z
1/2+x,1/2-y,1/2-z
1/2-x,1/2+y,1/2-z
1/2-x,1/2-y,1/2-z
1/2+x,1/2+y,1/2-z
1/2-x,1/2+y,1/2+z
1/2+x,1/2-y,1/2+z
loop_
_atom_site_type_symbol
_atom_site_label
_atom_site_fract_x
_atom_site_fract_y
_atom_site_fract_z
Si Si1 0.786291 0.450408 0.239295
Si Si2 0.279507 0.879758 0.140935
Si Si3 0.719523 0.944028 0.000000
Si Si4 0.716305 0.226652 0.170681
Si Si5 0.217311 0.917285 0.417999
Si Si6 0.206553 0.185781 0.586874
O O1 0.712357 0.500000 0.266872
O O2 0.718145 0.406764 0.285713
O O3 0.759321 0.447511 0.152505
O O4 0.000000 0.450734 0.251836
O O5 0.500000 0.878158 0.138241
O O6 0.226954 0.912513 0.071343
O O7 0.217501 0.825590 0.149943
O O8 0.500000 0.945682 0.000000
O O9 0.775865 0.000000 0.000000
O O10 0.500000 0.223116 0.162347
O O11 0.750000 0.250000 0.250000
O O12 0.789308 0.267093 0.117509
O O13 0.279300 0.931099 0.500000
O O14 0.288706 0.865131 0.398468
O O15 0.000000 0.914596 0.422853
O O16 0.198481 0.189032 0.500000
O O17 0.000000 0.183673 0.615405
#
# Coordination Sequence:
#
# PCOD9518913 Si02
#       6
#    16  16   8  16  16  16
#     4  10  20  33  48  68  98 131 161 198 247 297
#     4   9  18  30  47  73 102 132 168 208 251 301
#     4   9  16  28  48  74 105 137 171 217 268 307
#     4  10  19  30  48  73 100 128 160 199 240 289
#     4   9  18  33  51  71  95 125 163 203 242 288
#     4   8  15  28  47  69  93 121 152 188 231 277
#
# _framework density 22.842908000000001
#
# number of rings (size 3 to 8) (size 9 to 14) (size 15 to 20)
#    0.000    2.818    0.000    2.727    1.273    3.273 
#    0.000    1.818    0.000    1.636    0.000    1.909 
#    0.000    4.364    0.000    0.000    0.000    0.000 
#
# Total GULP energy -245199.265070 kJ/mol
# GULP energy per Si atom -5572.710570 kJ/mol
# Density = 2.279092 g / cm^3
# Si number density = 22.842908 Si / 1000 Ang^3
#
#
#
# Elastic Constant Matrix: (Units=GPa)
#
#
# Indices 1 2 3 4 5 6 
#
# 1 76.2693 1.0295 -7.9070 0.0000 0.0000 0.0000
# 2 1.0295 146.4135 70.9170 0.0000 -0.0002 0.0000
# 3 -7.9070 70.9170 86.8668 0.0000 0.0004 0.0000
# 4 0.0000 0.0000 0.0000 45.9725 0.0004 0.0000
# 5 0.0000 -0.0002 0.0004 0.0004 -853.9618 0.0001
# 6 0.0000 0.0000 0.0000 0.0000 0.0001 -7.7600
#
#
#
# Elastic Compliance Matrix: (Units=1/GPa)
#
#
# Indices 1 2 3 4 5 6 
#
# 1 0.013348 -0.001129 0.002136 0.000000 0.000000 0.000000
# 2 -0.001129 0.011393 -0.009404 0.000000 0.000000 0.000000
# 3 0.002136 -0.009404 0.019383 0.000000 0.000000 0.000000
# 4 0.000000 0.000000 0.000000 0.021752 0.000000 0.000000
# 5 0.000000 0.000000 0.000000 0.000000 -0.001171 0.000000
# 6 0.000000 0.000000 0.000000 0.000000 0.000000 -0.128866
#
#
# Mechanical properties :
#
#
# Convention : Reuss Voigt Hill
#
# Bulk Modulus (GPa) = 36.58644 48.62538 42.60591
# Shear Modulus (GPa) = -130.69082 -146.78252 -138.73667
#
# Velocity S-wave (km/s) = -7.57212 -8.02477 -7.80173
# Velocity P-wave (km/s) = 7.77162 8.03302 7.90340
#
# Compressibility (1/GPa) = 0.02733253
#
# Stress axis : x y z
#
# Youngs Moduli (GPa) = 74.91675 87.77623 51.59091
#
# Poissons Ratio (x) = 0.09907 -0.11022
# Poissons Ratio (y) = 0.08456 0.48514
# Poissons Ratio (z) = -0.16005 0.82541
#
# Static dielectric constant tensor:
#      x y z
#    x 1.920500 0.000000 0.000000 
#    y 0.000000 1.767140 0.000000 
#    z 0.000000 0.000000 1.871970 
# 
# From -- ./inp_files/32995.got.cif
#   From: 2010.05.17/outbox.cif.g08.bks.cpg/sg71_17_cif.got.tgz:32995.got - 2010.06.03 16:22:01.
