data_PCOD9518527
_publ_section_title
;
Structure prediction by ZEFSAII (Michael W. Deem and Ramdas Pophale) SiO2 
 PCOD9518527
Probable space group: I M M M
;
_chemical_formula_sum "Si O2"
_cell_formula_units_Z 90
_cell_length_a 23.242200
_cell_length_b 25.697392
_cell_length_c 7.336639
_cell_angle_alpha 90.000000
_cell_angle_beta 90.000000
_cell_angle_gamma 90.000000
_cell_volume 4381.909801
_symmetry_space_group_name_H-M "I M M M"
_symmetry_group_IT_number 71
_symmetry_cell_setting 'orthorhombic'
loop_
_space_group_symop_operation_xyz
x,y,z
-x,-y,z
x,-y,-z
-x,y,-z
-x,-y,-z
x,y,-z
-x,y,z
x,-y,z
1/2+x,1/2+y,1/2+z
1/2-x,1/2-y,1/2+z
1/2+x,1/2-y,1/2-z
1/2-x,1/2+y,1/2-z
1/2-x,1/2-y,1/2-z
1/2+x,1/2+y,1/2-z
1/2-x,1/2+y,1/2+z
1/2+x,1/2-y,1/2+z
loop_
_atom_site_type_symbol
_atom_site_label
_atom_site_fract_x
_atom_site_fract_y
_atom_site_fract_z
Si Si1 0.000000 0.792087 0.721782
Si Si2 0.000000 0.912551 0.278100
Si Si3 0.500000 0.000000 0.000000
Si Si4 0.877767 0.746623 0.720949
Si Si5 0.126054 0.056526 0.277898
Si Si6 0.828923 0.365201 0.791705
Si Si7 0.880054 0.557612 0.500000
Si Si8 0.300940 0.656521 0.222014
O O1 0.000000 0.852254 0.776674
O O2 0.941126 0.764816 0.779267
O O3 0.000000 0.792064 0.500000
O O4 0.059710 0.937909 0.220282
O O5 0.000000 0.914326 0.500000
O O6 0.448070 0.044655 0.000000
O O7 0.877054 0.745844 0.500000
O O8 0.862687 0.689211 0.785154
O O9 0.831137 0.789887 0.780625
O O10 0.126543 0.057697 0.500000
O O11 0.161723 0.106759 0.219177
O O12 0.148901 0.000000 0.221912
O O13 0.860028 0.408492 0.671671
O O14 0.764778 0.351667 0.722018
O O15 0.824101 0.383261 0.000000
O O16 0.852077 0.500000 0.500000
O O17 0.301493 0.657672 0.000000
#
# Coordination Sequence:
#
# PCOD9518527 Si02
#       8
#     8   8   2  16  16  16   8  16
#     4   9  16  26  50  79 111 160 211 259 309 368
#     4   9  13  22  38  64 105 153 206 254 305 354
#     4   8  24  52  82  96 128 166 212 278 328 396
#     4  10  18  34  56  86 126 169 212 263 318 379
#     4   9  15  23  39  68 107 154 207 258 304 355
#     4  11  23  40  65  99 129 164 209 257 318 392
#     4  10  24  50  74  98 126 163 207 260 325 384
#     4   9  18  31  51  81 125 169 210 257 316 373
#
# _framework density 20.538990999999999
#
# number of rings (size 3 to 8) (size 9 to 14) (size 15 to 20)
#    0.267    2.133    2.667    0.800    0.000    2.844 
#    1.600    4.000    0.000    0.000    0.000    0.000 
#    0.000    0.000    0.000    4.889    0.000    7.644 
#
# Total GULP energy -251072.078589 kJ/mol
# GULP energy per Si atom -5579.379524 kJ/mol
# Density = 2.049224 g / cm^3
# Si number density = 20.538991 Si / 1000 Ang^3
#
#
#
# Elastic Constant Matrix: (Units=GPa)
#
#
# Indices 1 2 3 4 5 6 
#
# 1 126.2994 60.9947 24.5986 0.0000 0.0000 0.0000
# 2 60.9947 168.1888 25.7063 0.0000 0.0000 0.0000
# 3 24.5986 25.7063 93.8003 0.0000 0.0000 0.0000
# 4 0.0000 0.0000 0.0000 -17.9135 0.0000 0.0000
# 5 0.0000 0.0000 0.0000 0.0000 -4.0428 0.0000
# 6 0.0000 0.0000 0.0000 0.0000 0.0000 10.8204
#
#
#
# Elastic Compliance Matrix: (Units=1/GPa)
#
#
# Indices 1 2 3 4 5 6 
#
# 1 0.009844 -0.003314 -0.001673 0.000000 0.000000 0.000000
# 2 -0.003314 0.007321 -0.001137 0.000000 0.000000 0.000000
# 3 -0.001673 -0.001137 0.011411 0.000000 0.000000 0.000000
# 4 0.000000 0.000000 0.000000 -0.055824 0.000000 0.000000
# 5 0.000000 0.000000 0.000000 0.000000 -0.247355 0.000000
# 6 0.000000 0.000000 0.000000 0.000000 0.000000 0.092418
#
#
# Mechanical properties :
#
#
# Convention : Reuss Voigt Hill
#
# Bulk Modulus (GPa) = 61.24718 67.87644 64.56181
# Shear Modulus (GPa) = -30.39668 16.23875 -7.07896
#
# Velocity S-wave (km/s) = -3.85119 2.81487 -1.85852
# Velocity P-wave (km/s) = 3.17949 6.60939 5.18619
#
# Compressibility (1/GPa) = 0.01632728
#
# Stress axis : x y z
#
# Youngs Moduli (GPa) = 101.58274 136.58432 87.63134
#
# Poissons Ratio (x) = 0.45268 0.14663
# Poissons Ratio (y) = 0.33668 0.09966
# Poissons Ratio (z) = 0.16998 0.15534
#
# Static dielectric constant tensor:
#      x y z
#    x 1.702680 0.000000 0.000000 
#    y 0.000000 1.690970 0.000000 
#    z 0.000000 0.000000 1.853150 
# 
# From -- ./inp_files/10590.got.cif
#   From: 2010.05.17/outbox.cif.g08.bks.cpg/sg71_6_cif.got.tgz:10590.got - 2010.06.03 16:22:01.
