data_PCOD9518758
_publ_section_title
;
Structure prediction by ZEFSAII (Michael W. Deem and Ramdas Pophale) SiO2 
 PCOD9518758
Probable space group: I M M M
;
_chemical_formula_sum "Si O2"
_cell_formula_units_Z 88
_cell_length_a 31.330080
_cell_length_b 8.661681
_cell_length_c 24.555266
_cell_angle_alpha 90.000000
_cell_angle_beta 90.000000
_cell_angle_gamma 90.000000
_cell_volume 6663.590986
_symmetry_space_group_name_H-M "I M M M"
_symmetry_group_IT_number 71
_symmetry_cell_setting 'orthorhombic'
loop_
_space_group_symop_operation_xyz
x,y,z
-x,-y,z
x,-y,-z
-x,y,-z
-x,-y,-z
x,y,-z
-x,y,z
x,-y,z
1/2+x,1/2+y,1/2+z
1/2-x,1/2-y,1/2+z
1/2+x,1/2-y,1/2-z
1/2-x,1/2+y,1/2-z
1/2-x,1/2-y,1/2-z
1/2+x,1/2+y,1/2-z
1/2-x,1/2+y,1/2+z
1/2+x,1/2-y,1/2+z
loop_
_atom_site_type_symbol
_atom_site_label
_atom_site_fract_x
_atom_site_fract_y
_atom_site_fract_z
Si Si1 0.407129 0.315000 0.899306
Si Si2 0.644694 0.818155 0.000000
Si Si3 0.500000 0.687123 0.063388
Si Si4 0.738292 0.681999 0.000000
Si Si5 0.209069 0.684692 0.781948
Si Si6 0.839616 0.314108 0.322254
Si Si7 0.250555 0.184544 0.882955
O O1 0.404204 0.500000 0.906917
O O2 0.382295 0.229013 0.947597
O O3 0.456629 0.268833 0.905678
O O4 0.381547 0.266364 0.845547
O O5 0.688193 0.723174 0.000000
O O6 0.654651 0.000000 0.000000
O O7 0.500000 0.500000 0.060758
O O8 0.500000 0.741061 0.000000
O O9 0.755162 0.753154 0.943678
O O10 0.744837 0.500000 0.000000
O O11 0.211831 0.500000 0.785015
O O12 0.250000 0.750000 0.750000
O O13 0.170547 0.723320 0.740827
O O14 0.214381 0.754327 0.841753
O O15 0.843464 0.500000 0.327316
O O16 0.797440 0.268620 0.358233
O O17 0.250358 0.000000 0.882962
#
# Coordination Sequence:
#
# PCOD9518758 Si02
#       7
#    16   8   8   8  16  16  16
#     4  11  20  31  47  60  74 102 138 171 210 256
#     4  12  22  31  41  56  81 102 130 172 213 249
#     4   9  18  32  44  58  80 102 132 175 214 249
#     4  12  22  30  43  61  80 108 141 165 201 250
#     4   9  17  29  43  58  79 104 131 163 202 242
#     4   9  18  30  43  59  81 102 127 169 209 240
#     4  10  19  30  43  60  84 105 128 167 206 238
#
# _framework density 13.206092999999999
#
# number of rings (size 3 to 8) (size 9 to 14) (size 15 to 20)
#    0.000    1.909    2.727    4.364    0.000    3.636 
#    0.000    2.273    0.000    0.000    0.000    0.000 
#    0.000    0.000    0.000    0.000    0.000    0.909 
#
# Total GULP energy -245247.103455 kJ/mol
# GULP energy per Si atom -5573.797806 kJ/mol
# Density = 1.317604 g / cm^3
# Si number density = 13.206093 Si / 1000 Ang^3
#
#
#
# Elastic Constant Matrix: (Units=GPa)
#
#
# Indices 1 2 3 4 5 6 
#
# 1 57.2520 15.8479 45.5410 0.0000 0.0000 0.0000
# 2 15.8479 37.5930 29.0522 0.0000 0.0000 0.0000
# 3 45.5410 29.0522 108.7345 0.0000 0.0000 0.0000
# 4 0.0000 0.0000 0.0000 24.2262 0.0000 0.0000
# 5 0.0000 0.0000 0.0000 0.0000 11.7016 0.0000
# 6 0.0000 0.0000 0.0000 0.0000 0.0000 12.8544
#
#
#
# Elastic Compliance Matrix: (Units=1/GPa)
#
#
# Indices 1 2 3 4 5 6 
#
# 1 0.026508 -0.003270 -0.010229 0.000000 0.000000 0.000000
# 2 -0.003270 0.033926 -0.007695 0.000000 0.000000 0.000000
# 3 -0.010229 -0.007695 0.015537 0.000000 0.000000 0.000000
# 4 0.000000 0.000000 0.000000 0.041278 0.000000 0.000000
# 5 0.000000 0.000000 0.000000 0.000000 0.085459 0.000000
# 6 0.000000 0.000000 0.000000 0.000000 0.000000 0.077794
#
#
# Mechanical properties :
#
#
# Convention : Reuss Voigt Hill
#
# Bulk Modulus (GPa) = 29.77652 42.71796 36.24724
# Shear Modulus (GPa) = 14.96632 17.29898 16.13265
#
# Velocity S-wave (km/s) = 3.37009 3.62321 3.49894
# Velocity P-wave (km/s) = 6.14328 7.06548 6.62045
#
# Compressibility (1/GPa) = 0.03358351
#
# Stress axis : x y z
#
# Youngs Moduli (GPa) = 37.72415 29.47600 64.36378
#
# Poissons Ratio (x) = 0.09639 0.65835
# Poissons Ratio (y) = 0.12337 0.49527
# Poissons Ratio (z) = 0.38587 0.22681
#
# Static dielectric constant tensor:
#      x y z
#    x 1.421280 0.000000 0.000000 
#    y 0.000000 1.444070 0.000000 
#    z 0.000000 0.000000 1.460900 
# 
# From -- ./inp_files/58169.got.cif
#   From: 2010.05.17/outbox.cif.g08.bks.cpg/sg71_30_cif.got.tgz:58169.got - 2010.06.03 16:22:01.
