data_PCOD9518184
_publ_section_title
;
Structure prediction by ZEFSAII (Michael W. Deem and Ramdas Pophale) SiO2 
 PCOD9518184
Probable space group: I M M M
;
_chemical_formula_sum "Si O2"
_cell_formula_units_Z 92
_cell_length_a 24.673201
_cell_length_b 30.007529
_cell_length_c 7.479133
_cell_angle_alpha 90.000000
_cell_angle_beta 90.000000
_cell_angle_gamma 90.000000
_cell_volume 5537.413912
_symmetry_space_group_name_H-M "I M M M"
_symmetry_group_IT_number 71
_symmetry_cell_setting 'orthorhombic'
loop_
_space_group_symop_operation_xyz
x,y,z
-x,-y,z
x,-y,-z
-x,y,-z
-x,-y,-z
x,y,-z
-x,y,z
x,-y,z
1/2+x,1/2+y,1/2+z
1/2-x,1/2-y,1/2+z
1/2+x,1/2-y,1/2-z
1/2-x,1/2+y,1/2-z
1/2-x,1/2-y,1/2-z
1/2+x,1/2+y,1/2-z
1/2-x,1/2+y,1/2+z
1/2+x,1/2-y,1/2+z
loop_
_atom_site_type_symbol
_atom_site_label
_atom_site_fract_x
_atom_site_fract_y
_atom_site_fract_z
Si Si1 0.723857 0.420744 0.707832
Si Si2 0.000000 0.050636 0.717918
Si Si3 0.602949 0.391258 0.782425
Si Si4 0.668444 0.751302 0.711331
Si Si5 0.250977 0.324170 0.292972
Si Si6 0.938484 0.205302 0.714398
Si Si7 0.736827 0.500000 0.000000
O O1 0.739248 0.430033 0.500000
O O2 0.659795 0.408916 0.712825
O O3 0.750883 0.374315 0.776160
O O4 0.734832 0.460882 0.842370
O O5 0.946229 0.076744 0.771613
O O6 0.000000 0.050422 0.500000
O O7 0.000000 0.000000 0.779276
O O8 0.587084 0.341522 0.722303
O O9 0.606119 0.391213 0.000000
O O10 0.677889 0.752479 0.500000
O O11 0.703018 0.708972 0.785763
O O12 0.695711 0.796143 0.782976
O O13 0.605356 0.743109 0.743736
O O14 0.266020 0.330266 0.500000
O O15 0.941770 0.201987 0.500000
O O16 0.000000 0.211410 0.780654
#
# Coordination Sequence:
#
# PCOD9518184 Si02
#       7
#    16   8  16  16  16  16   4
#     4  11  23  38  56  77 102 133 178 222 270 325
#     4   9  18  28  45  65  87 121 172 224 274 320
#     4  10  18  31  49  69  95 131 172 222 277 318
#     4  10  19  30  50  76 101 132 171 214 266 322
#     4   9  19  34  51  75 103 130 166 219 266 318
#     4  10  19  31  47  70 103 142 178 213 266 326
#     4  12  26  40  56  75 102 144 173 226 280 316
#
# _framework density 16.614253999999999
#
# number of rings (size 3 to 8) (size 9 to 14) (size 15 to 20)
#    0.000    2.000    3.478    0.783    2.435    1.043 
#    0.000    0.435    0.000    0.522    0.000    0.000 
#    0.000    0.000    0.000    1.565    0.000   13.130 
#
# Total GULP energy -256116.238848 kJ/mol
# GULP energy per Si atom -5567.744323 kJ/mol
# Density = 1.657644 g / cm^3
# Si number density = 16.614254 Si / 1000 Ang^3
#
#
#
# Elastic Constant Matrix: (Units=GPa)
#
#
# Indices 1 2 3 4 5 6 
#
# 1 44.9179 50.0661 2.3469 0.0000 0.0000 0.0000
# 2 50.0661 147.1345 30.5912 0.0000 0.0000 0.0000
# 3 2.3469 30.5912 80.0958 0.0000 0.0000 0.0000
# 4 0.0000 0.0000 0.0000 16.4248 0.0000 0.0000
# 5 0.0000 0.0000 0.0000 0.0000 24.6060 0.0000
# 6 0.0000 0.0000 0.0000 0.0000 0.0000 -3.1755
#
#
#
# Elastic Compliance Matrix: (Units=1/GPa)
#
#
# Indices 1 2 3 4 5 6 
#
# 1 0.037037 -0.013445 0.004050 0.000000 0.000000 0.000000
# 2 -0.013445 0.012263 -0.004290 0.000000 0.000000 0.000000
# 3 0.004050 -0.004290 0.014005 0.000000 0.000000 0.000000
# 4 0.000000 0.000000 0.000000 0.060884 0.000000 0.000000
# 5 0.000000 0.000000 0.000000 0.000000 0.040640 0.000000
# 6 0.000000 0.000000 0.000000 0.000000 0.000000 -0.314907
#
#
# Mechanical properties :
#
#
# Convention : Reuss Voigt Hill
#
# Bulk Modulus (GPa) = 27.82764 48.68405 38.25584
# Shear Modulus (GPa) = -45.15491 20.18066 -12.48712
#
# Velocity S-wave (km/s) = -5.21895 3.48898 -2.74449
# Velocity P-wave (km/s) = 4.41938 6.75254 3.61012
#
# Compressibility (1/GPa) = 0.03593550
#
# Stress axis : x y z
#
# Youngs Moduli (GPa) = 27.00010 81.54418 71.40406
#
# Poissons Ratio (x) = 1.09634 -0.28917
# Poissons Ratio (y) = 0.36301 0.30631
# Poissons Ratio (z) = -0.10934 0.34981
#
# Static dielectric constant tensor:
#      x y z
#    x 1.554790 0.000000 0.000000 
#    y 0.000000 1.572650 0.000000 
#    z 0.000000 0.000000 1.632080 
# 
# From -- ./inp_files/13200.got.cif
#   From: 2010.05.17/outbox.cif.g08.bks.cpg/sg71_7_cif.got.tgz:13200.got - 2010.06.03 16:22:01.
