data_PCOD9518166
_publ_section_title
;
Structure prediction by ZEFSAII (Michael W. Deem and Ramdas Pophale) SiO2 
 PCOD9518166
Probable space group: I M M M
;
_chemical_formula_sum "Si O2"
_cell_formula_units_Z 72
_cell_length_a 8.613399
_cell_length_b 28.889368
_cell_length_c 19.699436
_cell_angle_alpha 90.000000
_cell_angle_beta 90.000000
_cell_angle_gamma 90.000000
_cell_volume 4901.922029
_symmetry_space_group_name_H-M "I M M M"
_symmetry_group_IT_number 71
_symmetry_cell_setting 'orthorhombic'
loop_
_space_group_symop_operation_xyz
x,y,z
-x,-y,z
x,-y,-z
-x,y,-z
-x,-y,-z
x,y,-z
-x,y,z
x,-y,z
1/2+x,1/2+y,1/2+z
1/2-x,1/2-y,1/2+z
1/2+x,1/2-y,1/2-z
1/2-x,1/2+y,1/2-z
1/2-x,1/2-y,1/2-z
1/2+x,1/2+y,1/2-z
1/2-x,1/2+y,1/2+z
1/2+x,1/2-y,1/2+z
loop_
_atom_site_type_symbol
_atom_site_label
_atom_site_fract_x
_atom_site_fract_y
_atom_site_fract_z
Si Si1 0.810925 0.000000 0.079551
Si Si2 0.812839 0.819298 0.780412
Si Si3 0.814202 0.229850 0.643934
Si Si4 0.815872 0.260663 0.000000
Si Si5 0.684970 0.156845 0.000000
Si Si6 0.187866 0.900082 0.127231
O O1 0.761461 0.046885 0.117553
O O2 0.000000 0.000000 0.078316
O O3 0.761575 0.000000 0.000000
O O4 0.766556 0.805274 0.704156
O O5 0.743487 0.780230 0.830357
O O6 0.769564 0.870421 0.806143
O O7 0.000000 0.815235 0.784386
O O8 0.747006 0.218530 0.570301
O O9 0.000000 0.230962 0.639749
O O10 0.758586 0.207551 0.000000
O O11 0.000000 0.261919 0.000000
O O12 0.743106 0.128680 0.935054
O O13 0.500000 0.161128 0.000000
O O14 0.000000 0.899526 0.122020
#
# Coordination Sequence:
#
# PCOD9518166 Si02
#       6
#     8  16  16   8   8  16
#     4   9  16  26  44  68  88 115 154 187 211 246
#     4   9  18  30  45  63  87 119 149 179 217 261
#     4  10  19  30  44  65  88 112 147 185 219 257
#     4  12  22  32  45  63  86 117 150 182 225 271
#     4  12  22  29  41  64  87 116 151 189 224 257
#     4  10  18  31  47  62  86 120 154 185 216 256
#
# _framework density 14.688116000000001
#
# number of rings (size 3 to 8) (size 9 to 14) (size 15 to 20)
#    0.000    1.889    3.333    2.667    0.000    0.889 
#    0.000    1.111    0.000    0.000    0.000    0.000 
#    0.000    0.889    0.000   11.333    0.000    1.111 
#
# Total GULP energy -200734.598311 kJ/mol
# GULP energy per Si atom -5575.961064 kJ/mol
# Density = 1.465469 g / cm^3
# Si number density = 14.688116 Si / 1000 Ang^3
#
#
#
# Elastic Constant Matrix: (Units=GPa)
#
#
# Indices 1 2 3 4 5 6 
#
# 1 17.7898 22.1433 26.1050 0.0000 0.0000 0.0000
# 2 22.1433 92.2782 61.6602 0.0000 0.0000 0.0000
# 3 26.1050 61.6602 123.4340 0.0000 0.0000 0.0000
# 4 0.0000 0.0000 0.0000 21.6427 0.0000 0.0000
# 5 0.0000 0.0000 0.0000 0.0000 20.0197 0.0000
# 6 0.0000 0.0000 0.0000 0.0000 0.0000 10.1189
#
#
#
# Elastic Compliance Matrix: (Units=1/GPa)
#
#
# Indices 1 2 3 4 5 6 
#
# 1 0.091567 -0.013558 -0.012593 0.000000 0.000000 0.000000
# 2 -0.013558 0.018274 -0.006261 0.000000 0.000000 0.000000
# 3 -0.012593 -0.006261 0.013892 0.000000 0.000000 0.000000
# 4 0.000000 0.000000 0.000000 0.046205 0.000000 0.000000
# 5 0.000000 0.000000 0.000000 0.000000 0.049951 0.000000
# 6 0.000000 0.000000 0.000000 0.000000 0.000000 0.098825
#
#
# Mechanical properties :
#
#
# Convention : Reuss Voigt Hill
#
# Bulk Modulus (GPa) = 16.97525 50.36878 33.67202
# Shear Modulus (GPa) = 12.40158 18.59583 15.49870
#
# Velocity S-wave (km/s) = 2.90888 3.56201 3.25189
# Velocity P-wave (km/s) = 4.78167 7.16128 6.08885
#
# Compressibility (1/GPa) = 0.05890931
#
# Stress axis : x y z
#
# Youngs Moduli (GPa) = 10.92098 54.72266 71.98199
#
# Poissons Ratio (x) = 0.74195 0.90643
# Poissons Ratio (y) = 0.14807 0.45069
# Poissons Ratio (z) = 0.13752 0.34263
#
# Static dielectric constant tensor:
#      x y z
#    x 1.494310 0.000000 0.000000 
#    y 0.000000 1.484780 0.000000 
#    z 0.000000 0.000000 1.504540 
# 
# From -- ./inp_files/31711.got.cif
#   From: 2010.05.17/outbox.cif.g08.bks.cpg/sg71_16_cif.got.tgz:31711.got - 2010.06.03 16:22:01.
