data_PCOD9518312
_publ_section_title
;
Structure prediction by ZEFSAII (Michael W. Deem and Ramdas Pophale) SiO2 
 PCOD9518312
Probable space group: I M M M
;
_chemical_formula_sum "Si O2"
_cell_formula_units_Z 72
_cell_length_a 11.900015
_cell_length_b 13.723691
_cell_length_c 23.664577
_cell_angle_alpha 90.000000
_cell_angle_beta 90.000000
_cell_angle_gamma 90.000000
_cell_volume 3864.712446
_symmetry_space_group_name_H-M "I M M M"
_symmetry_group_IT_number 71
_symmetry_cell_setting 'orthorhombic'
loop_
_space_group_symop_operation_xyz
x,y,z
-x,-y,z
x,-y,-z
-x,y,-z
-x,-y,-z
x,y,-z
-x,y,z
x,-y,z
1/2+x,1/2+y,1/2+z
1/2-x,1/2-y,1/2+z
1/2+x,1/2-y,1/2-z
1/2-x,1/2+y,1/2-z
1/2-x,1/2-y,1/2-z
1/2+x,1/2+y,1/2-z
1/2-x,1/2+y,1/2+z
1/2+x,1/2-y,1/2+z
loop_
_atom_site_type_symbol
_atom_site_label
_atom_site_fract_x
_atom_site_fract_y
_atom_site_fract_z
Si Si1 0.266146 0.721839 0.098894
Si Si2 0.000000 0.308070 0.437623
Si Si3 0.249303 0.882806 0.182463
Si Si4 0.372571 0.382951 0.202432
Si Si5 0.500000 0.110811 0.816591
Si Si6 0.134551 0.615190 0.000000
O O1 0.386749 0.745141 0.070214
O O2 0.221484 0.823092 0.125889
O O3 0.292031 0.656539 0.153780
O O4 0.186660 0.668519 0.054689
O O5 0.000000 0.381772 0.384933
O O6 0.000000 0.352395 0.500000
O O7 0.169220 0.859067 0.234680
O O8 0.377023 0.850728 0.199552
O O9 0.249692 0.000000 0.173431
O O10 0.500000 0.347782 0.192484
O O11 0.373167 0.500000 0.199070
O O12 0.500000 0.000000 0.796569
O O13 0.164350 0.500000 0.000000
O O14 0.000000 0.622932 0.000000
#
# Coordination Sequence:
#
# PCOD9518312 Si02
#       6
#    16   8  16  16   8   8
#     4  11  20  38  59  81 112 148 188 228 280 329
#     4  10  18  31  54  82 106 138 187 228 267 321
#     4   9  19  35  56  84 116 148 183 228 279 334
#     4  10  20  34  54  82 112 143 186 238 285 329
#     4   8  16  31  50  76 114 147 178 221 270 328
#     4  11  26  45  60  80 111 147 187 227 273 334
#
# _framework density 18.630106000000001
#
# number of rings (size 3 to 8) (size 9 to 14) (size 15 to 20)
#    0.000    2.111    2.222    1.333    0.000    1.111 
#    2.000    1.111    0.000    0.667    0.000    0.000 
#    0.000    0.000    0.000    0.000    0.000    0.000 
#
# Total GULP energy -200742.709401 kJ/mol
# GULP energy per Si atom -5576.186372 kJ/mol
# Density = 1.858770 g / cm^3
# Si number density = 18.630106 Si / 1000 Ang^3
#
#
#
# Elastic Constant Matrix: (Units=GPa)
#
#
# Indices 1 2 3 4 5 6 
#
# 1 63.7523 40.2743 46.1623 0.0000 0.0000 0.0000
# 2 40.2743 92.0896 50.5101 0.0000 0.0000 0.0000
# 3 46.1623 50.5101 115.3096 0.0000 0.0000 0.0000
# 4 0.0000 0.0000 0.0000 31.5447 0.0000 0.0000
# 5 0.0000 0.0000 0.0000 0.0000 34.6000 0.0000
# 6 0.0000 0.0000 0.0000 0.0000 0.0000 26.2545
#
#
#
# Elastic Compliance Matrix: (Units=1/GPa)
#
#
# Indices 1 2 3 4 5 6 
#
# 1 0.025301 -0.007252 -0.006952 0.000000 0.000000 0.000000
# 2 -0.007252 0.016372 -0.004268 0.000000 0.000000 0.000000
# 3 -0.006952 -0.004268 0.013325 0.000000 0.000000 0.000000
# 4 0.000000 0.000000 0.000000 0.031701 0.000000 0.000000
# 5 0.000000 0.000000 0.000000 0.000000 0.028902 0.000000
# 6 0.000000 0.000000 0.000000 0.000000 0.000000 0.038089
#
#
# Mechanical properties :
#
#
# Convention : Reuss Voigt Hill
#
# Bulk Modulus (GPa) = 55.39221 60.56054 57.97638
# Shear Modulus (GPa) = 25.42567 27.42682 26.42625
#
# Velocity S-wave (km/s) = 3.69828 3.84106 3.77034
# Velocity P-wave (km/s) = 6.93062 7.22835 7.08105
#
# Compressibility (1/GPa) = 0.01805308
#
# Stress axis : x y z
#
# Youngs Moduli (GPa) = 39.52414 61.08142 75.04596
#
# Poissons Ratio (x) = 0.44296 0.52174
# Poissons Ratio (y) = 0.28662 0.32031
# Poissons Ratio (z) = 0.27478 0.26071
#
# Static dielectric constant tensor:
#      x y z
#    x 1.648390 0.000000 0.000000 
#    y 0.000000 1.689730 0.000000 
#    z 0.000000 0.000000 1.607970 
# 
# From -- ./inp_files/32621.got.cif
#   From: 2010.05.17/outbox.cif.g08.bks.cpg/sg71_17_cif.got.tgz:32621.got - 2010.06.03 16:22:01.
