data_PCOD9518276
_publ_section_title
;
Structure prediction by ZEFSAII (Michael W. Deem and Ramdas Pophale) SiO2 
 PCOD9518276
Probable space group: I M M M
;
_chemical_formula_sum "Si O2"
_cell_formula_units_Z 88
_cell_length_a 8.677083
_cell_length_b 19.626175
_cell_length_c 28.358355
_cell_angle_alpha 90.000000
_cell_angle_beta 90.000000
_cell_angle_gamma 90.000000
_cell_volume 4829.369706
_symmetry_space_group_name_H-M "I M M M"
_symmetry_group_IT_number 71
_symmetry_cell_setting 'orthorhombic'
loop_
_space_group_symop_operation_xyz
x,y,z
-x,-y,z
x,-y,-z
-x,y,-z
-x,-y,-z
x,y,-z
-x,y,z
x,-y,z
1/2+x,1/2+y,1/2+z
1/2-x,1/2-y,1/2+z
1/2+x,1/2-y,1/2-z
1/2-x,1/2+y,1/2-z
1/2-x,1/2-y,1/2-z
1/2+x,1/2+y,1/2-z
1/2-x,1/2+y,1/2+z
1/2+x,1/2-y,1/2+z
loop_
_atom_site_type_symbol
_atom_site_label
_atom_site_fract_x
_atom_site_fract_y
_atom_site_fract_z
Si Si1 0.313582 0.837208 0.407788
Si Si2 0.822493 0.417307 0.287176
Si Si3 0.183061 0.920858 0.113559
Si Si4 0.687822 0.078200 0.500000
Si Si5 0.184044 0.300467 0.445713
Si Si6 0.688253 0.921068 0.316578
O O1 0.500000 0.835694 0.407563
O O2 0.263906 0.882085 0.452972
O O3 0.252479 0.761549 0.415611
O O4 0.262550 0.873661 0.359627
O O5 0.823820 0.500000 0.285014
O O6 0.727326 0.398449 0.333303
O O7 0.763144 0.396336 0.235508
O O8 0.000000 0.394967 0.293151
O O9 0.263145 0.871470 0.076582
O O10 0.000000 0.917426 0.107734
O O11 0.231570 0.000000 0.108192
O O12 0.500000 0.077430 0.500000
O O13 0.739613 0.000000 0.500000
O O14 0.237561 0.293951 0.500000
O O15 0.000000 0.296345 0.445138
O O16 0.500000 0.921643 0.315616
O O17 0.735759 0.000000 0.323864
#
# Coordination Sequence:
#
# PCOD9518276 Si02
#       6
#    16  16  16   8  16  16
#     4  10  18  31  52  78 108 142 181 223 264 305
#     4   8  14  28  51  78 109 142 172 207 257 313
#     4  10  21  37  59  85 107 128 164 216 267 318
#     4   9  16  26  47  79 108 137 178 225 265 302
#     4  11  24  40  56  74 103 142 178 214 262 321
#     4   8  14  26  49  81 112 142 179 221 260 303
#
# _framework density 18.221841000000001
#
# number of rings (size 3 to 8) (size 9 to 14) (size 15 to 20)
#    0.000    2.636    0.909    2.727    0.000    4.727 
#    0.000    3.636    0.000    3.818    0.000    0.000 
#    0.000    0.000    0.000    0.000    0.000    0.000 
#
# Total GULP energy -245343.435740 kJ/mol
# GULP energy per Si atom -5575.987176 kJ/mol
# Density = 1.818037 g / cm^3
# Si number density = 18.221841 Si / 1000 Ang^3
#
#
#
# Elastic Constant Matrix: (Units=GPa)
#
#
# Indices 1 2 3 4 5 6 
#
# 1 11.0149 12.8779 9.3254 0.0000 0.0000 0.0000
# 2 12.8779 77.4931 33.1955 0.0000 0.0000 0.0000
# 3 9.3254 33.1955 71.2698 0.0000 0.0000 0.0000
# 4 0.0000 0.0000 0.0000 -2.3730 0.0000 0.0000
# 5 0.0000 0.0000 0.0000 0.0000 15.4256 0.0000
# 6 0.0000 0.0000 0.0000 0.0000 0.0000 8.7259
#
#
#
# Elastic Compliance Matrix: (Units=1/GPa)
#
#
# Indices 1 2 3 4 5 6 
#
# 1 0.116002 -0.015960 -0.007745 0.000000 0.000000 0.000000
# 2 -0.015960 0.018317 -0.006443 0.000000 0.000000 0.000000
# 3 -0.007745 -0.006443 0.018046 0.000000 0.000000 0.000000
# 4 0.000000 0.000000 0.000000 -0.421401 0.000000 0.000000
# 5 0.000000 0.000000 0.000000 0.000000 0.064827 0.000000
# 6 0.000000 0.000000 0.000000 0.000000 0.000000 0.114602
#
#
# Mechanical properties :
#
#
# Convention : Reuss Voigt Hill
#
# Bulk Modulus (GPa) = 10.86142 30.06394 20.46268
# Shear Modulus (GPa) = 3628.80422 11.31428 1820.05925
#
# Velocity S-wave (km/s) = 44.67418 2.49453 31.63862
# Velocity P-wave (km/s) = 51.64316 4.98313 36.68683
#
# Compressibility (1/GPa) = 0.09206902
#
# Stress axis : x y z
#
# Youngs Moduli (GPa) = 8.62052 54.59530 55.41520
#
# Poissons Ratio (x) = 0.87133 0.42918
# Poissons Ratio (y) = 0.13758 0.35704
# Poissons Ratio (z) = 0.06676 0.35176
#
# Static dielectric constant tensor:
#      x y z
#    x 1.617500 0.000000 0.000000 
#    y 0.000000 1.605440 0.000000 
#    z 0.000000 0.000000 1.640080 
# 
# From -- ./inp_files/67999.got.cif
#   From: 2010.05.17/outbox.cif.g08.bks.cpg/sg71_34_cif.got.tgz:67999.got - 2010.06.03 16:22:01.
