data_PCOD9518884
_publ_section_title
;
Structure prediction by ZEFSAII (Michael W. Deem and Ramdas Pophale) SiO2 
 PCOD9518884
Probable space group: I M M M
;
_chemical_formula_sum "Si O2"
_cell_formula_units_Z 80
_cell_length_a 8.946189
_cell_length_b 24.027140
_cell_length_c 24.583867
_cell_angle_alpha 90.000000
_cell_angle_beta 90.000000
_cell_angle_gamma 90.000000
_cell_volume 5284.335045
_symmetry_space_group_name_H-M "I M M M"
_symmetry_group_IT_number 71
_symmetry_cell_setting 'orthorhombic'
loop_
_space_group_symop_operation_xyz
x,y,z
-x,-y,z
x,-y,-z
-x,y,-z
-x,-y,-z
x,y,-z
-x,y,z
x,-y,z
1/2+x,1/2+y,1/2+z
1/2-x,1/2-y,1/2+z
1/2+x,1/2-y,1/2-z
1/2-x,1/2+y,1/2-z
1/2-x,1/2-y,1/2-z
1/2+x,1/2+y,1/2-z
1/2-x,1/2+y,1/2+z
1/2+x,1/2-y,1/2+z
loop_
_atom_site_type_symbol
_atom_site_label
_atom_site_fract_x
_atom_site_fract_y
_atom_site_fract_z
Si Si1 0.677689 0.724229 0.333025
Si Si2 0.821883 0.936355 0.332114
Si Si3 0.677889 0.837323 0.264955
Si Si4 0.178322 0.388340 0.062094
Si Si5 0.177528 0.234263 0.562116
O O1 0.500000 0.716827 0.336896
O O2 0.706082 0.784626 0.304974
O O3 0.748732 0.679433 0.292295
O O4 0.752885 0.726693 0.391937
O O5 0.748380 0.891684 0.291927
O O6 0.754869 0.925114 0.391915
O O7 0.000000 0.927805 0.333619
O O8 0.791413 0.000000 0.316019
O O9 0.500000 0.843209 0.259471
O O10 0.244267 0.326063 0.066978
O O11 0.000000 0.386403 0.070878
O O12 0.206078 0.407314 0.000000
O O13 0.201684 0.253564 0.500000
O O14 0.000000 0.227786 0.570757
#
# Coordination Sequence:
#
# PCOD9518884 Si02
#       5
#    16  16  16  16  16
#     4  10  19  31  50  73  97 125 156 196 240 289
#     4  11  23  36  50  68  93 125 162 205 247 287
#     4  10  20  33  50  71  94 124 159 198 242 288
#     4  10  20  33  48  66  90 123 164 206 245 284
#     4  10  19  30  47  71  99 129 159 195 238 284
#
# _framework density 15.139086000000001
#
# number of rings (size 3 to 8) (size 9 to 14) (size 15 to 20)
#    0.000    1.800    2.000    3.000    0.000    6.000 
#    0.000    2.000    0.000    0.000    0.000    0.000 
#    0.000    0.800    0.000    8.400    0.000    3.600 
#
# Total GULP energy -223314.427281 kJ/mol
# GULP energy per Si atom -5582.860682 kJ/mol
# Density = 1.510463 g / cm^3
# Si number density = 15.139086 Si / 1000 Ang^3
#
#
#
# Elastic Constant Matrix: (Units=GPa)
#
#
# Indices 1 2 3 4 5 6 
#
# 1 76.8601 52.3678 59.5573 0.0000 0.0000 0.0000
# 2 52.3678 78.4039 56.0026 0.0000 0.0000 0.0000
# 3 59.5573 56.0026 94.2281 0.0000 0.0000 0.0000
# 4 0.0000 0.0000 0.0000 20.1259 0.0000 0.0000
# 5 0.0000 0.0000 0.0000 0.0000 29.6926 0.0000
# 6 0.0000 0.0000 0.0000 0.0000 0.0000 21.1201
#
#
#
# Elastic Compliance Matrix: (Units=1/GPa)
#
#
# Indices 1 2 3 4 5 6 
#
# 1 0.030457 -0.011456 -0.012442 0.000000 0.000000 0.000000
# 2 -0.011456 0.026472 -0.008492 0.000000 0.000000 0.000000
# 3 -0.012442 -0.008492 0.023524 0.000000 0.000000 0.000000
# 4 0.000000 0.000000 0.000000 0.049687 0.000000 0.000000
# 5 0.000000 0.000000 0.000000 0.000000 0.033678 0.000000
# 6 0.000000 0.000000 0.000000 0.000000 0.000000 0.047348
#
#
# Mechanical properties :
#
#
# Convention : Reuss Voigt Hill
#
# Bulk Modulus (GPa) = 63.80614 65.03863 64.42239
# Shear Modulus (GPa) = 17.78276 19.62534 18.70405
#
# Velocity S-wave (km/s) = 3.43100 3.60437 3.51875
# Velocity P-wave (km/s) = 7.61143 7.77020 7.69122
#
# Compressibility (1/GPa) = 0.01567247
#
# Stress axis : x y z
#
# Youngs Moduli (GPa) = 32.83327 37.77557 42.51017
#
# Poissons Ratio (x) = 0.43275 0.52890
# Poissons Ratio (y) = 0.37613 0.36102
# Poissons Ratio (z) = 0.40851 0.32081
#
# Static dielectric constant tensor:
#      x y z
#    x 1.500060 0.000000 0.000000 
#    y 0.000000 1.473260 0.000000 
#    z 0.000000 0.000000 1.509510 
# 
# From -- ./inp_files/14522.got.cif
#   From: 2010.05.17/outbox.cif.g08.bks.cpg/sg71_8_cif.got.tgz:14522.got - 2010.06.03 16:22:01.
