data_PCOD9518757
_publ_section_title
;
Structure prediction by ZEFSAII (Michael W. Deem and Ramdas Pophale) SiO2 
 PCOD9518757
Probable space group: I M M M
;
_chemical_formula_sum "Si O2"
_cell_formula_units_Z 96
_cell_length_a 24.608764
_cell_length_b 17.842611
_cell_length_c 14.025026
_cell_angle_alpha 90.000000
_cell_angle_beta 90.000000
_cell_angle_gamma 90.000000
_cell_volume 6158.172977
_symmetry_space_group_name_H-M "I M M M"
_symmetry_group_IT_number 71
_symmetry_cell_setting 'orthorhombic'
loop_
_space_group_symop_operation_xyz
x,y,z
-x,-y,z
x,-y,-z
-x,y,-z
-x,-y,-z
x,y,-z
-x,y,z
x,-y,z
1/2+x,1/2+y,1/2+z
1/2-x,1/2-y,1/2+z
1/2+x,1/2-y,1/2-z
1/2-x,1/2+y,1/2-z
1/2-x,1/2-y,1/2-z
1/2+x,1/2+y,1/2-z
1/2-x,1/2+y,1/2+z
1/2+x,1/2-y,1/2+z
loop_
_atom_site_type_symbol
_atom_site_label
_atom_site_fract_x
_atom_site_fract_y
_atom_site_fract_z
Si Si1 0.662324 0.088157 0.886148
Si Si2 0.561183 0.192698 0.113128
Si Si3 0.438545 0.356160 0.199854
Si Si4 0.669800 0.410674 0.105515
Si Si5 0.225171 0.091133 0.203987
Si Si6 0.888040 0.090474 0.108783
O O1 0.608786 0.135218 0.862310
O O2 0.716431 0.116255 0.833114
O O3 0.654366 0.000000 0.864554
O O4 0.671501 0.093844 0.000000
O O5 0.500000 0.162027 0.126743
O O6 0.565867 0.268841 0.172749
O O7 0.566291 0.211069 0.000000
O O8 0.500000 0.380699 0.177785
O O9 0.391866 0.396774 0.139109
O O10 0.424900 0.372394 0.310128
O O11 0.677936 0.500000 0.101393
O O12 0.708295 0.381881 0.190531
O O13 0.679170 0.378943 0.000000
O O14 0.174560 0.109583 0.135041
O O15 0.227200 0.000000 0.205679
O O16 0.893277 0.000000 0.117855
O O17 0.900655 0.110910 0.000000
#
# Coordination Sequence:
#
# PCOD9518757 Si02
#       6
#    16  16  16  16  16  16
#     4   9  16  27  47  71  89 109 140 175 213 262
#     4   9  18  31  45  63  89 118 144 174 216 260
#     4  10  19  30  43  59  84 118 151 180 214 257
#     4   9  17  28  42  61  86 116 148 181 213 245
#     4   8  14  26  44  65  88 112 140 176 217 259
#     4   9  17  29  45  65  90 118 147 182 219 250
#
# _framework density 15.589039
#
# number of rings (size 3 to 8) (size 9 to 14) (size 15 to 20)
#    0.000    3.000    0.000    2.500    0.000    5.000 
#    0.000    6.667    0.000    3.000    0.000    0.000 
#    0.000    0.000    0.000   10.167    0.000    0.333 
#
# Total GULP energy -267255.707935 kJ/mol
# GULP energy per Si atom -5567.827249 kJ/mol
# Density = 1.555356 g / cm^3
# Si number density = 15.589039 Si / 1000 Ang^3
#
#
#
# Elastic Constant Matrix: (Units=GPa)
#
#
# Indices 1 2 3 4 5 6 
#
# 1 85.0831 22.6213 26.3810 0.0000 0.0000 0.0000
# 2 22.6213 17.1243 19.5876 0.0000 0.0000 0.0000
# 3 26.3810 19.5876 72.0557 0.0000 0.0000 0.0000
# 4 0.0000 0.0000 0.0000 15.1579 0.0000 0.0000
# 5 0.0000 0.0000 0.0000 0.0000 16.0916 0.0000
# 6 0.0000 0.0000 0.0000 0.0000 0.0000 57.1791
#
#
#
# Elastic Compliance Matrix: (Units=1/GPa)
#
#
# Indices 1 2 3 4 5 6 
#
# 1 0.018118 -0.023722 -0.000185 0.000000 0.000000 0.000000
# 2 -0.023722 0.115810 -0.022796 0.000000 0.000000 0.000000
# 3 -0.000185 -0.022796 0.020143 0.000000 0.000000 0.000000
# 4 0.000000 0.000000 0.000000 0.065972 0.000000 0.000000
# 5 0.000000 0.000000 0.000000 0.000000 0.062144 0.000000
# 6 0.000000 0.000000 0.000000 0.000000 0.000000 0.017489
#
#
# Mechanical properties :
#
#
# Convention : Reuss Voigt Hill
#
# Bulk Modulus (GPa) = 16.48442 34.60475 25.54459
# Shear Modulus (GPa) = 12.09766 24.73059 18.41413
#
# Velocity S-wave (km/s) = 2.78876 3.98730 3.44062
# Velocity P-wave (km/s) = 4.57897 6.59123 5.67500
#
# Compressibility (1/GPa) = 0.06066334
#
# Stress axis : x y z
#
# Youngs Moduli (GPa) = 55.19503 8.63485 49.64581
#
# Poissons Ratio (x) = 0.20484 0.00916
# Poissons Ratio (y) = 1.30936 1.13175
# Poissons Ratio (z) = 0.01018 0.19684
#
# Static dielectric constant tensor:
#      x y z
#    x 1.522900 0.000000 0.000000 
#    y 0.000000 1.508000 0.000000 
#    z 0.000000 0.000000 1.531600 
# 
# From -- ./inp_files/38250.got.cif
#   From: 2010.05.17/outbox.cif.g08.bks.cpg/sg71_20_cif.got.tgz:38250.got - 2010.06.03 16:22:01.
