data_PCOD9518384
_publ_section_title
;
Structure prediction by ZEFSAII (Michael W. Deem and Ramdas Pophale) SiO2 
 PCOD9518384
Probable space group: I M M M
;
_chemical_formula_sum "Si O2"
_cell_formula_units_Z 100
_cell_length_a 21.402916
_cell_length_b 7.258169
_cell_length_c 30.048639
_cell_angle_alpha 90.000000
_cell_angle_beta 90.000000
_cell_angle_gamma 90.000000
_cell_volume 4667.935316
_symmetry_space_group_name_H-M "I M M M"
_symmetry_group_IT_number 71
_symmetry_cell_setting 'orthorhombic'
loop_
_space_group_symop_operation_xyz
x,y,z
-x,-y,z
x,-y,-z
-x,y,-z
-x,-y,-z
x,y,-z
-x,y,z
x,-y,z
1/2+x,1/2+y,1/2+z
1/2-x,1/2-y,1/2+z
1/2+x,1/2-y,1/2-z
1/2-x,1/2+y,1/2-z
1/2-x,1/2-y,1/2-z
1/2+x,1/2+y,1/2-z
1/2-x,1/2+y,1/2+z
1/2+x,1/2-y,1/2+z
loop_
_atom_site_type_symbol
_atom_site_label
_atom_site_fract_x
_atom_site_fract_y
_atom_site_fract_z
Si Si1 0.380510 0.723740 0.451007
Si Si2 0.067857 0.224599 0.858196
Si Si3 0.690244 0.224327 0.144367
Si Si4 0.734749 0.223860 0.950355
Si Si5 0.107587 0.710802 0.721822
Si Si6 0.000000 0.000000 0.744422
Si Si7 0.812598 0.222450 0.198122
O O1 0.401066 0.783898 0.500000
O O2 0.381576 0.500000 0.450985
O O3 0.420951 0.781212 0.409110
O O4 0.307781 0.775676 0.444722
O O5 0.126877 0.283394 0.829937
O O6 0.000000 0.284150 0.842092
O O7 0.067724 0.000000 0.856532
O O8 0.696827 0.283886 0.093141
O O9 0.629678 0.276062 0.172916
O O10 0.751489 0.285109 0.171861
O O11 0.691243 0.000000 0.144236
O O12 0.733691 0.000000 0.950480
O O13 0.714717 0.282865 0.000000
O O14 0.086413 0.500000 0.719474
O O15 0.170429 0.715493 0.752295
O O16 0.055324 0.841215 0.742105
O O17 0.810649 0.000000 0.198638
#
# Coordination Sequence:
#
# PCOD9518384 Si02
#       7
#    16  16  16  16  16   4  16
#     4   8  12  19  31  52  89 141 194 240 287 335
#     4   9  16  22  35  60  95 148 200 239 285 336
#     4   9  17  31  52  83 117 154 199 252 301 347
#     4   8  12  21  41  70 107 149 193 242 299 352
#     4  11  24  40  62  88 117 155 202 244 294 360
#     4  12  26  48  64  86 121 158 197 246 300 364
#     4  10  18  32  53  77 118 159 199 248 296 341
#
# _framework density 21.422747999999999
#
# number of rings (size 3 to 8) (size 9 to 14) (size 15 to 20)
#    0.000    2.720    2.400    1.680    1.120    0.320 
#    1.440    1.600    0.000    0.000    0.000    1.680 
#    0.000    5.760    0.000    1.440    0.000    3.840 
#
# Total GULP energy -278780.093888 kJ/mol
# GULP energy per Si atom -5575.601878 kJ/mol
# Density = 2.137399 g / cm^3
# Si number density = 21.422748 Si / 1000 Ang^3
#
#
#
# Elastic Constant Matrix: (Units=GPa)
#
#
# Indices 1 2 3 4 5 6 
#
# 1 33.2508 11.4468 25.4221 0.0000 0.0000 0.0000
# 2 11.4468 114.2589 2.6896 0.0000 0.0000 0.0000
# 3 25.4221 2.6896 125.1483 0.0000 0.0000 0.0000
# 4 0.0000 0.0000 0.0000 -4.6089 0.0000 0.0000
# 5 0.0000 0.0000 0.0000 0.0000 17.2214 0.0000
# 6 0.0000 0.0000 0.0000 0.0000 0.0000 39.1228
#
#
#
# Elastic Compliance Matrix: (Units=1/GPa)
#
#
# Indices 1 2 3 4 5 6 
#
# 1 0.036974 -0.003529 -0.007435 0.000000 0.000000 0.000000
# 2 -0.003529 0.009093 0.000521 0.000000 0.000000 0.000000
# 3 -0.007435 0.000521 0.009490 0.000000 0.000000 0.000000
# 4 0.000000 0.000000 0.000000 -0.216969 0.000000 0.000000
# 5 0.000000 0.000000 0.000000 0.000000 0.058067 0.000000
# 6 0.000000 0.000000 0.000000 0.000000 0.000000 0.025561
#
#
# Mechanical properties :
#
#
# Convention : Reuss Voigt Hill
#
# Bulk Modulus (GPa) = 28.84199 39.08613 33.96406
# Shear Modulus (GPa) = -110.27167 25.88703 -42.19232
#
# Velocity S-wave (km/s) = -7.18233 3.47996 -4.44273
# Velocity P-wave (km/s) = 7.43563 5.86784 3.22932
#
# Compressibility (1/GPa) = 0.03467167
#
# Stress axis : x y z
#
# Youngs Moduli (GPa) = 27.04617 109.97060 105.37853
#
# Poissons Ratio (x) = 0.38810 0.78347
# Poissons Ratio (y) = 0.09545 -0.05495
# Poissons Ratio (z) = 0.20108 -0.05735
#
# Static dielectric constant tensor:
#      x y z
#    x 1.727350 0.000000 0.000000 
#    y 0.000000 1.875770 0.000000 
#    z 0.000000 0.000000 1.817930 
# 
# From -- ./inp_files/70774.got.cif
#   From: 2010.05.17/outbox.cif.g08.bks.cpg/sg71_36_cif.got.tgz:70774.got - 2010.06.03 16:22:01.
