data_PCOD9518579
_publ_section_title
;
Structure prediction by ZEFSAII (Michael W. Deem and Ramdas Pophale) SiO2 
 PCOD9518579
Probable space group: I M M M
;
_chemical_formula_sum "Si O2"
_cell_formula_units_Z 104
_cell_length_a 17.688157
_cell_length_b 19.925143
_cell_length_c 17.191866
_cell_angle_alpha 90.000000
_cell_angle_beta 90.000000
_cell_angle_gamma 90.000000
_cell_volume 6059.085052
_symmetry_space_group_name_H-M "I M M M"
_symmetry_group_IT_number 71
_symmetry_cell_setting 'orthorhombic'
loop_
_space_group_symop_operation_xyz
x,y,z
-x,-y,z
x,-y,-z
-x,y,-z
-x,-y,-z
x,y,-z
-x,y,z
x,-y,z
1/2+x,1/2+y,1/2+z
1/2-x,1/2-y,1/2+z
1/2+x,1/2-y,1/2-z
1/2-x,1/2+y,1/2-z
1/2-x,1/2-y,1/2-z
1/2+x,1/2+y,1/2-z
1/2-x,1/2+y,1/2+z
1/2+x,1/2-y,1/2+z
loop_
_atom_site_type_symbol
_atom_site_label
_atom_site_fract_x
_atom_site_fract_y
_atom_site_fract_z
Si Si1 0.338858 0.922230 0.350896
Si Si2 0.000000 0.581513 0.908955
Si Si3 0.282291 0.924119 0.825352
Si Si4 0.586902 0.276631 0.193312
Si Si5 0.085572 0.641957 0.590264
Si Si6 0.699957 0.286018 0.682179
Si Si7 0.280970 0.320002 0.911779
O O1 0.422456 0.895148 0.369440
O O2 0.321173 0.918619 0.259514
O O3 0.274417 0.881562 0.394829
O O4 0.336542 0.000000 0.374831
O O5 0.000000 0.500000 0.902697
O O6 0.000000 0.598631 0.000000
O O7 0.348346 0.908814 0.887128
O O8 0.222138 0.863579 0.827687
O O9 0.252865 0.000000 0.834084
O O10 0.500000 0.297780 0.188431
O O11 0.593163 0.204747 0.149342
O O12 0.616999 0.275476 0.282007
O O13 0.646859 0.321417 0.145336
O O14 0.093204 0.663550 0.500000
O O15 0.000000 0.614884 0.599585
O O16 0.750000 0.250000 0.750000
O O17 0.728867 0.244874 0.608055
O O18 0.306735 0.318112 0.000000
#
# Coordination Sequence:
#
# PCOD9518579 Si02
#       7
#    16   8  16  16  16  16  16
#     4  10  20  34  52  75 104 142 179 215 263 321
#     4   9  18  32  48  70 105 139 170 208 253 314
#     4  11  21  34  53  74 101 139 180 215 259 316
#     4  10  19  34  57  79 105 143 183 224 267 318
#     4  10  20  33  50  77 113 146 177 215 262 319
#     4  10  18  37  53  75 102 135 179 221 260 309
#     4  11  20  33  56  80 106 140 176 223 272 320
#
# _framework density 17.164307000000001
#
# number of rings (size 3 to 8) (size 9 to 14) (size 15 to 20)
#    0.000    1.769    6.154    0.923    1.077    2.462 
#    1.385    0.769    0.000    1.846    0.000    1.077 
#    0.000    0.000    0.000    2.769    0.000    0.000 
#
# Total GULP energy -289793.484976 kJ/mol
# GULP energy per Si atom -5572.951634 kJ/mol
# Density = 1.712524 g / cm^3
# Si number density = 17.164307 Si / 1000 Ang^3
#
#
#
# Elastic Constant Matrix: (Units=GPa)
#
#
# Indices 1 2 3 4 5 6 
#
# 1 97.0344 29.1366 21.9007 0.0000 0.0000 0.0000
# 2 29.1366 81.9721 8.6865 0.0000 0.0000 0.0000
# 3 21.9007 8.6865 28.6542 0.0000 0.0000 0.0000
# 4 0.0000 0.0000 0.0000 0.5810 0.0000 0.0000
# 5 0.0000 0.0000 0.0000 0.0000 20.7565 0.0000
# 6 0.0000 0.0000 0.0000 0.0000 0.0000 13.2314
#
#
#
# Elastic Compliance Matrix: (Units=1/GPa)
#
#
# Indices 1 2 3 4 5 6 
#
# 1 0.013529 -0.003836 -0.009177 0.000000 0.000000 0.000000
# 2 -0.003836 0.013692 -0.001219 0.000000 0.000000 0.000000
# 3 -0.009177 -0.001219 0.042283 0.000000 0.000000 0.000000
# 4 0.000000 0.000000 0.000000 1.721271 0.000000 0.000000
# 5 0.000000 0.000000 0.000000 0.000000 0.048178 0.000000
# 6 0.000000 0.000000 0.000000 0.000000 0.000000 0.075578
#
#
# Mechanical properties :
#
#
# Convention : Reuss Voigt Hill
#
# Bulk Modulus (GPa) = 24.36698 36.34536 30.35617
# Shear Modulus (GPa) = 2.55536 16.77623 9.66580
#
# Velocity S-wave (km/s) = 1.22147 3.12972 2.37562
# Velocity P-wave (km/s) = 4.02697 5.85501 5.02482
#
# Compressibility (1/GPa) = 0.04103915
#
# Stress axis : x y z
#
# Youngs Moduli (GPa) = 73.91605 73.03545 23.65033
#
# Poissons Ratio (x) = 0.28018 0.21705
# Poissons Ratio (y) = 0.28356 0.02882
# Poissons Ratio (z) = 0.67835 0.08900
#
# Static dielectric constant tensor:
#      x y z
#    x 1.594390 0.000000 0.000000 
#    y 0.000000 1.601610 0.000000 
#    z 0.000000 0.000000 1.608710 
# 
# From -- ./inp_files/46133.got.cif
#   From: 2010.05.17/outbox.cif.g08.bks.cpg/sg71_24_cif.got.tgz:46133.got - 2010.06.03 16:22:01.
