data_PCOD9518046
_publ_section_title
;
Structure prediction by ZEFSAII (Michael W. Deem and Ramdas Pophale) SiO2 
 PCOD9518046
Probable space group: I M M M
;
_chemical_formula_sum "Si O2"
_cell_formula_units_Z 88
_cell_length_a 11.755134
_cell_length_b 26.656504
_cell_length_c 12.703446
_cell_angle_alpha 90.000000
_cell_angle_beta 90.000000
_cell_angle_gamma 90.000000
_cell_volume 3980.634668
_symmetry_space_group_name_H-M "I M M M"
_symmetry_group_IT_number 71
_symmetry_cell_setting 'orthorhombic'
loop_
_space_group_symop_operation_xyz
x,y,z
-x,-y,z
x,-y,-z
-x,y,-z
-x,-y,-z
x,y,-z
-x,y,z
x,-y,z
1/2+x,1/2+y,1/2+z
1/2-x,1/2-y,1/2+z
1/2+x,1/2-y,1/2-z
1/2-x,1/2+y,1/2-z
1/2-x,1/2-y,1/2-z
1/2+x,1/2+y,1/2-z
1/2-x,1/2+y,1/2+z
1/2+x,1/2-y,1/2+z
loop_
_atom_site_type_symbol
_atom_site_label
_atom_site_fract_x
_atom_site_fract_y
_atom_site_fract_z
Si Si1 0.862649 0.056220 0.500000
Si Si2 0.124288 0.578253 0.626411
Si Si3 0.195611 0.273122 0.887084
Si Si4 0.627271 0.584898 0.624332
Si Si5 0.629256 0.639448 0.163954
Si Si6 0.378202 0.803137 0.834256
O O1 0.833392 0.088949 0.397293
O O2 0.000000 0.052358 0.500000
O O3 0.815816 0.000000 0.500000
O O4 0.117375 0.576332 0.500000
O O5 0.251805 0.557593 0.648889
O O6 0.128535 0.636677 0.661405
O O7 0.000000 0.558680 0.665235
O O8 0.289802 0.316547 0.872112
O O9 0.267915 0.222094 0.883833
O O10 0.121896 0.281021 0.783833
O O11 0.138678 0.278265 0.000000
O O12 0.632857 0.599137 0.500000
O O13 0.500000 0.560919 0.637844
O O14 0.627706 0.628857 0.711407
O O15 0.500000 0.650476 0.131971
O O16 0.500000 0.789442 0.882898
#
# Coordination Sequence:
#
# PCOD9518046 Si02
#       6
#     8  16  16  16  16  16
#     4   9  18  32  52  78 105 135 171 219 275 329
#     4   9  16  28  45  64  91 130 173 212 248 293
#     4  11  21  33  49  69  94 128 174 222 263 311
#     4   9  17  29  46  70 101 134 170 211 257 307
#     4  10  18  30  49  73 101 132 171 215 262 321
#     4  10  21  34  46  64  95 132 172 215 260 307
#
# _framework density 22.107026000000001
#
# number of rings (size 3 to 8) (size 9 to 14) (size 15 to 20)
#    0.000    2.273    2.727    1.091    0.000    2.182 
#    0.000    0.000    0.000    0.545    0.000    3.818 
#    0.000    5.818    0.000    4.545    0.000    4.727 
#
# Total GULP energy -245001.136604 kJ/mol
# GULP energy per Si atom -5568.207650 kJ/mol
# Density = 2.205671 g / cm^3
# Si number density = 22.107026 Si / 1000 Ang^3
#
#
#
# Elastic Constant Matrix: (Units=GPa)
#
#
# Indices 1 2 3 4 5 6 
#
# 1 179.7062 23.4650 5.7150 0.0000 0.0000 0.0000
# 2 23.4650 94.2155 8.6503 0.0000 0.0000 0.0000
# 3 5.7150 8.6503 113.7890 -0.0005 -0.0005 -0.0003
# 4 0.0000 0.0000 -0.0005 27.9307 -0.0001 0.0005
# 5 0.0000 0.0000 -0.0005 -0.0001 -16.0713 -0.0002
# 6 0.0000 0.0000 -0.0003 0.0005 -0.0002 -45.6656
#
#
#
# Elastic Compliance Matrix: (Units=1/GPa)
#
#
# Indices 1 2 3 4 5 6 
#
# 1 0.005755 -0.001417 -0.000181 0.000000 0.000000 0.000000
# 2 -0.001417 0.011037 -0.000768 0.000000 0.000000 0.000000
# 3 -0.000181 -0.000768 0.008856 0.000000 0.000000 0.000000
# 4 0.000000 0.000000 0.000000 0.035803 0.000000 0.000000
# 5 0.000000 0.000000 0.000000 0.000000 -0.062223 0.000000
# 6 0.000000 0.000000 0.000000 0.000000 0.000000 -0.021898
#
#
# Mechanical properties :
#
#
# Convention : Reuss Voigt Hill
#
# Bulk Modulus (GPa) = 47.80954 51.48572 49.64763
# Shear Modulus (GPa) = -455.96843 16.56413 -219.70215
#
# Velocity S-wave (km/s) = -14.37716 2.74025 -9.97982
# Velocity P-wave (km/s) = 15.93519 5.77510 10.50187
#
# Compressibility (1/GPa) = 0.02091633
#
# Stress axis : x y z
#
# Youngs Moduli (GPa) = 173.74991 90.60167 112.92190
#
# Poissons Ratio (x) = 0.12836 0.02048
# Poissons Ratio (y) = 0.24616 0.08671
# Poissons Ratio (z) = 0.03151 0.06957
#
# Static dielectric constant tensor:
#      x y z
#    x 1.860500 0.000000 0.000000 
#    y 0.000000 1.792830 0.000000 
#    z 0.000000 0.000000 1.833440 
# 
# From -- ./inp_files/32974.got.cif
#   From: 2010.05.17/outbox.cif.g08.bks.cpg/sg71_17_cif.got.tgz:32974.got - 2010.06.03 16:22:01.
