data_PCOD9518525
_publ_section_title
;
Structure prediction by ZEFSAII (Michael W. Deem and Ramdas Pophale) SiO2 
 PCOD9518525
Probable space group: I M M M
;
_chemical_formula_sum "Si O2"
_cell_formula_units_Z 100
_cell_length_a 27.693992
_cell_length_b 21.039914
_cell_length_c 7.504966
_cell_angle_alpha 90.000000
_cell_angle_beta 90.000000
_cell_angle_gamma 90.000000
_cell_volume 4372.987660
_symmetry_space_group_name_H-M "I M M M"
_symmetry_group_IT_number 71
_symmetry_cell_setting 'orthorhombic'
loop_
_space_group_symop_operation_xyz
x,y,z
-x,-y,z
x,-y,-z
-x,y,-z
-x,-y,-z
x,y,-z
-x,y,z
x,-y,z
1/2+x,1/2+y,1/2+z
1/2-x,1/2-y,1/2+z
1/2+x,1/2-y,1/2-z
1/2-x,1/2+y,1/2-z
1/2-x,1/2-y,1/2-z
1/2+x,1/2+y,1/2-z
1/2-x,1/2+y,1/2+z
1/2+x,1/2-y,1/2+z
loop_
_atom_site_type_symbol
_atom_site_label
_atom_site_fract_x
_atom_site_fract_y
_atom_site_fract_z
Si Si1 0.623512 0.687074 0.784555
Si Si2 0.187813 0.000000 0.500000
Si Si3 0.444117 0.571138 0.782786
Si Si4 0.580099 0.070309 0.206255
Si Si5 0.947371 0.294362 0.282100
Si Si6 0.190884 0.573520 0.787132
Si Si7 0.207261 0.106359 0.802271
O O1 0.590423 0.627433 0.724660
O O2 0.596728 0.750619 0.722517
O O3 0.676983 0.670738 0.722897
O O4 0.623290 0.688143 0.000000
O O5 0.190279 0.943951 0.345760
O O6 0.500000 0.580920 0.731505
O O7 0.429237 0.500000 0.727212
O O8 0.442842 0.571034 0.000000
O O9 0.556604 0.133354 0.283529
O O10 0.637700 0.082781 0.211291
O O11 0.571587 0.000000 0.285329
O O12 0.564855 0.066724 0.000000
O O13 0.945414 0.296136 0.500000
O O14 0.000000 0.267288 0.235161
O O15 0.204551 0.500000 0.747080
O O16 0.235205 0.614892 0.720484
O O17 0.187764 0.578810 0.000000
O O18 0.198178 0.081892 0.000000
#
# Coordination Sequence:
#
# PCOD9518525 Si02
#       7
#    16   4  16  16  16  16  16
#     4  10  19  32  52  76 113 157 207 256 308 370
#     4  12  22  40  56  90 129 166 213 258 308 356
#     4   8  14  23  40  67  96 131 180 238 299 359
#     4   9  18  32  55  88 120 154 201 256 313 378
#     4   9  18  34  57  85 118 159 206 256 319 389
#     4  10  18  34  56  84 120 156 198 248 310 373
#     4  12  23  36  58  89 125 166 211 257 307 363
#
# _framework density 22.867660000000001
#
# number of rings (size 3 to 8) (size 9 to 14) (size 15 to 20)
#    0.000    2.240    2.400    1.680    1.120    2.880 
#    0.000    3.200    0.000    3.360    0.000    3.360 
#    0.000    0.000    0.000    0.000    0.000    0.000 
#
# Total GULP energy -278803.903337 kJ/mol
# GULP energy per Si atom -5576.078067 kJ/mol
# Density = 2.281561 g / cm^3
# Si number density = 22.867660 Si / 1000 Ang^3
#
#
#
# Elastic Constant Matrix: (Units=GPa)
#
#
# Indices 1 2 3 4 5 6 
#
# 1 56.5683 19.3851 3.7943 0.0000 0.0000 0.0000
# 2 19.3851 70.6944 11.8955 0.0000 0.0000 0.0000
# 3 3.7943 11.8955 103.6236 0.0000 0.0000 0.0000
# 4 0.0000 0.0000 0.0000 -2.5522 0.0000 0.0000
# 5 0.0000 0.0000 0.0000 0.0000 0.9972 0.0000
# 6 0.0000 0.0000 0.0000 0.0000 0.0000 29.7066
#
#
#
# Elastic Compliance Matrix: (Units=1/GPa)
#
#
# Indices 1 2 3 4 5 6 
#
# 1 0.019512 -0.005333 -0.000102 0.000000 0.000000 0.000000
# 2 -0.005333 0.015882 -0.001628 0.000000 0.000000 0.000000
# 3 -0.000102 -0.001628 0.009841 0.000000 0.000000 0.000000
# 4 0.000000 0.000000 0.000000 -0.391818 0.000000 0.000000
# 5 0.000000 0.000000 0.000000 0.000000 1.002846 0.000000
# 6 0.000000 0.000000 0.000000 0.000000 0.000000 0.033663
#
#
# Mechanical properties :
#
#
# Convention : Reuss Voigt Hill
#
# Bulk Modulus (GPa) = 32.14585 33.44845 32.79715
# Shear Modulus (GPa) = 6.99867 18.68440 12.84153
#
# Velocity S-wave (km/s) = 1.75133 2.86154 2.37229
# Velocity P-wave (km/s) = 4.26350 5.05733 4.67728
#
# Compressibility (1/GPa) = 0.03110822
#
# Stress axis : x y z
#
# Youngs Moduli (GPa) = 51.24994 62.96538 101.61643
#
# Poissons Ratio (x) = 0.33581 0.01039
# Poissons Ratio (y) = 0.27333 0.16542
# Poissons Ratio (z) = 0.00524 0.10250
#
# Static dielectric constant tensor:
#      x y z
#    x 1.886650 0.000000 0.000000 
#    y 0.000000 1.835830 0.000000 
#    z 0.000000 0.000000 1.856480 
# 
# From -- ./inp_files/17048.got.cif
#   From: 2010.05.17/outbox.cif.g08.bks.cpg/sg71_9_cif.got.tgz:17048.got - 2010.06.03 16:22:01.
