data_PCOD9518546
_publ_section_title
;
Structure prediction by ZEFSAII (Michael W. Deem and Ramdas Pophale) SiO2 
 PCOD9518546
Probable space group: I M M M
;
_chemical_formula_sum "Si O2"
_cell_formula_units_Z 88
_cell_length_a 12.510846
_cell_length_b 18.359993
_cell_length_c 23.632654
_cell_angle_alpha 90.000000
_cell_angle_beta 90.000000
_cell_angle_gamma 90.000000
_cell_volume 5428.398054
_symmetry_space_group_name_H-M "I M M M"
_symmetry_group_IT_number 71
_symmetry_cell_setting 'orthorhombic'
loop_
_space_group_symop_operation_xyz
x,y,z
-x,-y,z
x,-y,-z
-x,y,-z
-x,-y,-z
x,y,-z
-x,y,z
x,-y,z
1/2+x,1/2+y,1/2+z
1/2-x,1/2-y,1/2+z
1/2+x,1/2-y,1/2-z
1/2-x,1/2+y,1/2-z
1/2-x,1/2-y,1/2-z
1/2+x,1/2+y,1/2-z
1/2-x,1/2+y,1/2+z
1/2+x,1/2-y,1/2+z
loop_
_atom_site_type_symbol
_atom_site_label
_atom_site_fract_x
_atom_site_fract_y
_atom_site_fract_z
Si Si1 0.378042 0.832512 0.148841
Si Si2 0.000000 0.863451 0.934065
Si Si3 0.118775 0.199439 0.267037
Si Si4 0.696894 0.081284 0.747214
Si Si5 0.000000 0.579710 0.160624
Si Si6 0.000000 0.742516 0.162661
Si Si7 0.264594 0.418317 0.566784
O O1 0.500000 0.830908 0.128183
O O2 0.358550 0.758073 0.183870
O O3 0.363622 0.894569 0.196167
O O4 0.296100 0.855137 0.100416
O O5 0.108357 0.908734 0.925633
O O6 0.000000 0.800002 0.887638
O O7 0.000000 0.838279 0.000000
O O8 0.208894 0.139107 0.262563
O O9 0.401787 0.258090 0.292991
O O10 0.000000 0.167540 0.278244
O O11 0.606555 0.080602 0.699061
O O12 0.741389 0.000000 0.752638
O O13 0.000000 0.500000 0.130352
O O14 0.000000 0.661738 0.136444
O O15 0.242311 0.412562 0.500000
O O16 0.232848 0.500000 0.585420
#
# Coordination Sequence:
#
# PCOD9518546 Si02
#       7
#    16   8  16  16   8   8  16
#     4  11  20  34  51  71 102 137 175 214 253 304
#     4  10  21  36  56  79 102 135 178 219 259 302
#     4   9  20  33  49  73  98 136 170 209 264 304
#     4  11  19  30  47  70 103 134 166 205 251 312
#     4  10  20  30  45  74 100 131 162 193 250 308
#     4  10  18  35  52  71 101 135 168 211 255 308
#     4  10  22  37  53  75 105 141 178 218 257 296
#
# _framework density 16.211044000000001
#
# number of rings (size 3 to 8) (size 9 to 14) (size 15 to 20)
#    0.545    1.273    2.727    2.455    2.545    2.909 
#    0.000    1.818    0.000    0.273    0.000    0.000 
#    0.000    0.727    0.000    4.000    0.000    0.000 
#
# Total GULP energy -245014.502781 kJ/mol
# GULP energy per Si atom -5568.511427 kJ/mol
# Density = 1.617415 g / cm^3
# Si number density = 16.211044 Si / 1000 Ang^3
#
#
#
# Elastic Constant Matrix: (Units=GPa)
#
#
# Indices 1 2 3 4 5 6 
#
# 1 94.5846 30.0679 12.0648 0.0000 0.0000 0.0000
# 2 30.0679 93.0952 16.0979 0.0000 0.0000 0.0000
# 3 12.0648 16.0979 30.5019 0.0000 0.0000 0.0000
# 4 0.0000 0.0000 0.0000 20.6471 0.0000 0.0000
# 5 0.0000 0.0000 0.0000 0.0000 183.5861 0.0000
# 6 0.0000 0.0000 0.0000 0.0000 0.0000 15.1088
#
#
#
# Elastic Compliance Matrix: (Units=1/GPa)
#
#
# Indices 1 2 3 4 5 6 
#
# 1 0.012023 -0.003368 -0.002978 0.000000 0.000000 0.000000
# 2 -0.003368 0.012764 -0.005404 0.000000 0.000000 0.000000
# 3 -0.002978 -0.005404 0.036815 0.000000 0.000000 0.000000
# 4 0.000000 0.000000 0.000000 0.048433 0.000000 0.000000
# 5 0.000000 0.000000 0.000000 0.000000 0.005447 0.000000
# 6 0.000000 0.000000 0.000000 0.000000 0.000000 0.066187
#
#
# Mechanical properties :
#
#
# Convention : Reuss Voigt Hill
#
# Bulk Modulus (GPa) = 26.24587 37.18256 31.71422
# Shear Modulus (GPa) = 22.94945 54.53180 38.74063
#
# Velocity S-wave (km/s) = 3.76662 5.80618 4.89383
# Velocity P-wave (km/s) = 5.92805 8.24229 7.17904
#
# Compressibility (1/GPa) = 0.03810123
#
# Stress axis : x y z
#
# Youngs Moduli (GPa) = 83.17274 78.34493 27.16291
#
# Poissons Ratio (x) = 0.26389 0.08089
# Poissons Ratio (y) = 0.28015 0.14679
# Poissons Ratio (z) = 0.24769 0.42339
#
# Static dielectric constant tensor:
#      x y z
#    x 1.576780 0.000000 0.000000 
#    y 0.000000 1.563660 0.000000 
#    z 0.000000 0.000000 1.526110 
# 
# From -- ./inp_files/57588.got.cif
#   From: 2010.05.17/outbox.cif.g08.bks.cpg/sg71_29_cif.got.tgz:57588.got - 2010.06.03 16:22:01.
