data_PCOD9518775
_publ_section_title
;
Structure prediction by ZEFSAII (Michael W. Deem and Ramdas Pophale) SiO2 
 PCOD9518775
Probable space group: I M M M
;
_chemical_formula_sum "Si O2"
_cell_formula_units_Z 64
_cell_length_a 30.768105
_cell_length_b 5.486254
_cell_length_c 21.156752
_cell_angle_alpha 90.000000
_cell_angle_beta 90.000000
_cell_angle_gamma 90.000000
_cell_volume 3571.294416
_symmetry_space_group_name_H-M "I M M M"
_symmetry_group_IT_number 71
_symmetry_cell_setting 'orthorhombic'
loop_
_space_group_symop_operation_xyz
x,y,z
-x,-y,z
x,-y,-z
-x,y,-z
-x,-y,-z
x,y,-z
-x,y,z
x,-y,z
1/2+x,1/2+y,1/2+z
1/2-x,1/2-y,1/2+z
1/2+x,1/2-y,1/2-z
1/2-x,1/2+y,1/2-z
1/2-x,1/2-y,1/2-z
1/2+x,1/2+y,1/2-z
1/2-x,1/2+y,1/2+z
1/2+x,1/2-y,1/2+z
loop_
_atom_site_type_symbol
_atom_site_label
_atom_site_fract_x
_atom_site_fract_y
_atom_site_fract_z
Si Si1 0.947138 0.500000 0.426975
Si Si2 0.125511 0.000000 0.265708
Si Si3 0.552170 0.500000 0.853611
Si Si4 0.814135 0.500000 0.407472
Si Si5 0.325006 0.500000 0.102125
Si Si6 0.211599 0.000000 0.927702
Si Si7 0.778248 0.500000 0.863236
Si Si8 0.830304 0.500000 0.745119
O O1 0.932919 0.500000 0.500000
O O2 0.934888 0.749843 0.390303
O O3 0.000000 0.500000 0.427993
O O4 0.075199 0.000000 0.285197
O O5 0.142579 0.255560 0.238128
O O6 0.148541 0.000000 0.333927
O O7 0.500000 0.500000 0.848875
O O8 0.834295 0.251796 0.430880
O O9 0.764161 0.500000 0.427150
O O10 0.818295 0.500000 0.329946
O O11 0.273276 0.500000 0.120396
O O12 0.201340 0.253858 0.892707
O O13 0.196267 0.000000 0.000000
O O14 0.787368 0.500000 0.788500
#
# Coordination Sequence:
#
# PCOD9518775 Si02
#       8
#     8   8   8   8   8   8   8   8
#     4   9  17  30  49  69  86 110 151 198 231 262
#     4  10  19  30  45  65  92 113 141 186 231 270
#     4  10  19  31  48  67  90 120 149 179 227 285
#     4   8  16  27  42  61  82 109 141 182 226 257
#     4   8  16  27  42  61  83 109 139 183 224 255
#     4  10  19  30  44  63  88 119 154 187 221 270
#     4  10  19  31  48  66  86 116 156 191 226 266
#     4  10  19  31  48  69  89 114 150 197 232 257
#
# _framework density 17.920674999999999
#
# number of rings (size 3 to 8) (size 9 to 14) (size 15 to 20)
#    0.000    2.625    0.000    2.250    0.000   10.500 
#    0.000    0.000    0.000   40.500    0.000    0.000 
#    0.000    0.000    0.000    0.000    0.000   43.750 
#
# Total GULP energy -178246.089822 kJ/mol
# GULP energy per Si atom -5570.190307 kJ/mol
# Density = 1.787989 g / cm^3
# Si number density = 17.920675 Si / 1000 Ang^3
#
#
#
# Elastic Constant Matrix: (Units=GPa)
#
#
# Indices 1 2 3 4 5 6 
#
# 1 48.2259 18.2409 18.8848 0.0000 0.0000 0.0000
# 2 18.2409 173.7746 17.9114 0.0000 0.0000 0.0000
# 3 18.8848 17.9114 65.9784 0.0000 0.0000 0.0000
# 4 0.0000 0.0000 0.0000 14.8744 0.0000 0.0000
# 5 0.0000 0.0000 0.0000 0.0000 -7.9317 0.0000
# 6 0.0000 0.0000 0.0000 0.0000 0.0000 11.5324
#
#
#
# Elastic Compliance Matrix: (Units=1/GPa)
#
#
# Indices 1 2 3 4 5 6 
#
# 1 0.023922 -0.001857 -0.006343 0.000000 0.000000 0.000000
# 2 -0.001857 0.006064 -0.001115 0.000000 0.000000 0.000000
# 3 -0.006343 -0.001115 0.017275 0.000000 0.000000 0.000000
# 4 0.000000 0.000000 0.000000 0.067230 0.000000 0.000000
# 5 0.000000 0.000000 0.000000 0.000000 -0.126077 0.000000
# 6 0.000000 0.000000 0.000000 0.000000 0.000000 0.086712
#
#
# Mechanical properties :
#
#
# Convention : Reuss Voigt Hill
#
# Bulk Modulus (GPa) = 34.92693 44.22813 39.57753
# Shear Modulus (GPa) = 48.40289 19.22448 33.81369
#
# Velocity S-wave (km/s) = 5.20271 3.27885 4.34850
# Velocity P-wave (km/s) = 7.45808 6.25044 6.88080
#
# Compressibility (1/GPa) = 0.02863120
#
# Stress axis : x y z
#
# Youngs Moduli (GPa) = 41.80240 164.89579 57.88840
#
# Poissons Ratio (x) = 0.30626 0.36718
# Poissons Ratio (y) = 0.07764 0.06453
# Poissons Ratio (z) = 0.26515 0.18381
#
# Static dielectric constant tensor:
#      x y z
#    x 1.638350 0.000000 0.000000 
#    y 0.000000 1.731870 0.000000 
#    z 0.000000 0.000000 1.611290 
# 
# From -- ./inp_files/49095.got.cif
#   From: 2010.05.17/outbox.cif.g08.bks.cpg/sg71_25_cif.got.tgz:49095.got - 2010.06.03 16:22:01.
