data_PCOD9518655
_publ_section_title
;
Structure prediction by ZEFSAII (Michael W. Deem and Ramdas Pophale) SiO2 
 PCOD9518655
Probable space group: I M M M
;
_chemical_formula_sum "Si O2"
_cell_formula_units_Z 116
_cell_length_a 24.420848
_cell_length_b 7.442838
_cell_length_c 30.727103
_cell_angle_alpha 90.000000
_cell_angle_beta 90.000000
_cell_angle_gamma 90.000000
_cell_volume 5584.971008
_symmetry_space_group_name_H-M "I M M M"
_symmetry_group_IT_number 71
_symmetry_cell_setting 'orthorhombic'
loop_
_space_group_symop_operation_xyz
x,y,z
-x,-y,z
x,-y,-z
-x,y,-z
-x,-y,-z
x,y,-z
-x,y,z
x,-y,z
1/2+x,1/2+y,1/2+z
1/2-x,1/2-y,1/2+z
1/2+x,1/2-y,1/2-z
1/2-x,1/2+y,1/2-z
1/2-x,1/2-y,1/2-z
1/2+x,1/2+y,1/2-z
1/2-x,1/2+y,1/2+z
1/2+x,1/2-y,1/2+z
loop_
_atom_site_type_symbol
_atom_site_label
_atom_site_fract_x
_atom_site_fract_y
_atom_site_fract_z
Si Si1 0.558386 0.709965 0.195804
Si Si2 0.707567 0.791966 0.932982
Si Si3 0.560063 0.289320 0.387744
Si Si4 0.594827 0.216547 0.710677
Si Si5 0.170273 0.000000 0.500000
Si Si6 0.212049 0.294720 0.197113
Si Si7 0.178414 0.218203 0.901412
Si Si8 0.823718 0.218891 0.666507
O O1 0.500000 0.787152 0.180793
O O2 0.558550 0.500000 0.183672
O O3 0.560949 0.724105 0.247926
O O4 0.616178 0.785189 0.179417
O O5 0.772290 0.737437 0.933943
O O6 0.689653 0.775642 0.882659
O O7 0.703064 0.000000 0.945932
O O8 0.674076 0.657144 0.962304
O O9 0.500000 0.211345 0.397522
O O10 0.557699 0.500000 0.398570
O O11 0.571011 0.274911 0.335765
O O12 0.616213 0.219826 0.409615
O O13 0.657132 0.287770 0.717126
O O14 0.596714 0.000000 0.709651
O O15 0.216014 0.500000 0.211829
O O16 0.195841 0.292608 0.145712
O O17 0.273220 0.217031 0.197108
O O18 0.178122 0.000000 0.897527
O O19 0.822652 0.000000 0.668251
#
# Coordination Sequence:
#
# PCOD9518655 Si02
#       8
#    16  16  16  16   4  16  16  16
#     4  10  21  34  48  67  95 137 183 220 259 308
#     4  10  20  35  57  86 114 137 164 202 253 320
#     4   9  16  27  44  65  93 133 180 227 271 306
#     4  10  19  29  41  63  96 130 175 232 276 307
#     4  12  22  36  60  90 118 140 158 198 270 324
#     4   8  15  27  45  65  89 128 169 211 267 315
#     4   8  15  27  44  69  99 130 168 210 252 307
#     4   9  17  34  54  72 100 136 173 214 261 313
#
# _framework density 20.770028
#
# number of rings (size 3 to 8) (size 9 to 14) (size 15 to 20)
#    0.000    2.759    0.690    1.034    0.966    3.862 
#    0.000    0.000    0.000    0.000    0.000    1.931 
#    0.000    4.414    0.000    0.000    0.000    0.000 
#
# Total GULP energy -322901.042082 kJ/mol
# GULP energy per Si atom -5567.259346 kJ/mol
# Density = 2.072275 g / cm^3
# Si number density = 20.770028 Si / 1000 Ang^3
#
#
#
# Elastic Constant Matrix: (Units=GPa)
#
#
# Indices 1 2 3 4 5 6 
#
# 1 154.8447 9.8501 1.4424 0.0000 0.0000 0.0000
# 2 9.8501 87.8929 1.9673 0.0000 0.0000 0.0000
# 3 1.4424 1.9673 18.8647 0.0000 0.0000 0.0000
# 4 0.0000 0.0000 0.0000 81.3197 0.0000 0.0000
# 5 0.0000 0.0000 0.0000 0.0000 -12.4152 0.0000
# 6 0.0000 0.0000 0.0000 0.0000 0.0000 2.6710
#
#
#
# Elastic Compliance Matrix: (Units=1/GPa)
#
#
# Indices 1 2 3 4 5 6 
#
# 1 0.006508 -0.000720 -0.000423 0.000000 0.000000 0.000000
# 2 -0.000720 0.011484 -0.001143 0.000000 0.000000 0.000000
# 3 -0.000423 -0.001143 0.053160 0.000000 0.000000 0.000000
# 4 0.000000 0.000000 0.000000 0.012297 0.000000 0.000000
# 5 0.000000 0.000000 0.000000 0.000000 -0.080546 0.000000
# 6 0.000000 0.000000 0.000000 0.000000 0.000000 0.374397
#
#
# Mechanical properties :
#
#
# Convention : Reuss Voigt Hill
#
# Bulk Modulus (GPa) = 15.01906 32.01357 23.51631
# Shear Modulus (GPa) = 12.37428 30.87125 21.62276
#
# Velocity S-wave (km/s) = 2.44350 3.85949 3.23004
# Velocity P-wave (km/s) = 3.89971 5.94202 5.02570
#
# Compressibility (1/GPa) = 0.06658205
#
# Stress axis : x y z
#
# Youngs Moduli (GPa) = 153.66145 87.07965 18.81099
#
# Poissons Ratio (x) = 0.06269 0.00795
# Poissons Ratio (y) = 0.11062 0.02149
# Poissons Ratio (z) = 0.06493 0.09949
#
# Static dielectric constant tensor:
#      x y z
#    x 1.835640 0.000000 0.000000 
#    y 0.000000 1.824360 0.000000 
#    z 0.000000 0.000000 1.712750 
# 
# From -- ./inp_files/71054.got.cif
#   From: 2010.05.17/outbox.cif.g08.bks.cpg/sg71_36_cif.got.tgz:71054.got - 2010.06.03 16:22:01.
