data_PCOD9518957
_publ_section_title
;
Structure prediction by ZEFSAII (Michael W. Deem and Ramdas Pophale) SiO2 
 PCOD9518957
Probable space group: I M M M
;
_chemical_formula_sum "Si O2"
_cell_formula_units_Z 104
_cell_length_a 9.760096
_cell_length_b 25.819895
_cell_length_c 22.132125
_cell_angle_alpha 90.000000
_cell_angle_beta 90.000000
_cell_angle_gamma 90.000000
_cell_volume 5577.398501
_symmetry_space_group_name_H-M "I M M M"
_symmetry_group_IT_number 71
_symmetry_cell_setting 'orthorhombic'
loop_
_space_group_symop_operation_xyz
x,y,z
-x,-y,z
x,-y,-z
-x,y,-z
-x,-y,-z
x,y,-z
-x,y,z
x,-y,z
1/2+x,1/2+y,1/2+z
1/2-x,1/2-y,1/2+z
1/2+x,1/2-y,1/2-z
1/2-x,1/2+y,1/2-z
1/2-x,1/2-y,1/2-z
1/2+x,1/2+y,1/2-z
1/2-x,1/2+y,1/2+z
1/2+x,1/2-y,1/2+z
loop_
_atom_site_type_symbol
_atom_site_label
_atom_site_fract_x
_atom_site_fract_y
_atom_site_fract_z
Si Si1 0.343928 0.191999 0.596069
Si Si2 0.341969 0.560484 0.250421
Si Si3 0.342317 0.879752 0.161813
Si Si4 0.160174 0.812752 0.928949
Si Si5 0.663376 0.597487 0.884678
Si Si6 0.857597 0.707515 0.236996
Si Si7 0.158384 0.500000 0.072145
O O1 0.500000 0.181385 0.572920
O O2 0.307341 0.251284 0.579365
O O3 0.229930 0.148466 0.584294
O O4 0.352846 0.190085 0.668472
O O5 0.500000 0.568427 0.269391
O O6 0.324910 0.500000 0.233722
O O7 0.242581 0.574645 0.305804
O O8 0.322485 0.593758 0.188865
O O9 0.500000 0.892616 0.144891
O O10 0.257934 0.850339 0.109399
O O11 0.348883 0.838576 0.216331
O O12 0.000000 0.818571 0.910060
O O13 0.170228 0.824418 0.000000
O O14 0.500000 0.592789 0.897252
O O15 0.754976 0.549813 0.907587
O O16 0.750000 0.750000 0.250000
O O17 0.000000 0.735815 0.247088
O O18 0.000000 0.500000 0.095436
O O19 0.150953 0.500000 0.000000
#
# Coordination Sequence:
#
# PCOD9518957 Si02
#       7
#    16  16  16  16  16  16   8
#     4  10  20  35  54  82 118 154 193 235 282 339
#     4  10  21  38  59  86 119 152 188 234 293 355
#     4  11  22  35  56  87 117 149 189 237 296 352
#     4  10  22  40  60  81 112 158 203 240 283 345
#     4  11  22  37  59  88 119 152 194 245 296 342
#     4  10  19  30  49  79 112 145 183 226 275 329
#     4  11  25  43  61  79 107 155 206 247 290 343
#
# _framework density 18.646688000000001
#
# number of rings (size 3 to 8) (size 9 to 14) (size 15 to 20)
#    0.000    1.615    3.846    1.154    0.000    4.308 
#    0.000    1.538    0.000    0.462    0.000    3.231 
#    0.000    0.000    0.000    0.000    0.000    0.000 
#
# Total GULP energy -289790.824757 kJ/mol
# GULP energy per Si atom -5572.900476 kJ/mol
# Density = 1.860425 g / cm^3
# Si number density = 18.646688 Si / 1000 Ang^3
#
#
#
# Elastic Constant Matrix: (Units=GPa)
#
#
# Indices 1 2 3 4 5 6 
#
# 1 139.0974 50.6068 32.5814 0.0000 0.0000 0.0000
# 2 50.6068 44.9806 7.8265 0.0000 0.0000 0.0000
# 3 32.5814 7.8265 66.1961 0.0000 0.0000 0.0000
# 4 0.0000 0.0000 0.0000 -5.1986 0.0000 0.0000
# 5 0.0000 0.0000 0.0000 0.0000 22.1305 0.0000
# 6 0.0000 0.0000 0.0000 0.0000 0.0000 28.7190
#
#
#
# Elastic Compliance Matrix: (Units=1/GPa)
#
#
# Indices 1 2 3 4 5 6 
#
# 1 0.013616 -0.014451 -0.004993 0.000000 0.000000 0.000000
# 2 -0.014451 0.038035 0.002616 0.000000 0.000000 0.000000
# 3 -0.004993 0.002616 0.017255 0.000000 0.000000 0.000000
# 4 0.000000 0.000000 0.000000 -0.192359 0.000000 0.000000
# 5 0.000000 0.000000 0.000000 0.000000 0.045186 0.000000
# 6 0.000000 0.000000 0.000000 0.000000 0.000000 0.034820
#
#
# Mechanical properties :
#
#
# Convention : Reuss Voigt Hill
#
# Bulk Modulus (GPa) = 28.36925 48.03374 38.20149
# Shear Modulus (GPa) = 2550.99743 19.74747 1285.37245
#
# Velocity S-wave (km/s) = 37.02756 3.25781 26.28358
# Velocity P-wave (km/s) = 42.93367 6.32194 30.68605
#
# Compressibility (1/GPa) = 0.03524943
#
# Stress axis : x y z
#
# Youngs Moduli (GPa) = 73.44150 26.29173 57.95392
#
# Poissons Ratio (x) = 0.37993 0.28938
# Poissons Ratio (y) = 1.06127 -0.15158
# Poissons Ratio (z) = 0.36672 -0.06877
#
# Static dielectric constant tensor:
#      x y z
#    x 1.675000 0.000000 0.000000 
#    y 0.000000 1.638150 0.000000 
#    z 0.000000 0.000000 1.638010 
# 
# From -- ./inp_files/11041.got.cif
#   From: 2010.05.17/outbox.cif.g08.bks.cpg/sg71_6_cif.got.tgz:11041.got - 2010.06.03 16:22:01.
