data_PCOD9518891
_publ_section_title
;
Structure prediction by ZEFSAII (Michael W. Deem and Ramdas Pophale) SiO2 
 PCOD9518891
Probable space group: I M M M
;
_chemical_formula_sum "Si O2"
_cell_formula_units_Z 80
_cell_length_a 16.004757
_cell_length_b 27.010833
_cell_length_c 9.443080
_cell_angle_alpha 90.000000
_cell_angle_beta 90.000000
_cell_angle_gamma 90.000000
_cell_volume 4082.260657
_symmetry_space_group_name_H-M "I M M M"
_symmetry_group_IT_number 71
_symmetry_cell_setting 'orthorhombic'
loop_
_space_group_symop_operation_xyz
x,y,z
-x,-y,z
x,-y,-z
-x,y,-z
-x,-y,-z
x,y,-z
-x,y,z
x,-y,z
1/2+x,1/2+y,1/2+z
1/2-x,1/2-y,1/2+z
1/2+x,1/2-y,1/2-z
1/2-x,1/2+y,1/2-z
1/2-x,1/2-y,1/2-z
1/2+x,1/2+y,1/2-z
1/2-x,1/2+y,1/2+z
1/2+x,1/2-y,1/2+z
loop_
_atom_site_type_symbol
_atom_site_label
_atom_site_fract_x
_atom_site_fract_y
_atom_site_fract_z
Si Si1 0.337177 0.405324 0.838600
Si Si2 0.403082 0.699718 0.172218
Si Si3 0.136896 0.404610 0.838997
Si Si4 0.899492 0.307195 0.661771
Si Si5 0.839370 0.000000 0.162226
Si Si6 0.365453 0.000000 0.836741
O O1 0.358252 0.350550 0.782652
O O2 0.237206 0.409455 0.845779
O O3 0.367535 0.450575 0.743255
O O4 0.369905 0.409594 0.000000
O O5 0.500000 0.695665 0.214196
O O6 0.368723 0.753513 0.216531
O O7 0.399980 0.701314 0.000000
O O8 0.119152 0.353032 0.761916
O O9 0.106486 0.450906 0.746033
O O10 0.105039 0.405739 0.000000
O O11 0.869428 0.316094 0.500000
O O12 0.000000 0.302303 0.653821
O O13 0.736901 0.000000 0.163133
O O14 0.866159 0.000000 0.000000
O O15 0.392149 0.000000 0.000000
#
# Coordination Sequence:
#
# PCOD9518891 Si02
#       6
#    16  16  16  16   8   8
#     4   9  17  30  49  72  96 123 157 196 235 275
#     4   8  15  30  51  71  92 123 163 200 230 267
#     4  10  19  30  47  73 101 124 150 191 240 284
#     4   9  18  33  51  69  92 125 162 196 230 273
#     4   9  17  29  46  69  96 126 157 190 234 283
#     4   9  17  31  50  69  92 125 161 193 228 275
#
# _framework density 19.596986000000001
#
# number of rings (size 3 to 8) (size 9 to 14) (size 15 to 20)
#    0.000    3.000    0.000    2.400    0.000    4.400 
#    0.000    2.000    0.000    7.800    0.000    0.000 
#    0.000    0.000    0.000    0.000    0.000    0.000 
#
# Total GULP energy -222960.639597 kJ/mol
# GULP energy per Si atom -5574.015990 kJ/mol
# Density = 1.955238 g / cm^3
# Si number density = 19.596986 Si / 1000 Ang^3
#
#
#
# Elastic Constant Matrix: (Units=GPa)
#
#
# Indices 1 2 3 4 5 6 
#
# 1 8.7029 12.6737 8.4405 0.0000 0.0000 0.0000
# 2 12.6737 226.1723 110.4403 -0.0001 0.0002 0.0000
# 3 8.4405 110.4403 124.4151 -0.0006 0.0006 -0.0001
# 4 0.0000 -0.0001 -0.0006 15.7197 0.0004 0.0000
# 5 0.0000 0.0002 0.0006 0.0004 -2.3572 0.0000
# 6 0.0000 0.0000 -0.0001 0.0000 0.0000 46.0548
#
#
#
# Elastic Compliance Matrix: (Units=1/GPa)
#
#
# Indices 1 2 3 4 5 6 
#
# 1 0.126251 -0.005105 -0.004033 0.000000 0.000001 0.000000
# 2 -0.005105 0.008011 -0.006764 0.000000 -0.000001 0.000000
# 3 -0.004033 -0.006764 0.014316 0.000000 0.000003 0.000000
# 4 0.000000 0.000000 0.000000 0.063614 0.000010 0.000000
# 5 0.000001 -0.000001 0.000003 0.000010 -0.424237 0.000000
# 6 0.000000 0.000000 0.000000 0.000000 0.000000 0.021713
#
#
# Mechanical properties :
#
#
# Convention : Reuss Voigt Hill
#
# Bulk Modulus (GPa) = 8.56373 69.15545 38.85959
# Shear Modulus (GPa) = -41.80505 27.06587 -7.36959
#
# Velocity S-wave (km/s) = -4.62371 3.72038 -1.94132
# Velocity P-wave (km/s) = 4.91177 7.33624 3.85324
#
# Compressibility (1/GPa) = 0.11677148
#
# Stress axis : x y z
#
# Youngs Moduli (GPa) = 7.92074 124.83528 69.85253
#
# Poissons Ratio (x) = 0.63728 0.28175
# Poissons Ratio (y) = 0.04044 0.47251
# Poissons Ratio (z) = 0.03195 0.84444
#
# Static dielectric constant tensor:
#      x y z
#    x 1.703190 0.000000 0.000000 
#    y 0.000000 1.698570 0.000000 
#    z 0.000000 0.000000 1.672120 
# 
# From -- ./inp_files/8432.got.cif
#   From: 2010.05.17/outbox.cif.g08.bks.cpg/sg71_5_cif.got.tgz:8432.got - 2010.06.03 16:22:01.
