data_PCOD9518744
_publ_section_title
;
Structure prediction by ZEFSAII (Michael W. Deem and Ramdas Pophale) SiO2 
 PCOD9518744
Probable space group: I M M M
;
_chemical_formula_sum "Si O2"
_cell_formula_units_Z 58
_cell_length_a 8.553660
_cell_length_b 26.678882
_cell_length_c 14.794156
_cell_angle_alpha 90.000000
_cell_angle_beta 90.000000
_cell_angle_gamma 90.000000
_cell_volume 3376.057257
_symmetry_space_group_name_H-M "I M M M"
_symmetry_group_IT_number 71
_symmetry_cell_setting 'orthorhombic'
loop_
_space_group_symop_operation_xyz
x,y,z
-x,-y,z
x,-y,-z
-x,y,-z
-x,-y,-z
x,y,-z
-x,y,z
x,-y,z
1/2+x,1/2+y,1/2+z
1/2-x,1/2-y,1/2+z
1/2+x,1/2-y,1/2-z
1/2-x,1/2+y,1/2-z
1/2-x,1/2-y,1/2-z
1/2+x,1/2+y,1/2-z
1/2-x,1/2+y,1/2+z
1/2+x,1/2-y,1/2+z
loop_
_atom_site_type_symbol
_atom_site_label
_atom_site_fract_x
_atom_site_fract_y
_atom_site_fract_z
Si Si1 0.500000 0.500000 0.500000
Si Si2 0.309823 0.390281 0.307057
Si Si3 0.186522 0.702421 0.193419
Si Si4 0.173836 0.000000 0.188656
Si Si5 0.313937 0.731253 0.000000
Si Si6 0.689043 0.344181 0.500000
O O1 0.632747 0.500000 0.581251
O O2 0.500000 0.391274 0.303958
O O3 0.247724 0.348116 0.240036
O O4 0.251430 0.446640 0.288765
O O5 0.268592 0.373653 0.409110
O O6 0.250000 0.750000 0.250000
O O7 0.000000 0.704002 0.195735
O O8 0.245558 0.707491 0.091087
O O9 0.000000 0.000000 0.233255
O O10 0.265346 0.789692 0.000000
O O11 0.500000 0.727018 0.000000
O O12 0.500000 0.338248 0.500000
#
# Coordination Sequence:
#
# PCOD9518744 Si02
#       6
#     2  16  16   8   8   8
#     4   8  12  28  52  88 122 146 196 228 274 326
#     4  10  19  33  55  84 118 153 193 235 279 335
#     4  12  24  39  57  82 114 151 193 238 290 347
#     4   8  16  28  51  82 118 150 191 231 276 332
#     4  12  24  39  58  82 113 148 190 238 297 347
#     4  10  19  29  52  83 118 154 190 229 277 332
#
# _framework density 17.179804000000001
#
# number of rings (size 3 to 8) (size 9 to 14) (size 15 to 20)
#    0.414    1.103    2.759    4.552    1.931    0.000 
#    0.000    0.690    0.000    0.828    0.000    9.655 
#    0.000    0.000    0.000    0.000    0.000    0.000 
#
# Total GULP energy -161555.820008 kJ/mol
# GULP energy per Si atom -5570.890345 kJ/mol
# Density = 1.714070 g / cm^3
# Si number density = 17.179804 Si / 1000 Ang^3
#
#
#
# Elastic Constant Matrix: (Units=GPa)
#
#
# Indices 1 2 3 4 5 6 
#
# 1 45.6908 47.8327 37.9083 0.0000 0.0000 0.0000
# 2 47.8327 190.5845 84.6431 0.0000 0.0000 0.0000
# 3 37.9083 84.6431 129.7263 0.0001 0.0000 0.0000
# 4 0.0000 0.0000 0.0001 -3.4002 0.0000 0.0000
# 5 0.0000 0.0000 0.0000 0.0000 23.5669 0.0000
# 6 0.0000 0.0000 0.0000 0.0000 0.0000 19.9848
#
#
#
# Elastic Compliance Matrix: (Units=1/GPa)
#
#
# Indices 1 2 3 4 5 6 
#
# 1 0.032603 -0.005564 -0.005897 0.000000 0.000000 0.000000
# 2 -0.005564 0.008337 -0.003814 0.000000 0.000000 0.000000
# 3 -0.005897 -0.003814 0.011920 0.000000 0.000000 0.000000
# 4 0.000000 0.000000 0.000000 -0.294097 0.000000 0.000000
# 5 0.000000 0.000000 0.000000 0.000000 0.042432 0.000000
# 6 0.000000 0.000000 0.000000 0.000000 0.000000 0.050038
#
#
# Mechanical properties :
#
#
# Convention : Reuss Voigt Hill
#
# Bulk Modulus (GPa) = 44.82030 78.52996 61.67513
# Shear Modulus (GPa) = -45.13522 21.07147 -12.03187
#
# Velocity S-wave (km/s) = -5.13121 3.50598 -2.64928
# Velocity P-wave (km/s) = 2.99335 7.88664 5.15940
#
# Compressibility (1/GPa) = 0.02231132
#
# Stress axis : x y z
#
# Youngs Moduli (GPa) = 30.67162 119.94274 83.89012
#
# Poissons Ratio (x) = 0.66733 0.49471
# Poissons Ratio (y) = 0.17065 0.31996
# Poissons Ratio (z) = 0.18087 0.45747
#
# Static dielectric constant tensor:
#      x y z
#    x 1.590220 0.000000 0.000000 
#    y 0.000000 1.606710 0.000000 
#    z 0.000000 0.000000 1.552630 
# 
# From -- ./inp_files/31331.got.cif
#   From: 2010.05.17/outbox.cif.g08.bks.cpg/sg71_16_cif.got.tgz:31331.got - 2010.06.03 16:22:01.
