data_PCOD9518977
_publ_section_title
;
Structure prediction by ZEFSAII (Michael W. Deem and Ramdas Pophale) SiO2 
 PCOD9518977
Probable space group: I M M M
;
_chemical_formula_sum "Si O2"
_cell_formula_units_Z 92
_cell_length_a 7.607116
_cell_length_b 29.805942
_cell_length_c 24.582292
_cell_angle_alpha 90.000000
_cell_angle_beta 90.000000
_cell_angle_gamma 90.000000
_cell_volume 5573.721490
_symmetry_space_group_name_H-M "I M M M"
_symmetry_group_IT_number 71
_symmetry_cell_setting 'orthorhombic'
loop_
_space_group_symop_operation_xyz
x,y,z
-x,-y,z
x,-y,-z
-x,y,-z
-x,-y,-z
x,y,-z
-x,y,z
x,-y,z
1/2+x,1/2+y,1/2+z
1/2-x,1/2-y,1/2+z
1/2+x,1/2-y,1/2-z
1/2-x,1/2+y,1/2-z
1/2-x,1/2-y,1/2-z
1/2+x,1/2+y,1/2-z
1/2-x,1/2+y,1/2+z
1/2+x,1/2-y,1/2+z
loop_
_atom_site_type_symbol
_atom_site_label
_atom_site_fract_x
_atom_site_fract_y
_atom_site_fract_z
Si Si1 0.708898 0.248220 0.667261
Si Si2 0.000000 0.500000 0.737137
Si Si3 0.794859 0.824010 0.750941
Si Si4 0.211533 0.948398 0.000000
Si Si5 0.294127 0.108439 0.105780
Si Si6 0.795943 0.077680 0.776862
Si Si7 0.710932 0.203724 0.061678
O O1 0.500000 0.247261 0.674479
O O2 0.777758 0.202929 0.694734
O O3 0.781474 0.290271 0.703139
O O4 0.748564 0.257373 0.604555
O O5 0.156344 0.460907 0.735213
O O6 0.730412 0.874770 0.751614
O O7 0.000000 0.828751 0.764528
O O8 0.277090 0.923244 0.946440
O O9 0.000000 0.946796 0.000000
O O10 0.267947 0.000000 0.000000
O O11 0.500000 0.113305 0.119553
O O12 0.204172 0.087384 0.158225
O O13 0.222555 0.157074 0.087804
O O14 0.000000 0.068189 0.760415
O O15 0.500000 0.199443 0.058448
O O16 0.776309 0.209646 0.000000
#
# Coordination Sequence:
#
# PCOD9518977 Si02
#       7
#    16   4  16   8  16  16  16
#     4  10  19  30  51  79 103 131 171 215 267 326
#     4  12  26  40  56  79 102 144 177 234 278 318
#     4   9  19  34  52  76 104 135 170 218 267 321
#     4  11  25  37  47  63  87 125 175 231 280 324
#     4  11  21  36  52  70  93 131 176 225 278 320
#     4  11  23  39  57  77 104 137 180 223 275 327
#     4  10  20  34  50  70 101 139 177 217 267 326
#
# _framework density 16.506027
#
# number of rings (size 3 to 8) (size 9 to 14) (size 15 to 20)
#    0.000    1.652    3.478    1.565    2.435    2.435 
#    0.000    0.000    0.000    0.000    0.000    0.000 
#    0.000    0.000    0.000    1.565    0.000   13.130 
#
# Total GULP energy -256186.208450 kJ/mol
# GULP energy per Si atom -5569.265401 kJ/mol
# Density = 1.646846 g / cm^3
# Si number density = 16.506027 Si / 1000 Ang^3
#
#
#
# Elastic Constant Matrix: (Units=GPa)
#
#
# Indices 1 2 3 4 5 6 
#
# 1 74.9707 30.3377 0.9851 0.0000 0.0000 0.0000
# 2 30.3377 137.7316 40.5319 0.0000 0.0000 0.0000
# 3 0.9851 40.5319 35.0216 0.0000 0.0000 0.0000
# 4 0.0000 0.0000 0.0000 -66.1281 -0.0001 0.0000
# 5 0.0000 0.0000 0.0000 -0.0001 51.8735 0.0000
# 6 0.0000 0.0000 0.0000 0.0000 0.0000 21.1173
#
#
#
# Elastic Compliance Matrix: (Units=1/GPa)
#
#
# Indices 1 2 3 4 5 6 
#
# 1 0.015254 -0.004904 0.005246 0.000000 0.000000 0.000000
# 2 -0.004904 0.012587 -0.014429 0.000000 0.000000 0.000000
# 3 0.005246 -0.014429 0.045106 0.000000 0.000000 0.000000
# 4 0.000000 0.000000 0.000000 -0.015122 0.000000 0.000000
# 5 0.000000 0.000000 0.000000 0.000000 0.019278 0.000000
# 6 0.000000 0.000000 0.000000 0.000000 0.000000 0.047355
#
#
# Mechanical properties :
#
#
# Convention : Reuss Voigt Hill
#
# Bulk Modulus (GPa) = 22.33490 43.49261 32.91376
# Shear Modulus (GPa) = 29.84090 13.09717 21.46903
#
# Velocity S-wave (km/s) = 4.25653 2.81993 3.61040
# Velocity P-wave (km/s) = 6.14151 6.08354 6.11259
#
# Compressibility (1/GPa) = 0.04477298
#
# Stress axis : x y z
#
# Youngs Moduli (GPa) = 65.55661 79.44716 22.17001
#
# Poissons Ratio (x) = 0.38960 -0.11631
# Poissons Ratio (y) = 0.32148 0.31990
# Poissons Ratio (z) = -0.34393 1.14638
#
# Static dielectric constant tensor:
#      x y z
#    x 1.619240 0.000000 0.000000 
#    y 0.000000 1.569200 0.000000 
#    z 0.000000 0.000000 1.548160 
# 
# From -- ./inp_files/15183.got.cif
#   From: 2010.05.17/outbox.cif.g08.bks.cpg/sg71_8_cif.got.tgz:15183.got - 2010.06.03 16:22:01.
