data_PCOD9518237
_publ_section_title
;
Structure prediction by ZEFSAII (Michael W. Deem and Ramdas Pophale) SiO2 
 PCOD9518237
Probable space group: I M M M
;
_chemical_formula_sum "Si O2"
_cell_formula_units_Z 104
_cell_length_a 17.269779
_cell_length_b 26.980411
_cell_length_c 13.358375
_cell_angle_alpha 90.000000
_cell_angle_beta 90.000000
_cell_angle_gamma 90.000000
_cell_volume 6224.277862
_symmetry_space_group_name_H-M "I M M M"
_symmetry_group_IT_number 71
_symmetry_cell_setting 'orthorhombic'
loop_
_space_group_symop_operation_xyz
x,y,z
-x,-y,z
x,-y,-z
-x,y,-z
-x,-y,-z
x,y,-z
-x,y,z
x,-y,z
1/2+x,1/2+y,1/2+z
1/2-x,1/2-y,1/2+z
1/2+x,1/2-y,1/2-z
1/2-x,1/2+y,1/2-z
1/2-x,1/2-y,1/2-z
1/2+x,1/2+y,1/2-z
1/2-x,1/2+y,1/2+z
1/2+x,1/2-y,1/2+z
loop_
_atom_site_type_symbol
_atom_site_label
_atom_site_fract_x
_atom_site_fract_y
_atom_site_fract_z
Si Si1 0.591538 0.500000 0.119688
Si Si2 0.500000 0.071425 0.613819
Si Si3 0.172995 0.557218 0.117288
Si Si4 0.143930 0.744403 0.815293
Si Si5 0.689453 0.707824 0.114847
Si Si6 0.500000 0.188405 0.612708
Si Si7 0.407606 0.647534 0.616229
Si Si8 0.324888 0.400465 0.198822
O O1 0.500000 0.500000 0.144044
O O2 0.630176 0.550832 0.159787
O O3 0.600514 0.500000 0.000000
O O4 0.500000 0.051765 0.500000
O O5 0.584317 0.057834 0.655416
O O6 0.500000 0.130099 0.608513
O O7 0.198181 0.500000 0.114591
O O8 0.233978 0.586727 0.184628
O O9 0.174106 0.575359 0.000000
O O10 0.220511 0.718755 0.859573
O O11 0.149676 0.758139 0.698529
O O12 0.124390 0.796574 0.869003
O O13 0.074985 0.707438 0.833043
O O14 0.665951 0.650712 0.136092
O O15 0.673705 0.720104 0.000000
O O16 0.500000 0.209176 0.500000
O O17 0.399462 0.633306 0.500000
O O18 0.500000 0.646836 0.641162
O O19 0.358381 0.613481 0.692044
#
# Coordination Sequence:
#
# PCOD9518237 Si02
#       8
#     8   8  16  16  16   8  16  16
#     4  11  22  36  53  74 104 144 184 220 261 319
#     4   9  19  30  47  79 109 138 173 212 259 315
#     4  10  18  31  51  75 109 143 172 211 263 320
#     4  10  20  32  53  78 103 139 178 213 260 318
#     4  10  20  34  51  76 108 138 173 218 264 313
#     4  11  18  29  49  72 101 132 172 215 253 304
#     4  10  20  36  56  77 105 139 179 230 275 313
#     4  11  21  34  54  78 106 140 182 217 268 326
#
# _framework density 16.708765
#
# number of rings (size 3 to 8) (size 9 to 14) (size 15 to 20)
#    0.000    1.769    1.538    4.385    0.000    2.154 
#    0.000    0.769    0.000    1.385    0.000    1.615 
#    0.000    1.231    0.000    0.000    0.000    0.000 
#
# Total GULP energy -289834.397272 kJ/mol
# GULP energy per Si atom -5573.738409 kJ/mol
# Density = 1.667074 g / cm^3
# Si number density = 16.708765 Si / 1000 Ang^3
#
#
#
# Elastic Constant Matrix: (Units=GPa)
#
#
# Indices 1 2 3 4 5 6 
#
# 1 96.3428 45.6063 54.8094 0.0000 0.0000 0.0000
# 2 45.6063 87.9357 29.9769 -0.0001 0.0000 0.0000
# 3 54.8094 29.9769 97.9901 -0.0005 0.0001 0.0001
# 4 0.0000 -0.0001 -0.0005 12.6509 0.0000 0.0000
# 5 0.0000 0.0000 0.0001 0.0000 20.9778 0.0000
# 6 0.0000 0.0000 0.0001 0.0000 0.0000 31.4344
#
#
#
# Elastic Compliance Matrix: (Units=1/GPa)
#
#
# Indices 1 2 3 4 5 6 
#
# 1 0.018140 -0.006642 -0.008115 0.000000 0.000000 0.000000
# 2 -0.006642 0.015128 -0.000913 0.000000 0.000000 0.000000
# 3 -0.008115 -0.000913 0.015023 0.000001 0.000000 0.000000
# 4 0.000000 0.000000 0.000001 0.079046 0.000000 0.000000
# 5 0.000000 0.000000 0.000000 0.000000 0.047669 0.000000
# 6 0.000000 0.000000 0.000000 0.000000 0.000000 0.031812
#
#
# Mechanical properties :
#
#
# Convention : Reuss Voigt Hill
#
# Bulk Modulus (GPa) = 58.98813 60.33931 59.66372
# Shear Modulus (GPa) = 20.50799 23.13771 21.82285
#
# Velocity S-wave (km/s) = 3.50720 3.72528 3.61788
# Velocity P-wave (km/s) = 7.19590 7.39556 7.29641
#
# Compressibility (1/GPa) = 0.01695256
#
# Stress axis : x y z
#
# Youngs Moduli (GPa) = 55.12677 66.10356 66.56413
#
# Poissons Ratio (x) = 0.43905 0.54014
# Poissons Ratio (y) = 0.36614 0.06076
# Poissons Ratio (z) = 0.44733 0.06034
#
# Static dielectric constant tensor:
#      x y z
#    x 1.587110 0.000000 0.000000 
#    y 0.000000 1.561830 0.000000 
#    z 0.000000 0.000000 1.544610 
# 
# From -- ./inp_files/24634.got.cif
#   From: 2010.05.17/outbox.cif.g08.bks.cpg/sg71_13_cif.got.tgz:24634.got - 2010.06.03 16:22:01.
