data_PCOD9518109
_publ_section_title
;
Structure prediction by ZEFSAII (Michael W. Deem and Ramdas Pophale) SiO2 
 PCOD9518109
Probable space group: I M M M
;
_chemical_formula_sum "Si O2"
_cell_formula_units_Z 80
_cell_length_a 8.334878
_cell_length_b 19.203068
_cell_length_c 27.176555
_cell_angle_alpha 90.000000
_cell_angle_beta 90.000000
_cell_angle_gamma 90.000000
_cell_volume 4349.749734
_symmetry_space_group_name_H-M "I M M M"
_symmetry_group_IT_number 71
_symmetry_cell_setting 'orthorhombic'
loop_
_space_group_symop_operation_xyz
x,y,z
-x,-y,z
x,-y,-z
-x,y,-z
-x,-y,-z
x,y,-z
-x,y,z
x,-y,z
1/2+x,1/2+y,1/2+z
1/2-x,1/2-y,1/2+z
1/2+x,1/2-y,1/2-z
1/2-x,1/2+y,1/2-z
1/2-x,1/2-y,1/2-z
1/2+x,1/2+y,1/2-z
1/2-x,1/2+y,1/2+z
1/2+x,1/2-y,1/2+z
loop_
_atom_site_type_symbol
_atom_site_label
_atom_site_fract_x
_atom_site_fract_y
_atom_site_fract_z
Si Si1 0.805016 0.075959 0.442242
Si Si2 0.309026 0.921451 0.157727
Si Si3 0.309318 0.635193 0.555032
Si Si4 0.190607 0.777015 0.596832
Si Si5 0.689374 0.279970 0.698583
O O1 0.765148 0.081271 0.500000
O O2 0.749666 0.145639 0.415484
O O3 0.000000 0.075468 0.439031
O O4 0.748710 0.000000 0.424131
O O5 0.500000 0.916340 0.164691
O O6 0.271453 0.904635 0.100484
O O7 0.227044 0.861615 0.190162
O O8 0.256396 0.000000 0.169088
O O9 0.254570 0.615941 0.500000
O O10 0.500000 0.623644 0.558055
O O11 0.273738 0.716763 0.564833
O O12 0.223302 0.758177 0.653322
O O13 0.000000 0.773279 0.586992
O O14 0.500000 0.269179 0.693881
O O15 0.750000 0.250000 0.750000
#
# Coordination Sequence:
#
# PCOD9518109 Si02
#       5
#    16  16  16  16  16
#     4   8  14  25  43  70 103 136 169 206 248 294
#     4  10  21  37  57  81 108 136 169 212 260 309
#     4  10  20  32  48  73 106 143 179 213 251 301
#     4  10  18  30  51  76 101 132 172 217 262 309
#     4  11  22  38  59  79 102 133 170 213 260 310
#
# _framework density 18.391862
#
# number of rings (size 3 to 8) (size 9 to 14) (size 15 to 20)
#    0.000    2.200    0.000    7.200    0.000    4.400 
#    0.000    3.000    0.000    6.000    0.000    7.000 
#    0.000    0.000    0.000    0.000    0.000    0.000 
#
# Total GULP energy -223192.521805 kJ/mol
# GULP energy per Si atom -5579.813045 kJ/mol
# Density = 1.835000 g / cm^3
# Si number density = 18.391862 Si / 1000 Ang^3
#
#
#
# Elastic Constant Matrix: (Units=GPa)
#
#
# Indices 1 2 3 4 5 6 
#
# 1 19.6535 -9.0180 -12.1518 0.0000 0.0000 0.0000
# 2 -9.0180 115.8764 18.1730 0.0000 0.0000 0.0000
# 3 -12.1518 18.1730 61.3627 0.0000 0.0000 0.0000
# 4 0.0000 0.0000 0.0000 9.1819 0.0000 0.0000
# 5 0.0000 0.0000 0.0000 0.0000 23.8990 0.0000
# 6 0.0000 0.0000 0.0000 0.0000 0.0000 11.9785
#
#
#
# Elastic Compliance Matrix: (Units=1/GPa)
#
#
# Indices 1 2 3 4 5 6 
#
# 1 0.058889 0.002888 0.010806 0.000000 0.000000 0.000000
# 2 0.002888 0.009192 -0.002150 0.000000 0.000000 0.000000
# 3 0.010806 -0.002150 0.019073 0.000000 0.000000 0.000000
# 4 0.000000 0.000000 0.000000 0.108910 0.000000 0.000000
# 5 0.000000 0.000000 0.000000 0.000000 0.041843 0.000000
# 6 0.000000 0.000000 0.000000 0.000000 0.000000 0.083483
#
#
# Mechanical properties :
#
#
# Convention : Reuss Voigt Hill
#
# Bulk Modulus (GPa) = 9.07092 21.21101 15.14097
# Shear Modulus (GPa) = 14.92322 22.33784 18.63053
#
# Velocity S-wave (km/s) = 2.85160 3.48882 3.18618
# Velocity P-wave (km/s) = 3.97303 5.27134 4.66754
#
# Compressibility (1/GPa) = 0.11024240
#
# Stress axis : x y z
#
# Youngs Moduli (GPa) = 16.98124 108.79156 52.42912
#
# Poissons Ratio (x) = -0.31421 -0.56657
# Poissons Ratio (y) = -0.04905 0.11274
# Poissons Ratio (z) = -0.18351 0.23393
#
# Static dielectric constant tensor:
#      x y z
#    x 1.625570 0.000000 0.000000 
#    y 0.000000 1.662760 0.000000 
#    z 0.000000 0.000000 1.607860 
# 
# From -- ./inp_files/8592.got.cif
#   From: 2010.05.17/outbox.cif.g08.bks.cpg/sg71_5_cif.got.tgz:8592.got - 2010.06.03 16:22:01.
