data_PCOD9518765
_publ_section_title
;
Structure prediction by ZEFSAII (Michael W. Deem and Ramdas Pophale) SiO2 
 PCOD9518765
Probable space group: I M M M
;
_chemical_formula_sum "Si O2"
_cell_formula_units_Z 104
_cell_length_a 25.478738
_cell_length_b 34.076733
_cell_length_c 8.625318
_cell_angle_alpha 90.000000
_cell_angle_beta 90.000000
_cell_angle_gamma 90.000000
_cell_volume 7488.778409
_symmetry_space_group_name_H-M "I M M M"
_symmetry_group_IT_number 71
_symmetry_cell_setting 'orthorhombic'
loop_
_space_group_symop_operation_xyz
x,y,z
-x,-y,z
x,-y,-z
-x,y,-z
-x,-y,-z
x,y,-z
-x,y,z
x,-y,z
1/2+x,1/2+y,1/2+z
1/2-x,1/2-y,1/2+z
1/2+x,1/2-y,1/2-z
1/2-x,1/2+y,1/2-z
1/2-x,1/2-y,1/2-z
1/2+x,1/2+y,1/2-z
1/2-x,1/2+y,1/2+z
1/2+x,1/2-y,1/2+z
loop_
_atom_site_type_symbol
_atom_site_label
_atom_site_fract_x
_atom_site_fract_y
_atom_site_fract_z
Si Si1 0.442658 0.249819 0.686980
Si Si2 0.727298 0.311253 0.185662
Si Si3 0.615715 0.545154 0.187683
Si Si4 0.000000 0.047720 0.677031
Si Si5 0.661036 0.380095 0.316782
Si Si6 0.671094 0.234158 0.686934
Si Si7 0.941305 0.161904 0.685095
O O1 0.441431 0.255095 0.500000
O O2 0.500000 0.232609 0.726642
O O3 0.389440 0.227273 0.730773
O O4 0.439826 0.292609 0.764752
O O5 0.706437 0.352027 0.251632
O O6 0.690306 0.275724 0.244699
O O7 0.786080 0.298303 0.233884
O O8 0.724484 0.312501 0.000000
O O9 0.625591 0.500000 0.232701
O O10 0.556954 0.557102 0.245869
O O11 0.657373 0.576371 0.247143
O O12 0.613515 0.546407 0.000000
O O13 0.000000 0.063178 0.500000
O O14 0.000000 0.000000 0.667477
O O15 0.664785 0.381793 0.500000
O O16 0.606291 0.359709 0.267138
O O17 0.673879 0.237297 0.500000
O O18 0.934635 0.158636 0.500000
O O19 0.000000 0.146947 0.724672
#
# Coordination Sequence:
#
# PCOD9518765 Si02
#       7
#    16  16  16   8  16  16  16
#     4   9  16  27  43  62  84 106 128 162 210 255
#     4  10  19  30  44  60  79 107 141 172 202 239
#     4   9  18  33  50  64  78  99 129 165 206 252
#     4   7  12  26  47  65  77  93 121 157 199 249
#     4  12  23  32  43  60  83 105 134 170 210 251
#     4   9  17  29  44  62  83 106 134 169 208 245
#     4  10  20  31  42  57  77 103 136 171 208 249
#
# _framework density 13.887445
#
# number of rings (size 3 to 8) (size 9 to 14) (size 15 to 20)
#    0.000    2.385    1.538    3.231    1.077    1.846 
#    0.000    0.000    0.000    1.385    0.000    0.000 
#    0.000    0.000    0.000    0.000    0.000    0.769 
#
# Total GULP energy -289833.121610 kJ/mol
# GULP energy per Si atom -5573.713877 kJ/mol
# Density = 1.385584 g / cm^3
# Si number density = 13.887445 Si / 1000 Ang^3
#
#
#
# Elastic Constant Matrix: (Units=GPa)
#
#
# Indices 1 2 3 4 5 6 
#
# 1 103.3023 49.9675 22.0608 0.0000 0.0000 0.0000
# 2 49.9675 75.9468 20.1384 0.0000 0.0000 0.0000
# 3 22.0608 20.1384 22.2793 0.0000 0.0000 0.0000
# 4 0.0000 0.0000 0.0000 15.2578 0.0000 0.0000
# 5 0.0000 0.0000 0.0000 0.0000 12.2628 0.0000
# 6 0.0000 0.0000 0.0000 0.0000 0.0000 24.9217
#
#
#
# Elastic Compliance Matrix: (Units=1/GPa)
#
#
# Indices 1 2 3 4 5 6 
#
# 1 0.015187 -0.007897 -0.007900 0.000000 0.000000 0.000000
# 2 -0.007897 0.021425 -0.011546 0.000000 0.000000 0.000000
# 3 -0.007900 -0.011546 0.063143 0.000000 0.000000 0.000000
# 4 0.000000 0.000000 0.000000 0.065540 0.000000 0.000000
# 5 0.000000 0.000000 0.000000 0.000000 0.081547 0.000000
# 6 0.000000 0.000000 0.000000 0.000000 0.000000 0.040126
#
#
# Mechanical properties :
#
#
# Convention : Reuss Voigt Hill
#
# Bulk Modulus (GPa) = 22.18813 42.87353 32.53083
# Shear Modulus (GPa) = 14.01824 17.77925 15.89874
#
# Velocity S-wave (km/s) = 3.18058 3.58192 3.38720
# Velocity P-wave (km/s) = 5.43138 6.93153 6.22680
#
# Compressibility (1/GPa) = 0.04506915
#
# Stress axis : x y z
#
# Youngs Moduli (GPa) = 65.84409 46.67530 15.83694
#
# Poissons Ratio (x) = 0.36862 0.12511
# Poissons Ratio (y) = 0.52000 0.18285
# Poissons Ratio (z) = 0.52016 0.53891
#
# Static dielectric constant tensor:
#      x y z
#    x 1.490060 0.000000 0.000000 
#    y 0.000000 1.453530 0.000000 
#    z 0.000000 0.000000 1.464540 
# 
# From -- ./inp_files/15541.got.cif
#   From: 2010.05.17/outbox.cif.g08.bks.cpg/sg71_8_cif.got.tgz:15541.got - 2010.06.03 16:22:01.
