data_PCOD9518617
_publ_section_title
;
Structure prediction by ZEFSAII (Michael W. Deem and Ramdas Pophale) SiO2 
 PCOD9518617
Probable space group: I M M M
;
_chemical_formula_sum "Si O2"
_cell_formula_units_Z 96
_cell_length_a 22.747864
_cell_length_b 22.100352
_cell_length_c 9.064559
_cell_angle_alpha 90.000000
_cell_angle_beta 90.000000
_cell_angle_gamma 90.000000
_cell_volume 4557.078335
_symmetry_space_group_name_H-M "I M M M"
_symmetry_group_IT_number 71
_symmetry_cell_setting 'orthorhombic'
loop_
_space_group_symop_operation_xyz
x,y,z
-x,-y,z
x,-y,-z
-x,y,-z
-x,-y,-z
x,y,-z
-x,y,z
x,-y,z
1/2+x,1/2+y,1/2+z
1/2-x,1/2-y,1/2+z
1/2+x,1/2-y,1/2-z
1/2-x,1/2+y,1/2-z
1/2-x,1/2-y,1/2-z
1/2+x,1/2+y,1/2-z
1/2-x,1/2+y,1/2+z
1/2+x,1/2-y,1/2+z
loop_
_atom_site_type_symbol
_atom_site_label
_atom_site_fract_x
_atom_site_fract_y
_atom_site_fract_z
Si Si1 0.565473 0.196833 0.821291
Si Si2 0.794364 0.410338 0.664631
Si Si3 0.822530 0.072086 0.662508
Si Si4 0.565580 0.573962 0.670392
Si Si5 0.689895 0.232700 0.165859
Si Si6 0.409732 0.932937 0.324751
O O1 0.500000 0.220782 0.784870
O O2 0.622552 0.236711 0.771842
O O3 0.568473 0.128055 0.756377
O O4 0.570069 0.192673 0.000000
O O5 0.803527 0.434804 0.500000
O O6 0.728898 0.418815 0.721394
O O7 0.805178 0.339372 0.655714
O O8 0.840891 0.434744 0.781757
O O9 0.807346 0.095447 0.500000
O O10 0.883509 0.097337 0.724116
O O11 0.829891 0.000000 0.650853
O O12 0.576543 0.590636 0.500000
O O13 0.500000 0.592984 0.713045
O O14 0.566200 0.500000 0.674016
O O15 0.750000 0.250000 0.250000
O O16 0.691559 0.258858 0.000000
O O17 0.418219 0.926096 0.500000
O O18 0.433205 0.000000 0.282012
#
# Coordination Sequence:
#
# PCOD9518617 Si02
#       6
#    16  16  16  16  16  16
#     4   9  19  36  56  79 108 142 181 220 258 310
#     4  10  20  33  49  70  96 128 169 210 249 302
#     4  10  19  28  41  65  95 125 158 198 245 294
#     4   8  14  25  40  57  79 112 154 194 233 282
#     4   9  19  35  56  80 101 126 164 211 262 312
#     4  10  20  32  47  72 108 145 179 216 257 301
#
# _framework density 21.066130000000001
#
# number of rings (size 3 to 8) (size 9 to 14) (size 15 to 20)
#    0.000    2.667    0.000    3.500    0.000    8.667 
#    0.000    3.333    0.000    1.000    0.000    4.667 
#    0.000    0.000    0.000    0.000    0.000    0.000 
#
# Total GULP energy -267339.747519 kJ/mol
# GULP energy per Si atom -5569.578073 kJ/mol
# Density = 2.101818 g / cm^3
# Si number density = 21.066130 Si / 1000 Ang^3
#
#
#
# Elastic Constant Matrix: (Units=GPa)
#
#
# Indices 1 2 3 4 5 6 
#
# 1 159.0844 9.8512 28.5037 0.0000 0.0000 0.0000
# 2 9.8512 40.1009 -0.0652 0.0000 0.0000 0.0000
# 3 28.5037 -0.0652 37.8958 0.0000 0.0000 0.0000
# 4 0.0000 0.0000 0.0000 12.0939 0.0000 0.0000
# 5 0.0000 0.0000 0.0000 0.0000 21.7196 0.0000
# 6 0.0000 0.0000 0.0000 0.0000 0.0000 14.2797
#
#
#
# Elastic Compliance Matrix: (Units=1/GPa)
#
#
# Indices 1 2 3 4 5 6 
#
# 1 0.007396 -0.001826 -0.005566 0.000000 0.000000 0.000000
# 2 -0.001826 0.025388 0.001417 0.000000 0.000000 0.000000
# 3 -0.005566 0.001417 0.030577 0.000000 0.000000 0.000000
# 4 0.000000 0.000000 0.000000 0.082686 0.000000 0.000000
# 5 0.000000 0.000000 0.000000 0.000000 0.046041 0.000000
# 6 0.000000 0.000000 0.000000 0.000000 0.000000 0.070029
#
#
# Mechanical properties :
#
#
# Convention : Reuss Voigt Hill
#
# Bulk Modulus (GPa) = 19.45101 34.85114 27.15107
# Shear Modulus (GPa) = 17.16995 22.87141 20.02068
#
# Velocity S-wave (km/s) = 2.85801 3.29856 3.08616
# Velocity P-wave (km/s) = 4.48824 5.57557 5.06119
#
# Compressibility (1/GPa) = 0.05141122
#
# Stress axis : x y z
#
# Youngs Moduli (GPa) = 135.20088 39.38873 32.70388
#
# Poissons Ratio (x) = 0.07193 0.18204
# Poissons Ratio (y) = 0.24688 -0.04635
# Poissons Ratio (z) = 0.75258 -0.05582
#
# Static dielectric constant tensor:
#      x y z
#    x 1.842450 0.000000 0.000000 
#    y 0.000000 1.794450 0.000000 
#    z 0.000000 0.000000 1.759290 
# 
# From -- ./inp_files/12852.got.cif
#   From: 2010.05.17/outbox.cif.g08.bks.cpg/sg71_7_cif.got.tgz:12852.got - 2010.06.03 16:22:01.
