data_PCOD9518292
_publ_section_title
;
Structure prediction by ZEFSAII (Michael W. Deem and Ramdas Pophale) SiO2 
 PCOD9518292
Probable space group: I M M M
;
_chemical_formula_sum "Si O2"
_cell_formula_units_Z 66
_cell_length_a 24.786045
_cell_length_b 7.708250
_cell_length_c 23.138283
_cell_angle_alpha 90.000000
_cell_angle_beta 90.000000
_cell_angle_gamma 90.000000
_cell_volume 4420.731661
_symmetry_space_group_name_H-M "I M M M"
_symmetry_group_IT_number 71
_symmetry_cell_setting 'orthorhombic'
loop_
_space_group_symop_operation_xyz
x,y,z
-x,-y,z
x,-y,-z
-x,y,-z
-x,-y,-z
x,y,-z
-x,y,z
x,-y,z
1/2+x,1/2+y,1/2+z
1/2-x,1/2-y,1/2+z
1/2+x,1/2-y,1/2-z
1/2-x,1/2+y,1/2-z
1/2-x,1/2-y,1/2-z
1/2+x,1/2+y,1/2-z
1/2-x,1/2+y,1/2+z
1/2+x,1/2-y,1/2+z
loop_
_atom_site_type_symbol
_atom_site_label
_atom_site_fract_x
_atom_site_fract_y
_atom_site_fract_z
Si Si1 0.749746 0.799297 0.651736
Si Si2 0.500000 0.000000 0.000000
Si Si3 0.911412 0.500000 0.397282
Si Si4 0.714037 0.000000 0.068282
Si Si5 0.166620 0.291586 0.248446
Si Si6 0.437937 0.300127 0.806448
O O1 0.761540 0.668433 0.600131
O O2 0.798423 0.783732 0.698445
O O3 0.697112 0.746856 0.689234
O O4 0.745189 0.000000 0.633936
O O5 0.546985 0.000000 0.050453
O O6 0.850038 0.500000 0.418800
O O7 0.922103 0.667676 0.357147
O O8 0.723416 0.000000 0.000000
O O9 0.168663 0.500000 0.254167
O O10 0.105604 0.230091 0.256102
O O11 0.500000 0.266835 0.789551
O O12 0.434035 0.500000 0.825852
#
# Coordination Sequence:
#
# PCOD9518292 Si02
#       6
#    16   2   8   8  16  16
#     4  10  20  33  51  76 101 130 169 213 269 315
#     4  12  24  40  58  56 104 162 180 236 238 272
#     4  12  22  38  50  70  98 139 188 220 252 286
#     4  12  24  36  52  74 103 140 186 216 249 311
#     4  10  18  31  53  77 102 130 164 214 271 322
#     4  11  21  32  50  74 102 132 168 215 263 303
#
# _framework density 14.929655
#
# number of rings (size 3 to 8) (size 9 to 14) (size 15 to 20)
#    0.000    1.212    6.667    0.727    3.394    0.485 
#    0.000    1.212    0.000    0.000    0.000    0.000 
#    0.000    1.939    0.000    5.333    0.000    0.000 
#
# Total GULP energy -183898.555402 kJ/mol
# GULP energy per Si atom -5572.683497 kJ/mol
# Density = 1.489567 g / cm^3
# Si number density = 14.929655 Si / 1000 Ang^3
#
#
#
# Elastic Constant Matrix: (Units=GPa)
#
#
# Indices 1 2 3 4 5 6 
#
# 1 108.1004 44.4295 75.7556 0.0000 0.0000 0.0000
# 2 44.4295 95.8417 59.7934 0.0000 0.0000 0.0000
# 3 75.7556 59.7934 102.1893 0.0000 0.0000 0.0000
# 4 0.0000 0.0000 0.0000 10.7385 0.0000 0.0000
# 5 0.0000 0.0000 0.0000 0.0000 35.1565 0.0000
# 6 0.0000 0.0000 0.0000 0.0000 0.0000 19.0928
#
#
#
# Elastic Compliance Matrix: (Units=1/GPa)
#
#
# Indices 1 2 3 4 5 6 
#
# 1 0.019253 -0.000033 -0.014253 0.000000 0.000000 0.000000
# 2 -0.000033 0.016433 -0.009591 0.000000 0.000000 0.000000
# 3 -0.014253 -0.009591 0.025964 0.000000 0.000000 0.000000
# 4 0.000000 0.000000 0.000000 0.093122 0.000000 0.000000
# 5 0.000000 0.000000 0.000000 0.000000 0.028444 0.000000
# 6 0.000000 0.000000 0.000000 0.000000 0.000000 0.052376
#
#
# Mechanical properties :
#
#
# Convention : Reuss Voigt Hill
#
# Bulk Modulus (GPa) = 71.96624 74.00983 72.98803
# Shear Modulus (GPa) = 17.36247 21.40777 19.38512
#
# Velocity S-wave (km/s) = 3.41391 3.79081 3.60728
# Velocity P-wave (km/s) = 7.99049 8.29700 8.14519
#
# Compressibility (1/GPa) = 0.01389541
#
# Stress axis : x y z
#
# Youngs Moduli (GPa) = 51.94062 60.85495 38.51474
#
# Poissons Ratio (x) = 0.00198 0.54897
# Poissons Ratio (y) = 0.00169 0.36939
# Poissons Ratio (z) = 0.74033 0.58365
#
# Static dielectric constant tensor:
#      x y z
#    x 1.514760 0.000000 0.000000 
#    y 0.000000 1.518170 0.000000 
#    z 0.000000 0.000000 1.459430 
# 
# From -- ./inp_files/55390.got.cif
#   From: 2010.05.17/outbox.cif.g08.bks.cpg/sg71_28_cif.got.tgz:55390.got - 2010.06.03 16:22:01.
