data_PCOD9518702
_publ_section_title
;
Structure prediction by ZEFSAII (Michael W. Deem and Ramdas Pophale) SiO2 
 PCOD9518702
Probable space group: I M M M
;
_chemical_formula_sum "Si O2"
_cell_formula_units_Z 112
_cell_length_a 32.952804
_cell_length_b 14.832583
_cell_length_c 13.938384
_cell_angle_alpha 90.000000
_cell_angle_beta 90.000000
_cell_angle_gamma 90.000000
_cell_volume 6812.736433
_symmetry_space_group_name_H-M "I M M M"
_symmetry_group_IT_number 71
_symmetry_cell_setting 'orthorhombic'
loop_
_space_group_symop_operation_xyz
x,y,z
-x,-y,z
x,-y,-z
-x,y,-z
-x,-y,-z
x,y,-z
-x,y,z
x,-y,z
1/2+x,1/2+y,1/2+z
1/2-x,1/2-y,1/2+z
1/2+x,1/2-y,1/2-z
1/2-x,1/2+y,1/2-z
1/2-x,1/2-y,1/2-z
1/2+x,1/2+y,1/2-z
1/2-x,1/2+y,1/2+z
1/2+x,1/2-y,1/2+z
loop_
_atom_site_type_symbol
_atom_site_label
_atom_site_fract_x
_atom_site_fract_y
_atom_site_fract_z
Si Si1 0.413142 0.102897 0.613126
Si Si2 0.377499 0.393832 0.616284
Si Si3 0.708213 0.219544 0.114708
Si Si4 0.044630 0.783675 0.116092
Si Si5 0.750962 0.602732 0.886223
Si Si6 0.212052 0.104313 0.883713
Si Si7 0.832274 0.605208 0.235993
O O1 0.402616 0.111868 0.500000
O O2 0.446084 0.178857 0.635084
O O3 0.372902 0.119179 0.675149
O O4 0.426807 0.000000 0.628643
O O5 0.377585 0.385432 0.500000
O O6 0.380950 0.500000 0.637815
O O7 0.416585 0.339863 0.652051
O O8 0.332549 0.363403 0.648713
O O9 0.717576 0.323074 0.139516
O O10 0.749770 0.165649 0.140810
O O11 0.673317 0.172016 0.175246
O O12 0.702039 0.211669 0.000000
O O13 0.000000 0.810523 0.151710
O O14 0.043925 0.794447 0.000000
O O15 0.737946 0.500000 0.868649
O O16 0.793229 0.618544 0.832317
O O17 0.758686 0.613037 0.000000
O O18 0.218252 0.000000 0.853827
O O19 0.210674 0.103483 0.000000
O O20 0.831448 0.500000 0.267377
#
# Coordination Sequence:
#
# PCOD9518702 Si02
#       7
#    16  16  16  16  16  16  16
#     4   9  18  31  46  63  85 115 147 180 217 256
#     4   8  14  24  37  54  78 108 140 172 207 250
#     4  10  19  29  45  65  86 115 147 186 227 256
#     4   9  17  27  41  61  81 104 137 176 217 259
#     4   9  18  31  44  59  81 111 149 187 219 253
#     4   8  14  24  37  55  79 107 139 173 210 249
#     4  10  19  30  44  63  86 112 147 184 219 262
#
# _framework density 16.439796000000001
#
# number of rings (size 3 to 8) (size 9 to 14) (size 15 to 20)
#    0.000    3.000    0.000    2.143    2.000    3.143 
#    0.000    2.857    0.000    0.000    0.000    0.000 
#    0.000    0.571    0.000    3.143    0.000    0.143 
#
# Total GULP energy -312210.056111 kJ/mol
# GULP energy per Si atom -5575.179573 kJ/mol
# Density = 1.640238 g / cm^3
# Si number density = 16.439796 Si / 1000 Ang^3
#
#
#
# Elastic Constant Matrix: (Units=GPa)
#
#
# Indices 1 2 3 4 5 6 
#
# 1 41.2225 15.1899 3.5928 0.0000 0.0000 0.0000
# 2 15.1899 38.3056 6.7032 0.0000 0.0000 0.0000
# 3 3.5928 6.7032 37.1136 0.0000 0.0000 0.0000
# 4 0.0000 0.0000 0.0000 11.5839 0.0000 0.0000
# 5 0.0000 0.0000 0.0000 0.0000 11.5308 0.0000
# 6 0.0000 0.0000 0.0000 0.0000 0.0000 10.1948
#
#
#
# Elastic Compliance Matrix: (Units=1/GPa)
#
#
# Indices 1 2 3 4 5 6 
#
# 1 0.028429 -0.011144 -0.000739 0.000000 0.000000 0.000000
# 2 -0.011144 0.031326 -0.004579 0.000000 0.000000 0.000000
# 3 -0.000739 -0.004579 0.027843 0.000000 0.000000 0.000000
# 4 0.000000 0.000000 0.000000 0.086326 0.000000 0.000000
# 5 0.000000 0.000000 0.000000 0.000000 0.086724 0.000000
# 6 0.000000 0.000000 0.000000 0.000000 0.000000 0.098089
#
#
# Mechanical properties :
#
#
# Convention : Reuss Voigt Hill
#
# Bulk Modulus (GPa) = 18.29043 18.62373 18.45708
# Shear Modulus (GPa) = 12.19846 12.73898 12.46872
#
# Velocity S-wave (km/s) = 2.72694 2.78670 2.75698
# Velocity P-wave (km/s) = 4.58964 4.65911 4.62450
#
# Compressibility (1/GPa) = 0.05467341
#
# Stress axis : x y z
#
# Youngs Moduli (GPa) = 35.17473 31.92203 35.91580
#
# Poissons Ratio (x) = 0.35575 0.02655
# Poissons Ratio (y) = 0.39199 0.16446
# Poissons Ratio (z) = 0.02601 0.14617
#
# Static dielectric constant tensor:
#      x y z
#    x 1.538500 0.000000 0.000000 
#    y 0.000000 1.598860 0.000000 
#    z 0.000000 0.000000 1.552640 
# 
# From -- ./inp_files/41092.got.cif
#   From: 2010.05.17/outbox.cif.g08.bks.cpg/sg71_21_cif.got.tgz:41092.got - 2010.06.03 16:22:01.
