data_PCOD9518788
_publ_section_title
;
Structure prediction by ZEFSAII (Michael W. Deem and Ramdas Pophale) SiO2 
 PCOD9518788
Probable space group: I M M M
;
_chemical_formula_sum "Si O2"
_cell_formula_units_Z 80
_cell_length_a 7.960807
_cell_length_b 24.244948
_cell_length_c 25.539849
_cell_angle_alpha 90.000000
_cell_angle_beta 90.000000
_cell_angle_gamma 90.000000
_cell_volume 4929.429699
_symmetry_space_group_name_H-M "I M M M"
_symmetry_group_IT_number 71
_symmetry_cell_setting 'orthorhombic'
loop_
_space_group_symop_operation_xyz
x,y,z
-x,-y,z
x,-y,-z
-x,y,-z
-x,-y,-z
x,y,-z
-x,y,z
x,-y,z
1/2+x,1/2+y,1/2+z
1/2-x,1/2-y,1/2+z
1/2+x,1/2-y,1/2-z
1/2-x,1/2+y,1/2-z
1/2-x,1/2-y,1/2-z
1/2+x,1/2+y,1/2-z
1/2-x,1/2+y,1/2+z
1/2+x,1/2-y,1/2+z
loop_
_atom_site_type_symbol
_atom_site_label
_atom_site_fract_x
_atom_site_fract_y
_atom_site_fract_z
Si Si1 0.300246 0.835530 0.230313
Si Si2 0.702762 0.726111 0.830193
Si Si3 0.703534 0.378904 0.558165
Si Si4 0.298824 0.249222 0.057401
Si Si5 0.298256 0.438292 0.337105
O O1 0.500000 0.834366 0.226622
O O2 0.234603 0.783990 0.195155
O O3 0.250892 0.821518 0.289693
O O4 0.241181 0.893091 0.206783
O O5 0.500000 0.728761 0.831592
O O6 0.764979 0.721841 0.889805
O O7 0.754449 0.398443 0.500000
O O8 0.500000 0.378013 0.559390
O O9 0.764766 0.316054 0.563944
O O10 0.764089 0.415034 0.606902
O O11 0.500000 0.256860 0.055881
O O12 0.230882 0.265431 0.000000
O O13 0.500000 0.441188 0.340958
O O14 0.234582 0.500000 0.326704
#
# Coordination Sequence:
#
# PCOD9518788 Si02
#       5
#    16  16  16  16  16
#     4  10  19  30  45  65  85 112 148 184 222 260
#     4   9  17  29  45  65  88 114 142 177 220 265
#     4   9  17  28  42  60  83 113 150 188 221 254
#     4   9  16  27  44  65  89 115 143 176 216 260
#     4  10  20  32  45  61  85 117 151 188 226 261
#
# _framework density 16.229057000000001
#
# number of rings (size 3 to 8) (size 9 to 14) (size 15 to 20)
#    0.000    2.600    2.000    0.600    0.000    2.400 
#    0.000    2.000    0.000    0.000    0.000    4.200 
#    0.000    0.800    0.000    9.200    0.000    2.600 
#
# Total GULP energy -222888.735817 kJ/mol
# GULP energy per Si atom -5572.218395 kJ/mol
# Density = 1.619212 g / cm^3
# Si number density = 16.229057 Si / 1000 Ang^3
#
#
#
# Elastic Constant Matrix: (Units=GPa)
#
#
# Indices 1 2 3 4 5 6 
#
# 1 10.5676 -1.9534 11.5239 0.0000 0.0000 0.0000
# 2 -1.9534 68.3459 77.2355 0.0000 0.0000 0.0000
# 3 11.5239 77.2355 167.6887 0.0000 0.0000 0.0000
# 4 0.0000 0.0000 0.0000 10.3621 0.0000 0.0000
# 5 0.0000 0.0000 0.0000 0.0000 11.0374 0.0000
# 6 0.0000 0.0000 0.0000 0.0000 0.0000 15.3599
#
#
#
# Elastic Compliance Matrix: (Units=1/GPa)
#
#
# Indices 1 2 3 4 5 6 
#
# 1 0.122448 0.027130 -0.020911 0.000000 0.000000 0.000000
# 2 0.027130 0.036525 -0.018687 0.000000 0.000000 0.000000
# 3 -0.020911 -0.018687 0.016008 0.000000 0.000000 0.000000
# 4 0.000000 0.000000 0.000000 0.096506 0.000000 0.000000
# 5 0.000000 0.000000 0.000000 0.000000 0.090601 0.000000
# 6 0.000000 0.000000 0.000000 0.000000 0.000000 0.065105
#
#
# Mechanical properties :
#
#
# Convention : Reuss Voigt Hill
#
# Bulk Modulus (GPa) = 6.66469 46.69048 26.67759
# Shear Modulus (GPa) = 9.95734 18.00496 13.98115
#
# Velocity S-wave (km/s) = 2.47968 3.33442 2.93830
# Velocity P-wave (km/s) = 3.50913 6.60731 5.29011
#
# Compressibility (1/GPa) = 0.15004441
#
# Stress axis : x y z
#
# Youngs Moduli (GPa) = 8.16676 27.37857 62.46997
#
# Poissons Ratio (x) = -0.74279 1.30630
# Poissons Ratio (y) = -0.22157 1.16740
# Poissons Ratio (z) = 0.17077 0.51164
#
# Static dielectric constant tensor:
#      x y z
#    x 1.572580 0.000000 0.000000 
#    y 0.000000 1.515190 0.000000 
#    z 0.000000 0.000000 1.591380 
# 
# From -- ./inp_files/8320.got.cif
#   From: 2010.05.17/outbox.cif.g08.bks.cpg/sg71_5_cif.got.tgz:8320.got - 2010.06.03 16:22:01.
