data_PCOD9518781
_publ_section_title
;
Structure prediction by ZEFSAII (Michael W. Deem and Ramdas Pophale) SiO2 
 PCOD9518781
Probable space group: I M M M
;
_chemical_formula_sum "Si O2"
_cell_formula_units_Z 104
_cell_length_a 13.840402
_cell_length_b 26.648449
_cell_length_c 17.782413
_cell_angle_alpha 90.000000
_cell_angle_beta 90.000000
_cell_angle_gamma 90.000000
_cell_volume 6558.602864
_symmetry_space_group_name_H-M "I M M M"
_symmetry_group_IT_number 71
_symmetry_cell_setting 'orthorhombic'
loop_
_space_group_symop_operation_xyz
x,y,z
-x,-y,z
x,-y,-z
-x,y,-z
-x,-y,-z
x,y,-z
-x,y,z
x,-y,z
1/2+x,1/2+y,1/2+z
1/2-x,1/2-y,1/2+z
1/2+x,1/2-y,1/2-z
1/2-x,1/2+y,1/2-z
1/2-x,1/2-y,1/2-z
1/2+x,1/2+y,1/2-z
1/2-x,1/2+y,1/2+z
1/2+x,1/2-y,1/2+z
loop_
_atom_site_type_symbol
_atom_site_label
_atom_site_fract_x
_atom_site_fract_y
_atom_site_fract_z
Si Si1 0.116763 0.500000 0.415724
Si Si2 0.383976 0.806136 0.088241
Si Si3 0.389838 0.406294 0.090411
Si Si4 0.383238 0.904311 0.815768
Si Si5 0.695321 0.941686 0.340838
Si Si6 0.394339 0.150541 0.410915
Si Si7 0.199201 0.199635 0.408918
O O1 0.155448 0.500000 0.500000
O O2 0.142469 0.549913 0.370965
O O3 0.000000 0.500000 0.420025
O O4 0.500000 0.800298 0.089370
O O5 0.359471 0.852585 0.142060
O O6 0.336885 0.754047 0.114767
O O7 0.357850 0.815806 0.000000
O O8 0.500000 0.420111 0.108129
O O9 0.306669 0.436094 0.133982
O O10 0.370438 0.347393 0.108180
O O11 0.375946 0.412518 0.000000
O O12 0.500000 0.905549 0.802538
O O13 0.328302 0.915469 0.738590
O O14 0.634713 0.907299 0.398278
O O15 0.667537 0.000000 0.338590
O O16 0.398521 0.159526 0.500000
O O17 0.500000 0.160789 0.377776
O O18 0.305661 0.183849 0.380991
O O19 0.202273 0.201613 0.500000
#
# Coordination Sequence:
#
# PCOD9518781 Si02
#       7
#     8  16  16  16  16  16  16
#     4   9  16  28  46  66  92 125 158 192 230 273
#     4   9  16  27  47  73  96 120 154 194 235 280
#     4   9  18  33  52  72  94 121 155 196 239 278
#     4  10  19  30  44  67  98 129 157 189 232 279
#     4  11  21  32  46  65  93 126 159 192 233 280
#     4   9  18  31  46  65  91 125 161 192 225 271
#     4   8  14  27  48  71  93 118 151 194 237 277
#
# _framework density 15.857036000000001
#
# number of rings (size 3 to 8) (size 9 to 14) (size 15 to 20)
#    0.000    2.692    0.769    2.769    0.000    6.154 
#    0.000    4.615    0.000    2.769    0.000    0.000 
#    0.000    2.462    0.000    0.000    0.000    0.308 
#
# Total GULP energy -289578.641451 kJ/mol
# GULP energy per Si atom -5568.820028 kJ/mol
# Density = 1.582095 g / cm^3
# Si number density = 15.857036 Si / 1000 Ang^3
#
#
#
# Elastic Constant Matrix: (Units=GPa)
#
#
# Indices 1 2 3 4 5 6 
#
# 1 58.4190 10.0928 17.4896 0.0000 0.0000 0.0000
# 2 10.0928 89.1740 11.8439 0.0001 0.0000 0.0000
# 3 17.4896 11.8439 36.1622 0.0000 0.0000 0.0000
# 4 0.0000 0.0001 0.0000 -31.9166 0.0000 0.0000
# 5 0.0000 0.0000 0.0000 0.0000 16.8157 0.0000
# 6 0.0000 0.0000 0.0000 0.0000 0.0000 12.3416
#
#
#
# Elastic Compliance Matrix: (Units=1/GPa)
#
#
# Indices 1 2 3 4 5 6 
#
# 1 0.020106 -0.001029 -0.009387 0.000000 0.000000 0.000000
# 2 -0.001029 0.011777 -0.003360 0.000000 0.000000 0.000000
# 3 -0.009387 -0.003360 0.033294 0.000000 0.000000 0.000000
# 4 0.000000 0.000000 0.000000 -0.031332 0.000000 0.000000
# 5 0.000000 0.000000 0.000000 0.000000 0.059468 0.000000
# 6 0.000000 0.000000 0.000000 0.000000 0.000000 0.081027
#
#
# Mechanical properties :
#
#
# Convention : Reuss Voigt Hill
#
# Bulk Modulus (GPa) = 26.57800 29.17866 27.87833
# Shear Modulus (GPa) = 23.31740 9.07005 16.19372
#
# Velocity S-wave (km/s) = 3.83884 2.39422 3.19914
# Velocity P-wave (km/s) = 6.03708 5.10726 5.59153
#
# Compressibility (1/GPa) = 0.03762510
#
# Stress axis : x y z
#
# Youngs Moduli (GPa) = 49.73693 84.91355 30.03589
#
# Poissons Ratio (x) = 0.08736 0.28195
# Poissons Ratio (y) = 0.05117 0.10091
# Poissons Ratio (z) = 0.46688 0.28527
#
# Static dielectric constant tensor:
#      x y z
#    x 1.539620 0.000000 0.000000 
#    y 0.000000 1.531240 0.000000 
#    z 0.000000 0.000000 1.549020 
# 
# From -- ./inp_files/45299.got.cif
#   From: 2010.05.17/outbox.cif.g08.bks.cpg/sg71_23_cif.got.tgz:45299.got - 2010.06.03 16:22:01.
