data_PCOD9518101
_publ_section_title
;
Structure prediction by ZEFSAII (Michael W. Deem and Ramdas Pophale) SiO2 
 PCOD9518101
Probable space group: I M M M
;
_chemical_formula_sum "Si O2"
_cell_formula_units_Z 68
_cell_length_a 28.221705
_cell_length_b 12.367396
_cell_length_c 12.147654
_cell_angle_alpha 90.000000
_cell_angle_beta 90.000000
_cell_angle_gamma 90.000000
_cell_volume 4239.883547
_symmetry_space_group_name_H-M "I M M M"
_symmetry_group_IT_number 71
_symmetry_cell_setting 'orthorhombic'
loop_
_space_group_symop_operation_xyz
x,y,z
-x,-y,z
x,-y,-z
-x,y,-z
-x,-y,-z
x,y,-z
-x,y,z
x,-y,z
1/2+x,1/2+y,1/2+z
1/2-x,1/2-y,1/2+z
1/2+x,1/2-y,1/2-z
1/2-x,1/2+y,1/2-z
1/2-x,1/2-y,1/2-z
1/2+x,1/2+y,1/2-z
1/2-x,1/2+y,1/2+z
1/2+x,1/2-y,1/2+z
loop_
_atom_site_type_symbol
_atom_site_label
_atom_site_fract_x
_atom_site_fract_y
_atom_site_fract_z
Si Si1 0.161061 0.500000 0.500000
Si Si2 0.798757 0.292118 0.873143
Si Si3 0.660079 0.000000 0.750797
Si Si4 0.949271 0.500000 0.689719
Si Si5 0.882171 0.124244 0.500000
Si Si6 0.074258 0.342784 0.500000
Si Si7 0.803670 0.127777 0.686539
O O1 0.181707 0.500000 0.376262
O O2 0.127452 0.393798 0.500000
O O3 0.822592 0.393804 0.812186
O O4 0.810760 0.185780 0.803124
O O5 0.742350 0.314727 0.865624
O O6 0.812805 0.285522 0.000000
O O7 0.602531 0.000000 0.754980
O O8 0.948088 0.603274 0.607738
O O9 0.000000 0.500000 0.750457
O O10 0.922171 0.215165 0.500000
O O11 0.848368 0.140791 0.606111
O O12 0.898534 0.000000 0.500000
O O13 0.794014 0.000000 0.696308
#
# Coordination Sequence:
#
# PCOD9518101 Si02
#       7
#     4  16   8   8   8   8  16
#     4   8  16  28  45  72  94 114 160 216 240 296
#     4  11  21  33  48  67  97 133 172 211 247 285
#     4  10  19  32  52  74  98 128 168 208 252 309
#     4   9  17  30  51  76 101 128 159 210 262 307
#     4  10  18  30  51  70 104 134 166 204 242 303
#     4   8  14  27  46  73  99 128 160 190 258 312
#     4  10  20  33  46  67  95 134 172 209 242 283
#
# _framework density 16.038176
#
# number of rings (size 3 to 8) (size 9 to 14) (size 15 to 20)
#    0.000    2.588    2.353    3.882    0.000    0.471 
#    2.118    0.000    0.000    2.824    0.000    0.000 
#    0.000    0.000    0.000    8.471    0.000    0.000 
#
# Total GULP energy -189405.083923 kJ/mol
# GULP energy per Si atom -5570.737762 kJ/mol
# Density = 1.600167 g / cm^3
# Si number density = 16.038176 Si / 1000 Ang^3
#
#
#
# Elastic Constant Matrix: (Units=GPa)
#
#
# Indices 1 2 3 4 5 6 
#
# 1 38.5763 6.1034 4.0134 0.0000 0.0000 0.0000
# 2 6.1034 83.8618 29.0717 0.0000 0.0000 0.0000
# 3 4.0134 29.0717 115.3135 0.0000 0.0000 0.0000
# 4 0.0000 0.0000 0.0000 16.4384 0.0000 0.0000
# 5 0.0000 0.0000 0.0000 0.0000 6.3986 0.0000
# 6 0.0000 0.0000 0.0000 0.0000 0.0000 2.1615
#
#
#
# Elastic Compliance Matrix: (Units=1/GPa)
#
#
# Indices 1 2 3 4 5 6 
#
# 1 0.026248 -0.001746 -0.000473 0.000000 0.000000 0.000000
# 2 -0.001746 0.013183 -0.003263 0.000000 0.000000 0.000000
# 3 -0.000473 -0.003263 0.009511 0.000000 0.000000 0.000000
# 4 0.000000 0.000000 0.000000 0.060833 0.000000 0.000000
# 5 0.000000 0.000000 0.000000 0.000000 0.156283 0.000000
# 6 0.000000 0.000000 0.000000 0.000000 0.000000 0.462646
#
#
# Mechanical properties :
#
#
# Convention : Reuss Voigt Hill
#
# Bulk Modulus (GPa) = 26.33154 35.12542 30.72848
# Shear Modulus (GPa) = 6.64604 18.23724 12.44164
#
# Velocity S-wave (km/s) = 2.03786 3.37577 2.78825
# Velocity P-wave (km/s) = 4.68944 6.09452 5.43755
#
# Compressibility (1/GPa) = 0.03797727
#
# Stress axis : x y z
#
# Youngs Moduli (GPa) = 38.09787 75.85807 105.14103
#
# Poissons Ratio (x) = 0.13247 0.04976
# Poissons Ratio (y) = 0.06653 0.34304
# Poissons Ratio (z) = 0.01803 0.24750
#
# Static dielectric constant tensor:
#      x y z
#    x 1.552740 0.000000 0.000000 
#    y 0.000000 1.544990 0.000000 
#    z 0.000000 0.000000 1.544550 
# 
# From -- ./inp_files/29655.got.cif
#   From: 2010.05.17/outbox.cif.g08.bks.cpg/sg71_15_cif.got.tgz:29655.got - 2010.06.03 16:22:01.
