data_PCOD9518917
_publ_section_title
;
Structure prediction by ZEFSAII (Michael W. Deem and Ramdas Pophale) SiO2 
 PCOD9518917
Probable space group: I M M M
;
_chemical_formula_sum "Si O2"
_cell_formula_units_Z 80
_cell_length_a 15.229292
_cell_length_b 26.223092
_cell_length_c 9.951736
_cell_angle_alpha 90.000000
_cell_angle_beta 90.000000
_cell_angle_gamma 90.000000
_cell_volume 3974.316583
_symmetry_space_group_name_H-M "I M M M"
_symmetry_group_IT_number 71
_symmetry_cell_setting 'orthorhombic'
loop_
_space_group_symop_operation_xyz
x,y,z
-x,-y,z
x,-y,-z
-x,y,-z
-x,-y,-z
x,y,-z
-x,y,z
x,-y,z
1/2+x,1/2+y,1/2+z
1/2-x,1/2-y,1/2+z
1/2+x,1/2-y,1/2-z
1/2-x,1/2+y,1/2-z
1/2-x,1/2-y,1/2-z
1/2+x,1/2+y,1/2-z
1/2-x,1/2+y,1/2+z
1/2+x,1/2-y,1/2+z
loop_
_atom_site_type_symbol
_atom_site_label
_atom_site_fract_x
_atom_site_fract_y
_atom_site_fract_z
Si Si1 0.636403 0.854549 0.848836
Si Si2 0.846449 0.147615 0.152827
Si Si3 0.396522 0.737756 0.152669
Si Si4 0.861161 0.556961 0.154474
Si Si5 0.853235 0.058288 0.346595
O O1 0.741686 0.859672 0.855644
O O2 0.616904 0.796595 0.807320
O O3 0.605509 0.897923 0.747842
O O4 0.601905 0.861237 0.000000
O O5 0.859596 0.198590 0.239432
O O6 0.883038 0.100033 0.238947
O O7 0.880499 0.150845 0.000000
O O8 0.500000 0.728249 0.145460
O O9 0.359700 0.731141 0.000000
O O10 0.886400 0.500000 0.199455
O O11 0.753882 0.558361 0.154600
O O12 0.888287 0.563522 0.000000
O O13 0.879877 0.071201 0.500000
O O14 0.880710 0.000000 0.317899
#
# Coordination Sequence:
#
# PCOD9518917 Si02
#       5
#    16  16  16  16  16
#     4   9  18  31  48  72  97 122 156 196 236 276
#     4  10  19  30  48  74 100 123 151 193 240 282
#     4  10  21  36  51  66  90 126 164 199 234 277
#     4   8  14  25  43  69  98 125 153 187 229 276
#     4   8  14  26  45  69  97 127 156 186 224 274
#
# _framework density 20.129246999999999
#
# number of rings (size 3 to 8) (size 9 to 14) (size 15 to 20)
#    0.000    3.000    0.000    2.400    0.000    2.800 
#    0.000    4.000    0.000    1.200    0.000    8.400 
#    0.000    0.000    0.000    0.000    0.000    0.000 
#
# Total GULP energy -223120.487496 kJ/mol
# GULP energy per Si atom -5578.012187 kJ/mol
# Density = 2.008343 g / cm^3
# Si number density = 20.129247 Si / 1000 Ang^3
#
#
#
# Elastic Constant Matrix: (Units=GPa)
#
#
# Indices 1 2 3 4 5 6 
#
# 1 28.7595 5.6441 10.6763 0.0000 0.0000 0.0000
# 2 5.6441 180.7300 145.3312 -0.0003 0.0001 0.0000
# 3 10.6763 145.3312 155.8942 0.0001 0.0002 0.0002
# 4 0.0000 -0.0003 0.0001 26.0759 0.0001 0.0001
# 5 0.0000 0.0001 0.0002 0.0001 -8.4241 -0.0001
# 6 0.0000 0.0000 0.0002 0.0001 -0.0001 -48.7536
#
#
#
# Elastic Compliance Matrix: (Units=1/GPa)
#
#
# Indices 1 2 3 4 5 6 
#
# 1 0.036208 0.003448 -0.005694 0.000000 0.000000 0.000000
# 2 0.003448 0.022430 -0.021146 0.000000 0.000000 0.000000
# 3 -0.005694 -0.021146 0.026518 0.000000 0.000001 0.000000
# 4 0.000000 0.000000 0.000000 0.038350 0.000001 0.000000
# 5 0.000000 0.000000 0.000001 0.000001 -0.118707 0.000000
# 6 0.000000 0.000000 0.000000 0.000000 0.000000 -0.020511
#
#
# Mechanical properties :
#
#
# Convention : Reuss Voigt Hill
#
# Bulk Modulus (GPa) = 26.06098 76.52076 51.29087
# Shear Modulus (GPa) = 113.99451 7.36177 60.67814
#
# Velocity S-wave (km/s) = 7.53354 1.91447 5.49634
# Velocity P-wave (km/s) = 9.41527 6.55623 8.11269
#
# Compressibility (1/GPa) = 0.03837154
#
# Stress axis : x y z
#
# Youngs Moduli (GPa) = 27.61801 44.58365 37.71042
#
# Poissons Ratio (x) = -0.15373 0.21473
# Poissons Ratio (y) = -0.09523 0.79743
# Poissons Ratio (z) = 0.15726 0.94277
#
# Static dielectric constant tensor:
#      x y z
#    x 1.736800 0.000000 0.000000 
#    y 0.000000 1.688040 0.000000 
#    z 0.000000 0.000000 1.725630 
# 
# From -- ./inp_files/8309.got.cif
#   From: 2010.05.17/outbox.cif.g08.bks.cpg/sg71_5_cif.got.tgz:8309.got - 2010.06.03 16:22:01.
