data_PCOD9518241
_publ_section_title
;
Structure prediction by ZEFSAII (Michael W. Deem and Ramdas Pophale) SiO2 
 PCOD9518241
Probable space group: I M M M
;
_chemical_formula_sum "Si O2"
_cell_formula_units_Z 120
_cell_length_a 21.514281
_cell_length_b 22.243532
_cell_length_c 13.756234
_cell_angle_alpha 90.000000
_cell_angle_beta 90.000000
_cell_angle_gamma 90.000000
_cell_volume 6583.095274
_symmetry_space_group_name_H-M "I M M M"
_symmetry_group_IT_number 71
_symmetry_cell_setting 'orthorhombic'
loop_
_space_group_symop_operation_xyz
x,y,z
-x,-y,z
x,-y,-z
-x,y,-z
-x,-y,-z
x,y,-z
-x,y,z
x,-y,z
1/2+x,1/2+y,1/2+z
1/2-x,1/2-y,1/2+z
1/2+x,1/2-y,1/2-z
1/2-x,1/2+y,1/2-z
1/2-x,1/2-y,1/2-z
1/2+x,1/2+y,1/2-z
1/2-x,1/2+y,1/2+z
1/2+x,1/2-y,1/2+z
loop_
_atom_site_type_symbol
_atom_site_label
_atom_site_fract_x
_atom_site_fract_y
_atom_site_fract_z
Si Si1 0.141727 0.067447 0.714224
Si Si2 0.759693 0.649691 0.231111
Si Si3 0.925430 0.892706 0.889830
Si Si4 0.126036 0.635020 0.116534
Si Si5 0.690161 0.244728 0.117458
Si Si6 0.928297 0.177643 0.616463
Si Si7 0.000000 0.431832 0.882005
Si Si8 0.429272 0.740924 0.382291
O O1 0.204753 0.101935 0.744086
O O2 0.102271 0.063279 0.812663
O O3 0.102875 0.114384 0.647874
O O4 0.150995 0.000000 0.674061
O O5 0.814961 0.615259 0.176373
O O6 0.733312 0.701129 0.157888
O O7 0.786294 0.685368 0.325198
O O8 0.908437 0.825296 0.853577
O O9 0.000000 0.894495 0.891394
O O10 0.903536 0.901392 0.000000
O O11 0.115819 0.705172 0.141575
O O12 0.062778 0.601953 0.145552
O O13 0.134083 0.629062 0.000000
O O14 0.619748 0.268065 0.142366
O O15 0.695334 0.238986 0.000000
O O16 0.930925 0.178269 0.500000
O O17 0.000000 0.182832 0.652568
O O18 0.000000 0.500000 0.847631
O O19 0.000000 0.431885 0.000000
O O20 0.432275 0.739006 0.500000
O O21 0.500000 0.753063 0.350002
#
# Coordination Sequence:
#
# PCOD9518241 Si02
#       8
#    16  16  16  16  16  16   8  16
#     4  11  24  39  52  73 109 149 189 226 256 308
#     4  10  22  35  52  80 103 146 187 212 265 326
#     4   9  19  34  53  79 108 138 170 213 270 322
#     4  10  18  31  51  78 109 138 172 218 265 320
#     4   9  19  37  56  79 112 137 170 225 276 327
#     4   9  19  37  59  82 107 138 177 227 283 325
#     4   9  18  32  50  76 111 145 174 212 270 329
#     4   8  14  26  46  74 105 130 155 197 258 318
#
# _framework density 18.228507
#
# number of rings (size 3 to 8) (size 9 to 14) (size 15 to 20)
#    0.000    2.600    0.667    1.600    5.600    3.200 
#    1.200    1.333    0.000    0.000    0.000    0.000 
#    0.000    0.533    0.000    0.000    0.000    0.000 
#
# Total GULP energy -334477.436049 kJ/mol
# GULP energy per Si atom -5574.623934 kJ/mol
# Density = 1.818702 g / cm^3
# Si number density = 18.228507 Si / 1000 Ang^3
#
#
#
# Elastic Constant Matrix: (Units=GPa)
#
#
# Indices 1 2 3 4 5 6 
#
# 1 101.1841 39.0779 28.7975 0.0000 0.0000 0.0000
# 2 39.0779 77.3154 21.1223 0.0000 0.0000 0.0000
# 3 28.7975 21.1223 68.0534 0.0000 0.0000 0.0000
# 4 0.0000 0.0000 0.0000 13.0901 0.0000 0.0000
# 5 0.0000 0.0000 0.0000 0.0000 25.1377 0.0000
# 6 0.0000 0.0000 0.0000 0.0000 0.0000 8.3469
#
#
#
# Elastic Compliance Matrix: (Units=1/GPa)
#
#
# Indices 1 2 3 4 5 6 
#
# 1 0.013130 -0.005593 -0.003820 0.000000 0.000000 0.000000
# 2 -0.005593 0.016515 -0.002759 0.000000 0.000000 0.000000
# 3 -0.003820 -0.002759 0.017167 0.000000 0.000000 0.000000
# 4 0.000000 0.000000 0.000000 0.076394 0.000000 0.000000
# 5 0.000000 0.000000 0.000000 0.000000 0.039781 0.000000
# 6 0.000000 0.000000 0.000000 0.000000 0.000000 0.119805
#
#
# Mechanical properties :
#
#
# Convention : Reuss Voigt Hill
#
# Bulk Modulus (GPa) = 44.50832 47.17201 45.84016
# Shear Modulus (GPa) = 15.89192 19.81862 17.85527
#
# Velocity S-wave (km/s) = 2.95586 3.30090 3.13313
# Velocity P-wave (km/s) = 6.00994 6.36099 6.18796
#
# Compressibility (1/GPa) = 0.02246771
#
# Stress axis : x y z
#
# Youngs Moduli (GPa) = 76.16020 60.55248 58.25027
#
# Poissons Ratio (x) = 0.33866 0.22253
# Poissons Ratio (y) = 0.42595 0.16072
# Poissons Ratio (z) = 0.29096 0.16707
#
# Static dielectric constant tensor:
#      x y z
#    x 1.660040 0.000000 0.000000 
#    y 0.000000 1.641710 0.000000 
#    z 0.000000 0.000000 1.639860 
# 
# From -- ./inp_files/38448.got.cif
#   From: 2010.05.17/outbox.cif.g08.bks.cpg/sg71_20_cif.got.tgz:38448.got - 2010.06.03 16:22:01.
