data_PCOD9518605
_publ_section_title
;
Structure prediction by ZEFSAII (Michael W. Deem and Ramdas Pophale) SiO2 
 PCOD9518605
Probable space group: I M M M
;
_chemical_formula_sum "Si O2"
_cell_formula_units_Z 88
_cell_length_a 20.125030
_cell_length_b 9.416576
_cell_length_c 33.056257
_cell_angle_alpha 90.000000
_cell_angle_beta 90.000000
_cell_angle_gamma 90.000000
_cell_volume 6264.454059
_symmetry_space_group_name_H-M "I M M M"
_symmetry_group_IT_number 71
_symmetry_cell_setting 'orthorhombic'
loop_
_space_group_symop_operation_xyz
x,y,z
-x,-y,z
x,-y,-z
-x,y,-z
-x,-y,-z
x,y,-z
-x,y,z
x,-y,z
1/2+x,1/2+y,1/2+z
1/2-x,1/2-y,1/2+z
1/2+x,1/2-y,1/2-z
1/2-x,1/2+y,1/2-z
1/2-x,1/2-y,1/2-z
1/2+x,1/2+y,1/2-z
1/2-x,1/2+y,1/2+z
1/2+x,1/2-y,1/2+z
loop_
_atom_site_type_symbol
_atom_site_label
_atom_site_fract_x
_atom_site_fract_y
_atom_site_fract_z
Si Si1 0.576218 0.831116 0.669066
Si Si2 0.648631 0.161473 0.747837
Si Si3 0.867837 0.831896 0.046710
Si Si4 0.221276 0.836924 0.310962
Si Si5 0.000000 0.339572 0.049021
Si Si6 0.803208 0.831331 0.872775
O O1 0.500000 0.802939 0.658105
O O2 0.589164 0.805733 0.716931
O O3 0.629165 0.735211 0.645747
O O4 0.590120 0.000000 0.662303
O O5 0.713761 0.165328 0.718551
O O6 0.663197 0.266230 0.784584
O O7 0.642080 0.000000 0.762676
O O8 0.810036 0.806362 0.079202
O O9 0.933010 0.743781 0.059330
O O10 0.884090 0.000000 0.048386
O O11 0.851563 0.797377 0.000000
O O12 0.243420 0.746505 0.349784
O O13 0.207828 0.000000 0.321111
O O14 0.000000 0.500000 0.065197
O O15 0.000000 0.346423 0.000000
O O16 0.800809 0.000000 0.865117
#
# Coordination Sequence:
#
# PCOD9518605 Si02
#       6
#    16  16  16  16   8  16
#     4   9  18  30  41  55  76 100 122 150 188 222
#     4   8  14  25  40  55  72  94 119 145 176 217
#     4   9  18  31  42  51  68  94 122 153 190 229
#     4   9  16  26  40  56  73  92 116 148 186 219
#     4   9  17  27  39  53  65  83 115 151 185 223
#     4  10  19  28  40  56  72  93 124 158 190 224
#
# _framework density 14.047511999999999
#
# number of rings (size 3 to 8) (size 9 to 14) (size 15 to 20)
#    0.000    3.000    0.000    2.455    1.273    7.273 
#    0.000    0.000    0.000    0.000    0.000    0.000 
#    0.000    0.000    0.000    0.000    0.000    0.909 
#
# Total GULP energy -244989.052698 kJ/mol
# GULP energy per Si atom -5567.933016 kJ/mol
# Density = 1.401554 g / cm^3
# Si number density = 14.047512 Si / 1000 Ang^3
#
#
#
# Elastic Constant Matrix: (Units=GPa)
#
#
# Indices 1 2 3 4 5 6 
#
# 1 8.6913 10.4372 14.3900 0.0000 0.0000 0.0000
# 2 10.4372 65.2171 47.9882 0.0000 0.0000 0.0000
# 3 14.3900 47.9882 75.6443 0.0000 0.0000 0.0000
# 4 0.0000 0.0000 0.0000 16.3385 0.0000 0.0000
# 5 0.0000 0.0000 0.0000 0.0000 22.5775 0.0000
# 6 0.0000 0.0000 0.0000 0.0000 0.0000 13.3448
#
#
#
# Elastic Compliance Matrix: (Units=1/GPa)
#
#
# Indices 1 2 3 4 5 6 
#
# 1 0.169358 -0.006372 -0.028175 0.000000 0.000000 0.000000
# 2 -0.006372 0.028997 -0.017183 0.000000 0.000000 0.000000
# 3 -0.028175 -0.017183 0.029481 0.000000 0.000000 0.000000
# 4 0.000000 0.000000 0.000000 0.061205 0.000000 0.000000
# 5 0.000000 0.000000 0.000000 0.000000 0.044292 0.000000
# 6 0.000000 0.000000 0.000000 0.000000 0.000000 0.074936
#
#
# Mechanical properties :
#
#
# Convention : Reuss Voigt Hill
#
# Bulk Modulus (GPa) = 8.04018 32.79816 20.41917
# Shear Modulus (GPa) = 9.03852 15.56798 12.30325
#
# Velocity S-wave (km/s) = 2.53933 3.33263 2.96265
# Velocity P-wave (km/s) = 3.78597 6.18120 5.12547
#
# Compressibility (1/GPa) = 0.12437536
#
# Stress axis : x y z
#
# Youngs Moduli (GPa) = 5.90464 34.48619 33.92052
#
# Poissons Ratio (x) = 0.21974 0.95572
# Poissons Ratio (y) = 0.03762 0.58287
# Poissons Ratio (z) = 0.16636 0.59259
#
# Static dielectric constant tensor:
#      x y z
#    x 1.437240 0.000000 0.000000 
#    y 0.000000 1.475020 0.000000 
#    z 0.000000 0.000000 1.496030 
# 
# From -- ./inp_files/13532.got.cif
#   From: 2010.05.17/outbox.cif.g08.bks.cpg/sg71_7_cif.got.tgz:13532.got - 2010.06.03 16:22:01.
