data_PCOD9518645
_publ_section_title
;
Structure prediction by ZEFSAII (Michael W. Deem and Ramdas Pophale) SiO2 
 PCOD9518645
Probable space group: I M M M
;
_chemical_formula_sum "Si O2"
_cell_formula_units_Z 88
_cell_length_a 14.552304
_cell_length_b 7.173777
_cell_length_c 31.437770
_cell_angle_alpha 90.000000
_cell_angle_beta 90.000000
_cell_angle_gamma 90.000000
_cell_volume 3281.945488
_symmetry_space_group_name_H-M "I M M M"
_symmetry_group_IT_number 71
_symmetry_cell_setting 'orthorhombic'
loop_
_space_group_symop_operation_xyz
x,y,z
-x,-y,z
x,-y,-z
-x,y,-z
-x,-y,-z
x,y,-z
-x,y,z
x,-y,z
1/2+x,1/2+y,1/2+z
1/2-x,1/2-y,1/2+z
1/2+x,1/2-y,1/2-z
1/2-x,1/2+y,1/2-z
1/2-x,1/2-y,1/2-z
1/2+x,1/2+y,1/2-z
1/2-x,1/2+y,1/2+z
1/2+x,1/2-y,1/2+z
loop_
_atom_site_type_symbol
_atom_site_label
_atom_site_fract_x
_atom_site_fract_y
_atom_site_fract_z
Si Si1 0.394075 0.790431 0.179535
Si Si2 0.889925 0.277174 0.137825
Si Si3 0.891464 0.726622 0.590712
Si Si4 0.350489 0.780715 0.731787
Si Si5 0.390008 0.775014 0.000000
Si Si6 0.889773 0.724998 0.045959
O O1 0.500000 0.809231 0.167417
O O2 0.351698 0.707241 0.136287
O O3 0.399614 0.703836 0.226237
O O4 0.355359 0.000000 0.184702
O O5 0.874780 0.500000 0.137709
O O6 0.857533 0.207094 0.183986
O O7 0.853771 0.207837 0.091976
O O8 0.000000 0.246505 0.137967
O O9 0.887524 0.500000 0.592256
O O10 0.850249 0.787990 0.545431
O O11 0.000000 0.778285 0.587560
O O12 0.250000 0.750000 0.750000
O O13 0.376521 0.000000 0.728152
O O14 0.500000 0.731632 0.000000
O O15 0.385182 0.000000 0.000000
O O16 0.882718 0.500000 0.046151
O O17 0.000000 0.765589 0.045908
O O18 0.852959 0.790423 0.000000
#
# Coordination Sequence:
#
# PCOD9518645 Si02
#       6
#    16  16  16  16   8  16
#     4   8  13  22  37  55  72  93 126 164 195 225
#     4   8  13  22  38  59  80 103 134 170 204 239
#     4   7   9  13  23  42  66  88 111 143 183 220
#     4  10  19  29  41  58  80 107 136 165 198 235
#     4   7   8  10  18  36  64  90 107 133 180 227
#     4   7   9  14  27  51  81 103 118 150 204 250
#
# _framework density 26.813365999999998
#
# number of rings (size 3 to 8) (size 9 to 14) (size 15 to 20)
#    0.000    4.091    0.000    4.364    0.000    2.182 
#    0.000    0.000    0.000    2.182    2.364    0.000 
#    0.000    0.000    0.000    4.545    0.000   14.182 
#
# Total GULP energy -244994.618688 kJ/mol
# GULP energy per Si atom -5568.059516 kJ/mol
# Density = 2.675234 g / cm^3
# Si number density = 26.813366 Si / 1000 Ang^3
#
#
#
# Elastic Constant Matrix: (Units=GPa)
#
#
# Indices 1 2 3 4 5 6 
#
# 1 42.5756 -3.6414 34.5658 0.0000 0.0000 0.0000
# 2 -3.6414 142.8245 23.7988 0.0000 0.0000 0.0000
# 3 34.5658 23.7988 436.2646 0.0000 0.0000 0.0000
# 4 0.0000 0.0000 0.0000 -35.6493 0.0000 0.0000
# 5 0.0000 0.0000 0.0000 0.0000 28.9664 0.0000
# 6 0.0000 0.0000 0.0000 0.0000 0.0000 -12.5195
#
#
#
# Elastic Compliance Matrix: (Units=1/GPa)
#
#
# Indices 1 2 3 4 5 6 
#
# 1 0.025239 0.000986 -0.002053 0.000000 0.000000 0.000000
# 2 0.000986 0.007104 -0.000466 0.000000 0.000000 0.000000
# 3 -0.002053 -0.000466 0.002480 0.000000 0.000000 0.000000
# 4 0.000000 0.000000 0.000000 -0.028051 0.000000 0.000000
# 5 0.000000 0.000000 0.000000 0.000000 0.034523 0.000000
# 6 0.000000 0.000000 0.000000 0.000000 0.000000 -0.079876
#
#
# Mechanical properties :
#
#
# Convention : Reuss Voigt Hill
#
# Bulk Modulus (GPa) = 31.48935 81.23457 56.36196
# Shear Modulus (GPa) = -200.57954 33.95564 -83.31195
#
# Velocity S-wave (km/s) = -8.65842 3.56247 -5.58019
# Velocity P-wave (km/s) = 9.39086 6.87631 4.52242
#
# Compressibility (1/GPa) = 0.03175677
#
# Stress axis : x y z
#
# Youngs Moduli (GPa) = 39.62104 140.75940 403.17867
#
# Poissons Ratio (x) = -0.13874 0.82793
# Poissons Ratio (y) = -0.03905 0.18774
# Poissons Ratio (z) = 0.08136 0.06554
#
# Static dielectric constant tensor:
#      x y z
#    x 1.757630 0.000000 0.000000 
#    y 0.000000 2.062570 0.000000 
#    z 0.000000 0.000000 2.196690 
# 
# From -- ./inp_files/16837.got.cif
#   From: 2010.05.17/outbox.cif.g08.bks.cpg/sg71_9_cif.got.tgz:16837.got - 2010.06.03 16:22:01.
