data_PCOD9518634
_publ_section_title
;
Structure prediction by ZEFSAII (Michael W. Deem and Ramdas Pophale) SiO2 
 PCOD9518634
Probable space group: I M M M
;
_chemical_formula_sum "Si O2"
_cell_formula_units_Z 64
_cell_length_a 10.608455
_cell_length_b 31.638330
_cell_length_c 9.346152
_cell_angle_alpha 90.000000
_cell_angle_beta 90.000000
_cell_angle_gamma 90.000000
_cell_volume 3136.884512
_symmetry_space_group_name_H-M "I M M M"
_symmetry_group_IT_number 71
_symmetry_cell_setting 'orthorhombic'
loop_
_space_group_symop_operation_xyz
x,y,z
-x,-y,z
x,-y,-z
-x,y,-z
-x,-y,-z
x,y,-z
-x,y,z
x,-y,z
1/2+x,1/2+y,1/2+z
1/2-x,1/2-y,1/2+z
1/2+x,1/2-y,1/2-z
1/2-x,1/2+y,1/2-z
1/2-x,1/2-y,1/2-z
1/2+x,1/2+y,1/2-z
1/2-x,1/2+y,1/2+z
1/2+x,1/2-y,1/2+z
loop_
_atom_site_type_symbol
_atom_site_label
_atom_site_fract_x
_atom_site_fract_y
_atom_site_fract_z
Si Si1 0.282547 0.454162 0.663752
Si Si2 0.000000 0.638749 0.160649
Si Si3 0.758013 0.862242 0.171470
Si Si4 0.500000 0.954672 0.743703
Si Si5 0.862714 0.227642 0.169771
O O1 0.327136 0.454761 0.500000
O O2 0.319926 0.500000 0.728913
O O3 0.312773 0.407601 0.723639
O O4 0.129254 0.453583 0.666997
O O5 0.127243 0.648340 0.247968
O O6 0.000000 0.587537 0.152542
O O7 0.000000 0.656610 0.000000
O O8 0.848913 0.822672 0.191567
O O9 0.733729 0.866460 0.000000
O O10 0.500000 0.000000 0.667176
O O11 0.750000 0.250000 0.250000
O O12 0.000000 0.242523 0.219029
O O13 0.852421 0.235238 0.000000
#
# Coordination Sequence:
#
# PCOD9518634 Si02
#       5
#    16   8  16   8  16
#     4   8  12  20  39  67  97 133 178 221 260 312
#     4  10  19  28  44  74 108 142 182 228 271 319
#     4   9  18  33  52  74 106 145 182 223 275 330
#     4   8  13  21  33  55  94 140 180 220 268 313
#     4  10  23  42  63  87 114 146 185 231 284 340
#
# _framework density 20.402408999999999
#
# number of rings (size 3 to 8) (size 9 to 14) (size 15 to 20)
#    0.000    3.000    0.000    0.750    1.750    6.250 
#    0.000    0.000    0.000    0.750    0.000    5.250 
#    0.000    0.000    0.000   14.750    0.000    7.500 
#
# Total GULP energy -178147.451233 kJ/mol
# GULP energy per Si atom -5567.107851 kJ/mol
# Density = 2.035597 g / cm^3
# Si number density = 20.402409 Si / 1000 Ang^3
#
#
#
# Elastic Constant Matrix: (Units=GPa)
#
#
# Indices 1 2 3 4 5 6 
#
# 1 91.7453 41.9148 30.6878 -0.0001 0.0000 -0.0002
# 2 41.9148 104.6253 19.2246 -0.0001 -0.0006 -0.0002
# 3 30.6878 19.2246 39.5232 0.0011 -0.0014 -0.0009
# 4 -0.0001 -0.0001 0.0011 9.2572 -0.0002 0.0001
# 5 0.0000 -0.0006 -0.0014 -0.0002 12.7652 -0.0009
# 6 -0.0002 -0.0002 -0.0009 0.0001 -0.0009 18.3202
#
#
#
# Elastic Compliance Matrix: (Units=1/GPa)
#
#
# Indices 1 2 3 4 5 6 
#
# 1 0.016591 -0.004700 -0.010596 0.000001 -0.000001 0.000000
# 2 -0.004700 0.011827 -0.002104 0.000000 0.000000 0.000000
# 3 -0.010596 -0.002104 0.034552 -0.000004 0.000004 0.000001
# 4 0.000001 0.000000 -0.000004 0.108024 0.000002 -0.000001
# 5 -0.000001 0.000000 0.000004 0.000002 0.078338 0.000004
# 6 0.000000 0.000000 0.000001 -0.000001 0.000004 0.054585
#
#
# Mechanical properties :
#
#
# Convention : Reuss Voigt Hill
#
# Bulk Modulus (GPa) = 35.49717 46.61646 41.05682
# Shear Modulus (GPa) = 14.36340 17.67297 16.01819
#
# Velocity S-wave (km/s) = 2.65619 2.94635 2.80503
# Velocity P-wave (km/s) = 5.18106 5.87135 5.53698
#
# Compressibility (1/GPa) = 0.02817126
#
# Stress axis : x y z
#
# Youngs Moduli (GPa) = 60.27304 84.55031 28.94161
#
# Poissons Ratio (x) = 0.39736 0.30667
# Poissons Ratio (y) = 0.28327 0.06089
# Poissons Ratio (z) = 0.63867 0.17788
#
# Static dielectric constant tensor:
#      x y z
#    x 1.719410 0.000000 0.000000 
#    y 0.000000 1.828690 0.000000 
#    z 0.000000 0.000000 1.697680 
# 
# From -- ./inp_files/3785.got.cif
#   From: 2010.05.17/outbox.cif.g08.bks.cpg/sg71_2_cif.got.tgz:3785.got - 2010.06.03 16:22:01.
