data_PCOD9518177
_publ_section_title
;
Structure prediction by ZEFSAII (Michael W. Deem and Ramdas Pophale) SiO2 
 PCOD9518177
Probable space group: I M M M
;
_chemical_formula_sum "Si O2"
_cell_formula_units_Z 120
_cell_length_a 25.613271
_cell_length_b 25.245964
_cell_length_c 11.401715
_cell_angle_alpha 90.000000
_cell_angle_beta 90.000000
_cell_angle_gamma 90.000000
_cell_volume 7372.710554
_symmetry_space_group_name_H-M "I M M M"
_symmetry_group_IT_number 71
_symmetry_cell_setting 'orthorhombic'
loop_
_space_group_symop_operation_xyz
x,y,z
-x,-y,z
x,-y,-z
-x,y,-z
-x,-y,-z
x,y,-z
-x,y,z
x,-y,z
1/2+x,1/2+y,1/2+z
1/2-x,1/2-y,1/2+z
1/2+x,1/2-y,1/2-z
1/2-x,1/2+y,1/2-z
1/2-x,1/2-y,1/2-z
1/2+x,1/2+y,1/2-z
1/2-x,1/2+y,1/2+z
1/2+x,1/2-y,1/2+z
loop_
_atom_site_type_symbol
_atom_site_label
_atom_site_fract_x
_atom_site_fract_y
_atom_site_fract_z
Si Si1 0.058271 0.353213 0.642738
Si Si2 0.251700 0.899283 0.861352
Si Si3 0.360047 0.439508 0.640304
Si Si4 0.398479 0.741287 0.862697
Si Si5 0.860258 0.441350 0.643234
Si Si6 0.223117 0.725400 0.364907
Si Si7 0.062824 0.130408 0.273255
Si Si8 0.562965 0.560275 0.000000
O O1 0.060662 0.352697 0.500000
O O2 0.070639 0.293285 0.679030
O O3 0.101471 0.394872 0.683338
O O4 0.000000 0.368946 0.677038
O O5 0.194951 0.915236 0.813627
O O6 0.301316 0.931394 0.814215
O O7 0.266696 0.837509 0.853603
O O8 0.249286 0.911675 0.000000
O O9 0.356813 0.441912 0.500000
O O10 0.367237 0.500000 0.683283
O O11 0.407549 0.401085 0.671918
O O12 0.337646 0.757788 0.858649
O O13 0.413961 0.688913 0.792549
O O14 0.411922 0.731419 0.000000
O O15 0.859345 0.438886 0.500000
O O16 0.878392 0.500000 0.675552
O O17 0.240509 0.739726 0.500000
O O18 0.250000 0.750000 0.250000
O O19 0.076604 0.094644 0.386735
O O20 0.000000 0.132690 0.260951
O O21 0.583404 0.500000 0.000000
O O22 0.500000 0.556520 0.000000
#
# Coordination Sequence:
#
# PCOD9518177 Si02
#       8
#    16  16  16  16  16  16  16   8
#     4   9  16  25  39  61  93 130 163 198 240 290
#     4   9  16  30  48  68  94 126 164 204 246 291
#     4  10  21  35  51  71  95 126 164 206 252 304
#     4  10  18  31  48  70  98 128 167 207 246 297
#     4   9  15  24  40  63  92 127 164 198 237 288
#     4  10  19  31  50  74 103 135 167 209 255 304
#     4  11  21  33  50  70  93 125 164 206 250 298
#     4   9  18  32  48  66  88 116 155 201 242 282
#
# _framework density 16.276240000000001
#
# number of rings (size 3 to 8) (size 9 to 14) (size 15 to 20)
#    0.000    2.333    2.000    2.000    0.000    3.467 
#    0.000    2.000    0.000    0.000    0.000    0.000 
#    0.000    0.000    0.000    0.000    0.000    2.000 
#
# Total GULP energy -334005.283030 kJ/mol
# GULP energy per Si atom -5566.754717 kJ/mol
# Density = 1.623919 g / cm^3
# Si number density = 16.276240 Si / 1000 Ang^3
#
#
#
# Elastic Constant Matrix: (Units=GPa)
#
#
# Indices 1 2 3 4 5 6 
#
# 1 77.0726 47.0696 16.6772 0.0000 0.0000 0.0000
# 2 47.0696 118.5403 21.0510 0.0000 0.0000 0.0000
# 3 16.6772 21.0510 27.2426 0.0000 0.0000 0.0000
# 4 0.0000 0.0000 0.0000 17.3476 0.0000 0.0000
# 5 0.0000 0.0000 0.0000 0.0000 13.9437 0.0000
# 6 0.0000 0.0000 0.0000 0.0000 0.0000 19.9531
#
#
#
# Elastic Compliance Matrix: (Units=1/GPa)
#
#
# Indices 1 2 3 4 5 6 
#
# 1 0.018038 -0.006029 -0.006384 0.000000 0.000000 0.000000
# 2 -0.006029 0.011793 -0.005422 0.000000 0.000000 0.000000
# 3 -0.006384 -0.005422 0.044805 0.000000 0.000000 0.000000
# 4 0.000000 0.000000 0.000000 0.057645 0.000000 0.000000
# 5 0.000000 0.000000 0.000000 0.000000 0.071717 0.000000
# 6 0.000000 0.000000 0.000000 0.000000 0.000000 0.050118
#
#
# Mechanical properties :
#
#
# Convention : Reuss Voigt Hill
#
# Bulk Modulus (GPa) = 25.66300 43.60570 34.63435
# Shear Modulus (GPa) = 16.51404 19.45271 17.98338
#
# Velocity S-wave (km/s) = 3.18875 3.46086 3.32759
# Velocity P-wave (km/s) = 5.41838 6.54364 6.00742
#
# Compressibility (1/GPa) = 0.03896660
#
# Stress axis : x y z
#
# Youngs Moduli (GPa) = 55.43845 84.79835 22.31906
#
# Poissons Ratio (x) = 0.51123 0.14248
# Poissons Ratio (y) = 0.33423 0.12101
# Poissons Ratio (z) = 0.35391 0.45976
#
# Static dielectric constant tensor:
#      x y z
#    x 1.563280 0.000000 0.000000 
#    y 0.000000 1.556250 0.000000 
#    z 0.000000 0.000000 1.547590 
# 
# From -- ./inp_files/29149.got.cif
#   From: 2010.05.17/outbox.cif.g08.bks.cpg/sg71_15_cif.got.tgz:29149.got - 2010.06.03 16:22:01.
