data_PCOD9518828
_publ_section_title
;
Structure prediction by ZEFSAII (Michael W. Deem and Ramdas Pophale) SiO2 
 PCOD9518828
Probable space group: I M M M
;
_chemical_formula_sum "Si O2"
_cell_formula_units_Z 80
_cell_length_a 7.311320
_cell_length_b 27.794943
_cell_length_c 17.702062
_cell_angle_alpha 90.000000
_cell_angle_beta 90.000000
_cell_angle_gamma 90.000000
_cell_volume 3597.372726
_symmetry_space_group_name_H-M "I M M M"
_symmetry_group_IT_number 71
_symmetry_cell_setting 'orthorhombic'
loop_
_space_group_symop_operation_xyz
x,y,z
-x,-y,z
x,-y,-z
-x,y,-z
-x,-y,-z
x,y,-z
-x,y,z
x,-y,z
1/2+x,1/2+y,1/2+z
1/2-x,1/2-y,1/2+z
1/2+x,1/2-y,1/2-z
1/2-x,1/2+y,1/2-z
1/2-x,1/2-y,1/2-z
1/2+x,1/2+y,1/2-z
1/2-x,1/2+y,1/2+z
1/2+x,1/2-y,1/2+z
loop_
_atom_site_type_symbol
_atom_site_label
_atom_site_fract_x
_atom_site_fract_y
_atom_site_fract_z
Si Si1 0.720539 0.705598 0.087397
Si Si2 0.277580 0.813444 0.912745
Si Si3 0.224004 0.593896 0.680128
Si Si4 0.210591 0.604969 0.847868
Si Si5 0.277026 0.056019 0.500000
Si Si6 0.722858 0.000000 0.086912
O O1 0.500000 0.704781 0.088098
O O2 0.779628 0.759424 0.109328
O O3 0.785138 0.662289 0.139383
O O4 0.777848 0.697120 0.000000
O O5 0.500000 0.813414 0.912124
O O6 0.217237 0.856584 0.859510
O O7 0.223485 0.821582 0.000000
O O8 0.288220 0.591631 0.766536
O O9 0.279373 0.547888 0.631234
O O10 0.000000 0.594579 0.680906
O O11 0.290067 0.581467 0.923599
O O12 0.000000 0.588792 0.845432
O O13 0.500000 0.060276 0.500000
O O14 0.231307 0.000000 0.500000
O O15 0.500000 0.000000 0.086198
O O16 0.782285 0.000000 0.000000
#
# Coordination Sequence:
#
# PCOD9518828 Si02
#       6
#    16  16  16  16   8   8
#     4   9  17  30  48  66  88 123 160 189 222 272
#     4   8  14  26  43  62  87 120 153 184 226 279
#     4   9  17  26  40  65  93 119 152 191 229 273
#     4  10  19  30  46  69  95 121 153 192 230 270
#     4   9  18  30  45  63  89 127 157 180 223 276
#     4   9  16  26  42  65  96 127 150 185 235 275
#
# _framework density 22.238451999999999
#
# number of rings (size 3 to 8) (size 9 to 14) (size 15 to 20)
#    0.000    3.000    1.000    1.800    1.400    3.200 
#    0.000    0.000    0.000    1.200    0.000    0.000 
#    0.000    3.200    0.000    0.000    0.000    0.400 
#
# Total GULP energy -223432.356495 kJ/mol
# GULP energy per Si atom -5585.808912 kJ/mol
# Density = 2.218784 g / cm^3
# Si number density = 22.238452 Si / 1000 Ang^3
#
#
#
# Elastic Constant Matrix: (Units=GPa)
#
#
# Indices 1 2 3 4 5 6 
#
# 1 89.0936 -4.6594 6.3220 0.0000 0.0000 0.0000
# 2 -4.6594 154.9392 124.2433 0.0000 0.0000 0.0000
# 3 6.3220 124.2433 207.0134 0.0000 0.0001 0.0000
# 4 0.0000 0.0000 0.0000 20.8823 0.0000 0.0000
# 5 0.0000 0.0000 0.0001 0.0000 -21.1243 0.0000
# 6 0.0000 0.0000 0.0000 0.0000 0.0000 7.6557
#
#
#
# Elastic Compliance Matrix: (Units=1/GPa)
#
#
# Indices 1 2 3 4 5 6 
#
# 1 0.011362 0.001195 -0.001064 0.000000 0.000000 0.000000
# 2 0.001195 0.012568 -0.007579 0.000000 0.000000 0.000000
# 3 -0.001064 -0.007579 0.009412 0.000000 0.000000 0.000000
# 4 0.000000 0.000000 0.000000 0.047887 0.000000 0.000000
# 5 0.000000 0.000000 0.000000 0.000000 -0.047339 0.000000
# 6 0.000000 0.000000 0.000000 0.000000 0.000000 0.130621
#
#
# Mechanical properties :
#
#
# Convention : Reuss Voigt Hill
#
# Bulk Modulus (GPa) = 54.21520 78.09533 66.15527
# Shear Modulus (GPa) = 26.94593 23.15877 25.05235
#
# Velocity S-wave (km/s) = 3.48470 3.23055 3.36003
# Velocity P-wave (km/s) = 6.37360 7.00776 6.69819
#
# Compressibility (1/GPa) = 0.01844501
#
# Stress axis : x y z
#
# Youngs Moduli (GPa) = 88.01140 79.56826 106.24739
#
# Poissons Ratio (x) = -0.09509 0.11307
# Poissons Ratio (y) = -0.10518 0.80528
# Poissons Ratio (z) = 0.09367 0.60307
#
# Static dielectric constant tensor:
#      x y z
#    x 1.880570 0.000000 0.000000 
#    y 0.000000 1.767890 0.000000 
#    z 0.000000 0.000000 1.777990 
# 
# From -- ./inp_files/32920.got.cif
#   From: 2010.05.17/outbox.cif.g08.bks.cpg/sg71_17_cif.got.tgz:32920.got - 2010.06.03 16:22:01.
