data_PCOD9518094
_publ_section_title
;
Structure prediction by ZEFSAII (Michael W. Deem and Ramdas Pophale) SiO2 
 PCOD9518094
Probable space group: I M M M
;
_chemical_formula_sum "Si O2"
_cell_formula_units_Z 56
_cell_length_a 8.491958
_cell_length_b 23.508101
_cell_length_c 14.633681
_cell_angle_alpha 90.000000
_cell_angle_beta 90.000000
_cell_angle_gamma 90.000000
_cell_volume 2921.318904
_symmetry_space_group_name_H-M "I M M M"
_symmetry_group_IT_number 71
_symmetry_cell_setting 'orthorhombic'
loop_
_space_group_symop_operation_xyz
x,y,z
-x,-y,z
x,-y,-z
-x,y,-z
-x,-y,-z
x,y,-z
-x,y,z
x,-y,z
1/2+x,1/2+y,1/2+z
1/2-x,1/2-y,1/2+z
1/2+x,1/2-y,1/2-z
1/2-x,1/2+y,1/2-z
1/2-x,1/2-y,1/2-z
1/2+x,1/2+y,1/2-z
1/2-x,1/2+y,1/2+z
1/2+x,1/2-y,1/2+z
loop_
_atom_site_type_symbol
_atom_site_label
_atom_site_fract_x
_atom_site_fract_y
_atom_site_fract_z
Si Si1 0.192036 0.000000 0.894443
Si Si2 0.188792 0.116705 0.201437
Si Si3 0.312144 0.766357 0.149876
Si Si4 0.188125 0.351453 0.901342
O O1 0.240688 0.943138 0.841085
O O2 0.000000 0.000000 0.895193
O O3 0.243947 0.000000 0.000000
O O4 0.256864 0.168762 0.140979
O O5 0.240060 0.123603 0.307660
O O6 0.000000 0.120754 0.198631
O O7 0.500000 0.763427 0.143867
O O8 0.250000 0.750000 0.250000
O O9 0.237297 0.714866 0.094359
O O10 0.000000 0.355078 0.893037
O O11 0.235438 0.377463 0.000000
#
# Coordination Sequence:
#
# PCOD9518094 Si02
#       4
#     8  16  16  16
#     4   9  20  38  58  79 102 134 177 219 262 315
#     4  10  19  34  56  79 106 140 178 221 264 309
#     4  10  18  30  50  76 107 139 172 212 258 308
#     4  10  20  34  53  78 109 144 178 214 262 318
#
# _framework density 19.169423999999999
#
# number of rings (size 3 to 8) (size 9 to 14) (size 15 to 20)
#    0.000    2.143    0.000    7.714    0.000    3.429 
#    0.000    6.429    0.000   10.286    0.000    0.000 
#    0.000    0.000    0.000    0.000    0.000    0.000 
#
# Total GULP energy -156031.008941 kJ/mol
# GULP energy per Si atom -5572.536034 kJ/mol
# Density = 1.912579 g / cm^3
# Si number density = 19.169424 Si / 1000 Ang^3
#
#
#
# Elastic Constant Matrix: (Units=GPa)
#
#
# Indices 1 2 3 4 5 6 
#
# 1 45.3589 3.6885 5.1248 0.0000 0.0000 0.0000
# 2 3.6885 131.8557 49.3847 0.0000 0.0000 0.0000
# 3 5.1248 49.3847 126.2996 0.0000 0.0000 0.0000
# 4 0.0000 0.0000 0.0000 4.5086 0.0000 0.0000
# 5 0.0000 0.0000 0.0000 0.0000 11.2846 0.0000
# 6 0.0000 0.0000 0.0000 0.0000 0.0000 22.8133
#
#
#
# Elastic Compliance Matrix: (Units=1/GPa)
#
#
# Indices 1 2 3 4 5 6 
#
# 1 0.022160 -0.000332 -0.000769 0.000000 0.000000 0.000000
# 2 -0.000332 0.008890 -0.003463 0.000000 0.000000 0.000000
# 3 -0.000769 -0.003463 0.009303 0.000000 0.000000 0.000000
# 4 0.000000 0.000000 0.000000 0.221800 0.000000 0.000000
# 5 0.000000 0.000000 0.000000 0.000000 0.088617 0.000000
# 6 0.000000 0.000000 0.000000 0.000000 0.000000 0.043834
#
#
# Mechanical properties :
#
#
# Convention : Reuss Voigt Hill
#
# Bulk Modulus (GPa) = 32.02506 46.65668 39.34087
# Shear Modulus (GPa) = 12.07320 24.07571 18.07445
#
# Velocity S-wave (km/s) = 2.51234 3.54777 3.07397
# Velocity P-wave (km/s) = 5.01581 6.41671 5.75902
#
# Compressibility (1/GPa) = 0.03122555
#
# Stress axis : x y z
#
# Youngs Moduli (GPa) = 45.12577 112.48284 107.49363
#
# Poissons Ratio (x) = 0.03731 0.08271
# Poissons Ratio (y) = 0.01497 0.37222
# Poissons Ratio (z) = 0.03472 0.38950
#
# Static dielectric constant tensor:
#      x y z
#    x 1.648410 0.000000 0.000000 
#    y 0.000000 1.686160 0.000000 
#    z 0.000000 0.000000 1.690190 
# 
# From -- ./inp_files/5317.got.cif
#   From: 2010.05.17/outbox.cif.g08.bks.cpg/sg71_3_cif.got.tgz:5317.got - 2010.06.03 16:22:01.
