data_PCOD9518424
_publ_section_title
;
Structure prediction by ZEFSAII (Michael W. Deem and Ramdas Pophale) SiO2 
 PCOD9518424
Probable space group: I M M M
;
_chemical_formula_sum "Si O2"
_cell_formula_units_Z 88
_cell_length_a 8.563382
_cell_length_b 21.181278
_cell_length_c 25.126067
_cell_angle_alpha 90.000000
_cell_angle_beta 90.000000
_cell_angle_gamma 90.000000
_cell_volume 4557.450827
_symmetry_space_group_name_H-M "I M M M"
_symmetry_group_IT_number 71
_symmetry_cell_setting 'orthorhombic'
loop_
_space_group_symop_operation_xyz
x,y,z
-x,-y,z
x,-y,-z
-x,y,-z
-x,-y,-z
x,y,-z
-x,y,z
x,-y,z
1/2+x,1/2+y,1/2+z
1/2-x,1/2-y,1/2+z
1/2+x,1/2-y,1/2-z
1/2-x,1/2+y,1/2-z
1/2-x,1/2-y,1/2-z
1/2+x,1/2+y,1/2-z
1/2-x,1/2+y,1/2+z
1/2+x,1/2-y,1/2+z
loop_
_atom_site_type_symbol
_atom_site_label
_atom_site_fract_x
_atom_site_fract_y
_atom_site_fract_z
Si Si1 0.677938 0.093732 0.000000
Si Si2 0.821351 0.247292 0.881207
Si Si3 0.309702 0.573745 0.000000
Si Si4 0.309540 0.500000 0.816049
Si Si5 0.187806 0.606686 0.383009
Si Si6 0.187526 0.000000 0.193444
Si Si7 0.327780 0.719960 0.500000
Si Si8 0.188293 0.121021 0.383995
O O1 0.745940 0.080703 0.941280
O O2 0.688951 0.169822 0.000000
O O3 0.500000 0.071321 0.000000
O O4 0.742131 0.178902 0.873652
O O5 0.819897 0.256245 0.945316
O O6 0.742978 0.311431 0.861612
O O7 0.000000 0.242927 0.863099
O O8 0.259330 0.605809 0.944658
O O9 0.264186 0.500000 0.000000
O O10 0.500000 0.575255 0.000000
O O11 0.500000 0.500000 0.817035
O O12 0.260711 0.500000 0.754754
O O13 0.259398 0.437179 0.847225
O O14 0.249906 0.561001 0.337669
O O15 0.000000 0.605418 0.385071
O O16 0.000000 0.000000 0.191946
O O17 0.500000 0.686850 0.500000
O O18 0.000000 0.121745 0.384975
#
# Coordination Sequence:
#
# PCOD9518424 Si02
#       8
#     8  16   8   8  16   8   8  16
#     4   8  16  30  52  79 108 134 166 211 258 308
#     4  10  19  32  51  80 115 148 179 218 268 324
#     4   9  15  26  51  85 115 143 185 230 265 312
#     4   9  20  38  58  77 104 143 188 229 272 322
#     4  10  20  37  59  84 110 141 180 221 266 324
#     4  11  23  40  59  79 105 141 180 227 280 328
#     4   8  15  27  44  69 109 150 174 197 249 318
#     4  10  18  32  55  82 111 146 185 227 269 316
#
# _framework density 19.309041000000001
#
# number of rings (size 3 to 8) (size 9 to 14) (size 15 to 20)
#    0.000    2.455    0.909    1.909    0.000    1.818 
#    0.000    7.727    0.000    0.545    0.000    0.000 
#    0.000    0.000    0.000    0.000    0.000    0.000 
#
# Total GULP energy -245092.956142 kJ/mol
# GULP energy per Si atom -5570.294458 kJ/mol
# Density = 1.926509 g / cm^3
# Si number density = 19.309041 Si / 1000 Ang^3
#
#
#
# Elastic Constant Matrix: (Units=GPa)
#
#
# Indices 1 2 3 4 5 6 
#
# 1 41.6449 41.9479 27.4971 0.0000 0.0000 0.0000
# 2 41.9479 170.2979 73.1415 0.0000 0.0000 0.0000
# 3 27.4971 73.1415 124.6351 0.0000 0.0000 0.0000
# 4 0.0000 0.0000 0.0000 8.1883 0.0000 0.0000
# 5 0.0000 0.0000 0.0000 0.0000 13.1907 0.0000
# 6 0.0000 0.0000 0.0000 0.0000 0.0000 21.3688
#
#
#
# Elastic Compliance Matrix: (Units=1/GPa)
#
#
# Indices 1 2 3 4 5 6 
#
# 1 0.032951 -0.006677 -0.003351 0.000000 0.000000 0.000000
# 2 -0.006677 0.009204 -0.003928 0.000000 0.000000 0.000000
# 3 -0.003351 -0.003928 0.011068 0.000000 0.000000 0.000000
# 4 0.000000 0.000000 0.000000 0.122125 0.000000 0.000000
# 5 0.000000 0.000000 0.000000 0.000000 0.075811 0.000000
# 6 0.000000 0.000000 0.000000 0.000000 0.000000 0.046797
#
#
# Mechanical properties :
#
#
# Convention : Reuss Voigt Hill
#
# Bulk Modulus (GPa) = 39.51030 69.08344 54.29687
# Shear Modulus (GPa) = 14.95635 21.48231 18.21933
#
# Velocity S-wave (km/s) = 2.78614 3.33911 3.07508
# Velocity P-wave (km/s) = 5.55487 7.12191 6.38664
#
# Compressibility (1/GPa) = 0.02530986
#
# Stress axis : x y z
#
# Youngs Moduli (GPa) = 30.34799 108.64953 90.35076
#
# Poissons Ratio (x) = 0.72548 0.30278
# Poissons Ratio (y) = 0.20264 0.35491
# Poissons Ratio (z) = 0.10170 0.42679
#
# Static dielectric constant tensor:
#      x y z
#    x 1.698770 0.000000 0.000000 
#    y 0.000000 1.670960 0.000000 
#    z 0.000000 0.000000 1.684440 
# 
# From -- ./inp_files/57666.got.cif
#   From: 2010.05.17/outbox.cif.g08.bks.cpg/sg71_29_cif.got.tgz:57666.got - 2010.06.03 16:22:01.
