data_PCOD9518984
_publ_section_title
;
Structure prediction by ZEFSAII (Michael W. Deem and Ramdas Pophale) SiO2 
 PCOD9518984
Probable space group: I M M M
;
_chemical_formula_sum "Si O2"
_cell_formula_units_Z 96
_cell_length_a 11.554572
_cell_length_b 28.569875
_cell_length_c 19.213793
_cell_angle_alpha 90.000000
_cell_angle_beta 90.000000
_cell_angle_gamma 90.000000
_cell_volume 6342.716656
_symmetry_space_group_name_H-M "I M M M"
_symmetry_group_IT_number 71
_symmetry_cell_setting 'orthorhombic'
loop_
_space_group_symop_operation_xyz
x,y,z
-x,-y,z
x,-y,-z
-x,y,-z
-x,-y,-z
x,y,-z
-x,y,z
x,-y,z
1/2+x,1/2+y,1/2+z
1/2-x,1/2-y,1/2+z
1/2+x,1/2-y,1/2-z
1/2-x,1/2+y,1/2-z
1/2-x,1/2-y,1/2-z
1/2+x,1/2+y,1/2-z
1/2-x,1/2+y,1/2+z
1/2+x,1/2-y,1/2+z
loop_
_atom_site_type_symbol
_atom_site_label
_atom_site_fract_x
_atom_site_fract_y
_atom_site_fract_z
Si Si1 0.867179 0.778727 0.415544
Si Si2 0.359018 0.619013 0.920362
Si Si3 0.263625 0.412557 0.648194
Si Si4 0.138829 0.944384 0.708566
Si Si5 0.500000 0.445581 0.583015
Si Si6 0.362008 0.000000 0.080184
Si Si7 0.359989 0.824830 0.082953
O O1 0.870936 0.779217 0.500000
O O2 0.816146 0.829311 0.396660
O O3 0.818917 0.727748 0.397052
O O4 0.000000 0.778530 0.390447
O O5 0.500000 0.621795 0.922321
O O6 0.329907 0.579465 0.864746
O O7 0.321711 0.609859 0.000000
O O8 0.290980 0.420383 0.729162
O O9 0.386325 0.419988 0.610203
O O10 0.184233 0.454388 0.619041
O O11 0.204030 0.364219 0.626960
O O12 0.000000 0.937565 0.719759
O O13 0.159584 0.000000 0.708699
O O14 0.500000 0.500000 0.608557
O O15 0.500000 0.446712 0.500000
O O16 0.500000 0.000000 0.078761
O O17 0.318843 0.000000 0.000000
O O18 0.500000 0.827265 0.091474
O O19 0.338390 0.831987 0.000000
#
# Coordination Sequence:
#
# PCOD9518984 Si02
#       7
#    16  16  16  16   8   8  16
#     4   7  11  23  43  66  89 113 143 182 230 278
#     4   8  14  26  47  70  90 115 148 184 227 281
#     4  12  20  31  43  62  91 124 158 186 221 270
#     4  10  19  31  43  61  93 129 154 182 224 269
#     4  11  20  30  44  58  79 123 171 197 209 251
#     4  11  22  33  47  65  86 114 154 204 239 256
#     4   9  17  29  46  67  91 117 149 194 238 266
#
# _framework density 15.135471000000001
#
# number of rings (size 3 to 8) (size 9 to 14) (size 15 to 20)
#    0.000    2.500    2.500    4.000    0.000    1.667 
#    0.000    2.500    0.000    0.000    0.000    0.000 
#    0.000    3.333    1.500    0.000    0.000    0.000 
#
# Total GULP energy -267205.690514 kJ/mol
# GULP energy per Si atom -5566.785219 kJ/mol
# Density = 1.510102 g / cm^3
# Si number density = 15.135471 Si / 1000 Ang^3
#
#
#
# Elastic Constant Matrix: (Units=GPa)
#
#
# Indices 1 2 3 4 5 6 
#
# 1 34.2410 19.2041 20.7861 0.0000 0.0000 0.0000
# 2 19.2041 87.7290 55.2044 0.0000 0.0000 0.0000
# 3 20.7861 55.2044 90.4333 0.0001 0.0000 0.0000
# 4 0.0000 0.0000 0.0001 7.5538 0.0000 0.0000
# 5 0.0000 0.0000 0.0000 0.0000 19.5404 0.0000
# 6 0.0000 0.0000 0.0000 0.0000 0.0000 4.7567
#
#
#
# Elastic Compliance Matrix: (Units=1/GPa)
#
#
# Indices 1 2 3 4 5 6 
#
# 1 0.034870 -0.004205 -0.005448 0.000000 0.000000 0.000000
# 2 -0.004205 0.019015 -0.010641 0.000000 0.000000 0.000000
# 3 -0.005448 -0.010641 0.018806 0.000000 0.000000 0.000000
# 4 0.000000 0.000000 0.000000 0.132384 0.000000 0.000000
# 5 0.000000 0.000000 0.000000 0.000000 0.051176 0.000000
# 6 0.000000 0.000000 0.000000 0.000000 0.000000 0.210232
#
#
# Mechanical properties :
#
#
# Convention : Reuss Voigt Hill
#
# Bulk Modulus (GPa) = 31.14965 44.75474 37.95219
# Shear Modulus (GPa) = 9.65674 14.18409 11.92041
#
# Velocity S-wave (km/s) = 2.52865 3.06460 2.80943
# Velocity P-wave (km/s) = 5.39913 6.49276 5.97104
#
# Compressibility (1/GPa) = 0.03210309
#
# Stress axis : x y z
#
# Youngs Moduli (GPa) = 28.67767 52.58903 53.17445
#
# Poissons Ratio (x) = 0.22113 0.28970
# Poissons Ratio (y) = 0.12059 0.56585
# Poissons Ratio (z) = 0.15624 0.55962
#
# Static dielectric constant tensor:
#      x y z
#    x 1.497120 0.000000 0.000000 
#    y 0.000000 1.532550 0.000000 
#    z 0.000000 0.000000 1.501920 
# 
# From -- ./inp_files/52310.got.cif
#   From: 2010.05.17/outbox.cif.g08.bks.cpg/sg71_27_cif.got.tgz:52310.got - 2010.06.03 16:22:01.
