data_PCOD9518410
_publ_section_title
;
Structure prediction by ZEFSAII (Michael W. Deem and Ramdas Pophale) SiO2 
 PCOD9518410
Probable space group: I M M M
;
_chemical_formula_sum "Si O2"
_cell_formula_units_Z 48
_cell_length_a 22.347021
_cell_length_b 9.588663
_cell_length_c 12.856167
_cell_angle_alpha 90.000000
_cell_angle_beta 90.000000
_cell_angle_gamma 90.000000
_cell_volume 2754.794439
_symmetry_space_group_name_H-M "I M M M"
_symmetry_group_IT_number 71
_symmetry_cell_setting 'orthorhombic'
loop_
_space_group_symop_operation_xyz
x,y,z
-x,-y,z
x,-y,-z
-x,y,-z
-x,-y,-z
x,y,-z
-x,y,z
x,-y,z
1/2+x,1/2+y,1/2+z
1/2-x,1/2-y,1/2+z
1/2+x,1/2-y,1/2-z
1/2-x,1/2+y,1/2-z
1/2-x,1/2-y,1/2-z
1/2+x,1/2+y,1/2-z
1/2-x,1/2+y,1/2+z
1/2+x,1/2-y,1/2+z
loop_
_atom_site_type_symbol
_atom_site_label
_atom_site_fract_x
_atom_site_fract_y
_atom_site_fract_z
Si Si1 0.692208 0.500000 0.620648
Si Si2 0.620124 0.731195 0.254887
Si Si3 0.335774 0.000000 0.873854
Si Si4 0.000000 0.828055 0.878337
Si Si5 0.432536 0.500000 0.879356
O O1 0.671957 0.500000 0.500000
O O2 0.666755 0.361079 0.677288
O O3 0.763734 0.500000 0.623864
O O4 0.559443 0.735006 0.324234
O O5 0.601608 0.632883 0.160299
O O6 0.642666 0.869470 0.197319
O O7 0.354190 0.000000 0.000000
O O8 0.000000 0.000000 0.873359
O O9 0.000000 0.793722 0.000000
O O10 0.500000 0.500000 0.837827
O O11 0.435847 0.500000 0.000000
#
# Coordination Sequence:
#
# PCOD9518410 Si02
#       5
#     8  16   8   8   8
#     4  10  21  40  65  86 112 156 204 244 285 340
#     4  11  20  38  59  88 116 155 192 242 294 349
#     4  11  25  40  56  86 125 160 194 237 290 347
#     4  11  20  37  64  91 113 145 195 245 295 350
#     4  10  18  32  54  81 111 150 199 237 273 338
#
# _framework density 17.424167000000001
#
# number of rings (size 3 to 8) (size 9 to 14) (size 15 to 20)
#    0.000    1.333    5.000    3.000    0.000    0.667 
#    0.000    5.000    0.000   10.000    0.000    0.000 
#    0.000    0.000    0.000    0.000    0.000    0.000 
#
# Total GULP energy -133602.155748 kJ/mol
# GULP energy per Si atom -5566.756490 kJ/mol
# Density = 1.738451 g / cm^3
# Si number density = 17.424167 Si / 1000 Ang^3
#
#
#
# Elastic Constant Matrix: (Units=GPa)
#
#
# Indices 1 2 3 4 5 6 
#
# 1 100.4817 64.6258 58.6738 0.0000 0.0000 0.0000
# 2 64.6258 149.3322 76.3297 0.0000 0.0000 0.0000
# 3 58.6738 76.3297 168.4228 0.0000 0.0000 0.0000
# 4 0.0000 0.0000 0.0000 -50.4784 0.0000 0.0000
# 5 0.0000 0.0000 0.0000 0.0000 5.8201 0.0000
# 6 0.0000 0.0000 0.0000 0.0000 0.0000 -128.5151
#
#
#
# Elastic Compliance Matrix: (Units=1/GPa)
#
#
# Indices 1 2 3 4 5 6 
#
# 1 0.014829 -0.004916 -0.002938 0.000000 0.000000 0.000000
# 2 -0.004916 0.010345 -0.002976 0.000000 0.000000 0.000000
# 3 -0.002938 -0.002976 0.008310 0.000000 0.000000 0.000000
# 4 0.000000 0.000000 0.000000 -0.019810 0.000000 0.000000
# 5 0.000000 0.000000 0.000000 0.000000 0.171817 0.000000
# 6 0.000000 0.000000 0.000000 0.000000 0.000000 -0.007781
#
#
# Mechanical properties :
#
#
# Convention : Reuss Voigt Hill
#
# Bulk Modulus (GPa) = 84.57201 90.83279 87.70240
# Shear Modulus (GPa) = 24.59289 -20.06085 2.26602
#
# Velocity S-wave (km/s) = 3.76097 -3.39680 1.14163
# Velocity P-wave (km/s) = 8.21598 6.07118 7.22363
#
# Compressibility (1/GPa) = 0.01182424
#
# Stress axis : x y z
#
# Youngs Moduli (GPa) = 67.43337 96.66575 120.34094
#
# Poissons Ratio (x) = 0.47519 0.35360
# Poissons Ratio (y) = 0.33149 0.35811
# Poissons Ratio (z) = 0.19814 0.28766
#
# Static dielectric constant tensor:
#      x y z
#    x 1.604480 0.000000 0.000000 
#    y 0.000000 1.559090 0.000000 
#    z 0.000000 0.000000 1.595200 
# 
# From -- ./inp_files/18124.got.cif
#   From: 2010.05.17/outbox.cif.g08.bks.cpg/sg71_10_cif.got.tgz:18124.got - 2010.06.03 16:22:01.
