data_PCOD9518293
_publ_section_title
;
Structure prediction by ZEFSAII (Michael W. Deem and Ramdas Pophale) SiO2 
 PCOD9518293
Probable space group: I M M M
;
_chemical_formula_sum "Si O2"
_cell_formula_units_Z 120
_cell_length_a 7.621657
_cell_length_b 25.580830
_cell_length_c 30.204473
_cell_angle_alpha 90.000000
_cell_angle_beta 90.000000
_cell_angle_gamma 90.000000
_cell_volume 5888.915117
_symmetry_space_group_name_H-M "I M M M"
_symmetry_group_IT_number 71
_symmetry_cell_setting 'orthorhombic'
loop_
_space_group_symop_operation_xyz
x,y,z
-x,-y,z
x,-y,-z
-x,y,-z
-x,-y,-z
x,y,-z
-x,y,z
x,-y,z
1/2+x,1/2+y,1/2+z
1/2-x,1/2-y,1/2+z
1/2+x,1/2-y,1/2-z
1/2-x,1/2+y,1/2-z
1/2-x,1/2-y,1/2-z
1/2+x,1/2+y,1/2-z
1/2-x,1/2+y,1/2+z
1/2+x,1/2-y,1/2+z
loop_
_atom_site_type_symbol
_atom_site_label
_atom_site_fract_x
_atom_site_fract_y
_atom_site_fract_z
Si Si1 0.214282 0.941759 0.745388
Si Si2 0.791077 0.255472 0.301895
Si Si3 0.295992 0.642559 0.823106
Si Si4 0.206576 0.365516 0.080501
Si Si5 0.214840 0.250591 0.949383
Si Si6 0.795008 0.167941 0.877190
Si Si7 0.285459 0.441703 0.348069
Si Si8 0.290367 0.559181 0.000000
O O1 0.280640 0.896381 0.713311
O O2 0.265074 0.935057 0.796510
O O3 0.000000 0.941027 0.744315
O O4 0.268199 0.000000 0.730959
O O5 0.750000 0.250000 0.250000
O O6 0.722124 0.201262 0.323110
O O7 0.715945 0.304117 0.329167
O O8 0.000000 0.259821 0.307222
O O9 0.500000 0.649288 0.810935
O O10 0.285920 0.620118 0.872236
O O11 0.273824 0.308869 0.064273
O O12 0.000000 0.359939 0.087818
O O13 0.235314 0.408247 0.042968
O O14 0.278119 0.207933 0.913788
O O15 0.000000 0.251309 0.948508
O O16 0.266634 0.239511 0.000000
O O17 0.721546 0.109327 0.874089
O O18 0.000000 0.162296 0.888125
O O19 0.500000 0.441313 0.349003
O O20 0.230381 0.500000 0.362526
O O21 0.221662 0.500000 0.000000
O O22 0.500000 0.557002 0.000000
#
# Coordination Sequence:
#
# PCOD9518293 Si02
#       8
#    16  16  16  16  16  16  16   8
#     4   8  14  26  44  65  92 128 169 210 251 297
#     4  11  22  33  48  73 108 144 181 223 269 322
#     4  10  20  33  49  73 103 136 175 220 269 318
#     4  11  21  36  57  78 104 137 173 217 272 329
#     4   9  17  31  52  77 103 135 170 208 261 323
#     4  10  18  31  53  77 103 135 176 219 262 319
#     4   8  14  26  47  75 103 133 172 215 254 299
#     4  11  25  43  61  81 105 137 180 227 274 322
#
# _framework density 20.377268999999998
#
# number of rings (size 3 to 8) (size 9 to 14) (size 15 to 20)
#    0.000    2.333    2.000    2.600    0.000    3.733 
#    0.000    1.333    0.000    0.800    0.000    4.667 
#    0.000    0.000    0.000    1.200    0.000    1.333 
#
# Total GULP energy -334881.688422 kJ/mol
# GULP energy per Si atom -5581.361474 kJ/mol
# Density = 2.033089 g / cm^3
# Si number density = 20.377269 Si / 1000 Ang^3
#
#
#
# Elastic Constant Matrix: (Units=GPa)
#
#
# Indices 1 2 3 4 5 6 
#
# 1 42.5578 3.1440 -8.6464 0.0000 0.0000 0.0000
# 2 3.1440 168.6959 48.3200 0.0000 0.0000 0.0000
# 3 -8.6464 48.3200 73.5658 0.0000 0.0000 0.0000
# 4 0.0000 0.0000 0.0000 34.3759 0.0000 0.0000
# 5 0.0000 0.0000 0.0000 0.0000 11.0531 0.0000
# 6 0.0000 0.0000 0.0000 0.0000 0.0000 3.7510
#
#
#
# Elastic Compliance Matrix: (Units=1/GPa)
#
#
# Indices 1 2 3 4 5 6 
#
# 1 0.024406 -0.001572 0.003901 0.000000 0.000000 0.000000
# 2 -0.001572 0.007403 -0.005047 0.000000 0.000000 0.000000
# 3 0.003901 -0.005047 0.017367 0.000000 0.000000 0.000000
# 4 0.000000 0.000000 0.000000 0.029090 0.000000 0.000000
# 5 0.000000 0.000000 0.000000 0.000000 0.090472 0.000000
# 6 0.000000 0.000000 0.000000 0.000000 0.000000 0.266593
#
#
# Mechanical properties :
#
#
# Convention : Reuss Voigt Hill
#
# Bulk Modulus (GPa) = 22.86261 41.16163 32.01212
# Shear Modulus (GPa) = 10.98063 25.96948 18.47505
#
# Velocity S-wave (km/s) = 2.32387 3.57379 3.01433
# Velocity P-wave (km/s) = 4.29471 6.10516 5.27814
#
# Compressibility (1/GPa) = 0.04373954
#
# Stress axis : x y z
#
# Youngs Moduli (GPa) = 40.97312 135.08411 57.58078
#
# Poissons Ratio (x) = 0.21239 -0.22464
# Poissons Ratio (y) = 0.06442 0.29062
# Poissons Ratio (z) = -0.15985 0.68179
#
# Static dielectric constant tensor:
#      x y z
#    x 1.790460 0.000000 0.000000 
#    y 0.000000 1.751220 0.000000 
#    z 0.000000 0.000000 1.697140 
# 
# From -- ./inp_files/63777.got.cif
#   From: 2010.05.17/outbox.cif.g08.bks.cpg/sg71_32_cif.got.tgz:63777.got - 2010.06.03 16:22:01.
