data_PCOD9518330
_publ_section_title
;
Structure prediction by ZEFSAII (Michael W. Deem and Ramdas Pophale) SiO2 
 PCOD9518330
Probable space group: I M M M
;
_chemical_formula_sum "Si O2"
_cell_formula_units_Z 116
_cell_length_a 30.120183
_cell_length_b 21.959984
_cell_length_c 9.206191
_cell_angle_alpha 90.000000
_cell_angle_beta 90.000000
_cell_angle_gamma 90.000000
_cell_volume 6089.331345
_symmetry_space_group_name_H-M "I M M M"
_symmetry_group_IT_number 71
_symmetry_cell_setting 'orthorhombic'
loop_
_space_group_symop_operation_xyz
x,y,z
-x,-y,z
x,-y,-z
-x,y,-z
-x,-y,-z
x,y,-z
-x,y,z
x,-y,z
1/2+x,1/2+y,1/2+z
1/2-x,1/2-y,1/2+z
1/2+x,1/2-y,1/2-z
1/2-x,1/2+y,1/2-z
1/2-x,1/2-y,1/2-z
1/2+x,1/2+y,1/2-z
1/2-x,1/2+y,1/2+z
1/2+x,1/2-y,1/2+z
loop_
_atom_site_type_symbol
_atom_site_label
_atom_site_fract_x
_atom_site_fract_y
_atom_site_fract_z
Si Si1 0.216005 0.885765 0.170322
Si Si2 0.914398 0.743906 0.328376
Si Si3 0.804676 0.384631 0.832003
Si Si4 0.070821 0.500000 0.500000
Si Si5 0.607495 0.109970 0.161108
Si Si6 0.450218 0.355147 0.672383
Si Si7 0.872451 0.927873 0.331805
Si Si8 0.324807 0.742521 0.334368
O O1 0.262067 0.905570 0.242122
O O2 0.173658 0.913475 0.251518
O O3 0.209480 0.812408 0.184515
O O4 0.215116 0.900736 0.000000
O O5 0.921491 0.752154 0.500000
O O6 0.916667 0.671969 0.292696
O O7 0.945925 0.787236 0.236573
O O8 0.864563 0.762832 0.280287
O O9 0.851516 0.405444 0.764598
O O10 0.806106 0.310611 0.823356
O O11 0.800868 0.402007 0.000000
O O12 0.075671 0.553891 0.624885
O O13 0.627993 0.124610 0.000000
O O14 0.442495 0.354833 0.500000
O O15 0.500000 0.378473 0.699981
O O16 0.412582 0.394172 0.751431
O O17 0.869996 0.908019 0.500000
O O18 0.879999 0.000000 0.328142
O O19 0.342943 0.736127 0.500000
#
# Coordination Sequence:
#
# PCOD9518330 Si02
#       8
#    16  16  16   4  16  16  16  16
#     4  11  21  34  53  76 106 149 196 238 290 346
#     4  10  18  31  56  87 114 143 182 229 285 332
#     4  10  19  31  48  77 112 147 196 245 293 328
#     4   8  16  36  58  76 117 158 200 226 273 332
#     4   8  17  33  54  79 110 154 191 234 275 334
#     4  11  24  41  63  90 119 148 179 224 284 348
#     4  11  25  44  62  83 111 147 194 241 288 340
#     4   9  18  31  50  76 109 146 184 236 291 350
#
# _framework density 19.049710000000001
#
# number of rings (size 3 to 8) (size 9 to 14) (size 15 to 20)
#    0.414    1.655    1.379    2.483    0.000    4.138 
#    1.241    1.724    0.000    0.000    0.000    0.966 
#    0.000    1.103    0.000    0.000    0.000    0.000 
#
# Total GULP energy -322956.944817 kJ/mol
# GULP energy per Si atom -5568.223187 kJ/mol
# Density = 1.900635 g / cm^3
# Si number density = 19.049710 Si / 1000 Ang^3
#
#
#
# Elastic Constant Matrix: (Units=GPa)
#
#
# Indices 1 2 3 4 5 6 
#
# 1 49.9491 3.6531 34.1159 0.0000 0.0000 0.0000
# 2 3.6531 40.0588 12.1121 0.0000 0.0000 0.0000
# 3 34.1159 12.1121 93.3426 0.0000 0.0000 0.0000
# 4 0.0000 0.0000 0.0000 22.7857 0.0000 0.0000
# 5 0.0000 0.0000 0.0000 0.0000 21.5032 0.0000
# 6 0.0000 0.0000 0.0000 0.0000 0.0000 -1.6581
#
#
#
# Elastic Compliance Matrix: (Units=1/GPa)
#
#
# Indices 1 2 3 4 5 6 
#
# 1 0.026692 0.000537 -0.009825 0.000000 0.000000 0.000000
# 2 0.000537 0.025993 -0.003569 0.000000 0.000000 0.000000
# 3 -0.009825 -0.003569 0.014767 0.000000 0.000000 0.000000
# 4 0.000000 0.000000 0.000000 0.043887 0.000000 0.000000
# 5 0.000000 0.000000 0.000000 0.000000 0.046505 0.000000
# 6 0.000000 0.000000 0.000000 0.000000 0.000000 -0.603113
#
#
# Mechanical properties :
#
#
# Convention : Reuss Voigt Hill
#
# Bulk Modulus (GPa) = 23.95934 31.45697 27.70816
# Shear Modulus (GPa) = -12.32620 17.42413 2.54897
#
# Velocity S-wave (km/s) = -2.54649 3.02763 1.15800
# Velocity P-wave (km/s) = 1.98959 5.36386 4.04533
#
# Compressibility (1/GPa) = 0.04173738
#
# Stress axis : x y z
#
# Youngs Moduli (GPa) = 37.46449 38.47119 67.71679
#
# Poissons Ratio (x) = -0.02064 0.66534
# Poissons Ratio (y) = -0.02010 0.24168
# Poissons Ratio (z) = 0.36810 0.13730
#
# Static dielectric constant tensor:
#      x y z
#    x 1.652110 0.000000 0.000000 
#    y 0.000000 1.688640 0.000000 
#    z 0.000000 0.000000 1.650680 
# 
# From -- ./inp_files/17303.got.cif
#   From: 2010.05.17/outbox.cif.g08.bks.cpg/sg71_9_cif.got.tgz:17303.got - 2010.06.03 16:22:01.
