data_PCOD9518291
_publ_section_title
;
Structure prediction by ZEFSAII (Michael W. Deem and Ramdas Pophale) SiO2 
 PCOD9518291
Probable space group: I M M M
;
_chemical_formula_sum "Si O2"
_cell_formula_units_Z 104
_cell_length_a 29.007823
_cell_length_b 7.771279
_cell_length_c 22.276844
_cell_angle_alpha 90.000000
_cell_angle_beta 90.000000
_cell_angle_gamma 90.000000
_cell_volume 5021.821843
_symmetry_space_group_name_H-M "I M M M"
_symmetry_group_IT_number 71
_symmetry_cell_setting 'orthorhombic'
loop_
_space_group_symop_operation_xyz
x,y,z
-x,-y,z
x,-y,-z
-x,y,-z
-x,-y,-z
x,y,-z
-x,y,z
x,-y,z
1/2+x,1/2+y,1/2+z
1/2-x,1/2-y,1/2+z
1/2+x,1/2-y,1/2-z
1/2-x,1/2+y,1/2-z
1/2-x,1/2-y,1/2-z
1/2+x,1/2+y,1/2-z
1/2-x,1/2+y,1/2+z
1/2+x,1/2-y,1/2+z
loop_
_atom_site_type_symbol
_atom_site_label
_atom_site_fract_x
_atom_site_fract_y
_atom_site_fract_z
Si Si1 0.551529 0.294916 0.000000
Si Si2 0.307447 0.706233 0.067226
Si Si3 0.600547 0.202130 0.123744
Si Si4 0.053211 0.288305 0.744797
Si Si5 0.125488 0.307132 0.156462
Si Si6 0.050806 0.203314 0.071263
Si Si7 0.201866 0.710837 0.068743
O O1 0.577167 0.244646 0.060586
O O2 0.549362 0.500000 0.000000
O O3 0.500000 0.222026 0.000000
O O4 0.306027 0.500000 0.063811
O O5 0.345967 0.748982 0.115960
O O6 0.255036 0.763144 0.078348
O O7 0.320820 0.769793 0.000000
O O8 0.571317 0.272012 0.179666
O O9 0.599377 0.000000 0.132019
O O10 0.052505 0.500000 0.747770
O O11 0.092830 0.229698 0.791697
O O12 0.000000 0.233761 0.755659
O O13 0.138537 0.500000 0.176739
O O14 0.089832 0.312400 0.101505
O O15 0.169821 0.226167 0.123450
O O16 0.000000 0.253078 0.093321
O O17 0.057646 0.000000 0.084137
O O18 0.051574 0.222321 0.000000
O O19 0.199564 0.500000 0.069320
O O20 0.188499 0.762695 0.000000
#
# Coordination Sequence:
#
# PCOD9518291 Si02
#       7
#     8  16  16  16  16  16  16
#     4  11  23  37  55  81 109 133 165 213 266 317
#     4   9  17  32  53  75 104 137 168 208 262 317
#     4  11  21  34  54  78 105 137 175 214 257 313
#     4   9  19  34  50  72 105 141 172 211 265 311
#     4  10  18  31  53  76  98 130 179 223 250 295
#     4   9  18  31  45  65  98 135 167 207 267 324
#     4   8  15  28  49  78 106 133 168 212 263 308
#
# _framework density 20.709613999999998
#
# number of rings (size 3 to 8) (size 9 to 14) (size 15 to 20)
#    0.000    2.538    0.769    3.462    0.000    3.077 
#    0.000    3.846    0.000    4.615    0.000    0.000 
#    0.000    0.000    0.000    0.000    0.000    0.000 
#
# Total GULP energy -289824.322255 kJ/mol
# GULP energy per Si atom -5573.544659 kJ/mol
# Density = 2.066248 g / cm^3
# Si number density = 20.709614 Si / 1000 Ang^3
#
#
#
# Elastic Constant Matrix: (Units=GPa)
#
#
# Indices 1 2 3 4 5 6 
#
# 1 135.5442 6.2807 78.5846 0.0000 0.0000 0.0000
# 2 6.2807 22.5653 1.3305 0.0000 0.0000 0.0000
# 3 78.5846 1.3305 112.6437 0.0000 0.0000 0.0000
# 4 0.0000 0.0000 0.0000 35.9243 0.0000 0.0000
# 5 0.0000 0.0000 0.0000 0.0000 53.7807 0.0000
# 6 0.0000 0.0000 0.0000 0.0000 0.0000 661.9086
#
#
#
# Elastic Compliance Matrix: (Units=1/GPa)
#
#
# Indices 1 2 3 4 5 6 
#
# 1 0.012587 -0.002988 -0.008746 0.000000 0.000000 0.000000
# 2 -0.002988 0.045056 0.001552 0.000000 0.000000 0.000000
# 3 -0.008746 0.001552 0.014960 0.000000 0.000000 0.000000
# 4 0.000000 0.000000 0.000000 0.027836 0.000000 0.000000
# 5 0.000000 0.000000 0.000000 0.000000 0.018594 0.000000
# 6 0.000000 0.000000 0.000000 0.000000 0.000000 0.001511
#
#
# Mechanical properties :
#
#
# Convention : Reuss Voigt Hill
#
# Bulk Modulus (GPa) = 19.14215 49.23832 34.19024
# Shear Modulus (GPa) = 31.58166 162.62654 97.10410
#
# Velocity S-wave (km/s) = 3.90933 8.87116 6.85494
# Velocity P-wave (km/s) = 5.44429 11.34713 8.89937
#
# Compressibility (1/GPa) = 0.05224073
#
# Stress axis : x y z
#
# Youngs Moduli (GPa) = 79.45007 22.19465 66.84286
#
# Poissons Ratio (x) = 0.06631 0.58458
# Poissons Ratio (y) = 0.23736 -0.10374
# Poissons Ratio (z) = 0.69484 -0.03445
#
# Static dielectric constant tensor:
#      x y z
#    x 1.780590 0.000000 0.000000 
#    y 0.000000 1.778490 0.000000 
#    z 0.000000 0.000000 1.762360 
# 
# From -- ./inp_files/56670.got.cif
#   From: 2010.05.17/outbox.cif.g08.bks.cpg/sg71_29_cif.got.tgz:56670.got - 2010.06.03 16:22:01.
