data_PCOD9518178
_publ_section_title
;
Structure prediction by ZEFSAII (Michael W. Deem and Ramdas Pophale) SiO2 
 PCOD9518178
Probable space group: I M M M
;
_chemical_formula_sum "Si O2"
_cell_formula_units_Z 112
_cell_length_a 24.180761
_cell_length_b 16.613422
_cell_length_c 14.961456
_cell_angle_alpha 90.000000
_cell_angle_beta 90.000000
_cell_angle_gamma 90.000000
_cell_volume 6010.393706
_symmetry_space_group_name_H-M "I M M M"
_symmetry_group_IT_number 71
_symmetry_cell_setting 'orthorhombic'
loop_
_space_group_symop_operation_xyz
x,y,z
-x,-y,z
x,-y,-z
-x,y,-z
-x,-y,-z
x,y,-z
-x,y,z
x,-y,z
1/2+x,1/2+y,1/2+z
1/2-x,1/2-y,1/2+z
1/2+x,1/2-y,1/2-z
1/2-x,1/2+y,1/2-z
1/2-x,1/2-y,1/2-z
1/2+x,1/2+y,1/2-z
1/2-x,1/2+y,1/2+z
1/2+x,1/2-y,1/2+z
loop_
_atom_site_type_symbol
_atom_site_label
_atom_site_fract_x
_atom_site_fract_y
_atom_site_fract_z
Si Si1 0.565928 0.088543 0.796950
Si Si2 0.737971 0.851560 0.903286
Si Si3 0.264241 0.088594 0.298000
Si Si4 0.564325 0.142196 0.596715
Si Si5 0.866319 0.743850 0.653003
Si Si6 0.664720 0.238771 0.356356
Si Si7 0.852205 0.088408 0.397104
O O1 0.500000 0.091928 0.811024
O O2 0.575405 0.095741 0.689554
O O3 0.594238 0.165587 0.842807
O O4 0.586077 0.000000 0.826745
O O5 0.733048 0.898802 0.809384
O O6 0.689029 0.785369 0.896855
O O7 0.796435 0.805577 0.898622
O O8 0.733024 0.893193 0.000000
O O9 0.299140 0.157512 0.346151
O O10 0.201654 0.093365 0.333948
O O11 0.285957 0.000000 0.319589
O O12 0.571090 0.100292 0.500000
O O13 0.500000 0.167090 0.602227
O O14 0.607316 0.215570 0.598421
O O15 0.849507 0.761162 0.754978
O O16 0.886593 0.829497 0.616196
O O17 0.833155 0.088788 0.500000
O O18 0.878574 0.000000 0.381044
#
# Coordination Sequence:
#
# PCOD9518178 Si02
#       7
#    16  16  16  16  16  16  16
#     4   9  19  35  55  78 106 145 187 221 260 314
#     4  11  20  31  49  74 105 141 177 215 267 323
#     4  10  20  34  49  72 104 137 175 218 266 322
#     4   9  18  30  46  71 104 141 179 220 265 312
#     4  10  18  32  53  76 105 139 177 222 268 316
#     4  10  18  31  48  71 101 142 178 218 261 314
#     4  10  19  32  53  79 104 132 170 217 271 328
#
# _framework density 18.634387
#
# number of rings (size 3 to 8) (size 9 to 14) (size 15 to 20)
#    0.000    2.143    2.857    1.714    0.000    6.286 
#    0.000    1.429    0.000    3.429    0.000    5.000 
#    0.000    0.571    0.000   21.286    0.000    0.286 
#
# Total GULP energy -311871.152687 kJ/mol
# GULP energy per Si atom -5569.127727 kJ/mol
# Density = 1.859197 g / cm^3
# Si number density = 18.634387 Si / 1000 Ang^3
#
#
#
# Elastic Constant Matrix: (Units=GPa)
#
#
# Indices 1 2 3 4 5 6 
#
# 1 48.7408 24.6082 0.7356 0.0000 0.0000 0.0000
# 2 24.6082 118.3429 11.4019 0.0000 0.0000 0.0000
# 3 0.7356 11.4019 63.0754 0.0000 0.0000 0.0000
# 4 0.0000 0.0000 0.0000 -3.8444 0.0000 0.0000
# 5 0.0000 0.0000 0.0000 0.0000 5.7346 0.0000
# 6 0.0000 0.0000 0.0000 0.0000 0.0000 20.8955
#
#
#
# Elastic Compliance Matrix: (Units=1/GPa)
#
#
# Indices 1 2 3 4 5 6 
#
# 1 0.022946 -0.004830 0.000605 0.000000 0.000000 0.000000
# 2 -0.004830 0.009616 -0.001682 0.000000 0.000000 0.000000
# 3 0.000605 -0.001682 0.016151 0.000000 0.000000 0.000000
# 4 0.000000 0.000000 0.000000 -0.260119 0.000000 0.000000
# 5 0.000000 0.000000 0.000000 0.000000 0.174380 0.000000
# 6 0.000000 0.000000 0.000000 0.000000 0.000000 0.047857
#
#
# Mechanical properties :
#
#
# Convention : Reuss Voigt Hill
#
# Bulk Modulus (GPa) = 27.09963 33.73892 30.41928
# Shear Modulus (GPa) = 143.08536 17.45139 80.26837
#
# Velocity S-wave (km/s) = 8.77225 3.06357 6.57031
# Velocity P-wave (km/s) = 10.82486 5.53706 8.59757
#
# Compressibility (1/GPa) = 0.03690087
#
# Stress axis : x y z
#
# Youngs Moduli (GPa) = 43.58066 103.98948 61.91557
#
# Poissons Ratio (x) = 0.50224 -0.03749
# Poissons Ratio (y) = 0.21048 0.10414
# Poissons Ratio (z) = -0.02639 0.17491
#
# Static dielectric constant tensor:
#      x y z
#    x 1.641830 0.000000 0.000000 
#    y 0.000000 1.678820 0.000000 
#    z 0.000000 0.000000 1.685340 
# 
# From -- ./inp_files/40376.got.cif
#   From: 2010.05.17/outbox.cif.g08.bks.cpg/sg71_21_cif.got.tgz:40376.got - 2010.06.03 16:22:01.
