data_PCOD9518631
_publ_section_title
;
Structure prediction by ZEFSAII (Michael W. Deem and Ramdas Pophale) SiO2 
 PCOD9518631
Probable space group: I M M M
;
_chemical_formula_sum "Si O2"
_cell_formula_units_Z 56
_cell_length_a 20.244666
_cell_length_b 23.081577
_cell_length_c 5.610112
_cell_angle_alpha 90.000000
_cell_angle_beta 90.000000
_cell_angle_gamma 90.000000
_cell_volume 2621.486499
_symmetry_space_group_name_H-M "I M M M"
_symmetry_group_IT_number 71
_symmetry_cell_setting 'orthorhombic'
loop_
_space_group_symop_operation_xyz
x,y,z
-x,-y,z
x,-y,-z
-x,y,-z
-x,-y,-z
x,y,-z
-x,y,z
x,-y,z
1/2+x,1/2+y,1/2+z
1/2-x,1/2-y,1/2+z
1/2+x,1/2-y,1/2-z
1/2-x,1/2+y,1/2-z
1/2-x,1/2-y,1/2-z
1/2+x,1/2+y,1/2-z
1/2-x,1/2+y,1/2+z
1/2+x,1/2-y,1/2+z
loop_
_atom_site_type_symbol
_atom_site_label
_atom_site_fract_x
_atom_site_fract_y
_atom_site_fract_z
Si Si1 0.854428 0.852178 0.000000
Si Si2 0.599550 0.068602 0.750442
Si Si3 0.268686 0.064280 0.000000
Si Si4 0.921956 0.161437 0.500000
Si Si5 0.193906 0.281177 0.000000
Si Si6 0.837592 0.729319 0.500000
O O1 0.892489 0.862859 0.749974
O O2 0.787312 0.888425 0.000000
O O3 0.835233 0.784196 0.000000
O O4 0.578929 0.094358 0.500000
O O5 0.679161 0.068059 0.782198
O O6 0.581390 0.000000 0.749149
O O7 0.574684 0.094146 0.000000
O O8 0.238844 0.000000 0.000000
O O9 0.900621 0.229418 0.500000
O O10 0.000000 0.154806 0.500000
O O11 0.170083 0.305329 0.253547
O O12 0.273191 0.272899 0.000000
#
# Coordination Sequence:
#
# PCOD9518631 Si02
#       6
#     8  16   8   8   8   8
#     4  10  19  28  44  60  76  97 121 162 191 219
#     4   7  11  18  28  41  58  76 100 133 164 201
#     4   8  16  25  37  53  70  92 123 151 188 225
#     4  10  20  32  43  57  75  98 125 154 192 228
#     4   8  14  25  40  62  77  90 115 142 187 225
#     4   8  14  26  43  57  76  95 112 144 180 231
#
# _framework density 21.361926
#
# number of rings (size 3 to 8) (size 9 to 14) (size 15 to 20)
#    0.857    2.857    0.000    0.429    2.000    0.000 
#    0.000    0.000    0.000    2.571    0.000    0.000 
#    0.000    0.000    0.000    0.000    0.000    0.714 
#
# Total GULP energy -155917.556769 kJ/mol
# GULP energy per Si atom -5568.484170 kJ/mol
# Density = 2.131331 g / cm^3
# Si number density = 21.361926 Si / 1000 Ang^3
#
#
#
# Elastic Constant Matrix: (Units=GPa)
#
#
# Indices 1 2 3 4 5 6 
#
# 1 117.4199 12.3167 44.2105 0.0000 0.0000 0.0000
# 2 12.3167 59.1871 14.3727 0.0000 0.0000 0.0000
# 3 44.2105 14.3727 252.2310 0.0000 0.0000 0.0000
# 4 0.0000 0.0000 0.0000 10.5995 0.0000 0.0000
# 5 0.0000 0.0000 0.0000 0.0000 2.1468 0.0000
# 6 0.0000 0.0000 0.0000 0.0000 0.0000 86.2687
#
#
#
# Elastic Compliance Matrix: (Units=1/GPa)
#
#
# Indices 1 2 3 4 5 6 
#
# 1 0.009257 -0.001554 -0.001534 0.000000 0.000000 0.000000
# 2 -0.001554 0.017393 -0.000719 0.000000 0.000000 0.000000
# 3 -0.001534 -0.000719 0.004274 0.000000 0.000000 0.000000
# 4 0.000000 0.000000 0.000000 0.094344 0.000000 0.000000
# 5 0.000000 0.000000 0.000000 0.000000 0.465799 0.000000
# 6 0.000000 0.000000 0.000000 0.000000 0.000000 0.011592
#
#
# Mechanical properties :
#
#
# Convention : Reuss Voigt Hill
#
# Bulk Modulus (GPa) = 42.89694 63.40420 53.15057
# Shear Modulus (GPa) = 8.09005 43.66555 25.87780
#
# Velocity S-wave (km/s) = 1.94817 4.52606 3.48429
# Velocity P-wave (km/s) = 5.01848 7.55374 6.41265
#
# Compressibility (1/GPa) = 0.02331169
#
# Stress axis : x y z
#
# Youngs Moduli (GPa) = 108.02621 57.49287 233.94803
#
# Poissons Ratio (x) = 0.08934 0.35888
# Poissons Ratio (y) = 0.16786 0.16815
# Poissons Ratio (z) = 0.16571 0.04132
#
# Static dielectric constant tensor:
#      x y z
#    x 1.740870 0.000000 0.000000 
#    y 0.000000 1.750290 0.000000 
#    z 0.000000 0.000000 1.925530 
# 
# From -- ./inp_files/1148.got.cif
#   From: 2010.05.17/outbox.cif.g08.bks.cpg/sg71_1_cif.got.tgz:1148.got - 2010.06.03 16:22:01.
