data_PCOD9518589
_publ_section_title
;
Structure prediction by ZEFSAII (Michael W. Deem and Ramdas Pophale) SiO2 
 PCOD9518589
Probable space group: I M M M
;
_chemical_formula_sum "Si O2"
_cell_formula_units_Z 88
_cell_length_a 29.570997
_cell_length_b 19.835975
_cell_length_c 7.424118
_cell_angle_alpha 90.000000
_cell_angle_beta 90.000000
_cell_angle_gamma 90.000000
_cell_volume 4354.761608
_symmetry_space_group_name_H-M "I M M M"
_symmetry_group_IT_number 71
_symmetry_cell_setting 'orthorhombic'
loop_
_space_group_symop_operation_xyz
x,y,z
-x,-y,z
x,-y,-z
-x,y,-z
-x,-y,-z
x,y,-z
-x,y,z
x,-y,z
1/2+x,1/2+y,1/2+z
1/2-x,1/2-y,1/2+z
1/2+x,1/2-y,1/2-z
1/2-x,1/2+y,1/2-z
1/2-x,1/2-y,1/2-z
1/2+x,1/2+y,1/2-z
1/2-x,1/2+y,1/2+z
1/2+x,1/2-y,1/2+z
loop_
_atom_site_type_symbol
_atom_site_label
_atom_site_fract_x
_atom_site_fract_y
_atom_site_fract_z
Si Si1 0.500000 0.919108 0.701506
Si Si2 0.156772 0.000000 0.286991
Si Si3 0.160223 0.853282 0.721129
Si Si4 0.601546 0.923523 0.791966
Si Si5 0.734784 0.854118 0.718491
Si Si6 0.766278 0.500000 0.212424
Si Si7 0.354307 0.789973 0.207175
O O1 0.500000 0.890707 0.500000
O O2 0.548241 0.904725 0.788763
O O3 0.500000 0.000000 0.691161
O O4 0.142246 0.073545 0.217493
O O5 0.146510 0.000000 0.500000
O O6 0.211614 0.000000 0.271341
O O7 0.159711 0.853656 0.500000
O O8 0.213129 0.848659 0.773987
O O9 0.136409 0.784460 0.782386
O O10 0.626336 0.858670 0.708091
O O11 0.607392 0.000000 0.714978
O O12 0.615712 0.928414 0.000000
O O13 0.733870 0.852550 0.500000
O O14 0.717912 0.928227 0.782798
O O15 0.699927 0.799726 0.789627
O O16 0.776531 0.500000 0.000000
O O17 0.370014 0.789075 0.000000
#
# Coordination Sequence:
#
# PCOD9518589 Si02
#       7
#     8   8  16  16  16   8  16
#     4   9  17  31  51  69  81  98 133 174 202 233
#     4   7  10  20  38  53  69  96 133 172 206 236
#     4   8  14  25  39  56  77 105 141 178 210 241
#     4   9  18  31  44  59  84 116 138 156 197 254
#     4   9  16  26  39  53  74 108 144 177 211 241
#     4   7  12  22  35  51  67  92 137 178 203 232
#     4  10  19  27  38  59  85 107 134 170 204 244
#
# _framework density 20.207765999999999
#
# number of rings (size 3 to 8) (size 9 to 14) (size 15 to 20)
#    0.000    3.364    0.000    3.000    1.273    1.818 
#    0.000    0.000    0.000    0.000    0.000    0.636 
#    0.000    0.727    0.000    9.273    0.000    0.909 
#
# Total GULP energy -244992.452360 kJ/mol
# GULP energy per Si atom -5568.010281 kJ/mol
# Density = 2.016177 g / cm^3
# Si number density = 20.207766 Si / 1000 Ang^3
#
#
#
# Elastic Constant Matrix: (Units=GPa)
#
#
# Indices 1 2 3 4 5 6 
#
# 1 34.6610 31.3530 1.6577 0.0000 0.0000 0.0000
# 2 31.3530 216.5746 8.3815 0.0000 0.0000 0.0000
# 3 1.6577 8.3815 68.5301 0.0000 0.0000 0.0000
# 4 0.0000 0.0000 0.0000 -3.8404 0.0000 0.0000
# 5 0.0000 0.0000 0.0000 0.0000 5.7734 0.0000
# 6 0.0000 0.0000 0.0000 0.0000 0.0000 14.6839
#
#
#
# Elastic Compliance Matrix: (Units=1/GPa)
#
#
# Indices 1 2 3 4 5 6 
#
# 1 0.033201 -0.004798 -0.000216 0.000000 0.000000 0.000000
# 2 -0.004798 0.005333 -0.000536 0.000000 0.000000 0.000000
# 3 -0.000216 -0.000536 0.014663 0.000000 0.000000 0.000000
# 4 0.000000 0.000000 0.000000 -0.260387 0.000000 0.000000
# 5 0.000000 0.000000 0.000000 0.000000 0.173207 0.000000
# 6 0.000000 0.000000 0.000000 0.000000 0.000000 0.068102
#
#
# Mechanical properties :
#
#
# Convention : Reuss Voigt Hill
#
# Bulk Modulus (GPa) = 23.75528 44.72779 34.24154
# Shear Modulus (GPa) = 84.38559 21.88163 53.13361
#
# Velocity S-wave (km/s) = 6.46913 3.29421 5.13330
# Velocity P-wave (km/s) = 8.22074 6.05402 7.21913
#
# Compressibility (1/GPa) = 0.04209591
#
# Stress axis : x y z
#
# Youngs Moduli (GPa) = 30.11923 187.52198 68.19922
#
# Poissons Ratio (x) = 0.89975 0.01475
# Poissons Ratio (y) = 0.14452 0.03656
# Poissons Ratio (z) = 0.00651 0.10054
#
# Static dielectric constant tensor:
#      x y z
#    x 1.698830 0.000000 0.000000 
#    y 0.000000 1.818710 0.000000 
#    z 0.000000 0.000000 1.733020 
# 
# From -- ./inp_files/16912.got.cif
#   From: 2010.05.17/outbox.cif.g08.bks.cpg/sg71_9_cif.got.tgz:16912.got - 2010.06.03 16:22:01.
