data_PCOD9518600
_publ_section_title
;
Structure prediction by ZEFSAII (Michael W. Deem and Ramdas Pophale) SiO2 
 PCOD9518600
Probable space group: I M M M
;
_chemical_formula_sum "Si O2"
_cell_formula_units_Z 112
_cell_length_a 8.973574
_cell_length_b 32.903690
_cell_length_c 33.316855
_cell_angle_alpha 90.000000
_cell_angle_beta 90.000000
_cell_angle_gamma 90.000000
_cell_volume 9837.257783
_symmetry_space_group_name_H-M "I M M M"
_symmetry_group_IT_number 71
_symmetry_cell_setting 'orthorhombic'
loop_
_space_group_symop_operation_xyz
x,y,z
-x,-y,z
x,-y,-z
-x,y,-z
-x,-y,-z
x,y,-z
-x,y,z
x,-y,z
1/2+x,1/2+y,1/2+z
1/2-x,1/2-y,1/2+z
1/2+x,1/2-y,1/2-z
1/2-x,1/2+y,1/2-z
1/2-x,1/2-y,1/2-z
1/2+x,1/2+y,1/2-z
1/2-x,1/2+y,1/2+z
1/2+x,1/2-y,1/2+z
loop_
_atom_site_type_symbol
_atom_site_label
_atom_site_fract_x
_atom_site_fract_y
_atom_site_fract_z
Si Si1 0.680128 0.046703 0.584928
Si Si2 0.826456 0.745833 0.846761
Si Si3 0.679375 0.179069 0.500000
Si Si4 0.321590 0.698992 0.083539
Si Si5 0.172321 0.338577 0.795772
Si Si6 0.679452 0.213356 0.224125
Si Si7 0.319269 0.916105 0.500000
Si Si8 0.323339 0.382488 0.134480
O O1 0.500000 0.048721 0.585765
O O2 0.729981 0.061883 0.540734
O O3 0.744269 0.077808 0.617296
O O4 0.724296 0.000000 0.591281
O O5 0.743117 0.733936 0.887578
O O6 0.820360 0.704168 0.820289
O O7 0.746952 0.780241 0.819946
O O8 0.000000 0.755164 0.853290
O O9 0.500000 0.181360 0.500000
O O10 0.745970 0.198468 0.540189
O O11 0.723477 0.131219 0.500000
O O12 0.500000 0.702033 0.080696
O O13 0.285572 0.655768 0.105272
O O14 0.215667 0.326789 0.750266
O O15 0.269919 0.369647 0.821209
O O16 0.000000 0.351645 0.796243
O O17 0.500000 0.217457 0.223397
O O18 0.750000 0.250000 0.250000
O O19 0.500000 0.917420 0.500000
O O20 0.500000 0.387572 0.133715
#
# Coordination Sequence:
#
# PCOD9518600 Si02
#       8
#    16  16   8  16  16  16   8  16
#     4  10  19  31  45  56  66  82 105 133 169 214
#     4   9  16  25  37  52  69  89 110 131 155 188
#     4  11  19  28  43  55  66  86 110 141 173 207
#     4  10  19  29  39  52  69  88 109 135 166 202
#     4   8  15  25  37  51  68  88 108 126 149 185
#     4   9  15  23  35  52  71  90 108 129 153 182
#     4   9  17  29  44  57  65  77 101 135 169 209
#     4  10  19  28  39  53  69  85 104 131 163 199
#
# _framework density 11.385287
#
# number of rings (size 3 to 8) (size 9 to 14) (size 15 to 20)
#    0.000    2.571    1.429    3.000    0.000    6.286 
#    0.000    0.357    0.000    0.857    0.000    0.000 
#    0.000    0.000    0.000    0.000    0.000    0.000 
#
# Total GULP energy -311838.241850 kJ/mol
# GULP energy per Si atom -5568.540033 kJ/mol
# Density = 1.135937 g / cm^3
# Si number density = 11.385287 Si / 1000 Ang^3
#
#
#
# Elastic Constant Matrix: (Units=GPa)
#
#
# Indices 1 2 3 4 5 6 
#
# 1 40.5223 22.5004 41.3373 0.0000 0.0000 0.0000
# 2 22.5004 35.4648 45.5332 0.0000 0.0000 0.0000
# 3 41.3373 45.5332 89.0811 0.0000 0.0000 0.0000
# 4 0.0000 0.0000 0.0000 10.1142 0.0000 0.0000
# 5 0.0000 0.0000 0.0000 0.0000 18.3908 0.0000
# 6 0.0000 0.0000 0.0000 0.0000 0.0000 12.2292
#
#
#
# Elastic Compliance Matrix: (Units=1/GPa)
#
#
# Indices 1 2 3 4 5 6 
#
# 1 0.047201 -0.005309 -0.019190 0.000000 0.000000 0.000000
# 2 -0.005309 0.082626 -0.039770 0.000000 0.000000 0.000000
# 3 -0.019190 -0.039770 0.040459 0.000000 0.000000 0.000000
# 4 0.000000 0.000000 0.000000 0.098871 0.000000 0.000000
# 5 0.000000 0.000000 0.000000 0.000000 0.054375 0.000000
# 6 0.000000 0.000000 0.000000 0.000000 0.000000 0.081771
#
#
# Mechanical properties :
#
#
# Convention : Reuss Voigt Hill
#
# Bulk Modulus (GPa) = 23.95291 42.64553 33.29922
# Shear Modulus (GPa) = 9.12813 11.85999 10.49406
#
# Velocity S-wave (km/s) = 2.83459 3.23103 3.03928
# Velocity P-wave (km/s) = 5.63891 7.17338 6.45193
#
# Compressibility (1/GPa) = 0.04174858
#
# Stress axis : x y z
#
# Youngs Moduli (GPa) = 21.18589 12.10272 24.71651
#
# Poissons Ratio (x) = 0.06425 0.47430
# Poissons Ratio (y) = 0.11247 0.98298
# Poissons Ratio (z) = 0.40655 0.48133
#
# Static dielectric constant tensor:
#      x y z
#    x 1.377330 0.000000 0.000000 
#    y 0.000000 1.342700 0.000000 
#    z 0.000000 0.000000 1.379580 
# 
# From -- ./inp_files/17620.got.cif
#   From: 2010.05.17/outbox.cif.g08.bks.cpg/sg71_9_cif.got.tgz:17620.got - 2010.06.03 16:22:01.
