data_PCOD9518704
_publ_section_title
;
Structure prediction by ZEFSAII (Michael W. Deem and Ramdas Pophale) SiO2 
 PCOD9518704
Probable space group: I M M M
;
_chemical_formula_sum "Si O2"
_cell_formula_units_Z 104
_cell_length_a 20.973754
_cell_length_b 14.451350
_cell_length_c 15.042297
_cell_angle_alpha 90.000000
_cell_angle_beta 90.000000
_cell_angle_gamma 90.000000
_cell_volume 4559.306079
_symmetry_space_group_name_H-M "I M M M"
_symmetry_group_IT_number 71
_symmetry_cell_setting 'orthorhombic'
loop_
_space_group_symop_operation_xyz
x,y,z
-x,-y,z
x,-y,-z
-x,y,-z
-x,-y,-z
x,y,-z
-x,y,z
x,-y,z
1/2+x,1/2+y,1/2+z
1/2-x,1/2-y,1/2+z
1/2+x,1/2-y,1/2-z
1/2-x,1/2+y,1/2-z
1/2-x,1/2-y,1/2-z
1/2+x,1/2+y,1/2-z
1/2-x,1/2+y,1/2+z
1/2+x,1/2-y,1/2+z
loop_
_atom_site_type_symbol
_atom_site_label
_atom_site_fract_x
_atom_site_fract_y
_atom_site_fract_z
Si Si1 0.139120 0.614124 0.601483
Si Si2 0.072431 0.636301 0.101938
Si Si3 0.500000 0.895175 0.107890
Si Si4 0.572041 0.391645 0.208196
Si Si5 0.074094 0.858608 0.904205
Si Si6 0.305105 0.107292 0.722583
Si Si7 0.191488 0.886234 0.398751
O O1 0.152886 0.640991 0.500000
O O2 0.136842 0.500000 0.601586
O O3 0.185903 0.646044 0.678739
O O4 0.068124 0.646521 0.629968
O O5 0.073404 0.747666 0.097904
O O6 0.128046 0.608967 0.169007
O O7 0.000000 0.609003 0.127536
O O8 0.084130 0.604550 0.000000
O O9 0.500000 0.000000 0.143574
O O10 0.500000 0.900801 0.000000
O O11 0.500000 0.351174 0.206499
O O12 0.565454 0.500000 0.186910
O O13 0.599916 0.387518 0.308577
O O14 0.623935 0.353860 0.140296
O O15 0.000000 0.889940 0.903974
O O16 0.102189 0.887634 0.000000
O O17 0.249607 0.147352 0.661909
O O18 0.288231 0.000000 0.735555
O O19 0.200373 0.857976 0.500000
O O20 0.191522 0.000000 0.397756
#
# Coordination Sequence:
#
# PCOD9518704 Si02
#       7
#    16  16   8  16  16  16  16
#     4   8  14  24  38  57  82 113 153 201 246 282
#     4   9  18  31  46  66  94 130 168 200 233 274
#     4   7  10  18  32  50  73 101 137 187 239 272
#     4   9  17  30  52  79  97 113 149 195 234 288
#     4   8  15  30  50  71  99 129 150 180 236 295
#     4  10  19  29  45  66  92 130 172 208 239 270
#     4   9  18  32  47  67  99 131 155 189 245 295
#
# _framework density 22.810489
#
# number of rings (size 3 to 8) (size 9 to 14) (size 15 to 20)
#    0.000    3.308    0.000    2.308    1.077    1.846 
#    0.000    5.385    0.000    3.692    0.000    2.154 
#    0.000    0.000    0.000    0.000    0.000    0.000 
#
# Total GULP energy -290049.680353 kJ/mol
# GULP energy per Si atom -5577.878468 kJ/mol
# Density = 2.275857 g / cm^3
# Si number density = 22.810489 Si / 1000 Ang^3
#
#
#
# Elastic Constant Matrix: (Units=GPa)
#
#
# Indices 1 2 3 4 5 6 
#
# 1 107.0414 11.0947 101.3760 0.0000 0.0000 0.0000
# 2 11.0947 66.6876 1.1545 0.0000 0.0000 0.0000
# 3 101.3760 1.1545 179.1301 0.0000 0.0000 0.0000
# 4 0.0000 0.0000 0.0000 30.3792 0.0000 0.0000
# 5 0.0000 0.0000 0.0000 0.0000 39.2818 0.0000
# 6 0.0000 0.0000 0.0000 0.0000 0.0000 11.3921
#
#
#
# Elastic Compliance Matrix: (Units=1/GPa)
#
#
# Indices 1 2 3 4 5 6 
#
# 1 0.020819 -0.003260 -0.011761 0.000000 0.000000 0.000000
# 2 -0.003260 0.015507 0.001745 0.000000 0.000000 0.000000
# 3 -0.011761 0.001745 0.012227 0.000000 0.000000 0.000000
# 4 0.000000 0.000000 0.000000 0.032917 0.000000 0.000000
# 5 0.000000 0.000000 0.000000 0.000000 0.025457 0.000000
# 6 0.000000 0.000000 0.000000 0.000000 0.000000 0.087780
#
#
# Mechanical properties :
#
#
# Convention : Reuss Voigt Hill
#
# Bulk Modulus (GPa) = 45.45170 64.45661 54.95415
# Shear Modulus (GPa) = 21.87288 32.15953 27.01620
#
# Velocity S-wave (km/s) = 3.09996 3.75888 3.44521
# Velocity P-wave (km/s) = 5.72556 6.86715 6.32217
#
# Compressibility (1/GPa) = 0.02200138
#
# Stress axis : x y z
#
# Youngs Moduli (GPa) = 48.03413 64.48518 81.78479
#
# Poissons Ratio (x) = 0.21022 0.96187
# Poissons Ratio (y) = 0.15659 -0.14271
# Poissons Ratio (z) = 0.56493 -0.11253
#
# Static dielectric constant tensor:
#      x y z
#    x 1.837400 0.000000 0.000000 
#    y 0.000000 1.872090 0.000000 
#    z 0.000000 0.000000 1.851310 
# 
# From -- ./inp_files/36723.got.cif
#   From: 2010.05.17/outbox.cif.g08.bks.cpg/sg71_19_cif.got.tgz:36723.got - 2010.06.03 16:22:01.
