data_PCOD9518051
_publ_section_title
;
Structure prediction by ZEFSAII (Michael W. Deem and Ramdas Pophale) SiO2 
 PCOD9518051
Probable space group: I M M M
;
_chemical_formula_sum "Si O2"
_cell_formula_units_Z 120
_cell_length_a 19.747799
_cell_length_b 28.952117
_cell_length_c 12.599551
_cell_angle_alpha 90.000000
_cell_angle_beta 90.000000
_cell_angle_gamma 90.000000
_cell_volume 7203.674686
_symmetry_space_group_name_H-M "I M M M"
_symmetry_group_IT_number 71
_symmetry_cell_setting 'orthorhombic'
loop_
_space_group_symop_operation_xyz
x,y,z
-x,-y,z
x,-y,-z
-x,y,-z
-x,-y,-z
x,y,-z
-x,y,z
x,-y,z
1/2+x,1/2+y,1/2+z
1/2-x,1/2-y,1/2+z
1/2+x,1/2-y,1/2-z
1/2-x,1/2+y,1/2-z
1/2-x,1/2-y,1/2-z
1/2+x,1/2+y,1/2-z
1/2-x,1/2+y,1/2+z
1/2+x,1/2-y,1/2+z
loop_
_atom_site_type_symbol
_atom_site_label
_atom_site_fract_x
_atom_site_fract_y
_atom_site_fract_z
Si Si1 0.246486 0.947223 0.196078
Si Si2 0.077208 0.854552 0.244408
Si Si3 0.403123 0.551564 0.621679
Si Si4 0.172398 0.782427 0.126562
Si Si5 0.000000 0.552712 0.628735
Si Si6 0.871063 0.613270 0.624040
Si Si7 0.294254 0.622504 0.123861
Si Si8 0.196147 0.310743 0.246266
O O1 0.178355 0.946846 0.127329
O O2 0.304073 0.917602 0.139840
O O3 0.225628 0.921842 0.305218
O O4 0.267987 0.000000 0.212092
O O5 0.073696 0.904887 0.189266
O O6 0.115704 0.818871 0.165762
O O7 0.130983 0.860513 0.340242
O O8 0.000000 0.840429 0.270213
O O9 0.424310 0.556023 0.500000
O O10 0.422366 0.500000 0.660388
O O11 0.166118 0.734703 0.191789
O O12 0.246892 0.799919 0.163908
O O13 0.169720 0.776707 0.000000
O O14 0.066122 0.581681 0.658517
O O15 0.000000 0.500000 0.668286
O O16 0.000000 0.550223 0.500000
O O17 0.878969 0.625604 0.500000
O O18 0.859680 0.657413 0.698261
O O19 0.239461 0.661037 0.158836
O O20 0.291886 0.613455 0.000000
#
# Coordination Sequence:
#
# PCOD9518051 Si02
#       8
#    16  16  16  16   8  16  16  16
#     4   9  17  28  46  74 100 124 163 210 252 291
#     4  10  21  34  48  71 100 128 163 202 243 298
#     4   9  17  29  46  69  97 127 158 196 244 294
#     4  10  19  33  53  74  98 127 164 211 260 306
#     4   9  18  30  46  72 105 143 177 201 239 302
#     4  10  18  30  49  73 105 139 168 204 251 303
#     4   9  18  33  52  70  94 126 162 204 250 297
#     4   9  19  33  51  77  96 125 166 213 257 302
#
# _framework density 16.658165
#
# number of rings (size 3 to 8) (size 9 to 14) (size 15 to 20)
#    0.000    2.600    0.000    2.800    0.000    3.200 
#    1.200    1.333    0.000    0.000    0.000    7.933 
#    0.000   17.600    0.000    0.000    0.000    0.000 
#
# Total GULP energy -334373.261025 kJ/mol
# GULP energy per Si atom -5572.887684 kJ/mol
# Density = 1.662025 g / cm^3
# Si number density = 16.658165 Si / 1000 Ang^3
#
#
#
# Elastic Constant Matrix: (Units=GPa)
#
#
# Indices 1 2 3 4 5 6 
#
# 1 65.1685 26.5269 20.7587 0.0000 0.0000 0.0000
# 2 26.5269 99.0109 28.7642 0.0000 0.0000 0.0000
# 3 20.7587 28.7642 81.9235 0.0000 -0.0001 0.0000
# 4 0.0000 0.0000 0.0000 14.4046 0.0000 0.0000
# 5 0.0000 0.0000 -0.0001 0.0000 16.2400 0.0000
# 6 0.0000 0.0000 0.0000 0.0000 0.0000 11.1523
#
#
#
# Elastic Compliance Matrix: (Units=1/GPa)
#
#
# Indices 1 2 3 4 5 6 
#
# 1 0.017939 -0.003881 -0.003183 0.000000 0.000000 0.000000
# 2 -0.003881 0.012087 -0.003260 0.000000 0.000000 0.000000
# 3 -0.003183 -0.003260 0.014158 0.000000 0.000000 0.000000
# 4 0.000000 0.000000 0.000000 0.069422 0.000000 0.000000
# 5 0.000000 0.000000 0.000000 0.000000 0.061576 0.000000
# 6 0.000000 0.000000 0.000000 0.000000 0.000000 0.089668
#
#
# Mechanical properties :
#
#
# Convention : Reuss Voigt Hill
#
# Bulk Modulus (GPa) = 42.49108 44.24472 43.36790
# Shear Modulus (GPa) = 17.04486 19.69625 18.37056
#
# Velocity S-wave (km/s) = 3.20224 3.44230 3.32444
# Velocity P-wave (km/s) = 6.26383 6.51286 6.38955
#
# Compressibility (1/GPa) = 0.02353435
#
# Stress axis : x y z
#
# Youngs Moduli (GPa) = 55.74575 82.73353 70.63289
#
# Poissons Ratio (x) = 0.32113 0.22480
# Poissons Ratio (y) = 0.21638 0.23029
# Poissons Ratio (z) = 0.17742 0.26974
#
# Static dielectric constant tensor:
#      x y z
#    x 1.567020 0.000000 0.000000 
#    y 0.000000 1.581180 0.000000 
#    z 0.000000 0.000000 1.525710 
# 
# From -- ./inp_files/26629.got.cif
#   From: 2010.05.17/outbox.cif.g08.bks.cpg/sg71_14_cif.got.tgz:26629.got - 2010.06.03 16:22:01.
