data_PCOD9518118
_publ_section_title
;
Structure prediction by ZEFSAII (Michael W. Deem and Ramdas Pophale) SiO2 
 PCOD9518118
Probable space group: I M M M
;
_chemical_formula_sum "Si O2"
_cell_formula_units_Z 96
_cell_length_a 29.032804
_cell_length_b 7.678070
_cell_length_c 21.293163
_cell_angle_alpha 90.000000
_cell_angle_beta 90.000000
_cell_angle_gamma 90.000000
_cell_volume 4746.584624
_symmetry_space_group_name_H-M "I M M M"
_symmetry_group_IT_number 71
_symmetry_cell_setting 'orthorhombic'
loop_
_space_group_symop_operation_xyz
x,y,z
-x,-y,z
x,-y,-z
-x,y,-z
-x,-y,-z
x,y,-z
-x,y,z
x,-y,z
1/2+x,1/2+y,1/2+z
1/2-x,1/2-y,1/2+z
1/2+x,1/2-y,1/2-z
1/2-x,1/2+y,1/2-z
1/2-x,1/2-y,1/2-z
1/2+x,1/2+y,1/2-z
1/2-x,1/2+y,1/2+z
1/2+x,1/2-y,1/2+z
loop_
_atom_site_type_symbol
_atom_site_label
_atom_site_fract_x
_atom_site_fract_y
_atom_site_fract_z
Si Si1 0.052348 0.210242 0.165141
Si Si2 0.635923 0.208912 0.428692
Si Si3 0.916592 0.800595 0.301733
Si Si4 0.555063 0.295639 0.933146
Si Si5 0.280227 0.790008 0.343232
Si Si6 0.313977 0.205669 0.205347
O O1 0.091218 0.257104 0.114336
O O2 0.067407 0.274178 0.234728
O O3 0.000000 0.268617 0.150789
O O4 0.051892 0.000000 0.167117
O O5 0.631209 0.275446 0.500000
O O6 0.682476 0.273409 0.393886
O O7 0.640329 0.000000 0.432138
O O8 0.932103 0.714241 0.366611
O O9 0.861667 0.799743 0.306066
O O10 0.934628 0.000000 0.301986
O O11 0.500000 0.295022 0.935108
O O12 0.569902 0.500000 0.932009
O O13 0.571852 0.221267 0.000000
O O14 0.297141 0.733116 0.274102
O O15 0.226915 0.734987 0.344456
O O16 0.280710 0.000000 0.344476
O O17 0.323261 0.000000 0.209304
#
# Coordination Sequence:
#
# PCOD9518118 Si02
#       6
#    16  16  16  16  16  16
#     4  10  21  35  52  77 108 140 177 221 266 313
#     4  10  21  38  58  78 103 137 177 221 267 314
#     4  10  18  30  51  78 106 137 172 213 259 305
#     4   8  14  26  46  72 100 131 170 213 252 293
#     4   9  18  34  53  75 100 128 165 208 253 303
#     4  10  19  31  52  78 103 130 164 207 254 304
#
# _framework density 20.225069000000001
#
# number of rings (size 3 to 8) (size 9 to 14) (size 15 to 20)
#    0.000    2.500    1.667    1.500    0.000    4.333 
#    0.000    2.500    0.000    7.000    0.000    1.167 
#    0.000    0.000    0.000    0.000    0.000    0.000 
#
# Total GULP energy -267490.005893 kJ/mol
# GULP energy per Si atom -5572.708456 kJ/mol
# Density = 2.017904 g / cm^3
# Si number density = 20.225069 Si / 1000 Ang^3
#
#
#
# Elastic Constant Matrix: (Units=GPa)
#
#
# Indices 1 2 3 4 5 6 
#
# 1 84.4996 2.3812 53.4327 0.0000 0.0000 0.0000
# 2 2.3812 38.5982 8.1191 0.0000 0.0000 0.0000
# 3 53.4327 8.1191 165.1711 0.0000 0.0000 0.0000
# 4 0.0000 0.0000 0.0000 5.8978 0.0000 0.0000
# 5 0.0000 0.0000 0.0000 0.0000 24.2481 0.0000
# 6 0.0000 0.0000 0.0000 0.0000 0.0000 3.8188
#
#
#
# Elastic Compliance Matrix: (Units=1/GPa)
#
#
# Indices 1 2 3 4 5 6 
#
# 1 0.014878 0.000096 -0.004818 0.000000 0.000000 0.000000
# 2 0.000096 0.026179 -0.001318 0.000000 0.000000 0.000000
# 3 -0.004818 -0.001318 0.007678 0.000000 0.000000 0.000000
# 4 0.000000 0.000000 0.000000 0.169554 0.000000 0.000000
# 5 0.000000 0.000000 0.000000 0.000000 0.041240 0.000000
# 6 0.000000 0.000000 0.000000 0.000000 0.000000 0.261866
#
#
# Mechanical properties :
#
#
# Convention : Reuss Voigt Hill
#
# Bulk Modulus (GPa) = 27.28136 46.23723 36.75930
# Shear Modulus (GPa) = 9.16265 21.74866 15.45565
#
# Velocity S-wave (km/s) = 2.13077 3.28278 2.76738
# Velocity P-wave (km/s) = 4.42400 6.10572 5.33158
#
# Compressibility (1/GPa) = 0.03665506
#
# Stress axis : x y z
#
# Youngs Moduli (GPa) = 67.21261 38.19823 130.24822
#
# Poissons Ratio (x) = -0.00365 0.62751
# Poissons Ratio (y) = -0.00642 0.17164
# Poissons Ratio (z) = 0.32381 0.05034
#
# Static dielectric constant tensor:
#      x y z
#    x 1.717390 0.000000 0.000000 
#    y 0.000000 1.776310 0.000000 
#    z 0.000000 0.000000 1.748880 
# 
# From -- ./inp_files/14818.got.cif
#   From: 2010.05.17/outbox.cif.g08.bks.cpg/sg71_8_cif.got.tgz:14818.got - 2010.06.03 16:22:01.
