data_PCOD9518053
_publ_section_title
;
Structure prediction by ZEFSAII (Michael W. Deem and Ramdas Pophale) SiO2 
 PCOD9518053
Probable space group: I M M M
;
_chemical_formula_sum "Si O2"
_cell_formula_units_Z 112
_cell_length_a 24.466225
_cell_length_b 13.697109
_cell_length_c 19.521910
_cell_angle_alpha 90.000000
_cell_angle_beta 90.000000
_cell_angle_gamma 90.000000
_cell_volume 6542.115141
_symmetry_space_group_name_H-M "I M M M"
_symmetry_group_IT_number 71
_symmetry_cell_setting 'orthorhombic'
loop_
_space_group_symop_operation_xyz
x,y,z
-x,-y,z
x,-y,-z
-x,y,-z
-x,-y,-z
x,y,-z
-x,y,z
x,-y,z
1/2+x,1/2+y,1/2+z
1/2-x,1/2-y,1/2+z
1/2+x,1/2-y,1/2-z
1/2-x,1/2+y,1/2-z
1/2-x,1/2-y,1/2-z
1/2+x,1/2+y,1/2-z
1/2-x,1/2+y,1/2+z
1/2+x,1/2-y,1/2+z
loop_
_atom_site_type_symbol
_atom_site_label
_atom_site_fract_x
_atom_site_fract_y
_atom_site_fract_z
Si Si1 0.439426 0.610890 0.081859
Si Si2 0.358530 0.738059 0.837147
Si Si3 0.263290 0.741899 0.668677
Si Si4 0.164282 0.384012 0.078332
Si Si5 0.937490 0.271326 0.869906
Si Si6 0.638575 0.615918 0.305377
Si Si7 0.939020 0.614864 0.274199
O O1 0.500000 0.639717 0.107178
O O2 0.429283 0.500000 0.105687
O O3 0.393189 0.681696 0.107007
O O4 0.441040 0.609251 0.000000
O O5 0.297400 0.760584 0.861127
O O6 0.360139 0.667530 0.769630
O O7 0.391159 0.834904 0.816476
O O8 0.250000 0.750000 0.750000
O O9 0.296849 0.831461 0.634501
O O10 0.303848 0.650106 0.661135
O O11 0.159454 0.500000 0.091777
O O12 0.105579 0.330238 0.083744
O O13 0.184862 0.371775 0.000000
O O14 0.909726 0.168576 0.848186
O O15 0.938754 0.334275 0.799869
O O16 0.000000 0.262161 0.894806
O O17 0.633107 0.500000 0.300985
O O18 0.930782 0.500000 0.266778
O O19 0.000000 0.631383 0.303910
#
# Coordination Sequence:
#
# PCOD9518053 Si02
#       7
#    16  16  16  16  16  16  16
#     4   9  18  31  46  68 100 133 161 196 249 308
#     4  10  18  30  49  73  96 126 169 210 249 301
#     4   9  20  34  49  73 103 136 174 215 257 304
#     4  10  21  36  54  78 109 140 169 211 265 312
#     4   9  18  32  50  75 105 134 166 203 245 302
#     4   9  18  32  49  72 101 130 163 208 258 298
#     4   9  17  29  47  73 104 133 161 202 255 303
#
# _framework density 17.119844000000001
#
# number of rings (size 3 to 8) (size 9 to 14) (size 15 to 20)
#    0.000    2.714    0.000    2.571    0.000    6.000 
#    0.000    2.143    0.000    7.286    0.000   10.000 
#    0.000    0.000    0.000    0.000    0.000    0.000 
#
# Total GULP energy -311789.611255 kJ/mol
# GULP energy per Si atom -5567.671630 kJ/mol
# Density = 1.708088 g / cm^3
# Si number density = 17.119844 Si / 1000 Ang^3
#
#
#
# Elastic Constant Matrix: (Units=GPa)
#
#
# Indices 1 2 3 4 5 6 
#
# 1 129.9573 54.1817 23.9306 0.0000 0.0000 0.0000
# 2 54.1817 123.8693 19.8881 0.0000 0.0000 0.0000
# 3 23.9306 19.8881 35.5207 0.0000 0.0000 0.0000
# 4 0.0000 0.0000 0.0000 22.8100 0.0000 0.0000
# 5 0.0000 0.0000 0.0000 0.0000 25.3034 0.0000
# 6 0.0000 0.0000 0.0000 0.0000 0.0000 22.9999
#
#
#
# Elastic Compliance Matrix: (Units=1/GPa)
#
#
# Indices 1 2 3 4 5 6 
#
# 1 0.010093 -0.003651 -0.004755 0.000000 0.000000 0.000000
# 2 -0.003651 0.010191 -0.003246 0.000000 0.000000 0.000000
# 3 -0.004755 -0.003246 0.033174 0.000000 0.000000 0.000000
# 4 0.000000 0.000000 0.000000 0.043840 0.000000 0.000000
# 5 0.000000 0.000000 0.000000 0.000000 0.039520 0.000000
# 6 0.000000 0.000000 0.000000 0.000000 0.000000 0.043479
#
#
# Mechanical properties :
#
#
# Convention : Reuss Voigt Hill
#
# Bulk Modulus (GPa) = 33.16483 53.92758 43.54621
# Shear Modulus (GPa) = 23.40239 26.97913 25.19076
#
# Velocity S-wave (km/s) = 3.70127 3.97406 3.84009
# Velocity P-wave (km/s) = 6.13841 7.25438 6.71960
#
# Compressibility (1/GPa) = 0.03015242
#
# Stress axis : x y z
#
# Youngs Moduli (GPa) = 99.08132 98.12290 30.14420
#
# Poissons Ratio (x) = 0.35826 0.14334
# Poissons Ratio (y) = 0.36176 0.09786
# Poissons Ratio (z) = 0.47116 0.31854
#
# Static dielectric constant tensor:
#      x y z
#    x 1.619720 0.000000 0.000000 
#    y 0.000000 1.556530 0.000000 
#    z 0.000000 0.000000 1.594100 
# 
# From -- ./inp_files/26279.got.cif
#   From: 2010.05.17/outbox.cif.g08.bks.cpg/sg71_14_cif.got.tgz:26279.got - 2010.06.03 16:22:01.
