data_PCOD9518560
_publ_section_title
;
Structure prediction by ZEFSAII (Michael W. Deem and Ramdas Pophale) SiO2 
 PCOD9518560
Probable space group: I M M M
;
_chemical_formula_sum "Si O2"
_cell_formula_units_Z 96
_cell_length_a 15.435075
_cell_length_b 19.923695
_cell_length_c 16.401979
_cell_angle_alpha 90.000000
_cell_angle_beta 90.000000
_cell_angle_gamma 90.000000
_cell_volume 5043.997706
_symmetry_space_group_name_H-M "I M M M"
_symmetry_group_IT_number 71
_symmetry_cell_setting 'orthorhombic'
loop_
_space_group_symop_operation_xyz
x,y,z
-x,-y,z
x,-y,-z
-x,y,-z
-x,-y,-z
x,y,-z
-x,y,z
x,-y,z
1/2+x,1/2+y,1/2+z
1/2-x,1/2-y,1/2+z
1/2+x,1/2-y,1/2-z
1/2-x,1/2+y,1/2-z
1/2-x,1/2-y,1/2-z
1/2+x,1/2+y,1/2-z
1/2-x,1/2+y,1/2+z
1/2+x,1/2-y,1/2+z
loop_
_atom_site_type_symbol
_atom_site_label
_atom_site_fract_x
_atom_site_fract_y
_atom_site_fract_z
Si Si1 0.634743 0.789319 0.843253
Si Si2 0.095434 0.682423 0.156682
Si Si3 0.708656 0.422862 0.500000
Si Si4 0.264066 0.924322 0.402694
Si Si5 0.335554 0.325200 0.645893
Si Si6 0.400911 0.636283 0.177422
Si Si7 0.595483 0.878844 0.000000
O O1 0.598584 0.810159 0.755048
O O2 0.738095 0.799251 0.836541
O O3 0.611681 0.711767 0.857249
O O4 0.602051 0.833269 0.918706
O O5 0.169046 0.630942 0.129841
O O6 0.113633 0.757310 0.122863
O O7 0.000000 0.659669 0.131472
O O8 0.681489 0.500000 0.500000
O O9 0.674076 0.381348 0.422673
O O10 0.814365 0.419924 0.500000
O O11 0.258840 0.918618 0.500000
O O12 0.170283 0.910035 0.364381
O O13 0.292216 0.000000 0.381494
O O14 0.377659 0.355463 0.727131
O O15 0.500000 0.615071 0.166653
O O16 0.500000 0.912050 0.000000
#
# Coordination Sequence:
#
# PCOD9518560 Si02
#       7
#    16  16   8  16  16  16   8
#     4  10  18  35  60  94 127 158 199 252 305 352
#     4  11  21  39  66  93 121 158 208 255 302 361
#     4  10  24  39  59  88 124 169 203 243 306 366
#     4  11  26  44  61  87 125 162 203 257 310 363
#     4  10  19  38  64  91 124 160 205 251 300 355
#     4  11  21  38  65  92 121 158 203 253 306 363
#     4  10  20  33  56  93 129 158 197 249 301 357
#
# _framework density 19.032523000000001
#
# number of rings (size 3 to 8) (size 9 to 14) (size 15 to 20)
#    0.000    1.500    3.333    4.000    2.333    2.167 
#    0.000    2.917    0.000    5.500    0.000    0.000 
#    0.000    0.000    0.000    0.000    0.000    0.000 
#
# Total GULP energy -268081.552417 kJ/mol
# GULP energy per Si atom -5585.032342 kJ/mol
# Density = 1.898920 g / cm^3
# Si number density = 19.032523 Si / 1000 Ang^3
#
#
#
# Elastic Constant Matrix: (Units=GPa)
#
#
# Indices 1 2 3 4 5 6 
#
# 1 118.1318 26.9479 21.4947 0.0000 0.0000 0.0000
# 2 26.9479 107.2932 56.4604 -0.0001 0.0000 0.0000
# 3 21.4947 56.4604 54.9578 -0.0002 0.0000 0.0000
# 4 0.0000 -0.0001 -0.0002 19.6363 0.0000 0.0000
# 5 0.0000 0.0000 0.0000 0.0000 1.7532 0.0000
# 6 0.0000 0.0000 0.0000 0.0000 0.0000 -1.2774
#
#
#
# Elastic Compliance Matrix: (Units=1/GPa)
#
#
# Indices 1 2 3 4 5 6 
#
# 1 0.009154 -0.000904 -0.002652 0.000000 0.000000 0.000000
# 2 -0.000904 0.020378 -0.020581 0.000000 0.000000 0.000000
# 3 -0.002652 -0.020581 0.040377 0.000000 0.000000 0.000000
# 4 0.000000 0.000000 0.000000 0.050926 0.000000 0.000000
# 5 0.000000 0.000000 0.000000 0.000000 0.570373 0.000001
# 6 0.000000 0.000000 0.000000 0.000000 0.000001 -0.782812
#
#
# Mechanical properties :
#
#
# Convention : Reuss Voigt Hill
#
# Bulk Modulus (GPa) = 46.22185 54.46542 50.34364
# Shear Modulus (GPa) = -138.43264 15.72107 -61.35579
#
# Velocity S-wave (km/s) = -8.53772 2.87716 -5.68395
# Velocity P-wave (km/s) = 8.53533 6.30211 4.07034
#
# Compressibility (1/GPa) = 0.02163479
#
# Stress axis : x y z
#
# Youngs Moduli (GPa) = 109.24466 49.07347 24.76657
#
# Poissons Ratio (x) = 0.04434 0.06568
# Poissons Ratio (y) = 0.09871 0.50973
# Poissons Ratio (z) = 0.28970 1.01000
#
# Static dielectric constant tensor:
#      x y z
#    x 1.676450 0.000000 0.000000 
#    y 0.000000 1.631850 0.000000 
#    z 0.000000 0.000000 1.645860 
# 
# From -- ./inp_files/34541.got.cif
#   From: 2010.05.17/outbox.cif.g08.bks.cpg/sg71_18_cif.got.tgz:34541.got - 2010.06.03 16:22:01.
