data_PCOD9518557
_publ_section_title
;
Structure prediction by ZEFSAII (Michael W. Deem and Ramdas Pophale) SiO2 
 PCOD9518557
Probable space group: I M M M
;
_chemical_formula_sum "Si O2"
_cell_formula_units_Z 64
_cell_length_a 16.954125
_cell_length_b 7.479590
_cell_length_c 24.818595
_cell_angle_alpha 90.000000
_cell_angle_beta 90.000000
_cell_angle_gamma 90.000000
_cell_volume 3147.243645
_symmetry_space_group_name_H-M "I M M M"
_symmetry_group_IT_number 71
_symmetry_cell_setting 'orthorhombic'
loop_
_space_group_symop_operation_xyz
x,y,z
-x,-y,z
x,-y,-z
-x,y,-z
-x,-y,-z
x,y,-z
-x,y,z
x,-y,z
1/2+x,1/2+y,1/2+z
1/2-x,1/2-y,1/2+z
1/2+x,1/2-y,1/2-z
1/2-x,1/2+y,1/2-z
1/2-x,1/2-y,1/2-z
1/2+x,1/2+y,1/2-z
1/2-x,1/2+y,1/2+z
1/2+x,1/2-y,1/2+z
loop_
_atom_site_type_symbol
_atom_site_label
_atom_site_fract_x
_atom_site_fract_y
_atom_site_fract_z
Si Si1 0.589797 0.782821 0.241197
Si Si2 0.000000 0.281687 0.937968
Si Si3 0.323719 0.206168 0.133734
Si Si4 0.641507 0.783105 0.639815
Si Si5 0.407325 0.500000 0.063972
O O1 0.500000 0.726058 0.229744
O O2 0.648183 0.730481 0.193157
O O3 0.615709 0.722739 0.300460
O O4 0.589929 0.000000 0.242965
O O5 0.922718 0.226129 0.904378
O O6 0.000000 0.500000 0.938299
O O7 0.000000 0.222931 0.000000
O O8 0.229879 0.221496 0.128709
O O9 0.366226 0.328814 0.090375
O O10 0.347717 0.000000 0.127926
O O11 0.641871 0.000000 0.639908
O O12 0.500000 0.500000 0.076701
O O13 0.397443 0.500000 0.000000
#
# Coordination Sequence:
#
# PCOD9518557 Si02
#       5
#    16   8  16  16   8
#     4   9  17  32  58  89 126 170 213 265 322 378
#     4   9  18  32  57  89 121 170 223 262 311 373
#     4  11  23  40  65  96 130 164 212 265 324 383
#     4  10  18  35  59  89 130 171 216 267 316 372
#     4  11  26  48  70  93 125 163 211 266 322 385
#
# _framework density 20.335253000000002
#
# number of rings (size 3 to 8) (size 9 to 14) (size 15 to 20)
#    0.000    2.000    2.500    1.500    0.000    3.000 
#    2.250    1.875    0.000    0.750    0.000    0.000 
#    0.000    0.000    0.000    0.000    0.000    0.000 
#
# Total GULP energy -178902.021264 kJ/mol
# GULP energy per Si atom -5590.688165 kJ/mol
# Density = 2.028897 g / cm^3
# Si number density = 20.335253 Si / 1000 Ang^3
#
#
#
# Elastic Constant Matrix: (Units=GPa)
#
#
# Indices 1 2 3 4 5 6 
#
# 1 180.5790 29.9384 112.6970 0.0000 0.0000 0.0000
# 2 29.9384 83.1876 37.8295 0.0000 0.0000 0.0000
# 3 112.6970 37.8295 144.2299 0.0000 0.0000 0.0000
# 4 0.0000 0.0000 0.0000 -166.0416 0.0000 0.0000
# 5 0.0000 0.0000 0.0000 0.0000 -6.1126 0.0000
# 6 0.0000 0.0000 0.0000 0.0000 0.0000 -9.1064
#
#
#
# Elastic Compliance Matrix: (Units=1/GPa)
#
#
# Indices 1 2 3 4 5 6 
#
# 1 0.010809 -0.000056 -0.008431 0.000000 0.000000 0.000000
# 2 -0.000056 0.013649 -0.003536 0.000000 0.000000 0.000000
# 3 -0.008431 -0.003536 0.014449 0.000000 0.000000 0.000000
# 4 0.000000 0.000000 0.000000 -0.006023 0.000000 0.000000
# 5 0.000000 0.000000 0.000000 0.000000 -0.163598 0.000000
# 6 0.000000 0.000000 0.000000 0.000000 0.000000 -0.109813
#
#
# Mechanical properties :
#
#
# Convention : Reuss Voigt Hill
#
# Bulk Modulus (GPa) = 67.29387 85.43626 76.36506
# Shear Modulus (GPa) = -23.63767 -21.08335 -22.36051
#
# Velocity S-wave (km/s) = -3.41310 -3.22341 -3.31961
# Velocity P-wave (km/s) = 4.19902 5.31519 4.78973
#
# Compressibility (1/GPa) = 0.01486020
#
# Stress axis : x y z
#
# Youngs Moduli (GPa) = 92.51889 73.26384 69.21130
#
# Poissons Ratio (x) = 0.00410 0.58351
# Poissons Ratio (y) = 0.00518 0.24475
# Poissons Ratio (z) = 0.78001 0.25908
#
# Static dielectric constant tensor:
#      x y z
#    x 1.680170 0.000000 0.000000 
#    y 0.000000 1.775960 0.000000 
#    z 0.000000 0.000000 1.683320 
# 
# From -- ./inp_files/5518.got.cif
#   From: 2010.05.17/outbox.cif.g08.bks.cpg/sg71_3_cif.got.tgz:5518.got - 2010.06.03 16:22:01.
