data_PCOD9518230
_publ_section_title
;
Structure prediction by ZEFSAII (Michael W. Deem and Ramdas Pophale) SiO2 
 PCOD9518230
Probable space group: I M M M
;
_chemical_formula_sum "Si O2"
_cell_formula_units_Z 80
_cell_length_a 16.714419
_cell_length_b 7.313463
_cell_length_c 27.905934
_cell_angle_alpha 90.000000
_cell_angle_beta 90.000000
_cell_angle_gamma 90.000000
_cell_volume 3411.229323
_symmetry_space_group_name_H-M "I M M M"
_symmetry_group_IT_number 71
_symmetry_cell_setting 'orthorhombic'
loop_
_space_group_symop_operation_xyz
x,y,z
-x,-y,z
x,-y,-z
-x,y,-z
-x,-y,-z
x,y,-z
-x,y,z
x,-y,z
1/2+x,1/2+y,1/2+z
1/2-x,1/2-y,1/2+z
1/2+x,1/2-y,1/2-z
1/2-x,1/2+y,1/2-z
1/2-x,1/2-y,1/2-z
1/2+x,1/2+y,1/2-z
1/2-x,1/2+y,1/2+z
1/2+x,1/2-y,1/2+z
loop_
_atom_site_type_symbol
_atom_site_label
_atom_site_fract_x
_atom_site_fract_y
_atom_site_fract_z
Si Si1 0.332165 0.793056 0.093199
Si Si2 0.000000 0.283231 0.443269
Si Si3 0.831542 0.782725 0.779631
Si Si4 0.588426 0.721214 0.187208
Si Si5 0.839310 0.224428 0.110891
Si Si6 0.000000 0.222689 0.055488
O O1 0.414805 0.706743 0.074678
O O2 0.346370 0.796312 0.150575
O O3 0.243897 0.714905 0.086136
O O4 0.330578 0.000000 0.073804
O O5 0.000000 0.500000 0.430169
O O6 0.000000 0.268078 0.500000
O O7 0.750000 0.750000 0.750000
O O8 0.897500 0.718735 0.741527
O O9 0.837630 0.712489 0.833628
O O10 0.840805 0.000000 0.784109
O O11 0.500000 0.775059 0.170853
O O12 0.593845 0.500000 0.185655
O O13 0.919514 0.279170 0.083354
O O14 0.836836 0.000000 0.110932
O O15 0.000000 0.000000 0.055740
O O16 0.000000 0.280072 0.000000
#
# Coordination Sequence:
#
# PCOD9518230 Si02
#       6
#    16   8  16  16  16   8
#     4  10  18  31  51  73  98 133 168 202 249 301
#     4   9  18  30  46  71  99 123 155 203 254 299
#     4  10  19  31  48  72 103 135 166 203 249 300
#     4  10  20  31  46  71 103 137 168 199 241 300
#     4   9  18  30  47  71 100 133 170 210 253 301
#     4   9  18  32  49  72 103 137 173 219 270 311
#
# _framework density 23.451957
#
# number of rings (size 3 to 8) (size 9 to 14) (size 15 to 20)
#    0.000    2.400    3.000    0.000    1.400    0.800 
#    0.000    4.000    0.000    1.200    0.000    2.100 
#    0.000    4.000    0.000    0.000    0.000    0.000 
#
# Total GULP energy -223288.938315 kJ/mol
# GULP energy per Si atom -5582.223458 kJ/mol
# Density = 2.339858 g / cm^3
# Si number density = 23.451957 Si / 1000 Ang^3
#
#
#
# Elastic Constant Matrix: (Units=GPa)
#
#
# Indices 1 2 3 4 5 6 
#
# 1 229.3064 5.2033 83.2566 0.0000 0.0000 0.0000
# 2 5.2033 96.7748 4.5511 0.0000 0.0000 0.0000
# 3 83.2566 4.5511 124.3130 0.0000 0.0000 0.0000
# 4 0.0000 0.0000 0.0000 7.9798 0.0000 0.0000
# 5 0.0000 0.0000 0.0000 0.0000 27.7366 0.0000
# 6 0.0000 0.0000 0.0000 0.0000 0.0000 -2.4117
#
#
#
# Elastic Compliance Matrix: (Units=1/GPa)
#
#
# Indices 1 2 3 4 5 6 
#
# 1 0.005764 -0.000129 -0.003855 0.000000 0.000000 0.000000
# 2 -0.000129 0.010354 -0.000293 0.000000 0.000000 0.000000
# 3 -0.003855 -0.000293 0.010637 0.000000 0.000000 0.000000
# 4 0.000000 0.000000 0.000000 0.125316 0.000000 0.000000
# 5 0.000000 0.000000 0.000000 0.000000 0.036053 0.000000
# 6 0.000000 0.000000 0.000000 0.000000 0.000000 -0.414649
#
#
# Mechanical properties :
#
#
# Convention : Reuss Voigt Hill
#
# Bulk Modulus (GPa) = 54.94266 70.71291 62.82778
# Shear Modulus (GPa) = -23.59561 30.48648 3.44544
#
# Velocity S-wave (km/s) = -3.17539 3.60940 1.21340
# Velocity P-wave (km/s) = 3.16773 6.89841 5.36761
#
# Compressibility (1/GPa) = 0.01820079
#
# Stress axis : x y z
#
# Youngs Moduli (GPa) = 173.49854 96.58140 94.01083
#
# Poissons Ratio (x) = 0.01242 0.36246
# Poissons Ratio (y) = 0.02231 0.02754
# Poissons Ratio (z) = 0.66892 0.02829
#
# Static dielectric constant tensor:
#      x y z
#    x 1.909150 0.000000 0.000000 
#    y 0.000000 1.907260 0.000000 
#    z 0.000000 0.000000 1.874290 
# 
# From -- ./inp_files/65289.got.cif
#   From: 2010.05.17/outbox.cif.g08.bks.cpg/sg71_33_cif.got.tgz:65289.got - 2010.06.03 16:22:01.
