data_PCOD9518873
_publ_section_title
;
Structure prediction by ZEFSAII (Michael W. Deem and Ramdas Pophale) SiO2 
 PCOD9518873
Probable space group: I M M M
;
_chemical_formula_sum "Si O2"
_cell_formula_units_Z 96
_cell_length_a 24.407751
_cell_length_b 17.970580
_cell_length_c 13.788021
_cell_angle_alpha 90.000000
_cell_angle_beta 90.000000
_cell_angle_gamma 90.000000
_cell_volume 6047.721653
_symmetry_space_group_name_H-M "I M M M"
_symmetry_group_IT_number 71
_symmetry_cell_setting 'orthorhombic'
loop_
_space_group_symop_operation_xyz
x,y,z
-x,-y,z
x,-y,-z
-x,y,-z
-x,-y,-z
x,y,-z
-x,y,z
x,-y,z
1/2+x,1/2+y,1/2+z
1/2-x,1/2-y,1/2+z
1/2+x,1/2-y,1/2-z
1/2-x,1/2+y,1/2-z
1/2-x,1/2-y,1/2-z
1/2+x,1/2+y,1/2-z
1/2-x,1/2+y,1/2+z
1/2+x,1/2-y,1/2+z
loop_
_atom_site_type_symbol
_atom_site_label
_atom_site_fract_x
_atom_site_fract_y
_atom_site_fract_z
Si Si1 0.888453 0.090097 0.392513
Si Si2 0.226982 0.911667 0.298241
Si Si3 0.438549 0.913515 0.382302
Si Si4 0.669658 0.827401 0.616013
Si Si5 0.938736 0.909970 0.190054
Si Si6 0.671901 0.348818 0.389188
O O1 0.902911 0.117561 0.500000
O O2 0.825837 0.108976 0.364362
O O3 0.925982 0.112608 0.301723
O O4 0.891201 0.000000 0.394993
O O5 0.280483 0.868368 0.331693
O O6 0.208785 0.890956 0.189432
O O7 0.235285 0.000000 0.307093
O O8 0.439323 0.911388 0.500000
O O9 0.500000 0.892105 0.349702
O O10 0.388639 0.861355 0.351075
O O11 0.428871 0.000000 0.355255
O O12 0.674309 0.840726 0.500000
O O13 0.672866 0.739208 0.631527
O O14 0.890270 0.876739 0.126191
O O15 0.000000 0.887721 0.161682
O O16 0.935249 0.000000 0.185497
O O17 0.688852 0.361748 0.500000
#
# Coordination Sequence:
#
# PCOD9518873 Si02
#       6
#    16  16  16  16  16  16
#     4   8  14  25  42  65  91 115 140 179 230 272
#     4  10  19  31  48  68  91 119 154 192 227 274
#     4   8  14  25  41  63  92 121 146 175 214 264
#     4  10  19  30  47  70  94 120 149 183 229 284
#     4   9  18  31  46  65  88 118 159 198 228 267
#     4  10  21  34  46  63  91 124 154 191 237 277
#
# _framework density 15.873747
#
# number of rings (size 3 to 8) (size 9 to 14) (size 15 to 20)
#    0.000    2.833    0.000    3.500    0.000    4.333 
#    0.000    4.167    0.000    0.000    0.000    0.000 
#    0.000    0.667    0.000    3.500    0.000    0.167 
#
# Total GULP energy -267413.399023 kJ/mol
# GULP energy per Si atom -5571.112480 kJ/mol
# Density = 1.583762 g / cm^3
# Si number density = 15.873747 Si / 1000 Ang^3
#
#
#
# Elastic Constant Matrix: (Units=GPa)
#
#
# Indices 1 2 3 4 5 6 
#
# 1 77.4287 27.7607 -2.3008 0.0000 0.0000 0.0000
# 2 27.7607 33.4488 12.0026 0.0000 0.0000 0.0000
# 3 -2.3008 12.0026 28.9254 0.0000 0.0000 0.0000
# 4 0.0000 0.0000 0.0000 12.3036 0.0000 0.0000
# 5 0.0000 0.0000 0.0000 0.0000 3.7354 0.0000
# 6 0.0000 0.0000 0.0000 0.0000 0.0000 14.1571
#
#
#
# Elastic Compliance Matrix: (Units=1/GPa)
#
#
# Indices 1 2 3 4 5 6 
#
# 1 0.020712 -0.020892 0.010317 0.000000 0.000000 0.000000
# 2 -0.020892 0.056200 -0.024982 0.000000 0.000000 0.000000
# 3 0.010317 -0.024982 0.045759 0.000000 0.000000 0.000000
# 4 0.000000 0.000000 0.000000 0.081277 0.000000 0.000000
# 5 0.000000 0.000000 0.000000 0.000000 0.267708 0.000000
# 6 0.000000 0.000000 0.000000 0.000000 0.000000 0.070636
#
#
# Mechanical properties :
#
#
# Convention : Reuss Voigt Hill
#
# Bulk Modulus (GPa) = 19.39634 23.85866 21.62750
# Shear Modulus (GPa) = 7.92907 12.86193 10.39550
#
# Velocity S-wave (km/s) = 2.23739 2.84960 2.56185
# Velocity P-wave (km/s) = 4.34974 5.08821 4.73340
#
# Compressibility (1/GPa) = 0.05155613
#
# Stress axis : x y z
#
# Youngs Moduli (GPa) = 48.28108 17.79364 21.85379
#
# Poissons Ratio (x) = 0.37174 -0.22546
# Poissons Ratio (y) = 1.00868 0.54595
# Poissons Ratio (z) = -0.49810 0.44452
#
# Static dielectric constant tensor:
#      x y z
#    x 1.531830 0.000000 0.000000 
#    y 0.000000 1.520310 0.000000 
#    z 0.000000 0.000000 1.527000 
# 
# From -- ./inp_files/27561.got.cif
#   From: 2010.05.17/outbox.cif.g08.bks.cpg/sg71_14_cif.got.tgz:27561.got - 2010.06.03 16:22:01.
