data_PCOD9518580
_publ_section_title
;
Structure prediction by ZEFSAII (Michael W. Deem and Ramdas Pophale) SiO2 
 PCOD9518580
Probable space group: I M M M
;
_chemical_formula_sum "Si O2"
_cell_formula_units_Z 112
_cell_length_a 18.456847
_cell_length_b 19.961634
_cell_length_c 15.023013
_cell_angle_alpha 90.000000
_cell_angle_beta 90.000000
_cell_angle_gamma 90.000000
_cell_volume 5534.911022
_symmetry_space_group_name_H-M "I M M M"
_symmetry_group_IT_number 71
_symmetry_cell_setting 'orthorhombic'
loop_
_space_group_symop_operation_xyz
x,y,z
-x,-y,z
x,-y,-z
-x,y,-z
-x,-y,-z
x,y,-z
-x,y,z
x,-y,z
1/2+x,1/2+y,1/2+z
1/2-x,1/2-y,1/2+z
1/2+x,1/2-y,1/2-z
1/2-x,1/2+y,1/2-z
1/2-x,1/2-y,1/2-z
1/2+x,1/2+y,1/2-z
1/2-x,1/2+y,1/2+z
1/2+x,1/2-y,1/2+z
loop_
_atom_site_type_symbol
_atom_site_label
_atom_site_fract_x
_atom_site_fract_y
_atom_site_fract_z
Si Si1 0.264719 0.573515 0.357894
Si Si2 0.342569 0.819211 0.593846
Si Si3 0.083295 0.750860 0.248083
Si Si4 0.082276 0.129565 0.896950
Si Si5 0.576757 0.421935 0.893163
Si Si6 0.268089 0.425537 0.853814
Si Si7 0.219943 0.724414 0.652534
O O1 0.238656 0.500000 0.391118
O O2 0.349290 0.581158 0.384596
O O3 0.258745 0.571215 0.251396
O O4 0.228214 0.646351 0.375493
O O5 0.382411 0.815851 0.500000
O O6 0.392200 0.807235 0.679171
O O7 0.298158 0.887189 0.604355
O O8 0.276984 0.765093 0.593983
O O9 0.091844 0.815300 0.181622
O O10 0.136353 0.744237 0.332800
O O11 0.000000 0.745458 0.272846
O O12 0.000000 0.102116 0.887009
O O13 0.086287 0.155348 0.000000
O O14 0.500000 0.392208 0.861069
O O15 0.577178 0.500000 0.862813
O O16 0.653340 0.391773 0.866933
O O17 0.575157 0.422317 0.000000
O O18 0.273179 0.500000 0.891621
O O19 0.250000 0.750000 0.750000
#
# Coordination Sequence:
#
# PCOD9518580 Si02
#       7
#    16  16  16  16  16  16  16
#     4  11  21  34  53  74 102 142 183 225 268 316
#     4  11  20  32  56  82 107 140 177 221 272 325
#     4  10  19  34  58  81 106 142 183 226 270 323
#     4  10  20  34  52  79 115 148 179 219 273 336
#     4   8  14  25  40  59  89 129 168 203 239 287
#     4  10  19  31  48  73 103 139 180 221 262 315
#     4  10  18  37  55  75 105 137 184 226 265 314
#
# _framework density 20.235194
#
# number of rings (size 3 to 8) (size 9 to 14) (size 15 to 20)
#    0.000    2.000    5.714    1.286    0.000    2.857 
#    0.000    2.857    0.000    3.000    0.000    1.000 
#    0.000    0.000    0.000    2.571    0.000    0.000 
#
# Total GULP energy -311761.923364 kJ/mol
# GULP energy per Si atom -5567.177203 kJ/mol
# Density = 2.018914 g / cm^3
# Si number density = 20.235194 Si / 1000 Ang^3
#
#
#
# Elastic Constant Matrix: (Units=GPa)
#
#
# Indices 1 2 3 4 5 6 
#
# 1 79.4964 30.9522 -6.4675 0.0000 0.0000 0.0000
# 2 30.9522 107.6114 2.0382 0.0000 0.0000 0.0000
# 3 -6.4675 2.0382 44.9673 0.0000 0.0000 0.0000
# 4 0.0000 0.0000 0.0000 -60.4514 0.0000 0.0000
# 5 0.0000 0.0000 0.0000 0.0000 14.6639 0.0000
# 6 0.0000 0.0000 0.0000 0.0000 0.0000 15.1619
#
#
#
# Elastic Compliance Matrix: (Units=1/GPa)
#
#
# Indices 1 2 3 4 5 6 
#
# 1 0.014391 -0.004182 0.002259 0.000000 0.000000 0.000000
# 2 -0.004182 0.010516 -0.001078 0.000000 0.000000 0.000000
# 3 0.002259 -0.001078 0.022612 0.000000 0.000000 0.000000
# 4 0.000000 0.000000 0.000000 -0.016542 0.000000 0.000000
# 5 0.000000 0.000000 0.000000 0.000000 0.068195 0.000000
# 6 0.000000 0.000000 0.000000 0.000000 0.000000 0.065955
#
#
# Mechanical properties :
#
#
# Convention : Reuss Voigt Hill
#
# Bulk Modulus (GPa) = 24.08604 31.68007 27.88305
# Shear Modulus (GPa) = 27.03170 7.57837 17.30503
#
# Velocity S-wave (km/s) = 3.65893 1.93734 2.92754
# Velocity P-wave (km/s) = 5.45703 4.54910 5.02362
#
# Compressibility (1/GPa) = 0.04151783
#
# Stress axis : x y z
#
# Youngs Moduli (GPa) = 69.48626 95.09292 44.22385
#
# Poissons Ratio (x) = 0.39769 -0.09992
# Poissons Ratio (y) = 0.29060 0.04768
# Poissons Ratio (z) = -0.15700 0.10252
#
# Static dielectric constant tensor:
#      x y z
#    x 1.744450 0.000000 0.000000 
#    y 0.000000 1.809470 0.000000 
#    z 0.000000 0.000000 1.907610 
# 
# From -- ./inp_files/46422.got.cif
#   From: 2010.05.17/outbox.cif.g08.bks.cpg/sg71_24_cif.got.tgz:46422.got - 2010.06.03 16:22:01.
