data_PCOD9518458
_publ_section_title
;
Structure prediction by ZEFSAII (Michael W. Deem and Ramdas Pophale) SiO2 
 PCOD9518458
Probable space group: I M M M
;
_chemical_formula_sum "Si O2"
_cell_formula_units_Z 88
_cell_length_a 18.048276
_cell_length_b 21.807152
_cell_length_c 13.350811
_cell_angle_alpha 90.000000
_cell_angle_beta 90.000000
_cell_angle_gamma 90.000000
_cell_volume 5254.632194
_symmetry_space_group_name_H-M "I M M M"
_symmetry_group_IT_number 71
_symmetry_cell_setting 'orthorhombic'
loop_
_space_group_symop_operation_xyz
x,y,z
-x,-y,z
x,-y,-z
-x,y,-z
-x,-y,-z
x,y,-z
-x,y,z
x,-y,z
1/2+x,1/2+y,1/2+z
1/2-x,1/2-y,1/2+z
1/2+x,1/2-y,1/2-z
1/2-x,1/2+y,1/2-z
1/2-x,1/2-y,1/2-z
1/2+x,1/2+y,1/2-z
1/2-x,1/2+y,1/2+z
1/2+x,1/2-y,1/2+z
loop_
_atom_site_type_symbol
_atom_site_label
_atom_site_fract_x
_atom_site_fract_y
_atom_site_fract_z
Si Si1 0.667617 0.928042 0.295559
Si Si2 0.696326 0.260706 0.386257
Si Si3 0.913109 0.780022 0.703978
Si Si4 0.156232 0.338500 0.385667
Si Si5 0.584701 0.074465 0.500000
Si Si6 0.794736 0.137477 0.382987
O O1 0.643760 0.889065 0.199316
O O2 0.625426 0.907110 0.397462
O O3 0.753806 0.914495 0.319629
O O4 0.654102 0.000000 0.281230
O O5 0.668687 0.261515 0.500000
O O6 0.631894 0.267849 0.306389
O O7 0.759414 0.312906 0.375288
O O8 0.741576 0.197511 0.371022
O O9 0.894832 0.720749 0.635473
O O10 0.873908 0.839050 0.654421
O O11 0.000000 0.786986 0.718188
O O12 0.146105 0.359614 0.500000
O O13 0.500000 0.095579 0.500000
O O14 0.585303 0.000000 0.500000
O O15 0.796886 0.121384 0.500000
#
# Coordination Sequence:
#
# PCOD9518458 Si02
#       6
#    16  16  16  16   8  16
#     4  11  20  33  56  80 103 142 182 216 263 311
#     4   9  17  32  54  75 100 135 170 218 276 316
#     4  11  20  32  53  79 108 140 174 216 270 325
#     4  10  20  36  54  74 107 140 174 219 259 316
#     4   9  20  36  52  76 105 133 175 225 267 304
#     4  10  18  33  53  75 105 134 176 222 261 318
#
# _framework density 16.747128
#
# number of rings (size 3 to 8) (size 9 to 14) (size 15 to 20)
#    0.000    1.909    4.545    2.727    0.000    2.909 
#    0.000    0.000    0.000    0.545    0.000    5.091 
#    0.000    2.909    0.000    0.000    0.000    0.000 
#
# Total GULP energy -245476.535941 kJ/mol
# GULP energy per Si atom -5579.012180 kJ/mol
# Density = 1.670901 g / cm^3
# Si number density = 16.747128 Si / 1000 Ang^3
#
#
#
# Elastic Constant Matrix: (Units=GPa)
#
#
# Indices 1 2 3 4 5 6 
#
# 1 87.5513 3.8246 23.8144 0.0000 0.0000 0.0000
# 2 3.8246 37.8158 19.5257 0.0000 0.0000 0.0000
# 3 23.8144 19.5257 121.1463 0.0000 0.0000 0.0000
# 4 0.0000 0.0000 0.0000 26.0079 0.0000 0.0000
# 5 0.0000 0.0000 0.0000 0.0000 16.7903 0.0000
# 6 0.0000 0.0000 0.0000 0.0000 0.0000 11.2032
#
#
#
# Elastic Compliance Matrix: (Units=1/GPa)
#
#
# Indices 1 2 3 4 5 6 
#
# 1 0.012067 0.000005 -0.002373 0.000000 0.000000 0.000000
# 2 0.000005 0.028844 -0.004650 0.000000 0.000000 0.000000
# 3 -0.002373 -0.004650 0.009470 0.000000 0.000000 0.000000
# 4 0.000000 0.000000 0.000000 0.038450 0.000000 0.000000
# 5 0.000000 0.000000 0.000000 0.000000 0.059558 0.000000
# 6 0.000000 0.000000 0.000000 0.000000 0.000000 0.089260
#
#
# Mechanical properties :
#
#
# Convention : Reuss Voigt Hill
#
# Bulk Modulus (GPa) = 27.51348 37.87143 32.69245
# Shear Modulus (GPa) = 18.95367 24.09021 21.52194
#
# Velocity S-wave (km/s) = 3.36781 3.79683 3.58874
# Velocity P-wave (km/s) = 5.62026 6.47178 6.06099
#
# Compressibility (1/GPa) = 0.03634582
#
# Stress axis : x y z
#
# Youngs Moduli (GPa) = 82.87000 34.66878 105.59240
#
# Poissons Ratio (x) = -0.00016 0.25056
# Poissons Ratio (y) = -0.00039 0.49100
# Poissons Ratio (z) = 0.19664 0.16121
#
# Static dielectric constant tensor:
#      x y z
#    x 1.567290 0.000000 0.000000 
#    y 0.000000 1.566950 0.000000 
#    z 0.000000 0.000000 1.592520 
# 
# From -- ./inp_files/36579.got.cif
#   From: 2010.05.17/outbox.cif.g08.bks.cpg/sg71_19_cif.got.tgz:36579.got - 2010.06.03 16:22:01.
