data_PCOD9518768
_publ_section_title
;
Structure prediction by ZEFSAII (Michael W. Deem and Ramdas Pophale) SiO2 
 PCOD9518768
Probable space group: I M M M
;
_chemical_formula_sum "Si O2"
_cell_formula_units_Z 88
_cell_length_a 8.698993
_cell_length_b 24.466225
_cell_length_c 31.471861
_cell_angle_alpha 90.000000
_cell_angle_beta 90.000000
_cell_angle_gamma 90.000000
_cell_volume 6698.204014
_symmetry_space_group_name_H-M "I M M M"
_symmetry_group_IT_number 71
_symmetry_cell_setting 'orthorhombic'
loop_
_space_group_symop_operation_xyz
x,y,z
-x,-y,z
x,-y,-z
-x,y,-z
-x,-y,-z
x,y,-z
-x,y,z
x,-y,z
1/2+x,1/2+y,1/2+z
1/2-x,1/2-y,1/2+z
1/2+x,1/2-y,1/2-z
1/2-x,1/2+y,1/2-z
1/2-x,1/2-y,1/2-z
1/2+x,1/2+y,1/2-z
1/2-x,1/2+y,1/2+z
1/2+x,1/2-y,1/2+z
loop_
_atom_site_type_symbol
_atom_site_label
_atom_site_fract_x
_atom_site_fract_y
_atom_site_fract_z
Si Si1 0.312946 0.063954 0.500000
Si Si2 0.318107 0.000000 0.268512
Si Si3 0.683870 0.318517 0.161023
Si Si4 0.817008 0.000000 0.362053
Si Si5 0.684504 0.894217 0.591419
Si Si6 0.315090 0.385867 0.752906
Si Si7 0.816177 0.221543 0.792188
O O1 0.500000 0.061827 0.500000
O O2 0.266173 0.095579 0.542714
O O3 0.261523 0.000000 0.500000
O O4 0.226957 0.000000 0.312918
O O5 0.267630 0.056572 0.246844
O O6 0.500000 0.000000 0.276075
O O7 0.500000 0.318207 0.160452
O O8 0.748247 0.343615 0.117666
O O9 0.729131 0.357556 0.201547
O O10 0.745425 0.257701 0.170379
O O11 0.743728 0.947243 0.383625
O O12 0.000000 0.000000 0.367105
O O13 0.500000 0.891965 0.592665
O O14 0.500000 0.393598 0.754421
O O15 0.279684 0.342077 0.715790
O O16 0.750000 0.250000 0.750000
O O17 0.000000 0.226819 0.792842
#
# Coordination Sequence:
#
# PCOD9518768 Si02
#       7
#     8   8  16   8  16  16  16
#     4   9  18  32  46  62  80 100 132 175 216 251
#     4  12  22  28  41  61  80 108 141 167 201 246
#     4  10  19  30  44  61  81 103 130 168 209 246
#     4  12  22  31  41  56  81 104 132 172 213 251
#     4  11  20  32  48  61  76 102 137 172 211 256
#     4   9  18  30  42  57  82 106 129 165 206 240
#     4   9  17  29  44  60  78 102 132 165 204 243
#
# _framework density 13.13785
#
# number of rings (size 3 to 8) (size 9 to 14) (size 15 to 20)
#    0.000    1.909    2.727    4.364    0.000    3.636 
#    0.000    2.273    0.000    0.000    0.000    0.000 
#    0.000    0.000    0.000    0.000    0.000    0.909 
#
# Total GULP energy -245245.298682 kJ/mol
# GULP energy per Si atom -5573.756788 kJ/mol
# Density = 1.310795 g / cm^3
# Si number density = 13.137850 Si / 1000 Ang^3
#
#
#
# Elastic Constant Matrix: (Units=GPa)
#
#
# Indices 1 2 3 4 5 6 
#
# 1 41.7831 31.8895 21.2932 0.0000 0.0000 0.0000
# 2 31.8895 92.8680 50.5040 0.0000 0.0000 0.0000
# 3 21.2932 50.5040 69.5854 0.0000 0.0000 0.0000
# 4 0.0000 0.0000 0.0000 3.8260 0.0000 0.0000
# 5 0.0000 0.0000 0.0000 0.0000 12.4504 0.0000
# 6 0.0000 0.0000 0.0000 0.0000 0.0000 21.3020
#
#
#
# Elastic Compliance Matrix: (Units=1/GPa)
#
#
# Indices 1 2 3 4 5 6 
#
# 1 0.032828 -0.009598 -0.003079 0.000000 0.000000 0.000000
# 2 -0.009598 0.020596 -0.012011 0.000000 0.000000 0.000000
# 3 -0.003079 -0.012011 0.024031 0.000000 0.000000 0.000000
# 4 0.000000 0.000000 0.000000 0.261367 0.000000 0.000000
# 5 0.000000 0.000000 0.000000 0.000000 0.080319 0.000000
# 6 0.000000 0.000000 0.000000 0.000000 0.000000 0.046944
#
#
# Mechanical properties :
#
#
# Convention : Reuss Voigt Hill
#
# Bulk Modulus (GPa) = 35.61587 45.73443 40.67515
# Shear Modulus (GPa) = 9.52709 14.21899 11.87304
#
# Velocity S-wave (km/s) = 2.69581 3.29339 3.00947
# Velocity P-wave (km/s) = 6.07108 7.02486 6.56531
#
# Compressibility (1/GPa) = 0.02807737
#
# Stress axis : x y z
#
# Youngs Moduli (GPa) = 30.46212 48.55379 41.61372
#
# Poissons Ratio (x) = 0.46602 0.12814
# Poissons Ratio (y) = 0.29237 0.49983
# Poissons Ratio (z) = 0.09380 0.58318
#
# Static dielectric constant tensor:
#      x y z
#    x 1.435490 0.000000 0.000000 
#    y 0.000000 1.445000 0.000000 
#    z 0.000000 0.000000 1.422870 
# 
# From -- ./inp_files/16904.got.cif
#   From: 2010.05.17/outbox.cif.g08.bks.cpg/sg71_9_cif.got.tgz:16904.got - 2010.06.03 16:22:01.
