data_PCOD9518420
_publ_section_title
;
Structure prediction by ZEFSAII (Michael W. Deem and Ramdas Pophale) SiO2 
 PCOD9518420
Probable space group: I M M M
;
_chemical_formula_sum "Si O2"
_cell_formula_units_Z 88
_cell_length_a 7.806479
_cell_length_b 18.619477
_cell_length_c 29.611434
_cell_angle_alpha 90.000000
_cell_angle_beta 90.000000
_cell_angle_gamma 90.000000
_cell_volume 4304.097624
_symmetry_space_group_name_H-M "I M M M"
_symmetry_group_IT_number 71
_symmetry_cell_setting 'orthorhombic'
loop_
_space_group_symop_operation_xyz
x,y,z
-x,-y,z
x,-y,-z
-x,y,-z
-x,-y,-z
x,y,-z
-x,y,z
x,-y,z
1/2+x,1/2+y,1/2+z
1/2-x,1/2-y,1/2+z
1/2+x,1/2-y,1/2-z
1/2-x,1/2+y,1/2-z
1/2-x,1/2-y,1/2-z
1/2+x,1/2+y,1/2-z
1/2-x,1/2+y,1/2+z
1/2+x,1/2-y,1/2+z
loop_
_atom_site_type_symbol
_atom_site_label
_atom_site_fract_x
_atom_site_fract_y
_atom_site_fract_z
Si Si1 0.793279 0.142144 0.103036
Si Si2 0.798087 0.419907 0.112094
Si Si3 0.709840 0.500000 0.551715
Si Si4 0.296988 0.176153 0.797761
Si Si5 0.700164 0.340025 0.200356
Si Si6 0.790047 0.712962 0.947545
O O1 0.733093 0.072155 0.076476
O O2 0.740721 0.139001 0.155081
O O3 0.733334 0.215815 0.079340
O O4 0.000000 0.143316 0.101285
O O5 0.724278 0.500000 0.107222
O O6 0.781436 0.391434 0.163314
O O7 0.729128 0.358001 0.078928
O O8 0.000000 0.424628 0.102007
O O9 0.500000 0.500000 0.552314
O O10 0.763864 0.500000 0.500000
O O11 0.500000 0.180726 0.790723
O O12 0.228894 0.258312 0.802426
O O13 0.222157 0.140221 0.752840
O O14 0.500000 0.337405 0.189308
O O15 0.000000 0.713153 0.946734
O O16 0.738873 0.714335 0.000000
#
# Coordination Sequence:
#
# PCOD9518420 Si02
#       6
#    16  16   8  16  16  16
#     4  10  18  32  55  80 109 142 179 222 268 323
#     4  10  20  34  53  79 112 145 180 225 271 316
#     4   9  18  32  53  83 113 141 179 227 272 315
#     4  10  20  34  56  82 108 138 177 224 272 323
#     4  10  20  35  56  80 106 139 180 223 268 323
#     4   9  17  30  52  80 107 139 179 221 266 317
#
# _framework density 20.445633999999998
#
# number of rings (size 3 to 8) (size 9 to 14) (size 15 to 20)
#    0.000    2.273    1.818    1.636    0.000    4.364 
#    1.636    2.273    0.000    4.364    0.000    1.273 
#    0.000    0.000    0.000    0.000    0.000    0.000 
#
# Total GULP energy -245647.074234 kJ/mol
# GULP energy per Si atom -5582.888051 kJ/mol
# Density = 2.039910 g / cm^3
# Si number density = 20.445634 Si / 1000 Ang^3
#
#
#
# Elastic Constant Matrix: (Units=GPa)
#
#
# Indices 1 2 3 4 5 6 
#
# 1 26.6546 4.3630 -11.6661 0.0000 0.0000 0.0000
# 2 4.3630 104.3400 49.3372 0.0000 0.0000 0.0000
# 3 -11.6661 49.3372 135.6966 0.0000 0.0000 0.0000
# 4 0.0000 0.0000 0.0000 25.3198 0.0000 0.0000
# 5 0.0000 0.0000 0.0000 0.0000 18.9211 0.0000
# 6 0.0000 0.0000 0.0000 0.0000 0.0000 3.7009
#
#
#
# Elastic Compliance Matrix: (Units=1/GPa)
#
#
# Indices 1 2 3 4 5 6 
#
# 1 0.040331 -0.004017 0.004928 0.000000 0.000000 0.000000
# 2 -0.004017 0.011974 -0.004699 0.000000 0.000000 0.000000
# 3 0.004928 -0.004699 0.009501 0.000000 0.000000 0.000000
# 4 0.000000 0.000000 0.000000 0.039495 0.000000 0.000000
# 5 0.000000 0.000000 0.000000 0.000000 0.052851 0.000000
# 6 0.000000 0.000000 0.000000 0.000000 0.000000 0.270206
#
#
# Mechanical properties :
#
#
# Convention : Reuss Voigt Hill
#
# Bulk Modulus (GPa) = 18.43956 38.97326 28.70641
# Shear Modulus (GPa) = 11.11085 24.56548 17.83817
#
# Velocity S-wave (km/s) = 2.33370 3.47003 2.95696
# Velocity P-wave (km/s) = 4.03732 5.92943 5.07238
#
# Compressibility (1/GPa) = 0.05423123
#
# Stress axis : x y z
#
# Youngs Moduli (GPa) = 24.79468 83.51544 105.24720
#
# Poissons Ratio (x) = 0.33544 -0.51863
# Poissons Ratio (y) = 0.09959 0.49454
# Poissons Ratio (z) = -0.12218 0.39242
#
# Static dielectric constant tensor:
#      x y z
#    x 1.753510 0.000000 0.000000 
#    y 0.000000 1.727150 0.000000 
#    z 0.000000 0.000000 1.696550 
# 
# From -- ./inp_files/8820.got.cif
#   From: 2010.05.17/outbox.cif.g08.bks.cpg/sg71_5_cif.got.tgz:8820.got - 2010.06.03 16:22:01.
