data_PCOD9518853
_publ_section_title
;
Structure prediction by ZEFSAII (Michael W. Deem and Ramdas Pophale) SiO2 
 PCOD9518853
Probable space group: I M M M
;
_chemical_formula_sum "Si O2"
_cell_formula_units_Z 112
_cell_length_a 23.013578
_cell_length_b 19.674404
_cell_length_c 13.908191
_cell_angle_alpha 90.000000
_cell_angle_beta 90.000000
_cell_angle_gamma 90.000000
_cell_volume 6297.328900
_symmetry_space_group_name_H-M "I M M M"
_symmetry_group_IT_number 71
_symmetry_cell_setting 'orthorhombic'
loop_
_space_group_symop_operation_xyz
x,y,z
-x,-y,z
x,-y,-z
-x,y,-z
-x,-y,-z
x,y,-z
-x,y,z
x,-y,z
1/2+x,1/2+y,1/2+z
1/2-x,1/2-y,1/2+z
1/2+x,1/2-y,1/2-z
1/2-x,1/2+y,1/2-z
1/2-x,1/2-y,1/2-z
1/2+x,1/2+y,1/2-z
1/2-x,1/2+y,1/2+z
1/2+x,1/2-y,1/2+z
loop_
_atom_site_type_symbol
_atom_site_label
_atom_site_fract_x
_atom_site_fract_y
_atom_site_fract_z
Si Si1 0.432264 0.226969 0.812212
Si Si2 0.231545 0.923559 0.278521
Si Si3 0.347852 0.096324 0.608526
Si Si4 0.758446 0.176178 0.887560
Si Si5 0.324062 0.302389 0.111992
Si Si6 0.930533 0.573645 0.717401
Si Si7 0.120892 0.248686 0.107712
O O1 0.500000 0.235228 0.835325
O O2 0.388317 0.273483 0.871316
O O3 0.415538 0.147085 0.828090
O O4 0.421198 0.246496 0.699540
O O5 0.287051 0.926311 0.348215
O O6 0.252557 0.887925 0.180150
O O7 0.188003 0.870001 0.327545
O O8 0.209300 0.000000 0.264016
O O9 0.356829 0.073877 0.500000
O O10 0.398732 0.074873 0.680144
O O11 0.348001 0.178053 0.607292
O O12 0.719585 0.241242 0.857287
O O13 0.826596 0.195796 0.878977
O O14 0.745987 0.163644 0.000000
O O15 0.312705 0.315970 0.000000
O O16 0.915889 0.500000 0.670793
O O17 0.000000 0.575558 0.729383
O O18 0.095012 0.239263 0.000000
#
# Coordination Sequence:
#
# PCOD9518853 Si02
#       7
#    16  16  16  16  16  16  16
#     4  10  20  34  54  78 106 141 184 230 268 312
#     4  12  23  34  53  81 113 142 173 222 277 328
#     4  10  19  30  46  73 106 143 183 216 253 308
#     4  10  19  35  59  81 104 138 176 219 269 323
#     4  11  22  37  57  80 108 144 186 225 265 317
#     4   9  18  31  47  71 106 146 181 216 264 318
#     4   9  16  30  54  79 104 132 170 221 268 315
#
# _framework density 17.785319000000001
#
# number of rings (size 3 to 8) (size 9 to 14) (size 15 to 20)
#    0.000    1.857    2.857    3.000    0.000    3.143 
#    0.000    3.571    0.000    1.714    0.000    3.000 
#    0.000    2.286    0.000    0.000    0.000    0.143 
#
# Total GULP energy -312248.835220 kJ/mol
# GULP energy per Si atom -5575.872058 kJ/mol
# Density = 1.774484 g / cm^3
# Si number density = 17.785319 Si / 1000 Ang^3
#
#
#
# Elastic Constant Matrix: (Units=GPa)
#
#
# Indices 1 2 3 4 5 6 
#
# 1 36.2813 23.8340 4.8303 0.0000 0.0000 0.0000
# 2 23.8340 110.1068 34.2880 0.0000 0.0000 0.0000
# 3 4.8303 34.2880 39.0471 0.0000 0.0000 0.0000
# 4 0.0000 0.0000 0.0000 27.6291 0.0000 0.0000
# 5 0.0000 0.0000 0.0000 0.0000 10.4602 0.0000
# 6 0.0000 0.0000 0.0000 0.0000 0.0000 -1.7438
#
#
#
# Elastic Compliance Matrix: (Units=1/GPa)
#
#
# Indices 1 2 3 4 5 6 
#
# 1 0.032378 -0.007930 0.002958 0.000000 0.000000 0.000000
# 2 -0.007930 0.014442 -0.011701 0.000000 0.000000 0.000000
# 3 0.002958 -0.011701 0.035519 0.000000 0.000000 0.000000
# 4 0.000000 0.000000 0.000000 0.036194 0.000000 0.000000
# 5 0.000000 0.000000 0.000000 0.000000 0.095601 0.000000
# 6 0.000000 0.000000 0.000000 0.000000 0.000000 -0.573465
#
#
# Mechanical properties :
#
#
# Convention : Reuss Voigt Hill
#
# Bulk Modulus (GPa) = 20.41084 34.59329 27.50206
# Shear Modulus (GPa) = -16.14708 15.43462 -0.35623
#
# Velocity S-wave (km/s) = -3.01639 2.94909 -0.44803
# Velocity P-wave (km/s) = 0.79392 5.57574 3.90247
#
# Compressibility (1/GPa) = 0.04899358
#
# Stress axis : x y z
#
# Youngs Moduli (GPa) = 30.88534 69.24050 28.15372
#
# Poissons Ratio (x) = 0.54906 -0.08328
# Poissons Ratio (y) = 0.24491 0.32943
# Poissons Ratio (z) = -0.09136 0.81020
#
# Static dielectric constant tensor:
#      x y z
#    x 1.591140 0.000000 0.000000 
#    y 0.000000 1.641260 0.000000 
#    z 0.000000 0.000000 1.634300 
# 
# From -- ./inp_files/40369.got.cif
#   From: 2010.05.17/outbox.cif.g08.bks.cpg/sg71_21_cif.got.tgz:40369.got - 2010.06.03 16:22:01.
