data_PCOD9518368
_publ_section_title
;
Structure prediction by ZEFSAII (Michael W. Deem and Ramdas Pophale) SiO2 
 PCOD9518368
Probable space group: I M M M
;
_chemical_formula_sum "Si O2"
_cell_formula_units_Z 56
_cell_length_a 9.834709
_cell_length_b 27.076312
_cell_length_c 13.556098
_cell_angle_alpha 90.000000
_cell_angle_beta 90.000000
_cell_angle_gamma 90.000000
_cell_volume 3609.821470
_symmetry_space_group_name_H-M "I M M M"
_symmetry_group_IT_number 71
_symmetry_cell_setting 'orthorhombic'
loop_
_space_group_symop_operation_xyz
x,y,z
-x,-y,z
x,-y,-z
-x,y,-z
-x,-y,-z
x,y,-z
-x,y,z
x,-y,z
1/2+x,1/2+y,1/2+z
1/2-x,1/2-y,1/2+z
1/2+x,1/2-y,1/2-z
1/2-x,1/2+y,1/2-z
1/2-x,1/2-y,1/2-z
1/2+x,1/2+y,1/2-z
1/2-x,1/2+y,1/2+z
1/2+x,1/2-y,1/2+z
loop_
_atom_site_type_symbol
_atom_site_label
_atom_site_fract_x
_atom_site_fract_y
_atom_site_fract_z
Si Si1 0.781415 0.152178 0.275223
Si Si2 0.000000 0.812881 0.117165
Si Si3 0.164476 0.942763 0.386528
Si Si4 0.500000 0.209613 0.720805
Si Si5 0.000000 0.211437 0.388635
O O1 0.777867 0.095097 0.306502
O O2 0.634731 0.176881 0.278552
O O3 0.868693 0.164525 0.175930
O O4 0.870729 0.178667 0.359848
O O5 0.000000 0.753671 0.139156
O O6 0.000000 0.822158 0.000000
O O7 0.203553 0.930200 0.500000
O O8 0.000000 0.939350 0.381851
O O9 0.201029 0.000000 0.369305
O O10 0.500000 0.241101 0.820593
O O11 0.000000 0.225705 0.500000
#
# Coordination Sequence:
#
# PCOD9518368 Si02
#       5
#    16   8  16   8   8
#     4  10  19  33  49  71 100 127 159 197 240 286
#     4  10  20  34  50  70  96 130 168 201 227 271
#     4   9  16  29  52  76  94 119 158 200 240 282
#     4  10  22  32  45  71 102 133 158 191 241 287
#     4  10  18  32  52  69  91 127 170 202 230 278
#
# _framework density 15.513233
#
# number of rings (size 3 to 8) (size 9 to 14) (size 15 to 20)
#    0.000    2.571    2.857    5.143    0.000    5.714 
#    0.000    0.714    0.000    3.429    0.000    0.000 
#    0.000    3.429    0.000    0.000    0.000    0.000 
#
# Total GULP energy -155949.211142 kJ/mol
# GULP energy per Si atom -5569.614684 kJ/mol
# Density = 1.547792 g / cm^3
# Si number density = 15.513233 Si / 1000 Ang^3
#
#
#
# Elastic Constant Matrix: (Units=GPa)
#
#
# Indices 1 2 3 4 5 6 
#
# 1 85.9897 42.9448 15.3065 0.0000 0.0000 0.0000
# 2 42.9448 111.2300 51.5617 0.0001 0.0000 0.0000
# 3 15.3065 51.5617 74.4398 0.0003 0.0001 0.0000
# 4 0.0000 0.0001 0.0003 3.0944 0.0000 0.0000
# 5 0.0000 0.0000 0.0001 0.0000 -6.1019 0.0000
# 6 0.0000 0.0000 0.0000 0.0000 0.0000 -9.3790
#
#
#
# Elastic Compliance Matrix: (Units=1/GPa)
#
#
# Indices 1 2 3 4 5 6 
#
# 1 0.014495 -0.006208 0.001320 0.000000 0.000000 0.000000
# 2 -0.006208 0.015901 -0.009738 0.000001 0.000000 0.000000
# 3 0.001320 -0.009738 0.019907 -0.000002 0.000000 0.000000
# 4 0.000000 0.000001 -0.000002 0.323167 0.000001 -0.000001
# 5 0.000000 0.000000 0.000000 0.000001 -0.163885 0.000000
# 6 0.000000 0.000000 0.000000 -0.000001 0.000000 -0.106621
#
#
# Mechanical properties :
#
#
# Convention : Reuss Voigt Hill
#
# Bulk Modulus (GPa) = 47.50345 54.58727 51.04536
# Shear Modulus (GPa) = 35.91082 8.31246 22.11164
#
# Velocity S-wave (km/s) = 4.81651 2.31731 3.77946
# Velocity P-wave (km/s) = 7.84980 6.51336 7.21260
#
# Compressibility (1/GPa) = 0.02105110
#
# Stress axis : x y z
#
# Youngs Moduli (GPa) = 68.99024 62.88820 50.23287
#
# Poissons Ratio (x) = 0.39041 -0.06629
# Poissons Ratio (y) = 0.42829 0.48915
# Poissons Ratio (z) = -0.09104 0.61239
#
# Static dielectric constant tensor:
#      x y z
#    x 1.490110 0.000000 0.000000 
#    y 0.000000 1.550650 0.000000 
#    z 0.000000 0.000000 1.510970 
# 
# From -- ./inp_files/14159.got.cif
#   From: 2010.05.17/outbox.cif.g08.bks.cpg/sg71_8_cif.got.tgz:14159.got - 2010.06.03 16:22:01.
