data_PCOD9518416
_publ_section_title
;
Structure prediction by ZEFSAII (Michael W. Deem and Ramdas Pophale) SiO2 
 PCOD9518416
Probable space group: I M M M
;
_chemical_formula_sum "Si O2"
_cell_formula_units_Z 120
_cell_length_a 33.616001
_cell_length_b 14.813317
_cell_length_c 14.391786
_cell_angle_alpha 90.000000
_cell_angle_beta 90.000000
_cell_angle_gamma 90.000000
_cell_volume 7166.598219
_symmetry_space_group_name_H-M "I M M M"
_symmetry_group_IT_number 71
_symmetry_cell_setting 'orthorhombic'
loop_
_space_group_symop_operation_xyz
x,y,z
-x,-y,z
x,-y,-z
-x,y,-z
-x,-y,-z
x,y,-z
-x,y,z
x,-y,z
1/2+x,1/2+y,1/2+z
1/2-x,1/2-y,1/2+z
1/2+x,1/2-y,1/2-z
1/2-x,1/2+y,1/2-z
1/2-x,1/2-y,1/2-z
1/2+x,1/2+y,1/2-z
1/2-x,1/2+y,1/2+z
1/2+x,1/2-y,1/2+z
loop_
_atom_site_type_symbol
_atom_site_label
_atom_site_fract_x
_atom_site_fract_y
_atom_site_fract_z
Si Si1 0.383101 0.390147 0.106313
Si Si2 0.045206 0.891608 0.741452
Si Si3 0.804371 0.108011 0.719215
Si Si4 0.045684 0.396236 0.778467
Si Si5 0.674694 0.278618 0.393325
Si Si6 0.223525 0.397060 0.889949
Si Si7 0.500000 0.110121 0.894546
Si Si8 0.419702 0.264716 0.608318
O O1 0.382661 0.500000 0.103894
O O2 0.421962 0.364227 0.165282
O O3 0.342781 0.362202 0.159000
O O4 0.384214 0.358416 0.000000
O O5 0.056302 0.841377 0.836475
O O6 0.000000 0.868529 0.713936
O O7 0.047598 0.000000 0.752751
O O8 0.806070 0.155981 0.818140
O O9 0.763468 0.126919 0.665561
O O10 0.807311 0.000000 0.730306
O O11 0.059491 0.500000 0.780736
O O12 0.037854 0.366405 0.670959
O O13 0.071285 0.328018 0.837743
O O14 0.000000 0.394619 0.815828
O O15 0.685778 0.300118 0.500000
O O16 0.689744 0.177050 0.373685
O O17 0.627168 0.284926 0.385825
O O18 0.211813 0.500000 0.865998
O O19 0.232780 0.395976 0.000000
O O20 0.500000 0.000000 0.896660
O O21 0.500000 0.143313 0.000000
O O22 0.430729 0.258787 0.500000
#
# Coordination Sequence:
#
# PCOD9518416 Si02
#       8
#    16  16  16  16  16  16   8  16
#     4   9  17  31  52  76 100 129 165 209 262 311
#     4  10  21  36  52  71 100 136 176 221 263 311
#     4  10  18  32  55  78 104 135 167 207 250 302
#     4   8  17  32  51  75  98 124 167 218 263 310
#     4  10  21  34  50  74 105 138 171 211 252 298
#     4   9  18  33  54  81 107 132 166 205 250 304
#     4   7  12  28  53  75  96 121 153 205 267 315
#     4  11  22  35  51  70 102 142 176 216 260 303
#
# _framework density 16.744344999999999
#
# number of rings (size 3 to 8) (size 9 to 14) (size 15 to 20)
#    0.400    2.200    1.333    1.200    0.000    4.267 
#    0.000    6.000    0.000    0.000    0.000    0.000 
#    0.000    0.000    0.000    0.000    0.000    0.000 
#
# Total GULP energy -334185.243773 kJ/mol
# GULP energy per Si atom -5569.754063 kJ/mol
# Density = 1.670623 g / cm^3
# Si number density = 16.744345 Si / 1000 Ang^3
#
#
#
# Elastic Constant Matrix: (Units=GPa)
#
#
# Indices 1 2 3 4 5 6 
#
# 1 30.4672 2.7810 1.5032 0.0000 0.0000 0.0000
# 2 2.7810 21.7109 13.3089 0.0000 0.0000 0.0000
# 3 1.5032 13.3089 74.3075 0.0000 0.0000 0.0000
# 4 0.0000 0.0000 0.0000 22.7102 0.0000 0.0000
# 5 0.0000 0.0000 0.0000 0.0000 25.4933 0.0000
# 6 0.0000 0.0000 0.0000 0.0000 0.0000 23.3382
#
#
#
# Elastic Compliance Matrix: (Units=1/GPa)
#
#
# Indices 1 2 3 4 5 6 
#
# 1 0.033211 -0.004316 0.000101 0.000000 0.000000 0.000000
# 2 -0.004316 0.052301 -0.009280 0.000000 0.000000 0.000000
# 3 0.000101 -0.009280 0.015118 0.000000 0.000000 0.000000
# 4 0.000000 0.000000 0.000000 0.044033 0.000000 0.000000
# 5 0.000000 0.000000 0.000000 0.000000 0.039226 0.000000
# 6 0.000000 0.000000 0.000000 0.000000 0.000000 0.042848
#
#
# Mechanical properties :
#
#
# Convention : Reuss Voigt Hill
#
# Bulk Modulus (GPa) = 13.57957 17.96352 15.77154
# Shear Modulus (GPa) = 17.96788 21.56784 19.76786
#
# Velocity S-wave (km/s) = 3.27933 3.59286 3.43967
# Velocity P-wave (km/s) = 4.73986 5.28800 5.02141
#
# Compressibility (1/GPa) = 0.07364004
#
# Stress axis : x y z
#
# Youngs Moduli (GPa) = 30.11038 19.11997 66.14774
#
# Poissons Ratio (x) = 0.08252 -0.00669
# Poissons Ratio (y) = 0.12996 0.61386
# Poissons Ratio (z) = -0.00305 0.17744
#
# Static dielectric constant tensor:
#      x y z
#    x 1.556470 0.000000 0.000000 
#    y 0.000000 1.570930 0.000000 
#    z 0.000000 0.000000 1.562490 
# 
# From -- ./inp_files/41169.got.cif
#   From: 2010.05.17/outbox.cif.g08.bks.cpg/sg71_21_cif.got.tgz:41169.got - 2010.06.03 16:22:01.
