data_PCOD9518793
_publ_section_title
;
Structure prediction by ZEFSAII (Michael W. Deem and Ramdas Pophale) SiO2 
 PCOD9518793
Probable space group: I M M M
;
_chemical_formula_sum "Si O2"
_cell_formula_units_Z 72
_cell_length_a 34.607346
_cell_length_b 9.055031
_cell_length_c 14.593335
_cell_angle_alpha 90.000000
_cell_angle_beta 90.000000
_cell_angle_gamma 90.000000
_cell_volume 4573.122012
_symmetry_space_group_name_H-M "I M M M"
_symmetry_group_IT_number 71
_symmetry_cell_setting 'orthorhombic'
loop_
_space_group_symop_operation_xyz
x,y,z
-x,-y,z
x,-y,-z
-x,y,-z
-x,-y,-z
x,y,-z
-x,y,z
x,-y,z
1/2+x,1/2+y,1/2+z
1/2-x,1/2-y,1/2+z
1/2+x,1/2-y,1/2-z
1/2-x,1/2+y,1/2-z
1/2-x,1/2-y,1/2-z
1/2+x,1/2+y,1/2-z
1/2-x,1/2+y,1/2+z
1/2+x,1/2-y,1/2+z
loop_
_atom_site_type_symbol
_atom_site_label
_atom_site_fract_x
_atom_site_fract_y
_atom_site_fract_z
Si Si1 0.190240 0.177583 0.104470
Si Si2 0.849257 0.821765 0.714297
Si Si3 0.580070 0.823492 0.891618
Si Si4 0.000000 0.830299 0.388882
Si Si5 0.270994 0.326141 0.891083
O O1 0.158514 0.219123 0.179872
O O2 0.232162 0.238985 0.133027
O O3 0.192527 0.000000 0.104507
O O4 0.182507 0.227245 0.000000
O O5 0.885272 0.743817 0.667210
O O6 0.809659 0.781272 0.661444
O O7 0.853784 0.000000 0.707379
O O8 0.539190 0.753142 0.862265
O O9 0.578607 0.000000 0.883108
O O10 0.586059 0.788432 0.000000
O O11 0.000000 0.831241 0.500000
O O12 0.000000 0.000000 0.357515
O O13 0.264586 0.500000 0.873165
O O14 0.277278 0.307075 0.000000
#
# Coordination Sequence:
#
# PCOD9518793 Si02
#       5
#    16  16  16   8  16
#     4   9  18  31  45  62  86 118 157 198 235 269
#     4  10  19  30  45  65  90 121 155 190 228 271
#     4  10  20  32  47  70  98 123 148 181 219 261
#     4   9  17  31  51  71  94 125 152 173 207 262
#     4   9  17  28  42  61  86 117 153 192 232 274
#
# _framework density 15.744168
#
# number of rings (size 3 to 8) (size 9 to 14) (size 15 to 20)
#    0.000    2.556    0.000    2.333    0.000    5.333 
#    0.000    2.222    0.000    0.000    0.000    0.778 
#    0.000    6.222    0.000    0.000    0.000    0.000 
#
# Total GULP energy -200743.397191 kJ/mol
# GULP energy per Si atom -5576.205478 kJ/mol
# Density = 1.570833 g / cm^3
# Si number density = 15.744168 Si / 1000 Ang^3
#
#
#
# Elastic Constant Matrix: (Units=GPa)
#
#
# Indices 1 2 3 4 5 6 
#
# 1 136.4037 54.1891 80.8344 0.0000 0.0000 0.0000
# 2 54.1891 39.5242 41.9824 0.0000 0.0000 0.0000
# 3 80.8344 41.9824 74.0814 0.0000 0.0000 0.0000
# 4 0.0000 0.0000 0.0000 16.0662 0.0000 0.0000
# 5 0.0000 0.0000 0.0000 0.0000 23.5746 0.0000
# 6 0.0000 0.0000 0.0000 0.0000 0.0000 31.8546
#
#
#
# Elastic Compliance Matrix: (Units=1/GPa)
#
#
# Indices 1 2 3 4 5 6 
#
# 1 0.022864 -0.012178 -0.018047 0.000000 0.000000 0.000000
# 2 -0.012178 0.070049 -0.026409 0.000000 0.000000 0.000000
# 3 -0.018047 -0.026409 0.048156 0.000000 0.000000 0.000000
# 4 0.000000 0.000000 0.000000 0.062242 0.000000 0.000000
# 5 0.000000 0.000000 0.000000 0.000000 0.042419 0.000000
# 6 0.000000 0.000000 0.000000 0.000000 0.000000 0.031393
#
#
# Mechanical properties :
#
#
# Convention : Reuss Voigt Hill
#
# Bulk Modulus (GPa) = 35.96869 67.11344 51.54106
# Shear Modulus (GPa) = 12.51071 19.16598 15.83834
#
# Velocity S-wave (km/s) = 2.82197 3.49282 3.17516
# Velocity P-wave (km/s) = 5.78907 7.68026 6.80073
#
# Compressibility (1/GPa) = 0.02780196
#
# Stress axis : x y z
#
# Youngs Moduli (GPa) = 43.73735 14.27567 20.76566
#
# Poissons Ratio (x) = 0.17385 0.37475
# Poissons Ratio (y) = 0.53264 0.54840
# Poissons Ratio (z) = 0.78931 0.37701
#
# Static dielectric constant tensor:
#      x y z
#    x 1.491060 0.000000 0.000000 
#    y 0.000000 1.527630 0.000000 
#    z 0.000000 0.000000 1.543970 
# 
# From -- ./inp_files/6031.got.cif
#   From: 2010.05.17/outbox.cif.g08.bks.cpg/sg71_4_cif.got.tgz:6031.got - 2010.06.03 16:22:01.
