data_PCOD9518349
_publ_section_title
;
Structure prediction by ZEFSAII (Michael W. Deem and Ramdas Pophale) SiO2 
 PCOD9518349
Probable space group: I M M M
;
_chemical_formula_sum "Si O2"
_cell_formula_units_Z 84
_cell_length_a 15.456383
_cell_length_b 12.030714
_cell_length_c 28.167785
_cell_angle_alpha 90.000000
_cell_angle_beta 90.000000
_cell_angle_gamma 90.000000
_cell_volume 5237.836897
_symmetry_space_group_name_H-M "I M M M"
_symmetry_group_IT_number 71
_symmetry_cell_setting 'orthorhombic'
loop_
_space_group_symop_operation_xyz
x,y,z
-x,-y,z
x,-y,-z
-x,y,-z
-x,-y,-z
x,y,-z
-x,y,z
x,-y,z
1/2+x,1/2+y,1/2+z
1/2-x,1/2-y,1/2+z
1/2+x,1/2-y,1/2-z
1/2-x,1/2+y,1/2-z
1/2-x,1/2-y,1/2-z
1/2+x,1/2+y,1/2-z
1/2-x,1/2+y,1/2+z
1/2+x,1/2-y,1/2+z
loop_
_atom_site_type_symbol
_atom_site_label
_atom_site_fract_x
_atom_site_fract_y
_atom_site_fract_z
Si Si1 0.000000 0.789859 0.056462
Si Si2 0.099626 0.000000 0.220664
Si Si3 0.500000 0.500000 0.626896
Si Si4 0.397526 0.705860 0.783466
Si Si5 0.337445 0.128201 0.444477
Si Si6 0.403908 0.132541 0.297179
Si Si7 0.764006 0.867162 0.643243
O O1 0.000000 0.892693 0.092794
O O2 0.083721 0.711906 0.064154
O O3 0.000000 0.823078 0.000000
O O4 0.134797 0.110732 0.245796
O O5 0.082846 0.000000 0.163783
O O6 0.000000 0.000000 0.237189
O O7 0.500000 0.693701 0.793097
O O8 0.386147 0.819724 0.754889
O O9 0.341633 0.693524 0.830494
O O10 0.316920 0.131882 0.500000
O O11 0.255428 0.154533 0.411709
O O12 0.364051 0.000000 0.432733
O O13 0.500000 0.175473 0.311418
O O14 0.326141 0.165177 0.331309
O O15 0.406924 0.000000 0.296975
O O16 0.777405 0.000000 0.649622
#
# Coordination Sequence:
#
# PCOD9518349 Si02
#       7
#     8   8   4  16  16  16  16
#     4  10  20  34  51  69  98 132 168 202 240 291
#     4   8  18  29  44  66  90 125 153 192 227 275
#     4  10  21  32  48  72  98 136 167 196 238 284
#     4  10  18  32  49  66  96 126 160 196 236 285
#     4   9  19  33  50  72  94 121 159 207 250 285
#     4   9  19  31  44  67  97 126 155 195 234 278
#     4  10  19  29  48  71  92 125 159 195 238 290
#
# _framework density 16.037154000000001
#
# number of rings (size 3 to 8) (size 9 to 14) (size 15 to 20)
#    0.286    2.286    0.952    1.000    4.000    1.143 
#    0.000    0.000    0.000    0.571    0.000    2.667 
#    0.000    0.000    0.000    4.762    0.000    0.000 
#
# Total GULP energy -233812.351712 kJ/mol
# GULP energy per Si atom -5566.960755 kJ/mol
# Density = 1.600065 g / cm^3
# Si number density = 16.037154 Si / 1000 Ang^3
#
#
#
# Elastic Constant Matrix: (Units=GPa)
#
#
# Indices 1 2 3 4 5 6 
#
# 1 49.3599 18.9365 38.9288 0.0000 0.0000 0.0000
# 2 18.9365 30.4561 33.9039 0.0000 0.0000 0.0000
# 3 38.9288 33.9039 88.1836 0.0000 0.0000 0.0000
# 4 0.0000 0.0000 0.0000 18.5196 0.0000 0.0000
# 5 0.0000 0.0000 0.0000 0.0000 29.1236 0.0000
# 6 0.0000 0.0000 0.0000 0.0000 0.0000 15.1722
#
#
#
# Elastic Compliance Matrix: (Units=1/GPa)
#
#
# Indices 1 2 3 4 5 6 
#
# 1 0.031979 -0.007287 -0.011316 0.000000 0.000000 0.000000
# 2 -0.007287 0.059062 -0.019491 0.000000 0.000000 0.000000
# 3 -0.011316 -0.019491 0.023829 0.000000 0.000000 0.000000
# 4 0.000000 0.000000 0.000000 0.053997 0.000000 0.000000
# 5 0.000000 0.000000 0.000000 0.000000 0.034336 0.000000
# 6 0.000000 0.000000 0.000000 0.000000 0.000000 0.065910
#
#
# Mechanical properties :
#
#
# Convention : Reuss Voigt Hill
#
# Bulk Modulus (GPa) = 25.85071 39.05977 32.45524
# Shear Modulus (GPa) = 13.95886 17.64509 15.80198
#
# Velocity S-wave (km/s) = 2.95347 3.32062 3.14241
# Velocity P-wave (km/s) = 5.27114 6.25385 5.78341
#
# Compressibility (1/GPa) = 0.03868366
#
# Stress axis : x y z
#
# Youngs Moduli (GPa) = 31.27022 16.93130 41.96568
#
# Poissons Ratio (x) = 0.12337 0.47487
# Poissons Ratio (y) = 0.22786 0.81795
# Poissons Ratio (z) = 0.35385 0.33001
#
# Static dielectric constant tensor:
#      x y z
#    x 1.537510 0.000000 0.000000 
#    y 0.000000 1.570300 0.000000 
#    z 0.000000 0.000000 1.557640 
# 
# From -- ./inp_files/69861.got.cif
#   From: 2010.05.17/outbox.cif.g08.bks.cpg/sg71_35_cif.got.tgz:69861.got - 2010.06.03 16:22:01.
