data_PCOD9518912
_publ_section_title
;
Structure prediction by ZEFSAII (Michael W. Deem and Ramdas Pophale) SiO2 
 PCOD9518912
Probable space group: I M M M
;
_chemical_formula_sum "Si O2"
_cell_formula_units_Z 88
_cell_length_a 26.215955
_cell_length_b 20.652763
_cell_length_c 7.379015
_cell_angle_alpha 90.000000
_cell_angle_beta 90.000000
_cell_angle_gamma 90.000000
_cell_volume 3995.234152
_symmetry_space_group_name_H-M "I M M M"
_symmetry_group_IT_number 71
_symmetry_cell_setting 'orthorhombic'
loop_
_space_group_symop_operation_xyz
x,y,z
-x,-y,z
x,-y,-z
-x,y,-z
-x,-y,-z
x,y,-z
-x,y,z
x,-y,z
1/2+x,1/2+y,1/2+z
1/2-x,1/2-y,1/2+z
1/2+x,1/2-y,1/2-z
1/2-x,1/2+y,1/2-z
1/2-x,1/2-y,1/2-z
1/2+x,1/2+y,1/2-z
1/2-x,1/2+y,1/2+z
1/2+x,1/2-y,1/2+z
loop_
_atom_site_type_symbol
_atom_site_label
_atom_site_fract_x
_atom_site_fract_y
_atom_site_fract_z
Si Si1 0.410343 0.673563 0.706703
Si Si2 0.500000 0.577033 0.721657
Si Si3 0.204042 0.801460 0.783140
Si Si4 0.256668 0.069616 0.220371
Si Si5 0.944132 0.313558 0.717767
Si Si6 0.125378 0.570952 0.279165
O O1 0.400166 0.652047 0.500000
O O2 0.449145 0.618135 0.780963
O O3 0.354844 0.696435 0.785035
O O4 0.439606 0.741706 0.706983
O O5 0.500000 0.500000 0.771952
O O6 0.500000 0.579097 0.500000
O O7 0.250000 0.750000 0.750000
O O8 0.225977 0.869401 0.716555
O O9 0.199538 0.799489 0.000000
O O10 0.315595 0.074492 0.273653
O O11 0.236184 0.000000 0.277616
O O12 0.256028 0.071064 0.000000
O O13 0.938778 0.307493 0.500000
O O14 0.903483 0.365562 0.784689
O O15 0.000000 0.340367 0.756296
O O16 0.123546 0.571852 0.500000
O O17 0.105358 0.500000 0.223553
#
# Coordination Sequence:
#
# PCOD9518912 Si02
#       6
#    16   8  16  16  16  16
#     4  10  20  34  52  74 102 135 169 208 258 310
#     4   9  18  34  55  77 102 135 176 222 267 311
#     4  10  20  32  50  77 104 133 169 208 254 307
#     4   8  14  26  44  66  93 123 156 196 240 285
#     4  10  19  30  48  72  97 129 166 203 246 294
#     4   8  14  25  42  66  96 127 157 194 240 284
#
# _framework density 22.026242
#
# number of rings (size 3 to 8) (size 9 to 14) (size 15 to 20)
#    0.000    2.818    0.909    2.182    0.000    3.273 
#    0.000    5.455    0.000    2.182    0.000    8.909 
#    0.000    0.000    0.000    0.000    0.000    0.000 
#
# Total GULP energy -245052.927483 kJ/mol
# GULP energy per Si atom -5569.384716 kJ/mol
# Density = 2.197611 g / cm^3
# Si number density = 22.026242 Si / 1000 Ang^3
#
#
#
# Elastic Constant Matrix: (Units=GPa)
#
#
# Indices 1 2 3 4 5 6 
#
# 1 132.9655 70.9441 9.9885 0.0000 0.0000 0.0000
# 2 70.9441 128.1076 -2.3379 0.0000 0.0000 0.0000
# 3 9.9885 -2.3379 73.9383 0.0000 0.0000 0.0000
# 4 0.0000 0.0000 0.0000 4.9940 0.0000 0.0000
# 5 0.0000 0.0000 0.0000 0.0000 3.3167 0.0000
# 6 0.0000 0.0000 0.0000 0.0000 0.0000 42.4364
#
#
#
# Elastic Compliance Matrix: (Units=1/GPa)
#
#
# Indices 1 2 3 4 5 6 
#
# 1 0.010875 -0.006053 -0.001660 0.000000 0.000000 0.000000
# 2 -0.006053 0.011179 0.001171 0.000000 0.000000 0.000000
# 3 -0.001660 0.001171 0.013786 0.000000 0.000000 0.000000
# 4 0.000000 0.000000 0.000000 0.200241 0.000000 0.000000
# 5 0.000000 0.000000 0.000000 0.000000 0.301503 0.000000
# 6 0.000000 0.000000 0.000000 0.000000 0.000000 0.023565
#
#
# Mechanical properties :
#
#
# Convention : Reuss Voigt Hill
#
# Bulk Modulus (GPa) = 43.94405 54.68897 49.31651
# Shear Modulus (GPa) = 8.59375 27.24388 17.91882
#
# Velocity S-wave (km/s) = 1.97739 3.52075 2.85532
# Velocity P-wave (km/s) = 5.02071 6.43510 5.77139
#
# Compressibility (1/GPa) = 0.02275621
#
# Stress axis : x y z
#
# Youngs Moduli (GPa) = 91.95491 89.45197 72.53663
#
# Poissons Ratio (x) = 0.54142 0.12045
# Poissons Ratio (y) = 0.55657 -0.08495
# Poissons Ratio (z) = 0.15269 -0.10476
#
# Static dielectric constant tensor:
#      x y z
#    x 1.835170 0.000000 0.000000 
#    y 0.000000 1.781830 0.000000 
#    z 0.000000 0.000000 1.903430 
# 
# From -- ./inp_files/12568.got.cif
#   From: 2010.05.17/outbox.cif.g08.bks.cpg/sg71_7_cif.got.tgz:12568.got - 2010.06.03 16:22:01.
