data_PCOD9518170
_publ_section_title
;
Structure prediction by ZEFSAII (Michael W. Deem and Ramdas Pophale) SiO2 
 PCOD9518170
Probable space group: I M M M
;
_chemical_formula_sum "Si O2"
_cell_formula_units_Z 88
_cell_length_a 9.172699
_cell_length_b 20.040117
_cell_length_c 27.853854
_cell_angle_alpha 90.000000
_cell_angle_beta 90.000000
_cell_angle_gamma 90.000000
_cell_volume 5120.150068
_symmetry_space_group_name_H-M "I M M M"
_symmetry_group_IT_number 71
_symmetry_cell_setting 'orthorhombic'
loop_
_space_group_symop_operation_xyz
x,y,z
-x,-y,z
x,-y,-z
-x,y,-z
-x,-y,-z
x,y,-z
-x,y,z
x,-y,z
1/2+x,1/2+y,1/2+z
1/2-x,1/2-y,1/2+z
1/2+x,1/2-y,1/2-z
1/2-x,1/2+y,1/2-z
1/2-x,1/2-y,1/2-z
1/2+x,1/2+y,1/2-z
1/2-x,1/2+y,1/2+z
1/2+x,1/2-y,1/2+z
loop_
_atom_site_type_symbol
_atom_site_label
_atom_site_fract_x
_atom_site_fract_y
_atom_site_fract_z
Si Si1 0.835514 0.000000 0.398487
Si Si2 0.666882 0.500000 0.680108
Si Si3 0.676615 0.861458 0.171715
Si Si4 0.254814 0.500000 0.790119
Si Si5 0.832847 0.350155 0.779031
Si Si6 0.176368 0.262811 0.131393
Si Si7 0.325483 0.126018 0.443985
O O1 0.837046 0.000000 0.340607
O O2 0.752869 0.934985 0.417707
O O3 0.000000 0.000000 0.416696
O O4 0.500000 0.500000 0.663317
O O5 0.754514 0.565734 0.664346
O O6 0.665069 0.500000 0.738684
O O7 0.500000 0.864415 0.171057
O O8 0.729237 0.840263 0.225740
O O9 0.741095 0.806870 0.135896
O O10 0.170944 0.570564 0.789496
O O11 0.771324 0.308530 0.823395
O O12 0.000000 0.329072 0.775688
O O13 0.208045 0.305717 0.084006
O O14 0.000000 0.253681 0.133934
O O15 0.286706 0.128141 0.500000
O O16 0.500000 0.115585 0.440189
#
# Coordination Sequence:
#
# PCOD9518170 Si02
#       7
#     8   8  16   8  16  16  16
#     4  12  23  34  51  76 105 137 178 226 271 306
#     4  10  20  35  53  74 104 139 174 211 246 297
#     4  10  20  33  50  76 105 134 166 206 255 309
#     4  10  18  31  47  73 102 142 180 218 255 299
#     4   9  17  29  48  72 100 135 176 215 251 297
#     4  10  19  33  52  74  99 132 172 213 258 308
#     4  10  22  39  57  75  98 135 182 225 262 305
#
# _framework density 17.186996000000001
#
# number of rings (size 3 to 8) (size 9 to 14) (size 15 to 20)
#    0.000    2.000    1.818    2.455    0.000    5.091 
#    0.000    0.909    0.000    0.000    0.000    0.636 
#    0.000    5.091    0.000    0.000    0.000    0.000 
#
# Total GULP energy -245260.861395 kJ/mol
# GULP energy per Si atom -5574.110486 kJ/mol
# Density = 1.714788 g / cm^3
# Si number density = 17.186996 Si / 1000 Ang^3
#
#
#
# Elastic Constant Matrix: (Units=GPa)
#
#
# Indices 1 2 3 4 5 6 
#
# 1 54.5550 44.8358 32.2511 0.0000 0.0000 0.0000
# 2 44.8358 123.6502 51.5387 0.0000 0.0000 0.0000
# 3 32.2511 51.5387 63.0070 0.0000 0.0000 0.0000
# 4 0.0000 0.0000 0.0000 16.5544 0.0000 0.0000
# 5 0.0000 0.0000 0.0000 0.0000 8.6290 0.0000
# 6 0.0000 0.0000 0.0000 0.0000 0.0000 23.7161
#
#
#
# Elastic Compliance Matrix: (Units=1/GPa)
#
#
# Indices 1 2 3 4 5 6 
#
# 1 0.029527 -0.006687 -0.009644 0.000000 0.000000 0.000000
# 2 -0.006687 0.013785 -0.007854 0.000000 0.000000 0.000000
# 3 -0.009644 -0.007854 0.027232 0.000000 0.000000 0.000000
# 4 0.000000 0.000000 0.000000 0.060407 0.000000 0.000000
# 5 0.000000 0.000000 0.000000 0.000000 0.115888 0.000000
# 6 0.000000 0.000000 0.000000 0.000000 0.000000 0.042165
#
#
# Mechanical properties :
#
#
# Convention : Reuss Voigt Hill
#
# Bulk Modulus (GPa) = 45.09523 55.38479 50.24001
# Shear Modulus (GPa) = 14.50262 17.28567 15.89414
#
# Velocity S-wave (km/s) = 2.90800 3.17478 3.04431
# Velocity P-wave (km/s) = 6.12946 6.76267 6.45384
#
# Compressibility (1/GPa) = 0.02217530
#
# Stress axis : x y z
#
# Youngs Moduli (GPa) = 33.86741 72.54066 36.72172
#
# Poissons Ratio (x) = 0.48506 0.35415
# Poissons Ratio (y) = 0.22646 0.28839
# Poissons Ratio (z) = 0.32662 0.56970
#
# Static dielectric constant tensor:
#      x y z
#    x 1.591160 0.000000 0.000000 
#    y 0.000000 1.575680 0.000000 
#    z 0.000000 0.000000 1.586220 
# 
# From -- ./inp_files/68070.got.cif
#   From: 2010.05.17/outbox.cif.g08.bks.cpg/sg71_35_cif.got.tgz:68070.got - 2010.06.03 16:22:01.
