data_PCOD9518316
_publ_section_title
;
Structure prediction by ZEFSAII (Michael W. Deem and Ramdas Pophale) SiO2 
 PCOD9518316
Probable space group: I M M M
;
_chemical_formula_sum "Si O2"
_cell_formula_units_Z 88
_cell_length_a 28.398270
_cell_length_b 10.942441
_cell_length_c 15.894875
_cell_angle_alpha 90.000000
_cell_angle_beta 90.000000
_cell_angle_gamma 90.000000
_cell_volume 4939.275089
_symmetry_space_group_name_H-M "I M M M"
_symmetry_group_IT_number 71
_symmetry_cell_setting 'orthorhombic'
loop_
_space_group_symop_operation_xyz
x,y,z
-x,-y,z
x,-y,-z
-x,y,-z
-x,-y,-z
x,y,-z
-x,y,z
x,-y,z
1/2+x,1/2+y,1/2+z
1/2-x,1/2-y,1/2+z
1/2+x,1/2-y,1/2-z
1/2-x,1/2+y,1/2-z
1/2-x,1/2-y,1/2-z
1/2+x,1/2+y,1/2-z
1/2-x,1/2+y,1/2+z
1/2+x,1/2-y,1/2+z
loop_
_atom_site_type_symbol
_atom_site_label
_atom_site_fract_x
_atom_site_fract_y
_atom_site_fract_z
Si Si1 0.146315 0.144566 0.264133
Si Si2 0.445305 0.000000 0.251509
Si Si3 0.443688 0.500000 0.593218
Si Si4 0.127440 0.500000 0.404036
Si Si5 0.301221 0.227799 0.905433
Si Si6 0.054996 0.228722 0.213679
Si Si7 0.306906 0.647380 0.593380
O O1 0.183953 0.178484 0.334204
O O2 0.094649 0.198772 0.282669
O O3 0.164549 0.194249 0.173940
O O4 0.141818 0.000000 0.258565
O O5 0.410680 0.000000 0.170896
O O6 0.439263 0.126540 0.303362
O O7 0.500000 0.000000 0.222749
O O8 0.500000 0.500000 0.585519
O O9 0.422259 0.500000 0.500000
O O10 0.433578 0.374054 0.642787
O O11 0.107535 0.500000 0.500000
O O12 0.162281 0.384202 0.397033
O O13 0.247926 0.181152 0.895938
O O14 0.305827 0.277917 0.000000
O O15 0.000000 0.209484 0.236626
O O16 0.322010 0.689979 0.500000
O O17 0.310551 0.500000 0.594007
#
# Coordination Sequence:
#
# PCOD9518316 Si02
#       7
#    16   8   8   8  16  16  16
#     4  11  21  32  52  81 107 144 185 222 273 328
#     4  10  20  35  55  79 111 141 179 235 281 319
#     4   9  18  34  55  77 103 139 182 222 268 334
#     4  10  18  31  55  79 100 136 178 218 271 326
#     4  10  19  34  54  76 106 141 178 221 272 330
#     4  10  20  35  54  80 110 144 182 226 279 327
#     4   9  18  33  53  79 107 134 174 227 274 324
#
# _framework density 17.816379000000001
#
# number of rings (size 3 to 8) (size 9 to 14) (size 15 to 20)
#    0.000    2.091    3.636    0.545    0.000    1.273 
#    0.000    0.455    0.000    3.273    0.000    1.273 
#    0.000    0.000    0.000    0.000    0.000    0.000 
#
# Total GULP energy -244958.001397 kJ/mol
# GULP energy per Si atom -5567.227304 kJ/mol
# Density = 1.777583 g / cm^3
# Si number density = 17.816379 Si / 1000 Ang^3
#
#
#
# Elastic Constant Matrix: (Units=GPa)
#
#
# Indices 1 2 3 4 5 6 
#
# 1 71.5891 18.6537 46.8598 0.0000 0.0000 0.0000
# 2 18.6537 80.8811 32.4962 0.0000 0.0000 0.0000
# 3 46.8598 32.4962 76.1719 0.0000 0.0000 0.0000
# 4 0.0000 0.0000 0.0000 18.2974 0.0000 0.0000
# 5 0.0000 0.0000 0.0000 0.0000 18.9428 0.0000
# 6 0.0000 0.0000 0.0000 0.0000 0.0000 21.3775
#
#
#
# Elastic Compliance Matrix: (Units=1/GPa)
#
#
# Indices 1 2 3 4 5 6 
#
# 1 0.023400 0.000467 -0.014595 0.000000 0.000000 0.000000
# 2 0.000467 0.014931 -0.006657 0.000000 0.000000 0.000000
# 3 -0.014595 -0.006657 0.024947 0.000000 0.000000 0.000000
# 4 0.000000 0.000000 0.000000 0.054653 0.000000 0.000000
# 5 0.000000 0.000000 0.000000 0.000000 0.052790 0.000000
# 6 0.000000 0.000000 0.000000 0.000000 0.000000 0.046778
#
#
# Mechanical properties :
#
#
# Convention : Reuss Voigt Hill
#
# Bulk Modulus (GPa) = 46.06557 47.18462 46.62509
# Shear Modulus (GPa) = 18.77555 20.43237 19.60396
#
# Velocity S-wave (km/s) = 3.24981 3.39016 3.32073
# Velocity P-wave (km/s) = 6.32404 6.47036 6.39762
#
# Compressibility (1/GPa) = 0.02170819
#
# Stress axis : x y z
#
# Youngs Moduli (GPa) = 42.73502 66.97582 40.08575
#
# Poissons Ratio (x) = -0.03128 0.58503
# Poissons Ratio (y) = -0.01996 0.26685
# Poissons Ratio (z) = 0.62370 0.44586
#
# Static dielectric constant tensor:
#      x y z
#    x 1.619470 0.000000 0.000000 
#    y 0.000000 1.615200 0.000000 
#    z 0.000000 0.000000 1.632990 
# 
# From -- ./inp_files/40177.got.cif
#   From: 2010.05.17/outbox.cif.g08.bks.cpg/sg71_21_cif.got.tgz:40177.got - 2010.06.03 16:22:01.
