data_PCOD9518269
_publ_section_title
;
Structure prediction by ZEFSAII (Michael W. Deem and Ramdas Pophale) SiO2 
 PCOD9518269
Probable space group: I M M M
;
_chemical_formula_sum "Si O2"
_cell_formula_units_Z 104
_cell_length_a 7.570474
_cell_length_b 23.078784
_cell_length_c 27.656799
_cell_angle_alpha 90.000000
_cell_angle_beta 90.000000
_cell_angle_gamma 90.000000
_cell_volume 4832.122194
_symmetry_space_group_name_H-M "I M M M"
_symmetry_group_IT_number 71
_symmetry_cell_setting 'orthorhombic'
loop_
_space_group_symop_operation_xyz
x,y,z
-x,-y,z
x,-y,-z
-x,y,-z
-x,-y,-z
x,y,-z
-x,y,z
x,-y,z
1/2+x,1/2+y,1/2+z
1/2-x,1/2-y,1/2+z
1/2+x,1/2-y,1/2-z
1/2-x,1/2+y,1/2-z
1/2-x,1/2-y,1/2-z
1/2+x,1/2+y,1/2-z
1/2-x,1/2+y,1/2+z
1/2+x,1/2-y,1/2+z
loop_
_atom_site_type_symbol
_atom_site_label
_atom_site_fract_x
_atom_site_fract_y
_atom_site_fract_z
Si Si1 0.796797 0.404628 0.446509
Si Si2 0.282877 0.061758 0.844910
Si Si3 0.710970 0.306899 0.185526
Si Si4 0.202965 0.775539 0.057755
Si Si5 0.783769 0.432685 0.000000
Si Si6 0.709817 0.179351 0.797910
Si Si7 0.791594 0.651907 0.913872
O O1 0.716010 0.411152 0.500000
O O2 0.720168 0.435998 0.400354
O O3 0.795473 0.336366 0.432966
O O4 0.000000 0.423277 0.450293
O O5 0.500000 0.063755 0.845117
O O6 0.218718 0.119996 0.819610
O O7 0.232597 0.000000 0.822705
O O8 0.500000 0.305914 0.183124
O O9 0.778994 0.240152 0.180109
O O10 0.762291 0.321664 0.240325
O O11 0.772788 0.351410 0.144066
O O12 0.285678 0.715911 0.076161
O O13 0.000000 0.781279 0.074506
O O14 0.199290 0.769013 0.000000
O O15 0.727166 0.396821 0.048346
O O16 0.726076 0.500000 0.000000
O O17 0.000000 0.434122 0.000000
O O18 0.500000 0.180368 0.806807
O O19 0.000000 0.656430 0.924846
#
# Coordination Sequence:
#
# PCOD9518269 Si02
#       7
#    16  16  16  16   8  16  16
#     4   9  17  28  44  70 102 131 162 200 240 284
#     4   9  17  30  49  71  96 129 167 205 242 282
#     4  10  20  33  53  79 104 128 160 207 264 312
#     4   9  16  27  44  68  98 129 159 194 236 281
#     4   9  18  34  55  77 103 137 178 219 252 298
#     4   9  18  34  53  74 101 131 168 211 253 302
#     4  10  18  31  52  77 102 131 168 206 249 300
#
# _framework density 21.522634
#
# number of rings (size 3 to 8) (size 9 to 14) (size 15 to 20)
#    0.000    2.692    0.769    1.385    0.000    2.769 
#    0.000    3.462    0.000    7.385    0.000    2.154 
#    0.000    0.000    0.000    0.000    0.000    0.000 
#
# Total GULP energy -289914.048883 kJ/mol
# GULP energy per Si atom -5575.270171 kJ/mol
# Density = 2.147365 g / cm^3
# Si number density = 21.522634 Si / 1000 Ang^3
#
#
#
# Elastic Constant Matrix: (Units=GPa)
#
#
# Indices 1 2 3 4 5 6 
#
# 1 48.5273 0.8540 -7.5921 0.0000 0.0000 0.0000
# 2 0.8540 136.0236 84.1443 0.0000 0.0000 0.0000
# 3 -7.5921 84.1443 108.8362 0.0000 0.0000 0.0000
# 4 0.0000 0.0000 0.0000 20.5680 0.0000 0.0000
# 5 0.0000 0.0000 0.0000 0.0000 8.4898 0.0000
# 6 0.0000 0.0000 0.0000 0.0000 0.0000 11.8228
#
#
#
# Elastic Compliance Matrix: (Units=1/GPa)
#
#
# Indices 1 2 3 4 5 6 
#
# 1 0.021115 -0.002000 0.003019 0.000000 0.000000 0.000000
# 2 -0.002000 0.014280 -0.011180 0.000000 0.000000 0.000000
# 3 0.003019 -0.011180 0.018042 0.000000 0.000000 0.000000
# 4 0.000000 0.000000 0.000000 0.048619 0.000000 0.000000
# 5 0.000000 0.000000 0.000000 0.000000 0.117789 0.000000
# 6 0.000000 0.000000 0.000000 0.000000 0.000000 0.084582
#
#
# Mechanical properties :
#
#
# Convention : Reuss Voigt Hill
#
# Bulk Modulus (GPa) = 30.19760 49.79996 39.99878
# Shear Modulus (GPa) = 14.89037 22.57484 18.73260
#
# Velocity S-wave (km/s) = 2.63315 3.24217 2.95340
# Velocity P-wave (km/s) = 4.82760 6.09952 5.50045
#
# Compressibility (1/GPa) = 0.03311521
#
# Stress axis : x y z
#
# Youngs Moduli (GPa) = 47.36071 70.02747 55.42552
#
# Poissons Ratio (x) = 0.14008 -0.16736
# Poissons Ratio (y) = 0.09474 0.61965
# Poissons Ratio (z) = -0.14300 0.78290
#
# Static dielectric constant tensor:
#      x y z
#    x 1.823340 0.000000 0.000000 
#    y 0.000000 1.792100 0.000000 
#    z 0.000000 0.000000 1.809760 
# 
# From -- ./inp_files/63553.got.cif
#   From: 2010.05.17/outbox.cif.g08.bks.cpg/sg71_32_cif.got.tgz:63553.got - 2010.06.03 16:22:01.
