data_PCOD9518876
_publ_section_title
;
Structure prediction by ZEFSAII (Michael W. Deem and Ramdas Pophale) SiO2 
 PCOD9518876
Probable space group: I M M M
;
_chemical_formula_sum "Si O2"
_cell_formula_units_Z 88
_cell_length_a 20.190917
_cell_length_b 21.493290
_cell_length_c 9.577882
_cell_angle_alpha 90.000000
_cell_angle_beta 90.000000
_cell_angle_gamma 90.000000
_cell_volume 4156.506119
_symmetry_space_group_name_H-M "I M M M"
_symmetry_group_IT_number 71
_symmetry_cell_setting 'orthorhombic'
loop_
_space_group_symop_operation_xyz
x,y,z
-x,-y,z
x,-y,-z
-x,y,-z
-x,-y,-z
x,y,-z
-x,y,z
x,-y,z
1/2+x,1/2+y,1/2+z
1/2-x,1/2-y,1/2+z
1/2+x,1/2-y,1/2-z
1/2-x,1/2+y,1/2-z
1/2-x,1/2-y,1/2-z
1/2+x,1/2+y,1/2-z
1/2-x,1/2+y,1/2+z
1/2+x,1/2-y,1/2+z
loop_
_atom_site_type_symbol
_atom_site_label
_atom_site_fract_x
_atom_site_fract_y
_atom_site_fract_z
Si Si1 0.074868 0.099616 0.339024
Si Si2 0.196086 0.103688 0.156504
Si Si3 0.079136 0.500000 0.333239
Si Si4 0.187631 0.751528 0.848281
Si Si5 0.180576 0.429330 0.838592
Si Si6 0.424383 0.248177 0.155438
O O1 0.084961 0.080440 0.500000
O O2 0.133973 0.076030 0.241378
O O3 0.076066 0.175930 0.341278
O O4 0.000000 0.081983 0.295909
O O5 0.174970 0.175206 0.137627
O O6 0.262503 0.104507 0.250336
O O7 0.207574 0.077808 0.000000
O O8 0.093833 0.500000 0.500000
O O9 0.114390 0.558568 0.254179
O O10 0.000000 0.500000 0.315672
O O11 0.250000 0.750000 0.750000
O O12 0.124514 0.722820 0.772099
O O13 0.201717 0.725145 0.000000
O O14 0.208046 0.500000 0.847396
O O15 0.169100 0.409874 0.000000
O O16 0.500000 0.228568 0.174757
O O17 0.401636 0.229996 0.000000
#
# Coordination Sequence:
#
# PCOD9518876 Si02
#       6
#    16  16   8  16  16  16
#     4   8  14  25  42  64  90 121 157 194 232 276
#     4  10  19  30  47  70  97 127 160 201 246 287
#     4   9  17  31  53  79 104 127 154 193 239 287
#     4  10  20  31  45  68  95 127 163 199 241 288
#     4   9  19  32  50  75  99 127 160 193 236 287
#     4   8  14  26  44  64  86 115 151 192 236 278
#
# _framework density 21.171627999999998
#
# number of rings (size 3 to 8) (size 9 to 14) (size 15 to 20)
#    0.545    2.455    0.000    2.727    0.000    3.636 
#    0.000    3.636    0.000    1.636    0.000   11.455 
#    0.000    0.000    0.000    0.000    0.000    0.000 
#
# Total GULP energy -244980.437626 kJ/mol
# GULP energy per Si atom -5567.737219 kJ/mol
# Density = 2.112344 g / cm^3
# Si number density = 21.171628 Si / 1000 Ang^3
#
#
#
# Elastic Constant Matrix: (Units=GPa)
#
#
# Indices 1 2 3 4 5 6 
#
# 1 139.3250 -4.8900 118.6280 0.0000 0.0000 0.0000
# 2 -4.8900 30.4946 -0.8160 0.0000 0.0000 0.0000
# 3 118.6280 -0.8160 210.8643 0.0000 0.0000 0.0000
# 4 0.0000 0.0000 0.0000 7.4100 0.0000 0.0000
# 5 0.0000 0.0000 0.0000 0.0000 39.7210 0.0000
# 6 0.0000 0.0000 0.0000 0.0000 0.0000 18.5649
#
#
#
# Elastic Compliance Matrix: (Units=1/GPa)
#
#
# Indices 1 2 3 4 5 6 
#
# 1 0.013900 0.002020 -0.007812 0.000000 0.000000 0.000000
# 2 0.002020 0.033090 -0.001008 0.000000 0.000000 0.000000
# 3 -0.007812 -0.001008 0.009133 0.000000 0.000000 0.000000
# 4 0.000000 0.000000 0.000000 0.134953 0.000000 0.000000
# 5 0.000000 0.000000 0.000000 0.000000 0.025176 0.000000
# 6 0.000000 0.000000 0.000000 0.000000 0.000000 0.053865
#
#
# Mechanical properties :
#
#
# Convention : Reuss Voigt Hill
#
# Bulk Modulus (GPa) = 23.51719 67.39200 45.45459
# Shear Modulus (GPa) = 16.78467 30.98998 23.88733
#
# Velocity S-wave (km/s) = 2.81871 3.83005 3.36262
# Velocity P-wave (km/s) = 4.66106 7.17352 6.04917
#
# Compressibility (1/GPa) = 0.04252209
#
# Stress axis : x y z
#
# Youngs Moduli (GPa) = 71.94343 30.22094 109.48920
#
# Poissons Ratio (x) = -0.06104 0.85532
# Poissons Ratio (y) = -0.14532 0.11040
# Poissons Ratio (z) = 0.56202 0.03047
#
# Static dielectric constant tensor:
#      x y z
#    x 1.725360 0.000000 0.000000 
#    y 0.000000 1.886590 0.000000 
#    z 0.000000 0.000000 1.794010 
# 
# From -- ./inp_files/11385.got.cif
#   From: 2010.05.17/outbox.cif.g08.bks.cpg/sg71_6_cif.got.tgz:11385.got - 2010.06.03 16:22:01.
