data_PCOD9518937
_publ_section_title
;
Structure prediction by ZEFSAII (Michael W. Deem and Ramdas Pophale) SiO2 
 PCOD9518937
Probable space group: I M M M
;
_chemical_formula_sum "Si O2"
_cell_formula_units_Z 80
_cell_length_a 23.814635
_cell_length_b 22.482163
_cell_length_c 7.426138
_cell_angle_alpha 90.000000
_cell_angle_beta 90.000000
_cell_angle_gamma 90.000000
_cell_volume 3975.987746
_symmetry_space_group_name_H-M "I M M M"
_symmetry_group_IT_number 71
_symmetry_cell_setting 'orthorhombic'
loop_
_space_group_symop_operation_xyz
x,y,z
-x,-y,z
x,-y,-z
-x,y,-z
-x,-y,-z
x,y,-z
-x,y,z
x,-y,z
1/2+x,1/2+y,1/2+z
1/2-x,1/2-y,1/2+z
1/2+x,1/2-y,1/2-z
1/2-x,1/2+y,1/2-z
1/2-x,1/2-y,1/2-z
1/2+x,1/2+y,1/2-z
1/2-x,1/2+y,1/2+z
1/2+x,1/2-y,1/2+z
loop_
_atom_site_type_symbol
_atom_site_label
_atom_site_fract_x
_atom_site_fract_y
_atom_site_fract_z
Si Si1 0.240319 0.435336 0.715302
Si Si2 0.359356 0.607783 0.796346
Si Si3 0.567052 0.069799 0.500000
Si Si4 0.635648 0.143328 0.783184
Si Si5 0.565424 0.500000 0.779494
Si Si6 0.184288 0.766277 0.284478
O O1 0.248711 0.432608 0.500000
O O2 0.216639 0.500000 0.760364
O O3 0.300299 0.426602 0.802052
O O4 0.195876 0.385631 0.763199
O O5 0.403196 0.560355 0.716473
O O6 0.340127 0.671110 0.712983
O O7 0.379404 0.620366 0.000000
O O8 0.500000 0.071566 0.500000
O O9 0.590980 0.105435 0.672311
O O10 0.584129 0.000000 0.500000
O O11 0.643819 0.211961 0.730695
O O12 0.627461 0.138755 0.000000
O O13 0.500000 0.500000 0.732656
O O14 0.570048 0.500000 0.000000
O O15 0.181966 0.770312 0.500000
O O16 0.250000 0.750000 0.250000
#
# Coordination Sequence:
#
# PCOD9518937 Si02
#       6
#    16  16   8  16   8  16
#     4  10  19  30  48  79 116 150 186 238 305 369
#     4  10  19  31  51  81 108 148 202 245 296 359
#     4  11  26  46  68  94 120 159 213 263 309 365
#     4  10  22  40  60  90 128 164 200 248 314 380
#     4   9  18  34  53  75 109 151 199 256 301 340
#     4  10  20  32  52  86 123 158 195 242 309 373
#
# _framework density 20.120785000000001
#
# number of rings (size 3 to 8) (size 9 to 14) (size 15 to 20)
#    0.000    2.000    3.000    0.600    2.800    1.600 
#    0.000    2.000    0.000    4.800    0.000    0.000 
#    0.000    0.000    0.000    0.000    0.000    0.000 
#
# Total GULP energy -223071.429891 kJ/mol
# GULP energy per Si atom -5576.785747 kJ/mol
# Density = 2.007499 g / cm^3
# Si number density = 20.120785 Si / 1000 Ang^3
#
#
#
# Elastic Constant Matrix: (Units=GPa)
#
#
# Indices 1 2 3 4 5 6 
#
# 1 114.6945 70.4575 23.8485 0.0000 0.0000 0.0000
# 2 70.4575 198.0220 29.6054 0.0000 0.0000 0.0000
# 3 23.8485 29.6054 69.1345 0.0000 0.0000 0.0000
# 4 0.0000 0.0000 0.0000 3.3264 0.0000 0.0000
# 5 0.0000 0.0000 0.0000 0.0000 -18.9718 0.0000
# 6 0.0000 0.0000 0.0000 0.0000 0.0000 9.8568
#
#
#
# Elastic Compliance Matrix: (Units=1/GPa)
#
#
# Indices 1 2 3 4 5 6 
#
# 1 0.011509 -0.003741 -0.002368 0.000000 0.000000 0.000000
# 2 -0.003741 0.006611 -0.001541 0.000000 0.000000 0.000000
# 3 -0.002368 -0.001541 0.015941 0.000000 0.000000 0.000000
# 4 0.000000 0.000000 0.000000 0.300627 0.000000 0.000000
# 5 0.000000 0.000000 0.000000 0.000000 -0.052710 0.000000
# 6 0.000000 0.000000 0.000000 0.000000 0.000000 0.101453
#
#
# Mechanical properties :
#
#
# Convention : Reuss Voigt Hill
#
# Bulk Modulus (GPa) = 53.29889 69.96377 61.63133
# Shear Modulus (GPa) = 12.34611 16.03823 14.19217
#
# Velocity S-wave (km/s) = 2.47978 2.82636 2.65872
# Velocity P-wave (km/s) = 5.89458 6.74525 6.33421
#
# Compressibility (1/GPa) = 0.01876212
#
# Stress axis : x y z
#
# Youngs Moduli (GPa) = 86.88554 151.25445 62.73025
#
# Poissons Ratio (x) = 0.56585 0.14856
# Poissons Ratio (y) = 0.32504 0.09665
# Poissons Ratio (z) = 0.20576 0.23303
#
# Static dielectric constant tensor:
#      x y z
#    x 1.653980 0.000000 0.000000 
#    y 0.000000 1.785560 0.000000 
#    z 0.000000 0.000000 1.779590 
# 
# From -- ./inp_files/10268.got.cif
#   From: 2010.05.17/outbox.cif.g08.bks.cpg/sg71_6_cif.got.tgz:10268.got - 2010.06.03 16:22:01.
