data_PCOD9518993
_publ_section_title
;
Structure prediction by ZEFSAII (Michael W. Deem and Ramdas Pophale) SiO2 
 PCOD9518993
Probable space group: I M M M
;
_chemical_formula_sum "Si O2"
_cell_formula_units_Z 104
_cell_length_a 13.652776
_cell_length_b 23.847063
_cell_length_c 18.727527
_cell_angle_alpha 90.000000
_cell_angle_beta 90.000000
_cell_angle_gamma 90.000000
_cell_volume 6097.282198
_symmetry_space_group_name_H-M "I M M M"
_symmetry_group_IT_number 71
_symmetry_cell_setting 'orthorhombic'
loop_
_space_group_symop_operation_xyz
x,y,z
-x,-y,z
x,-y,-z
-x,y,-z
-x,-y,-z
x,y,-z
-x,y,z
x,-y,z
1/2+x,1/2+y,1/2+z
1/2-x,1/2-y,1/2+z
1/2+x,1/2-y,1/2-z
1/2-x,1/2+y,1/2-z
1/2-x,1/2-y,1/2-z
1/2+x,1/2+y,1/2-z
1/2-x,1/2+y,1/2+z
1/2+x,1/2-y,1/2+z
loop_
_atom_site_type_symbol
_atom_site_label
_atom_site_fract_x
_atom_site_fract_y
_atom_site_fract_z
Si Si1 0.295681 0.563788 0.150827
Si Si2 0.881768 0.061338 0.084459
Si Si3 0.615849 0.317013 0.636536
Si Si4 0.239726 0.716312 0.919525
Si Si5 0.390399 0.432284 0.000000
Si Si6 0.115074 0.826990 0.300234
Si Si7 0.614738 0.103713 0.417494
O O1 0.324959 0.500000 0.165843
O O2 0.336912 0.582352 0.072828
O O3 0.341809 0.609680 0.202131
O O4 0.179770 0.568660 0.137984
O O5 0.851602 0.118823 0.122243
O O6 0.000000 0.059913 0.090560
O O7 0.845639 0.000000 0.110417
O O8 0.859087 0.065499 0.000000
O O9 0.500000 0.312549 0.617046
O O10 0.682054 0.273819 0.593422
O O11 0.624570 0.303158 0.720524
O O12 0.321342 0.705524 0.859203
O O13 0.160010 0.666122 0.913755
O O14 0.280671 0.714111 0.000000
O O15 0.394514 0.500000 0.000000
O O16 0.500000 0.409701 0.000000
O O17 0.000000 0.828989 0.318594
O O18 0.627536 0.083504 0.500000
O O19 0.500000 0.103425 0.402171
#
# Coordination Sequence:
#
# PCOD9518993 Si02
#       7
#    16  16  16  16   8  16  16
#     4  10  19  31  45  66  93 126 167 202 241 293
#     4   8  14  25  43  70 102 130 156 190 232 283
#     4  10  19  32  51  74 100 130 161 194 244 305
#     4  10  20  34  52  72  95 126 167 208 245 295
#     4   9  16  26  41  59  81 115 160 202 230 265
#     4  10  22  35  48  69  98 131 163 205 254 297
#     4   9  17  29  45  67  94 120 152 201 253 290
#
# _framework density 17.056778999999999
#
# number of rings (size 3 to 8) (size 9 to 14) (size 15 to 20)
#    0.000    2.538    0.769    2.308    1.077    3.692 
#    0.000    2.308    0.000    0.000    0.000    0.000 
#    0.000    0.615    0.000    3.231    0.000    0.154 
#
# Total GULP energy -289799.252835 kJ/mol
# GULP energy per Si atom -5573.062555 kJ/mol
# Density = 1.701796 g / cm^3
# Si number density = 17.056779 Si / 1000 Ang^3
#
#
#
# Elastic Constant Matrix: (Units=GPa)
#
#
# Indices 1 2 3 4 5 6 
#
# 1 69.5168 8.0215 12.0931 0.0000 0.0000 0.0000
# 2 8.0215 81.6017 18.3828 0.0000 0.0000 0.0000
# 3 12.0931 18.3828 38.1367 0.0000 0.0000 0.0000
# 4 0.0000 0.0000 0.0000 21.7903 0.0000 0.0000
# 5 0.0000 0.0000 0.0000 0.0000 18.5924 0.0000
# 6 0.0000 0.0000 0.0000 0.0000 0.0000 17.5030
#
#
#
# Elastic Compliance Matrix: (Units=1/GPa)
#
#
# Indices 1 2 3 4 5 6 
#
# 1 0.015240 -0.000459 -0.004611 0.000000 0.000000 0.000000
# 2 -0.000459 0.013761 -0.006488 0.000000 0.000000 0.000000
# 3 -0.004611 -0.006488 0.030811 0.000000 0.000000 0.000000
# 4 0.000000 0.000000 0.000000 0.045892 0.000000 0.000000
# 5 0.000000 0.000000 0.000000 0.000000 0.053785 0.000000
# 6 0.000000 0.000000 0.000000 0.000000 0.000000 0.057133
#
#
# Mechanical properties :
#
#
# Convention : Reuss Voigt Hill
#
# Bulk Modulus (GPa) = 27.25095 29.58334 28.41714
# Shear Modulus (GPa) = 19.84355 21.62767 20.73561
#
# Velocity S-wave (km/s) = 3.41454 3.56474 3.49045
# Velocity P-wave (km/s) = 5.61754 5.85874 5.73940
#
# Compressibility (1/GPa) = 0.03669597
#
# Stress axis : x y z
#
# Youngs Moduli (GPa) = 65.61599 72.66762 32.45608
#
# Poissons Ratio (x) = 0.03338 0.14966
# Poissons Ratio (y) = 0.03014 0.21056
# Poissons Ratio (z) = 0.30257 0.47144
#
# Static dielectric constant tensor:
#      x y z
#    x 1.575250 0.000000 0.000000 
#    y 0.000000 1.608990 0.000000 
#    z 0.000000 0.000000 1.591240 
# 
# From -- ./inp_files/45129.got.cif
#   From: 2010.05.17/outbox.cif.g08.bks.cpg/sg71_23_cif.got.tgz:45129.got - 2010.06.03 16:22:01.
