data_PCOD9518431
_publ_section_title
;
Structure prediction by ZEFSAII (Michael W. Deem and Ramdas Pophale) SiO2 
 PCOD9518431
Probable space group: I M M M
;
_chemical_formula_sum "Si O2"
_cell_formula_units_Z 96
_cell_length_a 24.294155
_cell_length_b 26.065082
_cell_length_c 8.559465
_cell_angle_alpha 90.000000
_cell_angle_beta 90.000000
_cell_angle_gamma 90.000000
_cell_volume 5420.102680
_symmetry_space_group_name_H-M "I M M M"
_symmetry_group_IT_number 71
_symmetry_cell_setting 'orthorhombic'
loop_
_space_group_symop_operation_xyz
x,y,z
-x,-y,z
x,-y,-z
-x,y,-z
-x,-y,-z
x,y,-z
-x,y,z
x,-y,z
1/2+x,1/2+y,1/2+z
1/2-x,1/2-y,1/2+z
1/2+x,1/2-y,1/2-z
1/2-x,1/2+y,1/2-z
1/2-x,1/2-y,1/2-z
1/2+x,1/2+y,1/2-z
1/2-x,1/2+y,1/2+z
1/2+x,1/2-y,1/2+z
loop_
_atom_site_type_symbol
_atom_site_label
_atom_site_fract_x
_atom_site_fract_y
_atom_site_fract_z
Si Si1 0.749994 0.940290 0.809559
Si Si2 0.437030 0.500000 0.690383
Si Si3 0.063216 0.805709 0.312979
Si Si4 0.063913 0.500000 0.187585
Si Si5 0.131987 0.099892 0.189118
Si Si6 0.063369 0.307793 0.187144
Si Si7 0.630756 0.097293 0.812551
O O1 0.805447 0.911360 0.760168
O O2 0.693525 0.913189 0.760170
O O3 0.750759 0.000000 0.759573
O O4 0.750383 0.941105 0.000000
O O5 0.500000 0.500000 0.744039
O O6 0.437292 0.500000 0.500000
O O7 0.404745 0.448964 0.738713
O O8 0.064742 0.803806 0.500000
O O9 0.104749 0.848617 0.252454
O O10 0.075924 0.749342 0.246831
O O11 0.000000 0.818372 0.264483
O O12 0.094179 0.550211 0.251395
O O13 0.000000 0.500000 0.234482
O O14 0.066575 0.500000 0.000000
O O15 0.131291 0.101785 0.000000
O O16 0.104603 0.350065 0.252896
O O17 0.000000 0.319743 0.235376
O O18 0.065276 0.308540 0.000000
O O19 0.630017 0.096878 0.000000
#
# Coordination Sequence:
#
# PCOD9518431 Si02
#       7
#    16   8  16   8  16  16  16
#     4   9  17  33  55  80 109 145 185 225 269 317
#     4   9  16  25  45  79 109 133 170 219 264 312
#     4  10  21  37  56  80 112 146 180 223 276 330
#     4  11  23  36  51  77 113 147 182 227 274 323
#     4  10  18  32  56  81 108 143 185 227 268 319
#     4  10  21  38  59  82 109 141 180 227 277 330
#     4  11  21  35  57  82 110 144 184 226 276 332
#
# _framework density 17.711842000000001
#
# number of rings (size 3 to 8) (size 9 to 14) (size 15 to 20)
#    0.000    2.000    1.667    2.750    0.000    5.333 
#    0.000    2.917    0.000    1.500    0.000    0.000 
#    0.000    0.000    0.000    0.000    0.000    0.000 
#
# Total GULP energy -268011.070011 kJ/mol
# GULP energy per Si atom -5583.563959 kJ/mol
# Density = 1.767153 g / cm^3
# Si number density = 17.711842 Si / 1000 Ang^3
#
#
#
# Elastic Constant Matrix: (Units=GPa)
#
#
# Indices 1 2 3 4 5 6 
#
# 1 194.6544 123.9967 39.7744 0.0000 0.0000 0.0000
# 2 123.9967 157.0807 33.9979 0.0000 0.0000 0.0000
# 3 39.7744 33.9979 30.5614 0.0000 0.0000 0.0000
# 4 0.0000 0.0000 0.0000 24.6616 0.0000 0.0000
# 5 0.0000 0.0000 0.0000 0.0000 17.1760 0.0000
# 6 0.0000 0.0000 0.0000 0.0000 0.0000 12.7743
#
#
#
# Elastic Compliance Matrix: (Units=1/GPa)
#
#
# Indices 1 2 3 4 5 6 
#
# 1 0.011166 -0.007467 -0.006225 0.000000 0.000000 0.000000
# 2 -0.007467 0.013378 -0.005165 0.000000 0.000000 0.000000
# 3 -0.006225 -0.005165 0.046569 0.000000 0.000000 0.000000
# 4 0.000000 0.000000 0.000000 0.040549 0.000000 0.000000
# 5 0.000000 0.000000 0.000000 0.000000 0.058221 0.000000
# 6 0.000000 0.000000 0.000000 0.000000 0.000000 0.078282
#
#
# Mechanical properties :
#
#
# Convention : Reuss Voigt Hill
#
# Bulk Modulus (GPa) = 29.94137 86.42606 58.18372
# Shear Modulus (GPa) = 16.83442 23.22422 20.02932
#
# Velocity S-wave (km/s) = 3.08630 3.62501 3.36645
# Velocity P-wave (km/s) = 5.44442 8.15000 6.93052
#
# Compressibility (1/GPa) = 0.03339861
#
# Stress axis : x y z
#
# Youngs Moduli (GPa) = 89.56043 74.74975 21.47362
#
# Poissons Ratio (x) = 0.55812 0.13368
# Poissons Ratio (y) = 0.66871 0.11091
# Poissons Ratio (z) = 0.55756 0.38607
#
# Static dielectric constant tensor:
#      x y z
#    x 1.603150 0.000000 0.000000 
#    y 0.000000 1.565460 0.000000 
#    z 0.000000 0.000000 1.605980 
# 
# From -- ./inp_files/12912.got.cif
#   From: 2010.05.17/outbox.cif.g08.bks.cpg/sg71_7_cif.got.tgz:12912.got - 2010.06.03 16:22:01.
