data_PCOD9518020
_publ_section_title
;
Structure prediction by ZEFSAII (Michael W. Deem and Ramdas Pophale) SiO2 
 PCOD9518020
Probable space group: I M M M
;
_chemical_formula_sum "Si O2"
_cell_formula_units_Z 80
_cell_length_a 21.087324
_cell_length_b 8.989330
_cell_length_c 25.484040
_cell_angle_alpha 90.000000
_cell_angle_beta 90.000000
_cell_angle_gamma 90.000000
_cell_volume 4830.777921
_symmetry_space_group_name_H-M "I M M M"
_symmetry_group_IT_number 71
_symmetry_cell_setting 'orthorhombic'
loop_
_space_group_symop_operation_xyz
x,y,z
-x,-y,z
x,-y,-z
-x,y,-z
-x,-y,-z
x,y,-z
-x,y,z
x,-y,z
1/2+x,1/2+y,1/2+z
1/2-x,1/2-y,1/2+z
1/2+x,1/2-y,1/2-z
1/2-x,1/2+y,1/2-z
1/2-x,1/2-y,1/2-z
1/2+x,1/2+y,1/2-z
1/2-x,1/2+y,1/2+z
1/2+x,1/2-y,1/2+z
loop_
_atom_site_type_symbol
_atom_site_label
_atom_site_fract_x
_atom_site_fract_y
_atom_site_fract_z
Si Si1 0.694691 0.179385 0.714686
Si Si2 0.609508 0.176115 0.892233
Si Si3 0.069662 0.318937 0.277363
Si Si4 0.237858 0.823895 0.891491
Si Si5 0.605159 0.670436 0.000000
Si Si6 0.259678 0.172490 0.500000
O O1 0.750000 0.250000 0.750000
O O2 0.627753 0.225314 0.740438
O O3 0.704547 0.240088 0.656268
O O4 0.699339 0.000000 0.715810
O O5 0.580272 0.230630 0.837532
O O6 0.685688 0.196378 0.886897
O O7 0.586125 0.252221 0.945581
O O8 0.597562 0.000000 0.897012
O O9 0.071084 0.500000 0.278909
O O10 0.000000 0.272334 0.259075
O O11 0.219124 0.755718 0.947457
O O12 0.225751 0.000000 0.889207
O O13 0.682482 0.676467 0.000000
O O14 0.585192 0.500000 0.000000
O O15 0.278576 0.000000 0.500000
#
# Coordination Sequence:
#
# PCOD9518020 Si02
#       6
#    16  16  16  16   8   8
#     4  11  20  32  51  76 101 130 167 210 254 299
#     4   9  16  29  47  67  91 125 166 204 242 284
#     4   9  18  33  51  71  96 128 169 211 248 291
#     4  10  18  30  48  74 102 132 165 204 249 298
#     4   9  17  27  42  66  93 125 161 202 247 286
#     4   9  17  29  45  72 103 132 162 202 250 296
#
# _framework density 16.560479999999998
#
# number of rings (size 3 to 8) (size 9 to 14) (size 15 to 20)
#    0.000    2.400    2.000    1.800    0.000    3.200 
#    0.000    0.500    0.000    8.400    0.000    0.700 
#    0.000    5.600    0.000    0.000    0.000    0.000 
#
# Total GULP energy -223094.071939 kJ/mol
# GULP energy per Si atom -5577.351798 kJ/mol
# Density = 1.652279 g / cm^3
# Si number density = 16.560480 Si / 1000 Ang^3
#
#
#
# Elastic Constant Matrix: (Units=GPa)
#
#
# Indices 1 2 3 4 5 6 
#
# 1 83.4407 39.5840 59.9294 0.0000 0.0000 0.0000
# 2 39.5840 59.1811 49.4453 0.0000 0.0000 0.0000
# 3 59.9294 49.4453 141.9402 0.0000 0.0000 0.0000
# 4 0.0000 0.0000 0.0000 32.4225 0.0000 0.0000
# 5 0.0000 0.0000 0.0000 0.0000 9.8532 0.0000
# 6 0.0000 0.0000 0.0000 0.0000 0.0000 10.3084
#
#
#
# Elastic Compliance Matrix: (Units=1/GPa)
#
#
# Indices 1 2 3 4 5 6 
#
# 1 0.020082 -0.008954 -0.005360 0.000000 0.000000 0.000000
# 2 -0.008954 0.027826 -0.005913 0.000000 0.000000 0.000000
# 3 -0.005360 -0.005913 0.011368 0.000000 0.000000 0.000000
# 4 0.000000 0.000000 0.000000 0.030843 0.000000 0.000000
# 5 0.000000 0.000000 0.000000 0.000000 0.101490 0.000000
# 6 0.000000 0.000000 0.000000 0.000000 0.000000 0.097008
#
#
# Mechanical properties :
#
#
# Convention : Reuss Voigt Hill
#
# Bulk Modulus (GPa) = 53.12649 64.71994 58.92321
# Shear Modulus (GPa) = 14.91004 19.55704 17.23354
#
# Velocity S-wave (km/s) = 3.00382 3.44022 3.22940
# Velocity P-wave (km/s) = 6.64684 7.41255 7.04011
#
# Compressibility (1/GPa) = 0.01882300
#
# Stress axis : x y z
#
# Youngs Moduli (GPa) = 49.79639 35.93707 87.96658
#
# Poissons Ratio (x) = 0.32178 0.47148
# Poissons Ratio (y) = 0.44587 0.52014
# Poissons Ratio (z) = 0.26689 0.21249
#
# Static dielectric constant tensor:
#      x y z
#    x 1.557720 0.000000 0.000000 
#    y 0.000000 1.553520 0.000000 
#    z 0.000000 0.000000 1.552110 
# 
# From -- ./inp_files/10220.got.cif
#   From: 2010.05.17/outbox.cif.g08.bks.cpg/sg71_6_cif.got.tgz:10220.got - 2010.06.03 16:22:01.
