data_PCOD9518627
_publ_section_title
;
Structure prediction by ZEFSAII (Michael W. Deem and Ramdas Pophale) SiO2 
 PCOD9518627
Probable space group: I M M M
;
_chemical_formula_sum "Si O2"
_cell_formula_units_Z 104
_cell_length_a 24.662738
_cell_length_b 13.781070
_cell_length_c 19.024510
_cell_angle_alpha 90.000000
_cell_angle_beta 90.000000
_cell_angle_gamma 90.000000
_cell_volume 6466.029889
_symmetry_space_group_name_H-M "I M M M"
_symmetry_group_IT_number 71
_symmetry_cell_setting 'orthorhombic'
loop_
_space_group_symop_operation_xyz
x,y,z
-x,-y,z
x,-y,-z
-x,y,-z
-x,-y,-z
x,y,-z
-x,y,z
x,-y,z
1/2+x,1/2+y,1/2+z
1/2-x,1/2-y,1/2+z
1/2+x,1/2-y,1/2-z
1/2-x,1/2+y,1/2-z
1/2-x,1/2-y,1/2-z
1/2+x,1/2+y,1/2-z
1/2-x,1/2+y,1/2+z
1/2+x,1/2-y,1/2+z
loop_
_atom_site_type_symbol
_atom_site_label
_atom_site_fract_x
_atom_site_fract_y
_atom_site_fract_z
Si Si1 0.712952 0.114745 0.577441
Si Si2 0.724501 0.609502 0.213034
Si Si3 0.161377 0.884985 0.083981
Si Si4 0.500000 0.884218 0.415651
Si Si5 0.168467 0.308557 0.280095
Si Si6 0.107755 0.708854 0.852208
Si Si7 0.288127 0.117047 0.082077
O O1 0.725024 0.152089 0.500000
O O2 0.762050 0.126522 0.631136
O O3 0.658637 0.161044 0.607193
O O4 0.703065 0.000000 0.574320
O O5 0.705295 0.500000 0.225594
O O6 0.782721 0.624601 0.249996
O O7 0.686660 0.697704 0.234086
O O8 0.119057 0.821320 0.128211
O O9 0.224755 0.858088 0.099549
O O10 0.156259 0.000000 0.096990
O O11 0.153511 0.869212 0.000000
O O12 0.500000 0.871746 0.500000
O O13 0.447145 0.833687 0.382922
O O14 0.500000 0.000000 0.401525
O O15 0.116742 0.319017 0.229714
O O16 0.171165 0.333535 0.362427
O O17 0.292130 0.000000 0.088539
O O18 0.297481 0.140772 0.000000
#
# Coordination Sequence:
#
# PCOD9518627 Si02
#       7
#    16  16  16   8  16  16  16
#     4   9  16  26  42  65  93 125 156 183 217 264
#     4   9  17  27  40  63  94 124 152 182 218 264
#     4   9  17  29  46  68  95 128 160 186 218 266
#     4  11  24  40  55  69  86 112 149 192 235 275
#     4  10  19  28  43  65  89 120 153 187 227 272
#     4  11  21  32  47  66  88 118 155 197 238 269
#     4   9  17  29  46  69  97 126 154 185 221 270
#
# _framework density 16.084057999999999
#
# number of rings (size 3 to 8) (size 9 to 14) (size 15 to 20)
#    0.000    2.385    0.000    6.000    0.000    6.769 
#    0.000    0.385    0.000    1.385    0.000    0.538 
#    0.000    1.846    0.000    0.000    0.000   10.846 
#
# Total GULP energy -289878.707254 kJ/mol
# GULP energy per Si atom -5574.590524 kJ/mol
# Density = 1.604745 g / cm^3
# Si number density = 16.084058 Si / 1000 Ang^3
#
#
#
# Elastic Constant Matrix: (Units=GPa)
#
#
# Indices 1 2 3 4 5 6 
#
# 1 48.5558 30.1761 31.1748 0.0000 0.0000 0.0000
# 2 30.1761 78.4585 32.8319 0.0000 0.0000 0.0000
# 3 31.1748 32.8319 97.2549 0.0000 0.0000 0.0000
# 4 0.0000 0.0000 0.0000 20.3699 0.0000 0.0000
# 5 0.0000 0.0000 0.0000 0.0000 15.8446 0.0000
# 6 0.0000 0.0000 0.0000 0.0000 0.0000 12.4001
#
#
#
# Elastic Compliance Matrix: (Units=1/GPa)
#
#
# Indices 1 2 3 4 5 6 
#
# 1 0.030459 -0.008884 -0.006764 0.000000 0.000000 0.000000
# 2 -0.008884 0.017434 -0.003038 0.000000 0.000000 0.000000
# 3 -0.006764 -0.003038 0.013476 0.000000 0.000000 0.000000
# 4 0.000000 0.000000 0.000000 0.049092 0.000000 0.000000
# 5 0.000000 0.000000 0.000000 0.000000 0.063113 0.000000
# 6 0.000000 0.000000 0.000000 0.000000 0.000000 0.080645
#
#
# Mechanical properties :
#
#
# Convention : Reuss Voigt Hill
#
# Bulk Modulus (GPa) = 41.67287 45.84829 43.76058
# Shear Modulus (GPa) = 16.68947 18.39534 17.54240
#
# Velocity S-wave (km/s) = 3.22474 3.38553 3.30611
# Velocity P-wave (km/s) = 6.31117 6.62191 6.46841
#
# Compressibility (1/GPa) = 0.02399643
#
# Stress axis : x y z
#
# Youngs Moduli (GPa) = 32.83073 57.36016 74.20606
#
# Poissons Ratio (x) = 0.50961 0.50196
# Poissons Ratio (y) = 0.29168 0.22540
# Poissons Ratio (z) = 0.22208 0.17423
#
# Static dielectric constant tensor:
#      x y z
#    x 1.491210 0.000000 0.000000 
#    y 0.000000 1.595390 0.000000 
#    z 0.000000 0.000000 1.618580 
# 
# From -- ./inp_files/49013.got.cif
#   From: 2010.05.17/outbox.cif.g08.bks.cpg/sg71_25_cif.got.tgz:49013.got - 2010.06.03 16:22:01.
