data_PCOD9518721
_publ_section_title
;
Structure prediction by ZEFSAII (Michael W. Deem and Ramdas Pophale) SiO2 
 PCOD9518721
Probable space group: I M M M
;
_chemical_formula_sum "Si O2"
_cell_formula_units_Z 112
_cell_length_a 22.906382
_cell_length_b 24.324638
_cell_length_c 12.489761
_cell_angle_alpha 90.000000
_cell_angle_beta 90.000000
_cell_angle_gamma 90.000000
_cell_volume 6959.163063
_symmetry_space_group_name_H-M "I M M M"
_symmetry_group_IT_number 71
_symmetry_cell_setting 'orthorhombic'
loop_
_space_group_symop_operation_xyz
x,y,z
-x,-y,z
x,-y,-z
-x,y,-z
-x,-y,-z
x,y,-z
-x,y,z
x,-y,z
1/2+x,1/2+y,1/2+z
1/2-x,1/2-y,1/2+z
1/2+x,1/2-y,1/2-z
1/2-x,1/2+y,1/2-z
1/2-x,1/2-y,1/2-z
1/2+x,1/2+y,1/2-z
1/2-x,1/2+y,1/2+z
1/2+x,1/2-y,1/2+z
loop_
_atom_site_type_symbol
_atom_site_label
_atom_site_fract_x
_atom_site_fract_y
_atom_site_fract_z
Si Si1 0.322340 0.240058 0.620987
Si Si2 0.251672 0.333364 0.274085
Si Si3 0.685749 0.936435 0.128692
Si Si4 0.568309 0.759116 0.246299
Si Si5 0.566051 0.875484 0.126670
Si Si6 0.863401 0.834279 0.627095
Si Si7 0.067319 0.059599 0.369960
O O1 0.315263 0.219652 0.500000
O O2 0.282395 0.294591 0.636767
O O3 0.299874 0.199590 0.714603
O O4 0.390347 0.248396 0.650074
O O5 0.227988 0.391125 0.317542
O O6 0.301359 0.335878 0.183892
O O7 0.619006 0.916886 0.150764
O O8 0.694836 0.000000 0.162034
O O9 0.693644 0.933832 0.000000
O O10 0.500000 0.746443 0.263411
O O11 0.571502 0.820481 0.197320
O O12 0.597984 0.717644 0.161763
O O13 0.500000 0.897701 0.142352
O O14 0.571086 0.860879 0.000000
O O15 0.856974 0.834840 0.500000
O O16 0.896629 0.888648 0.666108
O O17 0.067747 0.060302 0.500000
O O18 0.000000 0.064181 0.337277
O O19 0.090194 0.000000 0.335659
#
# Coordination Sequence:
#
# PCOD9518721 Si02
#       7
#    16  16  16  16  16  16  16
#     4  10  20  34  52  71  97 131 167 208 252 298
#     4  10  20  34  49  73  98 131 168 208 248 300
#     4  10  20  34  53  75 101 133 167 207 254 302
#     4  10  19  31  49  75 102 129 163 205 255 304
#     4   9  17  30  49  74 102 128 158 202 256 307
#     4  10  19  29  46  72 101 131 165 205 252 300
#     4   8  14  25  40  59  87 123 158 192 236 291
#
# _framework density 16.093889000000001
#
# number of rings (size 3 to 8) (size 9 to 14) (size 15 to 20)
#    0.000    2.429    1.429    2.143    0.000    2.571 
#    0.000    1.429    0.000    1.286    0.000    0.000 
#    0.000    2.286    0.000   26.571    0.000    0.714 
#
# Total GULP energy -311813.814050 kJ/mol
# GULP energy per Si atom -5568.103822 kJ/mol
# Density = 1.605726 g / cm^3
# Si number density = 16.093889 Si / 1000 Ang^3
#
#
#
# Elastic Constant Matrix: (Units=GPa)
#
#
# Indices 1 2 3 4 5 6 
#
# 1 102.8263 40.5404 23.2104 0.0000 0.0000 0.0000
# 2 40.5404 95.5667 16.9071 0.0000 0.0000 0.0000
# 3 23.2104 16.9071 43.2963 0.0000 0.0000 0.0000
# 4 0.0000 0.0000 0.0000 13.7411 0.0000 0.0000
# 5 0.0000 0.0000 0.0000 0.0000 4.0890 0.0000
# 6 0.0000 0.0000 0.0000 0.0000 0.0000 23.6296
#
#
#
# Elastic Compliance Matrix: (Units=1/GPa)
#
#
# Indices 1 2 3 4 5 6 
#
# 1 0.012619 -0.004465 -0.005021 0.000000 0.000000 0.000000
# 2 -0.004465 0.012820 -0.002613 0.000000 0.000000 0.000000
# 3 -0.005021 -0.002613 0.026809 0.000000 0.000000 0.000000
# 4 0.000000 0.000000 0.000000 0.072774 0.000000 0.000000
# 5 0.000000 0.000000 0.000000 0.000000 0.244558 0.000000
# 6 0.000000 0.000000 0.000000 0.000000 0.000000 0.042320
#
#
# Mechanical properties :
#
#
# Convention : Reuss Voigt Hill
#
# Bulk Modulus (GPa) = 35.65036 44.77834 40.21435
# Shear Modulus (GPa) = 11.22467 19.02738 15.12602
#
# Velocity S-wave (km/s) = 2.64379 3.44215 3.06904
# Velocity P-wave (km/s) = 5.61419 6.60920 6.13191
#
# Compressibility (1/GPa) = 0.02805020
#
# Stress axis : x y z
#
# Youngs Moduli (GPa) = 79.24675 78.00245 37.30125
#
# Poissons Ratio (x) = 0.34826 0.18730
# Poissons Ratio (y) = 0.35381 0.09746
# Poissons Ratio (z) = 0.39792 0.20380
#
# Static dielectric constant tensor:
#      x y z
#    x 1.584500 0.000000 0.000000 
#    y 0.000000 1.551430 0.000000 
#    z 0.000000 0.000000 1.519150 
# 
# From -- ./inp_files/26234.got.cif
#   From: 2010.05.17/outbox.cif.g08.bks.cpg/sg71_14_cif.got.tgz:26234.got - 2010.06.03 16:22:01.
