data_PCOD9518838
_publ_section_title
;
Structure prediction by ZEFSAII (Michael W. Deem and Ramdas Pophale) SiO2 
 PCOD9518838
Probable space group: I M M M
;
_chemical_formula_sum "Si O2"
_cell_formula_units_Z 72
_cell_length_a 32.024397
_cell_length_b 13.385204
_cell_length_c 8.253090
_cell_angle_alpha 90.000000
_cell_angle_beta 90.000000
_cell_angle_gamma 90.000000
_cell_volume 3537.712504
_symmetry_space_group_name_H-M "I M M M"
_symmetry_group_IT_number 71
_symmetry_cell_setting 'orthorhombic'
loop_
_space_group_symop_operation_xyz
x,y,z
-x,-y,z
x,-y,-z
-x,y,-z
-x,-y,-z
x,y,-z
-x,y,z
x,-y,z
1/2+x,1/2+y,1/2+z
1/2-x,1/2-y,1/2+z
1/2+x,1/2-y,1/2-z
1/2-x,1/2+y,1/2-z
1/2-x,1/2-y,1/2-z
1/2+x,1/2+y,1/2-z
1/2-x,1/2+y,1/2+z
1/2+x,1/2-y,1/2+z
loop_
_atom_site_type_symbol
_atom_site_label
_atom_site_fract_x
_atom_site_fract_y
_atom_site_fract_z
Si Si1 0.900852 0.809693 0.813231
Si Si2 0.682821 0.620178 0.818961
Si Si3 0.135950 0.385992 0.803903
Si Si4 0.228617 0.378641 0.687435
Si Si5 0.451266 0.500000 0.301590
O O1 0.853149 0.848103 0.803469
O O2 0.896723 0.697608 0.743805
O O3 0.928711 0.898784 0.741084
O O4 0.914129 0.799158 0.000000
O O5 0.683800 0.500000 0.817477
O O6 0.729619 0.655075 0.779285
O O7 0.670695 0.652800 0.000000
O O8 0.128876 0.500000 0.747519
O O9 0.182875 0.353881 0.754498
O O10 0.134670 0.386584 0.000000
O O11 0.232060 0.351301 0.500000
O O12 0.229627 0.500000 0.696899
O O13 0.500000 0.500000 0.262762
O O14 0.447060 0.500000 0.500000
#
# Coordination Sequence:
#
# PCOD9518838 Si02
#       5
#    16  16  16  16   8
#     4  10  19  32  53  75  97 129 166 206 251 303
#     4  10  19  30  46  70 102 135 169 212 258 300
#     4   9  18  32  48  69  99 134 172 209 247 290
#     4   9  17  29  46  68  97 136 178 215 248 288
#     4   9  18  34  57  83 105 125 159 207 259 315
#
# _framework density 20.352134
#
# number of rings (size 3 to 8) (size 9 to 14) (size 15 to 20)
#    0.000    2.556    1.111    1.333    0.000    5.333 
#    0.000    0.000    0.000    2.000    0.000    4.667 
#    0.000    0.000    0.000    7.556    0.000    8.000 
#
# Total GULP energy -200815.418519 kJ/mol
# GULP energy per Si atom -5578.206070 kJ/mol
# Density = 2.030581 g / cm^3
# Si number density = 20.352134 Si / 1000 Ang^3
#
#
#
# Elastic Constant Matrix: (Units=GPa)
#
#
# Indices 1 2 3 4 5 6 
#
# 1 83.4900 65.7396 -1.5940 0.0000 0.0000 0.0000
# 2 65.7396 135.9987 1.1163 0.0000 0.0000 0.0000
# 3 -1.5940 1.1163 21.4283 0.0000 0.0000 0.0000
# 4 0.0000 0.0000 0.0000 12.8078 0.0000 0.0000
# 5 0.0000 0.0000 0.0000 0.0000 12.1567 0.0000
# 6 0.0000 0.0000 0.0000 0.0000 0.0000 22.4073
#
#
#
# Elastic Compliance Matrix: (Units=1/GPa)
#
#
# Indices 1 2 3 4 5 6 
#
# 1 0.019417 -0.009402 0.001934 0.000000 0.000000 0.000000
# 2 -0.009402 0.011909 -0.001320 0.000000 0.000000 0.000000
# 3 0.001934 -0.001320 0.046880 0.000000 0.000000 0.000000
# 4 0.000000 0.000000 0.000000 0.078078 0.000000 0.000000
# 5 0.000000 0.000000 0.000000 0.000000 0.082259 0.000000
# 6 0.000000 0.000000 0.000000 0.000000 0.000000 0.044628
#
#
# Mechanical properties :
#
#
# Convention : Reuss Voigt Hill
#
# Bulk Modulus (GPa) = 16.49326 41.27123 28.88225
# Shear Modulus (GPa) = 15.57845 21.18470 18.38158
#
# Velocity S-wave (km/s) = 2.76967 3.22981 3.00855
# Velocity P-wave (km/s) = 4.28365 5.85077 5.12743
#
# Compressibility (1/GPa) = 0.06063082
#
# Stress axis : x y z
#
# Youngs Moduli (GPa) = 51.50000 83.97282 21.33114
#
# Poissons Ratio (x) = 0.78951 -0.04126
# Poissons Ratio (y) = 0.48420 0.02815
# Poissons Ratio (z) = -0.09961 0.11082
#
# Static dielectric constant tensor:
#      x y z
#    x 1.663100 0.000000 0.000000 
#    y 0.000000 1.854760 0.000000 
#    z 0.000000 0.000000 1.716580 
# 
# From -- ./inp_files/6063.got.cif
#   From: 2010.05.17/outbox.cif.g08.bks.cpg/sg71_4_cif.got.tgz:6063.got - 2010.06.03 16:22:01.
