data_PCOD9518976
_publ_section_title
;
Structure prediction by ZEFSAII (Michael W. Deem and Ramdas Pophale) SiO2 
 PCOD9518976
Probable space group: I M M M
;
_chemical_formula_sum "Si O2"
_cell_formula_units_Z 72
_cell_length_a 7.522726
_cell_length_b 30.460559
_cell_length_c 15.981138
_cell_angle_alpha 90.000000
_cell_angle_beta 90.000000
_cell_angle_gamma 90.000000
_cell_volume 3662.020866
_symmetry_space_group_name_H-M "I M M M"
_symmetry_group_IT_number 71
_symmetry_cell_setting 'orthorhombic'
loop_
_space_group_symop_operation_xyz
x,y,z
-x,-y,z
x,-y,-z
-x,y,-z
-x,-y,-z
x,y,-z
-x,y,z
x,-y,z
1/2+x,1/2+y,1/2+z
1/2-x,1/2-y,1/2+z
1/2+x,1/2-y,1/2-z
1/2-x,1/2+y,1/2-z
1/2-x,1/2-y,1/2-z
1/2+x,1/2+y,1/2-z
1/2-x,1/2+y,1/2+z
1/2+x,1/2-y,1/2+z
loop_
_atom_site_type_symbol
_atom_site_label
_atom_site_fract_x
_atom_site_fract_y
_atom_site_fract_z
Si Si1 0.287466 0.212469 0.092770
Si Si2 0.786960 0.950167 0.728298
Si Si3 0.500000 0.052418 0.591061
Si Si4 0.217418 0.812964 0.595028
Si Si5 0.788513 0.857614 0.764276
O O1 0.500000 0.215357 0.088345
O O2 0.226481 0.262285 0.110096
O O3 0.248467 0.177544 0.164164
O O4 0.221873 0.199615 0.000000
O O5 0.677913 0.939800 0.644118
O O6 0.736707 0.907982 0.784423
O O7 0.000000 0.950193 0.715007
O O8 0.738967 0.000000 0.755669
O O9 0.500000 0.073385 0.500000
O O10 0.500000 0.000000 0.581531
O O11 0.271539 0.825237 0.500000
O O12 0.281749 0.841298 0.673907
O O13 0.000000 0.814242 0.595157
O O14 0.000000 0.858577 0.755288
#
# Coordination Sequence:
#
# PCOD9518976 Si02
#       5
#    16  16   8  16  16
#     4   9  18  32  50  71  98 131 164 206 258 309
#     4   9  19  34  50  73 104 136 173 214 258 305
#     4   9  18  32  50  72  99 135 175 213 256 302
#     4   8  15  29  47  70 101 133 164 199 246 304
#     4  10  19  30  51  76  96 131 172 208 254 303
#
# _framework density 19.661275
#
# number of rings (size 3 to 8) (size 9 to 14) (size 15 to 20)
#    0.000    3.000    0.000    2.000    1.556    1.778 
#    0.000    4.444    0.000    2.000    0.000    4.667 
#    0.000    0.000    0.000    0.000    0.000    0.000 
#
# Total GULP energy -200421.517265 kJ/mol
# GULP energy per Si atom -5567.264368 kJ/mol
# Density = 1.961652 g / cm^3
# Si number density = 19.661275 Si / 1000 Ang^3
#
#
#
# Elastic Constant Matrix: (Units=GPa)
#
#
# Indices 1 2 3 4 5 6 
#
# 1 38.2329 12.1706 -1.0889 0.0000 0.0000 0.0000
# 2 12.1706 157.7809 81.7635 0.0000 0.0000 0.0000
# 3 -1.0889 81.7635 84.5806 0.0000 0.0000 0.0000
# 4 0.0000 0.0000 0.0000 9.9814 0.0000 0.0000
# 5 0.0000 0.0000 0.0000 0.0000 27.6516 0.0000
# 6 0.0000 0.0000 0.0000 0.0000 0.0000 11.2371
#
#
#
# Elastic Compliance Matrix: (Units=1/GPa)
#
#
# Indices 1 2 3 4 5 6 
#
# 1 0.027779 -0.004665 0.004867 0.000000 0.000000 0.000000
# 2 -0.004665 0.013483 -0.013094 0.000000 0.000000 0.000000
# 3 0.004867 -0.013094 0.024544 0.000000 0.000000 0.000000
# 4 0.000000 0.000000 0.000000 0.100186 0.000000 0.000000
# 5 0.000000 0.000000 0.000000 0.000000 0.036164 0.000000
# 6 0.000000 0.000000 0.000000 0.000000 0.000000 0.088991
#
#
# Mechanical properties :
#
#
# Convention : Reuss Voigt Hill
#
# Bulk Modulus (GPa) = 24.98607 51.80943 38.39775
# Shear Modulus (GPa) = 15.13902 22.29064 18.71483
#
# Velocity S-wave (km/s) = 2.77788 3.37075 3.08857
# Velocity P-wave (km/s) = 4.79841 6.44651 5.68252
#
# Compressibility (1/GPa) = 0.04002229
#
# Stress axis : x y z
#
# Youngs Moduli (GPa) = 35.99821 74.16548 40.74326
#
# Poissons Ratio (x) = 0.34599 -0.19831
# Poissons Ratio (y) = 0.16793 0.53351
# Poissons Ratio (z) = -0.17522 0.97115
#
# Static dielectric constant tensor:
#      x y z
#    x 1.905400 0.000000 0.000000 
#    y 0.000000 1.740160 0.000000 
#    z 0.000000 0.000000 1.702710 
# 
# From -- ./inp_files/6420.got.cif
#   From: 2010.05.17/outbox.cif.g08.bks.cpg/sg71_4_cif.got.tgz:6420.got - 2010.06.03 16:22:01.
