data_PCOD9518406
_publ_section_title
;
Structure prediction by ZEFSAII (Michael W. Deem and Ramdas Pophale) SiO2 
 PCOD9518406
Probable space group: I M M M
;
_chemical_formula_sum "Si O2"
_cell_formula_units_Z 104
_cell_length_a 29.269915
_cell_length_b 8.365133
_cell_length_c 22.793674
_cell_angle_alpha 90.000000
_cell_angle_beta 90.000000
_cell_angle_gamma 90.000000
_cell_volume 5580.956586
_symmetry_space_group_name_H-M "I M M M"
_symmetry_group_IT_number 71
_symmetry_cell_setting 'orthorhombic'
loop_
_space_group_symop_operation_xyz
x,y,z
-x,-y,z
x,-y,-z
-x,y,-z
-x,-y,-z
x,y,-z
-x,y,z
x,-y,z
1/2+x,1/2+y,1/2+z
1/2-x,1/2-y,1/2+z
1/2+x,1/2-y,1/2-z
1/2-x,1/2+y,1/2-z
1/2-x,1/2-y,1/2-z
1/2+x,1/2+y,1/2-z
1/2-x,1/2+y,1/2+z
1/2+x,1/2-y,1/2+z
loop_
_atom_site_type_symbol
_atom_site_label
_atom_site_fract_x
_atom_site_fract_y
_atom_site_fract_z
Si Si1 0.448286 0.804830 0.738499
Si Si2 0.118743 0.684585 0.341686
Si Si3 0.448347 0.686566 0.930076
Si Si4 0.210055 0.812936 0.313429
Si Si5 0.053864 0.304348 0.000000
Si Si6 0.306269 0.311187 0.679852
Si Si7 0.602020 0.807644 0.620860
O O1 0.500000 0.750653 0.749753
O O2 0.411942 0.753000 0.787372
O O3 0.430557 0.755191 0.674541
O O4 0.448655 0.000000 0.740070
O O5 0.130599 0.500000 0.330393
O O6 0.086979 0.702296 0.397750
O O7 0.164671 0.783253 0.349842
O O8 0.500000 0.726449 0.911696
O O9 0.439965 0.500000 0.914995
O O10 0.445870 0.699972 0.000000
O O11 0.254523 0.727275 0.339226
O O12 0.195976 0.751301 0.247875
O O13 0.220797 0.000000 0.308074
O O14 0.081247 0.252053 0.941351
O O15 0.053602 0.500000 0.000000
O O16 0.000000 0.256448 0.000000
O O17 0.313919 0.500000 0.681685
O O18 0.346640 0.239650 0.640370
O O19 0.600846 0.000000 0.619211
#
# Coordination Sequence:
#
# PCOD9518406 Si02
#       7
#    16  16  16  16   8  16  16
#     4   9  17  28  45  73 108 141 172 212 262 313
#     4  11  20  31  51  80 111 139 173 218 271 321
#     4   9  19  36  55  74 102 143 184 217 255 308
#     4  10  20  34  54  79 108 139 175 215 266 326
#     4   9  18  32  55  85 111 145 195 239 270 315
#     4  10  20  34  54  79 107 137 174 218 269 326
#     4  10  18  32  54  78 108 144 184 227 272 319
#
# _framework density 18.634799000000001
#
# number of rings (size 3 to 8) (size 9 to 14) (size 15 to 20)
#    0.000    2.231    1.538    2.769    0.000    4.308 
#    0.000    1.154    1.692    3.231    0.000    0.000 
#    0.000    0.000    0.000    0.000    0.000    0.000 
#
# Total GULP energy -289973.199510 kJ/mol
# GULP energy per Si atom -5576.407683 kJ/mol
# Density = 1.859239 g / cm^3
# Si number density = 18.634799 Si / 1000 Ang^3
#
#
#
# Elastic Constant Matrix: (Units=GPa)
#
#
# Indices 1 2 3 4 5 6 
#
# 1 120.8232 8.2192 32.8695 0.0000 0.0000 0.0000
# 2 8.2192 9.9269 7.2831 0.0000 0.0000 0.0000
# 3 32.8695 7.2831 46.2935 0.0000 0.0000 0.0000
# 4 0.0000 0.0000 0.0000 16.1299 0.0000 0.0000
# 5 0.0000 0.0000 0.0000 0.0000 23.9179 0.0000
# 6 0.0000 0.0000 0.0000 0.0000 0.0000 22.8862
#
#
#
# Elastic Compliance Matrix: (Units=1/GPa)
#
#
# Indices 1 2 3 4 5 6 
#
# 1 0.010371 -0.003600 -0.006797 0.000000 0.000000 0.000000
# 2 -0.003600 0.115130 -0.015557 0.000000 0.000000 0.000000
# 3 -0.006797 -0.015557 0.028875 0.000000 0.000000 0.000000
# 4 0.000000 0.000000 0.000000 0.061997 0.000000 0.000000
# 5 0.000000 0.000000 0.000000 0.000000 0.041810 0.000000
# 6 0.000000 0.000000 0.000000 0.000000 0.000000 0.043694
#
#
# Mechanical properties :
#
#
# Convention : Reuss Voigt Hill
#
# Bulk Modulus (GPa) = 9.75912 30.42080 20.08996
# Shear Modulus (GPa) = 12.88859 21.16492 17.02676
#
# Velocity S-wave (km/s) = 2.63276 3.37378 3.02604
# Velocity P-wave (km/s) = 3.80661 5.61575 4.79724
#
# Compressibility (1/GPa) = 0.10246826
#
# Stress axis : x y z
#
# Youngs Moduli (GPa) = 96.42705 8.68582 34.63220
#
# Poissons Ratio (x) = 0.03127 0.23540
# Poissons Ratio (y) = 0.34711 0.53877
# Poissons Ratio (z) = 0.65542 0.13512
#
# Static dielectric constant tensor:
#      x y z
#    x 1.651590 0.000000 0.000000 
#    y 0.000000 1.663220 0.000000 
#    z 0.000000 0.000000 1.652900 
# 
# From -- ./inp_files/11555.got.cif
#   From: 2010.05.17/outbox.cif.g08.bks.cpg/sg71_6_cif.got.tgz:11555.got - 2010.06.03 16:22:01.
