data_PCOD9518205
_publ_section_title
;
Structure prediction by ZEFSAII (Michael W. Deem and Ramdas Pophale) SiO2 
 PCOD9518205
Probable space group: I M M M
;
_chemical_formula_sum "Si O2"
_cell_formula_units_Z 112
_cell_length_a 13.233180
_cell_length_b 35.050616
_cell_length_c 14.353438
_cell_angle_alpha 90.000000
_cell_angle_beta 90.000000
_cell_angle_gamma 90.000000
_cell_volume 6657.571089
_symmetry_space_group_name_H-M "I M M M"
_symmetry_group_IT_number 71
_symmetry_cell_setting 'orthorhombic'
loop_
_space_group_symop_operation_xyz
x,y,z
-x,-y,z
x,-y,-z
-x,y,-z
-x,-y,-z
x,y,-z
-x,y,z
x,-y,z
1/2+x,1/2+y,1/2+z
1/2-x,1/2-y,1/2+z
1/2+x,1/2-y,1/2-z
1/2-x,1/2+y,1/2-z
1/2-x,1/2-y,1/2-z
1/2+x,1/2+y,1/2-z
1/2-x,1/2+y,1/2+z
1/2+x,1/2-y,1/2+z
loop_
_atom_site_type_symbol
_atom_site_label
_atom_site_fract_x
_atom_site_fract_y
_atom_site_fract_z
Si Si1 0.112788 0.667480 0.230728
Si Si2 0.693777 0.785131 0.889194
Si Si3 0.115814 0.545758 0.609830
Si Si4 0.787844 0.800905 0.388986
Si Si5 0.382606 0.663168 0.611988
Si Si6 0.242997 0.099979 0.223869
Si Si7 0.881086 0.117580 0.391675
O O1 0.120818 0.688182 0.330279
O O2 0.182553 0.691217 0.161023
O O3 0.165237 0.626910 0.243483
O O4 0.000000 0.664647 0.197135
O O5 0.676798 0.741238 0.861718
O O6 0.807324 0.801151 0.867395
O O7 0.679178 0.788881 0.000000
O O8 0.127143 0.555145 0.500000
O O9 0.122164 0.500000 0.618997
O O10 0.203744 0.566166 0.667940
O O11 0.000000 0.556976 0.636692
O O12 0.775339 0.800020 0.500000
O O13 0.857143 0.837753 0.367726
O O14 0.381645 0.658395 0.500000
O O15 0.500000 0.668027 0.640892
O O16 0.330076 0.626470 0.659750
O O17 0.179418 0.092212 0.317539
O O18 0.850966 0.111929 0.500000
O O19 0.000000 0.111274 0.384001
#
# Coordination Sequence:
#
# PCOD9518205 Si02
#       7
#    16  16  16  16  16  16  16
#     4  10  20  30  42  64  91 119 152 189 232 282
#     4   9  18  31  44  61  87 118 155 199 243 287
#     4   9  18  33  55  83 110 133 155 179 215 271
#     4   9  18  32  47  63  86 117 157 206 251 286
#     4   9  17  28  43  65  92 124 162 199 239 291
#     4  10  18  31  50  71  96 126 157 194 235 278
#     4   9  18  32  50  71  93 123 167 212 250 287
#
# _framework density 16.822952999999998
#
# number of rings (size 3 to 8) (size 9 to 14) (size 15 to 20)
#    0.000    2.714    0.000    2.143    0.000    2.286 
#    0.000    2.857    0.000    3.429    0.000    7.000 
#    0.000    0.000    0.000    0.000    0.000    0.000 
#
# Total GULP energy -312014.513475 kJ/mol
# GULP energy per Si atom -5571.687741 kJ/mol
# Density = 1.678466 g / cm^3
# Si number density = 16.822953 Si / 1000 Ang^3
#
#
#
# Elastic Constant Matrix: (Units=GPa)
#
#
# Indices 1 2 3 4 5 6 
#
# 1 64.6866 14.2260 33.9906 0.0001 -0.0001 0.0000
# 2 14.2260 31.1131 25.9281 0.0000 0.0000 0.0000
# 3 33.9906 25.9281 53.6163 -0.0004 0.0001 0.0000
# 4 0.0001 0.0000 -0.0004 21.8645 0.0001 0.0000
# 5 -0.0001 0.0000 0.0001 0.0001 6.3359 -0.0001
# 6 0.0000 0.0000 0.0000 0.0000 -0.0001 9.2656
#
#
#
# Elastic Compliance Matrix: (Units=1/GPa)
#
#
# Indices 1 2 3 4 5 6 
#
# 1 0.023324 0.002777 -0.016129 0.000000 0.000000 0.000000
# 2 0.002777 0.054168 -0.027955 -0.000001 0.000001 0.000000
# 3 -0.016129 -0.027955 0.042395 0.000001 -0.000001 0.000000
# 4 0.000000 -0.000001 0.000001 0.045736 -0.000001 0.000000
# 5 0.000000 0.000001 -0.000001 -0.000001 0.157831 0.000001
# 6 0.000000 0.000000 0.000000 0.000000 0.000001 0.107927
#
#
# Mechanical properties :
#
#
# Convention : Reuss Voigt Hill
#
# Bulk Modulus (GPa) = 26.83017 33.07835 29.95426
# Shear Modulus (GPa) = 9.49815 12.51128 11.00471
#
# Velocity S-wave (km/s) = 2.37870 2.73005 2.56041
# Velocity P-wave (km/s) = 4.85051 5.44453 5.15608
#
# Compressibility (1/GPa) = 0.03727148
#
# Stress axis : x y z
#
# Youngs Moduli (GPa) = 42.87460 18.46125 23.58769
#
# Poissons Ratio (x) = -0.05126 0.38045
# Poissons Ratio (y) = -0.11906 0.65939
# Poissons Ratio (z) = 0.69153 0.51609
#
# Static dielectric constant tensor:
#      x y z
#    x 1.568000 0.000000 0.000000 
#    y 0.000000 1.554700 0.000000 
#    z 0.000000 0.000000 1.594550 
# 
# From -- ./inp_files/22680.got.cif
#   From: 2010.05.17/outbox.cif.g08.bks.cpg/sg71_12_cif.got.tgz:22680.got - 2010.06.03 16:22:01.
