data_PCOD9518036
_publ_section_title
;
Structure prediction by ZEFSAII (Michael W. Deem and Ramdas Pophale) SiO2 
 PCOD9518036
Probable space group: I M M M
;
_chemical_formula_sum "Si O2"
_cell_formula_units_Z 96
_cell_length_a 23.061014
_cell_length_b 21.193019
_cell_length_c 12.858123
_cell_angle_alpha 90.000000
_cell_angle_beta 90.000000
_cell_angle_gamma 90.000000
_cell_volume 6284.182700
_symmetry_space_group_name_H-M "I M M M"
_symmetry_group_IT_number 71
_symmetry_cell_setting 'orthorhombic'
loop_
_space_group_symop_operation_xyz
x,y,z
-x,-y,z
x,-y,-z
-x,y,-z
-x,-y,-z
x,y,-z
-x,y,z
x,-y,z
1/2+x,1/2+y,1/2+z
1/2-x,1/2-y,1/2+z
1/2+x,1/2-y,1/2-z
1/2-x,1/2+y,1/2-z
1/2-x,1/2-y,1/2-z
1/2+x,1/2+y,1/2-z
1/2-x,1/2+y,1/2+z
1/2+x,1/2-y,1/2+z
loop_
_atom_site_type_symbol
_atom_site_label
_atom_site_fract_x
_atom_site_fract_y
_atom_site_fract_z
Si Si1 0.384075 0.354752 0.623940
Si Si2 0.143239 0.380522 0.376757
Si Si3 0.731513 0.575794 0.295763
Si Si4 0.066221 0.500000 0.373813
Si Si5 0.000000 0.928532 0.126178
Si Si6 0.758024 0.825343 0.376588
Si Si7 0.655169 0.238690 0.252658
O O1 0.385197 0.344720 0.500000
O O2 0.325601 0.393736 0.651656
O O3 0.441076 0.393376 0.656095
O O4 0.382764 0.288781 0.684944
O O5 0.137204 0.369969 0.500000
O O6 0.210060 0.400183 0.353462
O O7 0.102195 0.438170 0.343655
O O8 0.127850 0.318352 0.311723
O O9 0.729254 0.500000 0.296154
O O10 0.735320 0.607587 0.181585
O O11 0.064985 0.500000 0.500000
O O12 0.000000 0.500000 0.336726
O O13 0.000000 0.000000 0.164975
O O14 0.000000 0.930492 0.000000
O O15 0.760210 0.829329 0.500000
O O16 0.698952 0.793296 0.335376
O O17 0.807267 0.779478 0.329590
#
# Coordination Sequence:
#
# PCOD9518036 Si02
#       7
#    16  16  16   8   8  16  16
#     4  10  19  31  48  69  96 125 155 193 235 278
#     4  10  18  30  49  71  98 123 151 195 238 278
#     4  10  19  29  46  73  96 120 160 194 233 283
#     4   9  18  32  48  68  95 126 154 186 236 282
#     4   9  18  32  48  68  95 126 155 188 235 280
#     4   9  17  29  44  65  99 129 150 189 240 281
#     4   9  18  29  45  70  93 122 161 190 228 282
#
# _framework density 15.276450000000001
#
# number of rings (size 3 to 8) (size 9 to 14) (size 15 to 20)
#    0.000    2.500    0.833    3.000    0.000    2.000 
#    1.500    0.000    0.000    0.000    0.000    5.250 
#    0.000   38.667    0.000    0.000    0.000    0.000 
#
# Total GULP energy -267465.981446 kJ/mol
# GULP energy per Si atom -5572.207947 kJ/mol
# Density = 1.524168 g / cm^3
# Si number density = 15.276450 Si / 1000 Ang^3
#
#
#
# Elastic Constant Matrix: (Units=GPa)
#
#
# Indices 1 2 3 4 5 6 
#
# 1 101.0626 54.0861 25.9208 0.0000 0.0000 0.0000
# 2 54.0861 148.7318 49.1039 0.0000 0.0000 0.0000
# 3 25.9208 49.1039 95.5146 0.0000 0.0000 0.0000
# 4 0.0000 0.0000 0.0000 23.7080 0.0000 0.0000
# 5 0.0000 0.0000 0.0000 0.0000 7.6621 0.0000
# 6 0.0000 0.0000 0.0000 0.0000 0.0000 20.9748
#
#
#
# Elastic Compliance Matrix: (Units=1/GPa)
#
#
# Indices 1 2 3 4 5 6 
#
# 1 0.012411 -0.004097 -0.001262 0.000000 0.000000 0.000000
# 2 -0.004097 0.009450 -0.003747 0.000000 0.000000 0.000000
# 3 -0.001262 -0.003747 0.012738 0.000000 0.000000 0.000000
# 4 0.000000 0.000000 0.000000 0.042180 0.000000 0.000000
# 5 0.000000 0.000000 0.000000 0.000000 0.130512 0.000000
# 6 0.000000 0.000000 0.000000 0.000000 0.000000 0.047676
#
#
# Mechanical properties :
#
#
# Convention : Reuss Voigt Hill
#
# Bulk Modulus (GPa) = 61.01687 67.05897 64.03792
# Shear Modulus (GPa) = 17.94423 24.88219 21.41321
#
# Velocity S-wave (km/s) = 3.43101 4.04021 3.74801
# Velocity P-wave (km/s) = 7.46487 8.10905 7.79362
#
# Compressibility (1/GPa) = 0.01638891
#
# Stress axis : x y z
#
# Youngs Moduli (GPa) = 80.57420 105.81847 78.50393
#
# Poissons Ratio (x) = 0.43349 0.09908
# Poissons Ratio (y) = 0.33008 0.29412
# Poissons Ratio (z) = 0.10169 0.39646
#
# Static dielectric constant tensor:
#      x y z
#    x 1.501310 0.000000 0.000000 
#    y 0.000000 1.512610 0.000000 
#    z 0.000000 0.000000 1.484530 
# 
# From -- ./inp_files/25997.got.cif
#   From: 2010.05.17/outbox.cif.g08.bks.cpg/sg71_13_cif.got.tgz:25997.got - 2010.06.03 16:22:01.
