data_PCOD9518640
_publ_section_title
;
Structure prediction by ZEFSAII (Michael W. Deem and Ramdas Pophale) SiO2 
 PCOD9518640
Probable space group: I M M M
;
_chemical_formula_sum "Si O2"
_cell_formula_units_Z 104
_cell_length_a 29.003929
_cell_length_b 9.210293
_cell_length_c 32.508078
_cell_angle_alpha 90.000000
_cell_angle_beta 90.000000
_cell_angle_gamma 90.000000
_cell_volume 8684.035152
_symmetry_space_group_name_H-M "I M M M"
_symmetry_group_IT_number 71
_symmetry_cell_setting 'orthorhombic'
loop_
_space_group_symop_operation_xyz
x,y,z
-x,-y,z
x,-y,-z
-x,y,-z
-x,-y,-z
x,y,-z
-x,y,z
x,-y,z
1/2+x,1/2+y,1/2+z
1/2-x,1/2-y,1/2+z
1/2+x,1/2-y,1/2-z
1/2-x,1/2+y,1/2-z
1/2-x,1/2-y,1/2-z
1/2+x,1/2+y,1/2-z
1/2-x,1/2+y,1/2+z
1/2+x,1/2-y,1/2+z
loop_
_atom_site_type_symbol
_atom_site_label
_atom_site_fract_x
_atom_site_fract_y
_atom_site_fract_z
Si Si1 0.233095 0.832582 0.617700
Si Si2 0.135555 0.834343 0.332831
Si Si3 0.408720 0.675289 0.083184
Si Si4 0.317726 0.171610 0.951627
Si Si5 0.821215 0.333669 0.737986
Si Si6 0.722659 0.332736 0.310262
Si Si7 0.500000 0.171603 0.049446
O O1 0.184581 0.832957 0.642932
O O2 0.221618 0.741885 0.576914
O O3 0.269360 0.757109 0.648102
O O4 0.244540 0.000000 0.608962
O O5 0.099256 0.794004 0.368224
O O6 0.141966 0.732631 0.293647
O O7 0.127363 0.000000 0.319535
O O8 0.408589 0.500000 0.078027
O O9 0.365151 0.745416 0.059605
O O10 0.454926 0.748309 0.066773
O O11 0.322763 0.000000 0.942192
O O12 0.308453 0.187331 0.000000
O O13 0.831244 0.500000 0.748075
O O14 0.772081 0.330790 0.713655
O O15 0.813059 0.240175 0.778852
O O16 0.711466 0.500000 0.318575
O O17 0.500000 0.000000 0.059932
O O18 0.500000 0.182731 0.000000
#
# Coordination Sequence:
#
# PCOD9518640 Si02
#       7
#    16  16  16  16  16  16   8
#     4   9  16  25  36  49  65  84 107 132 156 186
#     4   8  15  26  37  50  66  82 100 123 152 186
#     4  10  20  32  45  57  68  83 104 131 163 202
#     4  10  19  29  40  53  68  85 106 133 166 203
#     4   9  15  21  32  49  66  85 106 124 144 176
#     4   9  15  22  32  46  66  88 106 126 151 178
#     4  11  23  35  45  57  71  85 103 131 169 211
#
# _framework density 11.975999
#
# number of rings (size 3 to 8) (size 9 to 14) (size 15 to 20)
#    0.000    2.692    0.000    3.923    0.000   11.692 
#    0.000    0.000    0.000    0.000    0.000    0.000 
#    0.000    0.000    0.000    0.000    0.000    0.000 
#
# Total GULP energy -289589.173527 kJ/mol
# GULP energy per Si atom -5569.022568 kJ/mol
# Density = 1.194874 g / cm^3
# Si number density = 11.975999 Si / 1000 Ang^3
#
#
#
# Elastic Constant Matrix: (Units=GPa)
#
#
# Indices 1 2 3 4 5 6 
#
# 1 20.0441 29.4060 32.2970 0.0000 0.0000 0.0000
# 2 29.4060 108.1932 63.5716 0.0000 0.0000 0.0000
# 3 32.2970 63.5716 77.2079 0.0000 0.0000 0.0000
# 4 0.0000 0.0000 0.0000 22.1970 0.0000 0.0000
# 5 0.0000 0.0000 0.0000 0.0000 19.8238 0.0000
# 6 0.0000 0.0000 0.0000 0.0000 0.0000 9.8310
#
#
#
# Elastic Compliance Matrix: (Units=1/GPa)
#
#
# Indices 1 2 3 4 5 6 
#
# 1 0.156443 -0.007880 -0.058954 0.000000 0.000000 0.000000
# 2 -0.007880 0.018302 -0.011773 0.000000 0.000000 0.000000
# 3 -0.058954 -0.011773 0.047307 0.000000 0.000000 0.000000
# 4 0.000000 0.000000 0.000000 0.045051 0.000000 0.000000
# 5 0.000000 0.000000 0.000000 0.000000 0.050444 0.000000
# 6 0.000000 0.000000 0.000000 0.000000 0.000000 0.101719
#
#
# Mechanical properties :
#
#
# Convention : Reuss Voigt Hill
#
# Bulk Modulus (GPa) = 15.42306 50.66604 33.04455
# Shear Modulus (GPa) = 8.35989 15.71507 12.03748
#
# Velocity S-wave (km/s) = 2.64494 3.62638 3.17382
# Velocity P-wave (km/s) = 4.71528 7.74160 6.40961
#
# Compressibility (1/GPa) = 0.06483796
#
# Stress axis : x y z
#
# Youngs Moduli (GPa) = 6.39210 54.63813 21.13845
#
# Poissons Ratio (x) = 0.43056 1.24619
# Poissons Ratio (y) = 0.05037 0.24887
# Poissons Ratio (z) = 0.37684 0.64328
#
# Static dielectric constant tensor:
#      x y z
#    x 1.360440 0.000000 0.000000 
#    y 0.000000 1.404280 0.000000 
#    z 0.000000 0.000000 1.389490 
# 
# From -- ./inp_files/67292.got.cif
#   From: 2010.05.17/outbox.cif.g08.bks.cpg/sg71_34_cif.got.tgz:67292.got - 2010.06.03 16:22:01.
