data_PCOD9518856
_publ_section_title
;
Structure prediction by ZEFSAII (Michael W. Deem and Ramdas Pophale) SiO2 
 PCOD9518856
Probable space group: I M M M
;
_chemical_formula_sum "Si O2"
_cell_formula_units_Z 104
_cell_length_a 11.100473
_cell_length_b 31.137748
_cell_length_c 18.138632
_cell_angle_alpha 90.000000
_cell_angle_beta 90.000000
_cell_angle_gamma 90.000000
_cell_volume 6269.504439
_symmetry_space_group_name_H-M "I M M M"
_symmetry_group_IT_number 71
_symmetry_cell_setting 'orthorhombic'
loop_
_space_group_symop_operation_xyz
x,y,z
-x,-y,z
x,-y,-z
-x,y,-z
-x,-y,-z
x,y,-z
-x,y,z
x,-y,z
1/2+x,1/2+y,1/2+z
1/2-x,1/2-y,1/2+z
1/2+x,1/2-y,1/2-z
1/2-x,1/2+y,1/2-z
1/2-x,1/2-y,1/2-z
1/2+x,1/2+y,1/2-z
1/2-x,1/2+y,1/2+z
1/2+x,1/2-y,1/2+z
loop_
_atom_site_type_symbol
_atom_site_label
_atom_site_fract_x
_atom_site_fract_y
_atom_site_fract_z
Si Si1 0.763896 0.337999 0.912885
Si Si2 0.134661 0.257791 0.840006
Si Si3 0.135423 0.948229 0.500000
Si Si4 0.640277 0.107023 0.283511
Si Si5 0.690583 0.189281 0.192457
Si Si6 0.500000 0.323976 0.089333
Si Si7 0.143971 0.948239 0.664727
Si Si8 0.500000 0.224815 0.087318
O O1 0.787914 0.287675 0.894903
O O2 0.848776 0.365541 0.859822
O O3 0.625197 0.345240 0.888010
O O4 0.776902 0.346180 0.000000
O O5 0.180488 0.209802 0.825346
O O6 0.142598 0.282103 0.761276
O O7 0.000000 0.258319 0.867796
O O8 0.184247 0.937158 0.580023
O O9 0.000000 0.930574 0.500000
O O10 0.128758 0.000000 0.500000
O O11 0.500000 0.092634 0.276002
O O12 0.673710 0.141086 0.219585
O O13 0.749916 0.072922 0.287167
O O14 0.612624 0.200444 0.121658
O O15 0.500000 0.274377 0.113840
O O16 0.500000 0.323654 0.000000
O O17 0.000000 0.936642 0.674571
O O18 0.147034 0.000000 0.671773
O O19 0.500000 0.225098 0.000000
#
# Coordination Sequence:
#
# PCOD9518856 Si02
#       8
#    16  16   8  16  16   8  16   8
#     4  10  20  32  45  67  99 136 178 217 253 288
#     4  10  19  30  47  64  93 139 162 206 257 298
#     4   7  12  28  51  71  93 123 163 205 237 271
#     4  11  23  34  49  71 101 136 160 210 259 302
#     4  10  19  33  46  67  98 122 168 202 249 308
#     4   9  18  30  46  70  91 124 182 229 246 275
#     4   9  19  36  56  76  98 130 170 208 248 293
#     4  11  18  32  56  70  88 124 171 221 247 284
#
# _framework density 16.588232000000001
#
# number of rings (size 3 to 8) (size 9 to 14) (size 15 to 20)
#    0.000    2.231    3.077    2.308    2.154    2.154 
#    0.000    0.000    0.000    1.385    0.000    0.000 
#    0.000    1.231    0.000    1.692    0.000    0.000 
#
# Total GULP energy -289581.028409 kJ/mol
# GULP energy per Si atom -5568.865931 kJ/mol
# Density = 1.655048 g / cm^3
# Si number density = 16.588232 Si / 1000 Ang^3
#
#
#
# Elastic Constant Matrix: (Units=GPa)
#
#
# Indices 1 2 3 4 5 6 
#
# 1 102.1822 41.1986 1.8732 0.0000 0.0000 0.0000
# 2 41.1986 70.5144 19.4986 0.0000 0.0000 0.0000
# 3 1.8732 19.4986 33.8336 -0.0001 0.0000 0.0000
# 4 0.0000 0.0000 -0.0001 22.3486 0.0000 0.0000
# 5 0.0000 0.0000 0.0000 0.0000 18.1401 0.0000
# 6 0.0000 0.0000 0.0000 0.0000 0.0000 19.0594
#
#
#
# Elastic Compliance Matrix: (Units=1/GPa)
#
#
# Indices 1 2 3 4 5 6 
#
# 1 0.013347 -0.009033 0.004467 0.000000 0.000000 0.000000
# 2 -0.009033 0.022983 -0.012745 0.000000 0.000000 0.000000
# 3 0.004467 -0.012745 0.036654 0.000000 0.000000 0.000000
# 4 0.000000 0.000000 0.000000 0.044745 0.000000 0.000000
# 5 0.000000 0.000000 0.000000 0.000000 0.055126 0.000000
# 6 0.000000 0.000000 0.000000 0.000000 0.000000 0.052467
#
#
# Mechanical properties :
#
#
# Convention : Reuss Voigt Hill
#
# Bulk Modulus (GPa) = 26.06797 36.85234 31.46015
# Shear Modulus (GPa) = 18.33287 21.50696 19.91992
#
# Velocity S-wave (km/s) = 3.32802 3.60463 3.46908
# Velocity P-wave (km/s) = 5.52417 6.29195 5.92052
#
# Compressibility (1/GPa) = 0.03836126
#
# Stress axis : x y z
#
# Youngs Moduli (GPa) = 74.92568 43.50953 27.28183
#
# Poissons Ratio (x) = 0.39302 -0.12186
# Poissons Ratio (y) = 0.67680 0.34772
# Poissons Ratio (z) = -0.33468 0.55455
#
# Static dielectric constant tensor:
#      x y z
#    x 1.619520 0.000000 0.000000 
#    y 0.000000 1.595520 0.000000 
#    z 0.000000 0.000000 1.543710 
# 
# From -- ./inp_files/43813.got.cif
#   From: 2010.05.17/outbox.cif.g08.bks.cpg/sg71_22_cif.got.tgz:43813.got - 2010.06.03 16:22:01.
