data_PCOD9518802
_publ_section_title
;
Structure prediction by ZEFSAII (Michael W. Deem and Ramdas Pophale) SiO2 
 PCOD9518802
Probable space group: I M M M
;
_chemical_formula_sum "Si O2"
_cell_formula_units_Z 96
_cell_length_a 24.243290
_cell_length_b 10.787016
_cell_length_c 21.978902
_cell_angle_alpha 90.000000
_cell_angle_beta 90.000000
_cell_angle_gamma 90.000000
_cell_volume 5747.763261
_symmetry_space_group_name_H-M "I M M M"
_symmetry_group_IT_number 71
_symmetry_cell_setting 'orthorhombic'
loop_
_space_group_symop_operation_xyz
x,y,z
-x,-y,z
x,-y,-z
-x,y,-z
-x,-y,-z
x,y,-z
-x,y,z
x,-y,z
1/2+x,1/2+y,1/2+z
1/2-x,1/2-y,1/2+z
1/2+x,1/2-y,1/2-z
1/2-x,1/2+y,1/2-z
1/2-x,1/2-y,1/2-z
1/2+x,1/2+y,1/2-z
1/2-x,1/2+y,1/2+z
1/2+x,1/2-y,1/2+z
loop_
_atom_site_type_symbol
_atom_site_label
_atom_site_fract_x
_atom_site_fract_y
_atom_site_fract_z
Si Si1 0.118558 0.853447 0.812012
Si Si2 0.381325 0.350194 0.930095
Si Si3 0.278441 0.258754 0.853191
Si Si4 0.194082 0.366522 0.235825
Si Si5 0.183524 0.854102 0.931413
Si Si6 0.500000 0.651104 0.878123
Si Si7 0.000000 0.850879 0.238562
O O1 0.157276 0.754661 0.777840
O O2 0.134410 0.839814 0.882771
O O3 0.056084 0.819373 0.796002
O O4 0.128013 0.000000 0.795551
O O5 0.379959 0.500000 0.928059
O O6 0.334906 0.302119 0.883830
O O7 0.443053 0.310927 0.910376
O O8 0.370387 0.312282 0.000000
O O9 0.246503 0.355479 0.809306
O O10 0.288059 0.146837 0.805819
O O11 0.235433 0.220147 0.905163
O O12 0.166921 0.500000 0.225491
O O13 0.197634 0.000000 0.931537
O O14 0.169550 0.816895 0.000000
O O15 0.500000 0.500000 0.878559
O O16 0.500000 0.694473 0.808120
O O17 0.000000 0.000000 0.242643
#
# Coordination Sequence:
#
# PCOD9518802 Si02
#       7
#    16  16  16  16  16   8   8
#     4   9  18  32  51  73  98 128 161 199 243 289
#     4  10  19  30  45  67  94 124 161 201 238 280
#     4  10  19  30  47  67  95 128 163 196 239 289
#     4  10  20  32  48  72 101 129 160 202 247 289
#     4   9  17  30  47  68  95 125 157 194 236 283
#     4   9  17  28  43  64  92 123 154 197 246 282
#     4   9  16  29  50  74  97 125 162 199 240 290
#
# _framework density 16.702148999999999
#
# number of rings (size 3 to 8) (size 9 to 14) (size 15 to 20)
#    0.000    2.500    0.000    2.750    0.000    7.000 
#    0.000    0.833    0.000    7.000    0.000    1.750 
#    0.000   13.333    0.000    0.000    0.000    0.000 
#
# Total GULP energy -267306.449749 kJ/mol
# GULP energy per Si atom -5568.884370 kJ/mol
# Density = 1.666413 g / cm^3
# Si number density = 16.702149 Si / 1000 Ang^3
#
#
#
# Elastic Constant Matrix: (Units=GPa)
#
#
# Indices 1 2 3 4 5 6 
#
# 1 115.6592 29.4989 51.5528 0.0000 0.0000 0.0000
# 2 29.4989 57.7686 26.5274 0.0000 0.0000 0.0000
# 3 51.5528 26.5274 101.9759 0.0000 0.0000 0.0000
# 4 0.0000 0.0000 0.0000 5.6247 0.0000 0.0000
# 5 0.0000 0.0000 0.0000 0.0000 20.3052 0.0000
# 6 0.0000 0.0000 0.0000 0.0000 0.0000 9.5654
#
#
#
# Elastic Compliance Matrix: (Units=1/GPa)
#
#
# Indices 1 2 3 4 5 6 
#
# 1 0.011833 -0.003743 -0.005009 0.000000 0.000000 0.000000
# 2 -0.003743 0.020842 -0.003530 0.000000 0.000000 0.000000
# 3 -0.005009 -0.003530 0.013256 0.000000 0.000000 0.000000
# 4 0.000000 0.000000 0.000000 0.177786 0.000000 0.000000
# 5 0.000000 0.000000 0.000000 0.000000 0.049249 0.000000
# 6 0.000000 0.000000 0.000000 0.000000 0.000000 0.104543
#
#
# Mechanical properties :
#
#
# Convention : Reuss Voigt Hill
#
# Bulk Modulus (GPa) = 46.79408 54.50687 50.65048
# Shear Modulus (GPa) = 12.21912 18.28737 15.25324
#
# Velocity S-wave (km/s) = 2.70773 3.31253 3.02528
# Velocity P-wave (km/s) = 6.15251 6.88012 6.52646
#
# Compressibility (1/GPa) = 0.02137023
#
# Stress axis : x y z
#
# Youngs Moduli (GPa) = 84.50886 47.97906 75.43485
#
# Poissons Ratio (x) = 0.17956 0.37782
# Poissons Ratio (y) = 0.31628 0.26627
# Poissons Ratio (z) = 0.42327 0.16936
#
# Static dielectric constant tensor:
#      x y z
#    x 1.561530 0.000000 0.000000 
#    y 0.000000 1.569430 0.000000 
#    z 0.000000 0.000000 1.575140 
# 
# From -- ./inp_files/54931.got.cif
#   From: 2010.05.17/outbox.cif.g08.bks.cpg/sg71_28_cif.got.tgz:54931.got - 2010.06.03 16:22:01.
