data_PCOD9518220
_publ_section_title
;
Structure prediction by ZEFSAII (Michael W. Deem and Ramdas Pophale) SiO2 
 PCOD9518220
Probable space group: I M M M
;
_chemical_formula_sum "Si O2"
_cell_formula_units_Z 88
_cell_length_a 29.493104
_cell_length_b 7.409040
_cell_length_c 18.930840
_cell_angle_alpha 90.000000
_cell_angle_beta 90.000000
_cell_angle_gamma 90.000000
_cell_volume 4136.683620
_symmetry_space_group_name_H-M "I M M M"
_symmetry_group_IT_number 71
_symmetry_cell_setting 'orthorhombic'
loop_
_space_group_symop_operation_xyz
x,y,z
-x,-y,z
x,-y,-z
-x,y,-z
-x,-y,-z
x,y,-z
-x,y,z
x,-y,z
1/2+x,1/2+y,1/2+z
1/2-x,1/2-y,1/2+z
1/2+x,1/2-y,1/2-z
1/2-x,1/2+y,1/2-z
1/2-x,1/2-y,1/2-z
1/2+x,1/2+y,1/2-z
1/2-x,1/2+y,1/2+z
1/2+x,1/2-y,1/2+z
loop_
_atom_site_type_symbol
_atom_site_label
_atom_site_fract_x
_atom_site_fract_y
_atom_site_fract_z
Si Si1 0.947600 0.279947 0.421035
Si Si2 0.791420 0.779514 0.918926
Si Si3 0.447617 0.279021 0.500000
Si Si4 0.783226 0.715389 0.315312
Si Si5 0.611730 0.284807 0.633492
Si Si6 0.114998 0.716162 0.706686
O O1 0.932502 0.225180 0.500000
O O2 0.946998 0.500000 0.420377
O O3 0.916731 0.216519 0.356528
O O4 0.000000 0.225895 0.412082
O O5 0.745157 0.717320 0.882477
O O6 0.836739 0.718054 0.878385
O O7 0.791205 0.000000 0.916721
O O8 0.794984 0.725880 0.000000
O O9 0.447428 0.500000 0.500000
O O10 0.500000 0.222655 0.500000
O O11 0.420934 0.219430 0.429341
O O12 0.787760 0.500000 0.323076
O O13 0.750000 0.750000 0.250000
O O14 0.833578 0.787009 0.301903
O O15 0.613489 0.500000 0.624757
O O16 0.597704 0.250581 0.713983
O O17 0.116677 0.500000 0.699684
#
# Coordination Sequence:
#
# PCOD9518220 Si02
#       6
#    16  16   8  16  16  16
#     4   8  15  30  51  72  97 129 160 194 242 295
#     4   9  16  28  47  68  88 120 165 198 226 276
#     4   9  18  32  51  75  99 125 169 221 250 278
#     4  10  19  30  46  69  97 126 155 194 238 279
#     4  10  18  31  51  70  93 131 168 198 242 295
#     4  10  20  31  48  77 104 124 158 207 247 285
#
# _framework density 21.27308
#
# number of rings (size 3 to 8) (size 9 to 14) (size 15 to 20)
#    0.000    2.636    2.727    0.545    0.000    1.455 
#    0.000    4.091    0.000    2.727    0.000    3.818 
#    0.000    0.000    0.000    0.000    0.000    0.000 
#
# Total GULP energy -245599.449384 kJ/mol
# GULP energy per Si atom -5581.805668 kJ/mol
# Density = 2.122466 g / cm^3
# Si number density = 21.273080 Si / 1000 Ang^3
#
#
#
# Elastic Constant Matrix: (Units=GPa)
#
#
# Indices 1 2 3 4 5 6 
#
# 1 135.8503 5.7859 106.4012 0.0000 0.0000 0.0000
# 2 5.7859 70.5338 -2.6599 0.0000 0.0000 0.0000
# 3 106.4012 -2.6599 206.5480 0.0000 0.0000 0.0000
# 4 0.0000 0.0000 0.0000 -21.9266 0.0000 0.0000
# 5 0.0000 0.0000 0.0000 0.0000 41.3399 0.0000
# 6 0.0000 0.0000 0.0000 0.0000 0.0000 1.3349
#
#
#
# Elastic Compliance Matrix: (Units=1/GPa)
#
#
# Indices 1 2 3 4 5 6 
#
# 1 0.012451 -0.001264 -0.006430 0.000000 0.000000 0.000000
# 2 -0.001264 0.014313 0.000835 0.000000 0.000000 0.000000
# 3 -0.006430 0.000835 0.008165 0.000000 0.000000 0.000000
# 4 0.000000 0.000000 0.000000 -0.045607 0.000000 0.000000
# 5 0.000000 0.000000 0.000000 0.000000 0.024190 0.000000
# 6 0.000000 0.000000 0.000000 0.000000 0.000000 0.749101
#
#
# Mechanical properties :
#
#
# Convention : Reuss Voigt Hill
#
# Bulk Modulus (GPa) = 47.14522 70.22074 58.68298
# Shear Modulus (GPa) = 6.38242 24.37664 15.37953
#
# Velocity S-wave (km/s) = 1.73400 3.38877 2.69170
# Velocity P-wave (km/s) = 5.12045 6.95648 6.10785
#
# Compressibility (1/GPa) = 0.02121106
#
# Stress axis : x y z
#
# Youngs Moduli (GPa) = 80.31238 69.86763 122.47624
#
# Poissons Ratio (x) = 0.08830 0.78758
# Poissons Ratio (y) = 0.10151 -0.10232
# Poissons Ratio (z) = 0.51645 -0.05837
#
# Static dielectric constant tensor:
#      x y z
#    x 1.746410 0.000000 0.000000 
#    y 0.000000 1.839210 0.000000 
#    z 0.000000 0.000000 1.752350 
# 
# From -- ./inp_files/16618.got.cif
#   From: 2010.05.17/outbox.cif.g08.bks.cpg/sg71_9_cif.got.tgz:16618.got - 2010.06.03 16:22:01.
