data_PCOD9518816
_publ_section_title
;
Structure prediction by ZEFSAII (Michael W. Deem and Ramdas Pophale) SiO2 
 PCOD9518816
Probable space group: I M M M
;
_chemical_formula_sum "Si O2"
_cell_formula_units_Z 80
_cell_length_a 25.034130
_cell_length_b 8.623381
_cell_length_c 24.392279
_cell_angle_alpha 90.000000
_cell_angle_beta 90.000000
_cell_angle_gamma 90.000000
_cell_volume 5265.776920
_symmetry_space_group_name_H-M "I M M M"
_symmetry_group_IT_number 71
_symmetry_cell_setting 'orthorhombic'
loop_
_space_group_symop_operation_xyz
x,y,z
-x,-y,z
x,-y,-z
-x,y,-z
-x,-y,-z
x,y,-z
-x,y,z
x,-y,z
1/2+x,1/2+y,1/2+z
1/2-x,1/2-y,1/2+z
1/2+x,1/2-y,1/2-z
1/2-x,1/2+y,1/2-z
1/2-x,1/2-y,1/2-z
1/2+x,1/2+y,1/2-z
1/2-x,1/2+y,1/2+z
1/2+x,1/2-y,1/2+z
loop_
_atom_site_type_symbol
_atom_site_label
_atom_site_fract_x
_atom_site_fract_y
_atom_site_fract_z
Si Si1 0.169466 0.314852 0.226939
Si Si2 0.940947 0.811481 0.611744
Si Si3 0.733915 0.185371 0.836032
Si Si4 0.170577 0.187663 0.561876
Si Si5 0.940005 0.186809 0.740146
O O1 0.172113 0.500000 0.224275
O O2 0.207465 0.244454 0.180416
O O3 0.195458 0.264183 0.285402
O O4 0.108658 0.259137 0.226790
O O5 0.889494 0.759573 0.578011
O O6 0.934538 0.768737 0.675796
O O7 0.000000 0.759309 0.593184
O O8 0.941435 0.000000 0.609754
O O9 0.710756 0.251520 0.892179
O O10 0.733615 0.000000 0.837865
O O11 0.183515 0.236285 0.500000
O O12 0.170842 0.000000 0.563721
O O13 0.000000 0.231578 0.757632
O O14 0.936367 0.000000 0.742515
#
# Coordination Sequence:
#
# PCOD9518816 Si02
#       5
#    16  16  16  16  16
#     4  10  19  30  47  68  89 115 149 191 232 276
#     4   8  14  25  41  61  86 117 154 193 227 260
#     4  10  20  32  46  64  87 118 152 189 234 280
#     4  10  19  30  46  66  89 118 155 198 234 268
#     4   9  16  27  45  67  92 122 152 184 224 271
#
# _framework density 15.19244
#
# number of rings (size 3 to 8) (size 9 to 14) (size 15 to 20)
#    0.000    2.600    2.000    2.400    0.000    2.800 
#    0.000    2.000    0.000    0.600    0.000    1.400 
#    0.000    0.800    0.000    8.400    0.000    3.600 
#
# Total GULP energy -222951.365148 kJ/mol
# GULP energy per Si atom -5573.784129 kJ/mol
# Density = 1.515786 g / cm^3
# Si number density = 15.192440 Si / 1000 Ang^3
#
#
#
# Elastic Constant Matrix: (Units=GPa)
#
#
# Indices 1 2 3 4 5 6 
#
# 1 124.7618 28.5458 72.6478 0.0000 0.0000 0.0000
# 2 28.5458 16.2101 23.5222 0.0000 0.0000 0.0000
# 3 72.6478 23.5222 92.3755 0.0000 0.0000 0.0000
# 4 0.0000 0.0000 0.0000 17.0169 0.0000 0.0000
# 5 0.0000 0.0000 0.0000 0.0000 20.8413 0.0000
# 6 0.0000 0.0000 0.0000 0.0000 0.0000 21.8072
#
#
#
# Elastic Compliance Matrix: (Units=1/GPa)
#
#
# Indices 1 2 3 4 5 6 
#
# 1 0.017315 -0.017022 -0.009283 0.000000 0.000000 0.000000
# 2 -0.017022 0.114576 -0.015789 0.000000 0.000000 0.000000
# 3 -0.009283 -0.015789 0.022146 0.000000 0.000000 0.000000
# 4 0.000000 0.000000 0.000000 0.058765 0.000000 0.000000
# 5 0.000000 0.000000 0.000000 0.000000 0.047982 0.000000
# 6 0.000000 0.000000 0.000000 0.000000 0.000000 0.045856
#
#
# Mechanical properties :
#
#
# Convention : Reuss Voigt Hill
#
# Bulk Modulus (GPa) = 14.31629 53.64210 33.97920
# Shear Modulus (GPa) = 12.07406 19.17519 15.62462
#
# Velocity S-wave (km/s) = 2.82217 3.55653 3.21042
# Velocity P-wave (km/s) = 4.47921 7.22844 6.01305
#
# Compressibility (1/GPa) = 0.06985052
#
# Stress axis : x y z
#
# Youngs Moduli (GPa) = 57.75222 8.72786 45.15397
#
# Poissons Ratio (x) = 0.14856 0.41917
# Poissons Ratio (y) = 0.98303 0.71293
# Poissons Ratio (z) = 0.53612 0.13780
#
# Static dielectric constant tensor:
#      x y z
#    x 1.514260 0.000000 0.000000 
#    y 0.000000 1.514340 0.000000 
#    z 0.000000 0.000000 1.481200 
# 
# From -- ./inp_files/16786.got.cif
#   From: 2010.05.17/outbox.cif.g08.bks.cpg/sg71_9_cif.got.tgz:16786.got - 2010.06.03 16:22:01.
