data_PCOD9518375
_publ_section_title
;
Structure prediction by ZEFSAII (Michael W. Deem and Ramdas Pophale) SiO2 
 PCOD9518375
Probable space group: I M M M
;
_chemical_formula_sum "Si O2"
_cell_formula_units_Z 104
_cell_length_a 7.649181
_cell_length_b 22.687791
_cell_length_c 28.482858
_cell_angle_alpha 90.000000
_cell_angle_beta 90.000000
_cell_angle_gamma 90.000000
_cell_volume 4943.001191
_symmetry_space_group_name_H-M "I M M M"
_symmetry_group_IT_number 71
_symmetry_cell_setting 'orthorhombic'
loop_
_space_group_symop_operation_xyz
x,y,z
-x,-y,z
x,-y,-z
-x,y,-z
-x,-y,-z
x,y,-z
-x,y,z
x,-y,z
1/2+x,1/2+y,1/2+z
1/2-x,1/2-y,1/2+z
1/2+x,1/2-y,1/2-z
1/2-x,1/2+y,1/2-z
1/2-x,1/2-y,1/2-z
1/2+x,1/2+y,1/2-z
1/2-x,1/2+y,1/2+z
1/2+x,1/2-y,1/2+z
loop_
_atom_site_type_symbol
_atom_site_label
_atom_site_fract_x
_atom_site_fract_y
_atom_site_fract_z
Si Si1 0.203602 0.000000 0.054904
Si Si2 0.797322 0.886798 0.900232
Si Si3 0.799174 0.398697 0.299045
Si Si4 0.696621 0.168371 0.623971
Si Si5 0.303417 0.758738 0.803080
Si Si6 0.713557 0.931798 0.305871
Si Si7 0.285938 0.264509 0.445050
O O1 0.287669 0.939015 0.070514
O O2 0.000000 0.000000 0.072670
O O3 0.193751 0.000000 0.000000
O O4 0.792283 0.913884 0.847573
O O5 0.726415 0.821756 0.914360
O O6 0.000000 0.880495 0.913703
O O7 0.798902 0.328503 0.306647
O O8 0.728680 0.414440 0.247334
O O9 0.000000 0.420186 0.300353
O O10 0.500000 0.149665 0.610452
O O11 0.687091 0.220928 0.662377
O O12 0.774779 0.113532 0.653631
O O13 0.776676 0.203632 0.579784
O O14 0.500000 0.737628 0.811409
O O15 0.250000 0.750000 0.750000
O O16 0.500000 0.926685 0.304898
O O17 0.758372 0.000000 0.314692
O O18 0.237758 0.270029 0.500000
O O19 0.500000 0.261621 0.443148
#
# Coordination Sequence:
#
# PCOD9518375 Si02
#       7
#     8  16  16  16  16  16  16
#     4   9  18  32  49  69  95 131 173 213 248 287
#     4  10  19  31  49  71  98 129 166 206 244 290
#     4  10  20  32  47  69  99 129 162 198 238 291
#     4  10  18  32  52  74  99 127 166 207 245 294
#     4  11  20  31  49  73 100 128 160 197 243 292
#     4   9  18  32  49  69  96 134 170 196 234 294
#     4   9  17  29  49  75  98 123 159 205 253 295
#
# _framework density 21.039850000000001
#
# number of rings (size 3 to 8) (size 9 to 14) (size 15 to 20)
#    0.000    2.231    3.077    0.923    1.077    2.462 
#    0.000    0.000    0.000    5.538    0.000    3.231 
#    0.000    0.000    0.000    1.385    0.000    1.538 
#
# Total GULP energy -289497.003233 kJ/mol
# GULP energy per Si atom -5567.250062 kJ/mol
# Density = 2.099196 g / cm^3
# Si number density = 21.039850 Si / 1000 Ang^3
#
#
#
# Elastic Constant Matrix: (Units=GPa)
#
#
# Indices 1 2 3 4 5 6 
#
# 1 42.8176 10.2902 -2.9435 0.0000 0.0000 0.0000
# 2 10.2902 133.1198 65.4281 0.0000 0.0000 0.0000
# 3 -2.9435 65.4281 117.6167 0.0000 0.0000 0.0000
# 4 0.0000 0.0000 0.0000 31.4319 0.0000 0.0000
# 5 0.0000 0.0000 0.0000 0.0000 13.6630 0.0000
# 6 0.0000 0.0000 0.0000 0.0000 0.0000 1.8372
#
#
#
# Elastic Compliance Matrix: (Units=1/GPa)
#
#
# Indices 1 2 3 4 5 6 
#
# 1 0.024229 -0.002988 0.002268 0.000000 0.000000 0.000000
# 2 -0.002988 0.010707 -0.006031 0.000000 0.000000 0.000000
# 3 0.002268 -0.006031 0.011914 0.000000 0.000000 0.000000
# 4 0.000000 0.000000 0.000000 0.031815 0.000000 0.000000
# 5 0.000000 0.000000 0.000000 0.000000 0.073191 0.000000
# 6 0.000000 0.000000 0.000000 0.000000 0.000000 0.544308
#
#
# Mechanical properties :
#
#
# Convention : Reuss Voigt Hill
#
# Bulk Modulus (GPa) = 29.98576 48.78930 39.38753
# Shear Modulus (GPa) = 6.93693 24.10502 15.52098
#
# Velocity S-wave (km/s) = 1.81775 3.38847 2.71900
# Velocity P-wave (km/s) = 4.32301 6.20873 5.34961
#
# Compressibility (1/GPa) = 0.03334917
#
# Stress axis : x y z
#
# Youngs Moduli (GPa) = 41.27309 93.39494 83.93555
#
# Poissons Ratio (x) = 0.27905 -0.19040
# Poissons Ratio (y) = 0.12332 0.50622
# Poissons Ratio (z) = -0.09362 0.56327
#
# Static dielectric constant tensor:
#      x y z
#    x 1.881200 0.000000 0.000000 
#    y 0.000000 1.711200 0.000000 
#    z 0.000000 0.000000 1.468420 
# 
# From -- ./inp_files/15273.got.cif
#   From: 2010.05.17/outbox.cif.g08.bks.cpg/sg71_8_cif.got.tgz:15273.got - 2010.06.03 16:22:01.
