data_PCOD9519567
_publ_section_title
;
Structure prediction by ZEFSAII (Michael W. Deem and Ramdas Pophale) SiO2 
 PCOD9519567
Probable space group: I M M M
;
_chemical_formula_sum "Si O2"
_cell_formula_units_Z 104
_cell_length_a 27.678000
_cell_length_b 24.084231
_cell_length_c 7.691677
_cell_angle_alpha 90.000000
_cell_angle_beta 90.000000
_cell_angle_gamma 90.000000
_cell_volume 5127.297622
_symmetry_space_group_name_H-M "I M M M"
_symmetry_group_IT_number 71
_symmetry_cell_setting 'orthorhombic'
loop_
_space_group_symop_operation_xyz
x,y,z
-x,-y,z
x,-y,-z
-x,y,-z
-x,-y,-z
x,y,-z
-x,y,z
x,-y,z
1/2+x,1/2+y,1/2+z
1/2-x,1/2-y,1/2+z
1/2+x,1/2-y,1/2-z
1/2-x,1/2+y,1/2-z
1/2-x,1/2-y,1/2-z
1/2+x,1/2+y,1/2-z
1/2-x,1/2+y,1/2+z
1/2+x,1/2-y,1/2+z
loop_
_atom_site_type_symbol
_atom_site_label
_atom_site_fract_x
_atom_site_fract_y
_atom_site_fract_z
Si Si1 0.214066 0.437001 0.791364
Si Si2 0.055355 0.736846 0.702683
Si Si3 0.588369 0.360767 0.710573
Si Si4 0.173249 0.062271 0.209389
Si Si5 0.051536 0.563508 0.788079
Si Si6 0.500000 0.437416 0.712112
Si Si7 0.632907 0.856033 0.708307
O O1 0.200021 0.500000 0.727522
O O2 0.270674 0.429838 0.753758
O O3 0.183699 0.382963 0.728225
O O4 0.207774 0.439483 0.000000
O O5 0.050577 0.725604 0.500000
O O6 0.071917 0.800300 0.729146
O O7 0.101627 0.699681 0.759463
O O8 0.000000 0.728639 0.778767
O O9 0.589443 0.358054 0.500000
O O10 0.638818 0.387912 0.771037
O O11 0.547198 0.403972 0.764818
O O12 0.158846 0.000000 0.271101
O O13 0.169068 0.061191 0.000000
O O14 0.053754 0.500000 0.734449
O O15 0.095791 0.597819 0.724419
O O16 0.000000 0.587717 0.734718
O O17 0.052883 0.564140 0.000000
O O18 0.500000 0.500000 0.774804
O O19 0.500000 0.438698 0.500000
O O20 0.636942 0.856855 0.500000
#
# Coordination Sequence:
#
# PCOD9519567 Si02
#       7
#    16  16  16  16  16   8  16
#     4   9  18  33  54  82 113 142 175 220 272 321
#     4  11  24  39  53  73 107 146 181 221 270 322
#     4  10  19  34  57  82 107 139 179 218 259 313
#     4   9  18  33  55  84 114 141 171 211 263 323
#     4   8  13  22  40  69  99 122 152 206 269 315
#     4   9  16  28  53  87 113 131 162 215 268 311
#     4  10  19  32  53  77 100 134 184 228 261 309
#
# _framework density 20.28359
#
# number of rings (size 3 to 8) (size 9 to 14) (size 15 to 20)
#    0.000    2.538    0.769    2.308    0.000    6.462 
#    0.000    0.769    0.000    3.231    0.000    5.385 
#    0.000    0.000    0.000    0.000    0.000    0.000 
#
# Total GULP energy -289492.200628 kJ/mol
# GULP energy per Si atom -5567.157704 kJ/mol
# Density = 2.023742 g / cm^3
# Si number density = 20.283590 Si / 1000 Ang^3
#
#
#
# Elastic Constant Matrix: (Units=GPa)
#
#
# Indices 1 2 3 4 5 6 
#
# 1 110.2489 70.1003 4.0768 0.0000 0.0000 0.0000
# 2 70.1003 121.2306 -0.4615 0.0000 0.0000 0.0000
# 3 4.0768 -0.4615 35.9817 0.0000 0.0000 0.0000
# 4 0.0000 0.0000 0.0000 -12.0923 0.0000 0.0000
# 5 0.0000 0.0000 0.0000 0.0000 13.7361 0.0000
# 6 0.0000 0.0000 0.0000 0.0000 0.0000 33.6271
#
#
#
# Elastic Compliance Matrix: (Units=1/GPa)
#
#
# Indices 1 2 3 4 5 6 
#
# 1 0.014453 -0.008364 -0.001745 0.000000 0.000000 0.000000
# 2 -0.008364 0.013089 0.001116 0.000000 0.000000 0.000000
# 3 -0.001745 0.001116 0.028004 0.000000 0.000000 0.000000
# 4 0.000000 0.000000 0.000000 -0.082697 0.000000 0.000000
# 5 0.000000 0.000000 0.000000 0.000000 0.072801 0.000000
# 6 0.000000 0.000000 0.000000 0.000000 0.000000 0.029738
#
#
# Mechanical properties :
#
#
# Convention : Reuss Voigt Hill
#
# Bulk Modulus (GPa) = 26.62420 46.09916 36.36168
# Shear Modulus (GPa) = 47.21694 19.97055 33.59375
#
# Velocity S-wave (km/s) = 4.83000 3.14119 4.07406
# Velocity P-wave (km/s) = 6.65280 5.99439 6.33216
#
# Compressibility (1/GPa) = 0.03755982
#
# Stress axis : x y z
#
# Youngs Moduli (GPa) = 69.18981 76.39801 35.70927
#
# Poissons Ratio (x) = 0.63899 0.06231
# Poissons Ratio (y) = 0.57870 -0.03983
# Poissons Ratio (z) = 0.12072 -0.08522
#
# Static dielectric constant tensor:
#      x y z
#    x 1.742620 0.000000 0.000000 
#    y 0.000000 1.733060 0.000000 
#    z 0.000000 0.000000 1.775300 
# 
# From -- ./inp_files/15299.got.cif
#   From: 2010.05.17/outbox.cif.g08.bks.cpg/sg71_8_cif.got.tgz:15299.got - 2010.06.03 16:22:01.
