data_PCOD9519518
_publ_section_title
;
Structure prediction by ZEFSAII (Michael W. Deem and Ramdas Pophale) SiO2 
 PCOD9519518
Probable space group: I M M M
;
_chemical_formula_sum "Si O2"
_cell_formula_units_Z 104
_cell_length_a 17.994604
_cell_length_b 19.181936
_cell_length_c 18.342548
_cell_angle_alpha 90.000000
_cell_angle_beta 90.000000
_cell_angle_gamma 90.000000
_cell_volume 6331.321914
_symmetry_space_group_name_H-M "I M M M"
_symmetry_group_IT_number 71
_symmetry_cell_setting 'orthorhombic'
loop_
_space_group_symop_operation_xyz
x,y,z
-x,-y,z
x,-y,-z
-x,y,-z
-x,-y,-z
x,y,-z
-x,y,z
x,-y,z
1/2+x,1/2+y,1/2+z
1/2-x,1/2-y,1/2+z
1/2+x,1/2-y,1/2-z
1/2-x,1/2+y,1/2-z
1/2-x,1/2-y,1/2-z
1/2+x,1/2+y,1/2-z
1/2-x,1/2+y,1/2+z
1/2+x,1/2-y,1/2+z
loop_
_atom_site_type_symbol
_atom_site_label
_atom_site_fract_x
_atom_site_fract_y
_atom_site_fract_z
Si Si1 0.588121 0.576565 0.835935
Si Si2 0.851300 0.080352 0.828304
Si Si3 0.804329 0.829608 0.586250
Si Si4 0.085549 0.716347 0.086967
Si Si5 0.500000 0.584480 0.582746
Si Si6 0.775006 0.220029 0.828965
Si Si7 0.336365 0.078280 0.587651
O O1 0.500000 0.579855 0.830660
O O2 0.608642 0.500000 0.866868
O O3 0.620942 0.581016 0.754990
O O4 0.620785 0.638183 0.883449
O O5 0.785967 0.137051 0.832493
O O6 0.923207 0.102277 0.876625
O O7 0.831839 0.000000 0.847198
O O8 0.803059 0.828924 0.500000
O O9 0.784386 0.754092 0.616738
O O10 0.738784 0.882597 0.612793
O O11 0.145328 0.751859 0.140402
O O12 0.097738 0.633411 0.100077
O O13 0.000000 0.736382 0.099370
O O14 0.103056 0.728657 0.000000
O O15 0.500000 0.500000 0.581206
O O16 0.500000 0.611069 0.500000
O O17 0.750000 0.250000 0.750000
O O18 0.330066 0.072762 0.500000
O O19 0.344571 0.000000 0.616939
#
# Coordination Sequence:
#
# PCOD9519518 Si02
#       7
#    16  16  16  16   8  16  16
#     4  10  19  32  52  77 107 143 178 215 259 312
#     4  10  20  35  53  75 105 137 174 217 262 317
#     4  10  20  34  50  72 103 137 177 219 257 308
#     4   9  19  33  49  72 100 131 169 214 263 311
#     4   9  18  32  52  80 109 137 172 216 268 319
#     4  11  21  35  52  74 100 137 177 210 260 321
#     4   8  14  26  45  68  96 130 165 202 246 296
#
# _framework density 16.426269999999999
#
# number of rings (size 3 to 8) (size 9 to 14) (size 15 to 20)
#    0.000    2.385    2.308    1.846    1.077    2.769 
#    0.000    2.308    0.000    0.000    0.000    0.000 
#    0.000    0.615    0.000    1.385    0.000    0.000 
#
# Total GULP energy -289634.827629 kJ/mol
# GULP energy per Si atom -5569.900531 kJ/mol
# Density = 1.638888 g / cm^3
# Si number density = 16.426270 Si / 1000 Ang^3
#
#
#
# Elastic Constant Matrix: (Units=GPa)
#
#
# Indices 1 2 3 4 5 6 
#
# 1 36.6394 37.8089 17.3978 0.0000 0.0000 0.0000
# 2 37.8089 114.5187 29.3484 0.0000 0.0000 0.0000
# 3 17.3978 29.3484 64.9647 0.0000 0.0000 0.0000
# 4 0.0000 0.0000 0.0000 14.9223 0.0000 0.0000
# 5 0.0000 0.0000 0.0000 0.0000 25.8732 0.0000
# 6 0.0000 0.0000 0.0000 0.0000 0.0000 29.3096
#
#
#
# Elastic Compliance Matrix: (Units=1/GPa)
#
#
# Indices 1 2 3 4 5 6 
#
# 1 0.043248 -0.012791 -0.005803 0.000000 0.000000 0.000000
# 2 -0.012791 0.013659 -0.002745 0.000000 0.000000 0.000000
# 3 -0.005803 -0.002745 0.018187 0.000000 0.000000 0.000000
# 4 0.000000 0.000000 0.000000 0.067014 0.000000 0.000000
# 5 0.000000 0.000000 0.000000 0.000000 0.038650 0.000000
# 6 0.000000 0.000000 0.000000 0.000000 0.000000 0.034118
#
#
# Mechanical properties :
#
#
# Convention : Reuss Voigt Hill
#
# Bulk Modulus (GPa) = 30.85003 42.80367 36.82685
# Shear Modulus (GPa) = 18.63163 22.79221 20.71192
#
# Velocity S-wave (km/s) = 3.37153 3.72902 3.55477
# Velocity P-wave (km/s) = 5.82906 6.68247 6.27030
#
# Compressibility (1/GPa) = 0.03241488
#
# Stress axis : x y z
#
# Youngs Moduli (GPa) = 23.12230 73.21302 54.98371
#
# Poissons Ratio (x) = 0.93649 0.31909
# Poissons Ratio (y) = 0.29577 0.15093
# Poissons Ratio (z) = 0.13419 0.20096
#
# Static dielectric constant tensor:
#      x y z
#    x 1.548540 0.000000 0.000000 
#    y 0.000000 1.616470 0.000000 
#    z 0.000000 0.000000 1.549670 
# 
# From -- ./inp_files/46138.got.cif
#   From: 2010.05.17/outbox.cif.g08.bks.cpg/sg71_24_cif.got.tgz:46138.got - 2010.06.03 16:22:01.
