data_PCOD9519480
_publ_section_title
;
Structure prediction by ZEFSAII (Michael W. Deem and Ramdas Pophale) SiO2 
 PCOD9519480
Probable space group: I M M M
;
_chemical_formula_sum "Si O2"
_cell_formula_units_Z 98
_cell_length_a 26.454660
_cell_length_b 14.232986
_cell_length_c 15.733808
_cell_angle_alpha 90.000000
_cell_angle_beta 90.000000
_cell_angle_gamma 90.000000
_cell_volume 5924.231931
_symmetry_space_group_name_H-M "I M M M"
_symmetry_group_IT_number 71
_symmetry_cell_setting 'orthorhombic'
loop_
_space_group_symop_operation_xyz
x,y,z
-x,-y,z
x,-y,-z
-x,y,-z
-x,-y,-z
x,y,-z
-x,y,z
x,-y,z
1/2+x,1/2+y,1/2+z
1/2-x,1/2-y,1/2+z
1/2+x,1/2-y,1/2-z
1/2-x,1/2+y,1/2-z
1/2-x,1/2-y,1/2-z
1/2+x,1/2+y,1/2-z
1/2-x,1/2+y,1/2+z
1/2+x,1/2-y,1/2+z
loop_
_atom_site_type_symbol
_atom_site_label
_atom_site_fract_x
_atom_site_fract_y
_atom_site_fract_z
Si Si1 0.177458 0.606248 0.653594
Si Si2 0.848380 0.207502 0.255664
Si Si3 0.099975 0.631318 0.500000
Si Si4 0.440310 0.395258 0.810146
Si Si5 0.280142 0.293555 0.596210
Si Si6 0.783827 0.109934 0.597608
Si Si7 0.000000 0.500000 0.500000
Si Si8 0.560151 0.661364 0.000000
O O1 0.183788 0.500000 0.685065
O O2 0.161673 0.683899 0.722247
O O3 0.134098 0.607211 0.581610
O O4 0.229892 0.644752 0.614205
O O5 0.906717 0.180585 0.262071
O O6 0.821220 0.185058 0.167529
O O7 0.822273 0.146212 0.330859
O O8 0.090355 0.742082 0.500000
O O9 0.045801 0.580363 0.500000
O O10 0.500000 0.379946 0.799443
O O11 0.427358 0.500000 0.780216
O O12 0.429679 0.390204 0.911429
O O13 0.297126 0.309899 0.500000
O O14 0.262002 0.184598 0.604030
O O15 0.803389 0.119781 0.500000
O O16 0.771482 0.000000 0.610202
O O17 0.500000 0.681066 0.000000
#
# Coordination Sequence:
#
# PCOD9519480 Si02
#       8
#    16  16   8  16  16  16   2   8
#     4  11  21  35  52  74 107 146 179 213 264 309
#     4  11  22  34  53  78 103 137 179 221 265 319
#     4  12  20  33  50  76 114 153 181 214 242 308
#     4  10  21  35  52  75 104 134 169 214 266 318
#     4  10  22  37  53  74 103 137 181 227 269 319
#     4   9  18  32  52  78 108 137 166 210 262 314
#     4  12  24  32  52  84 114 164 206 196 246 324
#     4  10  19  32  52  74 106 142 174 207 248 311
#
# _framework density 16.542228999999999
#
# number of rings (size 3 to 8) (size 9 to 14) (size 15 to 20)
#    0.000    1.633    3.673    2.694    2.286    4.245 
#    0.000    0.000    0.000    0.490    0.000    1.143 
#    0.000    0.000    0.000    6.286    0.000    0.000 
#
# Total GULP energy -273156.900617 kJ/mol
# GULP energy per Si atom -5574.630625 kJ/mol
# Density = 1.650458 g / cm^3
# Si number density = 16.542229 Si / 1000 Ang^3
#
#
#
# Elastic Constant Matrix: (Units=GPa)
#
#
# Indices 1 2 3 4 5 6 
#
# 1 70.0543 33.3049 51.6293 0.0000 0.0000 0.0000
# 2 33.3049 112.6334 35.6307 0.0000 0.0000 0.0000
# 3 51.6293 35.6307 72.0993 0.0000 0.0000 0.0000
# 4 0.0000 0.0000 0.0000 6.8455 0.0000 0.0000
# 5 0.0000 0.0000 0.0000 0.0000 18.0121 0.0000
# 6 0.0000 0.0000 0.0000 0.0000 0.0000 5.4321
#
#
#
# Elastic Compliance Matrix: (Units=1/GPa)
#
#
# Indices 1 2 3 4 5 6 
#
# 1 0.030822 -0.002527 -0.020822 0.000000 0.000000 0.000000
# 2 -0.002527 0.010731 -0.003494 0.000000 0.000000 0.000000
# 3 -0.020822 -0.003494 0.030507 0.000000 0.000000 0.000000
# 4 0.000000 0.000000 0.000000 0.146081 0.000000 0.000000
# 5 0.000000 0.000000 0.000000 0.000000 0.055518 0.000000
# 6 0.000000 0.000000 0.000000 0.000000 0.000000 0.184091
#
#
# Mechanical properties :
#
#
# Convention : Reuss Voigt Hill
#
# Bulk Modulus (GPa) = 54.42514 55.10189 54.76351
# Shear Modulus (GPa) = 9.66072 15.00608 12.33340
#
# Velocity S-wave (km/s) = 2.41924 3.01514 2.73348
# Velocity P-wave (km/s) = 6.38559 6.74563 6.56808
#
# Compressibility (1/GPa) = 0.01837386
#
# Stress axis : x y z
#
# Youngs Moduli (GPa) = 32.44455 93.19065 32.77952
#
# Poissons Ratio (x) = 0.23547 0.68255
# Poissons Ratio (y) = 0.08198 0.11452
# Poissons Ratio (z) = 0.67557 0.32557
#
# Static dielectric constant tensor:
#      x y z
#    x 1.557090 0.000000 0.000000 
#    y 0.000000 1.582250 0.000000 
#    z 0.000000 0.000000 1.548710 
# 
# From -- ./inp_files/39224.got.cif
#   From: 2010.05.17/outbox.cif.g08.bks.cpg/sg71_20_cif.got.tgz:39224.got - 2010.06.03 16:22:01.
