data_PCOD9519395
_publ_section_title
;
Structure prediction by ZEFSAII (Michael W. Deem and Ramdas Pophale) SiO2 
 PCOD9519395
Probable space group: I M M M
;
_chemical_formula_sum "Si O2"
_cell_formula_units_Z 104
_cell_length_a 14.318501
_cell_length_b 33.978199
_cell_length_c 13.127426
_cell_angle_alpha 90.000000
_cell_angle_beta 90.000000
_cell_angle_gamma 90.000000
_cell_volume 6386.714292
_symmetry_space_group_name_H-M "I M M M"
_symmetry_group_IT_number 71
_symmetry_cell_setting 'orthorhombic'
loop_
_space_group_symop_operation_xyz
x,y,z
-x,-y,z
x,-y,-z
-x,y,-z
-x,-y,-z
x,y,-z
-x,y,z
x,-y,z
1/2+x,1/2+y,1/2+z
1/2-x,1/2-y,1/2+z
1/2+x,1/2-y,1/2-z
1/2-x,1/2+y,1/2-z
1/2-x,1/2-y,1/2-z
1/2+x,1/2+y,1/2-z
1/2-x,1/2+y,1/2+z
1/2+x,1/2-y,1/2+z
loop_
_atom_site_type_symbol
_atom_site_label
_atom_site_fract_x
_atom_site_fract_y
_atom_site_fract_z
Si Si1 0.390606 0.088175 0.117966
Si Si2 0.107345 0.452076 0.000000
Si Si3 0.108789 0.908327 0.621058
Si Si4 0.392377 0.169333 0.771570
Si Si5 0.223966 0.170673 0.620398
Si Si6 0.720303 0.047055 0.702236
Si Si7 0.891989 0.752854 0.621480
O O1 0.500000 0.077268 0.132251
O O2 0.382567 0.134265 0.146695
O O3 0.327338 0.064696 0.197535
O O4 0.366360 0.081570 0.000000
O O5 0.161047 0.439652 0.102291
O O6 0.107042 0.500000 0.000000
O O7 0.000000 0.438801 0.000000
O O8 0.116896 0.917505 0.500000
O O9 0.150499 0.864654 0.635960
O O10 0.175562 0.937239 0.683523
O O11 0.000000 0.910300 0.648279
O O12 0.500000 0.168225 0.735033
O O13 0.317089 0.162932 0.683710
O O14 0.375482 0.211768 0.822286
O O15 0.244145 0.172420 0.500000
O O16 0.176363 0.211855 0.651675
O O17 0.718394 0.000000 0.705964
O O18 0.882355 0.746875 0.500000
O O19 0.000000 0.764601 0.640104
#
# Coordination Sequence:
#
# PCOD9519395 Si02
#       7
#    16   8  16  16  16  16  16
#     4  10  21  37  56  79 108 143 183 223 262 312
#     4   9  18  32  51  77 109 141 168 202 261 337
#     4  10  20  35  55  79 108 140 177 222 269 320
#     4  10  19  32  51  76 106 140 176 215 261 313
#     4  10  19  32  50  76 108 139 173 213 264 320
#     4  11  21  35  54  79 109 139 175 222 275 325
#     4   9  17  30  50  76 104 136 176 218 257 302
#
# _framework density 16.283804
#
# number of rings (size 3 to 8) (size 9 to 14) (size 15 to 20)
#    0.000    2.077    2.308    1.846    0.000    5.538 
#    0.000    1.538    0.000    0.462    0.000    1.077 
#    0.000    0.000    0.000    0.000    0.000    0.000 
#
# Total GULP energy -290125.870368 kJ/mol
# GULP energy per Si atom -5579.343661 kJ/mol
# Density = 1.624674 g / cm^3
# Si number density = 16.283804 Si / 1000 Ang^3
#
#
#
# Elastic Constant Matrix: (Units=GPa)
#
#
# Indices 1 2 3 4 5 6 
#
# 1 124.8494 47.5623 79.6624 0.0000 0.0000 0.0000
# 2 47.5623 73.9031 46.6127 0.0001 0.0000 0.0000
# 3 79.6624 46.6127 94.6238 0.0005 0.0002 0.0000
# 4 0.0000 0.0001 0.0005 20.1373 0.0000 0.0000
# 5 0.0000 0.0000 0.0002 0.0000 25.8374 0.0000
# 6 0.0000 0.0000 0.0000 0.0000 0.0000 23.5359
#
#
#
# Elastic Compliance Matrix: (Units=1/GPa)
#
#
# Indices 1 2 3 4 5 6 
#
# 1 0.017723 -0.002895 -0.013495 0.000000 0.000000 0.000000
# 2 -0.002895 0.020103 -0.007466 0.000000 0.000000 0.000000
# 3 -0.013495 -0.007466 0.025607 -0.000001 0.000000 0.000000
# 4 0.000000 0.000000 -0.000001 0.049659 0.000000 0.000000
# 5 0.000000 0.000000 0.000000 0.000000 0.038704 0.000000
# 6 0.000000 0.000000 0.000000 0.000000 0.000000 0.042488
#
#
# Mechanical properties :
#
#
# Convention : Reuss Voigt Hill
#
# Bulk Modulus (GPa) = 63.60410 71.22791 67.41600
# Shear Modulus (GPa) = 20.22356 21.87137 21.04747
#
# Velocity S-wave (km/s) = 3.52795 3.66886 3.59909
# Velocity P-wave (km/s) = 7.46590 7.86027 7.66562
#
# Compressibility (1/GPa) = 0.01572226
#
# Stress axis : x y z
#
# Youngs Moduli (GPa) = 56.42399 49.74327 39.05149
#
# Poissons Ratio (x) = 0.14398 0.52699
# Poissons Ratio (y) = 0.16332 0.29157
# Poissons Ratio (z) = 0.76143 0.37139
#
# Static dielectric constant tensor:
#      x y z
#    x 1.533550 0.000000 0.000000 
#    y 0.000000 1.553110 0.000000 
#    z 0.000000 0.000000 1.519280 
# 
# From -- ./inp_files/22667.got.cif
#   From: 2010.05.17/outbox.cif.g08.bks.cpg/sg71_12_cif.got.tgz:22667.got - 2010.06.03 16:22:01.
