data_PCOD9519225
_publ_section_title
;
Structure prediction by ZEFSAII (Michael W. Deem and Ramdas Pophale) SiO2 
 PCOD9519225
Probable space group: I M M M
;
_chemical_formula_sum "Si O2"
_cell_formula_units_Z 96
_cell_length_a 24.277517
_cell_length_b 22.464908
_cell_length_c 7.467249
_cell_angle_alpha 90.000000
_cell_angle_beta 90.000000
_cell_angle_gamma 90.000000
_cell_volume 4072.579255
_symmetry_space_group_name_H-M "I M M M"
_symmetry_group_IT_number 71
_symmetry_cell_setting 'orthorhombic'
loop_
_space_group_symop_operation_xyz
x,y,z
-x,-y,z
x,-y,-z
-x,y,-z
-x,-y,-z
x,y,-z
-x,y,z
x,-y,z
1/2+x,1/2+y,1/2+z
1/2-x,1/2-y,1/2+z
1/2+x,1/2-y,1/2-z
1/2-x,1/2+y,1/2-z
1/2-x,1/2-y,1/2-z
1/2+x,1/2+y,1/2-z
1/2-x,1/2+y,1/2+z
1/2+x,1/2-y,1/2+z
loop_
_atom_site_type_symbol
_atom_site_label
_atom_site_fract_x
_atom_site_fract_y
_atom_site_fract_z
Si Si1 0.439059 0.430297 0.718034
Si Si2 0.824362 0.260391 0.795613
Si Si3 0.939613 0.693707 0.282687
Si Si4 0.326580 0.370027 0.285223
Si Si5 0.791723 0.610549 0.786934
Si Si6 0.907824 0.436260 0.707271
O O1 0.438678 0.428011 0.500000
O O2 0.500000 0.408535 0.775567
O O3 0.434798 0.500000 0.766906
O O4 0.384415 0.396208 0.781240
O O5 0.890075 0.268468 0.794219
O O6 0.814522 0.196214 0.711132
O O7 0.801925 0.321940 0.714485
O O8 0.803901 0.258535 0.000000
O O9 0.934591 0.694083 0.500000
O O10 0.931586 0.625394 0.219304
O O11 0.000000 0.715293 0.234308
O O12 0.331968 0.364804 0.500000
O O13 0.271042 0.407176 0.250091
O O14 0.841550 0.571339 0.713256
O O15 0.800036 0.611871 0.000000
O O16 0.925227 0.437437 0.500000
O O17 0.923091 0.500000 0.787998
#
# Coordination Sequence:
#
# PCOD9519225 Si02
#       6
#    16  16  16  16  16  16
#     4   8  15  29  48  70  95 119 146 188 238 279
#     4   9  19  33  48  69  98 131 164 199 241 288
#     4   9  18  32  50  73 100 129 162 203 250 295
#     4  10  19  31  51  76  96 122 164 203 234 282
#     4  10  20  33  48  69 100 132 159 196 247 294
#     4   9  18  33  52  72  96 129 167 205 244 288
#
# _framework density 23.572284
#
# number of rings (size 3 to 8) (size 9 to 14) (size 15 to 20)
#    0.000    2.833    0.000    1.500    0.000    3.667 
#    0.000    5.000    0.000    0.500    0.000    5.833 
#    0.000    0.000    0.000    0.000    0.000    0.000 
#
# Total GULP energy -267934.684493 kJ/mol
# GULP energy per Si atom -5581.972594 kJ/mol
# Density = 2.351863 g / cm^3
# Si number density = 23.572284 Si / 1000 Ang^3
#
#
#
# Elastic Constant Matrix: (Units=GPa)
#
#
# Indices 1 2 3 4 5 6 
#
# 1 134.8895 -4.6712 -5.5981 0.0000 0.0000 0.0000
# 2 -4.6712 25.4433 1.0976 0.0000 0.0000 0.0000
# 3 -5.5981 1.0976 79.4147 0.0000 0.0000 0.0000
# 4 0.0000 0.0000 0.0000 -5.9250 0.0000 0.0000
# 5 0.0000 0.0000 0.0000 0.0000 7.7045 0.0000
# 6 0.0000 0.0000 0.0000 0.0000 0.0000 -2.0913
#
#
#
# Elastic Compliance Matrix: (Units=1/GPa)
#
#
# Indices 1 2 3 4 5 6 
#
# 1 0.007481 0.001352 0.000509 0.000000 0.000000 0.000000
# 2 0.001352 0.039571 -0.000452 0.000000 0.000000 0.000000
# 3 0.000509 -0.000452 0.012634 0.000000 0.000000 0.000000
# 4 0.000000 0.000000 0.000000 -0.168776 0.000000 0.000000
# 5 0.000000 0.000000 0.000000 0.000000 0.129795 0.000000
# 6 0.000000 0.000000 0.000000 0.000000 0.000000 -0.478162
#
#
# Mechanical properties :
#
#
# Convention : Reuss Voigt Hill
#
# Bulk Modulus (GPa) = 15.99905 24.60044 20.29974
# Shear Modulus (GPa) = -11.37815 16.53224 2.57705
#
# Velocity S-wave (km/s) = -2.19941 2.65116 1.04672
# Velocity P-wave (km/s) = 0.59338 4.45313 3.17667
#
# Compressibility (1/GPa) = 0.06250372
#
# Stress axis : x y z
#
# Youngs Moduli (GPa) = 133.66496 25.27118 79.15011
#
# Poissons Ratio (x) = -0.03416 -0.04026
# Poissons Ratio (y) = -0.18066 0.03575
# Poissons Ratio (z) = -0.06800 0.01141
#
# Static dielectric constant tensor:
#      x y z
#    x 1.889550 0.000000 0.000000 
#    y 0.000000 1.886860 0.000000 
#    z 0.000000 0.000000 1.894210 
# 
# From -- ./inp_files/12816.got.cif
#   From: 2010.05.17/outbox.cif.g08.bks.cpg/sg71_7_cif.got.tgz:12816.got - 2010.06.03 16:22:01.
