data_PCOD9519648
_publ_section_title
;
Structure prediction by ZEFSAII (Michael W. Deem and Ramdas Pophale) SiO2 
 PCOD9519648
Probable space group: I M M M
;
_chemical_formula_sum "Si O2"
_cell_formula_units_Z 112
_cell_length_a 14.411999
_cell_length_b 15.290931
_cell_length_c 27.090240
_cell_angle_alpha 90.000000
_cell_angle_beta 90.000000
_cell_angle_gamma 90.000000
_cell_volume 5969.954270
_symmetry_space_group_name_H-M "I M M M"
_symmetry_group_IT_number 71
_symmetry_cell_setting 'orthorhombic'
loop_
_space_group_symop_operation_xyz
x,y,z
-x,-y,z
x,-y,-z
-x,y,-z
-x,-y,-z
x,y,-z
-x,y,z
x,-y,z
1/2+x,1/2+y,1/2+z
1/2-x,1/2-y,1/2+z
1/2+x,1/2-y,1/2-z
1/2-x,1/2+y,1/2-z
1/2-x,1/2-y,1/2-z
1/2+x,1/2+y,1/2-z
1/2-x,1/2+y,1/2+z
1/2+x,1/2-y,1/2+z
loop_
_atom_site_type_symbol
_atom_site_label
_atom_site_fract_x
_atom_site_fract_y
_atom_site_fract_z
Si Si1 0.232934 0.402476 0.442760
Si Si2 0.890163 0.764205 0.556410
Si Si3 0.894984 0.632241 0.057324
Si Si4 0.109817 0.241480 0.780069
Si Si5 0.603660 0.686838 0.392713
Si Si6 0.284718 0.406409 0.117832
Si Si7 0.751004 0.396480 0.765822
O O1 0.265260 0.396069 0.500000
O O2 0.197953 0.500000 0.434851
O O3 0.153846 0.330768 0.436123
O O4 0.316857 0.380653 0.406203
O O5 0.866929 0.791772 0.500000
O O6 0.843257 0.829070 0.594609
O O7 0.000000 0.762556 0.561466
O O8 0.890827 0.736487 0.066553
O O9 0.815516 0.594930 0.091727
O O10 0.000000 0.605070 0.070400
O O11 0.878909 0.612028 0.000000
O O12 0.117293 0.233131 0.839675
O O13 0.159790 0.330981 0.761446
O O14 0.167259 0.157560 0.759930
O O15 0.000000 0.239412 0.767644
O O16 0.500000 0.648952 0.393067
O O17 0.330078 0.500000 0.107044
O O18 0.271669 0.397754 0.176001
O O19 0.761531 0.500000 0.750736
#
# Coordination Sequence:
#
# PCOD9519648 Si02
#       7
#    16  16  16  16  16  16  16
#     4  10  20  34  54  80 110 146 188 233 285 344
#     4  10  21  37  55  75 104 144 191 242 290 334
#     4  10  19  32  54  85 120 154 186 221 267 331
#     4  10  21  39  62  86 114 150 193 239 289 346
#     4  10  19  34  57  84 115 151 185 223 278 342
#     4  11  22  37  58  83 114 152 190 230 282 341
#     4  10  22  39  60  87 116 149 192 241 290 345
#
# _framework density 18.760612999999999
#
# number of rings (size 3 to 8) (size 9 to 14) (size 15 to 20)
#    0.000    1.857    2.857    0.857    0.000    4.857 
#    0.000    7.857    0.000    0.000    0.000    4.000 
#    0.000    0.000    0.000    0.000    0.000    0.000 
#
# Total GULP energy -312377.741913 kJ/mol
# GULP energy per Si atom -5578.173963 kJ/mol
# Density = 1.871791 g / cm^3
# Si number density = 18.760613 Si / 1000 Ang^3
#
#
#
# Elastic Constant Matrix: (Units=GPa)
#
#
# Indices 1 2 3 4 5 6 
#
# 1 82.2698 41.9004 26.1706 0.0000 0.0000 0.0000
# 2 41.9004 126.4005 23.5322 0.0000 0.0000 0.0000
# 3 26.1706 23.5322 40.7873 0.0000 0.0000 0.0000
# 4 0.0000 0.0000 0.0000 13.7856 0.0000 0.0000
# 5 0.0000 0.0000 0.0000 0.0000 10.4046 0.0000
# 6 0.0000 0.0000 0.0000 0.0000 0.0000 -18.1567
#
#
#
# Elastic Compliance Matrix: (Units=1/GPa)
#
#
# Indices 1 2 3 4 5 6 
#
# 1 0.016917 -0.004019 -0.008536 0.000000 0.000000 0.000000
# 2 -0.004019 0.009818 -0.003086 0.000000 0.000000 0.000000
# 3 -0.008536 -0.003086 0.031775 0.000000 0.000000 0.000000
# 4 0.000000 0.000000 0.000000 0.072539 0.000000 0.000000
# 5 0.000000 0.000000 0.000000 0.000000 0.096111 0.000000
# 6 0.000000 0.000000 0.000000 0.000000 0.000000 -0.055076
#
#
# Mechanical properties :
#
#
# Convention : Reuss Voigt Hill
#
# Bulk Modulus (GPa) = 36.72601 48.07380 42.39990
# Shear Modulus (GPa) = 23.53576 11.73033 17.63305
#
# Velocity S-wave (km/s) = 3.54578 2.50324 3.06910
# Velocity P-wave (km/s) = 6.03175 5.83399 5.93369
#
# Compressibility (1/GPa) = 0.02722866
#
# Stress axis : x y z
#
# Youngs Moduli (GPa) = 59.11109 101.85333 31.47128
#
# Poissons Ratio (x) = 0.40932 0.26864
# Poissons Ratio (y) = 0.23755 0.09712
# Poissons Ratio (z) = 0.50458 0.31432
#
# Static dielectric constant tensor:
#      x y z
#    x 1.636080 0.000000 0.000000 
#    y 0.000000 1.690150 0.000000 
#    z 0.000000 0.000000 1.640240 
# 
# From -- ./inp_files/34903.got.cif
#   From: 2010.05.17/outbox.cif.g08.bks.cpg/sg71_18_cif.got.tgz:34903.got - 2010.06.03 16:22:01.
