data_PCOD9519383
_publ_section_title
;
Structure prediction by ZEFSAII (Michael W. Deem and Ramdas Pophale) SiO2 
 PCOD9519383
Probable space group: I M M M
;
_chemical_formula_sum "Si O2"
_cell_formula_units_Z 104
_cell_length_a 7.596501
_cell_length_b 28.726984
_cell_length_c 22.491015
_cell_angle_alpha 90.000000
_cell_angle_beta 90.000000
_cell_angle_gamma 90.000000
_cell_volume 4908.091913
_symmetry_space_group_name_H-M "I M M M"
_symmetry_group_IT_number 71
_symmetry_cell_setting 'orthorhombic'
loop_
_space_group_symop_operation_xyz
x,y,z
-x,-y,z
x,-y,-z
-x,y,-z
-x,-y,-z
x,y,-z
-x,y,z
x,-y,z
1/2+x,1/2+y,1/2+z
1/2-x,1/2-y,1/2+z
1/2+x,1/2-y,1/2-z
1/2-x,1/2+y,1/2-z
1/2-x,1/2-y,1/2-z
1/2+x,1/2+y,1/2-z
1/2-x,1/2+y,1/2+z
1/2+x,1/2-y,1/2+z
loop_
_atom_site_type_symbol
_atom_site_label
_atom_site_fract_x
_atom_site_fract_y
_atom_site_fract_z
Si Si1 0.215527 0.948458 0.000000
Si Si2 0.801067 0.197300 0.760448
Si Si3 0.301485 0.879437 0.326682
Si Si4 0.711776 0.946244 0.227077
Si Si5 0.787210 0.887935 0.108029
Si Si6 0.715292 0.813689 0.430995
Si Si7 0.203208 0.790412 0.900859
O O1 0.272213 0.925172 0.060509
O O2 0.000000 0.947284 0.000000
O O3 0.278210 0.000000 0.000000
O O4 0.750000 0.250000 0.750000
O O5 0.688804 0.161863 0.722414
O O6 0.794936 0.195907 0.831162
O O7 0.000000 0.188226 0.741013
O O8 0.500000 0.893679 0.343677
O O9 0.221384 0.922041 0.288544
O O10 0.222832 0.853351 0.384611
O O11 0.500000 0.948012 0.231712
O O12 0.749217 0.910366 0.172819
O O13 0.773409 0.000000 0.218074
O O14 0.716224 0.839190 0.079559
O O15 0.000000 0.882998 0.106942
O O16 0.760599 0.821864 0.500000
O O17 0.500000 0.813379 0.426184
O O18 0.776166 0.761180 0.412713
O O19 0.000000 0.787147 0.921806
#
# Coordination Sequence:
#
# PCOD9519383 Si02
#       7
#     8  16  16  16  16  16  16
#     4   9  18  30  45  67  95 129 167 209 252 286
#     4  11  19  30  48  74 103 131 163 197 241 292
#     4  10  19  33  51  73 100 130 167 210 256 302
#     4  10  21  35  51  72  99 130 164 208 264 313
#     4  10  19  32  50  73 100 129 165 208 248 292
#     4   9  17  29  48  73 100 131 166 202 241 295
#     4   9  17  27  43  71 100 124 158 197 237 284
#
# _framework density 21.189496999999999
#
# number of rings (size 3 to 8) (size 9 to 14) (size 15 to 20)
#    0.000    2.231    3.077    0.923    1.077    0.923 
#    0.000    0.385    0.000    2.308    0.000    3.231 
#    0.000    0.000    0.000    2.769    0.000    3.077 
#
# Total GULP energy -289480.389888 kJ/mol
# GULP energy per Si atom -5566.930575 kJ/mol
# Density = 2.114127 g / cm^3
# Si number density = 21.189497 Si / 1000 Ang^3
#
#
#
# Elastic Constant Matrix: (Units=GPa)
#
#
# Indices 1 2 3 4 5 6 
#
# 1 49.7836 -6.2717 4.4550 0.0000 0.0000 0.0000
# 2 -6.2717 97.1051 49.9708 0.0000 0.0000 0.0000
# 3 4.4550 49.9708 122.3850 0.0000 0.0000 0.0000
# 4 0.0000 0.0000 0.0000 34.8145 0.0000 0.0000
# 5 0.0000 0.0000 0.0000 0.0000 9.2075 0.0000
# 6 0.0000 0.0000 0.0000 0.0000 0.0000 0.7975
#
#
#
# Elastic Compliance Matrix: (Units=1/GPa)
#
#
# Indices 1 2 3 4 5 6 
#
# 1 0.020505 0.002163 -0.001630 0.000000 0.000000 0.000000
# 2 0.002163 0.013266 -0.005495 0.000000 0.000000 0.000000
# 3 -0.001630 -0.005495 0.010474 0.000000 0.000000 0.000000
# 4 0.000000 0.000000 0.000000 0.028724 0.000000 0.000000
# 5 0.000000 0.000000 0.000000 0.000000 0.108607 0.000000
# 6 0.000000 0.000000 0.000000 0.000000 0.000000 1.253928
#
#
# Mechanical properties :
#
#
# Convention : Reuss Voigt Hill
#
# Bulk Modulus (GPa) = 29.13649 40.62023 34.87836
# Shear Modulus (GPa) = 3.43202 23.70521 13.56861
#
# Velocity S-wave (km/s) = 1.27405 3.34836 2.53325
# Velocity P-wave (km/s) = 3.99306 5.84468 5.00524
#
# Compressibility (1/GPa) = 0.03432122
#
# Stress axis : x y z
#
# Youngs Moduli (GPa) = 48.76801 75.38246 95.47450
#
# Poissons Ratio (x) = -0.16305 0.15558
# Poissons Ratio (y) = -0.10548 0.52465
# Poissons Ratio (z) = 0.07947 0.41424
#
# Static dielectric constant tensor:
#      x y z
#    x 1.835830 0.000000 0.000000 
#    y 0.000000 2.225480 0.000000 
#    z 0.000000 0.000000 1.625120 
# 
# From -- ./inp_files/57978.got.cif
#   From: 2010.05.17/outbox.cif.g08.bks.cpg/sg71_29_cif.got.tgz:57978.got - 2010.06.03 16:22:01.
