data_PCOD9519937
_publ_section_title
;
Structure prediction by ZEFSAII (Michael W. Deem and Ramdas Pophale) SiO2 
 PCOD9519937
Probable space group: I M M M
;
_chemical_formula_sum "Si O2"
_cell_formula_units_Z 80
_cell_length_a 7.828114
_cell_length_b 26.568218
_cell_length_c 18.863602
_cell_angle_alpha 90.000000
_cell_angle_beta 90.000000
_cell_angle_gamma 90.000000
_cell_volume 3923.233821
_symmetry_space_group_name_H-M "I M M M"
_symmetry_group_IT_number 71
_symmetry_cell_setting 'orthorhombic'
loop_
_space_group_symop_operation_xyz
x,y,z
-x,-y,z
x,-y,-z
-x,y,-z
-x,-y,-z
x,y,-z
-x,y,z
x,-y,z
1/2+x,1/2+y,1/2+z
1/2-x,1/2-y,1/2+z
1/2+x,1/2-y,1/2-z
1/2-x,1/2+y,1/2-z
1/2-x,1/2-y,1/2-z
1/2+x,1/2+y,1/2-z
1/2-x,1/2+y,1/2+z
1/2+x,1/2-y,1/2+z
loop_
_atom_site_type_symbol
_atom_site_label
_atom_site_fract_x
_atom_site_fract_y
_atom_site_fract_z
Si Si1 0.702869 0.807596 0.331342
Si Si2 0.293340 0.500000 0.169333
Si Si3 0.796566 0.095540 0.580111
Si Si4 0.790654 0.401451 0.418393
Si Si5 0.706114 0.195018 0.830671
Si Si6 0.294917 0.000000 0.834342
O O1 0.500000 0.813179 0.328530
O O2 0.769440 0.851226 0.381833
O O3 0.769493 0.812327 0.250286
O O4 0.744254 0.750869 0.355021
O O5 0.500000 0.500000 0.166980
O O6 0.229976 0.549890 0.128664
O O7 0.244680 0.500000 0.251427
O O8 0.726862 0.094745 0.500000
O O9 0.000000 0.087870 0.574977
O O10 0.737140 0.404581 0.500000
O O11 0.734443 0.349957 0.380808
O O12 0.732483 0.449688 0.373492
O O13 0.000000 0.401464 0.417870
O O14 0.500000 0.193284 0.828642
O O15 0.500000 0.000000 0.841582
#
# Coordination Sequence:
#
# PCOD9519937 Si02
#       6
#    16   8  16  16  16   8
#     4  10  20  34  53  78 107 137 173 219 265 307
#     4  10  21  37  57  79 103 134 172 210 252 308
#     4  10  21  37  56  77 103 136 173 213 258 311
#     4   9  17  30  51  78 105 135 174 216 254 298
#     4   9  18  33  52  75 105 142 181 216 253 304
#     4  10  19  33  55  81 107 134 168 212 260 306
#
# _framework density 20.39134
#
# number of rings (size 3 to 8) (size 9 to 14) (size 15 to 20)
#    0.000    2.400    0.000    2.400    0.000    6.800 
#    0.000    3.000    0.000    4.200    0.000    0.000 
#    0.000    0.000    0.000    0.000    0.000    0.000 
#
# Total GULP energy -223377.965573 kJ/mol
# GULP energy per Si atom -5584.449139 kJ/mol
# Density = 2.034493 g / cm^3
# Si number density = 20.391340 Si / 1000 Ang^3
#
#
#
# Elastic Constant Matrix: (Units=GPa)
#
#
# Indices 1 2 3 4 5 6 
#
# 1 21.1051 -2.6896 1.6054 0.0000 0.0000 0.0000
# 2 -2.6896 189.9127 134.7753 0.0000 0.0000 0.0000
# 3 1.6054 134.7753 175.9682 0.0000 0.0000 0.0000
# 4 0.0000 0.0000 0.0000 -159.4688 0.0000 0.0000
# 5 0.0000 0.0000 0.0000 0.0000 20.4571 0.0000
# 6 0.0000 0.0000 0.0000 0.0000 0.0000 -2.3373
#
#
#
# Elastic Compliance Matrix: (Units=1/GPa)
#
#
# Indices 1 2 3 4 5 6 
#
# 1 0.047816 0.002162 -0.002092 0.000000 0.000000 0.000000
# 2 0.002162 0.011633 -0.008930 0.000000 0.000000 0.000000
# 3 -0.002092 -0.008930 0.012541 0.000000 0.000000 0.000000
# 4 0.000000 0.000000 0.000000 -0.006271 0.000000 0.000000
# 5 0.000000 0.000000 0.000000 0.000000 0.048883 0.000000
# 6 0.000000 0.000000 0.000000 0.000000 0.000000 -0.427836
#
#
# Mechanical properties :
#
#
# Convention : Reuss Voigt Hill
#
# Bulk Modulus (GPa) = 18.42597 72.70760 45.56679
# Shear Modulus (GPa) = -18.02307 -11.38347 -14.70327
#
# Velocity S-wave (km/s) = -2.97620 -2.36530 -2.68816
# Velocity P-wave (km/s) = 1.65969 5.31733 3.57208
#
# Compressibility (1/GPa) = 0.05427121
#
# Stress axis : x y z
#
# Youngs Moduli (GPa) = 20.91329 85.95907 79.73610
#
# Poissons Ratio (x) = -0.18582 0.16680
# Poissons Ratio (y) = -0.04521 0.71203
# Poissons Ratio (z) = 0.04375 0.76760
#
# Static dielectric constant tensor:
#      x y z
#    x 1.753230 0.000000 0.000000 
#    y 0.000000 1.694810 0.000000 
#    z 0.000000 0.000000 1.701510 
# 
# From -- ./inp_files/42262.got.cif
#   From: 2010.05.17/outbox.cif.g08.bks.cpg/sg71_22_cif.got.tgz:42262.got - 2010.06.03 16:22:01.
