data_PCOD9519278
_publ_section_title
;
Structure prediction by ZEFSAII (Michael W. Deem and Ramdas Pophale) SiO2 
 PCOD9519278
Probable space group: I M M M
;
_chemical_formula_sum "Si O2"
_cell_formula_units_Z 80
_cell_length_a 22.305429
_cell_length_b 22.672410
_cell_length_c 7.735928
_cell_angle_alpha 90.000000
_cell_angle_beta 90.000000
_cell_angle_gamma 90.000000
_cell_volume 3912.196733
_symmetry_space_group_name_H-M "I M M M"
_symmetry_group_IT_number 71
_symmetry_cell_setting 'orthorhombic'
loop_
_space_group_symop_operation_xyz
x,y,z
-x,-y,z
x,-y,-z
-x,y,-z
-x,-y,-z
x,y,-z
-x,y,z
x,-y,z
1/2+x,1/2+y,1/2+z
1/2-x,1/2-y,1/2+z
1/2+x,1/2-y,1/2-z
1/2-x,1/2+y,1/2-z
1/2-x,1/2-y,1/2-z
1/2+x,1/2+y,1/2-z
1/2-x,1/2+y,1/2+z
1/2+x,1/2-y,1/2+z
loop_
_atom_site_type_symbol
_atom_site_label
_atom_site_fract_x
_atom_site_fract_y
_atom_site_fract_z
Si Si1 0.229896 0.432009 0.704544
Si Si2 0.356448 0.610520 0.802597
Si Si3 0.500000 0.068186 0.704237
Si Si4 0.618067 0.143593 0.791937
Si Si5 0.569710 0.500000 0.788474
Si Si6 0.179374 0.761922 0.290982
O O1 0.239852 0.419168 0.500000
O O2 0.214023 0.500000 0.719997
O O3 0.290756 0.418172 0.801216
O O4 0.174963 0.393845 0.769330
O O5 0.398894 0.560120 0.724083
O O6 0.344892 0.675165 0.724127
O O7 0.377499 0.619917 0.000000
O O8 0.500000 0.061492 0.500000
O O9 0.558000 0.107965 0.748695
O O10 0.500000 0.000000 0.776929
O O11 0.634513 0.209756 0.732448
O O12 0.619577 0.145430 0.000000
O O13 0.500000 0.500000 0.747971
O O14 0.576618 0.500000 0.000000
O O15 0.177761 0.764070 0.500000
O O16 0.250000 0.750000 0.250000
#
# Coordination Sequence:
#
# PCOD9519278 Si02
#       6
#    16  16   8  16   8  16
#     4  10  19  31  52  81 108 140 183 228 277 336
#     4  10  19  32  53  81 109 142 183 230 281 328
#     4  11  25  43  61  85 115 150 195 244 292 338
#     4  10  21  38  58  81 113 155 193 229 285 349
#     4   9  18  34  53  77 109 144 183 228 277 325
#     4  10  20  34  55  85 115 145 184 230 280 337
#
# _framework density 20.448868999999998
#
# number of rings (size 3 to 8) (size 9 to 14) (size 15 to 20)
#    0.000    2.000    3.000    0.900    0.000    3.200 
#    1.800    0.000    0.000    1.200    0.000    0.000 
#    0.000    0.000    0.000    0.000    0.000    0.000 
#
# Total GULP energy -223027.893991 kJ/mol
# GULP energy per Si atom -5575.697350 kJ/mol
# Density = 2.040233 g / cm^3
# Si number density = 20.448869 Si / 1000 Ang^3
#
#
#
# Elastic Constant Matrix: (Units=GPa)
#
#
# Indices 1 2 3 4 5 6 
#
# 1 129.0483 99.5409 -8.9759 0.0000 0.0000 0.0000
# 2 99.5409 196.4821 21.4795 0.0000 0.0000 0.0000
# 3 -8.9759 21.4795 27.9255 0.0000 0.0000 0.0000
# 4 0.0000 0.0000 0.0000 10.4779 0.0000 0.0000
# 5 0.0000 0.0000 0.0000 0.0000 16.4951 0.0000
# 6 0.0000 0.0000 0.0000 0.0000 0.0000 10.5639
#
#
#
# Elastic Compliance Matrix: (Units=1/GPa)
#
#
# Indices 1 2 3 4 5 6 
#
# 1 0.015822 -0.009359 0.012284 0.000000 0.000000 0.000000
# 2 -0.009359 0.011092 -0.011540 0.000000 0.000000 0.000000
# 3 0.012284 -0.011540 0.048634 0.000000 0.000000 0.000000
# 4 0.000000 0.000000 0.000000 0.095439 0.000000 0.000000
# 5 0.000000 0.000000 0.000000 0.000000 0.060624 0.000000
# 6 0.000000 0.000000 0.000000 0.000000 0.000000 0.094662
#
#
# Mechanical properties :
#
#
# Convention : Reuss Voigt Hill
#
# Bulk Modulus (GPa) = 17.14694 64.17165 40.65929
# Shear Modulus (GPa) = 13.77628 23.60148 18.68888
#
# Velocity S-wave (km/s) = 2.59838 3.40099 3.02641
# Velocity P-wave (km/s) = 4.17200 6.84631 5.66911
#
# Compressibility (1/GPa) = 0.05831945
#
# Stress axis : x y z
#
# Youngs Moduli (GPa) = 63.20215 90.15233 20.56170
#
# Poissons Ratio (x) = 0.84371 -0.25258
# Poissons Ratio (y) = 0.59149 0.23728
# Poissons Ratio (z) = -0.77638 1.04036
#
# Static dielectric constant tensor:
#      x y z
#    x 1.678410 0.000000 0.000000 
#    y 0.000000 1.780390 0.000000 
#    z 0.000000 0.000000 1.786180 
# 
# From -- ./inp_files/10270.got.cif
#   From: 2010.05.17/outbox.cif.g08.bks.cpg/sg71_6_cif.got.tgz:10270.got - 2010.06.03 16:22:01.
