data_PCOD9519671
_publ_section_title
;
Structure prediction by ZEFSAII (Michael W. Deem and Ramdas Pophale) SiO2 
 PCOD9519671
Probable space group: I M M M
;
_chemical_formula_sum "Si O2"
_cell_formula_units_Z 88
_cell_length_a 20.567145
_cell_length_b 25.048123
_cell_length_c 8.603963
_cell_angle_alpha 90.000000
_cell_angle_beta 90.000000
_cell_angle_gamma 90.000000
_cell_volume 4432.489661
_symmetry_space_group_name_H-M "I M M M"
_symmetry_group_IT_number 71
_symmetry_cell_setting 'orthorhombic'
loop_
_space_group_symop_operation_xyz
x,y,z
-x,-y,z
x,-y,-z
-x,y,-z
-x,-y,-z
x,y,-z
-x,y,z
x,-y,z
1/2+x,1/2+y,1/2+z
1/2-x,1/2-y,1/2+z
1/2+x,1/2-y,1/2-z
1/2-x,1/2+y,1/2-z
1/2-x,1/2-y,1/2-z
1/2+x,1/2+y,1/2-z
1/2-x,1/2+y,1/2+z
1/2+x,1/2-y,1/2+z
loop_
_atom_site_type_symbol
_atom_site_label
_atom_site_fract_x
_atom_site_fract_y
_atom_site_fract_z
Si Si1 0.693012 0.059948 0.819836
Si Si2 0.926905 0.746636 0.320934
Si Si3 0.930214 0.618777 0.682972
Si Si4 0.923394 0.000000 0.813277
Si Si5 0.673184 0.589579 0.182888
Si Si6 0.197651 0.792041 0.179418
O O1 0.636484 0.096578 0.750567
O O2 0.759045 0.061406 0.725051
O O3 0.667040 0.000000 0.823383
O O4 0.707872 0.075600 0.000000
O O5 0.909923 0.761520 0.500000
O O6 0.928603 0.682611 0.314446
O O7 0.872915 0.766134 0.203858
O O8 0.000000 0.766416 0.289287
O O9 0.929629 0.602872 0.500000
O O10 0.000000 0.601184 0.749492
O O11 0.884313 0.946963 0.755857
O O12 0.000000 0.000000 0.765667
O O13 0.921120 0.000000 0.000000
O O14 0.687406 0.649666 0.244311
O O15 0.661683 0.591855 0.000000
O O16 0.250000 0.750000 0.250000
O O17 0.215031 0.799378 0.000000
#
# Coordination Sequence:
#
# PCOD9519671 Si02
#       6
#    16  16  16   8  16  16
#     4  10  19  32  55  84 118 158 200 248 298 350
#     4   9  18  35  58  83 116 158 203 248 298 363
#     4   8  15  29  51  81 116 156 200 244 289 341
#     4  11  25  47  73  99 128 165 214 273 335 396
#     4  12  25  42  65  92 125 165 208 259 319 388
#     4  12  25  41  63  92 127 165 211 267 323 386
#
# _framework density 19.853401999999999
#
# number of rings (size 3 to 8) (size 9 to 14) (size 15 to 20)
#    0.000    1.727    0.909    5.727    0.000    3.636 
#    0.000    1.818    0.000    1.636    0.000    1.273 
#    0.000    0.000    0.000    0.000    0.000    0.000 
#
# Total GULP energy -245334.170519 kJ/mol
# GULP energy per Si atom -5575.776603 kJ/mol
# Density = 1.980822 g / cm^3
# Si number density = 19.853402 Si / 1000 Ang^3
#
#
#
# Elastic Constant Matrix: (Units=GPa)
#
#
# Indices 1 2 3 4 5 6 
#
# 1 104.4954 54.4374 29.3197 0.0000 0.0000 0.0000
# 2 54.4374 98.1076 41.0686 0.0000 0.0000 0.0000
# 3 29.3197 41.0686 84.2654 0.0000 0.0000 0.0000
# 4 0.0000 0.0000 0.0000 25.5573 0.0000 0.0000
# 5 0.0000 0.0000 0.0000 0.0000 17.4828 0.0000
# 6 0.0000 0.0000 0.0000 0.0000 0.0000 29.3964
#
#
#
# Elastic Compliance Matrix: (Units=1/GPa)
#
#
# Indices 1 2 3 4 5 6 
#
# 1 0.013577 -0.006980 -0.001322 0.000000 0.000000 0.000000
# 2 -0.006980 0.016394 -0.005561 0.000000 0.000000 0.000000
# 3 -0.001322 -0.005561 0.015038 0.000000 0.000000 0.000000
# 4 0.000000 0.000000 0.000000 0.039128 0.000000 0.000000
# 5 0.000000 0.000000 0.000000 0.000000 0.057199 0.000000
# 6 0.000000 0.000000 0.000000 0.000000 0.000000 0.034018
#
#
# Mechanical properties :
#
#
# Convention : Reuss Voigt Hill
#
# Bulk Modulus (GPa) = 57.86475 59.61332 58.73903
# Shear Modulus (GPa) = 23.94169 25.29018 24.61594
#
# Velocity S-wave (km/s) = 3.47641 3.57297 3.52502
# Velocity P-wave (km/s) = 6.73225 6.86392 6.79840
#
# Compressibility (1/GPa) = 0.01728168
#
# Stress axis : x y z
#
# Youngs Moduli (GPa) = 73.65349 60.99813 66.49948
#
# Poissons Ratio (x) = 0.42577 0.08792
# Poissons Ratio (y) = 0.51411 0.36982
# Poissons Ratio (z) = 0.09738 0.33923
#
# Static dielectric constant tensor:
#      x y z
#    x 1.719120 0.000000 0.000000 
#    y 0.000000 1.763610 0.000000 
#    z 0.000000 0.000000 1.704570 
# 
# From -- ./inp_files/10505.got.cif
#   From: 2010.05.17/outbox.cif.g08.bks.cpg/sg71_6_cif.got.tgz:10505.got - 2010.06.03 16:22:01.
