data_PCOD9519021
_publ_section_title
;
Structure prediction by ZEFSAII (Michael W. Deem and Ramdas Pophale) SiO2 
 PCOD9519021
Probable space group: I M M M
;
_chemical_formula_sum "Si O2"
_cell_formula_units_Z 80
_cell_length_a 22.080347
_cell_length_b 9.111198
_cell_length_c 19.213660
_cell_angle_alpha 90.000000
_cell_angle_beta 90.000000
_cell_angle_gamma 90.000000
_cell_volume 3865.373635
_symmetry_space_group_name_H-M "I M M M"
_symmetry_group_IT_number 71
_symmetry_cell_setting 'orthorhombic'
loop_
_space_group_symop_operation_xyz
x,y,z
-x,-y,z
x,-y,-z
-x,y,-z
-x,-y,-z
x,y,-z
-x,y,z
x,-y,z
1/2+x,1/2+y,1/2+z
1/2-x,1/2-y,1/2+z
1/2+x,1/2-y,1/2-z
1/2-x,1/2+y,1/2-z
1/2-x,1/2-y,1/2-z
1/2+x,1/2+y,1/2-z
1/2-x,1/2+y,1/2+z
1/2+x,1/2-y,1/2+z
loop_
_atom_site_type_symbol
_atom_site_label
_atom_site_fract_x
_atom_site_fract_y
_atom_site_fract_z
Si Si1 0.927287 0.329371 0.077289
Si Si2 0.383225 0.672211 0.140987
Si Si3 0.737407 0.827305 0.643155
Si Si4 0.113487 0.667632 0.500000
Si Si5 0.261433 0.329503 0.500000
Si Si6 0.870062 0.175917 0.791229
O O1 0.908118 0.500000 0.085013
O O2 0.904653 0.234130 0.141364
O O3 0.000000 0.328563 0.078103
O O4 0.908574 0.277655 0.000000
O O5 0.397081 0.500000 0.132597
O O6 0.309952 0.687927 0.145603
O O7 0.401781 0.721679 0.218539
O O8 0.405144 0.755079 0.072153
O O9 0.719501 0.756390 0.569046
O O10 0.697000 0.743401 0.699519
O O11 0.724516 0.000000 0.646423
O O12 0.093649 0.500000 0.500000
O O13 0.187440 0.670628 0.500000
O O14 0.280692 0.500000 0.500000
O O15 0.865676 0.000000 0.790414
#
# Coordination Sequence:
#
# PCOD9519021 Si02
#       6
#    16  16  16   8   8  16
#     4   9  20  40  61  78 100 133 174 219 267 319
#     4   9  19  34  49  70 103 142 177 210 254 308
#     4  10  19  31  47  67  98 140 178 213 253 302
#     4   9  17  29  49  71  94 129 172 213 249 290
#     4   9  17  29  43  63  92 127 170 215 253 293
#     4  11  22  33  50  77 105 133 170 216 263 310
#
# _framework density 20.696576
#
# number of rings (size 3 to 8) (size 9 to 14) (size 15 to 20)
#    0.000    2.400    0.000    3.000    1.400    5.600 
#    0.000    1.000    0.000    0.000    0.000    0.700 
#    0.000    5.600    0.000    0.000    0.000    0.000 
#
# Total GULP energy -223275.271253 kJ/mol
# GULP energy per Si atom -5581.881781 kJ/mol
# Density = 2.064947 g / cm^3
# Si number density = 20.696576 Si / 1000 Ang^3
#
#
#
# Elastic Constant Matrix: (Units=GPa)
#
#
# Indices 1 2 3 4 5 6 
#
# 1 14.3196 -7.4114 -0.4983 0.0000 0.0000 0.0000
# 2 -7.4114 98.7299 82.9785 0.0000 0.0000 0.0000
# 3 -0.4983 82.9785 192.7950 0.0000 0.0000 0.0000
# 4 0.0000 0.0000 0.0000 27.4747 0.0000 0.0000
# 5 0.0000 0.0000 0.0000 0.0000 20.3305 0.0000
# 6 0.0000 0.0000 0.0000 0.0000 0.0000 14.4815
#
#
#
# Elastic Compliance Matrix: (Units=1/GPa)
#
#
# Indices 1 2 3 4 5 6 
#
# 1 0.074094 0.008462 -0.003451 0.000000 0.000000 0.000000
# 2 0.008462 0.016835 -0.007224 0.000000 0.000000 0.000000
# 3 -0.003451 -0.007224 0.008287 0.000000 0.000000 0.000000
# 4 0.000000 0.000000 0.000000 0.036397 0.000000 0.000000
# 5 0.000000 0.000000 0.000000 0.000000 0.049187 0.000000
# 6 0.000000 0.000000 0.000000 0.000000 0.000000 0.069053
#
#
# Mechanical properties :
#
#
# Convention : Reuss Voigt Hill
#
# Bulk Modulus (GPa) = 10.54949 50.66467 30.60708
# Shear Modulus (GPa) = 17.24875 27.84240 22.54557
#
# Velocity S-wave (km/s) = 2.89002 3.67177 3.30409
# Velocity P-wave (km/s) = 4.03045 6.51987 5.42002
#
# Compressibility (1/GPa) = 0.09479132
#
# Stress axis : x y z
#
# Youngs Moduli (GPa) = 13.49641 59.39866 120.66882
#
# Poissons Ratio (x) = -0.50264 0.41637
# Poissons Ratio (y) = -0.11421 0.87172
# Poissons Ratio (z) = 0.04657 0.42910
#
# Static dielectric constant tensor:
#      x y z
#    x 1.779060 0.000000 0.000000 
#    y 0.000000 1.688500 0.000000 
#    z 0.000000 0.000000 1.763940 
# 
# From -- ./inp_files/8459.got.cif
#   From: 2010.05.17/outbox.cif.g08.bks.cpg/sg71_5_cif.got.tgz:8459.got - 2010.06.03 16:22:01.
