data_PCOD9519020
_publ_section_title
;
Structure prediction by ZEFSAII (Michael W. Deem and Ramdas Pophale) SiO2 
 PCOD9519020
Probable space group: I M M M
;
_chemical_formula_sum "Si O2"
_cell_formula_units_Z 104
_cell_length_a 30.807049
_cell_length_b 8.712088
_cell_length_c 23.349506
_cell_angle_alpha 90.000000
_cell_angle_beta 90.000000
_cell_angle_gamma 90.000000
_cell_volume 6266.860820
_symmetry_space_group_name_H-M "I M M M"
_symmetry_group_IT_number 71
_symmetry_cell_setting 'orthorhombic'
loop_
_space_group_symop_operation_xyz
x,y,z
-x,-y,z
x,-y,-z
-x,y,-z
-x,-y,-z
x,y,-z
-x,y,z
x,-y,z
1/2+x,1/2+y,1/2+z
1/2-x,1/2-y,1/2+z
1/2+x,1/2-y,1/2-z
1/2-x,1/2+y,1/2-z
1/2-x,1/2-y,1/2-z
1/2+x,1/2+y,1/2-z
1/2-x,1/2+y,1/2+z
1/2+x,1/2-y,1/2+z
loop_
_atom_site_type_symbol
_atom_site_label
_atom_site_fract_x
_atom_site_fract_y
_atom_site_fract_z
Si Si1 0.375270 0.814609 0.433574
Si Si2 0.807941 0.182999 0.432341
Si Si3 0.450366 0.813305 0.217839
Si Si4 0.783450 0.177586 0.069505
Si Si5 0.448974 0.315848 0.000000
Si Si6 0.549559 0.187225 0.651937
Si Si7 0.603152 0.184420 0.891744
O O1 0.381519 0.767385 0.500000
O O2 0.328701 0.753764 0.412587
O O3 0.414680 0.761431 0.393540
O O4 0.374070 0.000000 0.432675
O O5 0.812339 0.224299 0.500000
O O6 0.760651 0.238696 0.412188
O O7 0.847750 0.259572 0.399608
O O8 0.810766 0.000000 0.428187
O O9 0.500000 0.766413 0.204850
O O10 0.440035 0.764912 0.282813
O O11 0.418015 0.763063 0.168134
O O12 0.449965 0.000000 0.217989
O O13 0.782110 0.000000 0.086206
O O14 0.783573 0.185866 0.000000
O O15 0.425183 0.250103 0.055923
O O16 0.444851 0.500000 0.000000
O O17 0.500000 0.275619 0.000000
O O18 0.500000 0.234517 0.638736
O O19 0.549715 0.000000 0.651226
O O20 0.601818 0.000000 0.894259
#
# Coordination Sequence:
#
# PCOD9519020 Si02
#       7
#    16  16  16  16   8  16  16
#     4   9  16  26  44  73 103 127 154 189 234 281
#     4  10  19  31  47  67  95 124 152 190 241 293
#     4   8  15  28  45  66  91 122 161 199 234 273
#     4   9  17  29  46  67  93 125 159 192 230 279
#     4  11  23  35  45  63  95 129 157 193 246 295
#     4   8  14  26  45  69  98 129 159 193 231 275
#     4  11  20  30  48  70  92 119 158 203 241 284
#
# _framework density 16.595230999999998
#
# number of rings (size 3 to 8) (size 9 to 14) (size 15 to 20)
#    0.000    2.692    0.769    3.000    0.000    4.000 
#    0.000    1.538    0.000    3.231    0.000    6.462 
#    0.000    0.000    0.000    0.000    0.000    0.000 
#
# Total GULP energy -289809.638481 kJ/mol
# GULP energy per Si atom -5573.262278 kJ/mol
# Density = 1.655746 g / cm^3
# Si number density = 16.595231 Si / 1000 Ang^3
#
#
#
# Elastic Constant Matrix: (Units=GPa)
#
#
# Indices 1 2 3 4 5 6 
#
# 1 170.5289 36.1179 90.9586 0.0000 0.0000 0.0000
# 2 36.1179 22.5039 22.4616 0.0000 0.0000 0.0000
# 3 90.9586 22.4616 85.8278 0.0000 0.0000 0.0000
# 4 0.0000 0.0000 0.0000 4.8891 0.0000 0.0000
# 5 0.0000 0.0000 0.0000 0.0000 14.0604 0.0000
# 6 0.0000 0.0000 0.0000 0.0000 0.0000 21.8715
#
#
#
# Elastic Compliance Matrix: (Units=1/GPa)
#
#
# Indices 1 2 3 4 5 6 
#
# 1 0.015382 -0.011392 -0.013320 0.000000 0.000000 0.000000
# 2 -0.011392 0.068586 -0.005876 0.000000 0.000000 0.000000
# 3 -0.013320 -0.005876 0.027305 0.000000 0.000000 0.000000
# 4 0.000000 0.000000 0.000000 0.204538 0.000000 0.000000
# 5 0.000000 0.000000 0.000000 0.000000 0.071122 0.000000
# 6 0.000000 0.000000 0.000000 0.000000 0.000000 0.045722
#
#
# Mechanical properties :
#
#
# Convention : Reuss Voigt Hill
#
# Bulk Modulus (GPa) = 19.96152 64.21521 42.08837
# Shear Modulus (GPa) = 9.79378 16.78569 13.28973
#
# Velocity S-wave (km/s) = 2.43195 3.18382 2.83294
# Velocity P-wave (km/s) = 4.46547 7.23150 6.00978
#
# Compressibility (1/GPa) = 0.05009639
#
# Stress axis : x y z
#
# Youngs Moduli (GPa) = 65.01289 14.58029 36.62330
#
# Poissons Ratio (x) = 0.16610 0.48781
# Poissons Ratio (y) = 0.74063 0.21520
# Poissons Ratio (z) = 0.86595 0.08568
#
# Static dielectric constant tensor:
#      x y z
#    x 1.553270 0.000000 0.000000 
#    y 0.000000 1.563020 0.000000 
#    z 0.000000 0.000000 1.547770 
# 
# From -- ./inp_files/56682.got.cif
#   From: 2010.05.17/outbox.cif.g08.bks.cpg/sg71_29_cif.got.tgz:56682.got - 2010.06.03 16:22:01.
