data_PCOD9519166
_publ_section_title
;
Structure prediction by ZEFSAII (Michael W. Deem and Ramdas Pophale) SiO2 
 PCOD9519166
Probable space group: I M M M
;
_chemical_formula_sum "Si O2"
_cell_formula_units_Z 88
_cell_length_a 28.321265
_cell_length_b 7.573016
_cell_length_c 18.115287
_cell_angle_alpha 90.000000
_cell_angle_beta 90.000000
_cell_angle_gamma 90.000000
_cell_volume 3885.319529
_symmetry_space_group_name_H-M "I M M M"
_symmetry_group_IT_number 71
_symmetry_cell_setting 'orthorhombic'
loop_
_space_group_symop_operation_xyz
x,y,z
-x,-y,z
x,-y,-z
-x,y,-z
-x,-y,-z
x,y,-z
-x,y,z
x,-y,z
1/2+x,1/2+y,1/2+z
1/2-x,1/2-y,1/2+z
1/2+x,1/2-y,1/2-z
1/2-x,1/2+y,1/2-z
1/2-x,1/2-y,1/2-z
1/2+x,1/2+y,1/2-z
1/2-x,1/2+y,1/2+z
1/2+x,1/2-y,1/2+z
loop_
_atom_site_type_symbol
_atom_site_label
_atom_site_fract_x
_atom_site_fract_y
_atom_site_fract_z
Si Si1 0.243552 0.716951 0.419947
Si Si2 0.655649 0.703530 0.619789
Si Si3 0.081679 0.794584 0.692491
Si Si4 0.052169 0.784535 0.143457
Si Si5 0.681627 0.199046 0.784576
Si Si6 0.000000 0.288378 0.417167
O O1 0.222702 0.765842 0.500000
O O2 0.243216 0.500000 0.416526
O O3 0.297856 0.778965 0.417891
O O4 0.216871 0.776490 0.345642
O O5 0.652278 0.500000 0.596321
O O6 0.602554 0.777816 0.610122
O O7 0.670466 0.709135 0.706618
O O8 0.057710 0.738157 0.769797
O O9 0.130103 0.694953 0.678541
O O10 0.045319 0.773334 0.627372
O O11 0.093723 0.000000 0.701770
O O12 0.000000 0.726179 0.116992
O O13 0.052213 0.000000 0.138243
O O14 0.697499 0.000000 0.766989
O O15 0.000000 0.500000 0.417484
O O16 0.000000 0.222263 0.500000
#
# Coordination Sequence:
#
# PCOD9519166 Si02
#       6
#    16  16  16  16  16   8
#     4   9  18  32  49  70  98 133 170 208 258 316
#     4   9  17  30  51  74  96 129 170 210 252 306
#     4  10  19  33  51  70  95 128 168 210 250 297
#     4   8  13  24  45  71  94 117 150 195 244 289
#     4  10  19  31  50  74 100 129 164 213 263 307
#     4  11  23  35  47  67  99 137 172 207 252 303
#
# _framework density 22.649359
#
# number of rings (size 3 to 8) (size 9 to 14) (size 15 to 20)
#    0.000    2.636    0.909    3.000    0.000    1.455 
#    0.000    2.727    0.000    4.909    0.000    3.818 
#    0.000    0.000    0.000    4.727    0.000    6.182 
#
# Total GULP energy -245353.220837 kJ/mol
# GULP energy per Si atom -5576.209564 kJ/mol
# Density = 2.259781 g / cm^3
# Si number density = 22.649359 Si / 1000 Ang^3
#
#
#
# Elastic Constant Matrix: (Units=GPa)
#
#
# Indices 1 2 3 4 5 6 
#
# 1 138.8277 0.2521 20.9021 0.0000 0.0000 0.0000
# 2 0.2521 57.1798 -0.8427 0.0000 0.0000 0.0000
# 3 20.9021 -0.8427 47.1414 0.0000 0.0000 0.0000
# 4 0.0000 0.0000 0.0000 -1.1900 0.0000 0.0000
# 5 0.0000 0.0000 0.0000 0.0000 7.1202 0.0000
# 6 0.0000 0.0000 0.0000 0.0000 0.0000 3.6994
#
#
#
# Elastic Compliance Matrix: (Units=1/GPa)
#
#
# Indices 1 2 3 4 5 6 
#
# 1 0.007719 -0.000084 -0.003424 0.000000 0.000000 0.000000
# 2 -0.000084 0.017494 0.000350 0.000000 0.000000 0.000000
# 3 -0.003424 0.000350 0.022737 0.000000 0.000000 0.000000
# 4 0.000000 0.000000 0.000000 -0.840366 0.000000 0.000000
# 5 0.000000 0.000000 0.000000 0.000000 0.140445 0.000000
# 6 0.000000 0.000000 0.000000 0.000000 0.000000 0.270315
#
#
# Mechanical properties :
#
#
# Convention : Reuss Voigt Hill
#
# Bulk Modulus (GPa) = 24.01899 31.53019 27.77459
# Shear Modulus (GPa) = -13.83277 16.78176 1.47450
#
# Velocity S-wave (km/s) = -2.47399 2.72497 0.80773
# Velocity P-wave (km/s) = 1.57064 4.88384 3.62759
#
# Compressibility (1/GPa) = 0.04163373
#
# Stress axis : x y z
#
# Youngs Moduli (GPa) = 129.55307 57.16175 43.98075
#
# Poissons Ratio (x) = 0.00483 0.15059
# Poissons Ratio (y) = 0.01095 -0.01540
# Poissons Ratio (z) = 0.44359 -0.02002
#
# Static dielectric constant tensor:
#      x y z
#    x 1.858210 0.000000 0.000000 
#    y 0.000000 1.916980 0.000000 
#    z 0.000000 0.000000 1.825840 
# 
# From -- ./inp_files/10960.got.cif
#   From: 2010.05.17/outbox.cif.g08.bks.cpg/sg71_6_cif.got.tgz:10960.got - 2010.06.03 16:22:01.
