data_PCOD9519906
_publ_section_title
;
Structure prediction by ZEFSAII (Michael W. Deem and Ramdas Pophale) SiO2 
 PCOD9519906
Probable space group: I M M M
;
_chemical_formula_sum "Si O2"
_cell_formula_units_Z 112
_cell_length_a 25.650992
_cell_length_b 14.613460
_cell_length_c 15.241971
_cell_angle_alpha 90.000000
_cell_angle_beta 90.000000
_cell_angle_gamma 90.000000
_cell_volume 5713.448951
_symmetry_space_group_name_H-M "I M M M"
_symmetry_group_IT_number 71
_symmetry_cell_setting 'orthorhombic'
loop_
_space_group_symop_operation_xyz
x,y,z
-x,-y,z
x,-y,-z
-x,y,-z
-x,-y,-z
x,y,-z
-x,y,z
x,-y,z
1/2+x,1/2+y,1/2+z
1/2-x,1/2-y,1/2+z
1/2+x,1/2-y,1/2-z
1/2-x,1/2+y,1/2-z
1/2-x,1/2-y,1/2-z
1/2+x,1/2+y,1/2-z
1/2-x,1/2+y,1/2+z
1/2+x,1/2-y,1/2+z
loop_
_atom_site_type_symbol
_atom_site_label
_atom_site_fract_x
_atom_site_fract_y
_atom_site_fract_z
Si Si1 0.060286 0.295100 0.401445
Si Si2 0.161257 0.601158 0.633700
Si Si3 0.255459 0.729472 0.599485
Si Si4 0.144045 0.108397 0.103952
Si Si5 0.195359 0.600865 0.833507
Si Si6 0.583072 0.106466 0.599847
Si Si7 0.059017 0.218929 0.213554
O O1 0.066120 0.255232 0.500000
O O2 0.102645 0.374908 0.392183
O O3 0.070409 0.230521 0.317248
O O4 0.000000 0.325350 0.393099
O O5 0.176311 0.500000 0.602238
O O6 0.200444 0.679262 0.602440
O O7 0.168771 0.601530 0.738232
O O8 0.264730 0.760529 0.500000
O O9 0.300412 0.656169 0.622034
O O10 0.263504 0.818187 0.658899
O O11 0.100657 0.156837 0.163301
O O12 0.146745 0.000000 0.119498
O O13 0.132503 0.122711 0.000000
O O14 0.217736 0.500000 0.849184
O O15 0.146006 0.616151 0.896857
O O16 0.565424 0.123975 0.500000
O O17 0.561746 0.180794 0.667671
O O18 0.571317 0.000000 0.621822
O O19 0.000000 0.184025 0.203436
#
# Coordination Sequence:
#
# PCOD9519906 Si02
#       7
#    16  16  16  16  16  16  16
#     4  10  22  40  61  84 113 152 196 244 298 350
#     4  11  22  37  58  85 116 152 197 243 289 345
#     4  11  21  35  57  84 117 154 193 240 289 342
#     4  10  21  37  57  85 122 161 197 234 288 353
#     4  10  20  35  57  85 116 153 194 237 288 346
#     4  10  19  33  54  81 114 150 189 231 282 348
#     4  11  22  37  58  84 115 152 198 245 288 342
#
# _framework density 19.602871
#
# number of rings (size 3 to 8) (size 9 to 14) (size 15 to 20)
#    0.000    1.571    2.857    2.143    0.000    4.571 
#    0.000    3.571    0.000    0.429    0.000    2.000 
#    0.000    0.000    0.000    0.000    0.000    0.143 
#
# Total GULP energy -312667.670278 kJ/mol
# GULP energy per Si atom -5583.351255 kJ/mol
# Density = 1.955825 g / cm^3
# Si number density = 19.602871 Si / 1000 Ang^3
#
#
#
# Elastic Constant Matrix: (Units=GPa)
#
#
# Indices 1 2 3 4 5 6 
#
# 1 76.2076 47.6031 23.7062 0.0000 0.0000 0.0000
# 2 47.6031 98.1844 43.4530 0.0000 0.0000 0.0000
# 3 23.7062 43.4530 105.7650 0.0000 0.0000 0.0000
# 4 0.0000 0.0000 0.0000 16.6913 0.0000 0.0000
# 5 0.0000 0.0000 0.0000 0.0000 6.4907 0.0000
# 6 0.0000 0.0000 0.0000 0.0000 0.0000 3.4024
#
#
#
# Elastic Compliance Matrix: (Units=1/GPa)
#
#
# Indices 1 2 3 4 5 6 
#
# 1 0.018851 -0.008885 -0.000575 0.000000 0.000000 0.000000
# 2 -0.008885 0.016636 -0.004843 0.000000 0.000000 0.000000
# 3 -0.000575 -0.004843 0.011574 0.000000 0.000000 0.000000
# 4 0.000000 0.000000 0.000000 0.059912 0.000000 0.000000
# 5 0.000000 0.000000 0.000000 0.000000 0.154067 0.000000
# 6 0.000000 0.000000 0.000000 0.000000 0.000000 0.293910
#
#
# Mechanical properties :
#
#
# Convention : Reuss Voigt Hill
#
# Bulk Modulus (GPa) = 54.18857 56.63128 55.40992
# Shear Modulus (GPa) = 8.47878 16.34318 12.41098
#
# Velocity S-wave (km/s) = 2.08199 2.89054 2.51892
# Velocity P-wave (km/s) = 5.78643 6.33185 6.06527
#
# Compressibility (1/GPa) = 0.01845408
#
# Stress axis : x y z
#
# Youngs Moduli (GPa) = 53.04759 60.10955 86.40317
#
# Poissons Ratio (x) = 0.53409 0.04967
# Poissons Ratio (y) = 0.47134 0.41849
# Poissons Ratio (z) = 0.03049 0.29113
#
# Static dielectric constant tensor:
#      x y z
#    x 1.682320 0.000000 0.000000 
#    y 0.000000 1.667150 0.000000 
#    z 0.000000 0.000000 1.737780 
# 
# From -- ./inp_files/34846.got.cif
#   From: 2010.05.17/outbox.cif.g08.bks.cpg/sg71_18_cif.got.tgz:34846.got - 2010.06.03 16:22:01.
