data_PCOD9519504
_publ_section_title
;
Structure prediction by ZEFSAII (Michael W. Deem and Ramdas Pophale) SiO2 
 PCOD9519504
Probable space group: I M M M
;
_chemical_formula_sum "Si O2"
_cell_formula_units_Z 80
_cell_length_a 28.951766
_cell_length_b 7.313657
_cell_length_c 16.455911
_cell_angle_alpha 90.000000
_cell_angle_beta 90.000000
_cell_angle_gamma 90.000000
_cell_volume 3484.428670
_symmetry_space_group_name_H-M "I M M M"
_symmetry_group_IT_number 71
_symmetry_cell_setting 'orthorhombic'
loop_
_space_group_symop_operation_xyz
x,y,z
-x,-y,z
x,-y,-z
-x,y,-z
-x,-y,-z
x,y,-z
-x,y,z
x,-y,z
1/2+x,1/2+y,1/2+z
1/2-x,1/2-y,1/2+z
1/2+x,1/2-y,1/2-z
1/2-x,1/2+y,1/2-z
1/2-x,1/2-y,1/2-z
1/2+x,1/2+y,1/2-z
1/2-x,1/2+y,1/2+z
1/2+x,1/2-y,1/2+z
loop_
_atom_site_type_symbol
_atom_site_label
_atom_site_fract_x
_atom_site_fract_y
_atom_site_fract_z
Si Si1 0.375750 0.296008 0.213557
Si Si2 0.710820 0.282124 0.682736
Si Si3 0.448763 0.722593 0.094890
Si Si4 0.552485 0.221076 0.343536
Si Si5 0.216050 0.795649 0.000000
Si Si6 0.610522 0.220227 0.500000
O O1 0.358612 0.500000 0.191820
O O2 0.336200 0.213188 0.272511
O O3 0.400759 0.210226 0.135260
O O4 0.421133 0.304910 0.268827
O O5 0.704283 0.500000 0.670584
O O6 0.750000 0.250000 0.750000
O O7 0.724232 0.213404 0.591414
O O8 0.500000 0.780423 0.127744
O O9 0.447790 0.500000 0.101045
O O10 0.448544 0.768840 0.000000
O O11 0.500000 0.277575 0.350554
O O12 0.581396 0.271823 0.422184
O O13 0.553767 0.000000 0.335901
O O14 0.160642 0.804075 0.000000
O O15 0.237098 0.000000 0.000000
O O16 0.616457 0.000000 0.500000
#
# Coordination Sequence:
#
# PCOD9519504 Si02
#       6
#    16  16  16  16   8   8
#     4  10  19  33  54  79 104 135 178 225 270 320
#     4  10  22  39  59  82 109 140 179 230 283 336
#     4   8  14  26  46  73 105 138 171 211 260 311
#     4  10  20  32  48  75 111 147 180 215 257 308
#     4  10  20  39  61  81 110 144 177 225 288 337
#     4  10  19  32  52  76 106 148 186 215 249 307
#
# _framework density 22.959285999999999
#
# number of rings (size 3 to 8) (size 9 to 14) (size 15 to 20)
#    0.000    2.400    2.000    1.500    0.000    4.000 
#    1.800    0.000    0.000    2.400    0.000    2.800 
#    0.000    0.000    0.000    0.000    0.000    0.000 
#
# Total GULP energy -222914.482154 kJ/mol
# GULP energy per Si atom -5572.862054 kJ/mol
# Density = 2.290703 g / cm^3
# Si number density = 22.959286 Si / 1000 Ang^3
#
#
#
# Elastic Constant Matrix: (Units=GPa)
#
#
# Indices 1 2 3 4 5 6 
#
# 1 58.2623 -2.6777 50.6248 0.0000 0.0000 0.0000
# 2 -2.6777 85.9913 3.6796 0.0000 0.0000 0.0000
# 3 50.6248 3.6796 152.6745 0.0000 0.0000 0.0000
# 4 0.0000 0.0000 0.0000 5.5034 0.0000 0.0000
# 5 0.0000 0.0000 0.0000 0.0000 54.2028 0.0000
# 6 0.0000 0.0000 0.0000 0.0000 0.0000 9.5936
#
#
#
# Elastic Compliance Matrix: (Units=1/GPa)
#
#
# Indices 1 2 3 4 5 6 
#
# 1 0.024214 0.001099 -0.008055 0.000000 0.000000 0.000000
# 2 0.001099 0.011691 -0.000646 0.000000 0.000000 0.000000
# 3 -0.008055 -0.000646 0.009237 0.000000 0.000000 0.000000
# 4 0.000000 0.000000 0.000000 0.181706 0.000000 0.000000
# 5 0.000000 0.000000 0.000000 0.000000 0.018449 0.000000
# 6 0.000000 0.000000 0.000000 0.000000 0.000000 0.104236
#
#
# Mechanical properties :
#
#
# Convention : Reuss Voigt Hill
#
# Bulk Modulus (GPa) = 33.40507 44.46460 38.93483
# Shear Modulus (GPa) = 13.34344 30.21339 21.77841
#
# Velocity S-wave (km/s) = 2.41338 3.63154 3.08322
# Velocity P-wave (km/s) = 4.72728 6.08218 5.44702
#
# Compressibility (1/GPa) = 0.02993557
#
# Stress axis : x y z
#
# Youngs Moduli (GPa) = 41.29893 85.53629 108.26591
#
# Poissons Ratio (x) = -0.09398 0.87213
# Poissons Ratio (y) = -0.04537 0.06995
# Poissons Ratio (z) = 0.33268 0.05526
#
# Static dielectric constant tensor:
#      x y z
#    x 1.817350 0.000000 0.000000 
#    y 0.000000 1.889150 0.000000 
#    z 0.000000 0.000000 1.914150 
# 
# From -- ./inp_files/48616.got.cif
#   From: 2010.05.17/outbox.cif.g08.bks.cpg/sg71_25_cif.got.tgz:48616.got - 2010.06.03 16:22:01.
