data_PCOD9519958
_publ_section_title
;
Structure prediction by ZEFSAII (Michael W. Deem and Ramdas Pophale) SiO2 
 PCOD9519958
Probable space group: I M M M
;
_chemical_formula_sum "Si O2"
_cell_formula_units_Z 72
_cell_length_a 10.094404
_cell_length_b 26.617439
_cell_length_c 14.693205
_cell_angle_alpha 90.000000
_cell_angle_beta 90.000000
_cell_angle_gamma 90.000000
_cell_volume 3947.875856
_symmetry_space_group_name_H-M "I M M M"
_symmetry_group_IT_number 71
_symmetry_cell_setting 'orthorhombic'
loop_
_space_group_symop_operation_xyz
x,y,z
-x,-y,z
x,-y,-z
-x,y,-z
-x,-y,-z
x,y,-z
-x,y,z
x,-y,z
1/2+x,1/2+y,1/2+z
1/2-x,1/2-y,1/2+z
1/2+x,1/2-y,1/2-z
1/2-x,1/2+y,1/2-z
1/2-x,1/2-y,1/2-z
1/2+x,1/2+y,1/2-z
1/2-x,1/2+y,1/2+z
1/2+x,1/2-y,1/2+z
loop_
_atom_site_type_symbol
_atom_site_label
_atom_site_fract_x
_atom_site_fract_y
_atom_site_fract_z
Si Si1 0.341369 0.941263 0.647135
Si Si2 0.344812 0.611688 0.000000
Si Si3 0.644343 0.215510 0.701556
Si Si4 0.847398 0.385807 0.315829
Si Si5 0.757949 0.279408 0.000000
Si Si6 0.838997 0.335836 0.500000
O O1 0.500000 0.927459 0.636113
O O2 0.241214 0.909823 0.584446
O O3 0.301193 0.931360 0.752531
O O4 0.331548 0.000000 0.624361
O O5 0.339232 0.672490 0.000000
O O6 0.500000 0.596204 0.000000
O O7 0.500000 0.235678 0.725355
O O8 0.750000 0.250000 0.750000
O O9 0.655266 0.160673 0.745379
O O10 0.662021 0.214964 0.593627
O O11 0.788629 0.364800 0.409760
O O12 0.000000 0.397590 0.338401
O O13 0.699495 0.222946 0.000000
O O14 0.000000 0.336024 0.500000
#
# Coordination Sequence:
#
# PCOD9519958 Si02
#       6
#    16   8  16  16   8   8
#     4  10  21  39  61  82 109 149 194 235 282 345
#     4  12  25  36  55  88 120 147 186 240 288 339
#     4  11  22  36  56  81 114 153 191 231 276 331
#     4   9  18  34  55  80 110 146 184 227 278 330
#     4  12  22  35  54  83 118 157 190 222 273 340
#     4  10  19  33  55  83 116 148 180 225 278 329
#
# _framework density 18.237655
#
# number of rings (size 3 to 8) (size 9 to 14) (size 15 to 20)
#    0.000    1.556    4.444    1.333    0.000    3.556 
#    0.000    0.556    0.000    3.333    0.000    0.000 
#    0.000    1.778    0.000    0.000    0.000    0.000 
#
# Total GULP energy -200499.084113 kJ/mol
# GULP energy per Si atom -5569.419003 kJ/mol
# Density = 1.819615 g / cm^3
# Si number density = 18.237655 Si / 1000 Ang^3
#
#
#
# Elastic Constant Matrix: (Units=GPa)
#
#
# Indices 1 2 3 4 5 6 
#
# 1 87.1104 31.0152 30.7957 0.0000 0.0000 0.0000
# 2 31.0152 57.7420 28.0831 -0.0001 0.0000 0.0000
# 3 30.7957 28.0831 135.2068 -0.0004 0.0001 0.0001
# 4 0.0000 -0.0001 -0.0004 20.5281 0.0000 0.0000
# 5 0.0000 0.0000 0.0001 0.0000 15.6891 0.0000
# 6 0.0000 0.0000 0.0001 0.0000 0.0000 20.2030
#
#
#
# Elastic Compliance Matrix: (Units=1/GPa)
#
#
# Indices 1 2 3 4 5 6 
#
# 1 0.014616 -0.006932 -0.001889 0.000000 0.000000 0.000000
# 2 -0.006932 0.022552 -0.003105 0.000000 0.000000 0.000000
# 3 -0.001889 -0.003105 0.008471 0.000000 0.000000 0.000000
# 4 0.000000 0.000000 0.000000 0.048714 0.000000 0.000000
# 5 0.000000 0.000000 0.000000 0.000000 0.063739 0.000000
# 6 0.000000 0.000000 0.000000 0.000000 0.000000 0.049498
#
#
# Mechanical properties :
#
#
# Convention : Reuss Voigt Hill
#
# Bulk Modulus (GPa) = 45.90015 51.09415 48.49715
# Shear Modulus (GPa) = 20.94648 23.96171 22.45409
#
# Velocity S-wave (km/s) = 3.39267 3.62865 3.51264
# Velocity P-wave (km/s) = 6.36941 6.75520 6.56514
#
# Compressibility (1/GPa) = 0.02178642
#
# Stress axis : x y z
#
# Youngs Moduli (GPa) = 68.42028 44.34211 118.04469
#
# Poissons Ratio (x) = 0.30736 0.22301
# Poissons Ratio (y) = 0.47427 0.36657
# Poissons Ratio (z) = 0.12926 0.13770
#
# Static dielectric constant tensor:
#      x y z
#    x 1.623070 0.000000 0.000000 
#    y 0.000000 1.648410 0.000000 
#    z 0.000000 0.000000 1.682850 
# 
# From -- ./inp_files/31505.got.cif
#   From: 2010.05.17/outbox.cif.g08.bks.cpg/sg71_16_cif.got.tgz:31505.got - 2010.06.03 16:22:01.
