data_PCOD9519265
_publ_section_title
;
Structure prediction by ZEFSAII (Michael W. Deem and Ramdas Pophale) SiO2 
 PCOD9519265
Probable space group: I M M M
;
_chemical_formula_sum "Si O2"
_cell_formula_units_Z 56
_cell_length_a 10.840567
_cell_length_b 13.226895
_cell_length_c 19.240007
_cell_angle_alpha 90.000000
_cell_angle_beta 90.000000
_cell_angle_gamma 90.000000
_cell_volume 2758.767681
_symmetry_space_group_name_H-M "I M M M"
_symmetry_group_IT_number 71
_symmetry_cell_setting 'orthorhombic'
loop_
_space_group_symop_operation_xyz
x,y,z
-x,-y,z
x,-y,-z
-x,y,-z
-x,-y,-z
x,y,-z
-x,y,z
x,-y,z
1/2+x,1/2+y,1/2+z
1/2-x,1/2-y,1/2+z
1/2+x,1/2-y,1/2-z
1/2-x,1/2+y,1/2-z
1/2-x,1/2-y,1/2-z
1/2+x,1/2+y,1/2-z
1/2-x,1/2+y,1/2+z
1/2+x,1/2-y,1/2+z
loop_
_atom_site_type_symbol
_atom_site_label
_atom_site_fract_x
_atom_site_fract_y
_atom_site_fract_z
Si Si1 0.296635 0.620207 0.500000
Si Si2 0.000000 0.124235 0.274562
Si Si3 0.355971 0.678910 0.000000
Si Si4 0.742071 0.615014 0.144471
Si Si5 0.000000 0.120151 0.884529
Si Si6 0.000000 0.622595 0.916675
O O1 0.262235 0.500000 0.500000
O O2 0.193855 0.706095 0.500000
O O3 0.381487 0.640514 0.432570
O O4 0.870341 0.160203 0.309453
O O5 0.000000 0.155231 0.194362
O O6 0.000000 0.000000 0.281848
O O7 0.311657 0.619608 0.067172
O O8 0.500000 0.683040 0.000000
O O9 0.758706 0.500000 0.169811
O O10 0.880023 0.654597 0.127997
O O11 0.000000 0.000000 0.877318
O O12 0.000000 0.500000 0.919727
O O13 0.000000 0.653839 0.000000
#
# Coordination Sequence:
#
# PCOD9519265 Si02
#       6
#     8   8   8  16   8   8
#     4   9  20  38  60  80  99 132 189 251 281 308
#     4   9  17  31  57  85 114 145 171 218 283 336
#     4  12  22  32  53  80 112 144 191 220 268 332
#     4  10  19  31  51  83 121 152 176 213 262 327
#     4   8  16  37  65  84  96 129 189 240 285 332
#     4   9  16  26  42  70 113 159 189 202 230 298
#
# _framework density 20.298919999999999
#
# number of rings (size 3 to 8) (size 9 to 14) (size 15 to 20)
#    0.000    2.429    2.857    1.286    0.000    3.143 
#    0.000    1.429    3.143    0.000    0.000    0.000 
#    0.000    0.000    0.000    0.000    0.000    0.000 
#
# Total GULP energy -155894.808494 kJ/mol
# GULP energy per Si atom -5567.671732 kJ/mol
# Density = 2.025272 g / cm^3
# Si number density = 20.298920 Si / 1000 Ang^3
#
#
#
# Elastic Constant Matrix: (Units=GPa)
#
#
# Indices 1 2 3 4 5 6 
#
# 1 186.4876 2.3318 57.1747 0.0000 0.0000 0.0000
# 2 2.3318 74.1243 -8.2768 0.0000 0.0000 0.0000
# 3 57.1747 -8.2768 127.4345 0.0000 0.0000 0.0000
# 4 0.0000 0.0000 0.0000 13.3826 0.0000 0.0000
# 5 0.0000 0.0000 0.0000 0.0000 13.6755 0.0000
# 6 0.0000 0.0000 0.0000 0.0000 0.0000 0.7134
#
#
#
# Elastic Compliance Matrix: (Units=1/GPa)
#
#
# Indices 1 2 3 4 5 6 
#
# 1 0.006237 -0.000512 -0.002831 0.000000 0.000000 0.000000
# 2 -0.000512 0.013631 0.001115 0.000000 0.000000 0.000000
# 3 -0.002831 0.001115 0.009190 0.000000 0.000000 0.000000
# 4 0.000000 0.000000 0.000000 0.074724 0.000000 0.000000
# 5 0.000000 0.000000 0.000000 0.000000 0.073123 0.000000
# 6 0.000000 0.000000 0.000000 0.000000 0.000000 1.401642
#
#
# Mechanical properties :
#
#
# Convention : Reuss Voigt Hill
#
# Bulk Modulus (GPa) = 40.64867 54.50065 47.57466
# Shear Modulus (GPa) = 3.14227 28.00877 15.57552
#
# Velocity S-wave (km/s) = 1.24554 3.71862 2.77304
# Velocity P-wave (km/s) = 4.70500 6.73386 5.80869
#
# Compressibility (1/GPa) = 0.02460105
#
# Stress axis : x y z
#
# Youngs Moduli (GPa) = 160.33904 73.35953 108.81431
#
# Poissons Ratio (x) = 0.03759 0.30810
# Poissons Ratio (y) = 0.08215 -0.12135
# Poissons Ratio (z) = 0.45399 -0.08181
#
# Static dielectric constant tensor:
#      x y z
#    x 1.791970 0.000000 0.000000 
#    y 0.000000 1.739250 0.000000 
#    z 0.000000 0.000000 1.685810 
# 
# From -- ./inp_files/21164.got.cif
#   From: 2010.05.17/outbox.cif.g08.bks.cpg/sg71_11_cif.got.tgz:21164.got - 2010.06.03 16:22:01.
