data_PCOD9519788
_publ_section_title
;
Structure prediction by ZEFSAII (Michael W. Deem and Ramdas Pophale) SiO2 
 PCOD9519788
Probable space group: I M M M
;
_chemical_formula_sum "Si O2"
_cell_formula_units_Z 88
_cell_length_a 17.441602
_cell_length_b 9.626882
_cell_length_c 27.749110
_cell_angle_alpha 90.000000
_cell_angle_beta 90.000000
_cell_angle_gamma 90.000000
_cell_volume 4659.304342
_symmetry_space_group_name_H-M "I M M M"
_symmetry_group_IT_number 71
_symmetry_cell_setting 'orthorhombic'
loop_
_space_group_symop_operation_xyz
x,y,z
-x,-y,z
x,-y,-z
-x,y,-z
-x,-y,-z
x,y,-z
-x,y,z
x,-y,z
1/2+x,1/2+y,1/2+z
1/2-x,1/2-y,1/2+z
1/2+x,1/2-y,1/2-z
1/2-x,1/2+y,1/2-z
1/2-x,1/2-y,1/2-z
1/2+x,1/2+y,1/2-z
1/2-x,1/2+y,1/2+z
1/2+x,1/2-y,1/2+z
loop_
_atom_site_type_symbol
_atom_site_label
_atom_site_fract_x
_atom_site_fract_y
_atom_site_fract_z
Si Si1 0.836829 0.159775 0.081416
Si Si2 0.367935 0.339239 0.851558
Si Si3 0.585316 0.161085 0.237310
Si Si4 0.186427 0.660043 0.828627
Si Si5 0.344258 0.839019 0.944171
Si Si6 0.409288 0.844199 0.500000
O O1 0.843563 0.226814 0.133897
O O2 0.747824 0.163862 0.064429
O O3 0.861713 0.000000 0.079717
O O4 0.882388 0.257883 0.045739
O O5 0.390491 0.500000 0.855446
O O6 0.409750 0.257900 0.809030
O O7 0.278197 0.335164 0.835082
O O8 0.376753 0.260645 0.902630
O O9 0.500000 0.174345 0.259469
O O10 0.651470 0.190917 0.276259
O O11 0.594908 0.000000 0.222282
O O12 0.163139 0.500000 0.840334
O O13 0.368642 0.000000 0.937348
O O14 0.359849 0.800087 0.000000
O O15 0.500000 0.853958 0.500000
O O16 0.375926 0.000000 0.500000
#
# Coordination Sequence:
#
# PCOD9519788 Si02
#       6
#    16  16  16  16  16   8
#     4  10  19  33  52  76 103 132 173 222 268 311
#     4  10  20  33  53  82 111 140 176 222 271 316
#     4  10  21  37  56  76 104 144 184 222 267 323
#     4   9  19  35  54  79 108 140 179 220 266 320
#     4   9  17  32  54  79 107 137 170 211 262 317
#     4  11  23  35  47  65  97 143 184 219 264 317
#
# _framework density 18.886939999999999
#
# number of rings (size 3 to 8) (size 9 to 14) (size 15 to 20)
#    0.000    2.273    0.909    1.909    0.000    4.364 
#    0.000    1.818    0.000    0.545    0.000    3.818 
#    0.000    0.000    0.000    0.000    0.000    0.000 
#
# Total GULP energy -245430.741094 kJ/mol
# GULP energy per Si atom -5577.971388 kJ/mol
# Density = 1.884395 g / cm^3
# Si number density = 18.886940 Si / 1000 Ang^3
#
#
#
# Elastic Constant Matrix: (Units=GPa)
#
#
# Indices 1 2 3 4 5 6 
#
# 1 11.2661 20.8737 11.8524 0.0000 0.0000 0.0000
# 2 20.8737 124.6622 72.9308 0.0000 0.0000 0.0000
# 3 11.8524 72.9308 116.1397 0.0000 0.0000 0.0000
# 4 0.0000 0.0000 0.0000 2.5567 0.0000 0.0000
# 5 0.0000 0.0000 0.0000 0.0000 -732.2838 0.0000
# 6 0.0000 0.0000 0.0000 0.0000 0.0000 16.3480
#
#
#
# Elastic Compliance Matrix: (Units=1/GPa)
#
#
# Indices 1 2 3 4 5 6 
#
# 1 0.128713 -0.021920 0.000629 0.000000 0.000000 0.000000
# 2 -0.021920 0.016413 -0.008070 0.000000 0.000000 0.000000
# 3 0.000629 -0.008070 0.013613 0.000000 0.000000 0.000000
# 4 0.000000 0.000000 0.000000 0.391125 0.000000 0.000000
# 5 0.000000 0.000000 0.000000 0.000000 -0.001366 0.000000
# 6 0.000000 0.000000 0.000000 0.000000 0.000000 0.061170
#
#
# Mechanical properties :
#
#
# Convention : Reuss Voigt Hill
#
# Bulk Modulus (GPa) = 9.99816 51.48688 30.74252
# Shear Modulus (GPa) = 7.12527 -132.91508 -62.89491
#
# Velocity S-wave (km/s) = 1.94442 -8.39803 -5.77694
# Velocity P-wave (km/s) = 3.21655 8.16799 5.30895
#
# Compressibility (1/GPa) = 0.10001836
#
# Stress axis : x y z
#
# Youngs Moduli (GPa) = 7.76924 60.92720 73.45654
#
# Poissons Ratio (x) = 1.33554 -0.04624
# Poissons Ratio (y) = 0.17030 0.59277
# Poissons Ratio (z) = -0.00489 0.49166
#
# Static dielectric constant tensor:
#      x y z
#    x 1.656760 0.000000 0.000000 
#    y 0.000000 1.640670 0.000000 
#    z 0.000000 0.000000 1.633390 
# 
# From -- ./inp_files/10448.got.cif
#   From: 2010.05.17/outbox.cif.g08.bks.cpg/sg71_6_cif.got.tgz:10448.got - 2010.06.03 16:22:01.
