data_PCOD9519693
_publ_section_title
;
Structure prediction by ZEFSAII (Michael W. Deem and Ramdas Pophale) SiO2 
 PCOD9519693
Probable space group: I M M M
;
_chemical_formula_sum "Si O2"
_cell_formula_units_Z 96
_cell_length_a 17.471278
_cell_length_b 23.501275
_cell_length_c 11.883806
_cell_angle_alpha 90.000000
_cell_angle_beta 90.000000
_cell_angle_gamma 90.000000
_cell_volume 4879.458763
_symmetry_space_group_name_H-M "I M M M"
_symmetry_group_IT_number 71
_symmetry_cell_setting 'orthorhombic'
loop_
_space_group_symop_operation_xyz
x,y,z
-x,-y,z
x,-y,-z
-x,y,-z
-x,-y,-z
x,y,-z
-x,y,z
x,-y,z
1/2+x,1/2+y,1/2+z
1/2-x,1/2-y,1/2+z
1/2+x,1/2-y,1/2-z
1/2-x,1/2+y,1/2-z
1/2-x,1/2-y,1/2-z
1/2+x,1/2+y,1/2-z
1/2-x,1/2+y,1/2+z
1/2+x,1/2-y,1/2+z
loop_
_atom_site_type_symbol
_atom_site_label
_atom_site_fract_x
_atom_site_fract_y
_atom_site_fract_z
Si Si1 0.500000 0.111104 0.632398
Si Si2 0.414880 0.354385 0.634092
Si Si3 0.772084 0.934180 0.128924
Si Si4 0.725605 0.816093 0.381162
Si Si5 0.630848 0.254888 0.794767
Si Si6 0.500000 0.178569 0.124525
Si Si7 0.332062 0.935678 0.331710
O O1 0.500000 0.134614 0.500000
O O2 0.500000 0.147932 0.750278
O O3 0.420920 0.076268 0.643548
O O4 0.408757 0.343814 0.500000
O O5 0.500000 0.379652 0.653646
O O6 0.342544 0.394145 0.665821
O O7 0.408662 0.296819 0.705268
O O8 0.695241 0.930439 0.202136
O O9 0.797818 0.000000 0.134977
O O10 0.754968 0.919956 0.000000
O O11 0.694543 0.793594 0.500000
O O12 0.678591 0.790767 0.277811
O O13 0.810747 0.793454 0.364783
O O14 0.715690 0.883662 0.382618
O O15 0.572970 0.219621 0.869129
O O16 0.500000 0.148732 0.000000
O O17 0.313181 0.000000 0.367207
#
# Coordination Sequence:
#
# PCOD9519693 Si02
#       7
#     8  16  16  16  16   8  16
#     4  12  27  46  66  96 130 165 217 279 328 381
#     4  10  19  32  58  92 123 160 207 257 313 376
#     4   9  19  37  59  87 126 168 210 259 316 382
#     4  11  23  39  61  90 120 157 205 259 315 375
#     4  11  22  40  59  88 122 161 201 258 311 383
#     4  12  26  43  65  93 129 173 212 256 322 392
#     4  11  23  41  65  93 125 165 211 265 323 381
#
# _framework density 19.674313000000001
#
# number of rings (size 3 to 8) (size 9 to 14) (size 15 to 20)
#    0.000    1.333    4.167    1.750    0.000    3.333 
#    0.000    1.667    0.000    2.500    0.000    0.000 
#    0.000    5.333    0.000    0.000    0.000    0.000 
#
# Total GULP energy -267437.693546 kJ/mol
# GULP energy per Si atom -5571.618616 kJ/mol
# Density = 1.962953 g / cm^3
# Si number density = 19.674313 Si / 1000 Ang^3
#
#
#
# Elastic Constant Matrix: (Units=GPa)
#
#
# Indices 1 2 3 4 5 6 
#
# 1 82.4872 28.7292 35.3055 0.0000 0.0000 0.0000
# 2 28.7292 86.1830 38.6501 0.0000 0.0000 0.0000
# 3 35.3055 38.6501 110.1994 0.0000 0.0000 0.0000
# 4 0.0000 0.0000 0.0000 16.0439 0.0000 0.0000
# 5 0.0000 0.0000 0.0000 0.0000 10.7192 0.0000
# 6 0.0000 0.0000 0.0000 0.0000 0.0000 21.4171
#
#
#
# Elastic Compliance Matrix: (Units=1/GPa)
#
#
# Indices 1 2 3 4 5 6 
#
# 1 0.014815 -0.003335 -0.003577 0.000000 0.000000 0.000000
# 2 -0.003335 0.014519 -0.004024 0.000000 0.000000 0.000000
# 3 -0.003577 -0.004024 0.011632 0.000000 0.000000 0.000000
# 4 0.000000 0.000000 0.000000 0.062329 0.000000 0.000000
# 5 0.000000 0.000000 0.000000 0.000000 0.093291 0.000000
# 6 0.000000 0.000000 0.000000 0.000000 0.000000 0.046692
#
#
# Mechanical properties :
#
#
# Convention : Reuss Voigt Hill
#
# Bulk Modulus (GPa) = 52.36860 53.80436 53.08648
# Shear Modulus (GPa) = 18.41521 21.38169 19.89845
#
# Velocity S-wave (km/s) = 3.06273 3.30021 3.18369
# Velocity P-wave (km/s) = 6.25961 6.47524 6.36834
#
# Compressibility (1/GPa) = 0.01909541
#
# Stress axis : x y z
#
# Youngs Moduli (GPa) = 67.49694 68.87310 85.97108
#
# Poissons Ratio (x) = 0.22966 0.30752
# Poissons Ratio (y) = 0.22507 0.34595
# Poissons Ratio (z) = 0.24144 0.27715
#
# Static dielectric constant tensor:
#      x y z
#    x 1.691450 0.000000 0.000000 
#    y 0.000000 1.692530 0.000000 
#    z 0.000000 0.000000 1.752800 
# 
# From -- ./inp_files/24245.got.cif
#   From: 2010.05.17/outbox.cif.g08.bks.cpg/sg71_13_cif.got.tgz:24245.got - 2010.06.03 16:22:01.
