data_PCOD9519494
_publ_section_title
;
Structure prediction by ZEFSAII (Michael W. Deem and Ramdas Pophale) SiO2 
 PCOD9519494
Probable space group: I M M M
;
_chemical_formula_sum "Si O2"
_cell_formula_units_Z 80
_cell_length_a 26.932925
_cell_length_b 9.266823
_cell_length_c 15.238192
_cell_angle_alpha 90.000000
_cell_angle_beta 90.000000
_cell_angle_gamma 90.000000
_cell_volume 3803.188323
_symmetry_space_group_name_H-M "I M M M"
_symmetry_group_IT_number 71
_symmetry_cell_setting 'orthorhombic'
loop_
_space_group_symop_operation_xyz
x,y,z
-x,-y,z
x,-y,-z
-x,y,-z
-x,-y,-z
x,y,-z
-x,y,z
x,-y,z
1/2+x,1/2+y,1/2+z
1/2-x,1/2-y,1/2+z
1/2+x,1/2-y,1/2-z
1/2-x,1/2+y,1/2-z
1/2-x,1/2-y,1/2-z
1/2+x,1/2+y,1/2-z
1/2-x,1/2+y,1/2+z
1/2+x,1/2-y,1/2+z
loop_
_atom_site_type_symbol
_atom_site_label
_atom_site_fract_x
_atom_site_fract_y
_atom_site_fract_z
Si Si1 0.702497 0.834415 0.142667
Si Si2 0.000000 0.163422 0.603697
Si Si3 0.399023 0.664180 0.645255
Si Si4 0.106323 0.164474 0.645480
Si Si5 0.500000 0.165314 0.604979
Si Si6 0.198494 0.333693 0.142481
O O1 0.652637 0.755099 0.112105
O O2 0.751697 0.749016 0.115274
O O3 0.700117 0.833766 0.250068
O O4 0.704605 0.000000 0.114793
O O5 0.052285 0.231953 0.628338
O O6 0.000000 0.149782 0.500000
O O7 0.000000 0.000000 0.644228
O O8 0.401939 0.500000 0.611124
O O9 0.390171 0.654328 0.749648
O O10 0.450316 0.749021 0.631424
O O11 0.351175 0.751964 0.611882
O O12 0.107004 0.000000 0.610044
O O13 0.500000 0.158402 0.500000
O O14 0.500000 0.000000 0.639154
O O15 0.198345 0.500000 0.114568
#
# Coordination Sequence:
#
# PCOD9519494 Si02
#       6
#    16   8  16  16   8  16
#     4   9  16  26  43  70 101 131 162 198 244 295
#     4   9  17  30  49  71  96 129 168 206 244 289
#     4  10  19  32  52  76 101 129 163 204 247 292
#     4   9  17  30  49  74 101 129 164 206 249 292
#     4  11  24  39  53  71  98 131 166 204 246 295
#     4   9  16  27  45  71 102 131 159 197 245 294
#
# _framework density 21.034981999999999
#
# number of rings (size 3 to 8) (size 9 to 14) (size 15 to 20)
#    0.000    2.600    0.000    2.700    0.000    8.000 
#    0.000    0.500    0.000    2.400    0.000    2.800 
#    0.000    0.000    0.000    0.000    0.000    0.000 
#
# Total GULP energy -223275.724462 kJ/mol
# GULP energy per Si atom -5581.893112 kJ/mol
# Density = 2.098711 g / cm^3
# Si number density = 21.034982 Si / 1000 Ang^3
#
#
#
# Elastic Constant Matrix: (Units=GPa)
#
#
# Indices 1 2 3 4 5 6 
#
# 1 258.4421 138.9754 -0.3029 0.0000 0.0000 0.0000
# 2 138.9754 194.1182 5.6203 0.0000 0.0000 0.0000
# 3 -0.3029 5.6203 36.0088 0.0000 0.0000 0.0000
# 4 0.0000 0.0000 0.0000 -8.0399 0.0000 0.0000
# 5 0.0000 0.0000 0.0000 0.0000 -49.4012 0.0000
# 6 0.0000 0.0000 0.0000 0.0000 0.0000 -16.8741
#
#
#
# Elastic Compliance Matrix: (Units=1/GPa)
#
#
# Indices 1 2 3 4 5 6 
#
# 1 0.006312 -0.004541 0.000762 0.000000 0.000000 0.000000
# 2 -0.004541 0.008442 -0.001356 0.000000 0.000000 0.000000
# 3 0.000762 -0.001356 0.027989 0.000000 0.000000 0.000000
# 4 0.000000 0.000000 0.000000 -0.124380 0.000000 0.000000
# 5 0.000000 0.000000 0.000000 0.000000 -0.020242 0.000000
# 6 0.000000 0.000000 0.000000 0.000000 0.000000 -0.059262
#
#
# Mechanical properties :
#
#
# Convention : Reuss Voigt Hill
#
# Bulk Modulus (GPa) = 30.79485 86.35051 58.57268
# Shear Modulus (GPa) = -35.70237 8.08871 -13.80683
#
# Velocity S-wave (km/s) = -4.12428 1.96309 -2.56476
# Velocity P-wave (km/s) = 2.82984 6.80282 4.37437
#
# Compressibility (1/GPa) = 0.03247296
#
# Stress axis : x y z
#
# Youngs Moduli (GPa) = 158.42291 118.45634 35.72828
#
# Poissons Ratio (x) = 0.53793 -0.02722
# Poissons Ratio (y) = 0.71943 0.04844
# Poissons Ratio (z) = -0.12070 0.16061
#
# Static dielectric constant tensor:
#      x y z
#    x 1.738820 0.000000 0.000000 
#    y 0.000000 1.740020 0.000000 
#    z 0.000000 0.000000 1.771200 
# 
# From -- ./inp_files/42275.got.cif
#   From: 2010.05.17/outbox.cif.g08.bks.cpg/sg71_22_cif.got.tgz:42275.got - 2010.06.03 16:22:01.
