data_PCOD9519186
_publ_section_title
;
Structure prediction by ZEFSAII (Michael W. Deem and Ramdas Pophale) SiO2 
 PCOD9519186
Probable space group: I M M M
;
_chemical_formula_sum "Si O2"
_cell_formula_units_Z 96
_cell_length_a 7.417856
_cell_length_b 30.720785
_cell_length_c 19.988102
_cell_angle_alpha 90.000000
_cell_angle_beta 90.000000
_cell_angle_gamma 90.000000
_cell_volume 4554.935842
_symmetry_space_group_name_H-M "I M M M"
_symmetry_group_IT_number 71
_symmetry_cell_setting 'orthorhombic'
loop_
_space_group_symop_operation_xyz
x,y,z
-x,-y,z
x,-y,-z
-x,y,-z
-x,-y,-z
x,y,-z
-x,y,z
x,-y,z
1/2+x,1/2+y,1/2+z
1/2-x,1/2-y,1/2+z
1/2+x,1/2-y,1/2-z
1/2-x,1/2+y,1/2-z
1/2-x,1/2-y,1/2-z
1/2+x,1/2+y,1/2-z
1/2-x,1/2+y,1/2+z
1/2+x,1/2-y,1/2+z
loop_
_atom_site_type_symbol
_atom_site_label
_atom_site_fract_x
_atom_site_fract_y
_atom_site_fract_z
Si Si1 0.214070 0.273786 0.822023
Si Si2 0.288737 0.624933 0.178591
Si Si3 0.279637 0.299196 0.422989
Si Si4 0.719361 0.549549 0.427736
Si Si5 0.219830 0.049710 0.422484
Si Si6 0.220738 0.121001 0.828554
O O1 0.250000 0.250000 0.750000
O O2 0.278063 0.323144 0.833184
O O3 0.279410 0.243458 0.882558
O O4 0.000000 0.275753 0.825982
O O5 0.500000 0.614218 0.183000
O O6 0.217738 0.589618 0.124950
O O7 0.211668 0.620938 0.253258
O O8 0.220396 0.301855 0.500000
O O9 0.500000 0.299582 0.424452
O O10 0.224006 0.339071 0.375569
O O11 0.772604 0.568221 0.500000
O O12 0.500000 0.549429 0.427041
O O13 0.778674 0.500000 0.424061
O O14 0.778683 0.577901 0.366450
O O15 0.274993 0.056135 0.500000
O O16 0.000000 0.050055 0.422395
O O17 0.272596 0.000000 0.402218
O O18 0.000000 0.122856 0.826385
#
# Coordination Sequence:
#
# PCOD9519186 Si02
#       6
#    16  16  16  16  16  16
#     4  11  21  35  53  73 100 134 169 210 258 309
#     4  10  19  31  50  76 101 129 168 209 253 302
#     4   9  17  29  46  67  90 121 161 201 242 293
#     4   8  13  20  31  52  85 120 148 180 228 278
#     4   8  15  29  49  74 106 142 176 213 260 314
#     4   9  15  24  39  61  89 121 155 192 236 286
#
# _framework density 21.076035999999998
#
# number of rings (size 3 to 8) (size 9 to 14) (size 15 to 20)
#    0.000    2.833    1.667    2.000    0.000    3.333 
#    0.000    3.333    0.000    2.000    0.000    1.167 
#    0.000    0.000    0.000    1.833    0.000    1.667 
#
# Total GULP energy -267613.213064 kJ/mol
# GULP energy per Si atom -5575.275272 kJ/mol
# Density = 2.102807 g / cm^3
# Si number density = 21.076036 Si / 1000 Ang^3
#
#
#
# Elastic Constant Matrix: (Units=GPa)
#
#
# Indices 1 2 3 4 5 6 
#
# 1 66.3500 -3.7810 7.1976 0.0000 0.0000 0.0000
# 2 -3.7810 162.7861 121.1010 0.0000 0.0000 0.0000
# 3 7.1976 121.1010 187.5000 0.0000 0.0000 0.0000
# 4 0.0000 0.0000 0.0000 53.1034 0.0000 0.0000
# 5 0.0000 0.0000 0.0000 0.0000 -4.1208 0.0000
# 6 0.0000 0.0000 0.0000 0.0000 0.0000 10.4104
#
#
#
# Elastic Compliance Matrix: (Units=1/GPa)
#
#
# Indices 1 2 3 4 5 6 
#
# 1 0.015330 0.001528 -0.001575 0.000000 0.000000 0.000000
# 2 0.001528 0.011977 -0.007794 0.000000 0.000000 0.000000
# 3 -0.001575 -0.007794 0.010428 0.000000 0.000000 0.000000
# 4 0.000000 0.000000 0.000000 0.018831 0.000000 0.000000
# 5 0.000000 0.000000 0.000000 0.000000 -0.242673 0.000000
# 6 0.000000 0.000000 0.000000 0.000000 0.000000 0.096058
#
#
# Mechanical properties :
#
#
# Convention : Reuss Voigt Hill
#
# Bulk Modulus (GPa) = 45.34902 73.96349 59.65626
# Shear Modulus (GPa) = -74.60917 31.35317 -21.62800
#
# Velocity S-wave (km/s) = -5.95624 3.86115 -3.20689
# Velocity P-wave (km/s) = 5.07335 7.41942 3.82812
#
# Compressibility (1/GPa) = 0.02205119
#
# Stress axis : x y z
#
# Youngs Moduli (GPa) = 65.23350 83.49488 95.89737
#
# Poissons Ratio (x) = -0.12758 0.15107
# Poissons Ratio (y) = -0.09968 0.74744
# Poissons Ratio (z) = 0.10277 0.65077
#
# Static dielectric constant tensor:
#      x y z
#    x 1.944210 0.000000 0.000000 
#    y 0.000000 1.781730 0.000000 
#    z 0.000000 0.000000 1.747550 
# 
# From -- ./inp_files/50802.got.cif
#   From: 2010.05.17/outbox.cif.g08.bks.cpg/sg71_26_cif.got.tgz:50802.got - 2010.06.03 16:22:01.
