data_PCOD9519439
_publ_section_title
;
Structure prediction by ZEFSAII (Michael W. Deem and Ramdas Pophale) SiO2 
 PCOD9519439
Probable space group: I M M M
;
_chemical_formula_sum "Si O2"
_cell_formula_units_Z 104
_cell_length_a 8.332380
_cell_length_b 24.882409
_cell_length_c 28.287464
_cell_angle_alpha 90.000000
_cell_angle_beta 90.000000
_cell_angle_gamma 90.000000
_cell_volume 5864.831060
_symmetry_space_group_name_H-M "I M M M"
_symmetry_group_IT_number 71
_symmetry_cell_setting 'orthorhombic'
loop_
_space_group_symop_operation_xyz
x,y,z
-x,-y,z
x,-y,-z
-x,y,-z
-x,-y,-z
x,y,-z
-x,y,z
x,-y,z
1/2+x,1/2+y,1/2+z
1/2-x,1/2-y,1/2+z
1/2+x,1/2-y,1/2-z
1/2-x,1/2+y,1/2-z
1/2-x,1/2-y,1/2-z
1/2+x,1/2+y,1/2-z
1/2-x,1/2+y,1/2+z
1/2+x,1/2-y,1/2+z
loop_
_atom_site_type_symbol
_atom_site_label
_atom_site_fract_x
_atom_site_fract_y
_atom_site_fract_z
Si Si1 0.306234 0.754723 0.946279
Si Si2 0.693604 0.937345 0.446153
Si Si3 0.192334 0.940013 0.897185
Si Si4 0.307283 0.765163 0.302264
Si Si5 0.691889 0.656630 0.879315
Si Si6 0.320688 0.064633 0.000000
Si Si7 0.807695 0.829925 0.130321
O O1 0.500000 0.757268 0.944794
O O2 0.254603 0.702830 0.916337
O O3 0.236107 0.806541 0.920734
O O4 0.253992 0.750342 0.000000
O O5 0.746992 0.921070 0.500000
O O6 0.500000 0.935623 0.446358
O O7 0.751755 0.898699 0.403896
O O8 0.741334 0.000000 0.439539
O O9 0.253376 0.890780 0.865435
O O10 0.000000 0.942609 0.892398
O O11 0.257149 0.000000 0.887865
O O12 0.231100 0.924333 0.951254
O O13 0.500000 0.765988 0.302973
O O14 0.250000 0.750000 0.250000
O O15 0.250967 0.820122 0.328535
O O16 0.245148 0.715068 0.333939
O O17 0.500000 0.655389 0.877347
O O18 0.500000 0.088583 0.000000
O O19 0.335467 0.000000 0.000000
O O20 0.000000 0.831240 0.135326
#
# Coordination Sequence:
#
# PCOD9519439 Si02
#       7
#    16  16  16  16  16   8  16
#     4   9  18  30  43  64  96 130 160 195 241 287
#     4   9  18  32  50  75 110 150 185 214 249 299
#     4   9  17  30  46  63  88 122 156 191 230 271
#     4  10  20  36  56  76  97 123 160 208 262 317
#     4  10  19  32  51  75 102 132 169 212 256 305
#     4   9  17  27  39  59  87 121 159 191 218 253
#     4   9  19  32  47  69  92 118 157 198 238 291
#
# _framework density 17.73282
#
# number of rings (size 3 to 8) (size 9 to 14) (size 15 to 20)
#    0.000    2.692    0.000    2.077    1.077    4.308 
#    0.000    0.769    0.000    0.923    0.000    2.154 
#    0.000    0.000    0.000    0.000    0.000    0.000 
#
# Total GULP energy -289494.121551 kJ/mol
# GULP energy per Si atom -5567.194645 kJ/mol
# Density = 1.769246 g / cm^3
# Si number density = 17.732820 Si / 1000 Ang^3
#
#
#
# Elastic Constant Matrix: (Units=GPa)
#
#
# Indices 1 2 3 4 5 6 
#
# 1 19.5717 16.6882 13.9627 0.0000 0.0000 0.0000
# 2 16.6882 113.2663 46.2964 0.0000 0.0000 0.0000
# 3 13.9627 46.2964 98.0573 0.0000 0.0000 0.0000
# 4 0.0000 0.0000 0.0000 18.4083 0.0000 0.0000
# 5 0.0000 0.0000 0.0000 0.0000 21.7940 0.0000
# 6 0.0000 0.0000 0.0000 0.0000 0.0000 14.8870
#
#
#
# Elastic Compliance Matrix: (Units=1/GPa)
#
#
# Indices 1 2 3 4 5 6 
#
# 1 0.060722 -0.006707 -0.005480 0.000000 0.000000 0.000000
# 2 -0.006707 0.011681 -0.004560 0.000000 0.000000 0.000000
# 3 -0.005480 -0.004560 0.013131 0.000000 0.000000 0.000000
# 4 0.000000 0.000000 0.000000 0.054323 0.000000 0.000000
# 5 0.000000 0.000000 0.000000 0.000000 0.045884 0.000000
# 6 0.000000 0.000000 0.000000 0.000000 0.000000 0.067173
#
#
# Mechanical properties :
#
#
# Convention : Reuss Voigt Hill
#
# Bulk Modulus (GPa) = 19.21552 42.75444 30.98498
# Shear Modulus (GPa) = 16.46063 21.28106 18.87085
#
# Velocity S-wave (km/s) = 3.05004 3.46800 3.26571
# Velocity P-wave (km/s) = 4.82320 6.34024 5.63303
#
# Compressibility (1/GPa) = 0.05204127
#
# Stress axis : x y z
#
# Youngs Moduli (GPa) = 16.46837 85.61131 76.15382
#
# Poissons Ratio (x) = 0.57417 0.41732
# Poissons Ratio (y) = 0.11045 0.34725
# Poissons Ratio (z) = 0.09025 0.39038
#
# Static dielectric constant tensor:
#      x y z
#    x 1.614580 0.000000 0.000000 
#    y 0.000000 1.656890 0.000000 
#    z 0.000000 0.000000 1.604230 
# 
# From -- ./inp_files/58211.got.cif
#   From: 2010.05.17/outbox.cif.g08.bks.cpg/sg71_30_cif.got.tgz:58211.got - 2010.06.03 16:22:01.
