data_PCOD9519448
_publ_section_title
;
Structure prediction by ZEFSAII (Michael W. Deem and Ramdas Pophale) SiO2 
 PCOD9519448
Probable space group: I M M M
;
_chemical_formula_sum "Si O2"
_cell_formula_units_Z 88
_cell_length_a 28.791035
_cell_length_b 7.460506
_cell_length_c 18.182688
_cell_angle_alpha 90.000000
_cell_angle_beta 90.000000
_cell_angle_gamma 90.000000
_cell_volume 3905.563003
_symmetry_space_group_name_H-M "I M M M"
_symmetry_group_IT_number 71
_symmetry_cell_setting 'orthorhombic'
loop_
_space_group_symop_operation_xyz
x,y,z
-x,-y,z
x,-y,-z
-x,y,-z
-x,-y,-z
x,y,-z
-x,y,z
x,-y,z
1/2+x,1/2+y,1/2+z
1/2-x,1/2-y,1/2+z
1/2+x,1/2-y,1/2-z
1/2-x,1/2+y,1/2-z
1/2-x,1/2-y,1/2-z
1/2+x,1/2+y,1/2-z
1/2-x,1/2+y,1/2+z
1/2+x,1/2-y,1/2+z
loop_
_atom_site_type_symbol
_atom_site_label
_atom_site_fract_x
_atom_site_fract_y
_atom_site_fract_z
Si Si1 0.854322 0.211716 0.657824
Si Si2 0.551990 0.718719 0.914348
Si Si3 0.500000 0.787376 0.583957
Si Si4 0.262794 0.215535 0.080892
Si Si5 0.399420 0.288526 0.583080
Si Si6 0.816782 0.219724 0.812918
O O1 0.904556 0.283186 0.633861
O O2 0.816067 0.235522 0.594670
O O3 0.830189 0.284099 0.731804
O O4 0.860967 0.000000 0.670213
O O5 0.500000 0.774203 0.890910
O O6 0.552563 0.500000 0.913012
O O7 0.558228 0.770040 0.000000
O O8 0.500000 0.712321 0.500000
O O9 0.549249 0.733365 0.616953
O O10 0.500000 0.000000 0.579847
O O11 0.230654 0.280677 0.148098
O O12 0.259388 0.000000 0.080649
O O13 0.246935 0.277644 0.000000
O O14 0.399555 0.212645 0.500000
O O15 0.391302 0.500000 0.576497
O O16 0.358471 0.220902 0.633725
O O17 0.815161 0.000000 0.810738
#
# Coordination Sequence:
#
# PCOD9519448 Si02
#       6
#    16  16   8  16  16  16
#     4  10  19  32  51  76 102 126 160 208 256 296
#     4   8  14  26  45  69  96 124 154 192 241 292
#     4   9  17  29  45  67  95 125 160 207 258 299
#     4  10  20  34  52  72  98 134 169 200 243 302
#     4   9  16  29  49  69  91 125 170 211 246 293
#     4   9  18  32  49  73 100 128 164 207 252 294
#
# _framework density 22.531962
#
# number of rings (size 3 to 8) (size 9 to 14) (size 15 to 20)
#    0.000    2.818    0.000    2.455    0.000    4.364 
#    1.636    1.818    0.000    2.727    0.000    2.545 
#    0.000    0.000    0.000    0.000    0.000    0.000 
#
# Total GULP energy -245548.773858 kJ/mol
# GULP energy per Si atom -5580.653951 kJ/mol
# Density = 2.248068 g / cm^3
# Si number density = 22.531962 Si / 1000 Ang^3
#
#
#
# Elastic Constant Matrix: (Units=GPa)
#
#
# Indices 1 2 3 4 5 6 
#
# 1 173.3726 -5.8959 64.4567 0.0000 0.0000 0.0000
# 2 -5.8959 65.4247 2.5973 0.0000 0.0000 0.0000
# 3 64.4567 2.5973 97.3030 0.0000 0.0000 0.0000
# 4 0.0000 0.0000 0.0000 0.7646 0.0000 0.0000
# 5 0.0000 0.0000 0.0000 0.0000 -17.3898 0.0000
# 6 0.0000 0.0000 0.0000 0.0000 0.0000 -4.2577
#
#
#
# Elastic Compliance Matrix: (Units=1/GPa)
#
#
# Indices 1 2 3 4 5 6 
#
# 1 0.007705 0.000898 -0.005128 0.000000 0.000000 0.000000
# 2 0.000898 0.015406 -0.001006 0.000000 0.000000 0.000000
# 3 -0.005128 -0.001006 0.013701 0.000000 0.000000 0.000000
# 4 0.000000 0.000000 0.000000 1.307871 0.000000 0.000000
# 5 0.000000 0.000000 0.000000 0.000000 -0.057505 0.000000
# 6 0.000000 0.000000 0.000000 0.000000 0.000000 -0.234866
#
#
# Mechanical properties :
#
#
# Convention : Reuss Voigt Hill
#
# Bulk Modulus (GPa) = 37.96602 50.93517 44.45060
# Shear Modulus (GPa) = 4.66608 14.15289 9.40949
#
# Velocity S-wave (km/s) = 1.44061 2.50896 2.04576
# Velocity P-wave (km/s) = 4.43324 5.57207 5.03496
#
# Compressibility (1/GPa) = 0.02633934
#
# Stress axis : x y z
#
# Youngs Moduli (GPa) = 129.78678 64.91139 72.98757
#
# Poissons Ratio (x) = -0.05829 0.37428
# Poissons Ratio (y) = -0.11654 0.07343
# Poissons Ratio (z) = 0.66554 0.06530
#
# Static dielectric constant tensor:
#      x y z
#    x 1.833640 0.000000 0.000000 
#    y 0.000000 1.872150 0.000000 
#    z 0.000000 0.000000 1.837570 
# 
# From -- ./inp_files/49255.got.cif
#   From: 2010.05.17/outbox.cif.g08.bks.cpg/sg71_25_cif.got.tgz:49255.got - 2010.06.03 16:22:01.
