data_PCOD9519879
_publ_section_title
;
Structure prediction by ZEFSAII (Michael W. Deem and Ramdas Pophale) SiO2 
 PCOD9519879
Probable space group: I M M M
;
_chemical_formula_sum "Si O2"
_cell_formula_units_Z 104
_cell_length_a 11.220016
_cell_length_b 18.317322
_cell_length_c 26.574133
_cell_angle_alpha 90.000000
_cell_angle_beta 90.000000
_cell_angle_gamma 90.000000
_cell_volume 5461.532979
_symmetry_space_group_name_H-M "I M M M"
_symmetry_group_IT_number 71
_symmetry_cell_setting 'orthorhombic'
loop_
_space_group_symop_operation_xyz
x,y,z
-x,-y,z
x,-y,-z
-x,y,-z
-x,-y,-z
x,y,-z
-x,y,z
x,-y,z
1/2+x,1/2+y,1/2+z
1/2-x,1/2-y,1/2+z
1/2+x,1/2-y,1/2-z
1/2-x,1/2+y,1/2-z
1/2-x,1/2-y,1/2-z
1/2+x,1/2+y,1/2-z
1/2-x,1/2+y,1/2+z
1/2+x,1/2-y,1/2+z
loop_
_atom_site_type_symbol
_atom_site_label
_atom_site_fract_x
_atom_site_fract_y
_atom_site_fract_z
Si Si1 0.635511 0.186560 0.440525
Si Si2 0.753554 0.913790 0.113762
Si Si3 0.203485 0.196872 0.293509
Si Si4 0.366616 0.231030 0.897330
Si Si5 0.138808 0.581857 0.148003
Si Si6 0.869814 0.081555 0.217881
Si Si7 0.500000 0.411535 0.557368
O O1 0.638133 0.175869 0.500000
O O2 0.500000 0.215580 0.427655
O O3 0.750696 0.234054 0.424557
O O4 0.647896 0.111771 0.408941
O O5 0.653414 0.855943 0.099254
O O6 0.777873 0.903491 0.173336
O O7 0.876695 0.892876 0.085215
O O8 0.730109 0.000000 0.104750
O O9 0.250000 0.250000 0.250000
O O10 0.144690 0.240710 0.339448
O O11 0.303229 0.145043 0.318485
O O12 0.127904 0.138603 0.262349
O O13 0.500000 0.250727 0.915559
O O14 0.189191 0.500000 0.153455
O O15 0.000000 0.578452 0.161030
O O16 0.000000 0.081127 0.192761
O O17 0.847512 0.000000 0.237341
O O18 0.500000 0.500000 0.555500
O O19 0.500000 0.383111 0.500000
#
# Coordination Sequence:
#
# PCOD9519879 Si02
#       7
#    16  16  16  16  16  16   8
#     4   9  20  39  64  92 119 155 198 240 296 365
#     4  10  20  36  56  80 112 150 194 244 295 350
#     4  11  21  36  54  78 114 163 201 239 286 351
#     4  11  24  39  56  85 121 158 197 245 302 355
#     4   9  19  36  59  89 121 150 192 252 305 352
#     4  10  19  33  54  78 106 145 195 244 284 334
#     4   9  18  34  58  86 110 136 183 245 300 346
#
# _framework density 19.042273999999999
#
# number of rings (size 3 to 8) (size 9 to 14) (size 15 to 20)
#    0.000    2.077    2.308    0.923    1.077    2.769 
#    0.000    1.538    0.000    4.154    0.000    7.538 
#    0.000    0.000    0.000    0.000    0.000    0.000 
#
# Total GULP energy -289624.318174 kJ/mol
# GULP energy per Si atom -5569.698426 kJ/mol
# Density = 1.899893 g / cm^3
# Si number density = 19.042274 Si / 1000 Ang^3
#
#
#
# Elastic Constant Matrix: (Units=GPa)
#
#
# Indices 1 2 3 4 5 6 
#
# 1 98.4907 44.2954 32.3215 0.0000 0.0000 0.0000
# 2 44.2954 96.9912 31.4942 0.0000 0.0000 0.0000
# 3 32.3215 31.4942 85.0378 0.0000 0.0000 0.0000
# 4 0.0000 0.0000 0.0000 13.9485 0.0000 0.0000
# 5 0.0000 0.0000 0.0000 0.0000 20.9520 0.0000
# 6 0.0000 0.0000 0.0000 0.0000 0.0000 14.1079
#
#
#
# Elastic Compliance Matrix: (Units=1/GPa)
#
#
# Indices 1 2 3 4 5 6 
#
# 1 0.013521 -0.005122 -0.003242 0.000000 0.000000 0.000000
# 2 -0.005122 0.013660 -0.003112 0.000000 0.000000 0.000000
# 3 -0.003242 -0.003112 0.014144 0.000000 0.000000 0.000000
# 4 0.000000 0.000000 0.000000 0.071692 0.000000 0.000000
# 5 0.000000 0.000000 0.000000 0.000000 0.047728 0.000000
# 6 0.000000 0.000000 0.000000 0.000000 0.000000 0.070882
#
#
# Mechanical properties :
#
#
# Convention : Reuss Voigt Hill
#
# Bulk Modulus (GPa) = 54.42947 55.19353 54.81150
# Shear Modulus (GPa) = 19.17878 21.29560 20.23719
#
# Velocity S-wave (km/s) = 3.17704 3.34778 3.26352
# Velocity P-wave (km/s) = 6.48873 6.63258 6.56105
#
# Compressibility (1/GPa) = 0.01837240
#
# Stress axis : x y z
#
# Youngs Moduli (GPa) = 73.96001 73.20612 70.69961
#
# Poissons Ratio (x) = 0.37497 0.22921
# Poissons Ratio (y) = 0.37884 0.22003
# Poissons Ratio (z) = 0.23978 0.22783
#
# Static dielectric constant tensor:
#      x y z
#    x 1.660140 0.000000 0.000000 
#    y 0.000000 1.811980 0.000000 
#    z 0.000000 0.000000 1.659810 
# 
# From -- ./inp_files/64641.got.cif
#   From: 2010.05.17/outbox.cif.g08.bks.cpg/sg71_33_cif.got.tgz:64641.got - 2010.06.03 16:22:01.
