data_PCOD9519806
_publ_section_title
;
Structure prediction by ZEFSAII (Michael W. Deem and Ramdas Pophale) SiO2 
 PCOD9519806
Probable space group: I M M M
;
_chemical_formula_sum "Si O2"
_cell_formula_units_Z 72
_cell_length_a 7.401391
_cell_length_b 24.147476
_cell_length_c 18.563408
_cell_angle_alpha 90.000000
_cell_angle_beta 90.000000
_cell_angle_gamma 90.000000
_cell_volume 3317.743453
_symmetry_space_group_name_H-M "I M M M"
_symmetry_group_IT_number 71
_symmetry_cell_setting 'orthorhombic'
loop_
_space_group_symop_operation_xyz
x,y,z
-x,-y,z
x,-y,-z
-x,y,-z
-x,-y,-z
x,y,-z
-x,y,z
x,-y,z
1/2+x,1/2+y,1/2+z
1/2-x,1/2-y,1/2+z
1/2+x,1/2-y,1/2-z
1/2-x,1/2+y,1/2-z
1/2-x,1/2-y,1/2-z
1/2+x,1/2+y,1/2-z
1/2-x,1/2+y,1/2+z
1/2+x,1/2-y,1/2+z
loop_
_atom_site_type_symbol
_atom_site_label
_atom_site_fract_x
_atom_site_fract_y
_atom_site_fract_z
Si Si1 0.783190 0.565407 0.500000
Si Si2 0.285588 0.264741 0.332983
Si Si3 0.220714 0.655820 0.082668
Si Si4 0.706822 0.108967 0.149828
Si Si5 0.279145 0.936370 0.302780
O O1 0.758606 0.500000 0.500000
O O2 0.709916 0.589597 0.425321
O O3 0.000000 0.577494 0.500000
O O4 0.500000 0.269579 0.343386
O O5 0.250000 0.250000 0.250000
O O6 0.221027 0.214251 0.382772
O O7 0.206042 0.324765 0.348324
O O8 0.278606 0.605755 0.134613
O O9 0.000000 0.656040 0.083385
O O10 0.277637 0.649810 0.000000
O O11 0.500000 0.088081 0.149500
O O12 0.783755 0.085778 0.224743
O O13 0.500000 0.934795 0.302793
O O14 0.225501 0.000000 0.313905
#
# Coordination Sequence:
#
# PCOD9519806 Si02
#       5
#     8  16  16  16  16
#     4   9  18  32  53  81 113 147 182 225 268 312
#     4  11  21  35  55  77 104 138 176 217 265 316
#     4   9  18  31  47  73 106 134 165 208 258 310
#     4  10  19  33  52  79 109 138 177 219 263 313
#     4   9  16  28  49  74 100 132 170 212 256 304
#
# _framework density 21.701498999999998
#
# number of rings (size 3 to 8) (size 9 to 14) (size 15 to 20)
#    0.000    2.333    2.222    1.333    1.556    3.111 
#    0.000    2.222    0.000    3.333    0.000    0.000 
#    0.000    1.778    0.000    0.000    0.000    0.000 
#
# Total GULP energy -201128.554153 kJ/mol
# GULP energy per Si atom -5586.904282 kJ/mol
# Density = 2.165211 g / cm^3
# Si number density = 21.701499 Si / 1000 Ang^3
#
#
#
# Elastic Constant Matrix: (Units=GPa)
#
#
# Indices 1 2 3 4 5 6 
#
# 1 73.5389 -12.8463 -2.3036 0.0000 0.0000 0.0000
# 2 -12.8463 42.9974 46.7840 0.0000 0.0000 0.0000
# 3 -2.3036 46.7840 202.5874 0.0000 0.0000 0.0000
# 4 0.0000 0.0000 0.0000 28.4818 0.0000 0.0000
# 5 0.0000 0.0000 0.0000 0.0000 -17.3390 0.0000
# 6 0.0000 0.0000 0.0000 0.0000 0.0000 15.2825
#
#
#
# Elastic Compliance Matrix: (Units=1/GPa)
#
#
# Indices 1 2 3 4 5 6 
#
# 1 0.014534 0.005560 -0.001119 0.000000 0.000000 0.000000
# 2 0.005560 0.033189 -0.007601 0.000000 0.000000 0.000000
# 3 -0.001119 -0.007601 0.006679 0.000000 0.000000 0.000000
# 4 0.000000 0.000000 0.000000 0.035110 0.000000 0.000000
# 5 0.000000 0.000000 0.000000 0.000000 -0.057674 0.000000
# 6 0.000000 0.000000 0.000000 0.000000 0.000000 0.065434
#
#
# Mechanical properties :
#
#
# Convention : Reuss Voigt Hill
#
# Bulk Modulus (GPa) = 20.79800 42.48797 31.64298
# Shear Modulus (GPa) = 41.79888 24.45104 33.12496
#
# Velocity S-wave (km/s) = 4.39348 3.36027 3.91114
# Velocity P-wave (km/s) = 5.94486 5.88864 5.91682
#
# Compressibility (1/GPa) = 0.04808155
#
# Stress axis : x y z
#
# Youngs Moduli (GPa) = 68.80233 30.13064 149.72810
#
# Poissons Ratio (x) = -0.16751 0.16749
# Poissons Ratio (y) = -0.38251 1.13811
# Poissons Ratio (z) = 0.07696 0.22903
#
# Static dielectric constant tensor:
#      x y z
#    x 1.885750 0.000000 0.000000 
#    y 0.000000 1.738800 0.000000 
#    z 0.000000 0.000000 1.758400 
# 
# From -- ./inp_files/7933.got.cif
#   From: 2010.05.17/outbox.cif.g08.bks.cpg/sg71_4_cif.got.tgz:7933.got - 2010.06.03 16:22:01.
