data_PCOD9519705
_publ_section_title
;
Structure prediction by ZEFSAII (Michael W. Deem and Ramdas Pophale) SiO2 
 PCOD9519705
Probable space group: I M M M
;
_chemical_formula_sum "Si O2"
_cell_formula_units_Z 112
_cell_length_a 14.054843
_cell_length_b 16.616495
_cell_length_c 27.353508
_cell_angle_alpha 90.000000
_cell_angle_beta 90.000000
_cell_angle_gamma 90.000000
_cell_volume 6388.199214
_symmetry_space_group_name_H-M "I M M M"
_symmetry_group_IT_number 71
_symmetry_cell_setting 'orthorhombic'
loop_
_space_group_symop_operation_xyz
x,y,z
-x,-y,z
x,-y,-z
-x,y,-z
-x,-y,-z
x,y,-z
-x,y,z
x,-y,z
1/2+x,1/2+y,1/2+z
1/2-x,1/2-y,1/2+z
1/2+x,1/2-y,1/2-z
1/2-x,1/2+y,1/2-z
1/2-x,1/2-y,1/2-z
1/2+x,1/2+y,1/2-z
1/2-x,1/2+y,1/2+z
1/2+x,1/2-y,1/2+z
loop_
_atom_site_type_symbol
_atom_site_label
_atom_site_fract_x
_atom_site_fract_y
_atom_site_fract_z
Si Si1 0.246534 0.591933 0.555284
Si Si2 0.114275 0.409835 0.648976
Si Si3 0.394089 0.411047 0.305642
Si Si4 0.292854 0.588257 0.205513
Si Si5 0.386444 0.753845 0.211425
Si Si6 0.387212 0.171829 0.684259
Si Si7 0.109524 0.206922 0.896929
O O1 0.209233 0.598757 0.500000
O O2 0.286902 0.500000 0.559650
O O3 0.166855 0.598453 0.597166
O O4 0.321730 0.663383 0.565071
O O5 0.137478 0.500000 0.668379
O O6 0.142810 0.335024 0.683058
O O7 0.000000 0.406573 0.643405
O O8 0.500000 0.399440 0.282950
O O9 0.391343 0.500000 0.327239
O O10 0.318389 0.408874 0.262820
O O11 0.385559 0.351623 0.350007
O O12 0.327500 0.500000 0.188130
O O13 0.340059 0.673112 0.189450
O O14 0.182022 0.597923 0.194155
O O15 0.500000 0.746954 0.206964
O O16 0.366010 0.768449 0.269335
O O17 0.500000 0.155530 0.686984
O O18 0.366440 0.209778 0.630880
O O19 0.000000 0.210718 0.913996
#
# Coordination Sequence:
#
# PCOD9519705 Si02
#       7
#    16  16  16  16  16  16  16
#     4  10  21  34  49  72 101 132 169 216 263 303
#     4   9  19  34  53  76 102 138 177 208 246 299
#     4   9  17  28  43  66  92 122 165 206 241 288
#     4  11  21  30  46  70  98 136 171 204 247 292
#     4  10  19  33  51  73 102 131 168 216 254 294
#     4  10  21  34  47  67  97 134 172 209 252 298
#     4  10  19  33  50  66  91 129 170 211 255 299
#
# _framework density 17.532328
#
# number of rings (size 3 to 8) (size 9 to 14) (size 15 to 20)
#    0.000    2.143    1.429    2.143    2.000    3.143 
#    0.000    3.571    0.000    0.000    0.000    0.000 
#    0.000    9.143    0.000   25.143    0.000    0.571 
#
# Total GULP energy -312017.515886 kJ/mol
# GULP energy per Si atom -5571.741355 kJ/mol
# Density = 1.749242 g / cm^3
# Si number density = 17.532328 Si / 1000 Ang^3
#
#
#
# Elastic Constant Matrix: (Units=GPa)
#
#
# Indices 1 2 3 4 5 6 
#
# 1 51.1518 28.6564 14.8095 0.0000 0.0000 0.0000
# 2 28.6564 104.9293 28.4077 0.0000 0.0000 0.0000
# 3 14.8095 28.4077 49.1978 0.0000 0.0000 0.0000
# 4 0.0000 0.0000 0.0000 21.9125 0.0000 0.0000
# 5 0.0000 0.0000 0.0000 0.0000 13.8028 0.0000
# 6 0.0000 0.0000 0.0000 0.0000 0.0000 25.5915
#
#
#
# Elastic Compliance Matrix: (Units=1/GPa)
#
#
# Indices 1 2 3 4 5 6 
#
# 1 0.023737 -0.005391 -0.004033 0.000000 0.000000 0.000000
# 2 -0.005391 0.012520 -0.005607 0.000000 0.000000 0.000000
# 3 -0.004033 -0.005607 0.024777 0.000000 0.000000 0.000000
# 4 0.000000 0.000000 0.000000 0.045636 0.000000 0.000000
# 5 0.000000 0.000000 0.000000 0.000000 0.072449 0.000000
# 6 0.000000 0.000000 0.000000 0.000000 0.000000 0.039076
#
#
# Mechanical properties :
#
#
# Convention : Reuss Voigt Hill
#
# Bulk Modulus (GPa) = 32.28449 38.78070 35.53259
# Shear Modulus (GPa) = 19.33629 21.15504 20.24567
#
# Velocity S-wave (km/s) = 3.32459 3.47743 3.40187
# Velocity P-wave (km/s) = 5.76120 6.18796 5.97839
#
# Compressibility (1/GPa) = 0.03097462
#
# Stress axis : x y z
#
# Youngs Moduli (GPa) = 42.12781 79.86940 40.35935
#
# Poissons Ratio (x) = 0.43057 0.16275
# Poissons Ratio (y) = 0.22711 0.22628
# Poissons Ratio (z) = 0.16988 0.44781
#
# Static dielectric constant tensor:
#      x y z
#    x 1.668510 0.000000 0.000000 
#    y 0.000000 1.672190 0.000000 
#    z 0.000000 0.000000 1.567030 
# 
# From -- ./inp_files/65533.got.cif
#   From: 2010.05.17/outbox.cif.g08.bks.cpg/sg71_33_cif.got.tgz:65533.got - 2010.06.03 16:22:01.
