data_PCOD9519874
_publ_section_title
;
Structure prediction by ZEFSAII (Michael W. Deem and Ramdas Pophale) SiO2 
 PCOD9519874
Probable space group: I M M M
;
_chemical_formula_sum "Si O2"
_cell_formula_units_Z 104
_cell_length_a 20.034700
_cell_length_b 9.002467
_cell_length_c 32.631447
_cell_angle_alpha 90.000000
_cell_angle_beta 90.000000
_cell_angle_gamma 90.000000
_cell_volume 5885.464090
_symmetry_space_group_name_H-M "I M M M"
_symmetry_group_IT_number 71
_symmetry_cell_setting 'orthorhombic'
loop_
_space_group_symop_operation_xyz
x,y,z
-x,-y,z
x,-y,-z
-x,y,-z
-x,-y,-z
x,y,-z
-x,y,z
x,-y,z
1/2+x,1/2+y,1/2+z
1/2-x,1/2-y,1/2+z
1/2+x,1/2-y,1/2-z
1/2-x,1/2+y,1/2-z
1/2-x,1/2-y,1/2-z
1/2+x,1/2+y,1/2-z
1/2-x,1/2+y,1/2+z
1/2+x,1/2-y,1/2+z
loop_
_atom_site_type_symbol
_atom_site_label
_atom_site_fract_x
_atom_site_fract_y
_atom_site_fract_z
Si Si1 0.576054 0.822116 0.843121
Si Si2 0.076987 0.680780 0.500000
Si Si3 0.196088 0.321901 0.097873
Si Si4 0.202460 0.322418 0.193016
Si Si5 0.835853 0.320217 0.421080
Si Si6 0.576586 0.322440 0.548498
Si Si7 0.849378 0.176543 0.271248
O O1 0.500000 0.788217 0.854975
O O2 0.626153 0.776160 0.879299
O O3 0.595413 0.746340 0.800589
O O4 0.581854 0.000000 0.838593
O O5 0.074558 0.500000 0.500000
O O6 0.118351 0.724254 0.459625
O O7 0.000000 0.732337 0.500000
O O8 0.200415 0.500000 0.095831
O O9 0.192807 0.278352 0.145938
O O10 0.262928 0.251169 0.078833
O O11 0.131288 0.263536 0.074429
O O12 0.194053 0.500000 0.196311
O O13 0.154904 0.243607 0.225843
O O14 0.278218 0.287251 0.207013
O O15 0.829828 0.500000 0.421628
O O16 0.585417 0.293185 0.500000
O O17 0.500000 0.283490 0.559231
O O18 0.584338 0.500000 0.554376
O O19 0.855978 0.000000 0.269392
#
# Coordination Sequence:
#
# PCOD9519874 Si02
#       7
#    16   8  16  16  16  16  16
#     4  10  20  34  53  78 110 149 191 234 279 326
#     4   9  18  34  55  79 108 145 192 241 279 316
#     4  11  22  36  56  85 118 147 179 225 277 331
#     4   9  19  35  53  76 108 142 177 219 271 326
#     4  10  20  34  55  81 110 147 192 235 276 324
#     4   9  20  40  63  85 111 144 182 224 271 325
#     4  10  19  33  54  78 104 138 182 228 273 323
#
# _framework density 17.670653999999999
#
# number of rings (size 3 to 8) (size 9 to 14) (size 15 to 20)
#    0.000    2.231    1.538    1.846    1.077    4.615 
#    0.000    1.538    0.000    2.769    0.000    0.000 
#    0.000    0.000    0.000    0.000    0.000    0.000 
#
# Total GULP energy -290188.426955 kJ/mol
# GULP energy per Si atom -5580.546672 kJ/mol
# Density = 1.763043 g / cm^3
# Si number density = 17.670654 Si / 1000 Ang^3
#
#
#
# Elastic Constant Matrix: (Units=GPa)
#
#
# Indices 1 2 3 4 5 6 
#
# 1 117.1157 40.5045 70.5738 0.0000 0.0000 0.0000
# 2 40.5045 18.8320 34.4424 0.0000 0.0000 0.0000
# 3 70.5738 34.4424 109.4820 0.0000 0.0000 0.0000
# 4 0.0000 0.0000 0.0000 23.7419 0.0000 0.0000
# 5 0.0000 0.0000 0.0000 0.0000 27.3523 0.0000
# 6 0.0000 0.0000 0.0000 0.0000 0.0000 20.1462
#
#
#
# Elastic Compliance Matrix: (Units=1/GPa)
#
#
# Indices 1 2 3 4 5 6 
#
# 1 0.033633 -0.076979 0.002537 0.000000 0.000000 0.000000
# 2 -0.076979 0.301240 -0.045147 0.000000 0.000000 0.000000
# 3 0.002537 -0.045147 0.021702 0.000000 0.000000 0.000000
# 4 0.000000 0.000000 0.000000 0.042120 0.000000 0.000000
# 5 0.000000 0.000000 0.000000 0.000000 0.036560 0.000000
# 6 0.000000 0.000000 0.000000 0.000000 0.000000 0.049637
#
#
# Mechanical properties :
#
#
# Convention : Reuss Voigt Hill
#
# Bulk Modulus (GPa) = 8.51808 59.60789 34.06298
# Shear Modulus (GPa) = 6.55135 20.90869 13.73002
#
# Velocity S-wave (km/s) = 1.92757 3.44356 2.79049
# Velocity P-wave (km/s) = 3.12809 7.04392 5.44985
#
# Compressibility (1/GPa) = 0.11739732
#
# Stress axis : x y z
#
# Youngs Moduli (GPa) = 29.73265 3.31961 46.07936
#
# Poissons Ratio (x) = 0.25554 -0.11689
# Poissons Ratio (y) = 2.28878 2.08033
# Poissons Ratio (z) = -0.07542 0.14987
#
# Static dielectric constant tensor:
#      x y z
#    x 1.587240 0.000000 0.000000 
#    y 0.000000 1.584750 0.000000 
#    z 0.000000 0.000000 1.595190 
# 
# From -- ./inp_files/70756.got.cif
#   From: 2010.05.17/outbox.cif.g08.bks.cpg/sg71_36_cif.got.tgz:70756.got - 2010.06.03 16:22:01.
