data_PCOD9519976
_publ_section_title
;
Structure prediction by ZEFSAII (Michael W. Deem and Ramdas Pophale) SiO2 
 PCOD9519976
Probable space group: I M M M
;
_chemical_formula_sum "Si O2"
_cell_formula_units_Z 104
_cell_length_a 28.579487
_cell_length_b 9.144436
_cell_length_c 22.897316
_cell_angle_alpha 90.000000
_cell_angle_beta 90.000000
_cell_angle_gamma 90.000000
_cell_volume 5984.059891
_symmetry_space_group_name_H-M "I M M M"
_symmetry_group_IT_number 71
_symmetry_cell_setting 'orthorhombic'
loop_
_space_group_symop_operation_xyz
x,y,z
-x,-y,z
x,-y,-z
-x,y,-z
-x,-y,-z
x,y,-z
-x,y,z
x,-y,z
1/2+x,1/2+y,1/2+z
1/2-x,1/2-y,1/2+z
1/2+x,1/2-y,1/2-z
1/2-x,1/2+y,1/2-z
1/2-x,1/2-y,1/2-z
1/2+x,1/2+y,1/2-z
1/2-x,1/2+y,1/2+z
1/2+x,1/2-y,1/2+z
loop_
_atom_site_type_symbol
_atom_site_label
_atom_site_fract_x
_atom_site_fract_y
_atom_site_fract_z
Si Si1 0.945129 0.321908 0.000000
Si Si2 0.390085 0.174483 0.617745
Si Si3 0.801833 0.327162 0.691714
Si Si4 0.945090 0.672742 0.762940
Si Si5 0.889610 0.829340 0.660191
Si Si6 0.944022 0.662567 0.568037
Si Si7 0.694463 0.326014 0.681735
O O1 0.916153 0.278521 0.058129
O O2 0.946616 0.500000 0.000000
O O3 0.000000 0.274046 0.000000
O O4 0.425464 0.196140 0.672054
O O5 0.342461 0.256457 0.636718
O O6 0.380589 0.000000 0.613453
O O7 0.808835 0.500000 0.699065
O O8 0.841119 0.255689 0.652078
O O9 0.749439 0.303758 0.667821
O O10 0.809210 0.250786 0.754843
O O11 0.939336 0.500000 0.749478
O O12 0.915622 0.765578 0.717112
O O13 0.000000 0.707366 0.759362
O O14 0.921916 0.788676 0.605944
O O15 0.881571 0.000000 0.666805
O O16 0.931940 0.673845 0.500000
O O17 0.929272 0.500000 0.589327
O O18 0.000000 0.667639 0.572821
O O19 0.686031 0.500000 0.687161
#
# Coordination Sequence:
#
# PCOD9519976 Si02
#       7
#     8  16  16  16  16  16  16
#     4   9  18  34  57  85 113 147 197 241 272 323
#     4  10  19  33  56  81 109 147 187 230 278 326
#     4  10  20  35  55  79 108 142 180 218 269 330
#     4  10  20  33  50  75 108 146 184 220 266 326
#     4  12  23  33  51  81 113 143 176 222 276 319
#     4   9  19  37  59  79 103 142 186 220 257 317
#     4  10  20  34  55  82 109 137 174 223 276 331
#
# _framework density 17.379505000000002
#
# number of rings (size 3 to 8) (size 9 to 14) (size 15 to 20)
#    0.000    1.923    1.538    3.692    0.000    6.462 
#    0.000    1.154    1.692    1.846    0.000    0.000 
#    0.000    0.000    0.000    0.000    0.000    0.000 
#
# Total GULP energy -290136.906040 kJ/mol
# GULP energy per Si atom -5579.555885 kJ/mol
# Density = 1.733995 g / cm^3
# Si number density = 17.379505 Si / 1000 Ang^3
#
#
#
# Elastic Constant Matrix: (Units=GPa)
#
#
# Indices 1 2 3 4 5 6 
#
# 1 114.2647 60.4228 53.3707 0.0000 0.0000 0.0000
# 2 60.4228 66.7776 30.1301 0.0000 0.0000 0.0000
# 3 53.3707 30.1301 60.7713 0.0000 0.0000 0.0000
# 4 0.0000 0.0000 0.0000 -3.6128 0.0000 0.0000
# 5 0.0000 0.0000 0.0000 0.0000 19.1977 0.0000
# 6 0.0000 0.0000 0.0000 0.0000 0.0000 28.4459
#
#
#
# Elastic Compliance Matrix: (Units=1/GPa)
#
#
# Indices 1 2 3 4 5 6 
#
# 1 0.022152 -0.014512 -0.012259 0.000000 0.000000 0.000000
# 2 -0.014512 0.028798 -0.001533 0.000000 0.000000 0.000000
# 3 -0.012259 -0.001533 0.027981 0.000000 0.000000 0.000000
# 4 0.000000 0.000000 0.000000 -0.276793 0.000000 0.000000
# 5 0.000000 0.000000 0.000000 0.000000 0.052090 0.000000
# 6 0.000000 0.000000 0.000000 0.000000 0.000000 0.035154
#
#
# Mechanical properties :
#
#
# Convention : Reuss Voigt Hill
#
# Bulk Modulus (GPa) = 44.79764 58.85122 51.82443
# Shear Modulus (GPa) = -107.36620 15.33215 -46.01702
#
# Velocity S-wave (km/s) = -7.86839 2.97340 -5.15124
# Velocity P-wave (km/s) = 7.53105 6.76196 2.34442
#
# Compressibility (1/GPa) = 0.02232261
#
# Stress axis : x y z
#
# Youngs Moduli (GPa) = 45.14356 34.72462 35.73839
#
# Poissons Ratio (x) = 0.50394 0.43811
# Poissons Ratio (y) = 0.65514 0.05478
# Poissons Ratio (z) = 0.55341 0.05323
#
# Static dielectric constant tensor:
#      x y z
#    x 1.612990 0.000000 0.000000 
#    y 0.000000 1.605530 0.000000 
#    z 0.000000 0.000000 1.577780 
# 
# From -- ./inp_files/56240.got.cif
#   From: 2010.05.17/outbox.cif.g08.bks.cpg/sg71_29_cif.got.tgz:56240.got - 2010.06.03 16:22:01.
