data_PCOD9519745
_publ_section_title
;
Structure prediction by ZEFSAII (Michael W. Deem and Ramdas Pophale) SiO2 
 PCOD9519745
Probable space group: I M M M
;
_chemical_formula_sum "Si O2"
_cell_formula_units_Z 72
_cell_length_a 7.576988
_cell_length_b 17.085958
_cell_length_c 26.164443
_cell_angle_alpha 90.000000
_cell_angle_beta 90.000000
_cell_angle_gamma 90.000000
_cell_volume 3387.251374
_symmetry_space_group_name_H-M "I M M M"
_symmetry_group_IT_number 71
_symmetry_cell_setting 'orthorhombic'
loop_
_space_group_symop_operation_xyz
x,y,z
-x,-y,z
x,-y,-z
-x,y,-z
-x,-y,-z
x,y,-z
-x,y,z
x,-y,z
1/2+x,1/2+y,1/2+z
1/2-x,1/2-y,1/2+z
1/2+x,1/2-y,1/2-z
1/2-x,1/2+y,1/2-z
1/2-x,1/2-y,1/2-z
1/2+x,1/2+y,1/2-z
1/2-x,1/2+y,1/2+z
1/2+x,1/2-y,1/2+z
loop_
_atom_site_type_symbol
_atom_site_label
_atom_site_fract_x
_atom_site_fract_y
_atom_site_fract_z
Si Si1 0.216233 0.688232 0.900870
Si Si2 0.287946 0.829328 0.283511
Si Si3 0.284675 0.089566 0.500000
Si Si4 0.791239 0.500000 0.374605
Si Si5 0.710050 0.352787 0.556875
Si Si6 0.783475 0.500000 0.740460
O O1 0.274258 0.675993 0.842485
O O2 0.277958 0.773369 0.918759
O O3 0.000000 0.685727 0.899752
O O4 0.270919 0.630748 0.946992
O O5 0.500000 0.832759 0.284287
O O6 0.250000 0.750000 0.250000
O O7 0.227874 0.915098 0.263088
O O8 0.500000 0.092791 0.500000
O O9 0.229555 0.000000 0.500000
O O10 0.739787 0.575402 0.406369
O O11 0.719483 0.500000 0.317756
O O12 0.000000 0.500000 0.369460
O O13 0.780960 0.366725 0.500000
O O14 0.500000 0.342424 0.552305
O O15 0.000000 0.500000 0.743067
#
# Coordination Sequence:
#
# PCOD9519745 Si02
#       6
#    16  16   8   8  16   8
#     4   9  17  30  50  76 105 134 165 204 252 307
#     4  10  20  35  55  78 105 139 176 213 257 308
#     4   9  16  26  46  79 109 128 156 205 257 303
#     4  11  22  34  49  70  99 134 175 214 245 288
#     4  10  19  33  51  73 103 134 163 202 254 301
#     4   9  20  36  52  74 106 139 169 210 263 306
#
# _framework density 21.256171999999999
#
# number of rings (size 3 to 8) (size 9 to 14) (size 15 to 20)
#    0.000    2.333    1.111    2.000    1.556    1.778 
#    0.000    1.667    0.000    0.000    0.000    0.000 
#    0.000    3.556    0.000    0.000    0.000    0.000 
#
# Total GULP energy -200821.680950 kJ/mol
# GULP energy per Si atom -5578.380026 kJ/mol
# Density = 2.120779 g / cm^3
# Si number density = 21.256172 Si / 1000 Ang^3
#
#
#
# Elastic Constant Matrix: (Units=GPa)
#
#
# Indices 1 2 3 4 5 6 
#
# 1 48.3554 -4.5818 -0.3832 0.0000 0.0000 0.0000
# 2 -4.5818 265.3777 183.5621 0.0000 0.0000 0.0000
# 3 -0.3832 183.5621 291.0131 0.0000 0.0000 0.0000
# 4 0.0000 0.0000 0.0000 46.8439 0.0000 0.0000
# 5 0.0000 0.0000 0.0000 0.0000 12.8090 0.0000
# 6 0.0000 0.0000 0.0000 0.0000 0.0000 181.0051
#
#
#
# Elastic Compliance Matrix: (Units=1/GPa)
#
#
# Indices 1 2 3 4 5 6 
#
# 1 0.020734 0.000602 -0.000352 0.000000 0.000000 0.000000
# 2 0.000602 0.006702 -0.004227 0.000000 0.000000 0.000000
# 3 -0.000352 -0.004227 0.006102 0.000000 0.000000 0.000000
# 4 0.000000 0.000000 0.000000 0.021348 0.000000 0.000000
# 5 0.000000 0.000000 0.000000 0.000000 0.078070 0.000000
# 6 0.000000 0.000000 0.000000 0.000000 0.000000 0.005525
#
#
# Mechanical properties :
#
#
# Convention : Reuss Voigt Hill
#
# Bulk Modulus (GPa) = 39.08715 106.88228 72.98471
# Shear Modulus (GPa) = 32.26564 76.54153 54.40358
#
# Velocity S-wave (km/s) = 3.90030 6.00727 5.06456
# Velocity P-wave (km/s) = 6.22187 9.92514 8.28312
#
# Compressibility (1/GPa) = 0.02558386
#
# Stress axis : x y z
#
# Youngs Moduli (GPa) = 48.22903 149.20277 163.88210
#
# Poissons Ratio (x) = -0.08975 0.05771
# Poissons Ratio (y) = -0.02901 0.69270
# Poissons Ratio (z) = 0.01698 0.63065
#
# Static dielectric constant tensor:
#      x y z
#    x 1.854620 0.000000 0.000000 
#    y 0.000000 1.683880 0.000000 
#    z 0.000000 0.000000 1.779900 
# 
# From -- ./inp_files/62877.got.cif
#   From: 2010.05.17/outbox.cif.g08.bks.cpg/sg71_32_cif.got.tgz:62877.got - 2010.06.03 16:22:01.
