data_PCOD9519618
_publ_section_title
;
Structure prediction by ZEFSAII (Michael W. Deem and Ramdas Pophale) SiO2 
 PCOD9519618
Probable space group: I M M M
;
_chemical_formula_sum "Si O2"
_cell_formula_units_Z 92
_cell_length_a 15.064214
_cell_length_b 21.176832
_cell_length_c 14.555104
_cell_angle_alpha 90.000000
_cell_angle_beta 90.000000
_cell_angle_gamma 90.000000
_cell_volume 4643.257627
_symmetry_space_group_name_H-M "I M M M"
_symmetry_group_IT_number 71
_symmetry_cell_setting 'orthorhombic'
loop_
_space_group_symop_operation_xyz
x,y,z
-x,-y,z
x,-y,-z
-x,y,-z
-x,-y,-z
x,y,-z
-x,y,z
x,-y,z
1/2+x,1/2+y,1/2+z
1/2-x,1/2-y,1/2+z
1/2+x,1/2-y,1/2-z
1/2-x,1/2+y,1/2-z
1/2-x,1/2-y,1/2-z
1/2+x,1/2+y,1/2-z
1/2-x,1/2+y,1/2+z
1/2+x,1/2-y,1/2+z
loop_
_atom_site_type_symbol
_atom_site_label
_atom_site_fract_x
_atom_site_fract_y
_atom_site_fract_z
Si Si1 0.841833 0.894448 0.780755
Si Si2 0.000000 0.667875 0.102074
Si Si3 0.189763 0.822628 0.394884
Si Si4 0.000000 0.240750 0.397982
Si Si5 0.500000 0.133856 0.796429
Si Si6 0.667899 0.925970 0.895610
Si Si7 0.845129 0.229526 0.893709
Si Si8 0.000000 0.000000 0.775974
O O1 0.803233 0.877297 0.680199
O O2 0.760980 0.917353 0.844357
O O3 0.869326 0.827533 0.826836
O O4 0.921398 0.944355 0.776894
O O5 0.000000 0.621808 0.188093
O O6 0.915341 0.713811 0.110568
O O7 0.000000 0.639532 0.000000
O O8 0.213208 0.840738 0.500000
O O9 0.087787 0.801020 0.393288
O O10 0.250787 0.762067 0.371158
O O11 0.000000 0.272311 0.500000
O O12 0.000000 0.291730 0.318108
O O13 0.411686 0.107547 0.843020
O O14 0.647337 0.000000 0.899071
O O15 0.674162 0.901514 0.000000
O O16 0.843446 0.207123 0.000000
#
# Coordination Sequence:
#
# PCOD9519618 Si02
#       8
#    16   8  16   8   8  16  16   4
#     4  12  22  42  61  86 126 171 213 262 303 370
#     4  10  21  36  56  92 128 154 195 240 296 366
#     4  10  21  37  62  92 124 160 206 264 324 373
#     4  10  19  32  53  92 125 150 194 246 310 373
#     4  12  21  36  65  90 118 160 189 241 311 371
#     4  11  24  42  61  86 116 150 199 253 304 360
#     4  10  20  36  60  91 122 160 206 259 320 377
#     4  12  28  42  62  90 128 182 236 248 300 384
#
# _framework density 19.813676000000001
#
# number of rings (size 3 to 8) (size 9 to 14) (size 15 to 20)
#    0.000    1.217    0.870    6.261    0.000    2.087 
#    0.000    3.913    0.000    2.087    0.000    0.000 
#    0.000    0.000    0.000    0.000    0.000    0.000 
#
# Total GULP energy -256559.431270 kJ/mol
# GULP energy per Si atom -5577.378941 kJ/mol
# Density = 1.976858 g / cm^3
# Si number density = 19.813676 Si / 1000 Ang^3
#
#
#
# Elastic Constant Matrix: (Units=GPa)
#
#
# Indices 1 2 3 4 5 6 
#
# 1 67.8307 27.5288 29.7399 0.0000 0.0000 0.0000
# 2 27.5288 60.9448 51.6591 0.0000 0.0000 0.0000
# 3 29.7399 51.6591 153.3996 -0.0001 0.0000 0.0000
# 4 0.0000 0.0000 -0.0001 14.6830 0.0000 0.0000
# 5 0.0000 0.0000 0.0000 0.0000 27.1477 0.0000
# 6 0.0000 0.0000 0.0000 0.0000 0.0000 5.9761
#
#
#
# Elastic Compliance Matrix: (Units=1/GPa)
#
#
# Indices 1 2 3 4 5 6 
#
# 1 0.018175 -0.007309 -0.001062 0.000000 0.000000 0.000000
# 2 -0.007309 0.025903 -0.007306 0.000000 0.000000 0.000000
# 3 -0.001062 -0.007306 0.009185 0.000000 0.000000 0.000000
# 4 0.000000 0.000000 0.000000 0.068106 0.000000 0.000000
# 5 0.000000 0.000000 0.000000 0.000000 0.036836 0.000000
# 6 0.000000 0.000000 0.000000 0.000000 0.000000 0.167334
#
#
# Mechanical properties :
#
#
# Convention : Reuss Voigt Hill
#
# Bulk Modulus (GPa) = 45.64550 55.55897 50.60224
# Shear Modulus (GPa) = 13.72888 21.11117 17.42002
#
# Velocity S-wave (km/s) = 2.63515 3.26772 2.96833
# Velocity P-wave (km/s) = 5.68736 6.50683 6.11085
#
# Compressibility (1/GPa) = 0.02190796
#
# Stress axis : x y z
#
# Youngs Moduli (GPa) = 55.02155 38.60600 108.87076
#
# Poissons Ratio (x) = 0.28218 0.11563
# Poissons Ratio (y) = 0.40217 0.79541
# Poissons Ratio (z) = 0.05844 0.28205
#
# Static dielectric constant tensor:
#      x y z
#    x 1.699540 0.000000 0.000000 
#    y 0.000000 1.676810 0.000000 
#    z 0.000000 0.000000 1.759270 
# 
# From -- ./inp_files/34571.got.cif
#   From: 2010.05.17/outbox.cif.g08.bks.cpg/sg71_18_cif.got.tgz:34571.got - 2010.06.03 16:22:01.
