data_PCOD9519560
_publ_section_title
;
Structure prediction by ZEFSAII (Michael W. Deem and Ramdas Pophale) SiO2 
 PCOD9519560
Probable space group: I M M M
;
_chemical_formula_sum "Si O2"
_cell_formula_units_Z 88
_cell_length_a 11.594053
_cell_length_b 28.857800
_cell_length_c 13.591670
_cell_angle_alpha 90.000000
_cell_angle_beta 90.000000
_cell_angle_gamma 90.000000
_cell_volume 4547.485490
_symmetry_space_group_name_H-M "I M M M"
_symmetry_group_IT_number 71
_symmetry_cell_setting 'orthorhombic'
loop_
_space_group_symop_operation_xyz
x,y,z
-x,-y,z
x,-y,-z
-x,y,-z
-x,-y,-z
x,y,-z
-x,y,z
x,-y,z
1/2+x,1/2+y,1/2+z
1/2-x,1/2-y,1/2+z
1/2+x,1/2-y,1/2-z
1/2-x,1/2+y,1/2-z
1/2-x,1/2-y,1/2-z
1/2+x,1/2+y,1/2-z
1/2-x,1/2+y,1/2+z
1/2+x,1/2-y,1/2+z
loop_
_atom_site_type_symbol
_atom_site_label
_atom_site_fract_x
_atom_site_fract_y
_atom_site_fract_z
Si Si1 0.630835 0.319638 0.118721
Si Si2 0.282674 0.736636 0.380743
Si Si3 0.750568 0.589434 0.796121
Si Si4 0.000000 0.295581 0.118211
Si Si5 0.362779 0.500000 0.888664
Si Si6 0.000000 0.595793 0.120264
Si Si7 0.639266 0.633228 0.617386
O O1 0.500000 0.327624 0.151979
O O2 0.673869 0.268222 0.148107
O O3 0.710461 0.362276 0.152651
O O4 0.632898 0.320617 0.000000
O O5 0.281400 0.735192 0.500000
O O6 0.388237 0.768659 0.348166
O O7 0.309839 0.683901 0.353316
O O8 0.678594 0.546489 0.836636
O O9 0.712606 0.597609 0.683077
O O10 0.882462 0.579294 0.827409
O O11 0.000000 0.349180 0.140629
O O12 0.000000 0.292447 0.000000
O O13 0.500000 0.500000 0.891678
O O14 0.316795 0.500000 0.000000
O O15 0.000000 0.588315 0.000000
O O16 0.654455 0.627149 0.500000
O O17 0.500000 0.631450 0.635346
#
# Coordination Sequence:
#
# PCOD9519560 Si02
#       7
#    16  16  16   8   8   8  16
#     4  10  19  32  52  83 122 160 198 250 309 365
#     4   9  16  30  53  81 116 161 203 244 297 353
#     4  12  24  40  61  90 119 157 205 251 300 368
#     4   9  14  28  53  79 114 157 199 241 294 356
#     4  11  24  43  68  96 125 153 185 246 322 380
#     4  11  22  39  63  92 124 160 198 246 304 368
#     4  10  21  39  62  87 121 164 210 257 299 345
#
# _framework density 19.351354000000001
#
# number of rings (size 3 to 8) (size 9 to 14) (size 15 to 20)
#    0.000    1.727    2.727    3.273    0.000    2.545 
#    1.636    1.818    0.000    1.636    0.000    1.273 
#    0.000    0.000    0.000    0.000    0.000    0.000 
#
# Total GULP energy -245512.045203 kJ/mol
# GULP energy per Si atom -5579.819209 kJ/mol
# Density = 1.930731 g / cm^3
# Si number density = 19.351354 Si / 1000 Ang^3
#
#
#
# Elastic Constant Matrix: (Units=GPa)
#
#
# Indices 1 2 3 4 5 6 
#
# 1 107.3122 22.5976 33.2852 0.0000 0.0000 0.0000
# 2 22.5976 75.1397 38.3042 0.0000 0.0000 0.0000
# 3 33.2852 38.3042 109.6476 0.0001 -0.0001 0.0001
# 4 0.0000 0.0000 0.0001 24.1311 0.0000 0.0000
# 5 0.0000 0.0000 -0.0001 0.0000 16.2519 0.0000
# 6 0.0000 0.0000 0.0001 0.0000 0.0000 19.8031
#
#
#
# Elastic Compliance Matrix: (Units=1/GPa)
#
#
# Indices 1 2 3 4 5 6 
#
# 1 0.010498 -0.001865 -0.002535 0.000000 0.000000 0.000000
# 2 -0.001865 0.016523 -0.005206 0.000000 0.000000 0.000000
# 3 -0.002535 -0.005206 0.011708 0.000000 0.000000 0.000000
# 4 0.000000 0.000000 0.000000 0.041440 0.000000 0.000000
# 5 0.000000 0.000000 0.000000 0.000000 0.061531 0.000000
# 6 0.000000 0.000000 0.000000 0.000000 0.000000 0.050497
#
#
# Mechanical properties :
#
#
# Convention : Reuss Voigt Hill
#
# Bulk Modulus (GPa) = 51.23707 53.38593 52.31150
# Shear Modulus (GPa) = 22.94460 25.23139 24.08800
#
# Velocity S-wave (km/s) = 3.44711 3.61481 3.53196
# Velocity P-wave (km/s) = 6.50985 6.71343 6.61242
#
# Compressibility (1/GPa) = 0.01951712
#
# Stress axis : x y z
#
# Youngs Moduli (GPa) = 95.25949 60.52058 85.40807
#
# Poissons Ratio (x) = 0.11285 0.21654
# Poissons Ratio (y) = 0.17762 0.44465
# Poissons Ratio (z) = 0.24151 0.31508
#
# Static dielectric constant tensor:
#      x y z
#    x 1.706420 0.000000 0.000000 
#    y 0.000000 1.629650 0.000000 
#    z 0.000000 0.000000 1.740100 
# 
# From -- ./inp_files/33035.got.cif
#   From: 2010.05.17/outbox.cif.g08.bks.cpg/sg71_17_cif.got.tgz:33035.got - 2010.06.03 16:22:01.
