data_PCOD9519085
_publ_section_title
;
Structure prediction by ZEFSAII (Michael W. Deem and Ramdas Pophale) SiO2 
 PCOD9519085
Probable space group: I M M M
;
_chemical_formula_sum "Si O2"
_cell_formula_units_Z 88
_cell_length_a 21.189679
_cell_length_b 25.432353
_cell_length_c 8.684780
_cell_angle_alpha 90.000000
_cell_angle_beta 90.000000
_cell_angle_gamma 90.000000
_cell_volume 4680.257438
_symmetry_space_group_name_H-M "I M M M"
_symmetry_group_IT_number 71
_symmetry_cell_setting 'orthorhombic'
loop_
_space_group_symop_operation_xyz
x,y,z
-x,-y,z
x,-y,-z
-x,y,-z
-x,-y,-z
x,y,-z
-x,y,z
x,-y,z
1/2+x,1/2+y,1/2+z
1/2-x,1/2-y,1/2+z
1/2+x,1/2-y,1/2-z
1/2-x,1/2+y,1/2-z
1/2-x,1/2-y,1/2-z
1/2+x,1/2+y,1/2-z
1/2-x,1/2+y,1/2+z
1/2+x,1/2-y,1/2+z
loop_
_atom_site_type_symbol
_atom_site_label
_atom_site_fract_x
_atom_site_fract_y
_atom_site_fract_z
Si Si1 0.395474 0.943009 0.683747
Si Si2 0.429782 0.825587 0.686107
Si Si3 0.198758 0.710544 0.679679
Si Si4 0.500000 0.439388 0.687850
Si Si5 0.262005 0.897225 0.678565
Si Si6 0.863695 0.936604 0.822134
O O1 0.408851 0.943843 0.500000
O O2 0.422097 0.886855 0.739617
O O3 0.319842 0.937396 0.702621
O O4 0.416484 0.000000 0.746308
O O5 0.425369 0.826326 0.500000
O O6 0.500000 0.807328 0.729117
O O7 0.371444 0.791458 0.747470
O O8 0.193192 0.720819 0.500000
O O9 0.250000 0.750000 0.750000
O O10 0.225098 0.652453 0.714369
O O11 0.500000 0.500000 0.741993
O O12 0.500000 0.440767 0.500000
O O13 0.567663 0.415933 0.731623
O O14 0.265829 0.880405 0.500000
O O15 0.194379 0.920343 0.717960
O O16 0.867752 0.000000 0.823836
O O17 0.852959 0.920019 0.000000
#
# Coordination Sequence:
#
# PCOD9519085 Si02
#       6
#    16  16  16   8  16  16
#     4   8  14  25  43  71 107 144 179 211 244 287
#     4   9  18  33  54  82 115 148 181 217 260 314
#     4  11  22  38  60  81 102 131 172 222 275 327
#     4   7  12  24  41  61  89 129 171 205 243 299
#     4  10  19  31  48  73 103 134 171 216 265 315
#     4   9  16  27  45  69  98 134 174 213 255 307
#
# _framework density 18.802385999999998
#
# number of rings (size 3 to 8) (size 9 to 14) (size 15 to 20)
#    0.000    2.818    0.000    4.909    0.000    1.818 
#    0.000    2.273    2.000    6.545    0.000    5.091 
#    0.000    0.000    0.000    0.000    0.000    0.000 
#
# Total GULP energy -245030.967774 kJ/mol
# GULP energy per Si atom -5568.885631 kJ/mol
# Density = 1.875959 g / cm^3
# Si number density = 18.802386 Si / 1000 Ang^3
#
#
#
# Elastic Constant Matrix: (Units=GPa)
#
#
# Indices 1 2 3 4 5 6 
#
# 1 154.8306 24.8521 36.9182 0.0000 0.0000 0.0000
# 2 24.8521 46.5158 15.5241 0.0000 0.0000 0.0000
# 3 36.9182 15.5241 39.7957 0.0000 0.0000 0.0000
# 4 0.0000 0.0000 0.0000 17.4705 0.0000 0.0000
# 5 0.0000 0.0000 0.0000 0.0000 25.6722 0.0000
# 6 0.0000 0.0000 0.0000 0.0000 0.0000 8.6797
#
#
#
# Elastic Compliance Matrix: (Units=1/GPa)
#
#
# Indices 1 2 3 4 5 6 
#
# 1 0.008483 -0.002191 -0.007015 0.000000 0.000000 0.000000
# 2 -0.002191 0.025282 -0.007830 0.000000 0.000000 0.000000
# 3 -0.007015 -0.007830 0.034690 0.000000 0.000000 0.000000
# 4 0.000000 0.000000 0.000000 0.057239 0.000000 0.000000
# 5 0.000000 0.000000 0.000000 0.000000 0.038953 0.000000
# 6 0.000000 0.000000 0.000000 0.000000 0.000000 0.115211
#
#
# Mechanical properties :
#
#
# Convention : Reuss Voigt Hill
#
# Bulk Modulus (GPa) = 29.08343 43.97011 36.52677
# Shear Modulus (GPa) = 15.36613 21.28764 18.32689
#
# Velocity S-wave (km/s) = 2.86185 3.36844 3.12542
# Velocity P-wave (km/s) = 5.14021 6.21004 5.70028
#
# Compressibility (1/GPa) = 0.03438384
#
# Stress axis : x y z
#
# Youngs Moduli (GPa) = 117.88255 39.55419 28.82654
#
# Poissons Ratio (x) = 0.08667 0.20221
# Poissons Ratio (y) = 0.25829 0.22570
# Poissons Ratio (z) = 0.82693 0.30969
#
# Static dielectric constant tensor:
#      x y z
#    x 1.688860 0.000000 0.000000 
#    y 0.000000 1.659300 0.000000 
#    z 0.000000 0.000000 1.658110 
# 
# From -- ./inp_files/10439.got.cif
#   From: 2010.05.17/outbox.cif.g08.bks.cpg/sg71_6_cif.got.tgz:10439.got - 2010.06.03 16:22:01.
