data_PCOD9519541
_publ_section_title
;
Structure prediction by ZEFSAII (Michael W. Deem and Ramdas Pophale) SiO2 
 PCOD9519541
Probable space group: I M M M
;
_chemical_formula_sum "Si O2"
_cell_formula_units_Z 80
_cell_length_a 13.844131
_cell_length_b 28.748457
_cell_length_c 10.747571
_cell_angle_alpha 90.000000
_cell_angle_beta 90.000000
_cell_angle_gamma 90.000000
_cell_volume 4277.505365
_symmetry_space_group_name_H-M "I M M M"
_symmetry_group_IT_number 71
_symmetry_cell_setting 'orthorhombic'
loop_
_space_group_symop_operation_xyz
x,y,z
-x,-y,z
x,-y,-z
-x,y,-z
-x,-y,-z
x,y,-z
-x,y,z
x,-y,z
1/2+x,1/2+y,1/2+z
1/2-x,1/2-y,1/2+z
1/2+x,1/2-y,1/2-z
1/2-x,1/2+y,1/2-z
1/2-x,1/2-y,1/2-z
1/2+x,1/2+y,1/2-z
1/2-x,1/2+y,1/2+z
1/2+x,1/2-y,1/2+z
loop_
_atom_site_type_symbol
_atom_site_label
_atom_site_fract_x
_atom_site_fract_y
_atom_site_fract_z
Si Si1 0.610744 0.210916 0.227624
Si Si2 0.606747 0.404769 0.649857
Si Si3 0.696841 0.946867 0.146036
Si Si4 0.321992 0.696240 0.642001
Si Si5 0.613018 0.116426 0.636309
O O1 0.500000 0.207422 0.178302
O O2 0.630330 0.262193 0.280860
O O3 0.705280 0.200498 0.144562
O O4 0.620084 0.171308 0.333759
O O5 0.600344 0.401841 0.500000
O O6 0.500000 0.414289 0.699202
O O7 0.688761 0.442639 0.672184
O O8 0.645789 0.354223 0.691301
O O9 0.651095 0.912400 0.246112
O O10 0.663818 0.000000 0.160533
O O11 0.680770 0.933279 0.000000
O O12 0.355162 0.700411 0.500000
O O13 0.656870 0.106096 0.500000
O O14 0.500000 0.105487 0.629627
#
# Coordination Sequence:
#
# PCOD9519541 Si02
#       5
#    16  16  16  16  16
#     4  10  20  33  52  79 110 144 180 219 265 320
#     4   9  17  31  53  80 108 138 174 219 272 326
#     4  10  21  37  56  81 111 141 181 234 284 325
#     4  10  19  32  52  79 110 142 178 221 267 319
#     4  10  21  37  57  81 111 147 184 222 270 330
#
# _framework density 18.702489
#
# number of rings (size 3 to 8) (size 9 to 14) (size 15 to 20)
#    0.000    2.200    2.000    1.200    0.000    4.000 
#    0.000    6.000    0.000    0.600    0.000    1.400 
#    0.000    0.000    0.000    0.000    0.000    0.000 
#
# Total GULP energy -222710.307584 kJ/mol
# GULP energy per Si atom -5567.757690 kJ/mol
# Density = 1.865992 g / cm^3
# Si number density = 18.702489 Si / 1000 Ang^3
#
#
#
# Elastic Constant Matrix: (Units=GPa)
#
#
# Indices 1 2 3 4 5 6 
#
# 1 68.4018 2.9090 9.8376 0.0001 0.0000 0.0000
# 2 2.9090 68.4350 28.6085 0.0001 0.0000 0.0000
# 3 9.8376 28.6085 61.0707 0.0002 -0.0001 -0.0001
# 4 0.0001 0.0001 0.0002 12.1808 0.0000 0.0000
# 5 0.0000 0.0000 -0.0001 0.0000 6.7273 0.0000
# 6 0.0000 0.0000 -0.0001 0.0000 0.0000 9.5788
#
#
#
# Elastic Compliance Matrix: (Units=1/GPa)
#
#
# Indices 1 2 3 4 5 6 
#
# 1 0.014978 0.000463 -0.002629 0.000000 0.000000 0.000000
# 2 0.000463 0.018185 -0.008593 0.000000 0.000000 0.000000
# 3 -0.002629 -0.008593 0.020824 0.000000 0.000000 0.000000
# 4 0.000000 0.000000 0.000000 0.082097 0.000000 0.000000
# 5 0.000000 0.000000 0.000000 0.000000 0.148648 0.000000
# 6 0.000000 0.000000 0.000000 0.000000 0.000000 0.104398
#
#
# Mechanical properties :
#
#
# Convention : Reuss Voigt Hill
#
# Bulk Modulus (GPa) = 30.80119 31.17973 30.99046
# Shear Modulus (GPa) = 11.86321 16.13420 13.99870
#
# Velocity S-wave (km/s) = 2.52129 2.94032 2.73883
# Velocity P-wave (km/s) = 4.99806 5.31366 5.15827
#
# Compressibility (1/GPa) = 0.03246628
#
# Stress axis : x y z
#
# Youngs Moduli (GPa) = 66.76459 54.99013 48.02263
#
# Poissons Ratio (x) = -0.02543 0.12627
# Poissons Ratio (y) = -0.03088 0.41267
# Poissons Ratio (z) = 0.17555 0.47255
#
# Static dielectric constant tensor:
#      x y z
#    x 1.689890 0.000000 0.000000 
#    y 0.000000 1.634170 0.000000 
#    z 0.000000 0.000000 1.645870 
# 
# From -- ./inp_files/20115.got.cif
#   From: 2010.05.17/outbox.cif.g08.bks.cpg/sg71_11_cif.got.tgz:20115.got - 2010.06.03 16:22:01.
