data_PCOD9519963
_publ_section_title
;
Structure prediction by ZEFSAII (Michael W. Deem and Ramdas Pophale) SiO2 
 PCOD9519963
Probable space group: I M M M
;
_chemical_formula_sum "Si O2"
_cell_formula_units_Z 88
_cell_length_a 23.093857
_cell_length_b 11.477029
_cell_length_c 18.323626
_cell_angle_alpha 90.000000
_cell_angle_beta 90.000000
_cell_angle_gamma 90.000000
_cell_volume 4856.656302
_symmetry_space_group_name_H-M "I M M M"
_symmetry_group_IT_number 71
_symmetry_cell_setting 'orthorhombic'
loop_
_space_group_symop_operation_xyz
x,y,z
-x,-y,z
x,-y,-z
-x,y,-z
-x,-y,-z
x,y,-z
-x,y,z
x,-y,z
1/2+x,1/2+y,1/2+z
1/2-x,1/2-y,1/2+z
1/2+x,1/2-y,1/2-z
1/2-x,1/2+y,1/2-z
1/2-x,1/2-y,1/2-z
1/2+x,1/2+y,1/2-z
1/2-x,1/2+y,1/2+z
1/2+x,1/2-y,1/2+z
loop_
_atom_site_type_symbol
_atom_site_label
_atom_site_fract_x
_atom_site_fract_y
_atom_site_fract_z
Si Si1 0.362989 0.137311 0.000000
Si Si2 0.566688 0.139536 0.294126
Si Si3 0.319574 0.740782 0.651907
Si Si4 0.226929 0.141717 0.000000
Si Si5 0.711355 0.370999 0.202576
Si Si6 0.568351 0.500000 0.916953
Si Si7 0.395482 0.253090 0.144909
O O1 0.295314 0.175411 0.000000
O O2 0.395916 0.182051 0.929069
O O3 0.361624 0.000000 0.000000
O O4 0.500000 0.158312 0.317710
O O5 0.615216 0.211149 0.339254
O O6 0.573715 0.188929 0.211677
O O7 0.577914 0.000000 0.295681
O O8 0.302792 0.695285 0.572237
O O9 0.303676 0.641773 0.711890
O O10 0.276590 0.843154 0.679770
O O11 0.222723 0.000000 0.000000
O O12 0.696307 0.500000 0.177153
O O13 0.671446 0.272342 0.166949
O O14 0.500000 0.500000 0.925572
O O15 0.582994 0.382777 0.873161
O O16 0.594406 0.500000 0.000000
#
# Coordination Sequence:
#
# PCOD9519963 Si02
#       7
#     8  16  16   8  16   8  16
#     4  11  22  35  55  87 122 157 194 237 289 352
#     4  10  22  41  62  83 113 154 200 249 292 340
#     4  10  21  36  58  85 115 150 193 235 294 353
#     4  11  22  38  59  87 123 153 184 236 305 363
#     4  10  19  33  55  84 114 147 187 240 290 339
#     4  11  22  34  52  78 120 167 200 236 282 338
#     4  11  20  36  57  84 117 156 194 240 287 347
#
# _framework density 18.119463
#
# number of rings (size 3 to 8) (size 9 to 14) (size 15 to 20)
#    0.000    1.545    3.636    2.182    0.000    0.000 
#    0.000    3.182    0.000    3.818    0.000    0.000 
#    0.000    0.000    0.000    0.000    0.000    0.000 
#
# Total GULP energy -245311.346082 kJ/mol
# GULP energy per Si atom -5575.257865 kJ/mol
# Density = 1.807822 g / cm^3
# Si number density = 18.119463 Si / 1000 Ang^3
#
#
#
# Elastic Constant Matrix: (Units=GPa)
#
#
# Indices 1 2 3 4 5 6 
#
# 1 96.5725 26.9059 11.5790 0.0000 0.0000 0.0000
# 2 26.9059 72.7429 19.2738 0.0000 0.0000 0.0000
# 3 11.5790 19.2738 75.5297 0.0000 0.0000 0.0000
# 4 0.0000 0.0000 0.0000 17.5789 0.0000 0.0000
# 5 0.0000 0.0000 0.0000 0.0000 21.3036 0.0000
# 6 0.0000 0.0000 0.0000 0.0000 0.0000 5.5843
#
#
#
# Elastic Compliance Matrix: (Units=1/GPa)
#
#
# Indices 1 2 3 4 5 6 
#
# 1 0.011582 -0.004090 -0.000732 0.000000 0.000000 0.000000
# 2 -0.004090 0.016188 -0.003504 0.000000 0.000000 0.000000
# 3 -0.000732 -0.003504 0.014246 0.000000 0.000000 0.000000
# 4 0.000000 0.000000 0.000000 0.056886 0.000000 0.000000
# 5 0.000000 0.000000 0.000000 0.000000 0.046941 0.000000
# 6 0.000000 0.000000 0.000000 0.000000 0.000000 0.179072
#
#
# Mechanical properties :
#
#
# Convention : Reuss Voigt Hill
#
# Bulk Modulus (GPa) = 39.42461 40.04027 39.73244
# Shear Modulus (GPa) = 14.28480 21.36579 17.82530
#
# Velocity S-wave (km/s) = 2.81083 3.43762 3.13991
# Velocity P-wave (km/s) = 5.68681 6.15648 5.92630
#
# Compressibility (1/GPa) = 0.02536487
#
# Stress axis : x y z
#
# Youngs Moduli (GPa) = 86.33948 61.77316 70.19432
#
# Poissons Ratio (x) = 0.25266 0.05137
# Poissons Ratio (y) = 0.35313 0.24596
# Poissons Ratio (z) = 0.06319 0.21645
#
# Static dielectric constant tensor:
#      x y z
#    x 1.652390 0.000000 0.000000 
#    y 0.000000 1.604060 0.000000 
#    z 0.000000 0.000000 1.618530 
# 
# From -- ./inp_files/47142.got.cif
#   From: 2010.05.17/outbox.cif.g08.bks.cpg/sg71_24_cif.got.tgz:47142.got - 2010.06.03 16:22:01.
