data_PCOD9519198
_publ_section_title
;
Structure prediction by ZEFSAII (Michael W. Deem and Ramdas Pophale) SiO2 
 PCOD9519198
Probable space group: I M M M
;
_chemical_formula_sum "Si O2"
_cell_formula_units_Z 72
_cell_length_a 31.002203
_cell_length_b 8.949705
_cell_length_c 13.178035
_cell_angle_alpha 90.000000
_cell_angle_beta 90.000000
_cell_angle_gamma 90.000000
_cell_volume 3656.385118
_symmetry_space_group_name_H-M "I M M M"
_symmetry_group_IT_number 71
_symmetry_cell_setting 'orthorhombic'
loop_
_space_group_symop_operation_xyz
x,y,z
-x,-y,z
x,-y,-z
-x,y,-z
-x,-y,-z
x,y,-z
-x,y,z
x,-y,z
1/2+x,1/2+y,1/2+z
1/2-x,1/2-y,1/2+z
1/2+x,1/2-y,1/2-z
1/2-x,1/2+y,1/2-z
1/2-x,1/2-y,1/2-z
1/2+x,1/2+y,1/2-z
1/2-x,1/2+y,1/2+z
1/2+x,1/2-y,1/2+z
loop_
_atom_site_type_symbol
_atom_site_label
_atom_site_fract_x
_atom_site_fract_y
_atom_site_fract_z
Si Si1 0.270964 0.828406 0.376738
Si Si2 0.100091 0.824130 0.686703
Si Si3 0.129439 0.679790 0.883013
Si Si4 0.814955 0.332568 0.621551
Si Si5 0.551592 0.826895 0.000000
O O1 0.269681 0.830038 0.500000
O O2 0.320463 0.784896 0.354540
O O3 0.232389 0.719427 0.344885
O O4 0.262939 0.000000 0.345138
O O5 0.098694 0.752738 0.799118
O O6 0.148396 0.784365 0.649922
O O7 0.069818 0.750181 0.601531
O O8 0.092922 0.000000 0.690543
O O9 0.125690 0.500000 0.880552
O O10 0.122162 0.727468 0.000000
O O11 0.814200 0.339231 0.500000
O O12 0.825893 0.500000 0.658424
O O13 0.500000 0.821129 0.000000
O O14 0.566030 0.000000 0.000000
#
# Coordination Sequence:
#
# PCOD9519198 Si02
#       5
#    16  16  16  16   8
#     4   8  15  29  49  74 108 152 203 256 301 340
#     4  12  24  37  60  90 121 156 192 241 300 361
#     4   9  19  37  59  83 117 163 210 253 293 343
#     4  10  19  31  50  76 112 156 203 253 299 352
#     4  11  25  47  73  97 121 149 187 239 301 371
#
# _framework density 19.691579000000001
#
# number of rings (size 3 to 8) (size 9 to 14) (size 15 to 20)
#    0.000    2.111    1.111    4.333    0.000    4.000 
#    0.000    2.222    0.000    0.667    0.000    4.667 
#    0.000    0.000    0.000    0.000    0.000    0.000 
#
# Total GULP energy -201116.907159 kJ/mol
# GULP energy per Si atom -5586.580754 kJ/mol
# Density = 1.964676 g / cm^3
# Si number density = 19.691579 Si / 1000 Ang^3
#
#
#
# Elastic Constant Matrix: (Units=GPa)
#
#
# Indices 1 2 3 4 5 6 
#
# 1 51.4642 34.3972 43.7335 0.0000 0.0000 0.0000
# 2 34.3972 93.3885 48.0741 0.0000 0.0000 0.0000
# 3 43.7335 48.0741 132.6306 0.0000 0.0000 0.0000
# 4 0.0000 0.0000 0.0000 26.8302 0.0000 0.0000
# 5 0.0000 0.0000 0.0000 0.0000 18.3546 0.0000
# 6 0.0000 0.0000 0.0000 0.0000 0.0000 20.0918
#
#
#
# Elastic Compliance Matrix: (Units=1/GPa)
#
#
# Indices 1 2 3 4 5 6 
#
# 1 0.030754 -0.007508 -0.007419 0.000000 0.000000 0.000000
# 2 -0.007508 0.014997 -0.002960 0.000000 0.000000 0.000000
# 3 -0.007419 -0.002960 0.011059 0.000000 0.000000 0.000000
# 4 0.000000 0.000000 0.000000 0.037271 0.000000 0.000000
# 5 0.000000 0.000000 0.000000 0.000000 0.054482 0.000000
# 6 0.000000 0.000000 0.000000 0.000000 0.000000 0.049772
#
#
# Mechanical properties :
#
#
# Convention : Reuss Voigt Hill
#
# Bulk Modulus (GPa) = 47.53989 58.87698 53.20844
# Shear Modulus (GPa) = 20.73630 23.14055 21.93842
#
# Velocity S-wave (km/s) = 3.24860 3.43176 3.34144
# Velocity P-wave (km/s) = 6.18594 6.75775 6.47816
#
# Compressibility (1/GPa) = 0.02103497
#
# Stress axis : x y z
#
# Youngs Moduli (GPa) = 32.51599 66.67892 90.42251
#
# Poissons Ratio (x) = 0.50063 0.67088
# Poissons Ratio (y) = 0.24413 0.26767
# Poissons Ratio (z) = 0.24125 0.19739
#
# Static dielectric constant tensor:
#      x y z
#    x 1.650680 0.000000 0.000000 
#    y 0.000000 1.661980 0.000000 
#    z 0.000000 0.000000 1.789250 
# 
# From -- ./inp_files/16380.got.cif
#   From: 2010.05.17/outbox.cif.g08.bks.cpg/sg71_9_cif.got.tgz:16380.got - 2010.06.03 16:22:01.
