data_PCOD9519485
_publ_section_title
;
Structure prediction by ZEFSAII (Michael W. Deem and Ramdas Pophale) SiO2 
 PCOD9519485
Probable space group: I M M M
;
_chemical_formula_sum "Si O2"
_cell_formula_units_Z 112
_cell_length_a 32.718513
_cell_length_b 14.759616
_cell_length_c 13.555456
_cell_angle_alpha 90.000000
_cell_angle_beta 90.000000
_cell_angle_gamma 90.000000
_cell_volume 6546.101694
_symmetry_space_group_name_H-M "I M M M"
_symmetry_group_IT_number 71
_symmetry_cell_setting 'orthorhombic'
loop_
_space_group_symop_operation_xyz
x,y,z
-x,-y,z
x,-y,-z
-x,y,-z
-x,-y,-z
x,y,-z
-x,y,z
x,-y,z
1/2+x,1/2+y,1/2+z
1/2-x,1/2-y,1/2+z
1/2+x,1/2-y,1/2-z
1/2-x,1/2+y,1/2-z
1/2-x,1/2-y,1/2-z
1/2+x,1/2+y,1/2-z
1/2-x,1/2+y,1/2+z
1/2+x,1/2-y,1/2+z
loop_
_atom_site_type_symbol
_atom_site_label
_atom_site_fract_x
_atom_site_fract_y
_atom_site_fract_z
Si Si1 0.547479 0.252499 0.383325
Si Si2 0.192580 0.212259 0.782605
Si Si3 0.343727 0.814447 0.886120
Si Si4 0.404732 0.103788 0.270874
Si Si5 0.242188 0.604061 0.610957
Si Si6 0.178895 0.400661 0.116825
Si Si7 0.381931 0.604760 0.618147
O O1 0.553290 0.230234 0.500000
O O2 0.500000 0.275397 0.369336
O O3 0.560745 0.168408 0.315236
O O4 0.577661 0.336115 0.360118
O O5 0.177121 0.230336 0.671591
O O6 0.233878 0.159931 0.807114
O O7 0.195935 0.311217 0.832494
O O8 0.156492 0.155920 0.834968
O O9 0.381909 0.851340 0.823326
O O10 0.306681 0.887048 0.881791
O O11 0.353354 0.796689 0.000000
O O12 0.368818 0.101284 0.353217
O O13 0.417094 0.000000 0.250890
O O14 0.253119 0.638028 0.500000
O O15 0.254481 0.500000 0.616985
O O16 0.194894 0.500000 0.150097
O O17 0.183804 0.394738 0.000000
O O18 0.376661 0.605139 0.500000
O O19 0.384834 0.500000 0.650130
#
# Coordination Sequence:
#
# PCOD9519485 Si02
#       7
#    16  16  16  16  16  16  16
#     4  10  20  34  53  82 118 146 169 207 263 327
#     4  11  19  32  52  77 105 139 179 222 265 314
#     4  10  21  36  53  74 104 142 186 233 270 305
#     4  10  19  32  52  75 101 140 181 215 257 313
#     4  10  20  33  52  80 110 138 174 222 274 324
#     4   9  16  26  44  70 100 133 169 208 252 309
#     4  10  19  32  53  81 111 142 175 211 258 318
#
# _framework density 17.109418999999999
#
# number of rings (size 3 to 8) (size 9 to 14) (size 15 to 20)
#    0.000    2.000    2.857    3.000    0.000    4.000 
#    0.000    2.143    0.000    2.143    0.000    3.000 
#    0.000    1.143    0.000    0.000    0.000    0.000 
#
# Total GULP energy -312297.751323 kJ/mol
# GULP energy per Si atom -5576.745559 kJ/mol
# Density = 1.707048 g / cm^3
# Si number density = 17.109419 Si / 1000 Ang^3
#
#
#
# Elastic Constant Matrix: (Units=GPa)
#
#
# Indices 1 2 3 4 5 6 
#
# 1 70.6987 30.5680 28.3089 0.0000 0.0000 0.0000
# 2 30.5680 87.2336 38.4246 0.0000 0.0000 0.0000
# 3 28.3089 38.4246 80.0521 0.0000 0.0000 0.0000
# 4 0.0000 0.0000 0.0000 13.0053 0.0000 0.0000
# 5 0.0000 0.0000 0.0000 0.0000 22.1560 0.0000
# 6 0.0000 0.0000 0.0000 0.0000 0.0000 11.8179
#
#
#
# Elastic Compliance Matrix: (Units=1/GPa)
#
#
# Indices 1 2 3 4 5 6 
#
# 1 0.017700 -0.004369 -0.004162 0.000000 0.000000 0.000000
# 2 -0.004369 0.015615 -0.005950 0.000000 0.000000 0.000000
# 3 -0.004162 -0.005950 0.016820 0.000000 0.000000 0.000000
# 4 0.000000 0.000000 0.000000 0.076892 0.000000 0.000000
# 5 0.000000 0.000000 0.000000 0.000000 0.045134 0.000000
# 6 0.000000 0.000000 0.000000 0.000000 0.000000 0.084617
#
#
# Mechanical properties :
#
#
# Convention : Reuss Voigt Hill
#
# Bulk Modulus (GPa) = 47.23136 48.06526 47.64831
# Shear Modulus (GPa) = 17.07651 18.77470 17.92561
#
# Velocity S-wave (km/s) = 3.16266 3.31619 3.24034
# Velocity P-wave (km/s) = 6.40328 6.54345 6.47374
#
# Compressibility (1/GPa) = 0.02117237
#
# Stress axis : x y z
#
# Youngs Moduli (GPa) = 56.49651 64.03923 59.45347
#
# Poissons Ratio (x) = 0.27979 0.24746
# Poissons Ratio (y) = 0.24684 0.35377
# Poissons Ratio (z) = 0.23515 0.38105
#
# Static dielectric constant tensor:
#      x y z
#    x 1.570740 0.000000 0.000000 
#    y 0.000000 1.608670 0.000000 
#    z 0.000000 0.000000 1.602120 
# 
# From -- ./inp_files/40350.got.cif
#   From: 2010.05.17/outbox.cif.g08.bks.cpg/sg71_21_cif.got.tgz:40350.got - 2010.06.03 16:22:01.
