data_PCOD9519901
_publ_section_title
;
Structure prediction by ZEFSAII (Michael W. Deem and Ramdas Pophale) SiO2 
 PCOD9519901
Probable space group: I M M M
;
_chemical_formula_sum "Si O2"
_cell_formula_units_Z 96
_cell_length_a 21.134969
_cell_length_b 26.983527
_cell_length_c 8.826205
_cell_angle_alpha 90.000000
_cell_angle_beta 90.000000
_cell_angle_gamma 90.000000
_cell_volume 5033.549465
_symmetry_space_group_name_H-M "I M M M"
_symmetry_group_IT_number 71
_symmetry_cell_setting 'orthorhombic'
loop_
_space_group_symop_operation_xyz
x,y,z
-x,-y,z
x,-y,-z
-x,y,-z
-x,-y,-z
x,y,-z
-x,y,z
x,-y,z
1/2+x,1/2+y,1/2+z
1/2-x,1/2-y,1/2+z
1/2+x,1/2-y,1/2-z
1/2-x,1/2+y,1/2-z
1/2-x,1/2-y,1/2-z
1/2+x,1/2+y,1/2-z
1/2-x,1/2+y,1/2+z
1/2+x,1/2-y,1/2+z
loop_
_atom_site_type_symbol
_atom_site_label
_atom_site_fract_x
_atom_site_fract_y
_atom_site_fract_z
Si Si1 0.408030 0.216000 0.672176
Si Si2 0.430976 0.885951 0.819811
Si Si3 0.190110 0.558369 0.823651
Si Si4 0.572422 0.669273 0.684226
Si Si5 0.738472 0.801348 0.329610
Si Si6 0.694279 0.390287 0.678437
O O1 0.433742 0.215514 0.500000
O O2 0.433934 0.172161 0.775501
O O3 0.412950 0.273156 0.728565
O O4 0.336147 0.198781 0.657692
O O5 0.500000 0.907386 0.771231
O O6 0.368830 0.912036 0.749755
O O7 0.425902 0.890603 0.000000
O O8 0.177189 0.500000 0.810651
O O9 0.260169 0.569101 0.755331
O O10 0.192893 0.573082 0.000000
O O11 0.576015 0.669475 0.500000
O O12 0.500000 0.657993 0.728135
O O13 0.624549 0.628332 0.733700
O O14 0.765720 0.806204 0.500000
O O15 0.750000 0.750000 0.250000
O O16 0.764562 0.841853 0.215894
O O17 0.689983 0.400621 0.500000
#
# Coordination Sequence:
#
# PCOD9519901 Si02
#       6
#    16  16  16  16  16  16
#     4  10  19  33  54  80 115 159 200 230 267 323
#     4  11  24  39  57  85 120 154 190 234 282 333
#     4  11  25  44  64  85 108 140 188 241 293 352
#     4   9  18  33  54  83 118 154 191 230 273 328
#     4  11  20  31  51  81 114 151 195 236 280 329
#     4  11  21  36  59  85 113 147 189 238 293 345
#
# _framework density 19.072028
#
# number of rings (size 3 to 8) (size 9 to 14) (size 15 to 20)
#    0.000    1.500    3.333    2.500    0.000    4.333 
#    0.000    1.667    0.000    3.500    0.000    3.500 
#    0.000    0.000    0.000    0.000    0.000    0.000 
#
# Total GULP energy -267274.113787 kJ/mol
# GULP energy per Si atom -5568.210704 kJ/mol
# Density = 1.902862 g / cm^3
# Si number density = 19.072028 Si / 1000 Ang^3
#
#
#
# Elastic Constant Matrix: (Units=GPa)
#
#
# Indices 1 2 3 4 5 6 
#
# 1 153.2467 33.1924 35.3797 0.0000 0.0000 0.0000
# 2 33.1924 56.6011 25.8186 0.0000 0.0000 0.0000
# 3 35.3797 25.8186 50.9510 0.0000 0.0000 0.0000
# 4 0.0000 0.0000 0.0000 19.0675 0.0000 0.0000
# 5 0.0000 0.0000 0.0000 0.0000 -19.5665 0.0000
# 6 0.0000 0.0000 0.0000 0.0000 0.0000 8.5623
#
#
#
# Elastic Compliance Matrix: (Units=1/GPa)
#
#
# Indices 1 2 3 4 5 6 
#
# 1 0.008109 -0.002844 -0.004189 0.000000 0.000000 0.000000
# 2 -0.002844 0.023977 -0.010175 0.000000 0.000000 0.000000
# 3 -0.004189 -0.010175 0.027692 0.000000 0.000000 0.000000
# 4 0.000000 0.000000 0.000000 0.052445 0.000000 0.000000
# 5 0.000000 0.000000 0.000000 0.000000 -0.051108 0.000000
# 6 0.000000 0.000000 0.000000 0.000000 0.000000 0.116791
#
#
# Mechanical properties :
#
#
# Convention : Reuss Voigt Hill
#
# Bulk Modulus (GPa) = 39.43168 49.95336 44.69252
# Shear Modulus (GPa) = 22.64743 12.70653 17.67698
#
# Velocity S-wave (km/s) = 3.44970 2.58396 3.04773
# Velocity P-wave (km/s) = 6.04874 5.92885 5.98910
#
# Compressibility (1/GPa) = 0.02536032
#
# Stress axis : x y z
#
# Youngs Moduli (GPa) = 123.32546 41.70723 36.11209
#
# Poissons Ratio (x) = 0.11862 0.15128
# Poissons Ratio (y) = 0.35076 0.36743
# Poissons Ratio (z) = 0.51664 0.42436
#
# Static dielectric constant tensor:
#      x y z
#    x 1.731310 0.000000 0.000000 
#    y 0.000000 1.622990 0.000000 
#    z 0.000000 0.000000 1.676450 
# 
# From -- ./inp_files/10903.got.cif
#   From: 2010.05.17/outbox.cif.g08.bks.cpg/sg71_6_cif.got.tgz:10903.got - 2010.06.03 16:22:01.
