data_PCOD9519622
_publ_section_title
;
Structure prediction by ZEFSAII (Michael W. Deem and Ramdas Pophale) SiO2 
 PCOD9519622
Probable space group: I M M M
;
_chemical_formula_sum "Si O2"
_cell_formula_units_Z 88
_cell_length_a 16.899006
_cell_length_b 7.492241
_cell_length_c 29.972828
_cell_angle_alpha 90.000000
_cell_angle_beta 90.000000
_cell_angle_gamma 90.000000
_cell_volume 3794.902483
_symmetry_space_group_name_H-M "I M M M"
_symmetry_group_IT_number 71
_symmetry_cell_setting 'orthorhombic'
loop_
_space_group_symop_operation_xyz
x,y,z
-x,-y,z
x,-y,-z
-x,y,-z
-x,-y,-z
x,y,-z
-x,y,z
x,-y,z
1/2+x,1/2+y,1/2+z
1/2-x,1/2-y,1/2+z
1/2+x,1/2-y,1/2-z
1/2-x,1/2+y,1/2-z
1/2-x,1/2-y,1/2-z
1/2+x,1/2+y,1/2-z
1/2-x,1/2+y,1/2+z
1/2+x,1/2-y,1/2+z
loop_
_atom_site_type_symbol
_atom_site_label
_atom_site_fract_x
_atom_site_fract_y
_atom_site_fract_z
Si Si1 0.826086 0.293883 0.049602
Si Si2 0.167578 0.294313 0.404975
Si Si3 0.091792 0.281668 0.138678
Si Si4 0.836377 0.713222 0.769564
Si Si5 0.000000 0.214175 0.448111
Si Si6 0.087992 0.281501 0.680325
O O1 0.851391 0.500000 0.046246
O O2 0.734487 0.293289 0.065011
O O3 0.874334 0.216500 0.091378
O O4 0.834366 0.214606 0.000000
O O5 0.191523 0.500000 0.401323
O O6 0.153685 0.219834 0.355124
O O7 0.080802 0.283685 0.426598
O O8 0.096349 0.500000 0.137953
O O9 0.142582 0.218672 0.181307
O O10 0.000000 0.234586 0.144550
O O11 0.845603 0.500000 0.771874
O O12 0.750000 0.750000 0.750000
O O13 0.894808 0.776785 0.730475
O O14 0.000000 0.262079 0.500000
O O15 0.000000 0.000000 0.444003
O O16 0.089564 0.500000 0.679075
O O17 0.000000 0.225757 0.666520
#
# Coordination Sequence:
#
# PCOD9519622 Si02
#       6
#    16  16  16  16   8  16
#     4  10  21  36  54  78 110 144 180 231 288 333
#     4  11  21  35  55  79 108 143 186 228 270 331
#     4   9  18  34  57  84 109 141 189 234 274 327
#     4  10  19  32  54  80 108 140 174 217 267 323
#     4  11  23  37  53  75 107 145 185 231 280 323
#     4   9  17  31  51  75 102 134 173 213 257 309
#
# _framework density 23.189001000000001
#
# number of rings (size 3 to 8) (size 9 to 14) (size 15 to 20)
#    0.000    2.091    0.909    3.000    0.000    5.818 
#    0.000    2.727    0.000    3.273    0.000    1.273 
#    0.000    0.000    0.000    0.000    0.000    0.000 
#
# Total GULP energy -245863.658234 kJ/mol
# GULP energy per Si atom -5587.810414 kJ/mol
# Density = 2.313622 g / cm^3
# Si number density = 23.189001 Si / 1000 Ang^3
#
#
#
# Elastic Constant Matrix: (Units=GPa)
#
#
# Indices 1 2 3 4 5 6 
#
# 1 103.5912 -10.1017 72.2345 0.0000 0.0000 0.0000
# 2 -10.1017 66.7792 11.9478 0.0000 0.0000 0.0000
# 3 72.2345 11.9478 233.8150 0.0000 0.0000 0.0000
# 4 0.0000 0.0000 0.0000 1.1399 0.0000 0.0000
# 5 0.0000 0.0000 0.0000 0.0000 32.0887 0.0000
# 6 0.0000 0.0000 0.0000 0.0000 0.0000 4.6520
#
#
#
# Elastic Compliance Matrix: (Units=1/GPa)
#
#
# Indices 1 2 3 4 5 6 
#
# 1 0.012755 0.002659 -0.004076 0.000000 0.000000 0.000000
# 2 0.002659 0.015667 -0.001622 0.000000 0.000000 0.000000
# 3 -0.004076 -0.001622 0.005619 0.000000 0.000000 0.000000
# 4 0.000000 0.000000 0.000000 0.877304 0.000000 0.000000
# 5 0.000000 0.000000 0.000000 0.000000 0.031164 0.000000
# 6 0.000000 0.000000 0.000000 0.000000 0.000000 0.214960
#
#
# Mechanical properties :
#
#
# Convention : Reuss Voigt Hill
#
# Bulk Modulus (GPa) = 35.76263 61.37186 48.56725
# Shear Modulus (GPa) = 4.26305 29.58309 16.92307
#
# Velocity S-wave (km/s) = 1.35734 3.57562 2.70439
# Velocity P-wave (km/s) = 4.23228 6.60077 5.54447
#
# Compressibility (1/GPa) = 0.02796215
#
# Stress axis : x y z
#
# Youngs Moduli (GPa) = 78.40006 63.82792 177.96361
#
# Poissons Ratio (x) = -0.16971 0.72545
# Poissons Ratio (y) = -0.20845 0.28865
# Poissons Ratio (z) = 0.31959 0.10353
#
# Static dielectric constant tensor:
#      x y z
#    x 1.849450 0.000000 0.000000 
#    y 0.000000 1.947520 0.000000 
#    z 0.000000 0.000000 1.885810 
# 
# From -- ./inp_files/70350.got.cif
#   From: 2010.05.17/outbox.cif.g08.bks.cpg/sg71_36_cif.got.tgz:70350.got - 2010.06.03 16:22:01.
