data_PCOD9519513
_publ_section_title
;
Structure prediction by ZEFSAII (Michael W. Deem and Ramdas Pophale) SiO2 
 PCOD9519513
Probable space group: I M M M
;
_chemical_formula_sum "Si O2"
_cell_formula_units_Z 104
_cell_length_a 19.790704
_cell_length_b 12.255534
_cell_length_c 25.580358
_cell_angle_alpha 90.000000
_cell_angle_beta 90.000000
_cell_angle_gamma 90.000000
_cell_volume 6204.404450
_symmetry_space_group_name_H-M "I M M M"
_symmetry_group_IT_number 71
_symmetry_cell_setting 'orthorhombic'
loop_
_space_group_symop_operation_xyz
x,y,z
-x,-y,z
x,-y,-z
-x,y,-z
-x,-y,-z
x,y,-z
-x,y,z
x,-y,z
1/2+x,1/2+y,1/2+z
1/2-x,1/2-y,1/2+z
1/2+x,1/2-y,1/2-z
1/2-x,1/2+y,1/2-z
1/2-x,1/2-y,1/2-z
1/2+x,1/2+y,1/2-z
1/2-x,1/2+y,1/2+z
1/2+x,1/2-y,1/2+z
loop_
_atom_site_type_symbol
_atom_site_label
_atom_site_fract_x
_atom_site_fract_y
_atom_site_fract_z
Si Si1 0.797302 0.131110 0.058498
Si Si2 0.658881 0.790835 0.104553
Si Si3 0.576544 0.126402 0.798670
Si Si4 0.722740 0.627721 0.818953
Si Si5 0.923979 0.869062 0.122617
Si Si6 0.582138 0.866983 0.000000
Si Si7 0.154488 0.224598 0.781456
O O1 0.732765 0.162197 0.092325
O O2 0.868585 0.170822 0.081003
O O3 0.800195 0.000000 0.057207
O O4 0.786271 0.172336 0.000000
O O5 0.620122 0.857033 0.149320
O O6 0.675766 0.675498 0.133928
O O7 0.615367 0.809343 0.051350
O O8 0.500000 0.164007 0.808450
O O9 0.610239 0.192169 0.752166
O O10 0.575630 0.000000 0.785105
O O11 0.738000 0.500000 0.826582
O O12 0.788275 0.705899 0.812052
O O13 0.687160 0.645771 0.762354
O O14 0.892463 0.838394 0.178224
O O15 0.000000 0.826602 0.115866
O O16 0.926861 0.000000 0.118405
O O17 0.500000 0.857125 0.000000
O O18 0.597488 0.000000 0.000000
#
# Coordination Sequence:
#
# PCOD9519513 Si02
#       7
#    16  16  16  16  16   8  16
#     4  10  19  32  52  77 105 136 174 217 264 316
#     4  11  20  34  54  77 108 142 176 220 272 318
#     4  10  20  32  49  76 109 140 170 211 267 324
#     4  10  21  35  53  79 107 139 184 228 269 317
#     4  10  20  33  51  77 108 139 171 211 263 323
#     4  11  22  36  59  89 116 142 178 225 275 328
#     4  10  19  34  53  76 104 142 177 221 266 315
#
# _framework density 16.762286
#
# number of rings (size 3 to 8) (size 9 to 14) (size 15 to 20)
#    0.000    1.769    2.308    3.231    0.000    1.538 
#    0.000    1.923    0.000    9.692    0.000    0.000 
#    0.000    1.231    0.000    0.000    0.000    0.000 
#
# Total GULP energy -289669.943721 kJ/mol
# GULP energy per Si atom -5570.575841 kJ/mol
# Density = 1.672413 g / cm^3
# Si number density = 16.762286 Si / 1000 Ang^3
#
#
#
# Elastic Constant Matrix: (Units=GPa)
#
#
# Indices 1 2 3 4 5 6 
#
# 1 116.7528 13.6407 33.6827 0.0000 0.0000 0.0000
# 2 13.6407 38.0300 18.3034 0.0000 0.0000 0.0000
# 3 33.6827 18.3034 70.2169 0.0000 0.0000 0.0000
# 4 0.0000 0.0000 0.0000 10.2451 0.0000 0.0000
# 5 0.0000 0.0000 0.0000 0.0000 8.2197 0.0000
# 6 0.0000 0.0000 0.0000 0.0000 0.0000 21.5905
#
#
#
# Elastic Compliance Matrix: (Units=1/GPa)
#
#
# Indices 1 2 3 4 5 6 
#
# 1 0.010012 -0.001463 -0.004421 0.000000 0.000000 0.000000
# 2 -0.001463 0.030281 -0.007191 0.000000 0.000000 0.000000
# 3 -0.004421 -0.007191 0.018237 0.000000 0.000000 0.000000
# 4 0.000000 0.000000 0.000000 0.097607 0.000000 0.000000
# 5 0.000000 0.000000 0.000000 0.000000 0.121659 0.000000
# 6 0.000000 0.000000 0.000000 0.000000 0.000000 0.046317
#
#
# Mechanical properties :
#
#
# Convention : Reuss Voigt Hill
#
# Bulk Modulus (GPa) = 30.88509 39.58370 35.23440
# Shear Modulus (GPa) = 13.84824 18.63592 16.24208
#
# Velocity S-wave (km/s) = 2.87741 3.33795 3.11620
# Velocity P-wave (km/s) = 5.43182 6.20660 5.83209
#
# Compressibility (1/GPa) = 0.03237808
#
# Stress axis : x y z
#
# Youngs Moduli (GPa) = 99.88503 33.02405 54.83371
#
# Poissons Ratio (x) = 0.04832 0.24242
# Poissons Ratio (y) = 0.14615 0.39433
# Poissons Ratio (z) = 0.44160 0.23749
#
# Static dielectric constant tensor:
#      x y z
#    x 1.588940 0.000000 0.000000 
#    y 0.000000 1.548370 0.000000 
#    z 0.000000 0.000000 1.575970 
# 
# From -- ./inp_files/48845.got.cif
#   From: 2010.05.17/outbox.cif.g08.bks.cpg/sg71_25_cif.got.tgz:48845.got - 2010.06.03 16:22:01.
