data_PCOD9519964
_publ_section_title
;
Structure prediction by ZEFSAII (Michael W. Deem and Ramdas Pophale) SiO2 
 PCOD9519964
Probable space group: I M M M
;
_chemical_formula_sum "Si O2"
_cell_formula_units_Z 88
_cell_length_a 18.449260
_cell_length_b 29.810596
_cell_length_c 8.609399
_cell_angle_alpha 90.000000
_cell_angle_beta 90.000000
_cell_angle_gamma 90.000000
_cell_volume 4735.026847
_symmetry_space_group_name_H-M "I M M M"
_symmetry_group_IT_number 71
_symmetry_cell_setting 'orthorhombic'
loop_
_space_group_symop_operation_xyz
x,y,z
-x,-y,z
x,-y,-z
-x,y,-z
-x,-y,-z
x,y,-z
-x,y,z
x,-y,z
1/2+x,1/2+y,1/2+z
1/2-x,1/2-y,1/2+z
1/2+x,1/2-y,1/2-z
1/2-x,1/2+y,1/2-z
1/2-x,1/2-y,1/2-z
1/2+x,1/2+y,1/2-z
1/2-x,1/2+y,1/2+z
1/2+x,1/2-y,1/2+z
loop_
_atom_site_type_symbol
_atom_site_label
_atom_site_fract_x
_atom_site_fract_y
_atom_site_fract_z
Si Si1 0.153668 0.295075 0.815583
Si Si2 0.352336 0.402181 0.312757
Si Si3 0.706741 0.051956 0.686086
Si Si4 0.815529 0.197535 0.813121
Si Si5 0.000000 0.948469 0.189649
Si Si6 0.917447 0.616916 0.685574
O O1 0.141222 0.242882 0.772353
O O2 0.237784 0.302516 0.770465
O O3 0.106691 0.332920 0.732832
O O4 0.144319 0.300127 0.000000
O O5 0.348045 0.406373 0.500000
O O6 0.281175 0.425761 0.245052
O O7 0.352846 0.349379 0.276051
O O8 0.426303 0.424950 0.258158
O O9 0.706732 0.052660 0.500000
O O10 0.639816 0.081858 0.744900
O O11 0.701832 0.000000 0.738136
O O12 0.802665 0.199260 0.000000
O O13 0.000000 0.000000 0.236915
O O14 0.000000 0.946841 0.000000
O O15 0.914511 0.613297 0.500000
O O16 0.000000 0.608463 0.737593
#
# Coordination Sequence:
#
# PCOD9519964 Si02
#       6
#    16  16  16  16   8  16
#     4  10  19  33  55  84 115 148 187 232 284 337
#     4  10  19  35  59  85 115 151 194 237 280 337
#     4  11  24  40  60  87 115 145 187 238 294 354
#     4   9  18  32  54  85 115 148 188 231 278 334
#     4   9  18  32  53  83 115 149 191 237 282 327
#     4  11  24  41  60  83 114 152 196 242 289 346
#
# _framework density 18.584900000000001
#
# number of rings (size 3 to 8) (size 9 to 14) (size 15 to 20)
#    0.000    1.909    1.818    2.182    0.000    4.727 
#    1.636    2.273    0.000    1.636    0.000    0.000 
#    0.000    0.000    0.000    0.000    0.000    0.000 
#
# Total GULP energy -245638.180643 kJ/mol
# GULP energy per Si atom -5582.685924 kJ/mol
# Density = 1.854260 g / cm^3
# Si number density = 18.584900 Si / 1000 Ang^3
#
#
#
# Elastic Constant Matrix: (Units=GPa)
#
#
# Indices 1 2 3 4 5 6 
#
# 1 147.2983 100.4673 27.5314 0.0001 -0.0001 0.0000
# 2 100.4673 184.1893 37.6207 0.0001 -0.0001 0.0000
# 3 27.5314 37.6207 22.1060 0.0004 -0.0010 -0.0004
# 4 0.0001 0.0001 0.0004 23.8993 -0.0001 0.0000
# 5 -0.0001 -0.0001 -0.0010 -0.0001 0.9846 0.0001
# 6 0.0000 0.0000 -0.0004 0.0000 0.0001 19.2502
#
#
#
# Elastic Compliance Matrix: (Units=1/GPa)
#
#
# Indices 1 2 3 4 5 6 
#
# 1 0.011225 -0.005008 -0.005457 0.000000 -0.000005 0.000000
# 2 -0.005008 0.010556 -0.011728 0.000000 -0.000011 0.000000
# 3 -0.005457 -0.011728 0.071991 -0.000001 0.000070 0.000001
# 4 0.000000 0.000000 -0.000001 0.041842 0.000004 0.000000
# 5 -0.000005 -0.000011 0.000070 0.000004 1.015653 -0.000007
# 6 0.000000 0.000000 0.000001 0.000000 -0.000007 0.051948
#
#
# Mechanical properties :
#
#
# Convention : Reuss Voigt Hill
#
# Bulk Modulus (GPa) = 20.24815 76.09246 48.17031
# Shear Modulus (GPa) = 3.95550 21.35844 12.65697
#
# Velocity S-wave (km/s) = 1.46047 3.39372 2.61250
# Velocity P-wave (km/s) = 3.70979 7.50923 5.92246
#
# Compressibility (1/GPa) = 0.04938722
#
# Stress axis : x y z
#
# Youngs Moduli (GPa) = 89.08952 94.73024 13.89055
#
# Poissons Ratio (x) = 0.47441 0.07580
# Poissons Ratio (y) = 0.44616 0.16291
# Poissons Ratio (z) = 0.48613 1.11099
#
# Static dielectric constant tensor:
#      x y z
#    x 1.606420 0.000000 0.000000 
#    y 0.000000 1.655000 0.000000 
#    z 0.000000 0.000000 1.629470 
# 
# From -- ./inp_files/8803.got.cif
#   From: 2010.05.17/outbox.cif.g08.bks.cpg/sg71_5_cif.got.tgz:8803.got - 2010.06.03 16:22:01.
