data_PCOD9519139
_publ_section_title
;
Structure prediction by ZEFSAII (Michael W. Deem and Ramdas Pophale) SiO2 
 PCOD9519139
Probable space group: I M M M
;
_chemical_formula_sum "Si O2"
_cell_formula_units_Z 104
_cell_length_a 24.718304
_cell_length_b 11.395266
_cell_length_c 19.828117
_cell_angle_alpha 90.000000
_cell_angle_beta 90.000000
_cell_angle_gamma 90.000000
_cell_volume 5585.018415
_symmetry_space_group_name_H-M "I M M M"
_symmetry_group_IT_number 71
_symmetry_cell_setting 'orthorhombic'
loop_
_space_group_symop_operation_xyz
x,y,z
-x,-y,z
x,-y,-z
-x,y,-z
-x,-y,-z
x,y,-z
-x,y,z
x,-y,z
1/2+x,1/2+y,1/2+z
1/2-x,1/2-y,1/2+z
1/2+x,1/2-y,1/2-z
1/2-x,1/2+y,1/2-z
1/2-x,1/2-y,1/2-z
1/2+x,1/2+y,1/2-z
1/2-x,1/2+y,1/2+z
1/2+x,1/2-y,1/2+z
loop_
_atom_site_type_symbol
_atom_site_label
_atom_site_fract_x
_atom_site_fract_y
_atom_site_fract_z
Si Si1 0.253187 0.857003 0.305096
Si Si2 0.064415 0.500000 0.079741
Si Si3 0.126297 0.701472 0.160168
Si Si4 0.438903 0.768367 0.925076
Si Si5 0.172438 0.860455 0.574020
Si Si6 0.938895 0.364095 0.719236
Si Si7 0.560515 0.359934 0.422893
O O1 0.250000 0.750000 0.250000
O O2 0.312470 0.840897 0.337803
O O3 0.208643 0.827410 0.362098
O O4 0.247893 0.000000 0.285997
O O5 0.090452 0.610595 0.117091
O O6 0.000000 0.500000 0.087924
O O7 0.076618 0.500000 0.000000
O O8 0.104189 0.704495 0.236522
O O9 0.109883 0.820869 0.123622
O O10 0.500000 0.717814 0.920660
O O11 0.389847 0.677933 0.919024
O O12 0.432681 0.851849 0.860873
O O13 0.434835 0.823228 0.000000
O O14 0.191274 0.815062 0.500000
O O15 0.175075 0.000000 0.571578
O O16 0.933438 0.500000 0.737735
O O17 0.000000 0.325552 0.736064
O O18 0.567251 0.317074 0.500000
O O19 0.500000 0.320337 0.399904
O O20 0.558953 0.500000 0.424855
#
# Coordination Sequence:
#
# PCOD9519139 Si02
#       7
#    16   8  16  16  16  16  16
#     4  11  24  42  62  86 117 160 207 255 309 363
#     4  11  22  34  54  88 127 159 192 244 305 366
#     4  12  21  35  56  84 115 155 202 247 300 358
#     4   9  18  33  54  80 105 135 180 231 289 358
#     4   9  19  36  57  80 108 143 183 235 295 350
#     4  10  19  31  49  74 109 146 178 226 287 347
#     4   9  19  36  57  83 120 164 204 246 301 366
#
# _framework density 18.621245999999999
#
# number of rings (size 3 to 8) (size 9 to 14) (size 15 to 20)
#    0.000    1.923    1.538    3.231    0.000    3.692 
#    0.000    3.846    0.000    2.308    0.000    0.000 
#    0.000    0.000    0.000    0.000    0.000    0.000 
#
# Total GULP energy -289533.953398 kJ/mol
# GULP energy per Si atom -5567.960642 kJ/mol
# Density = 1.857886 g / cm^3
# Si number density = 18.621246 Si / 1000 Ang^3
#
#
#
# Elastic Constant Matrix: (Units=GPa)
#
#
# Indices 1 2 3 4 5 6 
#
# 1 92.0473 22.6666 58.6742 0.0000 0.0000 0.0000
# 2 22.6666 48.7718 37.9493 0.0000 0.0000 0.0000
# 3 58.6742 37.9493 113.6865 0.0000 0.0000 0.0000
# 4 0.0000 0.0000 0.0000 30.7194 0.0000 0.0000
# 5 0.0000 0.0000 0.0000 0.0000 28.2541 0.0000
# 6 0.0000 0.0000 0.0000 0.0000 0.0000 24.7612
#
#
#
# Elastic Compliance Matrix: (Units=1/GPa)
#
#
# Indices 1 2 3 4 5 6 
#
# 1 0.016260 -0.001387 -0.007929 0.000000 0.000000 0.000000
# 2 -0.001387 0.027816 -0.008569 0.000000 0.000000 0.000000
# 3 -0.007929 -0.008569 0.015748 0.000000 0.000000 0.000000
# 4 0.000000 0.000000 0.000000 0.032553 0.000000 0.000000
# 5 0.000000 0.000000 0.000000 0.000000 0.035393 0.000000
# 6 0.000000 0.000000 0.000000 0.000000 0.000000 0.040386
#
#
# Mechanical properties :
#
#
# Convention : Reuss Voigt Hill
#
# Bulk Modulus (GPa) = 41.57310 54.78729 48.18020
# Shear Modulus (GPa) = 23.59116 25.76131 24.67623
#
# Velocity S-wave (km/s) = 3.56321 3.72349 3.64423
# Velocity P-wave (km/s) = 6.26919 6.92616 6.60584
#
# Compressibility (1/GPa) = 0.02405401
#
# Stress axis : x y z
#
# Youngs Moduli (GPa) = 61.50231 35.95039 63.49812
#
# Poissons Ratio (x) = 0.04988 0.50345
# Poissons Ratio (y) = 0.08533 0.54412
# Poissons Ratio (z) = 0.48762 0.30806
#
# Static dielectric constant tensor:
#      x y z
#    x 1.673080 0.000000 0.000000 
#    y 0.000000 1.684940 0.000000 
#    z 0.000000 0.000000 1.683300 
# 
# From -- ./inp_files/55786.got.cif
#   From: 2010.05.17/outbox.cif.g08.bks.cpg/sg71_28_cif.got.tgz:55786.got - 2010.06.03 16:22:01.
