data_PCOD9519913
_publ_section_title
;
Structure prediction by ZEFSAII (Michael W. Deem and Ramdas Pophale) SiO2 
 PCOD9519913
Probable space group: I M M M
;
_chemical_formula_sum "Si O2"
_cell_formula_units_Z 82
_cell_length_a 7.541000
_cell_length_b 23.332409
_cell_length_c 22.442643
_cell_angle_alpha 90.000000
_cell_angle_beta 90.000000
_cell_angle_gamma 90.000000
_cell_volume 3948.776219
_symmetry_space_group_name_H-M "I M M M"
_symmetry_group_IT_number 71
_symmetry_cell_setting 'orthorhombic'
loop_
_space_group_symop_operation_xyz
x,y,z
-x,-y,z
x,-y,-z
-x,y,-z
-x,-y,-z
x,y,-z
-x,y,z
x,-y,z
1/2+x,1/2+y,1/2+z
1/2-x,1/2-y,1/2+z
1/2+x,1/2-y,1/2-z
1/2-x,1/2+y,1/2-z
1/2-x,1/2-y,1/2-z
1/2+x,1/2+y,1/2-z
1/2-x,1/2+y,1/2+z
1/2+x,1/2-y,1/2+z
loop_
_atom_site_type_symbol
_atom_site_label
_atom_site_fract_x
_atom_site_fract_y
_atom_site_fract_z
Si Si1 0.787019 0.727389 0.816807
Si Si2 0.196033 0.402317 0.500000
Si Si3 0.707536 0.100448 0.344600
Si Si4 0.785702 0.062686 0.787005
Si Si5 0.784412 0.840515 0.120696
Si Si6 0.000000 0.000000 0.000000
Si Si7 0.717650 0.000000 0.430624
O O1 0.750000 0.750000 0.750000
O O2 0.716491 0.664370 0.833752
O O3 0.725445 0.777203 0.861128
O O4 0.000000 0.724095 0.820523
O O5 0.219093 0.363098 0.558055
O O6 0.346216 0.450121 0.500000
O O7 0.000000 0.427726 0.500000
O O8 0.500000 0.107795 0.359044
O O9 0.722738 0.070471 0.280295
O O10 0.778754 0.056738 0.394477
O O11 0.725594 0.114472 0.828518
O O12 0.000000 0.064201 0.786137
O O13 0.732226 0.000000 0.810315
O O14 0.000000 0.841158 0.120057
O O15 0.500000 0.000000 0.428491
O O16 0.768808 0.000000 0.500000
#
# Coordination Sequence:
#
# PCOD9519913 Si02
#       7
#    16   8  16  16  16   2   8
#     4  10  20  34  57  88 119 159 203 254 323 384
#     4  12  27  45  71 100 127 180 225 266 328 392
#     4  10  19  33  54  84 115 149 201 257 310 376
#     4  10  20  32  55  84 113 155 198 243 316 386
#     4  10  21  40  60  83 127 173 211 265 327 383
#     4  12  26  52  72  90 140 164 218 278 322 390
#     4   9  18  34  54  79 115 154 194 255 315 364
#
# _framework density 20.765927000000001
#
# number of rings (size 3 to 8) (size 9 to 14) (size 15 to 20)
#    0.000    1.854    3.902    0.146    1.366    1.561 
#    1.756    0.000    0.000    1.171    0.000    0.000 
#    0.000    0.000    0.000    0.000    0.000    0.000 
#
# Total GULP energy -228724.532462 kJ/mol
# GULP energy per Si atom -5578.647133 kJ/mol
# Density = 2.071866 g / cm^3
# Si number density = 20.765927 Si / 1000 Ang^3
#
#
#
# Elastic Constant Matrix: (Units=GPa)
#
#
# Indices 1 2 3 4 5 6 
#
# 1 76.4747 27.7746 7.6636 0.0000 0.0000 0.0000
# 2 27.7746 205.6848 81.9536 0.0000 0.0000 0.0000
# 3 7.6636 81.9536 148.4299 0.0000 0.0000 0.0000
# 4 0.0000 0.0000 0.0000 -34.9746 0.0000 0.0000
# 5 0.0000 0.0000 0.0000 0.0000 19.4940 0.0000
# 6 0.0000 0.0000 0.0000 0.0000 0.0000 0.5078
#
#
#
# Elastic Compliance Matrix: (Units=1/GPa)
#
#
# Indices 1 2 3 4 5 6 
#
# 1 0.013770 -0.002021 0.000405 0.000000 0.000000 0.000000
# 2 -0.002021 0.006530 -0.003501 0.000000 0.000000 0.000000
# 3 0.000405 -0.003501 0.008649 0.000000 0.000000 0.000000
# 4 0.000000 0.000000 0.000000 -0.028592 0.000000 0.000000
# 5 0.000000 0.000000 0.000000 0.000000 0.051298 0.000000
# 6 0.000000 0.000000 0.000000 0.000000 0.000000 1.969314
#
#
# Mechanical properties :
#
#
# Convention : Reuss Voigt Hill
#
# Bulk Modulus (GPa) = 53.43373 73.93034 63.68203
# Shear Modulus (GPa) = 2.45406 17.88529 10.16967
#
# Velocity S-wave (km/s) = 1.08827 2.93794 2.21538
# Velocity P-wave (km/s) = 5.23129 6.86933 6.10549
#
# Compressibility (1/GPa) = 0.01871477
#
# Stress axis : x y z
#
# Youngs Moduli (GPa) = 72.62420 153.14964 115.61682
#
# Poissons Ratio (x) = 0.30946 -0.04679
# Poissons Ratio (y) = 0.14675 0.40476
# Poissons Ratio (z) = -0.02939 0.53616
#
# Static dielectric constant tensor:
#      x y z
#    x 1.789090 0.000000 0.000000 
#    y 0.000000 1.778320 0.000000 
#    z 0.000000 0.000000 1.690050 
# 
# From -- ./inp_files/50449.got.cif
#   From: 2010.05.17/outbox.cif.g08.bks.cpg/sg71_26_cif.got.tgz:50449.got - 2010.06.03 16:22:01.
