data_PCOD9519195
_publ_section_title
;
Structure prediction by ZEFSAII (Michael W. Deem and Ramdas Pophale) SiO2 
 PCOD9519195
Probable space group: I M M M
;
_chemical_formula_sum "Si O2"
_cell_formula_units_Z 120
_cell_length_a 24.384863
_cell_length_b 13.171937
_cell_length_c 21.478170
_cell_angle_alpha 90.000000
_cell_angle_beta 90.000000
_cell_angle_gamma 90.000000
_cell_volume 6898.699697
_symmetry_space_group_name_H-M "I M M M"
_symmetry_group_IT_number 71
_symmetry_cell_setting 'orthorhombic'
loop_
_space_group_symop_operation_xyz
x,y,z
-x,-y,z
x,-y,-z
-x,y,-z
-x,-y,-z
x,y,-z
-x,y,z
x,-y,z
1/2+x,1/2+y,1/2+z
1/2-x,1/2-y,1/2+z
1/2+x,1/2-y,1/2-z
1/2-x,1/2+y,1/2-z
1/2-x,1/2-y,1/2-z
1/2+x,1/2+y,1/2-z
1/2-x,1/2+y,1/2+z
1/2+x,1/2-y,1/2+z
loop_
_atom_site_type_symbol
_atom_site_label
_atom_site_fract_x
_atom_site_fract_y
_atom_site_fract_z
Si Si1 0.196517 0.614461 0.639772
Si Si2 0.114662 0.883135 0.629300
Si Si3 0.821791 0.115723 0.824146
Si Si4 0.937522 0.876761 0.500000
Si Si5 0.345349 0.230862 0.426112
Si Si6 0.936472 0.621131 0.154727
Si Si7 0.220079 0.813463 0.572113
Si Si8 0.881630 0.267884 0.732069
O O1 0.184722 0.500000 0.619083
O O2 0.256130 0.615188 0.672226
O O3 0.202331 0.696640 0.584634
O O4 0.152774 0.654203 0.689832
O O5 0.091630 0.845700 0.563243
O O6 0.180593 0.873836 0.619231
O O7 0.092735 0.811038 0.683199
O O8 0.099945 0.000000 0.639602
O O9 0.842880 0.161915 0.889698
O O10 0.842069 0.195746 0.773164
O O11 0.840523 0.000000 0.813033
O O12 0.000000 0.843382 0.500000
O O13 0.936097 0.000000 0.500000
O O14 0.351416 0.242194 0.500000
O O15 0.393909 0.165582 0.395745
O O16 0.285098 0.180626 0.414567
O O17 0.929701 0.500000 0.159594
O O18 0.920677 0.674302 0.220056
O O19 0.000000 0.642499 0.139060
O O20 0.211464 0.843326 0.500000
#
# Coordination Sequence:
#
# PCOD9519195 Si02
#       8
#    16  16  16   8  16  16  16  16
#     4   9  17  28  45  70 101 135 170 207 250 300
#     4  10  19  31  50  76 106 137 168 207 254 302
#     4   9  17  30  48  73 105 136 164 200 250 309
#     4   9  18  32  48  68  97 133 170 204 241 290
#     4   9  19  34  53  78 104 133 169 212 255 309
#     4  10  22  39  56  74  98 130 170 216 263 306
#     4   9  17  30  48  74 108 138 170 205 253 308
#     4  10  19  32  50  72  98 129 170 211 255 298
#
# _framework density 17.394582
#
# number of rings (size 3 to 8) (size 9 to 14) (size 15 to 20)
#    0.000    2.600    0.667    1.200    0.000    3.200 
#    0.000    4.667    0.000    9.600    0.000    3.733 
#    0.000    4.267    0.000    0.000    0.000    0.000 
#
# Total GULP energy -334266.317409 kJ/mol
# GULP energy per Si atom -5571.105290 kJ/mol
# Density = 1.735499 g / cm^3
# Si number density = 17.394582 Si / 1000 Ang^3
#
#
#
# Elastic Constant Matrix: (Units=GPa)
#
#
# Indices 1 2 3 4 5 6 
#
# 1 61.0580 13.8902 16.0815 0.0000 0.0000 0.0000
# 2 13.8902 57.1562 2.4460 0.0000 0.0000 0.0000
# 3 16.0815 2.4460 63.1440 0.0000 0.0000 0.0000
# 4 0.0000 0.0000 0.0000 19.2187 0.0000 0.0000
# 5 0.0000 0.0000 0.0000 0.0000 14.9801 0.0000
# 6 0.0000 0.0000 0.0000 0.0000 0.0000 17.4892
#
#
#
# Elastic Compliance Matrix: (Units=1/GPa)
#
#
# Indices 1 2 3 4 5 6 
#
# 1 0.018561 -0.004315 -0.004560 0.000000 0.000000 0.000000
# 2 -0.004315 0.018528 0.000381 0.000000 0.000000 0.000000
# 3 -0.004560 0.000381 0.016983 0.000000 0.000000 0.000000
# 4 0.000000 0.000000 0.000000 0.052033 0.000000 0.000000
# 5 0.000000 0.000000 0.000000 0.000000 0.066755 0.000000
# 6 0.000000 0.000000 0.000000 0.000000 0.000000 0.057178
#
#
# Mechanical properties :
#
#
# Convention : Reuss Voigt Hill
#
# Bulk Modulus (GPa) = 26.96557 27.35483 27.16020
# Shear Modulus (GPa) = 19.27616 20.26696 19.77156
#
# Velocity S-wave (km/s) = 3.33253 3.41710 3.37508
# Velocity P-wave (km/s) = 5.50850 5.59723 5.55305
#
# Compressibility (1/GPa) = 0.03708433
#
# Stress axis : x y z
#
# Youngs Moduli (GPa) = 53.87768 53.97135 58.88120
#
# Poissons Ratio (x) = 0.23291 0.26849
# Poissons Ratio (y) = 0.23251 -0.02245
# Poissons Ratio (z) = 0.24567 -0.02058
#
# Static dielectric constant tensor:
#      x y z
#    x 1.599560 0.000000 0.000000 
#    y 0.000000 1.595420 0.000000 
#    z 0.000000 0.000000 1.593100 
# 
# From -- ./inp_files/56833.got.cif
#   From: 2010.05.17/outbox.cif.g08.bks.cpg/sg71_29_cif.got.tgz:56833.got - 2010.06.03 16:22:01.
