data_PCOD9519484
_publ_section_title
;
Structure prediction by ZEFSAII (Michael W. Deem and Ramdas Pophale) SiO2 
 PCOD9519484
Probable space group: I M M M
;
_chemical_formula_sum "Si O2"
_cell_formula_units_Z 80
_cell_length_a 26.746513
_cell_length_b 7.579654
_cell_length_c 18.627182
_cell_angle_alpha 90.000000
_cell_angle_beta 90.000000
_cell_angle_gamma 90.000000
_cell_volume 3776.275833
_symmetry_space_group_name_H-M "I M M M"
_symmetry_group_IT_number 71
_symmetry_cell_setting 'orthorhombic'
loop_
_space_group_symop_operation_xyz
x,y,z
-x,-y,z
x,-y,-z
-x,y,-z
-x,-y,-z
x,y,-z
-x,y,z
x,-y,z
1/2+x,1/2+y,1/2+z
1/2-x,1/2-y,1/2+z
1/2+x,1/2-y,1/2-z
1/2-x,1/2+y,1/2-z
1/2-x,1/2-y,1/2-z
1/2+x,1/2+y,1/2-z
1/2-x,1/2+y,1/2+z
1/2+x,1/2-y,1/2+z
loop_
_atom_site_type_symbol
_atom_site_label
_atom_site_fract_x
_atom_site_fract_y
_atom_site_fract_z
Si Si1 0.555191 0.784949 0.083916
Si Si2 0.346137 0.205071 0.840404
Si Si3 0.745915 0.716263 0.417134
Si Si4 0.347773 0.293262 0.675916
Si Si5 0.056718 0.286924 0.917996
O O1 0.500000 0.724446 0.107500
O O2 0.602191 0.718454 0.129002
O O3 0.554250 0.000000 0.088150
O O4 0.561567 0.740523 0.000000
O O5 0.295587 0.277974 0.875614
O O6 0.345758 0.212702 0.754786
O O7 0.346452 0.000000 0.862441
O O8 0.746290 0.771238 0.500000
O O9 0.745127 0.500000 0.416841
O O10 0.696269 0.775681 0.375506
O O11 0.338744 0.500000 0.686561
O O12 0.400792 0.270619 0.636756
O O13 0.056520 0.500000 0.918157
O O14 0.000000 0.229414 0.900312
O O15 0.067928 0.229122 0.000000
#
# Coordination Sequence:
#
# PCOD9519484 Si02
#       5
#    16  16  16  16  16
#     4   8  14  26  47  75 100 122 159 212 260 299
#     4  10  19  32  52  75 101 135 173 214 259 305
#     4   9  18  33  53  75  98 130 176 224 265 306
#     4  11  22  34  50  75 109 142 170 207 258 315
#     4   9  19  37  59  80 102 131 171 217 259 302
#
# _framework density 21.184894
#
# number of rings (size 3 to 8) (size 9 to 14) (size 15 to 20)
#    0.000    2.600    0.000    3.600    0.000    4.800 
#    0.000    4.000    0.000    4.800    0.000    1.400 
#    0.000    0.000    0.000    0.000    0.000    0.000 
#
# Total GULP energy -223345.629929 kJ/mol
# GULP energy per Si atom -5583.640748 kJ/mol
# Density = 2.113668 g / cm^3
# Si number density = 21.184894 Si / 1000 Ang^3
#
#
#
# Elastic Constant Matrix: (Units=GPa)
#
#
# Indices 1 2 3 4 5 6 
#
# 1 188.9591 -4.6871 106.2566 0.0000 0.0000 0.0000
# 2 -4.6871 43.1252 -15.0918 0.0000 0.0000 0.0000
# 3 106.2566 -15.0918 123.0713 0.0000 0.0000 0.0000
# 4 0.0000 0.0000 0.0000 45.4162 0.0000 0.0000
# 5 0.0000 0.0000 0.0000 0.0000 -1.5434 0.0000
# 6 0.0000 0.0000 0.0000 0.0000 0.0000 3.2174
#
#
#
# Elastic Compliance Matrix: (Units=1/GPa)
#
#
# Indices 1 2 3 4 5 6 
#
# 1 0.010468 -0.002116 -0.009297 0.000000 0.000000 0.000000
# 2 -0.002116 0.024656 0.004850 0.000000 0.000000 0.000000
# 3 -0.009297 0.004850 0.016747 0.000000 0.000000 0.000000
# 4 0.000000 0.000000 0.000000 0.022019 0.000000 0.000000
# 5 0.000000 0.000000 0.000000 0.000000 -0.647938 0.000000
# 6 0.000000 0.000000 0.000000 0.000000 0.000000 0.310815
#
#
# Mechanical properties :
#
#
# Convention : Reuss Voigt Hill
#
# Bulk Modulus (GPa) = 25.80975 58.67900 42.24438
# Shear Modulus (GPa) = -21.07972 27.32990 3.12509
#
# Velocity S-wave (km/s) = -3.15784 3.59564 1.21587
# Velocity P-wave (km/s) = 1.04230 6.70797 4.68564
#
# Compressibility (1/GPa) = 0.03874504
#
# Stress axis : x y z
#
# Youngs Moduli (GPa) = 95.53358 40.55860 59.71293
#
# Poissons Ratio (x) = 0.08581 0.55514
# Poissons Ratio (y) = 0.20213 -0.28962
# Poissons Ratio (z) = 0.88816 -0.19672
#
# Static dielectric constant tensor:
#      x y z
#    x 1.763600 0.000000 0.000000 
#    y 0.000000 1.834420 0.000000 
#    z 0.000000 0.000000 1.700930 
# 
# From -- ./inp_files/8347.got.cif
#   From: 2010.05.17/outbox.cif.g08.bks.cpg/sg71_5_cif.got.tgz:8347.got - 2010.06.03 16:22:01.
