data_PCOD9519099
_publ_section_title
;
Structure prediction by ZEFSAII (Michael W. Deem and Ramdas Pophale) SiO2 
 PCOD9519099
Probable space group: I M M M
;
_chemical_formula_sum "Si O2"
_cell_formula_units_Z 72
_cell_length_a 16.612905
_cell_length_b 10.089711
_cell_length_c 24.386185
_cell_angle_alpha 90.000000
_cell_angle_beta 90.000000
_cell_angle_gamma 90.000000
_cell_volume 4087.597950
_symmetry_space_group_name_H-M "I M M M"
_symmetry_group_IT_number 71
_symmetry_cell_setting 'orthorhombic'
loop_
_space_group_symop_operation_xyz
x,y,z
-x,-y,z
x,-y,-z
-x,y,-z
-x,-y,-z
x,y,-z
-x,y,z
x,-y,z
1/2+x,1/2+y,1/2+z
1/2-x,1/2-y,1/2+z
1/2+x,1/2-y,1/2-z
1/2-x,1/2+y,1/2-z
1/2-x,1/2-y,1/2-z
1/2+x,1/2+y,1/2-z
1/2-x,1/2+y,1/2+z
1/2+x,1/2-y,1/2+z
loop_
_atom_site_type_symbol
_atom_site_label
_atom_site_fract_x
_atom_site_fract_y
_atom_site_fract_z
Si Si1 0.803074 0.222987 0.625184
Si Si2 0.726306 0.000000 0.694016
Si Si3 0.596155 0.500000 0.935511
Si Si4 0.090941 0.000000 0.857385
Si Si5 0.586257 0.000000 0.395312
Si Si6 0.721386 0.000000 0.821571
Si Si7 0.638666 0.729711 0.561993
O O1 0.774974 0.130934 0.676049
O O2 0.868258 0.131825 0.593949
O O3 0.815420 0.369666 0.649345
O O4 0.729505 0.244151 0.582690
O O5 0.651572 0.000000 0.652546
O O6 0.704086 0.000000 0.757138
O O7 0.500000 0.500000 0.931686
O O8 0.619338 0.500000 0.000000
O O9 0.178932 0.000000 0.826372
O O10 0.098025 0.872166 0.896349
O O11 0.000000 0.000000 0.831295
O O12 0.596826 0.870864 0.431951
O O13 0.500000 0.000000 0.368213
O O14 0.636804 0.680543 0.500000
#
# Coordination Sequence:
#
# PCOD9519099 Si02
#       7
#    16   8   8   8   8   8  16
#     4   9  19  34  54  79 104 132 177 219 255 321
#     4   9  18  34  54  73 100 143 181 213 260 315
#     4  10  20  37  59  79 104 136 170 221 285 336
#     4  10  21  33  46  72 106 135 168 206 246 296
#     4  10  20  31  45  70  98 126 170 215 247 289
#     4  10  19  35  56  76 103 141 178 220 265 306
#     4  10  19  31  49  71 100 137 166 196 243 301
#
# _framework density 17.614256999999998
#
# number of rings (size 3 to 8) (size 9 to 14) (size 15 to 20)
#    0.000    2.333    0.000    3.333    0.000    2.667 
#    0.000    5.556    0.000    1.333    0.000    0.000 
#    0.000    0.000    0.000    0.000    0.000    0.000 
#
# Total GULP energy -200497.130716 kJ/mol
# GULP energy per Si atom -5569.364742 kJ/mol
# Density = 1.757417 g / cm^3
# Si number density = 17.614257 Si / 1000 Ang^3
#
#
#
# Elastic Constant Matrix: (Units=GPa)
#
#
# Indices 1 2 3 4 5 6 
#
# 1 54.4607 20.9933 18.8283 0.0000 0.0000 0.0000
# 2 20.9933 129.5317 26.8382 0.0000 0.0000 0.0000
# 3 18.8283 26.8382 83.4711 0.0000 0.0000 0.0000
# 4 0.0000 0.0000 0.0000 18.1620 0.0000 0.0000
# 5 0.0000 0.0000 0.0000 0.0000 7.4787 0.0000
# 6 0.0000 0.0000 0.0000 0.0000 0.0000 32.3584
#
#
#
# Elastic Compliance Matrix: (Units=1/GPa)
#
#
# Indices 1 2 3 4 5 6 
#
# 1 0.020675 -0.002555 -0.003842 0.000000 0.000000 0.000000
# 2 -0.002555 0.008587 -0.002185 0.000000 0.000000 0.000000
# 3 -0.003842 -0.002185 0.013549 0.000000 0.000000 0.000000
# 4 0.000000 0.000000 0.000000 0.055060 0.000000 0.000000
# 5 0.000000 0.000000 0.000000 0.000000 0.133713 0.000000
# 6 0.000000 0.000000 0.000000 0.000000 0.000000 0.030904
#
#
# Mechanical properties :
#
#
# Convention : Reuss Voigt Hill
#
# Bulk Modulus (GPa) = 38.98937 44.53144 41.76041
# Shear Modulus (GPa) = 17.34906 24.98674 21.16790
#
# Velocity S-wave (km/s) = 3.14179 3.77045 3.47038
# Velocity P-wave (km/s) = 5.94511 6.65518 6.31014
#
# Compressibility (1/GPa) = 0.02564802
#
# Stress axis : x y z
#
# Youngs Moduli (GPa) = 48.36760 116.45777 73.80467
#
# Poissons Ratio (x) = 0.29752 0.28357
# Poissons Ratio (y) = 0.12357 0.16124
# Poissons Ratio (z) = 0.18584 0.25442
#
# Static dielectric constant tensor:
#      x y z
#    x 1.621500 0.000000 0.000000 
#    y 0.000000 1.622720 0.000000 
#    z 0.000000 0.000000 1.569320 
# 
# From -- ./inp_files/60417.got.cif
#   From: 2010.05.17/outbox.cif.g08.bks.cpg/sg71_31_cif.got.tgz:60417.got - 2010.06.03 16:22:01.
