data_PCOD9519218
_publ_section_title
;
Structure prediction by ZEFSAII (Michael W. Deem and Ramdas Pophale) SiO2 
 PCOD9519218
Probable space group: I M M M
;
_chemical_formula_sum "Si O2"
_cell_formula_units_Z 116
_cell_length_a 8.804137
_cell_length_b 29.561834
_cell_length_c 26.185501
_cell_angle_alpha 90.000000
_cell_angle_beta 90.000000
_cell_angle_gamma 90.000000
_cell_volume 6815.207033
_symmetry_space_group_name_H-M "I M M M"
_symmetry_group_IT_number 71
_symmetry_cell_setting 'orthorhombic'
loop_
_space_group_symop_operation_xyz
x,y,z
-x,-y,z
x,-y,-z
-x,y,-z
-x,-y,-z
x,y,-z
-x,y,z
x,-y,z
1/2+x,1/2+y,1/2+z
1/2-x,1/2-y,1/2+z
1/2+x,1/2-y,1/2-z
1/2-x,1/2+y,1/2-z
1/2-x,1/2-y,1/2-z
1/2+x,1/2+y,1/2-z
1/2-x,1/2+y,1/2+z
1/2+x,1/2-y,1/2+z
loop_
_atom_site_type_symbol
_atom_site_label
_atom_site_fract_x
_atom_site_fract_y
_atom_site_fract_z
Si Si1 0.679575 0.133192 0.811865
Si Si2 0.183648 0.707517 0.879306
Si Si3 0.331818 0.688994 0.396109
Si Si4 0.315067 0.121031 0.557669
Si Si5 0.817306 0.553068 0.852978
Si Si6 0.318702 0.297518 0.231054
Si Si7 0.000000 0.174834 0.000000
Si Si8 0.680305 0.446671 0.742960
O O1 0.500000 0.135173 0.805773
O O2 0.728451 0.153985 0.866047
O O3 0.758252 0.164635 0.769336
O O4 0.739801 0.083220 0.799988
O O5 0.224844 0.759342 0.892008
O O6 0.226313 0.670984 0.922225
O O7 0.257714 0.694162 0.825846
O O8 0.000000 0.705916 0.874619
O O9 0.500000 0.688323 0.369766
O O10 0.370100 0.677189 0.454346
O O11 0.261220 0.112598 0.500000
O O12 0.500000 0.119205 0.556451
O O13 0.266903 0.084396 0.599992
O O14 0.783786 0.500000 0.862533
O O15 0.742470 0.566206 0.799155
O O16 0.000000 0.557578 0.847705
O O17 0.500000 0.295507 0.231326
O O18 0.250000 0.250000 0.250000
O O19 0.500000 0.439382 0.741465
O O20 0.711123 0.500000 0.736505
#
# Coordination Sequence:
#
# PCOD9519218 Si02
#       8
#    16  16  16  16  16  16   4  16
#     4  12  23  36  57  85 118 151 188 230 282 343
#     4  10  19  31  51  75 105 142 188 237 287 336
#     4   9  19  34  55  78 104 146 189 230 275 329
#     4   9  18  29  47  74 101 137 191 245 287 327
#     4   9  17  31  50  74 107 146 186 232 287 340
#     4  12  23  35  52  78 114 152 189 233 286 349
#     4   8  20  36  58  80 105 150 199 234 274 324
#     4  10  21  37  59  86 116 149 183 223 278 346
#
# _framework density 17.020759000000002
#
# number of rings (size 3 to 8) (size 9 to 14) (size 15 to 20)
#    0.414    1.517    1.379    3.724    0.966    2.207 
#    0.000    1.724    0.000    1.655    0.000    2.897 
#    0.000    1.103    0.000    0.000    0.000    0.000 
#
# Total GULP energy -323020.267539 kJ/mol
# GULP energy per Si atom -5569.314958 kJ/mol
# Density = 1.698202 g / cm^3
# Si number density = 17.020759 Si / 1000 Ang^3
#
#
#
# Elastic Constant Matrix: (Units=GPa)
#
#
# Indices 1 2 3 4 5 6 
#
# 1 46.3443 37.4717 36.5007 0.0000 0.0000 0.0000
# 2 37.4717 75.3855 55.5222 0.0000 0.0000 0.0000
# 3 36.5007 55.5222 118.8155 0.0000 0.0000 0.0000
# 4 0.0000 0.0000 0.0000 20.2347 0.0000 0.0000
# 5 0.0000 0.0000 0.0000 0.0000 29.2786 0.0000
# 6 0.0000 0.0000 0.0000 0.0000 0.0000 17.1777
#
#
#
# Elastic Compliance Matrix: (Units=1/GPa)
#
#
# Indices 1 2 3 4 5 6 
#
# 1 0.037451 -0.015465 -0.004279 0.000000 0.000000 0.000000
# 2 -0.015465 0.026612 -0.007685 0.000000 0.000000 0.000000
# 3 -0.004279 -0.007685 0.013322 0.000000 0.000000 0.000000
# 4 0.000000 0.000000 0.000000 0.049420 0.000000 0.000000
# 5 0.000000 0.000000 0.000000 0.000000 0.034155 0.000000
# 6 0.000000 0.000000 0.000000 0.000000 0.000000 0.058215
#
#
# Mechanical properties :
#
#
# Convention : Reuss Voigt Hill
#
# Bulk Modulus (GPa) = 44.38716 55.50384 49.94550
# Shear Modulus (GPa) = 17.75936 20.74159 19.25047
#
# Velocity S-wave (km/s) = 3.23367 3.49464 3.36668
# Velocity P-wave (km/s) = 6.33064 6.99740 6.67235
#
# Compressibility (1/GPa) = 0.02252904
#
# Stress axis : x y z
#
# Youngs Moduli (GPa) = 26.70123 37.57675 75.06360
#
# Poissons Ratio (x) = 0.58111 0.32118
# Poissons Ratio (y) = 0.41292 0.57686
# Poissons Ratio (z) = 0.11425 0.28878
#
# Static dielectric constant tensor:
#      x y z
#    x 1.579790 0.000000 0.000000 
#    y 0.000000 1.598540 0.000000 
#    z 0.000000 0.000000 1.560060 
# 
# From -- ./inp_files/64001.got.cif
#   From: 2010.05.17/outbox.cif.g08.bks.cpg/sg71_33_cif.got.tgz:64001.got - 2010.06.03 16:22:01.
