data_PCOD9519514
_publ_section_title
;
Structure prediction by ZEFSAII (Michael W. Deem and Ramdas Pophale) SiO2 
 PCOD9519514
Probable space group: I M M M
;
_chemical_formula_sum "Si O2"
_cell_formula_units_Z 72
_cell_length_a 25.682839
_cell_length_b 7.376791
_cell_length_c 16.432648
_cell_angle_alpha 90.000000
_cell_angle_beta 90.000000
_cell_angle_gamma 90.000000
_cell_volume 3113.279134
_symmetry_space_group_name_H-M "I M M M"
_symmetry_group_IT_number 71
_symmetry_cell_setting 'orthorhombic'
loop_
_space_group_symop_operation_xyz
x,y,z
-x,-y,z
x,-y,-z
-x,y,-z
-x,-y,-z
x,y,-z
-x,y,z
x,-y,z
1/2+x,1/2+y,1/2+z
1/2-x,1/2-y,1/2+z
1/2+x,1/2-y,1/2-z
1/2-x,1/2+y,1/2-z
1/2-x,1/2-y,1/2-z
1/2+x,1/2+y,1/2-z
1/2-x,1/2+y,1/2+z
1/2+x,1/2-y,1/2+z
loop_
_atom_site_type_symbol
_atom_site_label
_atom_site_fract_x
_atom_site_fract_y
_atom_site_fract_z
Si Si1 0.713429 0.721404 0.500000
Si Si2 0.500000 0.218378 0.096000
Si Si3 0.891000 0.293036 0.666043
Si Si4 0.593514 0.720816 0.500000
Si Si5 0.274798 0.782503 0.160802
Si Si6 0.942387 0.219400 0.824908
O O1 0.714136 0.500000 0.500000
O O2 0.653426 0.776206 0.500000
O O3 0.741042 0.780612 0.416375
O O4 0.555165 0.288534 0.131200
O O5 0.500000 0.000000 0.111025
O O6 0.500000 0.249273 0.000000
O O7 0.889433 0.500000 0.634951
O O8 0.834084 0.212180 0.651778
O O9 0.899960 0.291508 0.762903
O O10 0.591593 0.500000 0.500000
O O11 0.566702 0.778717 0.583105
O O12 0.250000 0.750000 0.250000
O O13 0.277804 0.000000 0.154542
O O14 0.000000 0.275591 0.797627
O O15 0.939932 0.000000 0.822784
#
# Coordination Sequence:
#
# PCOD9519514 Si02
#       6
#     8   8  16   8  16  16
#     4   9  18  33  53  77 104 136 177 220 261 310
#     4   9  18  32  53  78 103 134 170 211 257 307
#     4  10  20  34  54  79 107 136 171 214 260 309
#     4   9  17  30  50  74 101 136 174 212 251 300
#     4  10  21  36  56  81 108 140 178 220 265 314
#     4  10  19  32  52  77 105 137 173 211 254 304
#
# _framework density 23.126740000000002
#
# number of rings (size 3 to 8) (size 9 to 14) (size 15 to 20)
#    0.000    2.333    1.111    1.667    1.556    4.000 
#    0.000    1.111    0.000    6.667    0.000    0.000 
#    0.000    0.000    0.000    0.000    0.000    0.000 
#
# Total GULP energy -201093.959443 kJ/mol
# GULP energy per Si atom -5585.943318 kJ/mol
# Density = 2.307410 g / cm^3
# Si number density = 23.126740 Si / 1000 Ang^3
#
#
#
# Elastic Constant Matrix: (Units=GPa)
#
#
# Indices 1 2 3 4 5 6 
#
# 1 139.4058 4.8500 30.8820 0.0000 0.0000 0.0000
# 2 4.8500 84.3179 -3.8483 0.0000 0.0000 0.0000
# 3 30.8820 -3.8483 100.7611 0.0000 0.0000 0.0000
# 4 0.0000 0.0000 0.0000 47.0593 0.0000 0.0000
# 5 0.0000 0.0000 0.0000 0.0000 72.3481 0.0000
# 6 0.0000 0.0000 0.0000 0.0000 0.0000 4.3213
#
#
#
# Elastic Compliance Matrix: (Units=1/GPa)
#
#
# Indices 1 2 3 4 5 6 
#
# 1 0.007721 -0.000553 -0.002388 0.000000 0.000000 0.000000
# 2 -0.000553 0.011920 0.000625 0.000000 0.000000 0.000000
# 3 -0.002388 0.000625 0.010680 0.000000 0.000000 0.000000
# 4 0.000000 0.000000 0.000000 0.021250 0.000000 0.000000
# 5 0.000000 0.000000 0.000000 0.000000 0.013822 0.000000
# 6 0.000000 0.000000 0.000000 0.000000 0.000000 0.231410
#
#
# Mechanical properties :
#
#
# Convention : Reuss Voigt Hill
#
# Bulk Modulus (GPa) = 38.92592 43.13913 41.03253
# Shear Modulus (GPa) = 16.12908 44.25248 30.19078
#
# Velocity S-wave (km/s) = 2.64374 4.37908 3.61702
# Velocity P-wave (km/s) = 5.11735 6.65299 5.93504
#
# Compressibility (1/GPa) = 0.02568982
#
# Stress axis : x y z
#
# Youngs Moduli (GPa) = 129.50895 83.89116 93.63190
#
# Poissons Ratio (x) = 0.04640 0.22356
# Poissons Ratio (y) = 0.07163 -0.05850
# Poissons Ratio (z) = 0.30922 -0.05241
#
# Static dielectric constant tensor:
#      x y z
#    x 1.839140 0.000000 0.000000 
#    y 0.000000 1.939510 0.000000 
#    z 0.000000 0.000000 1.820890 
# 
# From -- ./inp_files/39979.got.cif
#   From: 2010.05.17/outbox.cif.g08.bks.cpg/sg71_20_cif.got.tgz:39979.got - 2010.06.03 16:22:01.
