data_PCOD9519803
_publ_section_title
;
Structure prediction by ZEFSAII (Michael W. Deem and Ramdas Pophale) SiO2 
 PCOD9519803
Probable space group: I M M M
;
_chemical_formula_sum "Si O2"
_cell_formula_units_Z 112
_cell_length_a 17.113111
_cell_length_b 18.078361
_cell_length_c 19.492417
_cell_angle_alpha 90.000000
_cell_angle_beta 90.000000
_cell_angle_gamma 90.000000
_cell_volume 6030.505465
_symmetry_space_group_name_H-M "I M M M"
_symmetry_group_IT_number 71
_symmetry_cell_setting 'orthorhombic'
loop_
_space_group_symop_operation_xyz
x,y,z
-x,-y,z
x,-y,-z
-x,y,-z
-x,-y,-z
x,y,-z
-x,y,z
x,-y,z
1/2+x,1/2+y,1/2+z
1/2-x,1/2-y,1/2+z
1/2+x,1/2-y,1/2-z
1/2-x,1/2+y,1/2-z
1/2-x,1/2-y,1/2-z
1/2+x,1/2+y,1/2-z
1/2-x,1/2+y,1/2+z
1/2+x,1/2-y,1/2+z
loop_
_atom_site_type_symbol
_atom_site_label
_atom_site_fract_x
_atom_site_fract_y
_atom_site_fract_z
Si Si1 0.872699 0.674794 0.423112
Si Si2 0.090301 0.413615 0.711113
Si Si3 0.905895 0.082271 0.869513
Si Si4 0.592393 0.361357 0.775933
Si Si5 0.409043 0.652872 0.075484
Si Si6 0.308953 0.284302 0.423420
Si Si7 0.331354 0.219149 0.720023
O O1 0.888760 0.647574 0.500000
O O2 0.903032 0.620794 0.364974
O O3 0.906744 0.757878 0.417993
O O4 0.779652 0.686906 0.414814
O O5 0.110757 0.500000 0.711496
O O6 0.146724 0.362367 0.756416
O O7 0.000000 0.405847 0.733892
O O8 0.879184 0.092904 0.790017
O O9 0.865387 0.145721 0.912998
O O10 0.000000 0.090597 0.870959
O O11 0.886226 0.000000 0.893175
O O12 0.500000 0.374649 0.781086
O O13 0.626030 0.375322 0.852211
O O14 0.606755 0.276482 0.753351
O O15 0.500000 0.630075 0.073387
O O16 0.374461 0.634583 0.000000
O O17 0.316280 0.253464 0.500000
O O18 0.328170 0.229242 0.361505
O O19 0.250000 0.250000 0.750000
#
# Coordination Sequence:
#
# PCOD9519803 Si02
#       7
#    16  16  16  16  16  16  16
#     4  10  19  33  52  78 112 148 182 219 268 330
#     4  11  23  37  55  82 118 158 194 231 281 340
#     4   9  19  34  50  70  99 135 175 221 275 334
#     4   9  16  28  48  70  94 131 177 223 267 317
#     4   9  15  24  44  72 100 132 171 213 255 303
#     4  10  21  35  55  82 109 139 180 230 282 335
#     4  11  19  35  56  78 105 142 188 231 272 318
#
# _framework density 18.572241000000002
#
# number of rings (size 3 to 8) (size 9 to 14) (size 15 to 20)
#    0.000    2.143    2.857    0.857    0.000    2.857 
#    0.000    2.857    0.000    0.857    0.000    4.000 
#    0.000    6.000    0.000    0.286    0.000    1.429 
#
# Total GULP energy -312197.671734 kJ/mol
# GULP energy per Si atom -5574.958424 kJ/mol
# Density = 1.852997 g / cm^3
# Si number density = 18.572241 Si / 1000 Ang^3
#
#
#
# Elastic Constant Matrix: (Units=GPa)
#
#
# Indices 1 2 3 4 5 6 
#
# 1 33.5556 14.6457 21.2941 0.0000 0.0000 0.0000
# 2 14.6457 30.4609 12.9706 0.0000 0.0000 0.0000
# 3 21.2941 12.9706 127.8400 0.0000 0.0000 0.0000
# 4 0.0000 0.0000 0.0000 13.1191 0.0000 0.0000
# 5 0.0000 0.0000 0.0000 0.0000 20.5410 0.0000
# 6 0.0000 0.0000 0.0000 0.0000 0.0000 9.4838
#
#
#
# Elastic Compliance Matrix: (Units=1/GPa)
#
#
# Indices 1 2 3 4 5 6 
#
# 1 0.040551 -0.017372 -0.004992 0.000000 0.000000 0.000000
# 2 -0.017372 0.041753 -0.001343 0.000000 0.000000 0.000000
# 3 -0.004992 -0.001343 0.008790 0.000000 0.000000 0.000000
# 4 0.000000 0.000000 0.000000 0.076225 0.000000 0.000000
# 5 0.000000 0.000000 0.000000 0.000000 0.048683 0.000000
# 6 0.000000 0.000000 0.000000 0.000000 0.000000 0.105443
#
#
# Mechanical properties :
#
#
# Convention : Reuss Voigt Hill
#
# Bulk Modulus (GPa) = 22.89288 32.18639 27.53963
# Shear Modulus (GPa) = 13.04060 18.15852 15.59956
#
# Velocity S-wave (km/s) = 2.65270 3.13025 2.90131
# Velocity P-wave (km/s) = 4.66214 5.51658 5.10726
#
# Compressibility (1/GPa) = 0.04368171
#
# Stress axis : x y z
#
# Youngs Moduli (GPa) = 24.66017 23.95037 113.76525
#
# Poissons Ratio (x) = 0.41605 0.56792
# Poissons Ratio (y) = 0.42838 0.15275
# Poissons Ratio (z) = 0.12310 0.03216
#
# Static dielectric constant tensor:
#      x y z
#    x 1.657420 0.000000 0.000000 
#    y 0.000000 1.623210 0.000000 
#    z 0.000000 0.000000 1.680380 
# 
# From -- ./inp_files/46391.got.cif
#   From: 2010.05.17/outbox.cif.g08.bks.cpg/sg71_24_cif.got.tgz:46391.got - 2010.06.03 16:22:01.
