data_PCOD9519747
_publ_section_title
;
Structure prediction by ZEFSAII (Michael W. Deem and Ramdas Pophale) SiO2 
 PCOD9519747
Probable space group: I M M M
;
_chemical_formula_sum "Si O2"
_cell_formula_units_Z 80
_cell_length_a 17.022304
_cell_length_b 27.842931
_cell_length_c 10.024547
_cell_angle_alpha 90.000000
_cell_angle_beta 90.000000
_cell_angle_gamma 90.000000
_cell_volume 4751.142428
_symmetry_space_group_name_H-M "I M M M"
_symmetry_group_IT_number 71
_symmetry_cell_setting 'orthorhombic'
loop_
_space_group_symop_operation_xyz
x,y,z
-x,-y,z
x,-y,-z
-x,y,-z
-x,-y,-z
x,y,-z
-x,y,z
x,-y,z
1/2+x,1/2+y,1/2+z
1/2-x,1/2-y,1/2+z
1/2+x,1/2-y,1/2-z
1/2-x,1/2+y,1/2-z
1/2-x,1/2-y,1/2-z
1/2+x,1/2+y,1/2-z
1/2-x,1/2+y,1/2+z
1/2+x,1/2-y,1/2+z
loop_
_atom_site_type_symbol
_atom_site_label
_atom_site_fract_x
_atom_site_fract_y
_atom_site_fract_z
Si Si1 0.172860 0.052644 0.159434
Si Si2 0.626731 0.704942 0.346452
Si Si3 0.000000 0.160603 0.650210
Si Si4 0.407510 0.181871 0.654985
Si Si5 0.723611 0.856805 0.157568
Si Si6 0.000000 0.945947 0.723056
O O1 0.226585 0.096742 0.204942
O O2 0.081031 0.057419 0.194581
O O3 0.198785 0.000000 0.209287
O O4 0.178408 0.052925 0.000000
O O5 0.603883 0.691535 0.500000
O O6 0.573857 0.678235 0.237509
O O7 0.613405 0.761603 0.332402
O O8 0.716124 0.687888 0.330060
O O9 0.000000 0.180689 0.500000
O O10 0.000000 0.102993 0.640776
O O11 0.393571 0.168719 0.500000
O O12 0.500000 0.176190 0.683061
O O13 0.352387 0.152627 0.754229
O O14 0.704903 0.862094 0.000000
O O15 0.000000 0.000000 0.662092
#
# Coordination Sequence:
#
# PCOD9519747 Si02
#       6
#    16  16   8  16  16   8
#     4   9  17  30  52  81 108 138 177 218 261 310
#     4  10  20  37  56  75 106 144 179 214 263 316
#     4  12  23  32  50  80 112 146 181 221 261 304
#     4  10  21  37  56  76 104 141 176 215 264 319
#     4  10  20  33  55  82 107 136 172 221 265 310
#     4  10  19  33  51  73 108 148 184 217 252 308
#
# _framework density 16.838056000000002
#
# number of rings (size 3 to 8) (size 9 to 14) (size 15 to 20)
#    0.000    2.000    3.000    1.200    0.000    4.200 
#    0.000    0.000    0.000    1.200    0.000    4.200 
#    0.000    0.000    0.000    0.000    0.000    0.000 
#
# Total GULP energy -222942.995063 kJ/mol
# GULP energy per Si atom -5573.574877 kJ/mol
# Density = 1.679973 g / cm^3
# Si number density = 16.838056 Si / 1000 Ang^3
#
#
#
# Elastic Constant Matrix: (Units=GPa)
#
#
# Indices 1 2 3 4 5 6 
#
# 1 121.3987 61.2170 64.2083 -0.0001 -0.0006 0.0000
# 2 61.2170 78.4131 42.4722 0.0001 0.0009 0.0000
# 3 64.2083 42.4722 76.6418 0.0005 0.0104 0.0002
# 4 -0.0001 0.0001 0.0005 15.6357 0.0026 0.0001
# 5 -0.0006 0.0009 0.0104 0.0026 217.4031 0.0002
# 6 0.0000 0.0000 0.0002 0.0001 0.0002 15.9393
#
#
#
# Elastic Compliance Matrix: (Units=1/GPa)
#
#
# Indices 1 2 3 4 5 6 
#
# 1 0.017975 -0.008397 -0.010406 0.000000 0.000001 0.000000
# 2 -0.008397 0.022145 -0.005237 0.000000 0.000000 0.000000
# 3 -0.010406 -0.005237 0.024668 -0.000001 -0.000001 0.000000
# 4 0.000000 0.000000 -0.000001 0.063956 -0.000001 0.000000
# 5 0.000001 0.000000 -0.000001 -0.000001 0.004600 0.000000
# 6 0.000000 0.000000 0.000000 0.000000 0.000000 0.062738
#
#
# Mechanical properties :
#
#
# Convention : Reuss Voigt Hill
#
# Bulk Modulus (GPa) = 59.85182 68.02762 63.93972
# Shear Modulus (GPa) = 20.02143 57.03269 38.52706
#
# Velocity S-wave (km/s) = 3.45201 5.82622 4.78859
# Velocity P-wave (km/s) = 7.17713 9.26005 8.28432
#
# Compressibility (1/GPa) = 0.01670793
#
# Stress axis : x y z
#
# Youngs Moduli (GPa) = 55.63168 45.15621 40.53863
#
# Poissons Ratio (x) = 0.37918 0.42184
# Poissons Ratio (y) = 0.46714 0.21232
# Poissons Ratio (z) = 0.57890 0.23650
#
# Static dielectric constant tensor:
#      x y z
#    x 1.548630 0.000000 0.000000 
#    y 0.000000 1.597870 0.000000 
#    z 0.000000 0.000000 1.562470 
# 
# From -- ./inp_files/8417.got.cif
#   From: 2010.05.17/outbox.cif.g08.bks.cpg/sg71_5_cif.got.tgz:8417.got - 2010.06.03 16:22:01.
