data_PCOD9519145
_publ_section_title
;
Structure prediction by ZEFSAII (Michael W. Deem and Ramdas Pophale) SiO2 
 PCOD9519145
Probable space group: I M M M
;
_chemical_formula_sum "Si O2"
_cell_formula_units_Z 100
_cell_length_a 14.526339
_cell_length_b 20.371847
_cell_length_c 14.600732
_cell_angle_alpha 90.000000
_cell_angle_beta 90.000000
_cell_angle_gamma 90.000000
_cell_volume 4320.770611
_symmetry_space_group_name_H-M "I M M M"
_symmetry_group_IT_number 71
_symmetry_cell_setting 'orthorhombic'
loop_
_space_group_symop_operation_xyz
x,y,z
-x,-y,z
x,-y,-z
-x,y,-z
-x,-y,-z
x,y,-z
-x,y,z
x,-y,z
1/2+x,1/2+y,1/2+z
1/2-x,1/2-y,1/2+z
1/2+x,1/2-y,1/2-z
1/2-x,1/2+y,1/2-z
1/2-x,1/2-y,1/2-z
1/2+x,1/2+y,1/2-z
1/2-x,1/2+y,1/2+z
1/2+x,1/2-y,1/2+z
loop_
_atom_site_type_symbol
_atom_site_label
_atom_site_fract_x
_atom_site_fract_y
_atom_site_fract_z
Si Si1 0.902830 0.717206 0.893709
Si Si2 0.099224 0.923967 0.194635
Si Si3 0.140339 0.892758 0.602294
Si Si4 0.340146 0.000000 0.000000
Si Si5 0.693505 0.894568 0.840492
Si Si6 0.201321 0.746726 0.390371
Si Si7 0.150846 0.428130 0.864790
O O1 0.805379 0.740518 0.853528
O O2 0.899202 0.637933 0.894624
O O3 0.000000 0.737877 0.850356
O O4 0.903205 0.738606 0.000000
O O5 0.098905 0.922096 0.305419
O O6 0.194087 0.891879 0.161288
O O7 0.000000 0.897919 0.161832
O O8 0.105915 0.000000 0.165633
O O9 0.102175 0.904235 0.500000
O O10 0.146491 0.814438 0.620683
O O11 0.244730 0.919380 0.600348
O O12 0.336831 0.942388 0.920619
O O13 0.660650 0.819765 0.850470
O O14 0.659902 0.923305 0.744704
O O15 0.208217 0.737006 0.500000
O O16 0.115329 0.500000 0.890647
#
# Coordination Sequence:
#
# PCOD9519145 Si02
#       7
#    16  16  16   4  16  16  16
#     4   9  19  34  50  75 109 140 170 199 243 307
#     4  10  21  35  48  71 109 140 169 211 249 292
#     4   9  18  32  50  74 100 134 173 208 248 301
#     4  12  20  36  61  80  99 128 174 214 256 308
#     4  11  20  35  55  78 100 130 172 215 258 305
#     4   9  18  32  53  75 101 132 170 214 256 294
#     4  10  19  31  49  76 106 131 165 217 257 291
#
# _framework density 23.144020000000001
#
# number of rings (size 3 to 8) (size 9 to 14) (size 15 to 20)
#    0.000    2.240    2.400    2.880    0.000    9.280 
#    0.000    2.400    0.000    0.000    0.000    1.120 
#    0.000    0.000    0.000    0.000    0.000    0.000 
#
# Total GULP energy -278641.672349 kJ/mol
# GULP energy per Si atom -5572.833447 kJ/mol
# Density = 2.309134 g / cm^3
# Si number density = 23.144020 Si / 1000 Ang^3
#
#
#
# Elastic Constant Matrix: (Units=GPa)
#
#
# Indices 1 2 3 4 5 6 
#
# 1 31.4204 -20.4724 -16.9083 -0.0011 0.0000 0.0000
# 2 -20.4724 135.6996 10.5464 -0.0107 0.0000 0.0000
# 3 -16.9083 10.5464 88.9970 -0.0191 0.0000 0.0000
# 4 -0.0011 -0.0107 -0.0191 4030.1793 -0.0014 -0.0064
# 5 0.0000 0.0000 0.0000 -0.0014 -2.7406 0.0000
# 6 0.0000 0.0000 0.0000 -0.0064 0.0000 -26.8935
#
#
#
# Elastic Compliance Matrix: (Units=1/GPa)
#
#
# Indices 1 2 3 4 5 6 
#
# 1 0.038954 0.005351 0.006767 0.000000 0.000000 0.000000
# 2 0.005351 0.008173 0.000048 0.000000 0.000000 0.000000
# 3 0.006767 0.000048 0.012516 0.000000 0.000000 0.000000
# 4 0.000000 0.000000 0.000000 0.000248 0.000000 0.000000
# 5 0.000000 0.000000 0.000000 0.000000 -0.364878 0.000000
# 6 0.000000 0.000000 0.000000 0.000000 0.000000 -0.037184
#
#
# Mechanical properties :
#
#
# Convention : Reuss Voigt Hill
#
# Bulk Modulus (GPa) = 11.90831 22.49427 17.20129
# Shear Modulus (GPa) = -14.77062 818.97245 402.10091
#
# Velocity S-wave (km/s) = -2.52901 18.83155 13.19529
# Velocity P-wave (km/s) = 1.83613 21.96763 15.47911
#
# Compressibility (1/GPa) = 0.08397496
#
# Stress axis : x y z
#
# Youngs Moduli (GPa) = 25.67107 122.35779 79.89632
#
# Poissons Ratio (x) = -0.65473 -0.54064
# Poissons Ratio (y) = -0.13736 -0.00384
# Poissons Ratio (z) = -0.17371 -0.00589
#
# Static dielectric constant tensor:
#      x y z
#    x 1.953080 0.000000 0.000000 
#    y 0.000000 1.865170 0.000000 
#    z 0.000000 0.000000 1.849660 
# 
# From -- ./inp_files/36715.got.cif
#   From: 2010.05.17/outbox.cif.g08.bks.cpg/sg71_19_cif.got.tgz:36715.got - 2010.06.03 16:22:01.
