data_PCOD9519908
_publ_section_title
;
Structure prediction by ZEFSAII (Michael W. Deem and Ramdas Pophale) SiO2 
 PCOD9519908
Probable space group: I M M M
;
_chemical_formula_sum "Si O2"
_cell_formula_units_Z 82
_cell_length_a 22.375530
_cell_length_b 7.635568
_cell_length_c 23.452254
_cell_angle_alpha 90.000000
_cell_angle_beta 90.000000
_cell_angle_gamma 90.000000
_cell_volume 4006.814802
_symmetry_space_group_name_H-M "I M M M"
_symmetry_group_IT_number 71
_symmetry_cell_setting 'orthorhombic'
loop_
_space_group_symop_operation_xyz
x,y,z
-x,-y,z
x,-y,-z
-x,y,-z
-x,-y,-z
x,y,-z
-x,y,z
x,-y,z
1/2+x,1/2+y,1/2+z
1/2-x,1/2-y,1/2+z
1/2+x,1/2-y,1/2-z
1/2-x,1/2+y,1/2-z
1/2-x,1/2-y,1/2-z
1/2+x,1/2+y,1/2-z
1/2-x,1/2+y,1/2+z
1/2+x,1/2-y,1/2+z
loop_
_atom_site_type_symbol
_atom_site_label
_atom_site_fract_x
_atom_site_fract_y
_atom_site_fract_z
Si Si1 0.000000 0.000000 0.000000
Si Si2 0.842031 0.708342 0.401370
Si Si3 0.126866 0.704751 0.838338
Si Si4 0.500000 0.691694 0.381431
Si Si5 0.069418 0.285109 0.500000
Si Si6 0.683649 0.210701 0.225847
Si Si7 0.790457 0.711784 0.061621
O O1 0.000000 0.849625 0.948781
O O2 0.851986 0.500000 0.396543
O O3 0.894085 0.774209 0.443537
O O4 0.832931 0.780110 0.337017
O O5 0.778254 0.737967 0.431197
O O6 0.142569 0.500000 0.834430
O O7 0.060215 0.718656 0.861131
O O8 0.139150 0.775601 0.775359
O O9 0.171088 0.782819 0.885863
O O10 0.500000 0.500000 0.353096
O O11 0.070740 0.500000 0.500000
O O12 0.000000 0.232553 0.500000
O O13 0.750000 0.250000 0.250000
O O14 0.680329 0.000000 0.220781
O O15 0.793985 0.500000 0.062029
O O16 0.813392 0.772931 0.000000
#
# Coordination Sequence:
#
# PCOD9519908 Si02
#       7
#     2  16  16   8   8  16  16
#     4   8  24  44  58  80 112 136 194 242 294 340
#     4  10  19  33  54  82 109 142 186 231 281 334
#     4  10  21  38  57  80 113 154 192 232 285 352
#     4  10  23  41  59  81 111 149 189 240 286 339
#     4   9  18  34  54  79 111 145 183 231 283 330
#     4  10  20  34  55  84 114 145 186 231 283 340
#     4  10  20  32  52  81 109 142 182 227 279 338
#
# _framework density 20.465133999999999
#
# number of rings (size 3 to 8) (size 9 to 14) (size 15 to 20)
#    0.293    1.854    2.927    0.293    1.366    1.561 
#    1.756    0.488    0.000    1.171    0.000    0.000 
#    0.000    0.000    0.000    0.000    0.000    0.000 
#
# Total GULP energy -228345.057497 kJ/mol
# GULP energy per Si atom -5569.391646 kJ/mol
# Density = 2.041855 g / cm^3
# Si number density = 20.465134 Si / 1000 Ang^3
#
#
#
# Elastic Constant Matrix: (Units=GPa)
#
#
# Indices 1 2 3 4 5 6 
#
# 1 120.7668 -12.7707 76.2732 0.0000 0.0000 0.0000
# 2 -12.7707 38.3127 10.6526 0.0000 0.0000 0.0000
# 3 76.2732 10.6526 212.2203 0.0000 0.0000 0.0000
# 4 0.0000 0.0000 0.0000 11.3735 0.0000 0.0000
# 5 0.0000 0.0000 0.0000 0.0000 5.3610 0.0000
# 6 0.0000 0.0000 0.0000 0.0000 0.0000 23.7940
#
#
#
# Elastic Compliance Matrix: (Units=1/GPa)
#
#
# Indices 1 2 3 4 5 6 
#
# 1 0.011620 0.005106 -0.004432 0.000000 0.000000 0.000000
# 2 0.005106 0.028714 -0.003276 0.000000 0.000000 0.000000
# 3 -0.004432 -0.003276 0.006470 0.000000 0.000000 0.000000
# 4 0.000000 0.000000 0.000000 0.087924 0.000000 0.000000
# 5 0.000000 0.000000 0.000000 0.000000 0.186534 0.000000
# 6 0.000000 0.000000 0.000000 0.000000 0.000000 0.042027
#
#
# Mechanical properties :
#
#
# Convention : Reuss Voigt Hill
#
# Bulk Modulus (GPa) = 24.04028 57.73443 40.88735
# Shear Modulus (GPa) = 13.07668 27.91535 20.49602
#
# Velocity S-wave (km/s) = 2.53053 3.69730 3.16810
# Velocity P-wave (km/s) = 4.50673 6.81903 5.77969
#
# Compressibility (1/GPa) = 0.04159686
#
# Stress axis : x y z
#
# Youngs Moduli (GPa) = 86.06019 34.82644 154.56894
#
# Poissons Ratio (x) = -0.17781 0.68513
# Poissons Ratio (y) = -0.43939 0.50642
# Poissons Ratio (z) = 0.38146 0.11410
#
# Static dielectric constant tensor:
#      x y z
#    x 1.717920 0.000000 0.000000 
#    y 0.000000 1.770240 0.000000 
#    z 0.000000 0.000000 1.810340 
# 
# From -- ./inp_files/10316.got.cif
#   From: 2010.05.17/outbox.cif.g08.bks.cpg/sg71_6_cif.got.tgz:10316.got - 2010.06.03 16:22:01.
