data_PCOD9519172
_publ_section_title
;
Structure prediction by ZEFSAII (Michael W. Deem and Ramdas Pophale) SiO2 
 PCOD9519172
Probable space group: I M M M
;
_chemical_formula_sum "Si O2"
_cell_formula_units_Z 80
_cell_length_a 20.438174
_cell_length_b 8.786299
_cell_length_c 25.708783
_cell_angle_alpha 90.000000
_cell_angle_beta 90.000000
_cell_angle_gamma 90.000000
_cell_volume 4616.678045
_symmetry_space_group_name_H-M "I M M M"
_symmetry_group_IT_number 71
_symmetry_cell_setting 'orthorhombic'
loop_
_space_group_symop_operation_xyz
x,y,z
-x,-y,z
x,-y,-z
-x,y,-z
-x,-y,-z
x,y,-z
-x,y,z
x,-y,z
1/2+x,1/2+y,1/2+z
1/2-x,1/2-y,1/2+z
1/2+x,1/2-y,1/2-z
1/2-x,1/2+y,1/2-z
1/2-x,1/2-y,1/2-z
1/2+x,1/2+y,1/2-z
1/2-x,1/2+y,1/2+z
1/2+x,1/2-y,1/2+z
loop_
_atom_site_type_symbol
_atom_site_label
_atom_site_fract_x
_atom_site_fract_y
_atom_site_fract_z
Si Si1 0.500000 0.828353 0.262264
Si Si2 0.646323 0.183693 0.737504
Si Si3 0.756006 0.681145 0.667471
Si Si4 0.757888 0.819540 0.557883
Si Si5 0.882910 0.174746 0.058620
Si Si6 0.500000 0.829307 0.385689
O O1 0.572131 0.759323 0.252113
O O2 0.500000 0.841591 0.324297
O O3 0.500000 0.000000 0.238900
O O4 0.686934 0.249845 0.688335
O O5 0.690957 0.217209 0.787804
O O6 0.642487 0.000000 0.730333
O O7 0.748901 0.500000 0.664681
O O8 0.780151 0.742826 0.611691
O O9 0.781932 0.767948 0.500000
O O10 0.681094 0.778077 0.558659
O O11 0.767662 0.000000 0.560937
O O12 0.936746 0.238707 0.096479
O O13 0.864547 0.000000 0.070415
O O14 0.910364 0.177110 0.000000
O O15 0.500000 0.000000 0.408360
#
# Coordination Sequence:
#
# PCOD9519172 Si02
#       6
#     8  16  16  16  16   8
#     4   9  18  32  48  67  91 121 158 195 230 273
#     4   9  18  33  52  72  97 130 165 199 237 285
#     4  10  19  31  50  75 100 127 159 199 245 288
#     4  10  20  33  49  68  91 121 156 195 240 291
#     4  10  20  32  44  60  86 120 158 200 239 273
#     4  11  20  28  43  64  88 123 161 194 230 277
#
# _framework density 17.328478
#
# number of rings (size 3 to 8) (size 9 to 14) (size 15 to 20)
#    0.000    2.200    0.000    3.600    0.000    6.000 
#    0.000    1.500    0.000    0.000    0.000    0.700 
#    0.000    5.600    0.000    0.000    0.000    0.000 
#
# Total GULP energy -222857.982195 kJ/mol
# GULP energy per Si atom -5571.449555 kJ/mol
# Density = 1.728904 g / cm^3
# Si number density = 17.328478 Si / 1000 Ang^3
#
#
#
# Elastic Constant Matrix: (Units=GPa)
#
#
# Indices 1 2 3 4 5 6 
#
# 1 78.1952 12.9132 22.5204 0.0000 0.0000 0.0000
# 2 12.9132 25.7210 24.7676 0.0000 0.0000 0.0000
# 3 22.5204 24.7676 105.5788 0.0000 0.0000 0.0000
# 4 0.0000 0.0000 0.0000 26.0112 0.0000 0.0000
# 5 0.0000 0.0000 0.0000 0.0000 28.1389 0.0000
# 6 0.0000 0.0000 0.0000 0.0000 0.0000 10.9305
#
#
#
# Elastic Compliance Matrix: (Units=1/GPa)
#
#
# Indices 1 2 3 4 5 6 
#
# 1 0.014191 -0.005438 -0.001751 0.000000 0.000000 0.000000
# 2 -0.005438 0.052308 -0.011111 0.000000 0.000000 0.000000
# 3 -0.001751 -0.011111 0.012452 0.000000 0.000000 0.000000
# 4 0.000000 0.000000 0.000000 0.038445 0.000000 0.000000
# 5 0.000000 0.000000 0.000000 0.000000 0.035538 0.000000
# 6 0.000000 0.000000 0.000000 0.000000 0.000000 0.091487
#
#
# Mechanical properties :
#
#
# Convention : Reuss Voigt Hill
#
# Bulk Modulus (GPa) = 23.61277 36.65525 30.13401
# Shear Modulus (GPa) = 16.94124 22.96905 19.95515
#
# Velocity S-wave (km/s) = 3.13014 3.64470 3.39718
# Velocity P-wave (km/s) = 5.16912 6.23786 5.72847
#
# Compressibility (1/GPa) = 0.04234997
#
# Stress axis : x y z
#
# Youngs Moduli (GPa) = 70.46749 19.11749 80.31082
#
# Poissons Ratio (x) = 0.10397 0.14064
# Poissons Ratio (y) = 0.38322 0.89232
# Poissons Ratio (z) = 0.12340 0.21241
#
# Static dielectric constant tensor:
#      x y z
#    x 1.390060 0.000000 0.000000 
#    y 0.000000 1.600440 0.000000 
#    z 0.000000 0.000000 1.632780 
# 
# From -- ./inp_files/12422.got.cif
#   From: 2010.05.17/outbox.cif.g08.bks.cpg/sg71_7_cif.got.tgz:12422.got - 2010.06.03 16:22:01.
