data_PCOD9519975
_publ_section_title
;
Structure prediction by ZEFSAII (Michael W. Deem and Ramdas Pophale) SiO2 
 PCOD9519975
Probable space group: I M M M
;
_chemical_formula_sum "Si O2"
_cell_formula_units_Z 96
_cell_length_a 7.678929
_cell_length_b 18.832761
_cell_length_c 29.854826
_cell_angle_alpha 90.000000
_cell_angle_beta 90.000000
_cell_angle_gamma 90.000000
_cell_volume 4317.468637
_symmetry_space_group_name_H-M "I M M M"
_symmetry_group_IT_number 71
_symmetry_cell_setting 'orthorhombic'
loop_
_space_group_symop_operation_xyz
x,y,z
-x,-y,z
x,-y,-z
-x,y,-z
-x,-y,-z
x,y,-z
-x,y,z
x,-y,z
1/2+x,1/2+y,1/2+z
1/2-x,1/2-y,1/2+z
1/2+x,1/2-y,1/2-z
1/2-x,1/2+y,1/2-z
1/2-x,1/2-y,1/2-z
1/2+x,1/2+y,1/2-z
1/2-x,1/2+y,1/2+z
1/2+x,1/2-y,1/2+z
loop_
_atom_site_type_symbol
_atom_site_label
_atom_site_fract_x
_atom_site_fract_y
_atom_site_fract_z
Si Si1 0.194037 0.195982 0.199860
Si Si2 0.211676 0.780262 0.449874
Si Si3 0.286138 0.419170 0.772581
Si Si4 0.704477 0.613624 0.451098
Si Si5 0.698460 0.924243 0.857139
Si Si6 0.702829 0.666339 0.854145
O O1 0.268905 0.144843 0.238978
O O2 0.188149 0.139977 0.159644
O O3 0.285859 0.263529 0.177671
O O4 0.000000 0.218455 0.213717
O O5 0.262393 0.807231 0.500000
O O6 0.271839 0.698635 0.447531
O O7 0.274941 0.818220 0.403995
O O8 0.000000 0.779867 0.448536
O O9 0.500000 0.418532 0.770736
O O10 0.231042 0.500000 0.762006
O O11 0.227478 0.396056 0.822335
O O12 0.767919 0.592249 0.500000
O O13 0.500000 0.596859 0.447827
O O14 0.800597 0.578445 0.410263
O O15 0.500000 0.915001 0.841524
O O16 0.766409 0.000000 0.841371
O O17 0.500000 0.650487 0.861147
#
# Coordination Sequence:
#
# PCOD9519975 Si02
#       6
#    16  16  16  16  16  16
#     4  11  21  34  54  78 105 138 178 225 269 313
#     4   9  17  30  50  76 106 138 172 214 263 313
#     4   9  19  35  54  78 108 142 178 218 270 325
#     4  10  20  33  50  72  99 133 174 220 267 314
#     4  11  23  36  50  70 100 139 180 221 267 318
#     4  10  19  33  56  81 106 139 179 220 263 319
#
# _framework density 22.235251999999999
#
# number of rings (size 3 to 8) (size 9 to 14) (size 15 to 20)
#    0.000    2.000    1.667    2.500    0.000    3.333 
#    0.000    2.500    0.000    3.000    0.000    3.500 
#    0.000    0.000    0.000    5.667    0.000    6.000 
#
# Total GULP energy -267769.004197 kJ/mol
# GULP energy per Si atom -5578.520921 kJ/mol
# Density = 2.218464 g / cm^3
# Si number density = 22.235252 Si / 1000 Ang^3
#
#
#
# Elastic Constant Matrix: (Units=GPa)
#
#
# Indices 1 2 3 4 5 6 
#
# 1 44.8404 -2.6679 3.2474 0.0000 0.0000 0.0000
# 2 -2.6679 38.1705 46.6753 0.0000 0.0000 0.0000
# 3 3.2474 46.6753 169.2963 0.0000 0.0000 0.0000
# 4 0.0000 0.0000 0.0000 -160.6379 0.0000 0.0000
# 5 0.0000 0.0000 0.0000 0.0000 10.6807 0.0000
# 6 0.0000 0.0000 0.0000 0.0000 0.0000 32.7781
#
#
#
# Elastic Compliance Matrix: (Units=1/GPa)
#
#
# Indices 1 2 3 4 5 6 
#
# 1 0.022585 0.003181 -0.001310 0.000000 0.000000 0.000000
# 2 0.003181 0.039970 -0.011081 0.000000 0.000000 0.000000
# 3 -0.001310 -0.011081 0.008987 0.000000 0.000000 0.000000
# 4 0.000000 0.000000 0.000000 -0.006225 0.000000 0.000000
# 5 0.000000 0.000000 0.000000 0.000000 0.093627 0.000000
# 6 0.000000 0.000000 0.000000 0.000000 0.000000 0.030508
#
#
# Mechanical properties :
#
#
# Convention : Reuss Voigt Hill
#
# Bulk Modulus (GPa) = 18.82456 38.53520 28.67988
# Shear Modulus (GPa) = 22.16496 -9.76567 6.19964
#
# Velocity S-wave (km/s) = 3.16070 -2.09798 1.67160
# Velocity P-wave (km/s) = 4.66953 3.39111 4.08069
#
# Compressibility (1/GPa) = 0.05312208
#
# Stress axis : x y z
#
# Youngs Moduli (GPa) = 44.27629 25.01847 111.27214
#
# Poissons Ratio (x) = -0.07958 0.14578
# Poissons Ratio (y) = -0.14083 1.23300
# Poissons Ratio (z) = 0.05801 0.27723
#
# Static dielectric constant tensor:
#      x y z
#    x 1.826870 0.000000 0.000000 
#    y 0.000000 1.782870 0.000000 
#    z 0.000000 0.000000 1.897820 
# 
# From -- ./inp_files/63221.got.cif
#   From: 2010.05.17/outbox.cif.g08.bks.cpg/sg71_32_cif.got.tgz:63221.got - 2010.06.03 16:22:01.
