data_PCOD9519647
_publ_section_title
;
Structure prediction by ZEFSAII (Michael W. Deem and Ramdas Pophale) SiO2 
 PCOD9519647
Probable space group: I M M M
;
_chemical_formula_sum "Si O2"
_cell_formula_units_Z 104
_cell_length_a 27.711817
_cell_length_b 11.789229
_cell_length_c 18.623348
_cell_angle_alpha 90.000000
_cell_angle_beta 90.000000
_cell_angle_gamma 90.000000
_cell_volume 6084.265607
_symmetry_space_group_name_H-M "I M M M"
_symmetry_group_IT_number 71
_symmetry_cell_setting 'orthorhombic'
loop_
_space_group_symop_operation_xyz
x,y,z
-x,-y,z
x,-y,-z
-x,y,-z
-x,-y,-z
x,y,-z
-x,y,z
x,-y,z
1/2+x,1/2+y,1/2+z
1/2-x,1/2-y,1/2+z
1/2+x,1/2-y,1/2-z
1/2-x,1/2+y,1/2-z
1/2-x,1/2-y,1/2-z
1/2+x,1/2+y,1/2-z
1/2-x,1/2+y,1/2+z
1/2+x,1/2-y,1/2+z
loop_
_atom_site_type_symbol
_atom_site_label
_atom_site_fract_x
_atom_site_fract_y
_atom_site_fract_z
Si Si1 0.193958 0.500000 0.413990
Si Si2 0.185639 0.219765 0.174638
Si Si3 0.145600 0.267934 0.585618
Si Si4 0.089034 0.367229 0.817125
Si Si5 0.191736 0.000000 0.085031
Si Si6 0.779360 0.132954 0.669727
Si Si7 0.000000 0.361971 0.916853
Si Si8 0.943944 0.368579 0.652479
O O1 0.186203 0.500000 0.500000
O O2 0.170920 0.615677 0.385717
O O3 0.250594 0.500000 0.401330
O O4 0.138201 0.296571 0.181464
O O5 0.174304 0.115178 0.122115
O O6 0.202366 0.168991 0.251176
O O7 0.231570 0.295060 0.150035
O O8 0.147508 0.266127 0.500000
O O9 0.176937 0.166602 0.617324
O O10 0.091208 0.282174 0.612426
O O11 0.099577 0.500000 0.831618
O O12 0.066457 0.361166 0.737397
O O13 0.048276 0.327599 0.873727
O O14 0.183214 0.000000 0.000000
O O15 0.768623 0.000000 0.668562
O O16 0.000000 0.500000 0.915361
O O17 0.000000 0.326063 0.000000
O O18 0.933648 0.500000 0.630182
O O19 0.000000 0.347269 0.638604
#
# Coordination Sequence:
#
# PCOD9519647 Si02
#       8
#     8  16  16  16   8  16   8  16
#     4   9  18  34  53  78 114 155 187 213 274 343
#     4  11  22  36  58  85 115 149 187 232 281 333
#     4  11  21  35  56  81 115 156 187 226 280 337
#     4  10  19  34  57  86 117 148 184 229 286 341
#     4  11  22  38  58  82 115 151 188 229 277 337
#     4  11  23  37  55  84 117 150 190 232 275 331
#     4   9  18  34  56  83 116 150 183 225 283 349
#     4  10  19  32  54  85 117 146 183 236 288 334
#
# _framework density 17.093271000000001
#
# number of rings (size 3 to 8) (size 9 to 14) (size 15 to 20)
#    0.000    1.615    5.385    0.462    0.000    1.231 
#    0.000    0.769    0.000    3.692    0.000    2.154 
#    0.000    0.000    0.000    0.000    0.000    0.000 
#
# Total GULP energy -290174.601958 kJ/mol
# GULP energy per Si atom -5580.280807 kJ/mol
# Density = 1.705437 g / cm^3
# Si number density = 17.093271 Si / 1000 Ang^3
#
#
#
# Elastic Constant Matrix: (Units=GPa)
#
#
# Indices 1 2 3 4 5 6 
#
# 1 72.1382 39.1178 14.6275 0.0000 0.0000 0.0000
# 2 39.1178 82.9310 23.8039 0.0000 0.0000 0.0000
# 3 14.6275 23.8039 58.3863 0.0000 0.0000 0.0000
# 4 0.0000 0.0000 0.0000 22.1122 0.0000 0.0000
# 5 0.0000 0.0000 0.0000 0.0000 23.6157 0.0000
# 6 0.0000 0.0000 0.0000 0.0000 0.0000 21.8620
#
#
#
# Elastic Compliance Matrix: (Units=1/GPa)
#
#
# Indices 1 2 3 4 5 6 
#
# 1 0.018705 -0.008469 -0.001233 0.000000 0.000000 0.000000
# 2 -0.008469 0.017491 -0.005009 0.000000 0.000000 0.000000
# 3 -0.001233 -0.005009 0.019479 0.000000 0.000000 0.000000
# 4 0.000000 0.000000 0.000000 0.045224 0.000000 0.000000
# 5 0.000000 0.000000 0.000000 0.000000 0.042345 0.000000
# 6 0.000000 0.000000 0.000000 0.000000 0.000000 0.045742
#
#
# Mechanical properties :
#
#
# Convention : Reuss Voigt Hill
#
# Bulk Modulus (GPa) = 38.09358 40.95040 39.52199
# Shear Modulus (GPa) = 22.01120 22.57841 22.29481
#
# Velocity S-wave (km/s) = 3.59236 3.63835 3.61543
# Velocity P-wave (km/s) = 6.28815 6.45439 6.37182
#
# Compressibility (1/GPa) = 0.02625114
#
# Stress axis : x y z
#
# Youngs Moduli (GPa) = 53.46257 57.17332 51.33861
#
# Poissons Ratio (x) = 0.48419 0.06332
# Poissons Ratio (y) = 0.45276 0.25717
# Poissons Ratio (z) = 0.06594 0.28639
#
# Static dielectric constant tensor:
#      x y z
#    x 1.570460 0.000000 0.000000 
#    y 0.000000 1.577710 0.000000 
#    z 0.000000 0.000000 1.578590 
# 
# From -- ./inp_files/24637.got.cif
#   From: 2010.05.17/outbox.cif.g08.bks.cpg/sg71_13_cif.got.tgz:24637.got - 2010.06.03 16:22:01.
