data_PCOD9519663
_publ_section_title
;
Structure prediction by ZEFSAII (Michael W. Deem and Ramdas Pophale) SiO2 
 PCOD9519663
Probable space group: I M M M
;
_chemical_formula_sum "Si O2"
_cell_formula_units_Z 88
_cell_length_a 13.375622
_cell_length_b 18.213748
_cell_length_c 18.364319
_cell_angle_alpha 90.000000
_cell_angle_beta 90.000000
_cell_angle_gamma 90.000000
_cell_volume 4473.919223
_symmetry_space_group_name_H-M "I M M M"
_symmetry_group_IT_number 71
_symmetry_cell_setting 'orthorhombic'
loop_
_space_group_symop_operation_xyz
x,y,z
-x,-y,z
x,-y,-z
-x,y,-z
-x,-y,-z
x,y,-z
-x,y,z
x,-y,z
1/2+x,1/2+y,1/2+z
1/2-x,1/2-y,1/2+z
1/2+x,1/2-y,1/2-z
1/2-x,1/2+y,1/2-z
1/2-x,1/2-y,1/2-z
1/2+x,1/2+y,1/2-z
1/2-x,1/2+y,1/2+z
1/2+x,1/2-y,1/2+z
loop_
_atom_site_type_symbol
_atom_site_label
_atom_site_fract_x
_atom_site_fract_y
_atom_site_fract_z
Si Si1 0.799362 0.417579 0.341216
Si Si2 0.383081 0.891960 0.000000
Si Si3 0.384959 0.616735 0.248506
Si Si4 0.111548 0.586291 0.000000
Si Si5 0.743989 0.644369 0.876710
Si Si6 0.887605 0.291847 0.239419
Si Si7 0.386614 0.716724 0.000000
O O1 0.827963 0.500000 0.315009
O O2 0.826154 0.414861 0.426402
O O3 0.683634 0.405133 0.317427
O O4 0.857359 0.350429 0.301714
O O5 0.385599 0.803988 0.000000
O O6 0.500000 0.916394 0.000000
O O7 0.500000 0.592028 0.251633
O O8 0.321760 0.593672 0.177121
O O9 0.386993 0.705881 0.241051
O O10 0.176332 0.606622 0.929442
O O11 0.100721 0.500000 0.000000
O O12 0.000000 0.620255 0.000000
O O13 0.809173 0.696413 0.824832
O O14 0.669676 0.687813 0.929067
O O15 0.000000 0.309981 0.215715
O O16 0.500000 0.689897 0.000000
#
# Coordination Sequence:
#
# PCOD9519663 Si02
#       7
#    16   8  16   8  16  16   8
#     4  11  23  37  55  82 115 148 183 225 275 330
#     4  11  22  37  57  81 112 147 181 221 273 332
#     4  10  21  39  61  83 110 145 187 233 276 323
#     4  10  22  38  53  75 111 150 183 220 272 330
#     4  10  19  33  56  83 110 138 179 228 274 324
#     4  10  20  36  59  85 111 142 182 229 280 330
#     4  10  19  32  55  83 109 141 179 221 270 322
#
# _framework density 19.669556
#
# number of rings (size 3 to 8) (size 9 to 14) (size 15 to 20)
#    0.000    1.727    0.000    6.273    0.000    8.000 
#    0.000    0.455    0.000   13.636    0.000    0.000 
#    0.000    0.000    0.000    0.000    0.000    0.000 
#
# Total GULP energy -245521.210919 kJ/mol
# GULP energy per Si atom -5580.027521 kJ/mol
# Density = 1.962479 g / cm^3
# Si number density = 19.669556 Si / 1000 Ang^3
#
#
#
# Elastic Constant Matrix: (Units=GPa)
#
#
# Indices 1 2 3 4 5 6 
#
# 1 189.7314 18.6953 76.1598 0.0000 0.0000 0.0000
# 2 18.6953 84.7165 25.0446 0.0000 0.0000 0.0000
# 3 76.1598 25.0446 135.6313 0.0000 0.0000 0.0000
# 4 0.0000 0.0000 0.0000 -55.3100 0.0000 0.0000
# 5 0.0000 0.0000 0.0000 0.0000 11.0472 0.0000
# 6 0.0000 0.0000 0.0000 0.0000 0.0000 0.1619
#
#
#
# Elastic Compliance Matrix: (Units=1/GPa)
#
#
# Indices 1 2 3 4 5 6 
#
# 1 0.006817 -0.000394 -0.003755 0.000000 0.000000 0.000000
# 2 -0.000394 0.012508 -0.002088 0.000000 0.000000 0.000000
# 3 -0.003755 -0.002088 0.009867 0.000000 0.000000 0.000000
# 4 0.000000 0.000000 0.000000 -0.018080 0.000000 0.000000
# 5 0.000000 0.000000 0.000000 0.000000 0.090520 0.000000
# 6 0.000000 0.000000 0.000000 0.000000 0.000000 6.175016
#
#
# Mechanical properties :
#
#
# Convention : Reuss Voigt Hill
#
# Bulk Modulus (GPa) = 59.81878 72.20873 66.01375
# Shear Modulus (GPa) = 0.79432 10.52515 5.65973
#
# Velocity S-wave (km/s) = 0.63617 2.31573 1.69813
# Velocity P-wave (km/s) = 5.56934 6.62878 6.12202
#
# Compressibility (1/GPa) = 0.01671716
#
# Stress axis : x y z
#
# Youngs Moduli (GPa) = 146.69813 79.94599 101.34781
#
# Poissons Ratio (x) = 0.03152 0.38055
# Poissons Ratio (y) = 0.05784 0.21165
# Poissons Ratio (z) = 0.55084 0.16695
#
# Static dielectric constant tensor:
#      x y z
#    x 1.721400 0.000000 0.000000 
#    y 0.000000 1.707910 0.000000 
#    z 0.000000 0.000000 1.681590 
# 
# From -- ./inp_files/44763.got.cif
#   From: 2010.05.17/outbox.cif.g08.bks.cpg/sg71_23_cif.got.tgz:44763.got - 2010.06.03 16:22:01.
