data_PCOD9519048
_publ_section_title
;
Structure prediction by ZEFSAII (Michael W. Deem and Ramdas Pophale) SiO2 
 PCOD9519048
Probable space group: I M M M
;
_chemical_formula_sum "Si O2"
_cell_formula_units_Z 80
_cell_length_a 30.540364
_cell_length_b 13.149632
_cell_length_c 12.817981
_cell_angle_alpha 90.000000
_cell_angle_beta 90.000000
_cell_angle_gamma 90.000000
_cell_volume 5147.631283
_symmetry_space_group_name_H-M "I M M M"
_symmetry_group_IT_number 71
_symmetry_cell_setting 'orthorhombic'
loop_
_space_group_symop_operation_xyz
x,y,z
-x,-y,z
x,-y,-z
-x,y,-z
-x,-y,-z
x,y,-z
-x,y,z
x,-y,z
1/2+x,1/2+y,1/2+z
1/2-x,1/2-y,1/2+z
1/2+x,1/2-y,1/2-z
1/2-x,1/2+y,1/2-z
1/2-x,1/2-y,1/2-z
1/2+x,1/2+y,1/2-z
1/2-x,1/2+y,1/2+z
1/2+x,1/2-y,1/2+z
loop_
_atom_site_type_symbol
_atom_site_label
_atom_site_fract_x
_atom_site_fract_y
_atom_site_fract_z
Si Si1 0.794010 0.740246 0.618002
Si Si2 0.289252 0.878774 0.672430
Si Si3 0.379019 0.619700 0.119230
Si Si4 0.050280 0.746756 0.000000
Si Si5 0.138812 0.621017 0.000000
Si Si6 0.450247 0.380262 0.292212
O O1 0.794141 0.699182 0.500000
O O2 0.751617 0.812449 0.631817
O O3 0.794842 0.655489 0.707796
O O4 0.836194 0.812104 0.631955
O O5 0.331513 0.852699 0.601314
O O6 0.281399 0.000000 0.662664
O O7 0.368125 0.500000 0.132594
O O8 0.415501 0.647310 0.203732
O O9 0.395018 0.632152 0.000000
O O10 0.091111 0.670636 0.000000
O O11 0.054689 0.816000 0.897073
O O12 0.000000 0.704926 0.000000
O O13 0.133665 0.500000 0.000000
O O14 0.500000 0.366225 0.253574
O O15 0.444784 0.500000 0.316442
#
# Coordination Sequence:
#
# PCOD9519048 Si02
#       6
#    16  16  16   8   8  16
#     4  10  19  32  50  70  94 123 156 192 232 277
#     4  10  20  33  50  70  93 123 155 192 235 279
#     4   9  17  28  45  68  92 121 155 191 228 271
#     4  10  19  31  48  67  91 122 155 194 235 277
#     4  10  20  34  51  70  92 121 158 195 235 278
#     4   9  17  29  45  67  95 125 155 187 229 279
#
# _framework density 15.541130000000001
#
# number of rings (size 3 to 8) (size 9 to 14) (size 15 to 20)
#    0.000    2.400    1.000    2.100    0.000    3.000 
#    0.000    2.000    0.000    1.200    0.000    0.000 
#    0.000    0.000    0.000   37.200    0.000    0.400 
#
# Total GULP energy -222905.686626 kJ/mol
# GULP energy per Si atom -5572.642166 kJ/mol
# Density = 1.550576 g / cm^3
# Si number density = 15.541130 Si / 1000 Ang^3
#
#
#
# Elastic Constant Matrix: (Units=GPa)
#
#
# Indices 1 2 3 4 5 6 
#
# 1 112.2054 33.6518 50.3652 0.0000 0.0000 0.0000
# 2 33.6518 30.6266 20.4222 0.0000 0.0000 0.0000
# 3 50.3652 20.4222 87.5148 0.0000 0.0000 0.0000
# 4 0.0000 0.0000 0.0000 19.6574 0.0000 0.0000
# 5 0.0000 0.0000 0.0000 0.0000 24.3005 0.0000
# 6 0.0000 0.0000 0.0000 0.0000 0.0000 24.9865
#
#
#
# Elastic Compliance Matrix: (Units=1/GPa)
#
#
# Indices 1 2 3 4 5 6 
#
# 1 0.015462 -0.013093 -0.005843 0.000000 0.000000 0.000000
# 2 -0.013093 0.049755 -0.004076 0.000000 0.000000 0.000000
# 3 -0.005843 -0.004076 0.015740 0.000000 0.000000 0.000000
# 4 0.000000 0.000000 0.000000 0.050872 0.000000 0.000000
# 5 0.000000 0.000000 0.000000 0.000000 0.041151 0.000000
# 6 0.000000 0.000000 0.000000 0.000000 0.000000 0.040022
#
#
# Mechanical properties :
#
#
# Convention : Reuss Voigt Hill
#
# Bulk Modulus (GPa) = 28.62522 48.80278 38.71400
# Shear Modulus (GPa) = 18.47274 22.18272 20.32773
#
# Velocity S-wave (km/s) = 3.45140 3.78213 3.62055
# Velocity P-wave (km/s) = 5.86019 7.10938 6.51479
#
# Compressibility (1/GPa) = 0.03493423
#
# Stress axis : x y z
#
# Youngs Moduli (GPa) = 64.67637 20.09846 63.53076
#
# Poissons Ratio (x) = 0.26314 0.37121
# Poissons Ratio (y) = 0.84679 0.25894
# Poissons Ratio (z) = 0.37790 0.08192
#
# Static dielectric constant tensor:
#      x y z
#    x 1.507250 0.000000 0.000000 
#    y 0.000000 1.489210 0.000000 
#    z 0.000000 0.000000 1.519930 
# 
# From -- ./inp_files/20196.got.cif
#   From: 2010.05.17/outbox.cif.g08.bks.cpg/sg71_11_cif.got.tgz:20196.got - 2010.06.03 16:22:01.
