data_PCOD9519911
_publ_section_title
;
Structure prediction by ZEFSAII (Michael W. Deem and Ramdas Pophale) SiO2 
 PCOD9519911
Probable space group: I M M M
;
_chemical_formula_sum "Si O2"
_cell_formula_units_Z 68
_cell_length_a 24.663744
_cell_length_b 19.941438
_cell_length_c 7.743775
_cell_angle_alpha 90.000000
_cell_angle_beta 90.000000
_cell_angle_gamma 90.000000
_cell_volume 3808.624899
_symmetry_space_group_name_H-M "I M M M"
_symmetry_group_IT_number 71
_symmetry_cell_setting 'orthorhombic'
loop_
_space_group_symop_operation_xyz
x,y,z
-x,-y,z
x,-y,-z
-x,y,-z
-x,-y,-z
x,y,-z
-x,y,z
x,-y,z
1/2+x,1/2+y,1/2+z
1/2-x,1/2-y,1/2+z
1/2+x,1/2-y,1/2-z
1/2-x,1/2+y,1/2-z
1/2-x,1/2-y,1/2-z
1/2+x,1/2+y,1/2-z
1/2-x,1/2+y,1/2+z
1/2+x,1/2-y,1/2+z
loop_
_atom_site_type_symbol
_atom_site_label
_atom_site_fract_x
_atom_site_fract_y
_atom_site_fract_z
Si Si1 0.869833 0.575840 0.703962
Si Si2 0.244045 0.924871 0.709039
Si Si3 0.805486 0.211515 0.706648
Si Si4 0.585484 0.784943 0.308867
Si Si5 0.000000 0.261824 0.500000
O O1 0.881854 0.578388 0.500000
O O2 0.881166 0.500000 0.766536
O O3 0.805416 0.587376 0.727851
O O4 0.902188 0.635519 0.791963
O O5 0.246228 0.923629 0.500000
O O6 0.204680 0.865179 0.764107
O O7 0.228208 0.000000 0.763736
O O8 0.812733 0.212806 0.500000
O O9 0.750000 0.250000 0.750000
O O10 0.856858 0.247498 0.788655
O O11 0.564032 0.770796 0.500000
O O12 0.546965 0.764312 0.152688
#
# Coordination Sequence:
#
# PCOD9519911 Si02
#       5
#    16  16  16  16   4
#     4  10  19  33  54  82 119 158 198 247 298 346
#     4   9  18  31  51  83 121 160 195 234 297 367
#     4  11  20  33  56  89 125 154 195 249 302 362
#     4  12  24  41  63  86 114 159 204 251 303 354
#     4  12  26  48  61  84 121 156 218 254 294 350
#
# _framework density 17.854213000000001
#
# number of rings (size 3 to 8) (size 9 to 14) (size 15 to 20)
#    0.000    1.412    4.706    1.765    0.000    2.353 
#    0.000    1.176    0.000    1.412    0.000    1.647 
#    0.000    1.882    0.000    0.000    0.000    0.000 
#
# Total GULP energy -189334.303561 kJ/mol
# GULP energy per Si atom -5568.655987 kJ/mol
# Density = 1.781358 g / cm^3
# Si number density = 17.854213 Si / 1000 Ang^3
#
#
#
# Elastic Constant Matrix: (Units=GPa)
#
#
# Indices 1 2 3 4 5 6 
#
# 1 90.2974 22.7679 36.6454 0.0000 0.0000 0.0000
# 2 22.7679 61.7599 19.5272 0.0000 0.0000 0.0000
# 3 36.6454 19.5272 114.6998 0.0000 0.0000 0.0000
# 4 0.0000 0.0000 0.0000 14.3603 0.0000 0.0000
# 5 0.0000 0.0000 0.0000 0.0000 30.1544 0.0000
# 6 0.0000 0.0000 0.0000 0.0000 0.0000 -6.3635
#
#
#
# Elastic Compliance Matrix: (Units=1/GPa)
#
#
# Indices 1 2 3 4 5 6 
#
# 1 0.013529 -0.003827 -0.003671 0.000000 0.000000 0.000000
# 2 -0.003827 0.018195 -0.001875 0.000000 0.000000 0.000000
# 3 -0.003671 -0.001875 0.010210 0.000000 0.000000 0.000000
# 4 0.000000 0.000000 0.000000 0.069636 0.000000 0.000000
# 5 0.000000 0.000000 0.000000 0.000000 0.033163 0.000000
# 6 0.000000 0.000000 0.000000 0.000000 0.000000 -0.157147
#
#
# Mechanical properties :
#
#
# Convention : Reuss Voigt Hill
#
# Bulk Modulus (GPa) = 43.12333 47.18202 45.15267
# Shear Modulus (GPa) = 355.54639 20.15134 187.84887
#
# Velocity S-wave (km/s) = 14.12696 3.36320 10.26845
# Velocity P-wave (km/s) = 17.03819 6.44710 12.88148
#
# Compressibility (1/GPa) = 0.02318930
#
# Stress axis : x y z
#
# Youngs Moduli (GPa) = 73.91411 54.95902 97.93888
#
# Poissons Ratio (x) = 0.21032 0.35953
# Poissons Ratio (y) = 0.28286 0.18364
# Poissons Ratio (z) = 0.27133 0.10305
#
# Static dielectric constant tensor:
#      x y z
#    x 1.569780 0.000000 0.000000 
#    y 0.000000 1.640500 0.000000 
#    z 0.000000 0.000000 1.634250 
# 
# From -- ./inp_files/12158.got.cif
#   From: 2010.05.17/outbox.cif.g08.bks.cpg/sg71_7_cif.got.tgz:12158.got - 2010.06.03 16:22:01.
