data_PCOD9519478
_publ_section_title
;
Structure prediction by ZEFSAII (Michael W. Deem and Ramdas Pophale) SiO2 
 PCOD9519478
Probable space group: I M M M
;
_chemical_formula_sum "Si O2"
_cell_formula_units_Z 88
_cell_length_a 10.693648
_cell_length_b 21.414103
_cell_length_c 18.423318
_cell_angle_alpha 90.000000
_cell_angle_beta 90.000000
_cell_angle_gamma 90.000000
_cell_volume 4218.845489
_symmetry_space_group_name_H-M "I M M M"
_symmetry_group_IT_number 71
_symmetry_cell_setting 'orthorhombic'
loop_
_space_group_symop_operation_xyz
x,y,z
-x,-y,z
x,-y,-z
-x,y,-z
-x,-y,-z
x,y,-z
-x,y,z
x,-y,z
1/2+x,1/2+y,1/2+z
1/2-x,1/2-y,1/2+z
1/2+x,1/2-y,1/2-z
1/2-x,1/2+y,1/2-z
1/2-x,1/2-y,1/2-z
1/2+x,1/2+y,1/2-z
1/2-x,1/2+y,1/2+z
1/2+x,1/2-y,1/2+z
loop_
_atom_site_type_symbol
_atom_site_label
_atom_site_fract_x
_atom_site_fract_y
_atom_site_fract_z
Si Si1 0.143344 0.098024 0.583957
Si Si2 0.500000 0.925146 0.083963
Si Si3 0.855434 0.430593 0.197677
Si Si4 0.865368 0.228205 0.652012
Si Si5 0.214506 0.074689 0.085621
Si Si6 0.292881 0.338009 0.296751
O O1 0.156490 0.080942 0.500000
O O2 0.253983 0.071010 0.633051
O O3 0.153542 0.172957 0.594610
O O4 0.000000 0.081485 0.607105
O O5 0.640672 0.907807 0.105286
O O6 0.500000 0.000000 0.091739
O O7 0.500000 0.908699 0.000000
O O8 0.848211 0.500000 0.231994
O O9 0.812626 0.376348 0.251657
O O10 0.000000 0.421601 0.174990
O O11 0.761033 0.280415 0.657289
O O12 0.867143 0.193282 0.730208
O O13 0.000000 0.258450 0.638702
O O14 0.144110 0.114137 0.147073
O O15 0.197692 0.000000 0.092797
O O16 0.191481 0.089182 0.000000
#
# Coordination Sequence:
#
# PCOD9519478 Si02
#       6
#    16   8  16  16  16  16
#     4   9  19  37  57  76 103 137 173 216 262 309
#     4   7  12  22  34  56  92 124 145 173 220 277
#     4  10  21  34  51  80 111 137 170 212 259 311
#     4   9  19  34  51  73  98 129 173 217 251 294
#     4   9  17  28  44  71 104 133 162 198 245 302
#     4  10  19  32  52  73 100 138 172 203 253 310
#
# _framework density 20.858788000000001
#
# number of rings (size 3 to 8) (size 9 to 14) (size 15 to 20)
#    0.000    2.818    0.000    2.182    2.545    1.818 
#    0.000    1.818    0.000    2.182    0.000    1.273 
#    0.000    0.000    0.000    0.000    0.000    0.000 
#
# Total GULP energy -244988.819636 kJ/mol
# GULP energy per Si atom -5567.927719 kJ/mol
# Density = 2.081131 g / cm^3
# Si number density = 20.858788 Si / 1000 Ang^3
#
#
#
# Elastic Constant Matrix: (Units=GPa)
#
#
# Indices 1 2 3 4 5 6 
#
# 1 95.8831 22.5251 19.5437 0.0000 0.0000 0.0000
# 2 22.5251 69.9294 19.2092 0.0000 0.0000 0.0000
# 3 19.5437 19.2092 83.0958 0.0000 0.0000 0.0000
# 4 0.0000 0.0000 0.0000 28.8452 0.0000 0.0000
# 5 0.0000 0.0000 0.0000 0.0000 4.2363 0.0000
# 6 0.0000 0.0000 0.0000 0.0000 0.0000 4.3761
#
#
#
# Elastic Compliance Matrix: (Units=1/GPa)
#
#
# Indices 1 2 3 4 5 6 
#
# 1 0.011583 -0.003185 -0.001988 0.000000 0.000000 0.000000
# 2 -0.003185 0.016146 -0.002983 0.000000 0.000000 0.000000
# 3 -0.001988 -0.002983 0.013192 0.000000 0.000000 0.000000
# 4 0.000000 0.000000 0.000000 0.034668 0.000000 0.000000
# 5 0.000000 0.000000 0.000000 0.000000 0.236057 0.000000
# 6 0.000000 0.000000 0.000000 0.000000 0.000000 0.228513
#
#
# Mechanical properties :
#
#
# Convention : Reuss Voigt Hill
#
# Bulk Modulus (GPa) = 40.63793 41.27382 40.95587
# Shear Modulus (GPa) = 8.85470 20.00020 14.42745
#
# Velocity S-wave (km/s) = 2.06259 3.09987 2.63282
# Velocity P-wave (km/s) = 5.01967 5.71336 5.37771
#
# Compressibility (1/GPa) = 0.02460756
#
# Stress axis : x y z
#
# Youngs Moduli (GPa) = 86.33516 61.93671 75.80637
#
# Poissons Ratio (x) = 0.19726 0.15070
# Poissons Ratio (y) = 0.27497 0.22615
# Poissons Ratio (z) = 0.17163 0.18477
#
# Static dielectric constant tensor:
#      x y z
#    x 1.896650 0.000000 0.000000 
#    y 0.000000 1.766260 0.000000 
#    z 0.000000 0.000000 1.739760 
# 
# From -- ./inp_files/51787.got.cif
#   From: 2010.05.17/outbox.cif.g08.bks.cpg/sg71_26_cif.got.tgz:51787.got - 2010.06.03 16:22:01.
