data_PCOD9519596
_publ_section_title
;
Structure prediction by ZEFSAII (Michael W. Deem and Ramdas Pophale) SiO2 
 PCOD9519596
Probable space group: I M M M
;
_chemical_formula_sum "Si O2"
_cell_formula_units_Z 80
_cell_length_a 28.509177
_cell_length_b 13.663689
_cell_length_c 11.256716
_cell_angle_alpha 90.000000
_cell_angle_beta 90.000000
_cell_angle_gamma 90.000000
_cell_volume 4384.947096
_symmetry_space_group_name_H-M "I M M M"
_symmetry_group_IT_number 71
_symmetry_cell_setting 'orthorhombic'
loop_
_space_group_symop_operation_xyz
x,y,z
-x,-y,z
x,-y,-z
-x,y,-z
-x,-y,-z
x,y,-z
-x,y,z
x,-y,z
1/2+x,1/2+y,1/2+z
1/2-x,1/2-y,1/2+z
1/2+x,1/2-y,1/2-z
1/2-x,1/2+y,1/2-z
1/2-x,1/2-y,1/2-z
1/2+x,1/2+y,1/2-z
1/2-x,1/2+y,1/2+z
1/2+x,1/2-y,1/2+z
loop_
_atom_site_type_symbol
_atom_site_label
_atom_site_fract_x
_atom_site_fract_y
_atom_site_fract_z
Si Si1 0.781211 0.609510 0.803587
Si Si2 0.405152 0.383046 0.634806
Si Si3 0.445312 0.282660 0.863469
Si Si4 0.702461 0.326545 0.629052
Si Si5 0.628138 0.891016 0.864159
O O1 0.781793 0.500000 0.858116
O O2 0.733963 0.621613 0.727205
O O3 0.784926 0.711219 0.873838
O O4 0.826751 0.616159 0.718810
O O5 0.421384 0.353328 0.500000
O O6 0.402068 0.500000 0.634289
O O7 0.434803 0.351056 0.749921
O O8 0.352740 0.340279 0.650744
O O9 0.500000 0.255358 0.860775
O O10 0.411147 0.190299 0.845295
O O11 0.436155 0.320683 0.000000
O O12 0.712981 0.369905 0.500000
O O13 0.607840 0.000000 0.849005
O O14 0.644610 0.881278 0.000000
#
# Coordination Sequence:
#
# PCOD9519596 Si02
#       5
#    16  16  16  16  16
#     4  10  19  32  53  80 108 139 177 219 263 316
#     4  10  21  38  58  80 109 146 186 226 273 331
#     4  10  21  37  57  82 111 141 180 233 284 326
#     4  10  20  34  53  78 110 145 179 218 266 321
#     4   9  17  31  53  80 109 141 176 215 264 323
#
# _framework density 18.244233999999999
#
# number of rings (size 3 to 8) (size 9 to 14) (size 15 to 20)
#    0.000    2.200    2.000    1.200    0.000    4.000 
#    0.000    4.000    0.000    3.000    0.000    1.400 
#    0.000    0.000    0.000    0.000    0.000    0.000 
#
# Total GULP energy -222723.581523 kJ/mol
# GULP energy per Si atom -5568.089538 kJ/mol
# Density = 1.820271 g / cm^3
# Si number density = 18.244234 Si / 1000 Ang^3
#
#
#
# Elastic Constant Matrix: (Units=GPa)
#
#
# Indices 1 2 3 4 5 6 
#
# 1 51.2425 6.5147 38.0325 0.0000 0.0000 0.0000
# 2 6.5147 71.4755 29.5305 0.0000 0.0000 0.0000
# 3 38.0325 29.5305 101.0293 0.0000 0.0000 0.0000
# 4 0.0000 0.0000 0.0000 10.3373 0.0000 0.0000
# 5 0.0000 0.0000 0.0000 0.0000 -31.9689 0.0000
# 6 0.0000 0.0000 0.0000 0.0000 0.0000 11.9612
#
#
#
# Elastic Compliance Matrix: (Units=1/GPa)
#
#
# Indices 1 2 3 4 5 6 
#
# 1 0.027331 0.002001 -0.010874 0.000000 0.000000 0.000000
# 2 0.002001 0.016059 -0.005447 0.000000 0.000000 0.000000
# 3 -0.010874 -0.005447 0.015584 0.000000 0.000000 0.000000
# 4 0.000000 0.000000 0.000000 0.096737 0.000000 0.000000
# 5 0.000000 0.000000 0.000000 0.000000 -0.031280 0.000000
# 6 0.000000 0.000000 0.000000 0.000000 0.000000 0.083604
#
#
# Mechanical properties :
#
#
# Convention : Reuss Voigt Hill
#
# Bulk Modulus (GPa) = 32.96583 41.32252 37.14418
# Shear Modulus (GPa) = 20.26049 8.04389 14.15219
#
# Velocity S-wave (km/s) = 3.33605 2.10204 2.78817
# Velocity P-wave (km/s) = 5.73998 5.34698 5.54697
#
# Compressibility (1/GPa) = 0.03033444
#
# Stress axis : x y z
#
# Youngs Moduli (GPa) = 36.58809 62.27028 64.16891
#
# Poissons Ratio (x) = -0.12463 0.69777
# Poissons Ratio (y) = -0.07323 0.34956
# Poissons Ratio (z) = 0.39786 0.33921
#
# Static dielectric constant tensor:
#      x y z
#    x 1.587990 0.000000 0.000000 
#    y 0.000000 1.637690 0.000000 
#    z 0.000000 0.000000 1.658830 
# 
# From -- ./inp_files/20105.got.cif
#   From: 2010.05.17/outbox.cif.g08.bks.cpg/sg71_11_cif.got.tgz:20105.got - 2010.06.03 16:22:01.
