data_PCOD9519726
_publ_section_title
;
Structure prediction by ZEFSAII (Michael W. Deem and Ramdas Pophale) SiO2 
 PCOD9519726
Probable space group: I M M M
;
_chemical_formula_sum "Si O2"
_cell_formula_units_Z 104
_cell_length_a 17.383318
_cell_length_b 23.285874
_cell_length_c 13.671990
_cell_angle_alpha 90.000000
_cell_angle_beta 90.000000
_cell_angle_gamma 90.000000
_cell_volume 5534.226762
_symmetry_space_group_name_H-M "I M M M"
_symmetry_group_IT_number 71
_symmetry_cell_setting 'orthorhombic'
loop_
_space_group_symop_operation_xyz
x,y,z
-x,-y,z
x,-y,-z
-x,y,-z
-x,-y,-z
x,y,-z
-x,y,z
x,-y,z
1/2+x,1/2+y,1/2+z
1/2-x,1/2-y,1/2+z
1/2+x,1/2-y,1/2-z
1/2-x,1/2+y,1/2-z
1/2-x,1/2-y,1/2-z
1/2+x,1/2+y,1/2-z
1/2-x,1/2+y,1/2+z
1/2+x,1/2-y,1/2+z
loop_
_atom_site_type_symbol
_atom_site_label
_atom_site_fract_x
_atom_site_fract_y
_atom_site_fract_z
Si Si1 0.190908 0.894975 0.819953
Si Si2 0.853358 0.773274 0.605479
Si Si3 0.751554 0.379293 0.108259
Si Si4 0.147842 0.360789 0.391025
Si Si5 0.586421 0.150601 0.678316
Si Si6 0.585867 0.712967 0.312809
Si Si7 0.586733 0.500000 0.616534
O O1 0.210014 0.903503 0.704510
O O2 0.273417 0.895136 0.873088
O O3 0.149731 0.833596 0.841969
O O4 0.133605 0.944158 0.851971
O O5 0.890387 0.783568 0.500000
O O6 0.778625 0.813358 0.611303
O O7 0.831079 0.706871 0.610970
O O8 0.908392 0.787667 0.694787
O O9 0.842809 0.379754 0.124905
O O10 0.732014 0.402063 0.000000
O O11 0.115978 0.373116 0.500000
O O12 0.095419 0.365165 0.294045
O O13 0.500000 0.136607 0.646243
O O14 0.597692 0.219632 0.663202
O O15 0.500000 0.696616 0.345911
O O16 0.500000 0.500000 0.656678
O O17 0.582507 0.500000 0.500000
#
# Coordination Sequence:
#
# PCOD9519726 Si02
#       7
#    16  16  16  16  16  16   8
#     4  10  19  33  51  69  93 128 170 209 245 286
#     4   8  14  24  40  64  92 123 162 203 239 282
#     4   9  17  30  48  69  94 126 163 201 241 288
#     4   9  16  27  45  67  92 126 165 203 243 289
#     4   9  17  27  42  70 105 135 161 192 235 288
#     4   9  16  26  41  63  96 135 167 197 236 283
#     4  11  24  40  57  77 100 125 157 203 253 289
#
# _framework density 18.792145999999999
#
# number of rings (size 3 to 8) (size 9 to 14) (size 15 to 20)
#    0.000    2.846    0.000    1.846    0.000    4.615 
#    0.000    4.231    0.000    3.692    0.000    8.615 
#    0.000   19.692    0.000    0.000    0.000    0.000 
#
# Total GULP energy -289476.417625 kJ/mol
# GULP energy per Si atom -5566.854185 kJ/mol
# Density = 1.874937 g / cm^3
# Si number density = 18.792146 Si / 1000 Ang^3
#
#
#
# Elastic Constant Matrix: (Units=GPa)
#
#
# Indices 1 2 3 4 5 6 
#
# 1 84.3870 16.4613 0.9977 0.0000 0.0000 0.0000
# 2 16.4613 19.5149 4.3199 0.0000 0.0000 0.0000
# 3 0.9977 4.3199 51.5519 0.0000 0.0000 0.0000
# 4 0.0000 0.0000 0.0000 12.7921 0.0000 0.0000
# 5 0.0000 0.0000 0.0000 0.0000 5.8077 0.0000
# 6 0.0000 0.0000 0.0000 0.0000 0.0000 6.4571
#
#
#
# Elastic Compliance Matrix: (Units=1/GPa)
#
#
# Indices 1 2 3 4 5 6 
#
# 1 0.014212 -0.012153 0.000743 0.000000 0.000000 0.000000
# 2 -0.012153 0.062603 -0.005011 0.000000 0.000000 0.000000
# 3 0.000743 -0.005011 0.019803 0.000000 0.000000 0.000000
# 4 0.000000 0.000000 0.000000 0.078173 0.000000 0.000000
# 5 0.000000 0.000000 0.000000 0.000000 0.172184 0.000000
# 6 0.000000 0.000000 0.000000 0.000000 0.000000 0.154867
#
#
# Mechanical properties :
#
#
# Convention : Reuss Voigt Hill
#
# Bulk Modulus (GPa) = 15.67932 22.11240 18.89586
# Shear Modulus (GPa) = 8.99372 13.92305 11.45839
#
# Velocity S-wave (km/s) = 2.19004 2.72490 2.47198
# Velocity P-wave (km/s) = 3.84145 4.65752 4.26903
#
# Compressibility (1/GPa) = 0.06377828
#
# Stress axis : x y z
#
# Youngs Moduli (GPa) = 70.36300 15.97358 50.49626
#
# Poissons Ratio (x) = 0.19412 -0.03754
# Poissons Ratio (y) = 0.85510 0.25303
# Poissons Ratio (z) = -0.05230 0.08004
#
# Static dielectric constant tensor:
#      x y z
#    x 1.651070 0.000000 0.000000 
#    y 0.000000 1.636020 0.000000 
#    z 0.000000 0.000000 1.701480 
# 
# From -- ./inp_files/36920.got.cif
#   From: 2010.05.17/outbox.cif.g08.bks.cpg/sg71_19_cif.got.tgz:36920.got - 2010.06.03 16:22:01.
