data_PCOD9519324
_publ_section_title
;
Structure prediction by ZEFSAII (Michael W. Deem and Ramdas Pophale) SiO2 
 PCOD9519324
Probable space group: I M M M
;
_chemical_formula_sum "Si O2"
_cell_formula_units_Z 112
_cell_length_a 20.163638
_cell_length_b 7.228015
_cell_length_c 31.892057
_cell_angle_alpha 90.000000
_cell_angle_beta 90.000000
_cell_angle_gamma 90.000000
_cell_volume 4648.046548
_symmetry_space_group_name_H-M "I M M M"
_symmetry_group_IT_number 71
_symmetry_cell_setting 'orthorhombic'
loop_
_space_group_symop_operation_xyz
x,y,z
-x,-y,z
x,-y,-z
-x,y,-z
-x,-y,-z
x,y,-z
-x,y,z
x,-y,z
1/2+x,1/2+y,1/2+z
1/2-x,1/2-y,1/2+z
1/2+x,1/2-y,1/2-z
1/2-x,1/2+y,1/2-z
1/2-x,1/2-y,1/2-z
1/2+x,1/2+y,1/2-z
1/2-x,1/2+y,1/2+z
1/2+x,1/2-y,1/2+z
loop_
_atom_site_type_symbol
_atom_site_label
_atom_site_fract_x
_atom_site_fract_y
_atom_site_fract_z
Si Si1 0.600379 0.274768 0.818904
Si Si2 0.000000 0.247962 0.242639
Si Si3 0.212346 0.225164 0.451521
Si Si4 0.253527 0.281637 0.799259
Si Si5 0.110042 0.725087 0.827504
Si Si6 0.572005 0.275084 0.086158
Si Si7 0.075688 0.274654 0.000000
Si Si8 0.350420 0.775074 0.416341
O O1 0.597410 0.500000 0.816816
O O2 0.557209 0.216997 0.779013
O O3 0.676190 0.211611 0.815208
O O4 0.575045 0.222727 0.864780
O O5 0.942488 0.212682 0.206794
O O6 0.224656 0.278534 0.500000
O O7 0.139522 0.285774 0.436417
O O8 0.273170 0.281907 0.421236
O O9 0.212031 0.000000 0.450854
O O10 0.254048 0.500000 0.808811
O O11 0.250000 0.250000 0.750000
O O12 0.184346 0.212607 0.816698
O O13 0.105075 0.500000 0.824884
O O14 0.106334 0.779711 0.876069
O O15 0.500000 0.217758 0.068795
O O16 0.573240 0.500000 0.084786
O O17 0.113749 0.216652 0.958559
O O18 0.076652 0.500000 0.000000
O O19 0.000000 0.216050 0.000000
O O20 0.348676 0.000000 0.414756
#
# Coordination Sequence:
#
# PCOD9519324 Si02
#       8
#    16   8  16  16  16  16   8  16
#     4  10  19  32  49  65  87 124 167 205 240 285
#     4  12  20  30  46  65  92 115 163 203 250 286
#     4   9  15  24  39  58  80 110 150 190 225 268
#     4  10  19  34  50  68  92 125 167 207 247 294
#     4  10  21  32  45  65  92 124 159 200 247 293
#     4   9  16  25  38  58  83 113 150 190 228 269
#     4   9  16  24  38  56  75 105 147 185 222 269
#     4   9  16  28  41  56  80 114 153 189 225 282
#
# _framework density 24.096146000000001
#
# number of rings (size 3 to 8) (size 9 to 14) (size 15 to 20)
#    0.000    2.357    2.857    1.286    1.000    3.714 
#    0.000    1.429    0.000    0.000    0.000    0.000 
#    0.000    0.000    0.000    8.357    1.286   14.714 
#
# Total GULP energy -311914.520878 kJ/mol
# GULP energy per Si atom -5569.902159 kJ/mol
# Density = 2.404130 g / cm^3
# Si number density = 24.096146 Si / 1000 Ang^3
#
#
#
# Elastic Constant Matrix: (Units=GPa)
#
#
# Indices 1 2 3 4 5 6 
#
# 1 170.6860 4.8130 28.7339 0.0000 0.0000 0.0000
# 2 4.8130 110.5538 -2.8320 0.0000 0.0000 0.0000
# 3 28.7339 -2.8320 106.1702 0.0000 0.0000 0.0000
# 4 0.0000 0.0000 0.0000 -8.2628 0.0000 0.0000
# 5 0.0000 0.0000 0.0000 0.0000 24.6048 0.0000
# 6 0.0000 0.0000 0.0000 0.0000 0.0000 -39.7477
#
#
#
# Elastic Compliance Matrix: (Units=1/GPa)
#
#
# Indices 1 2 3 4 5 6 
#
# 1 0.006149 -0.000311 -0.001672 0.000000 0.000000 0.000000
# 2 -0.000311 0.009067 0.000326 0.000000 0.000000 0.000000
# 3 -0.001672 0.000326 0.009880 0.000000 0.000000 0.000000
# 4 0.000000 0.000000 0.000000 -0.121024 0.000000 0.000000
# 5 0.000000 0.000000 0.000000 0.000000 0.040643 0.000000
# 6 0.000000 0.000000 0.000000 0.000000 0.000000 -0.025159
#
#
# Mechanical properties :
#
#
# Convention : Reuss Voigt Hill
#
# Bulk Modulus (GPa) = 45.90899 49.87112 47.89005
# Shear Modulus (GPa) = -71.56305 19.09851 -26.23227
#
# Velocity S-wave (km/s) = -5.45559 2.81836 -3.30305
# Velocity P-wave (km/s) = 4.53771 5.59755 2.31751
#
# Compressibility (1/GPa) = 0.02178223
#
# Stress axis : x y z
#
# Youngs Moduli (GPa) = 162.62771 110.28717 101.21291
#
# Poissons Ratio (x) = 0.03425 0.16927
# Poissons Ratio (y) = 0.05050 -0.03299
# Poissons Ratio (z) = 0.27199 -0.03594
#
# Static dielectric constant tensor:
#      x y z
#    x 2.354060 0.000000 0.000000 
#    y 0.000000 6.031170 0.000000 
#    z 0.000000 0.000000 1.862820 
# 
# From -- ./inp_files/70605.got.cif
#   From: 2010.05.17/outbox.cif.g08.bks.cpg/sg71_36_cif.got.tgz:70605.got - 2010.06.03 16:22:01.
