data_PCOD9519796
_publ_section_title
;
Structure prediction by ZEFSAII (Michael W. Deem and Ramdas Pophale) SiO2 
 PCOD9519796
Probable space group: I M M M
;
_chemical_formula_sum "Si O2"
_cell_formula_units_Z 96
_cell_length_a 10.944084
_cell_length_b 16.881243
_cell_length_c 28.988913
_cell_angle_alpha 90.000000
_cell_angle_beta 90.000000
_cell_angle_gamma 90.000000
_cell_volume 5355.694181
_symmetry_space_group_name_H-M "I M M M"
_symmetry_group_IT_number 71
_symmetry_cell_setting 'orthorhombic'
loop_
_space_group_symop_operation_xyz
x,y,z
-x,-y,z
x,-y,-z
-x,y,-z
-x,-y,-z
x,y,-z
-x,y,z
x,-y,z
1/2+x,1/2+y,1/2+z
1/2-x,1/2-y,1/2+z
1/2+x,1/2-y,1/2-z
1/2-x,1/2+y,1/2-z
1/2-x,1/2-y,1/2-z
1/2+x,1/2+y,1/2-z
1/2-x,1/2+y,1/2+z
1/2+x,1/2-y,1/2+z
loop_
_atom_site_type_symbol
_atom_site_label
_atom_site_fract_x
_atom_site_fract_y
_atom_site_fract_z
Si Si1 0.648092 0.089279 0.141702
Si Si2 0.852431 0.316805 0.553148
Si Si3 0.145527 0.690825 0.269860
Si Si4 0.251437 0.844993 0.594248
Si Si5 0.357184 0.500000 0.051159
Si Si6 0.857509 0.591851 0.819161
Si Si7 0.500000 0.092133 0.554773
O O1 0.500000 0.087105 0.142360
O O2 0.685601 0.117012 0.090446
O O3 0.680101 0.154560 0.180354
O O4 0.691469 0.000000 0.152047
O O5 0.811295 0.327216 0.500000
O O6 0.806773 0.234038 0.574417
O O7 0.000000 0.315502 0.552339
O O8 0.250000 0.750000 0.250000
O O9 0.147734 0.618302 0.233549
O O10 0.000000 0.718478 0.270887
O O11 0.176616 0.921317 0.578114
O O12 0.274256 0.852404 0.648881
O O13 0.382375 0.861434 0.571748
O O14 0.500000 0.500000 0.045256
O O15 0.296851 0.500000 0.000000
O O16 0.823671 0.500000 0.825486
O O17 0.000000 0.600358 0.833292
O O18 0.500000 0.089185 0.500000
O O19 0.500000 0.000000 0.571418
#
# Coordination Sequence:
#
# PCOD9519796 Si02
#       7
#    16  16  16  16   8  16   8
#     4   9  18  35  59  85 109 141 186 231 276 330
#     4  10  21  35  52  77 110 143 178 227 283 337
#     4  10  20  35  58  86 115 145 179 224 278 334
#     4  12  20  33  49  72 105 140 184 229 272 324
#     4  11  22  33  47  67 101 152 193 223 274 339
#     4  10  19  33  52  77 105 139 180 224 267 316
#     4  11  20  30  46  68  95 135 185 235 271 305
#
# _framework density 17.924847
#
# number of rings (size 3 to 8) (size 9 to 14) (size 15 to 20)
#    0.000    1.667    2.500    3.500    0.000    3.667 
#    0.000    2.500    0.000    1.500    0.000    0.000 
#    0.000    2.000    0.000    0.000    0.000    0.000 
#
# Total GULP energy -267552.332524 kJ/mol
# GULP energy per Si atom -5574.006928 kJ/mol
# Density = 1.788405 g / cm^3
# Si number density = 17.924847 Si / 1000 Ang^3
#
#
#
# Elastic Constant Matrix: (Units=GPa)
#
#
# Indices 1 2 3 4 5 6 
#
# 1 48.5231 21.0170 16.3075 0.0000 0.0000 0.0000
# 2 21.0170 82.4897 31.6944 0.0000 0.0000 0.0000
# 3 16.3075 31.6944 118.6446 0.0000 0.0000 0.0000
# 4 0.0000 0.0000 0.0000 30.8980 0.0000 0.0000
# 5 0.0000 0.0000 0.0000 0.0000 22.4352 0.0000
# 6 0.0000 0.0000 0.0000 0.0000 0.0000 13.9004
#
#
#
# Elastic Compliance Matrix: (Units=1/GPa)
#
#
# Indices 1 2 3 4 5 6 
#
# 1 0.023512 -0.005292 -0.001818 0.000000 0.000000 0.000000
# 2 -0.005292 0.014700 -0.003200 0.000000 0.000000 0.000000
# 3 -0.001818 -0.003200 0.009533 0.000000 0.000000 0.000000
# 4 0.000000 0.000000 0.000000 0.032365 0.000000 0.000000
# 5 0.000000 0.000000 0.000000 0.000000 0.044573 0.000000
# 6 0.000000 0.000000 0.000000 0.000000 0.000000 0.071940
#
#
# Mechanical properties :
#
#
# Convention : Reuss Voigt Hill
#
# Bulk Modulus (GPa) = 36.86465 43.07724 39.97095
# Shear Modulus (GPa) = 22.09611 25.48929 23.79270
#
# Velocity S-wave (km/s) = 3.51480 3.77504 3.64725
# Velocity P-wave (km/s) = 6.08955 6.56396 6.33120
#
# Compressibility (1/GPa) = 0.02712626
#
# Stress axis : x y z
#
# Youngs Moduli (GPa) = 42.53183 68.02542 104.89694
#
# Poissons Ratio (x) = 0.35998 0.19070
# Poissons Ratio (y) = 0.22507 0.33563
# Poissons Ratio (z) = 0.07732 0.21766
#
# Static dielectric constant tensor:
#      x y z
#    x 1.579580 0.000000 0.000000 
#    y 0.000000 1.584270 0.000000 
#    z 0.000000 0.000000 1.667970 
# 
# From -- ./inp_files/69289.got.cif
#   From: 2010.05.17/outbox.cif.g08.bks.cpg/sg71_35_cif.got.tgz:69289.got - 2010.06.03 16:22:01.
