data_PCOD9519088
_publ_section_title
;
Structure prediction by ZEFSAII (Michael W. Deem and Ramdas Pophale) SiO2 
 PCOD9519088
Probable space group: I M M M
;
_chemical_formula_sum "Si O2"
_cell_formula_units_Z 96
_cell_length_a 26.599765
_cell_length_b 19.857919
_cell_length_c 10.526455
_cell_angle_alpha 90.000000
_cell_angle_beta 90.000000
_cell_angle_gamma 90.000000
_cell_volume 5560.241731
_symmetry_space_group_name_H-M "I M M M"
_symmetry_group_IT_number 71
_symmetry_cell_setting 'orthorhombic'
loop_
_space_group_symop_operation_xyz
x,y,z
-x,-y,z
x,-y,-z
-x,y,-z
-x,-y,-z
x,y,-z
-x,y,z
x,-y,z
1/2+x,1/2+y,1/2+z
1/2-x,1/2-y,1/2+z
1/2+x,1/2-y,1/2-z
1/2-x,1/2+y,1/2-z
1/2-x,1/2-y,1/2-z
1/2+x,1/2+y,1/2-z
1/2-x,1/2+y,1/2+z
1/2+x,1/2-y,1/2+z
loop_
_atom_site_type_symbol
_atom_site_label
_atom_site_fract_x
_atom_site_fract_y
_atom_site_fract_z
Si Si1 0.389781 0.706814 0.146451
Si Si2 0.774315 0.576354 0.263649
Si Si3 0.662183 0.575669 0.846596
Si Si4 0.217480 0.279770 0.363067
Si Si5 0.380371 0.079020 0.642278
Si Si6 0.941324 0.336453 0.651420
O O1 0.373848 0.635030 0.203693
O O2 0.338554 0.750771 0.148491
O O3 0.431419 0.758910 0.193423
O O4 0.403454 0.692784 0.000000
O O5 0.777532 0.500000 0.316900
O O6 0.719194 0.583921 0.202284
O O7 0.781898 0.639592 0.355214
O O8 0.820253 0.582987 0.164553
O O9 0.645470 0.500000 0.813647
O O10 0.664157 0.580853 0.000000
O O11 0.237561 0.257365 0.500000
O O12 0.250000 0.250000 0.250000
O O13 0.392643 0.103960 0.500000
O O14 0.408305 0.117616 0.755611
O O15 0.393677 0.000000 0.648839
O O16 0.927465 0.342286 0.500000
O O17 0.000000 0.353237 0.661986
#
# Coordination Sequence:
#
# PCOD9519088 Si02
#       6
#    16  16  16  16  16  16
#     4   9  17  31  49  71  98 129 167 207 249 297
#     4  10  19  31  48  73 106 141 172 201 242 299
#     4   9  16  27  47  74 104 136 165 195 237 296
#     4  11  21  33  50  74 104 137 173 210 250 297
#     4  10  21  35  52  76 106 136 168 212 260 303
#     4  10  21  37  55  73  96 130 172 218 265 310
#
# _framework density 17.265436000000001
#
# number of rings (size 3 to 8) (size 9 to 14) (size 15 to 20)
#    0.000    2.167    3.333    0.500    0.000    4.000 
#    0.000    3.333    0.000    0.500    0.000    3.500 
#    0.000    0.000    0.000    1.500    0.000    1.667 
#
# Total GULP energy -267245.589594 kJ/mol
# GULP energy per Si atom -5567.616450 kJ/mol
# Density = 1.722614 g / cm^3
# Si number density = 17.265436 Si / 1000 Ang^3
#
#
#
# Elastic Constant Matrix: (Units=GPa)
#
#
# Indices 1 2 3 4 5 6 
#
# 1 32.2630 11.2244 21.8009 0.0000 0.0000 0.0000
# 2 11.2244 96.8358 27.8885 0.0000 0.0000 0.0000
# 3 21.8009 27.8885 70.9977 0.0000 0.0000 0.0000
# 4 0.0000 0.0000 0.0000 18.6694 0.0000 0.0000
# 5 0.0000 0.0000 0.0000 0.0000 14.7187 0.0000
# 6 0.0000 0.0000 0.0000 0.0000 0.0000 17.2010
#
#
#
# Elastic Compliance Matrix: (Units=1/GPa)
#
#
# Indices 1 2 3 4 5 6 
#
# 1 0.039237 -0.001216 -0.011571 0.000000 0.000000 0.000000
# 2 -0.001216 0.011682 -0.004215 0.000000 0.000000 0.000000
# 3 -0.011571 -0.004215 0.019294 0.000000 0.000000 0.000000
# 4 0.000000 0.000000 0.000000 0.053564 0.000000 0.000000
# 5 0.000000 0.000000 0.000000 0.000000 0.067941 0.000000
# 6 0.000000 0.000000 0.000000 0.000000 0.000000 0.058136
#
#
# Mechanical properties :
#
#
# Convention : Reuss Voigt Hill
#
# Bulk Modulus (GPa) = 27.61765 35.76935 31.69350
# Shear Modulus (GPa) = 16.89611 19.39666 18.14638
#
# Velocity S-wave (km/s) = 3.13167 3.35541 3.24547
# Velocity P-wave (km/s) = 5.39510 5.98114 5.69566
#
# Compressibility (1/GPa) = 0.03620873
#
# Stress axis : x y z
#
# Youngs Moduli (GPa) = 25.48623 85.60412 51.83017
#
# Poissons Ratio (x) = 0.10407 0.59971
# Poissons Ratio (y) = 0.03098 0.21848
# Poissons Ratio (z) = 0.29490 0.36085
#
# Static dielectric constant tensor:
#      x y z
#    x 1.574910 0.000000 0.000000 
#    y 0.000000 1.640880 0.000000 
#    z 0.000000 0.000000 1.591430 
# 
# From -- ./inp_files/26373.got.cif
#   From: 2010.05.17/outbox.cif.g08.bks.cpg/sg71_14_cif.got.tgz:26373.got - 2010.06.03 16:22:01.
