data_PCOD9519320
_publ_section_title
;
Structure prediction by ZEFSAII (Michael W. Deem and Ramdas Pophale) SiO2 
 PCOD9519320
Probable space group: I M M M
;
_chemical_formula_sum "Si O2"
_cell_formula_units_Z 92
_cell_length_a 25.590612
_cell_length_b 7.460560
_cell_length_c 29.445825
_cell_angle_alpha 90.000000
_cell_angle_beta 90.000000
_cell_angle_gamma 90.000000
_cell_volume 5621.805633
_symmetry_space_group_name_H-M "I M M M"
_symmetry_group_IT_number 71
_symmetry_cell_setting 'orthorhombic'
loop_
_space_group_symop_operation_xyz
x,y,z
-x,-y,z
x,-y,-z
-x,y,-z
-x,-y,-z
x,y,-z
-x,y,z
x,-y,z
1/2+x,1/2+y,1/2+z
1/2-x,1/2-y,1/2+z
1/2+x,1/2-y,1/2-z
1/2-x,1/2+y,1/2-z
1/2-x,1/2-y,1/2-z
1/2+x,1/2+y,1/2-z
1/2-x,1/2+y,1/2+z
1/2+x,1/2-y,1/2+z
loop_
_atom_site_type_symbol
_atom_site_label
_atom_site_fract_x
_atom_site_fract_y
_atom_site_fract_z
Si Si1 0.058465 0.787047 0.716388
Si Si2 0.249336 0.786830 0.323505
Si Si3 0.289076 0.706969 0.081547
Si Si4 0.595862 0.214996 0.885956
Si Si5 0.284765 0.000000 0.000000
Si Si6 0.833754 0.784730 0.249227
Si Si7 0.500000 0.218791 0.948201
O O1 0.076136 0.761375 0.664257
O O2 0.107217 0.716628 0.745797
O O3 0.000000 0.712935 0.723109
O O4 0.055210 0.000000 0.724562
O O5 0.244812 0.725679 0.375184
O O6 0.203199 0.715528 0.290415
O O7 0.303168 0.753708 0.297111
O O8 0.241626 0.000000 0.325849
O O9 0.275336 0.500000 0.069959
O O10 0.348276 0.707194 0.101094
O O11 0.285961 0.842315 0.039859
O O12 0.551545 0.275030 0.921301
O O13 0.600340 0.000000 0.888929
O O14 0.835620 0.000000 0.253893
O O15 0.500000 0.000000 0.948143
O O16 0.500000 0.278313 0.000000
#
# Coordination Sequence:
#
# PCOD9519320 Si02
#       7
#    16  16  16  16   4  16   8
#     4  10  19  32  48  69 101 137 174 216 264 317
#     4   9  18  32  50  74 100 128 163 213 263 309
#     4  11  23  39  56  75 103 132 173 221 266 318
#     4  11  20  32  50  68  92 129 172 220 272 314
#     4  12  26  40  56  79  98 140 177 218 276 316
#     4   9  17  29  48  73  99 130 170 210 258 317
#     4   9  20  32  45  61  87 119 168 228 268 310
#
# _framework density 16.364849
#
# number of rings (size 3 to 8) (size 9 to 14) (size 15 to 20)
#    0.000    2.000    3.478    0.783    2.435    0.696 
#    0.000    0.000    0.000    2.087    0.000    0.000 
#    0.000    0.000    0.000    1.565    0.000    7.739 
#
# Total GULP energy -256142.076715 kJ/mol
# GULP energy per Si atom -5568.306016 kJ/mol
# Density = 1.632760 g / cm^3
# Si number density = 16.364849 Si / 1000 Ang^3
#
#
#
# Elastic Constant Matrix: (Units=GPa)
#
#
# Indices 1 2 3 4 5 6 
#
# 1 94.5723 16.7849 84.8545 0.0000 0.0000 0.0000
# 2 16.7849 76.1652 20.3556 0.0000 0.0000 0.0000
# 3 84.8545 20.3556 107.6829 0.0000 0.0000 0.0000
# 4 0.0000 0.0000 0.0000 23.7019 0.0000 0.0000
# 5 0.0000 0.0000 0.0000 0.0000 -205.1591 0.0000
# 6 0.0000 0.0000 0.0000 0.0000 0.0000 7.8407
#
#
#
# Elastic Compliance Matrix: (Units=1/GPa)
#
#
# Indices 1 2 3 4 5 6 
#
# 1 0.036102 -0.000372 -0.028378 0.000000 0.000000 0.000000
# 2 -0.000372 0.013832 -0.002322 0.000000 0.000000 0.000000
# 3 -0.028378 -0.002322 0.032088 0.000000 0.000000 0.000000
# 4 0.000000 0.000000 0.000000 0.042191 0.000000 0.000000
# 5 0.000000 0.000000 0.000000 0.000000 -0.004874 0.000000
# 6 0.000000 0.000000 0.000000 0.000000 0.000000 0.127540
#
#
# Mechanical properties :
#
#
# Convention : Reuss Voigt Hill
#
# Bulk Modulus (GPa) = 50.30696 58.04559 54.17628
# Shear Modulus (GPa) = 15.84043 -24.29495 -4.22726
#
# Velocity S-wave (km/s) = 3.11457 -3.85721 -1.60896
# Velocity P-wave (km/s) = 6.61375 3.96349 5.45211
#
# Compressibility (1/GPa) = 0.01987796
#
# Stress axis : x y z
#
# Youngs Moduli (GPa) = 27.69905 72.29727 31.16456
#
# Poissons Ratio (x) = 0.02687 0.88440
# Poissons Ratio (y) = 0.01030 0.07236
# Poissons Ratio (z) = 0.78606 0.16786
#
# Static dielectric constant tensor:
#      x y z
#    x 1.561680 0.000000 0.000000 
#    y 0.000000 1.606990 0.000000 
#    z 0.000000 0.000000 1.541170 
# 
# From -- ./inp_files/67049.got.cif
#   From: 2010.05.17/outbox.cif.g08.bks.cpg/sg71_34_cif.got.tgz:67049.got - 2010.06.03 16:22:01.
