data_PCOD9519013
_publ_section_title
;
Structure prediction by ZEFSAII (Michael W. Deem and Ramdas Pophale) SiO2 
 PCOD9519013
Probable space group: I M M M
;
_chemical_formula_sum "Si O2"
_cell_formula_units_Z 96
_cell_length_a 30.709896
_cell_length_b 7.220617
_cell_length_c 19.809847
_cell_angle_alpha 90.000000
_cell_angle_beta 90.000000
_cell_angle_gamma 90.000000
_cell_volume 4392.722580
_symmetry_space_group_name_H-M "I M M M"
_symmetry_group_IT_number 71
_symmetry_cell_setting 'orthorhombic'
loop_
_space_group_symop_operation_xyz
x,y,z
-x,-y,z
x,-y,-z
-x,y,-z
-x,-y,-z
x,y,-z
-x,y,z
x,-y,z
1/2+x,1/2+y,1/2+z
1/2-x,1/2-y,1/2+z
1/2+x,1/2-y,1/2-z
1/2-x,1/2+y,1/2-z
1/2-x,1/2-y,1/2-z
1/2+x,1/2+y,1/2-z
1/2-x,1/2+y,1/2+z
1/2+x,1/2-y,1/2+z
loop_
_atom_site_type_symbol
_atom_site_label
_atom_site_fract_x
_atom_site_fract_y
_atom_site_fract_z
Si Si1 0.675541 0.775777 0.424568
Si Si2 0.950399 0.275215 0.578591
Si Si3 0.073082 0.724455 0.071955
Si Si4 0.879294 0.275578 0.313382
Si Si5 0.201059 0.719861 0.225603
Si Si6 0.545630 0.224816 0.285606
O O1 0.691747 0.715348 0.500000
O O2 0.624191 0.730525 0.422629
O O3 0.694563 0.711862 0.352088
O O4 0.679324 0.000000 0.425261
O O5 0.945009 0.227329 0.500000
O O6 0.951117 0.500000 0.583964
O O7 0.908087 0.214597 0.621738
O O8 0.000000 0.216811 0.598448
O O9 0.070615 0.500000 0.072202
O O10 0.048879 0.787505 0.137915
O O11 0.056316 0.788196 0.000000
O O12 0.876461 0.500000 0.319800
O O13 0.832519 0.212870 0.284131
O O14 0.911841 0.221298 0.253515
O O15 0.192639 0.500000 0.220942
O O16 0.250000 0.750000 0.250000
O O17 0.500000 0.283652 0.254761
O O18 0.546021 0.000000 0.284497
#
# Coordination Sequence:
#
# PCOD9519013 Si02
#       6
#    16  16  16  16  16  16
#     4   8  13  24  42  59  77 108 147 176 202 251
#     4   8  13  21  34  53  79 113 147 173 206 264
#     4   8  12  18  28  44  69 101 133 160 189 230
#     4   9  15  24  36  52  76 106 138 173 212 255
#     4  10  19  31  47  66  87 113 147 187 229 267
#     4   9  14  18  27  46  73 103 130 157 195 243
#
# _framework density 21.854327000000001
#
# number of rings (size 3 to 8) (size 9 to 14) (size 15 to 20)
#    0.000    3.333    1.667    2.000    0.000    2.333 
#    0.000    2.500    0.000    1.500    0.000    0.000 
#    0.000    2.667    0.000    1.833    0.000    7.000 
#
# Total GULP energy -267329.561501 kJ/mol
# GULP energy per Si atom -5569.365865 kJ/mol
# Density = 2.180459 g / cm^3
# Si number density = 21.854327 Si / 1000 Ang^3
#
#
#
# Elastic Constant Matrix: (Units=GPa)
#
#
# Indices 1 2 3 4 5 6 
#
# 1 161.8078 -1.6742 90.1417 0.0000 0.0000 0.0000
# 2 -1.6742 101.1353 2.5126 0.0000 0.0000 0.0000
# 3 90.1417 2.5126 184.7124 0.0000 0.0000 0.0000
# 4 0.0000 0.0000 0.0000 -27.3446 0.0000 0.0000
# 5 0.0000 0.0000 0.0000 0.0000 43.8250 0.0000
# 6 0.0000 0.0000 0.0000 0.0000 0.0000 -14.5176
#
#
#
# Elastic Compliance Matrix: (Units=1/GPa)
#
#
# Indices 1 2 3 4 5 6 
#
# 1 0.008494 0.000244 -0.004148 0.000000 0.000000 0.000000
# 2 0.000244 0.009898 -0.000254 0.000000 0.000000 0.000000
# 3 -0.004148 -0.000254 0.007442 0.000000 0.000000 0.000000
# 4 0.000000 0.000000 0.000000 -0.036570 0.000000 0.000000
# 5 0.000000 0.000000 0.000000 0.000000 0.022818 0.000000
# 6 0.000000 0.000000 0.000000 0.000000 0.000000 -0.068882
#
#
# Mechanical properties :
#
#
# Convention : Reuss Voigt Hill
#
# Bulk Modulus (GPa) = 57.08730 69.95732 63.52231
# Shear Modulus (GPa) = -117.24631 24.17091 -46.53770
#
# Velocity S-wave (km/s) = -7.33249 3.32927 -4.61960
# Velocity P-wave (km/s) = 6.74603 6.84536 0.82160
#
# Compressibility (1/GPa) = 0.01751703
#
# Stress axis : x y z
#
# Youngs Moduli (GPa) = 117.73442 101.02974 134.37778
#
# Poissons Ratio (x) = -0.02462 0.55744
# Poissons Ratio (y) = -0.02869 0.03407
# Poissons Ratio (z) = 0.48840 0.02562
#
# Static dielectric constant tensor:
#      x y z
#    x 1.737090 0.000000 0.000000 
#    y 0.000000 1.866190 0.000000 
#    z 0.000000 0.000000 1.825760 
# 
# From -- ./inp_files/26361.got.cif
#   From: 2010.05.17/outbox.cif.g08.bks.cpg/sg71_14_cif.got.tgz:26361.got - 2010.06.03 16:22:01.
