data_PCOD9519495
_publ_section_title
;
Structure prediction by ZEFSAII (Michael W. Deem and Ramdas Pophale) SiO2 
 PCOD9519495
Probable space group: I M M M
;
_chemical_formula_sum "Si O2"
_cell_formula_units_Z 72
_cell_length_a 14.111334
_cell_length_b 30.285124
_cell_length_c 7.437977
_cell_angle_alpha 90.000000
_cell_angle_beta 90.000000
_cell_angle_gamma 90.000000
_cell_volume 3178.719884
_symmetry_space_group_name_H-M "I M M M"
_symmetry_group_IT_number 71
_symmetry_cell_setting 'orthorhombic'
loop_
_space_group_symop_operation_xyz
x,y,z
-x,-y,z
x,-y,-z
-x,y,-z
-x,-y,-z
x,y,-z
-x,y,z
x,-y,z
1/2+x,1/2+y,1/2+z
1/2-x,1/2-y,1/2+z
1/2+x,1/2-y,1/2-z
1/2-x,1/2+y,1/2-z
1/2-x,1/2-y,1/2-z
1/2+x,1/2+y,1/2-z
1/2-x,1/2+y,1/2+z
1/2+x,1/2-y,1/2+z
loop_
_atom_site_type_symbol
_atom_site_label
_atom_site_fract_x
_atom_site_fract_y
_atom_site_fract_z
Si Si1 0.804374 0.313625 0.218633
Si Si2 0.607070 0.448939 0.717147
Si Si3 0.103659 0.222324 0.289023
Si Si4 0.610893 0.000000 0.282028
Si Si5 0.801576 0.410139 0.792455
O O1 0.874551 0.274529 0.272541
O O2 0.698325 0.300925 0.283922
O O3 0.828550 0.362640 0.283586
O O4 0.802412 0.313975 0.000000
O O5 0.609565 0.448124 0.500000
O O6 0.500000 0.437795 0.773375
O O7 0.626200 0.500000 0.772563
O O8 0.688347 0.417000 0.786585
O O9 0.100640 0.211381 0.500000
O O10 0.000000 0.211738 0.212144
O O11 0.656507 0.954889 0.211153
O O12 0.500000 0.000000 0.247346
O O13 0.625621 0.000000 0.500000
O O14 0.833027 0.409257 0.000000
#
# Coordination Sequence:
#
# PCOD9519495 Si02
#       5
#    16  16  16   8  16
#     4   9  19  33  51  77 103 129 166 211 255 300
#     4   9  18  32  49  70  99 135 169 203 248 296
#     4   9  18  34  53  72  99 133 165 204 256 308
#     4   9  18  32  48  69 100 134 167 205 248 291
#     4  10  19  32  52  76 101 132 171 212 251 292
#
# _framework density 22.650627
#
# number of rings (size 3 to 8) (size 9 to 14) (size 15 to 20)
#    0.000    2.778    1.111    0.667    0.000    3.556 
#    0.000    5.556    0.000    1.333    0.000    0.000 
#    0.000    0.000    0.000    0.000    0.000    0.000 
#
# Total GULP energy -200975.405094 kJ/mol
# GULP energy per Si atom -5582.650141 kJ/mol
# Density = 2.259907 g / cm^3
# Si number density = 22.650627 Si / 1000 Ang^3
#
#
#
# Elastic Constant Matrix: (Units=GPa)
#
#
# Indices 1 2 3 4 5 6 
#
# 1 48.1211 -4.2959 -4.3223 0.0048 -0.0018 0.0004
# 2 -4.2959 91.6151 -4.2099 -0.0026 -0.0016 0.0006
# 3 -4.3223 -4.2099 73.4658 0.0025 0.0084 0.0030
# 4 0.0048 -0.0026 0.0025 -70.5557 -0.0161 -0.0104
# 5 -0.0018 -0.0016 0.0084 -0.0161 23.4616 -0.0022
# 6 0.0004 0.0006 0.0030 -0.0104 -0.0022 3.3576
#
#
#
# Elastic Compliance Matrix: (Units=1/GPa)
#
#
# Indices 1 2 3 4 5 6 
#
# 1 0.020990 0.001044 0.001295 0.000001 0.000001 -0.000004
# 2 0.001044 0.010996 0.000692 0.000000 0.000001 -0.000003
# 3 0.001295 0.000692 0.013728 0.000001 -0.000005 -0.000012
# 4 0.000001 0.000000 0.000001 -0.014173 -0.000010 -0.000044
# 5 0.000001 0.000001 -0.000005 -0.000010 0.042623 0.000028
# 6 -0.000004 -0.000003 -0.000012 -0.000044 0.000028 0.297833
#
#
# Mechanical properties :
#
#
# Convention : Reuss Voigt Hill
#
# Bulk Modulus (GPa) = 19.31471 20.83842 20.07657
# Shear Modulus (GPa) = 13.04820 6.32138 9.68479
#
# Velocity S-wave (km/s) = 2.40274 1.67239 2.07003
# Velocity P-wave (km/s) = 4.03029 3.59848 3.82049
#
# Compressibility (1/GPa) = 0.05177400
#
# Stress axis : x y z
#
# Youngs Moduli (GPa) = 47.64089 90.94259 72.84609
#
# Poissons Ratio (x) = -0.09492 -0.09432
# Poissons Ratio (y) = -0.04973 -0.05037
# Poissons Ratio (z) = -0.06168 -0.06289
#
# Static dielectric constant tensor:
#      x y z
#    x 1.819510 0.000000 0.000000 
#    y 0.000000 1.839310 0.000000 
#    z 0.000000 0.000000 1.887600 
# 
# From -- ./inp_files/6080.got.cif
#   From: 2010.05.17/outbox.cif.g08.bks.cpg/sg71_4_cif.got.tgz:6080.got - 2010.06.03 16:22:01.
