data_PCOD9519385
_publ_section_title
;
Structure prediction by ZEFSAII (Michael W. Deem and Ramdas Pophale) SiO2 
 PCOD9519385
Probable space group: I M M M
;
_chemical_formula_sum "Si O2"
_cell_formula_units_Z 96
_cell_length_a 32.923012
_cell_length_b 13.753787
_cell_length_c 12.616360
_cell_angle_alpha 90.000000
_cell_angle_beta 90.000000
_cell_angle_gamma 90.000000
_cell_volume 5712.890861
_symmetry_space_group_name_H-M "I M M M"
_symmetry_group_IT_number 71
_symmetry_cell_setting 'orthorhombic'
loop_
_space_group_symop_operation_xyz
x,y,z
-x,-y,z
x,-y,-z
-x,y,-z
-x,-y,-z
x,y,-z
-x,y,z
x,-y,z
1/2+x,1/2+y,1/2+z
1/2-x,1/2-y,1/2+z
1/2+x,1/2-y,1/2-z
1/2-x,1/2+y,1/2-z
1/2-x,1/2-y,1/2-z
1/2+x,1/2+y,1/2-z
1/2-x,1/2+y,1/2+z
1/2+x,1/2-y,1/2+z
loop_
_atom_site_type_symbol
_atom_site_label
_atom_site_fract_x
_atom_site_fract_y
_atom_site_fract_z
Si Si1 0.757699 0.113088 0.124502
Si Si2 0.916444 0.783316 0.872689
Si Si3 0.842750 0.113530 0.245652
Si Si4 0.174107 0.703527 0.374482
Si Si5 0.595396 0.886334 0.212055
Si Si6 0.046791 0.381945 0.500000
Si Si7 0.500000 0.389748 0.371698
O O1 0.799914 0.124819 0.184881
O O2 0.720075 0.179369 0.159668
O O3 0.745038 0.000000 0.135515
O O4 0.764982 0.131553 0.000000
O O5 0.879293 0.848219 0.828388
O O6 0.914553 0.680480 0.812455
O O7 0.958889 0.834307 0.842708
O O8 0.913939 0.774428 0.000000
O O9 0.839305 0.187755 0.343517
O O10 0.848290 0.000000 0.271906
O O11 0.171858 0.687571 0.500000
O O12 0.142314 0.632492 0.317559
O O13 0.587537 0.000000 0.230425
O O14 0.570003 0.853220 0.107753
O O15 0.047131 0.500000 0.500000
O O16 0.000000 0.349601 0.500000
O O17 0.500000 0.500000 0.331162
O O18 0.500000 0.394162 0.500000
#
# Coordination Sequence:
#
# PCOD9519385 Si02
#       7
#    16  16  16  16  16   8   8
#     4   9  17  29  49  74  98 126 164 210 256 304
#     4  10  21  35  53  78 105 134 171 212 259 309
#     4  10  20  33  50  73 100 133 171 213 258 302
#     4  10  19  32  50  73 101 134 171 211 253 303
#     4  10  20  34  54  78 106 138 171 210 255 304
#     4   9  18  32  52  76 100 134 174 208 244 291
#     4   9  18  34  55  76  99 132 173 214 251 296
#
# _framework density 16.804100999999999
#
# number of rings (size 3 to 8) (size 9 to 14) (size 15 to 20)
#    0.000    2.333    0.833    2.000    1.167    3.000 
#    0.000    0.000    0.000    1.500    0.000    5.250 
#    0.000    0.000    0.000    0.000    0.000    0.000 
#
# Total GULP energy -267570.593652 kJ/mol
# GULP energy per Si atom -5574.387368 kJ/mol
# Density = 1.676585 g / cm^3
# Si number density = 16.804101 Si / 1000 Ang^3
#
#
#
# Elastic Constant Matrix: (Units=GPa)
#
#
# Indices 1 2 3 4 5 6 
#
# 1 102.0952 31.4805 17.8105 0.0000 0.0000 0.0000
# 2 31.4805 85.7248 16.7843 0.0000 0.0000 0.0000
# 3 17.8105 16.7843 25.9753 0.0000 0.0000 0.0000
# 4 0.0000 0.0000 0.0000 11.1609 0.0000 0.0000
# 5 0.0000 0.0000 0.0000 0.0000 18.7571 0.0000
# 6 0.0000 0.0000 0.0000 0.0000 0.0000 21.2116
#
#
#
# Elastic Compliance Matrix: (Units=1/GPa)
#
#
# Indices 1 2 3 4 5 6 
#
# 1 0.011826 -0.003154 -0.006071 0.000000 0.000000 0.000000
# 2 -0.003154 0.014196 -0.007010 0.000000 0.000000 0.000000
# 3 -0.006071 -0.007010 0.047191 0.000000 0.000000 0.000000
# 4 0.000000 0.000000 0.000000 0.089599 0.000000 0.000000
# 5 0.000000 0.000000 0.000000 0.000000 0.053313 0.000000
# 6 0.000000 0.000000 0.000000 0.000000 0.000000 0.047144
#
#
# Mechanical properties :
#
#
# Convention : Reuss Voigt Hill
#
# Bulk Modulus (GPa) = 24.54450 38.43843 31.49146
# Shear Modulus (GPa) = 16.16446 20.07390 18.11918
#
# Velocity S-wave (km/s) = 3.10487 3.46002 3.28725
# Velocity P-wave (km/s) = 5.24324 6.23590 5.76099
#
# Compressibility (1/GPa) = 0.04074232
#
# Stress axis : x y z
#
# Youngs Moduli (GPa) = 84.55601 70.44158 21.19071
#
# Poissons Ratio (x) = 0.22220 0.12865
# Poissons Ratio (y) = 0.26672 0.14855
# Poissons Ratio (z) = 0.51333 0.49381
#
# Static dielectric constant tensor:
#      x y z
#    x 1.569140 0.000000 0.000000 
#    y 0.000000 1.561360 0.000000 
#    z 0.000000 0.000000 1.542430 
# 
# From -- ./inp_files/29988.got.cif
#   From: 2010.05.17/outbox.cif.g08.bks.cpg/sg71_15_cif.got.tgz:29988.got - 2010.06.03 16:22:01.
