data_PCOD9519490
_publ_section_title
;
Structure prediction by ZEFSAII (Michael W. Deem and Ramdas Pophale) SiO2 
 PCOD9519490
Probable space group: I M M M
;
_chemical_formula_sum "Si O2"
_cell_formula_units_Z 104
_cell_length_a 27.512255
_cell_length_b 24.138013
_cell_length_c 7.669888
_cell_angle_alpha 90.000000
_cell_angle_beta 90.000000
_cell_angle_gamma 90.000000
_cell_volume 5093.504887
_symmetry_space_group_name_H-M "I M M M"
_symmetry_group_IT_number 71
_symmetry_cell_setting 'orthorhombic'
loop_
_space_group_symop_operation_xyz
x,y,z
-x,-y,z
x,-y,-z
-x,y,-z
-x,-y,-z
x,y,-z
-x,y,z
x,-y,z
1/2+x,1/2+y,1/2+z
1/2-x,1/2-y,1/2+z
1/2+x,1/2-y,1/2-z
1/2-x,1/2+y,1/2-z
1/2-x,1/2-y,1/2-z
1/2+x,1/2+y,1/2-z
1/2-x,1/2+y,1/2+z
1/2+x,1/2-y,1/2+z
loop_
_atom_site_type_symbol
_atom_site_label
_atom_site_fract_x
_atom_site_fract_y
_atom_site_fract_z
Si Si1 0.212647 0.438003 0.794241
Si Si2 0.056065 0.737431 0.294312
Si Si3 0.589209 0.360818 0.711360
Si Si4 0.173780 0.061654 0.209571
Si Si5 0.051863 0.563017 0.712218
Si Si6 0.500000 0.437438 0.712566
Si Si7 0.631601 0.854432 0.790973
O O1 0.197159 0.500000 0.721492
O O2 0.269516 0.431767 0.750761
O O3 0.184099 0.381749 0.744116
O O4 0.207330 0.442073 0.000000
O O5 0.051901 0.724227 0.500000
O O6 0.073728 0.800469 0.275088
O O7 0.101029 0.699249 0.225681
O O8 0.000000 0.731242 0.224299
O O9 0.589854 0.357487 0.500000
O O10 0.639846 0.388142 0.771745
O O11 0.547469 0.403763 0.764772
O O12 0.158621 0.000000 0.273075
O O13 0.168727 0.060596 0.000000
O O14 0.053317 0.562902 0.500000
O O15 0.053374 0.500000 0.769814
O O16 0.096970 0.596540 0.775255
O O17 0.000000 0.588154 0.762389
O O18 0.500000 0.500000 0.775524
O O19 0.500000 0.438919 0.500000
O O20 0.630581 0.849667 0.000000
#
# Coordination Sequence:
#
# PCOD9519490 Si02
#       7
#    16  16  16  16  16   8  16
#     4  10  21  36  54  79 110 140 171 216 276 331
#     4  10  21  36  53  76 110 148 183 222 266 313
#     4  10  19  33  55  82 109 140 177 216 263 318
#     4   9  18  34  57  83 108 136 174 219 265 317
#     4   8  13  22  40  68  96 119 153 208 265 309
#     4   9  16  28  51  83 113 137 168 213 260 311
#     4  10  19  32  52  75  99 136 185 226 260 305
#
# _framework density 20.41816
#
# number of rings (size 3 to 8) (size 9 to 14) (size 15 to 20)
#    0.000    2.538    0.769    2.308    0.000    6.462 
#    0.000    0.769    0.000    3.231    0.000    5.385 
#    0.000    0.000    0.000    0.000    0.000    0.000 
#
# Total GULP energy -289544.966238 kJ/mol
# GULP energy per Si atom -5568.172428 kJ/mol
# Density = 2.037169 g / cm^3
# Si number density = 20.418160 Si / 1000 Ang^3
#
#
#
# Elastic Constant Matrix: (Units=GPa)
#
#
# Indices 1 2 3 4 5 6 
#
# 1 107.9459 72.2923 2.7259 0.0000 0.0000 0.0000
# 2 72.2923 132.4365 2.8989 0.0000 0.0000 0.0000
# 3 2.7259 2.8989 38.2095 0.0000 0.0000 0.0000
# 4 0.0000 0.0000 0.0000 18.8307 0.0000 0.0000
# 5 0.0000 0.0000 0.0000 0.0000 -15.7247 0.0000
# 6 0.0000 0.0000 0.0000 0.0000 0.0000 45.1803
#
#
#
# Elastic Compliance Matrix: (Units=1/GPa)
#
#
# Indices 1 2 3 4 5 6 
#
# 1 0.014609 -0.007965 -0.000438 0.000000 0.000000 0.000000
# 2 -0.007965 0.011906 -0.000335 0.000000 0.000000 0.000000
# 3 -0.000438 -0.000335 0.026228 0.000000 0.000000 0.000000
# 4 0.000000 0.000000 0.000000 0.053105 0.000000 0.000000
# 5 0.000000 0.000000 0.000000 0.000000 -0.063594 0.000000
# 6 0.000000 0.000000 0.000000 0.000000 0.000000 0.022134
#
#
# Mechanical properties :
#
#
# Convention : Reuss Voigt Hill
#
# Bulk Modulus (GPa) = 28.35489 48.26955 38.31222
# Shear Modulus (GPa) = 53.40763 23.03556 38.22159
#
# Velocity S-wave (km/s) = 5.11993 3.36250 4.33129
# Velocity P-wave (km/s) = 6.99063 6.22632 6.61951
#
# Compressibility (1/GPa) = 0.03526728
#
# Stress axis : x y z
#
# Youngs Moduli (GPa) = 68.44987 83.99151 38.12692
#
# Poissons Ratio (x) = 0.66900 0.01670
# Poissons Ratio (y) = 0.54521 0.01277
# Poissons Ratio (z) = 0.02998 0.02814
#
# Static dielectric constant tensor:
#      x y z
#    x 1.753800 0.000000 0.000000 
#    y 0.000000 1.740280 0.000000 
#    z 0.000000 0.000000 1.792820 
# 
# From -- ./inp_files/15301.got.cif
#   From: 2010.05.17/outbox.cif.g08.bks.cpg/sg71_8_cif.got.tgz:15301.got - 2010.06.03 16:22:01.
