data_PCOD9519918
_publ_section_title
;
Structure prediction by ZEFSAII (Michael W. Deem and Ramdas Pophale) SiO2 
 PCOD9519918
Probable space group: I M M M
;
_chemical_formula_sum "Si O2"
_cell_formula_units_Z 104
_cell_length_a 8.997535
_cell_length_b 22.637526
_cell_length_c 27.977830
_cell_angle_alpha 90.000000
_cell_angle_beta 90.000000
_cell_angle_gamma 90.000000
_cell_volume 5698.578482
_symmetry_space_group_name_H-M "I M M M"
_symmetry_group_IT_number 71
_symmetry_cell_setting 'orthorhombic'
loop_
_space_group_symop_operation_xyz
x,y,z
-x,-y,z
x,-y,-z
-x,y,-z
-x,-y,-z
x,y,-z
-x,y,z
x,-y,z
1/2+x,1/2+y,1/2+z
1/2-x,1/2-y,1/2+z
1/2+x,1/2-y,1/2-z
1/2-x,1/2+y,1/2-z
1/2-x,1/2-y,1/2-z
1/2+x,1/2+y,1/2-z
1/2-x,1/2+y,1/2+z
1/2+x,1/2-y,1/2+z
loop_
_atom_site_type_symbol
_atom_site_label
_atom_site_fract_x
_atom_site_fract_y
_atom_site_fract_z
Si Si1 0.320450 0.862512 0.554039
Si Si2 0.329893 0.846166 0.736296
Si Si3 0.681062 0.931679 0.649728
Si Si4 0.173903 0.741530 0.413401
Si Si5 0.668419 0.718994 0.684684
Si Si6 0.818401 0.000000 0.054761
Si Si7 0.831604 0.125514 0.056615
O O1 0.276146 0.881173 0.500000
O O2 0.500000 0.861259 0.555048
O O3 0.271492 0.903185 0.598881
O O4 0.260791 0.796918 0.564372
O O5 0.500000 0.862665 0.749474
O O6 0.274847 0.891438 0.695323
O O7 0.337002 0.780968 0.712963
O O8 0.227757 0.834170 0.782232
O O9 0.500000 0.930349 0.649518
O O10 0.727469 0.000000 0.653797
O O11 0.222116 0.732445 0.358685
O O12 0.225624 0.680370 0.436327
O O13 0.000000 0.751708 0.418485
O O14 0.500000 0.707294 0.668499
O O15 0.777423 0.937220 0.077596
O O16 0.000000 0.000000 0.053057
O O17 0.761480 0.000000 0.000000
O O18 0.000000 0.138363 0.073548
O O19 0.843345 0.115734 0.000000
#
# Coordination Sequence:
#
# PCOD9519918 Si02
#       7
#    16  16  16  16  16   8  16
#     4  10  20  35  54  78 111 149 190 233 275 323
#     4   9  17  32  54  81 108 131 165 212 266 323
#     4   9  17  32  56  84 112 143 181 228 281 333
#     4  12  23  33  49  76 110 144 181 222 271 323
#     4  10  19  33  55  79 104 133 169 213 263 320
#     4   7  12  26  49  73  93 121 165 209 249 303
#     4   9  17  31  52  75 100 133 172 213 260 315
#
# _framework density 18.250164999999999
#
# number of rings (size 3 to 8) (size 9 to 14) (size 15 to 20)
#    0.000    2.385    1.538    3.231    0.000    3.385 
#    0.000    1.923    1.692    3.231    0.000    1.077 
#    0.000    0.000    0.000    0.000    0.000    0.000 
#
# Total GULP energy -289553.770033 kJ/mol
# GULP energy per Si atom -5568.341731 kJ/mol
# Density = 1.820863 g / cm^3
# Si number density = 18.250165 Si / 1000 Ang^3
#
#
#
# Elastic Constant Matrix: (Units=GPa)
#
#
# Indices 1 2 3 4 5 6 
#
# 1 16.3249 8.6434 0.3297 0.0000 0.0000 0.0000
# 2 8.6434 91.1465 16.8180 0.0000 0.0000 0.0000
# 3 0.3297 16.8180 28.9081 0.0000 0.0000 0.0000
# 4 0.0000 0.0000 0.0000 22.1403 0.0000 0.0000
# 5 0.0000 0.0000 0.0000 0.0000 21.0532 0.0000
# 6 0.0000 0.0000 0.0000 0.0000 0.0000 4.9788
#
#
#
# Elastic Compliance Matrix: (Units=1/GPa)
#
#
# Indices 1 2 3 4 5 6 
#
# 1 0.064754 -0.006726 0.003175 0.000000 0.000000 0.000000
# 2 -0.006726 0.012989 -0.007480 0.000000 0.000000 0.000000
# 3 0.003175 -0.007480 0.038908 0.000000 0.000000 0.000000
# 4 0.000000 0.000000 0.000000 0.045167 0.000000 0.000000
# 5 0.000000 0.000000 0.000000 0.000000 0.047499 0.000000
# 6 0.000000 0.000000 0.000000 0.000000 0.000000 0.200850
#
#
# Mechanical properties :
#
#
# Convention : Reuss Voigt Hill
#
# Bulk Modulus (GPa) = 10.57224 20.88462 15.72843
# Shear Modulus (GPa) = 10.78146 17.00703 13.89424
#
# Velocity S-wave (km/s) = 2.43319 3.05599 2.76220
# Velocity P-wave (km/s) = 3.70127 4.89085 4.33704
#
# Compressibility (1/GPa) = 0.09458731
#
# Stress axis : x y z
#
# Youngs Moduli (GPa) = 15.44318 76.98574 25.70162
#
# Poissons Ratio (x) = 0.51783 -0.08160
# Poissons Ratio (y) = 0.10388 0.19225
# Poissons Ratio (z) = -0.04903 0.57587
#
# Static dielectric constant tensor:
#      x y z
#    x 1.620820 0.000000 0.000000 
#    y 0.000000 1.646490 0.000000 
#    z 0.000000 0.000000 1.796930 
# 
# From -- ./inp_files/68299.got.cif
#   From: 2010.05.17/outbox.cif.g08.bks.cpg/sg71_35_cif.got.tgz:68299.got - 2010.06.03 16:22:01.
