data_PCOD9519137
_publ_section_title
;
Structure prediction by ZEFSAII (Michael W. Deem and Ramdas Pophale) SiO2 
 PCOD9519137
Probable space group: I M M M
;
_chemical_formula_sum "Si O2"
_cell_formula_units_Z 104
_cell_length_a 28.467775
_cell_length_b 7.709756
_cell_length_c 23.759504
_cell_angle_alpha 90.000000
_cell_angle_beta 90.000000
_cell_angle_gamma 90.000000
_cell_volume 5214.726413
_symmetry_space_group_name_H-M "I M M M"
_symmetry_group_IT_number 71
_symmetry_cell_setting 'orthorhombic'
loop_
_space_group_symop_operation_xyz
x,y,z
-x,-y,z
x,-y,-z
-x,y,-z
-x,-y,-z
x,y,-z
-x,y,z
x,-y,z
1/2+x,1/2+y,1/2+z
1/2-x,1/2-y,1/2+z
1/2+x,1/2-y,1/2-z
1/2-x,1/2+y,1/2-z
1/2-x,1/2-y,1/2-z
1/2+x,1/2+y,1/2-z
1/2-x,1/2+y,1/2+z
1/2+x,1/2-y,1/2+z
loop_
_atom_site_type_symbol
_atom_site_label
_atom_site_fract_x
_atom_site_fract_y
_atom_site_fract_z
Si Si1 0.793224 0.789061 0.672095
Si Si2 0.689902 0.795838 0.697620
Si Si3 0.553262 0.798554 0.798264
Si Si4 0.619453 0.301799 0.895834
Si Si5 0.587821 0.697351 0.677454
Si Si6 0.556124 0.706618 0.559902
Si Si7 0.555314 0.712860 0.000000
O O1 0.738476 0.738340 0.668415
O O2 0.806896 0.728973 0.734882
O O3 0.830404 0.725845 0.625134
O O4 0.795144 0.000000 0.672404
O O5 0.643864 0.697936 0.678536
O O6 0.683742 0.000000 0.686732
O O7 0.500000 0.734834 0.804265
O O8 0.588469 0.700280 0.839155
O O9 0.568967 0.785818 0.733676
O O10 0.554913 0.000000 0.815139
O O11 0.629376 0.500000 0.913127
O O12 0.585890 0.230040 0.945371
O O13 0.569477 0.500000 0.679731
O O14 0.573147 0.781206 0.618661
O O15 0.573719 0.777510 0.500000
O O16 0.500000 0.720163 0.559694
O O17 0.567643 0.500000 0.560519
O O18 0.553390 0.500000 0.000000
O O19 0.500000 0.768451 0.000000
#
# Coordination Sequence:
#
# PCOD9519137 Si02
#       7
#    16  16  16  16  16  16   8
#     4   9  18  32  51  75 100 132 172 210 251 305
#     4  10  19  31  49  74 107 136 164 206 256 305
#     4  11  23  35  48  73 108 139 167 206 259 311
#     4  10  19  34  56  78 101 133 176 220 262 312
#     4  11  20  31  51  78 103 132 170 210 255 305
#     4   8  15  29  49  72  97 127 166 210 250 292
#     4   9  18  32  53  81 107 133 171 223 274 315
#
# _framework density 19.943518999999998
#
# number of rings (size 3 to 8) (size 9 to 14) (size 15 to 20)
#    0.000    2.231    1.538    2.769    0.000    3.077 
#    0.000    0.385    1.692    3.231    0.000    5.385 
#    0.000    0.000    0.000    0.000    0.000    0.000 
#
# Total GULP energy -289894.528975 kJ/mol
# GULP energy per Si atom -5574.894788 kJ/mol
# Density = 1.989813 g / cm^3
# Si number density = 19.943519 Si / 1000 Ang^3
#
#
#
# Elastic Constant Matrix: (Units=GPa)
#
#
# Indices 1 2 3 4 5 6 
#
# 1 54.0943 -4.4824 -0.2264 0.0000 0.0000 0.0000
# 2 -4.4824 37.8797 -7.0454 0.0000 0.0000 0.0000
# 3 -0.2264 -7.0454 78.4817 0.0000 0.0000 0.0000
# 4 0.0000 0.0000 0.0000 -5.8649 0.0000 0.0000
# 5 0.0000 0.0000 0.0000 0.0000 35.5795 0.0000
# 6 0.0000 0.0000 0.0000 0.0000 0.0000 11.9892
#
#
#
# Elastic Compliance Matrix: (Units=1/GPa)
#
#
# Indices 1 2 3 4 5 6 
#
# 1 0.018674 0.002257 0.000257 0.000000 0.000000 0.000000
# 2 0.002257 0.027121 0.002441 0.000000 0.000000 0.000000
# 3 0.000257 0.002441 0.012962 0.000000 0.000000 0.000000
# 4 0.000000 0.000000 0.000000 -0.170506 0.000000 0.000000
# 5 0.000000 0.000000 0.000000 0.000000 0.028106 0.000000
# 6 0.000000 0.000000 0.000000 0.000000 0.000000 0.083408
#
#
# Mechanical properties :
#
#
# Convention : Reuss Voigt Hill
#
# Bulk Modulus (GPa) = 14.56303 16.32748 15.44526
# Shear Modulus (GPa) = 392.36545 20.48809 206.42677
#
# Velocity S-wave (km/s) = 14.04156 3.20864 10.18481
# Velocity P-wave (km/s) = 16.43792 4.68314 12.08588
#
# Compressibility (1/GPa) = 0.06866702
#
# Stress axis : x y z
#
# Youngs Moduli (GPa) = 53.54930 36.87238 77.15034
#
# Poissons Ratio (x) = -0.08324 -0.01979
# Poissons Ratio (y) = -0.12089 -0.18834
# Poissons Ratio (z) = -0.01374 -0.09001
#
# Static dielectric constant tensor:
#      x y z
#    x 1.715910 0.000000 0.000000 
#    y 0.000000 1.768570 0.000000 
#    z 0.000000 0.000000 1.704520 
# 
# From -- ./inp_files/56697.got.cif
#   From: 2010.05.17/outbox.cif.g08.bks.cpg/sg71_29_cif.got.tgz:56697.got - 2010.06.03 16:22:01.
