data_PCOD9519702
_publ_section_title
;
Structure prediction by ZEFSAII (Michael W. Deem and Ramdas Pophale) SiO2 
 PCOD9519702
Probable space group: I M M M
;
_chemical_formula_sum "Si O2"
_cell_formula_units_Z 88
_cell_length_a 32.896142
_cell_length_b 19.232764
_cell_length_c 8.136901
_cell_angle_alpha 90.000000
_cell_angle_beta 90.000000
_cell_angle_gamma 90.000000
_cell_volume 5148.084921
_symmetry_space_group_name_H-M "I M M M"
_symmetry_group_IT_number 71
_symmetry_cell_setting 'orthorhombic'
loop_
_space_group_symop_operation_xyz
x,y,z
-x,-y,z
x,-y,-z
-x,y,-z
-x,-y,-z
x,y,-z
-x,y,z
x,-y,z
1/2+x,1/2+y,1/2+z
1/2-x,1/2-y,1/2+z
1/2+x,1/2-y,1/2-z
1/2-x,1/2+y,1/2-z
1/2-x,1/2-y,1/2-z
1/2+x,1/2+y,1/2-z
1/2-x,1/2+y,1/2+z
1/2+x,1/2-y,1/2+z
loop_
_atom_site_type_symbol
_atom_site_label
_atom_site_fract_x
_atom_site_fract_y
_atom_site_fract_z
Si Si1 0.669243 0.297819 0.309662
Si Si2 0.662182 0.848543 0.190978
Si Si3 0.241578 0.000000 0.190117
Si Si4 0.751452 0.854489 0.685520
Si Si5 0.659975 0.000000 0.193183
Si Si6 0.395827 0.582213 0.305426
Si Si7 0.545858 0.416389 0.000000
O O1 0.680434 0.302682 0.500000
O O2 0.649079 0.223045 0.275504
O O3 0.711693 0.302469 0.213749
O O4 0.640242 0.362953 0.273141
O O5 0.711523 0.849158 0.203558
O O6 0.648061 0.923880 0.260999
O O7 0.650888 0.845603 0.000000
O O8 0.229011 0.929773 0.278211
O O9 0.290822 0.000000 0.198229
O O10 0.228772 0.000000 0.000000
O O11 0.736344 0.850143 0.500000
O O12 0.648792 0.000000 0.000000
O O13 0.407528 0.590042 0.500000
O O14 0.384721 0.500000 0.284563
O O15 0.429850 0.599743 0.168441
O O16 0.543073 0.500000 0.000000
O O17 0.500000 0.387851 0.000000
#
# Coordination Sequence:
#
# PCOD9519702 Si02
#       7
#    16  16   8  16   8  16   8
#     4  11  22  33  46  65  93 126 160 202 249 294
#     4  10  19  33  49  64  85 119 162 209 256 298
#     4   9  17  31  45  59  81 109 147 200 251 294
#     4  11  21  31  44  63  85 117 164 209 250 299
#     4   7  14  29  47  61  77 105 147 198 247 290
#     4   9  20  36  52  74 106 138 167 201 246 297
#     4   9  18  34  58  82 104 131 167 207 241 292
#
# _framework density 17.093734999999999
#
# number of rings (size 3 to 8) (size 9 to 14) (size 15 to 20)
#    0.000    2.273    0.000    4.636    3.818    0.364 
#    0.000    3.182    0.000    0.000    0.000    0.000 
#    0.000    0.000    0.000    1.636    0.000    7.273 
#
# Total GULP energy -245070.847251 kJ/mol
# GULP energy per Si atom -5569.791983 kJ/mol
# Density = 1.705483 g / cm^3
# Si number density = 17.093735 Si / 1000 Ang^3
#
#
#
# Elastic Constant Matrix: (Units=GPa)
#
#
# Indices 1 2 3 4 5 6 
#
# 1 37.1772 19.6720 20.0911 0.0000 0.0000 0.0000
# 2 19.6720 113.2809 4.9858 0.0000 0.0000 0.0000
# 3 20.0911 4.9858 40.6717 0.0000 0.0000 0.0000
# 4 0.0000 0.0000 0.0000 22.9641 0.0000 0.0000
# 5 0.0000 0.0000 0.0000 0.0000 12.6763 0.0000
# 6 0.0000 0.0000 0.0000 0.0000 0.0000 9.1201
#
#
#
# Elastic Compliance Matrix: (Units=1/GPa)
#
#
# Indices 1 2 3 4 5 6 
#
# 1 0.040611 -0.006203 -0.019301 0.000000 0.000000 0.000000
# 2 -0.006203 0.009823 0.001860 0.000000 0.000000 0.000000
# 3 -0.019301 0.001860 0.033893 0.000000 0.000000 0.000000
# 4 0.000000 0.000000 0.000000 0.043546 0.000000 0.000000
# 5 0.000000 0.000000 0.000000 0.000000 0.078887 0.000000
# 6 0.000000 0.000000 0.000000 0.000000 0.000000 0.109648
#
#
# Mechanical properties :
#
#
# Convention : Reuss Voigt Hill
#
# Bulk Modulus (GPa) = 26.99792 31.18085 29.08938
# Shear Modulus (GPa) = 13.29639 18.71082 16.00361
#
# Velocity S-wave (km/s) = 2.79202 3.31207 3.06310
# Velocity P-wave (km/s) = 5.12076 5.73647 5.43734
#
# Compressibility (1/GPa) = 0.03703989
#
# Stress axis : x y z
#
# Youngs Moduli (GPa) = 24.62407 101.80271 29.50440
#
# Poissons Ratio (x) = 0.63147 0.56945
# Poissons Ratio (y) = 0.15274 -0.05488
# Poissons Ratio (z) = 0.47526 -0.18935
#
# Static dielectric constant tensor:
#      x y z
#    x 1.546310 0.000000 0.000000 
#    y 0.000000 1.692770 0.000000 
#    z 0.000000 0.000000 1.608980 
# 
# From -- ./inp_files/16735.got.cif
#   From: 2010.05.17/outbox.cif.g08.bks.cpg/sg71_9_cif.got.tgz:16735.got - 2010.06.03 16:22:01.
