data_PCOD9519434
_publ_section_title
;
Structure prediction by ZEFSAII (Michael W. Deem and Ramdas Pophale) SiO2 
 PCOD9519434
Probable space group: I M M M
;
_chemical_formula_sum "Si O2"
_cell_formula_units_Z 64
_cell_length_a 15.268996
_cell_length_b 7.398076
_cell_length_c 26.874846
_cell_angle_alpha 90.000000
_cell_angle_beta 90.000000
_cell_angle_gamma 90.000000
_cell_volume 3035.814662
_symmetry_space_group_name_H-M "I M M M"
_symmetry_group_IT_number 71
_symmetry_cell_setting 'orthorhombic'
loop_
_space_group_symop_operation_xyz
x,y,z
-x,-y,z
x,-y,-z
-x,y,-z
-x,-y,-z
x,y,-z
-x,y,z
x,-y,z
1/2+x,1/2+y,1/2+z
1/2-x,1/2-y,1/2+z
1/2+x,1/2-y,1/2-z
1/2-x,1/2+y,1/2-z
1/2-x,1/2-y,1/2-z
1/2+x,1/2+y,1/2-z
1/2-x,1/2+y,1/2+z
1/2+x,1/2-y,1/2+z
loop_
_atom_site_type_symbol
_atom_site_label
_atom_site_fract_x
_atom_site_fract_y
_atom_site_fract_z
Si Si1 0.171389 0.712655 0.105441
Si Si2 0.000000 0.779126 0.283209
Si Si3 0.000000 0.780204 0.443507
Si Si4 0.500000 0.284367 0.669931
Si Si5 0.102096 0.721552 0.000000
Si Si6 0.141256 0.220195 0.637171
O O1 0.187631 0.500000 0.098032
O O2 0.086538 0.730133 0.139955
O O3 0.148353 0.784436 0.050598
O O4 0.259580 0.784821 0.130878
O O5 0.914516 0.722013 0.314711
O O6 0.000000 0.716331 0.226544
O O7 0.000000 0.000000 0.282790
O O8 0.084599 0.727535 0.411271
O O9 0.000000 0.715923 0.500000
O O10 0.000000 0.000000 0.444835
O O11 0.500000 0.500000 0.671993
O O12 0.102445 0.500000 0.000000
O O13 0.000000 0.774730 0.000000
O O14 0.141325 0.000000 0.639240
#
# Coordination Sequence:
#
# PCOD9519434 Si02
#       6
#    16   8   8   8   8  16
#     4  10  19  32  51  74  98 126 161 196 237 289
#     4   8  16  32  47  66  97 128 156 196 246 285
#     4   8  13  21  37  69 104 125 148 187 235 288
#     4  11  22  34  49  67  94 131 168 204 241 278
#     4   9  16  28  46  69  99 125 146 191 245 280
#     4   8  15  27  45  68  97 129 156 188 237 291
#
# _framework density 21.081657
#
# number of rings (size 3 to 8) (size 9 to 14) (size 15 to 20)
#    0.000    3.000    1.250    1.875    1.750    1.000 
#    0.000    1.250    0.000    1.500    0.000    2.625 
#    0.000    1.000    0.000    0.000    0.000    0.000 
#
# Total GULP energy -178596.883051 kJ/mol
# GULP energy per Si atom -5581.152595 kJ/mol
# Density = 2.103367 g / cm^3
# Si number density = 21.081657 Si / 1000 Ang^3
#
#
#
# Elastic Constant Matrix: (Units=GPa)
#
#
# Indices 1 2 3 4 5 6 
#
# 1 204.6688 -6.6432 103.7336 0.0000 0.0000 0.0000
# 2 -6.6432 67.6029 -4.9233 0.0000 0.0000 0.0000
# 3 103.7336 -4.9233 207.7847 0.0000 0.0000 0.0000
# 4 0.0000 0.0000 0.0000 -16.6404 0.0000 0.0000
# 5 0.0000 0.0000 0.0000 0.0000 12.9992 0.0000
# 6 0.0000 0.0000 0.0000 0.0000 0.0000 -32.3553
#
#
#
# Elastic Compliance Matrix: (Units=1/GPa)
#
#
# Indices 1 2 3 4 5 6 
#
# 1 0.006552 0.000406 -0.003261 0.000000 0.000000 0.000000
# 2 0.000406 0.014843 0.000149 0.000000 0.000000 0.000000
# 3 -0.003261 0.000149 0.006444 0.000000 0.000000 0.000000
# 4 0.000000 0.000000 0.000000 -0.060095 0.000000 0.000000
# 5 0.000000 0.000000 0.000000 0.000000 0.076928 0.000000
# 6 0.000000 0.000000 0.000000 0.000000 0.000000 -0.030907
#
#
# Mechanical properties :
#
#
# Convention : Reuss Voigt Hill
#
# Bulk Modulus (GPa) = 44.58894 73.82120 59.20507
# Shear Modulus (GPa) = 187.58719 18.65998 103.12358
#
# Velocity S-wave (km/s) = 9.44322 2.97834 7.00160
# Velocity P-wave (km/s) = 11.83620 6.84983 9.66995
#
# Compressibility (1/GPa) = 0.02242709
#
# Stress axis : x y z
#
# Youngs Moduli (GPa) = 152.62169 67.37164 155.17279
#
# Poissons Ratio (x) = -0.02738 0.50609
# Poissons Ratio (y) = -0.06202 -0.02309
# Poissons Ratio (z) = 0.49777 -0.01003
#
# Static dielectric constant tensor:
#      x y z
#    x 1.700730 0.000000 0.000000 
#    y 0.000000 1.827600 0.000000 
#    z 0.000000 0.000000 1.725680 
# 
# From -- ./inp_files/65126.got.cif
#   From: 2010.05.17/outbox.cif.g08.bks.cpg/sg71_33_cif.got.tgz:65126.got - 2010.06.03 16:22:01.
