data_PCOD9519450
_publ_section_title
;
Structure prediction by ZEFSAII (Michael W. Deem and Ramdas Pophale) SiO2 
 PCOD9519450
Probable space group: I M M M
;
_chemical_formula_sum "Si O2"
_cell_formula_units_Z 66
_cell_length_a 16.283565
_cell_length_b 7.378971
_cell_length_c 24.120856
_cell_angle_alpha 90.000000
_cell_angle_beta 90.000000
_cell_angle_gamma 90.000000
_cell_volume 2898.264462
_symmetry_space_group_name_H-M "I M M M"
_symmetry_group_IT_number 71
_symmetry_cell_setting 'orthorhombic'
loop_
_space_group_symop_operation_xyz
x,y,z
-x,-y,z
x,-y,-z
-x,y,-z
-x,-y,-z
x,y,-z
-x,y,z
x,-y,z
1/2+x,1/2+y,1/2+z
1/2-x,1/2-y,1/2+z
1/2+x,1/2-y,1/2-z
1/2-x,1/2+y,1/2-z
1/2-x,1/2-y,1/2-z
1/2+x,1/2+y,1/2-z
1/2-x,1/2+y,1/2+z
1/2+x,1/2-y,1/2+z
loop_
_atom_site_type_symbol
_atom_site_label
_atom_site_fract_x
_atom_site_fract_y
_atom_site_fract_z
Si Si1 0.500000 0.777854 0.179822
Si Si2 0.334034 0.785989 0.119217
Si Si3 0.000000 0.721382 0.807534
Si Si4 0.332585 0.799251 0.000000
Si Si5 0.096259 0.720784 0.000000
Si Si6 0.000000 0.500000 0.500000
Si Si7 0.155628 0.717899 0.121027
O O1 0.415544 0.718591 0.149787
O O2 0.500000 0.722123 0.243698
O O3 0.500000 0.000000 0.178517
O O4 0.244361 0.769868 0.145741
O O5 0.350590 0.000000 0.110102
O O6 0.318285 0.704884 0.058199
O O7 0.919077 0.780071 0.840447
O O8 0.000000 0.500000 0.807683
O O9 0.428611 0.846140 0.000000
O O10 0.290570 0.000000 0.000000
O O11 0.138154 0.780100 0.057660
O O12 0.098635 0.500000 0.000000
O O13 0.000000 0.771843 0.000000
O O14 0.152818 0.500000 0.119912
#
# Coordination Sequence:
#
# PCOD9519450 Si02
#       7
#     8  16   8   8   8   2  16
#     4   9  19  33  52  73  96 131 175 209 235 288
#     4  10  19  32  51  76 103 129 165 204 247 294
#     4   9  18  34  52  72  96 131 174 208 242 289
#     4   8  15  25  46  73  99 123 156 199 241 284
#     4   9  15  28  52  78  96 126 168 201 234 294
#     4   8  12  24  48  68  90 130 168 192 218 286
#     4  10  19  32  53  76 101 129 163 206 250 294
#
# _framework density 22.772248999999999
#
# number of rings (size 3 to 8) (size 9 to 14) (size 15 to 20)
#    0.364    2.303    1.212    1.455    1.697    0.970 
#    0.000    1.212    0.000    2.182    0.000    5.091 
#    0.000    0.000    0.000    0.000    0.000    0.000 
#
# Total GULP energy -183819.769272 kJ/mol
# GULP energy per Si atom -5570.296039 kJ/mol
# Density = 2.272042 g / cm^3
# Si number density = 22.772249 Si / 1000 Ang^3
#
#
#
# Elastic Constant Matrix: (Units=GPa)
#
#
# Indices 1 2 3 4 5 6 
#
# 1 240.6470 0.3477 100.6015 0.0000 0.0000 0.0000
# 2 0.3477 80.7018 12.1209 0.0000 0.0000 0.0000
# 3 100.6015 12.1209 162.0933 0.0000 0.0000 0.0000
# 4 0.0000 0.0000 0.0000 -13.3207 0.0000 0.0000
# 5 0.0000 0.0000 0.0000 0.0000 6.0357 0.0000
# 6 0.0000 0.0000 0.0000 0.0000 0.0000 17.7103
#
#
#
# Elastic Compliance Matrix: (Units=1/GPa)
#
#
# Indices 1 2 3 4 5 6 
#
# 1 0.005632 0.000506 -0.003533 0.000000 0.000000 0.000000
# 2 0.000506 0.012578 -0.001255 0.000000 0.000000 0.000000
# 3 -0.003533 -0.001255 0.008456 0.000000 0.000000 0.000000
# 4 0.000000 0.000000 0.000000 -0.075071 0.000000 0.000000
# 5 0.000000 0.000000 0.000000 0.000000 0.165680 0.000000
# 6 0.000000 0.000000 0.000000 0.000000 0.000000 0.056464
#
#
# Mechanical properties :
#
#
# Convention : Reuss Voigt Hill
#
# Bulk Modulus (GPa) = 55.24211 78.84249 67.04230
# Shear Modulus (GPa) = 26.54839 26.77653 26.66246
#
# Velocity S-wave (km/s) = 3.41812 3.43277 3.42545
# Velocity P-wave (km/s) = 6.31579 7.09995 6.71932
#
# Compressibility (1/GPa) = 0.01810213
#
# Stress axis : x y z
#
# Youngs Moduli (GPa) = 177.56464 79.50650 118.26020
#
# Poissons Ratio (x) = -0.04026 0.41783
# Poissons Ratio (y) = -0.08992 0.14839
# Poissons Ratio (z) = 0.62736 0.09977
#
# Static dielectric constant tensor:
#      x y z
#    x 1.842900 0.000000 0.000000 
#    y 0.000000 1.880110 0.000000 
#    z 0.000000 0.000000 1.870250 
# 
# From -- ./inp_files/65136.got.cif
#   From: 2010.05.17/outbox.cif.g08.bks.cpg/sg71_33_cif.got.tgz:65136.got - 2010.06.03 16:22:01.
