data_PCOD9519552
_publ_section_title
;
Structure prediction by ZEFSAII (Michael W. Deem and Ramdas Pophale) SiO2 
 PCOD9519552
Probable space group: I M M M
;
_chemical_formula_sum "Si O2"
_cell_formula_units_Z 104
_cell_length_a 20.230641
_cell_length_b 19.902370
_cell_length_c 13.497237
_cell_angle_alpha 90.000000
_cell_angle_beta 90.000000
_cell_angle_gamma 90.000000
_cell_volume 5434.496496
_symmetry_space_group_name_H-M "I M M M"
_symmetry_group_IT_number 71
_symmetry_cell_setting 'orthorhombic'
loop_
_space_group_symop_operation_xyz
x,y,z
-x,-y,z
x,-y,-z
-x,y,-z
-x,-y,-z
x,y,-z
-x,y,z
x,-y,z
1/2+x,1/2+y,1/2+z
1/2-x,1/2-y,1/2+z
1/2+x,1/2-y,1/2-z
1/2-x,1/2+y,1/2-z
1/2-x,1/2-y,1/2-z
1/2+x,1/2+y,1/2-z
1/2-x,1/2+y,1/2+z
1/2+x,1/2-y,1/2+z
loop_
_atom_site_type_symbol
_atom_site_label
_atom_site_fract_x
_atom_site_fract_y
_atom_site_fract_z
Si Si1 0.696489 0.825104 0.606617
Si Si2 0.575982 0.000000 0.881303
Si Si3 0.074086 0.242817 0.674106
Si Si4 0.190901 0.923115 0.825300
Si Si5 0.340884 0.377332 0.109558
Si Si6 0.160546 0.372753 0.314384
Si Si7 0.111098 0.199556 0.890306
O O1 0.674204 0.851475 0.500000
O O2 0.774728 0.831961 0.611750
O O3 0.664261 0.865421 0.695591
O O4 0.675205 0.748053 0.613041
O O5 0.614905 0.934198 0.845963
O O6 0.500000 0.000000 0.846556
O O7 0.575889 0.000000 0.000000
O O8 0.098907 0.173973 0.624414
O O9 0.126175 0.302813 0.652493
O O10 0.073949 0.225170 0.792250
O O11 0.000000 0.261879 0.643896
O O12 0.170968 0.921240 0.707968
O O13 0.263347 0.889629 0.842503
O O14 0.136474 0.875953 0.876117
O O15 0.192566 0.000000 0.858770
O O16 0.344199 0.409527 0.000000
O O17 0.080980 0.208117 0.000000
#
# Coordination Sequence:
#
# PCOD9519552 Si02
#       7
#    16   8  16  16  16  16  16
#     4   8  15  31  56  81 101 125 165 221 283 328
#     4  11  24  38  49  67 105 157 199 216 234 290
#     4  10  20  33  53  78 104 139 181 219 257 309
#     4  10  19  32  52  81 109 137 172 213 263 320
#     4   9  18  32  51  76 104 132 169 220 273 316
#     4  10  19  35  53  75 108 144 176 216 261 301
#     4   9  18  32  51  76 104 132 169 222 276 318
#
# _framework density 19.137008000000002
#
# number of rings (size 3 to 8) (size 9 to 14) (size 15 to 20)
#    0.000    2.538    0.769    1.385    0.000    6.154 
#    0.000    0.385    0.000    9.231    0.000    8.615 
#    0.000    0.000    0.000    0.000    0.000    0.000 
#
# Total GULP energy -289592.931619 kJ/mol
# GULP energy per Si atom -5569.094839 kJ/mol
# Density = 1.909345 g / cm^3
# Si number density = 19.137008 Si / 1000 Ang^3
#
#
#
# Elastic Constant Matrix: (Units=GPa)
#
#
# Indices 1 2 3 4 5 6 
#
# 1 30.6311 26.4772 3.4995 0.0000 0.0000 0.0000
# 2 26.4772 83.9030 5.1049 0.0000 0.0000 0.0000
# 3 3.4995 5.1049 45.8815 0.0000 0.0000 0.0000
# 4 0.0000 0.0000 0.0000 9.2087 0.0000 0.0000
# 5 0.0000 0.0000 0.0000 0.0000 4.7998 0.0000
# 6 0.0000 0.0000 0.0000 0.0000 0.0000 14.5442
#
#
#
# Elastic Compliance Matrix: (Units=1/GPa)
#
#
# Indices 1 2 3 4 5 6 
#
# 1 0.045050 -0.014103 -0.001867 0.000000 0.000000 0.000000
# 2 -0.014103 0.016415 -0.000751 0.000000 0.000000 0.000000
# 3 -0.001867 -0.000751 0.022021 0.000000 0.000000 0.000000
# 4 0.000000 0.000000 0.000000 0.108593 0.000000 0.000000
# 5 0.000000 0.000000 0.000000 0.000000 0.208343 0.000000
# 6 0.000000 0.000000 0.000000 0.000000 0.000000 0.068756
#
#
# Mechanical properties :
#
#
# Convention : Reuss Voigt Hill
#
# Bulk Modulus (GPa) = 19.98202 25.61989 22.80095
# Shear Modulus (GPa) = 9.62833 14.06613 11.84723
#
# Velocity S-wave (km/s) = 2.24548 2.71407 2.49082
# Velocity P-wave (km/s) = 4.14574 4.82061 4.49585
#
# Compressibility (1/GPa) = 0.05004499
#
# Stress axis : x y z
#
# Youngs Moduli (GPa) = 22.19740 60.92121 45.41078
#
# Poissons Ratio (x) = 0.85917 0.08478
# Poissons Ratio (y) = 0.31305 0.03409
# Poissons Ratio (z) = 0.04144 0.04573
#
# Static dielectric constant tensor:
#      x y z
#    x 1.661400 0.000000 0.000000 
#    y 0.000000 1.650070 0.000000 
#    z 0.000000 0.000000 1.720590 
# 
# From -- ./inp_files/38086.got.cif
#   From: 2010.05.17/outbox.cif.g08.bks.cpg/sg71_20_cif.got.tgz:38086.got - 2010.06.03 16:22:01.
