data_PCOD9519061
_publ_section_title
;
Structure prediction by ZEFSAII (Michael W. Deem and Ramdas Pophale) SiO2 
 PCOD9519061
Probable space group: I M M M
;
_chemical_formula_sum "Si O2"
_cell_formula_units_Z 88
_cell_length_a 21.541158
_cell_length_b 13.683394
_cell_length_c 18.440853
_cell_angle_alpha 90.000000
_cell_angle_beta 90.000000
_cell_angle_gamma 90.000000
_cell_volume 5435.554872
_symmetry_space_group_name_H-M "I M M M"
_symmetry_group_IT_number 71
_symmetry_cell_setting 'orthorhombic'
loop_
_space_group_symop_operation_xyz
x,y,z
-x,-y,z
x,-y,-z
-x,y,-z
-x,-y,-z
x,y,-z
-x,y,z
x,-y,z
1/2+x,1/2+y,1/2+z
1/2-x,1/2-y,1/2+z
1/2+x,1/2-y,1/2-z
1/2-x,1/2+y,1/2-z
1/2-x,1/2-y,1/2-z
1/2+x,1/2+y,1/2-z
1/2-x,1/2+y,1/2+z
1/2+x,1/2-y,1/2+z
loop_
_atom_site_type_symbol
_atom_site_label
_atom_site_fract_x
_atom_site_fract_y
_atom_site_fract_z
Si Si1 0.500000 0.112772 0.088415
Si Si2 0.697448 0.390651 0.087120
Si Si3 0.131013 0.697756 0.587330
Si Si4 0.813545 0.699508 0.833102
Si Si5 0.765601 0.613007 0.316522
Si Si6 0.073038 0.615729 0.085860
O O1 0.563304 0.164313 0.112395
O O2 0.500000 0.000000 0.111101
O O3 0.500000 0.114394 0.000000
O O4 0.684888 0.500000 0.114070
O O5 0.648453 0.308078 0.110387
O O6 0.763956 0.353662 0.114273
O O7 0.697465 0.392826 0.000000
O O8 0.132186 0.693489 0.500000
O O9 0.185231 0.630008 0.618943
O O10 0.801514 0.649967 0.755315
O O11 0.791583 0.812119 0.827391
O O12 0.881060 0.678936 0.865027
O O13 0.748101 0.500000 0.310275
O O14 0.085083 0.500000 0.098823
O O15 0.000000 0.633185 0.099620
O O16 0.084354 0.633480 0.000000
#
# Coordination Sequence:
#
# PCOD9519061 Si02
#       6
#     8  16  16  16  16  16
#     4   9  16  28  45  59  79 115 149 181 224 267
#     4   9  16  27  46  69  91 117 149 186 228 273
#     4   9  18  31  45  64  89 118 155 192 227 271
#     4  10  19  31  48  70  96 124 153 190 234 283
#     4  10  20  32  47  69  94 122 156 195 237 275
#     4   9  17  30  50  75 101 128 157 193 241 292
#
# _framework density 16.189698
#
# number of rings (size 3 to 8) (size 9 to 14) (size 15 to 20)
#    0.000    2.636    0.000    3.273    0.000    3.273 
#    1.636    0.455    0.000    3.273    0.000    1.273 
#    0.000    0.000    0.000    0.000    0.000    0.000 
#
# Total GULP energy -245218.723561 kJ/mol
# GULP energy per Si atom -5573.152808 kJ/mol
# Density = 1.615285 g / cm^3
# Si number density = 16.189698 Si / 1000 Ang^3
#
#
#
# Elastic Constant Matrix: (Units=GPa)
#
#
# Indices 1 2 3 4 5 6 
#
# 1 94.3928 55.3019 35.1219 0.0000 0.0000 0.0000
# 2 55.3019 133.4799 30.0965 0.0000 0.0000 0.0000
# 3 35.1219 30.0965 26.2037 0.0000 0.0000 0.0000
# 4 0.0000 0.0000 0.0000 14.9973 0.0000 0.0000
# 5 0.0000 0.0000 0.0000 0.0000 17.3871 0.0000
# 6 0.0000 0.0000 0.0000 0.0000 0.0000 17.9293
#
#
#
# Elastic Compliance Matrix: (Units=1/GPa)
#
#
# Indices 1 2 3 4 5 6 
#
# 1 0.022196 -0.003357 -0.025893 0.000000 0.000000 0.000000
# 2 -0.003357 0.010618 -0.007695 0.000000 0.000000 0.000000
# 3 -0.025893 -0.007695 0.081707 0.000000 0.000000 0.000000
# 4 0.000000 0.000000 0.000000 0.066679 0.000000 0.000000
# 5 0.000000 0.000000 0.000000 0.000000 0.057514 0.000000
# 6 0.000000 0.000000 0.000000 0.000000 0.000000 0.055775
#
#
# Mechanical properties :
#
#
# Convention : Reuss Voigt Hill
#
# Bulk Modulus (GPa) = 24.61331 55.01299 39.81315
# Shear Modulus (GPa) = 13.09166 18.96646 16.02906
#
# Velocity S-wave (km/s) = 2.84675 3.42645 3.14996
# Velocity P-wave (km/s) = 5.10307 7.05040 6.15425
#
# Compressibility (1/GPa) = 0.04062842
#
# Stress axis : x y z
#
# Youngs Moduli (GPa) = 45.05408 94.18111 12.23887
#
# Poissons Ratio (x) = 0.31621 0.31691
# Poissons Ratio (y) = 0.15127 0.09418
# Poissons Ratio (z) = 1.16660 0.72473
#
# Static dielectric constant tensor:
#      x y z
#    x 1.526990 0.000000 0.000000 
#    y 0.000000 1.553890 0.000000 
#    z 0.000000 0.000000 1.577830 
# 
# From -- ./inp_files/36594.got.cif
#   From: 2010.05.17/outbox.cif.g08.bks.cpg/sg71_19_cif.got.tgz:36594.got - 2010.06.03 16:22:01.
