data_PCOD9519159
_publ_section_title
;
Structure prediction by ZEFSAII (Michael W. Deem and Ramdas Pophale) SiO2 
 PCOD9519159
Probable space group: I M M M
;
_chemical_formula_sum "Si O2"
_cell_formula_units_Z 88
_cell_length_a 24.498252
_cell_length_b 25.122409
_cell_length_c 9.594341
_cell_angle_alpha 90.000000
_cell_angle_beta 90.000000
_cell_angle_gamma 90.000000
_cell_volume 5904.886162
_symmetry_space_group_name_H-M "I M M M"
_symmetry_group_IT_number 71
_symmetry_cell_setting 'orthorhombic'
loop_
_space_group_symop_operation_xyz
x,y,z
-x,-y,z
x,-y,-z
-x,y,-z
-x,-y,-z
x,y,-z
-x,y,z
x,-y,z
1/2+x,1/2+y,1/2+z
1/2-x,1/2-y,1/2+z
1/2+x,1/2-y,1/2-z
1/2-x,1/2+y,1/2-z
1/2-x,1/2-y,1/2-z
1/2+x,1/2+y,1/2-z
1/2-x,1/2+y,1/2+z
1/2+x,1/2-y,1/2+z
loop_
_atom_site_type_symbol
_atom_site_label
_atom_site_fract_x
_atom_site_fract_y
_atom_site_fract_z
Si Si1 0.703843 0.561667 0.163026
Si Si2 0.663112 0.243557 0.164936
Si Si3 0.000000 0.062487 0.653775
Si Si4 0.935364 0.219842 0.840313
Si Si5 0.757355 0.328904 0.837874
Si Si6 0.399558 0.402863 0.339822
O O1 0.720301 0.500000 0.184471
O O2 0.748443 0.608175 0.181586
O O3 0.655677 0.577591 0.267741
O O4 0.685445 0.566074 0.000000
O O5 0.604315 0.248741 0.237016
O O6 0.700127 0.297141 0.186281
O O7 0.698353 0.197291 0.237488
O O8 0.658172 0.235752 0.000000
O O9 0.052358 0.076306 0.743339
O O10 0.000000 0.088333 0.500000
O O11 0.000000 0.000000 0.635884
O O12 0.910189 0.160414 0.841100
O O13 0.000000 0.217932 0.803411
O O14 0.931628 0.239889 0.000000
O O15 0.771899 0.318847 0.000000
O O16 0.402899 0.421336 0.500000
#
# Coordination Sequence:
#
# PCOD9519159 Si02
#       6
#    16  16   8  16  16  16
#     4  10  20  34  50  69  95 126 161 198 238 284
#     4  10  19  31  50  73  93 121 159 200 242 285
#     4  11  23  35  45  57  79 117 163 207 246 281
#     4  10  20  34  49  67  94 127 159 197 243 287
#     4   9  18  32  49  70  95 125 158 196 241 286
#     4  11  21  33  47  65  89 120 160 202 243 281
#
# _framework density 14.902912000000001
#
# number of rings (size 3 to 8) (size 9 to 14) (size 15 to 20)
#    0.000    1.909    2.727    1.909    0.000    5.818 
#    0.000    0.000    0.000    0.000    0.000    0.000 
#    0.000    0.727    0.000    8.364    0.000    2.364 
#
# Total GULP energy -245202.828112 kJ/mol
# GULP energy per Si atom -5572.791548 kJ/mol
# Density = 1.486899 g / cm^3
# Si number density = 14.902912 Si / 1000 Ang^3
#
#
#
# Elastic Constant Matrix: (Units=GPa)
#
#
# Indices 1 2 3 4 5 6 
#
# 1 64.1781 41.7593 59.0492 0.0000 0.0000 0.0000
# 2 41.7593 73.8775 54.1419 0.0000 0.0000 0.0000
# 3 59.0492 54.1419 110.5127 0.0000 0.0000 0.0000
# 4 0.0000 0.0000 0.0000 18.6406 0.0000 0.0000
# 5 0.0000 0.0000 0.0000 0.0000 34.0929 0.0000
# 6 0.0000 0.0000 0.0000 0.0000 0.0000 28.3626
#
#
#
# Elastic Compliance Matrix: (Units=1/GPa)
#
#
# Indices 1 2 3 4 5 6 
#
# 1 0.034305 -0.009295 -0.013776 0.000000 0.000000 0.000000
# 2 -0.009295 0.023637 -0.006614 0.000000 0.000000 0.000000
# 3 -0.013776 -0.006614 0.019650 0.000000 0.000000 0.000000
# 4 0.000000 0.000000 0.000000 0.053646 0.000000 0.000000
# 5 0.000000 0.000000 0.000000 0.000000 0.029332 0.000000
# 6 0.000000 0.000000 0.000000 0.000000 0.000000 0.035258
#
#
# Mechanical properties :
#
#
# Convention : Reuss Voigt Hill
#
# Bulk Modulus (GPa) = 54.87825 62.05213 58.46519
# Shear Modulus (GPa) = 19.13731 22.46039 20.79885
#
# Velocity S-wave (km/s) = 3.58737 3.88637 3.73986
# Velocity P-wave (km/s) = 7.35274 7.86552 7.61345
#
# Compressibility (1/GPa) = 0.01822216
#
# Stress axis : x y z
#
# Youngs Moduli (GPa) = 29.15049 42.30718 50.89161
#
# Poissons Ratio (x) = 0.39324 0.70108
# Poissons Ratio (y) = 0.27095 0.33657
# Poissons Ratio (z) = 0.40158 0.27980
#
# Static dielectric constant tensor:
#      x y z
#    x 1.485050 0.000000 0.000000 
#    y 0.000000 1.506930 0.000000 
#    z 0.000000 0.000000 1.518860 
# 
# From -- ./inp_files/10388.got.cif
#   From: 2010.05.17/outbox.cif.g08.bks.cpg/sg71_6_cif.got.tgz:10388.got - 2010.06.03 16:22:01.
