data_PCOD9519926
_publ_section_title
;
Structure prediction by ZEFSAII (Michael W. Deem and Ramdas Pophale) SiO2 
 PCOD9519926
Probable space group: I M M M
;
_chemical_formula_sum "Si O2"
_cell_formula_units_Z 80
_cell_length_a 17.467407
_cell_length_b 8.304890
_cell_length_c 26.789086
_cell_angle_alpha 90.000000
_cell_angle_beta 90.000000
_cell_angle_gamma 90.000000
_cell_volume 3886.155913
_symmetry_space_group_name_H-M "I M M M"
_symmetry_group_IT_number 71
_symmetry_cell_setting 'orthorhombic'
loop_
_space_group_symop_operation_xyz
x,y,z
-x,-y,z
x,-y,-z
-x,y,-z
-x,-y,-z
x,y,-z
-x,y,z
x,-y,z
1/2+x,1/2+y,1/2+z
1/2-x,1/2-y,1/2+z
1/2+x,1/2-y,1/2-z
1/2-x,1/2+y,1/2-z
1/2-x,1/2-y,1/2-z
1/2+x,1/2+y,1/2-z
1/2-x,1/2+y,1/2+z
1/2+x,1/2-y,1/2+z
loop_
_atom_site_type_symbol
_atom_site_label
_atom_site_fract_x
_atom_site_fract_y
_atom_site_fract_z
Si Si1 0.800814 0.309519 0.554469
Si Si2 0.384224 0.691833 0.553645
Si Si3 0.212178 0.815591 0.658626
Si Si4 0.084536 0.310457 0.269808
Si Si5 0.380350 0.689002 0.662515
O O1 0.829122 0.253322 0.500000
O O2 0.817179 0.500000 0.558870
O O3 0.708204 0.292995 0.553262
O O4 0.825363 0.221249 0.604710
O O5 0.411418 0.757760 0.500000
O O6 0.401126 0.500000 0.553603
O O7 0.407741 0.752563 0.608263
O O8 0.151964 0.780720 0.701920
O O9 0.287939 0.707173 0.663625
O O10 0.237918 0.000000 0.660369
O O11 0.093617 0.500000 0.279564
O O12 0.089489 0.279019 0.210798
O O13 0.000000 0.259283 0.287108
O O14 0.399810 0.500000 0.666038
#
# Coordination Sequence:
#
# PCOD9519926 Si02
#       5
#    16  16  16  16  16
#     4   8  14  27  48  74 105 138 170 205 248 299
#     4   7  11  22  43  72 102 130 160 196 239 287
#     4  11  21  33  53  80 109 137 170 212 256 306
#     4  11  24  40  55  71  97 134 175 219 267 316
#     4  10  19  33  55  80 106 135 171 213 255 304
#
# _framework density 20.585895000000001
#
# number of rings (size 3 to 8) (size 9 to 14) (size 15 to 20)
#    0.000    2.600    0.000    6.000    0.000    2.000 
#    0.000    0.000    0.000    3.000    0.000    8.400 
#    0.000    0.000    0.000    0.000    0.000    0.000 
#
# Total GULP energy -223078.015359 kJ/mol
# GULP energy per Si atom -5576.950384 kJ/mol
# Density = 2.053904 g / cm^3
# Si number density = 20.585895 Si / 1000 Ang^3
#
#
#
# Elastic Constant Matrix: (Units=GPa)
#
#
# Indices 1 2 3 4 5 6 
#
# 1 43.5491 -3.6732 26.8045 0.0000 0.0000 0.0000
# 2 -3.6732 23.6348 4.2033 0.0000 0.0000 0.0000
# 3 26.8045 4.2033 123.4286 0.0000 0.0000 0.0000
# 4 0.0000 0.0000 0.0000 29.9862 0.0000 0.0000
# 5 0.0000 0.0000 0.0000 0.0000 -26.0763 0.0000
# 6 0.0000 0.0000 0.0000 0.0000 0.0000 0.5843
#
#
#
# Elastic Compliance Matrix: (Units=1/GPa)
#
#
# Indices 1 2 3 4 5 6 
#
# 1 0.027150 0.005300 -0.006076 0.000000 0.000000 0.000000
# 2 0.005300 0.043603 -0.002636 0.000000 0.000000 0.000000
# 3 -0.006076 -0.002636 0.009511 0.000000 0.000000 0.000000
# 4 0.000000 0.000000 0.000000 0.033349 0.000000 0.000000
# 5 0.000000 0.000000 0.000000 0.000000 -0.038349 0.000000
# 6 0.000000 0.000000 0.000000 0.000000 0.000000 1.711464
#
#
# Mechanical properties :
#
#
# Convention : Reuss Voigt Hill
#
# Bulk Modulus (GPa) = 13.61666 27.25351 20.43509
# Shear Modulus (GPa) = 2.75023 11.78405 7.26714
#
# Velocity S-wave (km/s) = 1.15710 2.39515 1.88091
# Velocity P-wave (km/s) = 2.90070 4.57347 3.82954
#
# Compressibility (1/GPa) = 0.07343942
#
# Stress axis : x y z
#
# Youngs Moduli (GPa) = 36.83285 22.93418 105.13907
#
# Poissons Ratio (x) = -0.12155 0.63887
# Poissons Ratio (y) = -0.19522 0.27713
# Poissons Ratio (z) = 0.22381 0.06045
#
# Static dielectric constant tensor:
#      x y z
#    x 1.726710 0.000000 0.000000 
#    y 0.000000 1.702050 0.000000 
#    z 0.000000 0.000000 1.793960 
# 
# From -- ./inp_files/14526.got.cif
#   From: 2010.05.17/outbox.cif.g08.bks.cpg/sg71_8_cif.got.tgz:14526.got - 2010.06.03 16:22:01.
