data_PCOD9519497
_publ_section_title
;
Structure prediction by ZEFSAII (Michael W. Deem and Ramdas Pophale) SiO2 
 PCOD9519497
Probable space group: I M M M
;
_chemical_formula_sum "Si O2"
_cell_formula_units_Z 88
_cell_length_a 19.440306
_cell_length_b 8.382606
_cell_length_c 28.075888
_cell_angle_alpha 90.000000
_cell_angle_beta 90.000000
_cell_angle_gamma 90.000000
_cell_volume 4575.258661
_symmetry_space_group_name_H-M "I M M M"
_symmetry_group_IT_number 71
_symmetry_cell_setting 'orthorhombic'
loop_
_space_group_symop_operation_xyz
x,y,z
-x,-y,z
x,-y,-z
-x,y,-z
-x,-y,-z
x,y,-z
-x,y,z
x,-y,z
1/2+x,1/2+y,1/2+z
1/2-x,1/2-y,1/2+z
1/2+x,1/2-y,1/2-z
1/2-x,1/2+y,1/2-z
1/2-x,1/2-y,1/2-z
1/2+x,1/2+y,1/2-z
1/2-x,1/2+y,1/2+z
1/2+x,1/2-y,1/2+z
loop_
_atom_site_type_symbol
_atom_site_label
_atom_site_fract_x
_atom_site_fract_y
_atom_site_fract_z
Si Si1 0.195731 0.308577 0.184354
Si Si2 0.326348 0.187861 0.052888
Si Si3 0.580991 0.685604 0.500000
Si Si4 0.576790 0.192131 0.245660
Si Si5 0.821290 0.313203 0.923778
Si Si6 0.348568 0.309050 0.157570
O O1 0.200979 0.500000 0.192023
O O2 0.140838 0.244982 0.222452
O O3 0.166544 0.281030 0.131583
O O4 0.274638 0.249366 0.179394
O O5 0.244390 0.216807 0.057472
O O6 0.354351 0.263652 0.101905
O O7 0.340772 0.000000 0.054336
O O8 0.347730 0.248450 0.000000
O O9 0.601217 0.500000 0.500000
O O10 0.500000 0.696938 0.500000
O O11 0.613509 0.769927 0.545462
O O12 0.500000 0.248013 0.259502
O O13 0.593339 0.238429 0.191455
O O14 0.576929 0.000000 0.250088
O O15 0.803449 0.500000 0.928544
O O16 0.348448 0.500000 0.160592
#
# Coordination Sequence:
#
# PCOD9519497 Si02
#       6
#    16  16   8  16  16  16
#     4   8  17  33  53  79 105 135 177 223 270 319
#     4  10  19  32  54  81 109 137 169 212 266 323
#     4  11  23  35  45  63  99 145 186 223 268 321
#     4  10  20  35  55  77 106 143 180 221 272 329
#     4  10  19  32  52  76 102 132 175 226 271 317
#     4  10  20  34  54  80 110 142 180 225 267 314
#
# _framework density 19.233885000000001
#
# number of rings (size 3 to 8) (size 9 to 14) (size 15 to 20)
#    0.000    2.273    0.909    3.545    0.000    2.909 
#    0.000    6.364    0.000    0.545    0.000    3.818 
#    0.000    0.000    0.000    0.000    0.000    0.000 
#
# Total GULP energy -245285.219063 kJ/mol
# GULP energy per Si atom -5574.664070 kJ/mol
# Density = 1.919011 g / cm^3
# Si number density = 19.233885 Si / 1000 Ang^3
#
#
#
# Elastic Constant Matrix: (Units=GPa)
#
#
# Indices 1 2 3 4 5 6 
#
# 1 30.6748 6.7375 24.1478 0.0000 0.0000 0.0000
# 2 6.7375 8.9481 -0.1434 0.0000 0.0000 0.0000
# 3 24.1478 -0.1434 70.5837 0.0000 0.0000 0.0000
# 4 0.0000 0.0000 0.0000 22.9339 0.0000 0.0000
# 5 0.0000 0.0000 0.0000 0.0000 38.3559 0.0000
# 6 0.0000 0.0000 0.0000 0.0000 0.0000 14.4096
#
#
#
# Elastic Compliance Matrix: (Units=1/GPa)
#
#
# Indices 1 2 3 4 5 6 
#
# 1 0.057917 -0.043928 -0.019904 0.000000 0.000000 0.000000
# 2 -0.043928 0.145077 0.015323 0.000000 0.000000 0.000000
# 3 -0.019904 0.015323 0.021008 0.000000 0.000000 0.000000
# 4 0.000000 0.000000 0.000000 0.043604 0.000000 0.000000
# 5 0.000000 0.000000 0.000000 0.000000 0.026072 0.000000
# 6 0.000000 0.000000 0.000000 0.000000 0.000000 0.069398
#
#
# Mechanical properties :
#
#
# Convention : Reuss Voigt Hill
#
# Bulk Modulus (GPa) = 7.87491 19.07672 13.47581
# Shear Modulus (GPa) = 9.95182 20.43753 15.19468
#
# Velocity S-wave (km/s) = 2.27713 3.26326 2.81373
# Velocity P-wave (km/s) = 3.31918 4.91307 4.19257
#
# Compressibility (1/GPa) = 0.12698564
#
# Stress axis : x y z
#
# Youngs Moduli (GPa) = 17.26609 6.89288 47.60090
#
# Poissons Ratio (x) = 0.30279 0.94743
# Poissons Ratio (y) = 0.75846 -0.72939
# Poissons Ratio (z) = 0.34366 -0.10562
#
# Static dielectric constant tensor:
#      x y z
#    x 1.667070 0.000000 0.000000 
#    y 0.000000 1.675360 0.000000 
#    z 0.000000 0.000000 1.686320 
# 
# From -- ./inp_files/66328.got.cif
#   From: 2010.05.17/outbox.cif.g08.bks.cpg/sg71_34_cif.got.tgz:66328.got - 2010.06.03 16:22:01.
