data_PCOD9519981
_publ_section_title
;
Structure prediction by ZEFSAII (Michael W. Deem and Ramdas Pophale) SiO2 
 PCOD9519981
Probable space group: I M M M
;
_chemical_formula_sum "Si O2"
_cell_formula_units_Z 112
_cell_length_a 20.636478
_cell_length_b 14.466510
_cell_length_c 15.745353
_cell_angle_alpha 90.000000
_cell_angle_beta 90.000000
_cell_angle_gamma 90.000000
_cell_volume 4700.583287
_symmetry_space_group_name_H-M "I M M M"
_symmetry_group_IT_number 71
_symmetry_cell_setting 'orthorhombic'
loop_
_space_group_symop_operation_xyz
x,y,z
-x,-y,z
x,-y,-z
-x,y,-z
-x,-y,-z
x,y,-z
-x,y,z
x,-y,z
1/2+x,1/2+y,1/2+z
1/2-x,1/2-y,1/2+z
1/2+x,1/2-y,1/2-z
1/2-x,1/2+y,1/2-z
1/2-x,1/2-y,1/2-z
1/2+x,1/2+y,1/2-z
1/2-x,1/2+y,1/2+z
1/2+x,1/2-y,1/2+z
loop_
_atom_site_type_symbol
_atom_site_label
_atom_site_fract_x
_atom_site_fract_y
_atom_site_fract_z
Si Si1 0.076375 0.100690 0.871484
Si Si2 0.794132 0.107237 0.408919
Si Si3 0.071960 0.856251 0.673402
Si Si4 0.687445 0.887045 0.280150
Si Si5 0.290693 0.896620 0.906207
Si Si6 0.421162 0.807793 0.403185
Si Si7 0.569106 0.164089 0.905915
O O1 0.080497 0.110849 0.769558
O O2 0.099897 0.199363 0.904648
O O3 0.000000 0.098139 0.893642
O O4 0.103905 0.000000 0.896185
O O5 0.787772 0.152533 0.500000
O O6 0.867955 0.110149 0.380218
O O7 0.744063 0.145785 0.342541
O O8 0.776166 0.000000 0.415100
O O9 0.074130 0.745260 0.662754
O O10 0.000000 0.884930 0.644927
O O11 0.713566 0.853281 0.187556
O O12 0.621321 0.855348 0.328614
O O13 0.684071 0.000000 0.273351
O O14 0.369242 0.899586 0.907065
O O15 0.263301 0.000000 0.902242
O O16 0.271637 0.859143 0.000000
O O17 0.410318 0.844849 0.500000
O O18 0.500000 0.811734 0.387088
O O19 0.500000 0.116634 0.895140
O O20 0.568663 0.210015 0.000000
#
# Coordination Sequence:
#
# PCOD9519981 Si02
#       7
#    16  16  16  16  16  16  16
#     4   9  18  33  54  81 114 151 191 243 305 356
#     4  10  21  36  55  81 115 156 196 234 287 355
#     4  10  19  33  56  84 112 144 188 240 294 355
#     4  10  21  38  59  84 119 158 196 246 304 356
#     4   9  18  33  54  80 111 151 197 240 285 346
#     4  10  21  37  59  87 118 158 210 257 294 343
#     4   9  17  29  47  75 112 148 181 227 288 347
#
# _framework density 23.826830000000001
#
# number of rings (size 3 to 8) (size 9 to 14) (size 15 to 20)
#    0.000    2.429    0.000    2.143    0.000    5.143 
#    0.000    8.571    0.000    2.571    0.000    2.000 
#    0.000    0.000    0.000    0.143    0.000    0.429 
#
# Total GULP energy -312001.824536 kJ/mol
# GULP energy per Si atom -5571.461152 kJ/mol
# Density = 2.377260 g / cm^3
# Si number density = 23.826830 Si / 1000 Ang^3
#
#
#
# Elastic Constant Matrix: (Units=GPa)
#
#
# Indices 1 2 3 4 5 6 
#
# 1 72.8584 6.6481 65.4021 0.0000 0.0000 0.0000
# 2 6.6481 93.1029 24.1962 0.0000 0.0000 0.0000
# 3 65.4021 24.1962 199.8049 0.0000 0.0000 0.0000
# 4 0.0000 0.0000 0.0000 3.3841 0.0000 0.0000
# 5 0.0000 0.0000 0.0000 0.0000 13.3105 0.0000
# 6 0.0000 0.0000 0.0000 0.0000 0.0000 14.2628
#
#
#
# Elastic Compliance Matrix: (Units=1/GPa)
#
#
# Indices 1 2 3 4 5 6 
#
# 1 0.019443 0.000274 -0.006397 0.000000 0.000000 0.000000
# 2 0.000274 0.011094 -0.001433 0.000000 0.000000 0.000000
# 3 -0.006397 -0.001433 0.007273 0.000000 0.000000 0.000000
# 4 0.000000 0.000000 0.000000 0.295502 0.000000 0.000000
# 5 0.000000 0.000000 0.000000 0.000000 0.075129 0.000000
# 6 0.000000 0.000000 0.000000 0.000000 0.000000 0.070113
#
#
# Mechanical properties :
#
#
# Convention : Reuss Voigt Hill
#
# Bulk Modulus (GPa) = 44.05992 62.02879 53.04435
# Shear Modulus (GPa) = 9.97545 24.15945 17.06745
#
# Velocity S-wave (km/s) = 2.04835 3.18773 2.67930
# Velocity P-wave (km/s) = 4.91184 6.29591 5.64645
#
# Compressibility (1/GPa) = 0.02269636
#
# Stress axis : x y z
#
# Youngs Moduli (GPa) = 51.43236 90.14130 137.50362
#
# Poissons Ratio (x) = -0.02472 0.87968
# Poissons Ratio (y) = -0.01411 0.19707
# Poissons Ratio (z) = 0.32904 0.12919
#
# Static dielectric constant tensor:
#      x y z
#    x 1.885840 0.000000 0.000000 
#    y 0.000000 1.936710 0.000000 
#    z 0.000000 0.000000 2.013000 
# 
# From -- ./inp_files/39256.got.cif
#   From: 2010.05.17/outbox.cif.g08.bks.cpg/sg71_20_cif.got.tgz:39256.got - 2010.06.03 16:22:01.
