data_PCOD9519418
_publ_section_title
;
Structure prediction by ZEFSAII (Michael W. Deem and Ramdas Pophale) SiO2 
 PCOD9519418
Probable space group: I M M M
;
_chemical_formula_sum "Si O2"
_cell_formula_units_Z 64
_cell_length_a 13.859308
_cell_length_b 28.589647
_cell_length_c 7.341782
_cell_angle_alpha 90.000000
_cell_angle_beta 90.000000
_cell_angle_gamma 90.000000
_cell_volume 2909.054276
_symmetry_space_group_name_H-M "I M M M"
_symmetry_group_IT_number 71
_symmetry_cell_setting 'orthorhombic'
loop_
_space_group_symop_operation_xyz
x,y,z
-x,-y,z
x,-y,-z
-x,y,-z
-x,-y,-z
x,y,-z
-x,y,z
x,-y,z
1/2+x,1/2+y,1/2+z
1/2-x,1/2-y,1/2+z
1/2+x,1/2-y,1/2-z
1/2-x,1/2+y,1/2-z
1/2-x,1/2-y,1/2-z
1/2+x,1/2+y,1/2-z
1/2-x,1/2+y,1/2+z
1/2+x,1/2-y,1/2+z
loop_
_atom_site_type_symbol
_atom_site_label
_atom_site_fract_x
_atom_site_fract_y
_atom_site_fract_z
Si Si1 0.000000 0.856296 0.776507
Si Si2 0.606683 0.944824 0.779182
Si Si3 0.500000 0.753753 0.277695
Si Si4 0.195446 0.297764 0.785072
Si Si5 0.294888 0.608164 0.295881
O O1 0.098102 0.882736 0.717058
O O2 0.000000 0.801082 0.720242
O O3 0.000000 0.855659 0.000000
O O4 0.500000 0.927006 0.718129
O O5 0.705820 0.921139 0.712057
O O6 0.609702 0.000000 0.738990
O O7 0.607091 0.939471 0.000000
O O8 0.500000 0.751688 0.500000
O O9 0.590194 0.784450 0.219085
O O10 0.250000 0.250000 0.750000
O O11 0.249897 0.340141 0.693968
O O12 0.192905 0.308157 0.000000
O O13 0.310514 0.588879 0.500000
#
# Coordination Sequence:
#
# PCOD9519418 Si02
#       5
#     8  16   8  16  16
#     4   9  16  30  47  66  99 135 159 194 249 293
#     4   8  15  29  49  74 102 127 157 206 258 294
#     4   9  18  32  46  63  97 135 157 194 256 295
#     4  11  21  34  50  70  98 133 169 203 243 292
#     4  10  19  32  51  73  98 131 168 203 247 297
#
# _framework density 22.000274999999998
#
# number of rings (size 3 to 8) (size 9 to 14) (size 15 to 20)
#    0.000    2.500    2.500    1.500    1.750    0.000 
#    0.000    4.375    0.000    4.500    0.000    1.750 
#    0.000    2.000    0.000    0.000    0.000    0.000 
#
# Total GULP energy -178396.146211 kJ/mol
# GULP energy per Si atom -5574.879569 kJ/mol
# Density = 2.195020 g / cm^3
# Si number density = 22.000275 Si / 1000 Ang^3
#
#
#
# Elastic Constant Matrix: (Units=GPa)
#
#
# Indices 1 2 3 4 5 6 
#
# 1 256.5515 58.8170 7.7261 -0.0003 0.0028 0.0004
# 2 58.8170 59.8357 -3.2820 0.0008 0.0012 0.0003
# 3 7.7261 -3.2820 88.9888 -0.0150 0.0225 0.0015
# 4 -0.0003 0.0008 -0.0150 1.3962 0.0046 0.0008
# 5 0.0028 0.0012 0.0225 0.0046 -19.3451 -0.0017
# 6 0.0004 0.0003 0.0015 0.0008 -0.0017 45.1052
#
#
#
# Elastic Compliance Matrix: (Units=1/GPa)
#
#
# Indices 1 2 3 4 5 6 
#
# 1 0.005066 -0.005014 -0.000625 -0.000003 0.000000 0.000000
# 2 -0.005014 0.021709 0.001236 0.000000 0.000002 0.000000
# 3 -0.000625 0.001236 0.011337 0.000121 0.000013 0.000000
# 4 -0.000003 0.000000 0.000121 0.716218 0.000170 -0.000013
# 5 0.000000 0.000002 0.000013 0.000170 -0.051693 -0.000002
# 6 0.000000 0.000000 0.000000 -0.000013 -0.000002 0.022170
#
#
# Mechanical properties :
#
#
# Convention : Reuss Voigt Hill
#
# Bulk Modulus (GPa) = 34.12215 59.09980 46.61097
# Shear Modulus (GPa) = 6.72601 28.23893 17.48247
#
# Velocity S-wave (km/s) = 1.75039 3.58658 2.82201
# Velocity P-wave (km/s) = 4.43043 6.63875 5.64365
#
# Compressibility (1/GPa) = 0.02930648
#
# Stress axis : x y z
#
# Youngs Moduli (GPa) = 197.38521 46.06362 88.20507
#
# Poissons Ratio (x) = 0.23097 0.05511
# Poissons Ratio (y) = 0.98974 -0.10902
# Poissons Ratio (z) = 0.12332 -0.05693
#
# Static dielectric constant tensor:
#      x y z
#    x 1.788510 0.000000 -0.000010 
#    y 0.000000 1.733620 0.000020 
#    z -0.000010 0.000020 0.956600 
# 
# From -- ./inp_files/5586.got.cif
#   From: 2010.05.17/outbox.cif.g08.bks.cpg/sg71_3_cif.got.tgz:5586.got - 2010.06.03 16:22:01.
