data_PCOD9519562
_publ_section_title
;
Structure prediction by ZEFSAII (Michael W. Deem and Ramdas Pophale) SiO2 
 PCOD9519562
Probable space group: I M M M
;
_chemical_formula_sum "Si O2"
_cell_formula_units_Z 82
_cell_length_a 19.458026
_cell_length_b 19.542910
_cell_length_c 12.225588
_cell_angle_alpha 90.000000
_cell_angle_beta 90.000000
_cell_angle_gamma 90.000000
_cell_volume 4648.980959
_symmetry_space_group_name_H-M "I M M M"
_symmetry_group_IT_number 71
_symmetry_cell_setting 'orthorhombic'
loop_
_space_group_symop_operation_xyz
x,y,z
-x,-y,z
x,-y,-z
-x,y,-z
-x,-y,-z
x,y,-z
-x,y,z
x,-y,z
1/2+x,1/2+y,1/2+z
1/2-x,1/2-y,1/2+z
1/2+x,1/2-y,1/2-z
1/2-x,1/2+y,1/2-z
1/2-x,1/2-y,1/2-z
1/2+x,1/2+y,1/2-z
1/2-x,1/2+y,1/2+z
1/2+x,1/2-y,1/2+z
loop_
_atom_site_type_symbol
_atom_site_label
_atom_site_fract_x
_atom_site_fract_y
_atom_site_fract_z
Si Si1 0.882050 0.382814 0.000000
Si Si2 0.578782 0.707084 0.740227
Si Si3 0.806119 0.284263 0.625602
Si Si4 0.000000 0.500000 0.000000
Si Si5 0.079256 0.225860 0.000000
Si Si6 0.619565 0.578440 0.127976
Si Si7 0.734566 0.858752 0.670809
O O1 0.939384 0.440316 0.000000
O O2 0.915669 0.307680 0.000000
O O3 0.831472 0.384587 0.894795
O O4 0.500000 0.731364 0.734313
O O5 0.625490 0.756809 0.813298
O O6 0.608326 0.702447 0.616863
O O7 0.581929 0.633476 0.797248
O O8 0.817786 0.302345 0.500000
O O9 0.756148 0.217594 0.629195
O O10 0.778109 0.345215 0.701138
O O11 0.000000 0.202663 0.000000
O O12 0.602970 0.500000 0.152371
O O13 0.700536 0.593389 0.146354
O O14 0.604523 0.591557 0.000000
#
# Coordination Sequence:
#
# PCOD9519562 Si02
#       7
#     8  16  16   2   8  16  16
#     4  12  20  40  54  87 115 149 180 241 285 335
#     4  10  20  34  55  81 111 148 182 236 281 341
#     4  10  19  32  52  88 108 143 192 231 291 354
#     4  12  32  32  64  96 118 152 216 216 288 378
#     4  10  20  36  57  80 114 141 180 231 303 320
#     4  10  21  36  54  81 109 148 195 223 282 346
#     4  10  19  32  57  76 114 148 178 240 290 330
#
# _framework density 17.638273999999999
#
# number of rings (size 3 to 8) (size 9 to 14) (size 15 to 20)
#    0.000    1.756    4.390    1.756    1.366    1.951 
#    0.000    1.463    0.000    1.756    0.000    0.683 
#    0.000    0.000    0.000    0.000    0.000    0.000 
#
# Total GULP energy -228468.191100 kJ/mol
# GULP energy per Si atom -5572.394905 kJ/mol
# Density = 1.759813 g / cm^3
# Si number density = 17.638274 Si / 1000 Ang^3
#
#
#
# Elastic Constant Matrix: (Units=GPa)
#
#
# Indices 1 2 3 4 5 6 
#
# 1 74.6716 -1.8743 14.7201 0.0000 0.0000 0.0000
# 2 -1.8743 52.3207 22.3310 0.0000 0.0000 0.0000
# 3 14.7201 22.3310 145.6578 0.0000 0.0000 0.0000
# 4 0.0000 0.0000 0.0000 13.7461 0.0000 0.0000
# 5 0.0000 0.0000 0.0000 0.0000 19.4323 0.0000
# 6 0.0000 0.0000 0.0000 0.0000 0.0000 16.1261
#
#
#
# Elastic Compliance Matrix: (Units=1/GPa)
#
#
# Indices 1 2 3 4 5 6 
#
# 1 0.013730 0.001160 -0.001565 0.000000 0.000000 0.000000
# 2 0.001160 0.020549 -0.003268 0.000000 0.000000 0.000000
# 3 -0.001565 -0.003268 0.007525 0.000000 0.000000 0.000000
# 4 0.000000 0.000000 0.000000 0.072748 0.000000 0.000000
# 5 0.000000 0.000000 0.000000 0.000000 0.051461 0.000000
# 6 0.000000 0.000000 0.000000 0.000000 0.000000 0.062011
#
#
# Mechanical properties :
#
#
# Convention : Reuss Voigt Hill
#
# Bulk Modulus (GPa) = 29.02143 38.11151 33.56647
# Shear Modulus (GPa) = 20.25482 25.69246 22.97364
#
# Velocity S-wave (km/s) = 3.39240 3.82072 3.61292
# Velocity P-wave (km/s) = 5.64215 6.41234 6.03954
#
# Compressibility (1/GPa) = 0.03445729
#
# Stress axis : x y z
#
# Youngs Moduli (GPa) = 72.83498 48.66388 132.89801
#
# Poissons Ratio (x) = -0.05645 0.20803
# Poissons Ratio (y) = -0.08449 0.43426
# Poissons Ratio (z) = 0.11401 0.15902
#
# Static dielectric constant tensor:
#      x y z
#    x 1.648930 0.000000 0.000000 
#    y 0.000000 1.569590 0.000000 
#    z 0.000000 0.000000 1.629880 
# 
# From -- ./inp_files/25597.got.cif
#   From: 2010.05.17/outbox.cif.g08.bks.cpg/sg71_13_cif.got.tgz:25597.got - 2010.06.03 16:22:01.
