data_PCOD9519556
_publ_section_title
;
Structure prediction by ZEFSAII (Michael W. Deem and Ramdas Pophale) SiO2 
 PCOD9519556
Probable space group: I M M M
;
_chemical_formula_sum "Si O2"
_cell_formula_units_Z 60
_cell_length_a 17.665709
_cell_length_b 12.679065
_cell_length_c 16.438806
_cell_angle_alpha 90.000000
_cell_angle_beta 90.000000
_cell_angle_gamma 90.000000
_cell_volume 3682.040581
_symmetry_space_group_name_H-M "I M M M"
_symmetry_group_IT_number 71
_symmetry_cell_setting 'orthorhombic'
loop_
_space_group_symop_operation_xyz
x,y,z
-x,-y,z
x,-y,-z
-x,y,-z
-x,-y,-z
x,y,-z
-x,y,z
x,-y,z
1/2+x,1/2+y,1/2+z
1/2-x,1/2-y,1/2+z
1/2+x,1/2-y,1/2-z
1/2-x,1/2+y,1/2-z
1/2-x,1/2-y,1/2-z
1/2+x,1/2+y,1/2-z
1/2-x,1/2+y,1/2+z
1/2+x,1/2-y,1/2+z
loop_
_atom_site_type_symbol
_atom_site_label
_atom_site_fract_x
_atom_site_fract_y
_atom_site_fract_z
Si Si1 0.500000 0.161301 0.500000
Si Si2 0.500000 0.121910 0.310684
Si Si3 0.667010 0.873448 0.500000
Si Si4 0.231590 0.121093 0.660587
Si Si5 0.642665 0.818717 0.788761
Si Si6 0.408944 0.000000 0.092563
O O1 0.500000 0.116356 0.408009
O O2 0.410080 0.195640 0.500000
O O3 0.573150 0.179401 0.274483
O O4 0.500000 0.000000 0.281582
O O5 0.718039 0.856167 0.580074
O O6 0.644826 0.000000 0.500000
O O7 0.286903 0.135074 0.737902
O O8 0.165953 0.206064 0.674908
O O9 0.205803 0.000000 0.654954
O O10 0.620236 0.897862 0.860123
O O11 0.500000 0.000000 0.092943
O O12 0.382476 0.000000 0.000000
#
# Coordination Sequence:
#
# PCOD9519556 Si02
#       6
#     4   8   8  16  16   8
#     4  12  21  28  56  86 113 136 167 222 278 325
#     4  12  19  34  55  85 111 136 176 227 277 322
#     4  10  19  32  52  82 110 136 171 221 271 319
#     4  10  21  35  52  79 112 144 180 218 266 328
#     4  11  20  35  56  75 110 146 180 221 273 319
#     4  11  22  36  56  80 104 136 184 237 272 312
#
# _framework density 16.295313
#
# number of rings (size 3 to 8) (size 9 to 14) (size 15 to 20)
#    0.000    1.200    6.667    1.200    1.867    0.000 
#    0.000    0.667    0.000    0.000    0.000    5.600 
#    0.000    0.133    0.000    0.000    0.000    0.000 
#
# Total GULP energy -167067.765321 kJ/mol
# GULP energy per Si atom -5568.925511 kJ/mol
# Density = 1.625822 g / cm^3
# Si number density = 16.295313 Si / 1000 Ang^3
#
#
#
# Elastic Constant Matrix: (Units=GPa)
#
#
# Indices 1 2 3 4 5 6 
#
# 1 82.4337 59.2855 34.2232 0.0000 0.0000 0.0000
# 2 59.2855 103.3668 45.3743 0.0000 0.0000 0.0000
# 3 34.2232 45.3743 128.4423 0.0000 0.0000 0.0000
# 4 0.0000 0.0000 0.0000 0.1115 0.0000 0.0000
# 5 0.0000 0.0000 0.0000 0.0000 21.7499 0.0000
# 6 0.0000 0.0000 0.0000 0.0000 0.0000 24.1249
#
#
#
# Elastic Compliance Matrix: (Units=1/GPa)
#
#
# Indices 1 2 3 4 5 6 
#
# 1 0.020915 -0.011302 -0.001580 0.000000 0.000000 0.000000
# 2 -0.011302 0.017557 -0.003191 0.000000 0.000000 0.000000
# 3 -0.001580 -0.003191 0.009334 0.000000 0.000000 0.000000
# 4 0.000000 0.000000 0.000000 8.971888 0.000000 0.000000
# 5 0.000000 0.000000 0.000000 0.000000 0.045977 0.000000
# 6 0.000000 0.000000 0.000000 0.000000 0.000000 0.041451
#
#
# Mechanical properties :
#
#
# Convention : Reuss Voigt Hill
#
# Bulk Modulus (GPa) = 63.85743 65.77875 64.81809
# Shear Modulus (GPa) = 0.54678 20.88791 10.71734
#
# Velocity S-wave (km/s) = 0.57989 3.58416 2.56734
# Velocity P-wave (km/s) = 6.30246 7.58832 6.97508
#
# Compressibility (1/GPa) = 0.01565988
#
# Stress axis : x y z
#
# Youngs Moduli (GPa) = 47.81143 56.95609 107.13654
#
# Poissons Ratio (x) = 0.64374 0.16929
# Poissons Ratio (y) = 0.54038 0.34187
# Poissons Ratio (z) = 0.07555 0.18174
#
# Static dielectric constant tensor:
#      x y z
#    x 1.557690 0.000000 0.000000 
#    y 0.000000 1.533740 0.000000 
#    z 0.000000 0.000000 1.547530 
# 
# From -- ./inp_files/43046.got.cif
#   From: 2010.05.17/outbox.cif.g08.bks.cpg/sg71_22_cif.got.tgz:43046.got - 2010.06.03 16:22:01.
