data_PCOD9519919
_publ_section_title
;
Structure prediction by ZEFSAII (Michael W. Deem and Ramdas Pophale) SiO2 
 PCOD9519919
Probable space group: I M M M
;
_chemical_formula_sum "Si O2"
_cell_formula_units_Z 96
_cell_length_a 20.396553
_cell_length_b 29.299182
_cell_length_c 9.138835
_cell_angle_alpha 90.000000
_cell_angle_beta 90.000000
_cell_angle_gamma 90.000000
_cell_volume 5461.388985
_symmetry_space_group_name_H-M "I M M M"
_symmetry_group_IT_number 71
_symmetry_cell_setting 'orthorhombic'
loop_
_space_group_symop_operation_xyz
x,y,z
-x,-y,z
x,-y,-z
-x,y,-z
-x,-y,-z
x,y,-z
-x,y,z
x,-y,z
1/2+x,1/2+y,1/2+z
1/2-x,1/2-y,1/2+z
1/2+x,1/2-y,1/2-z
1/2-x,1/2+y,1/2-z
1/2-x,1/2-y,1/2-z
1/2+x,1/2+y,1/2-z
1/2-x,1/2+y,1/2+z
1/2+x,1/2-y,1/2+z
loop_
_atom_site_type_symbol
_atom_site_label
_atom_site_fract_x
_atom_site_fract_y
_atom_site_fract_z
Si Si1 0.694294 0.404068 0.827387
Si Si2 0.693737 0.691572 0.667913
Si Si3 0.153386 0.721063 0.330656
Si Si4 0.925620 0.054844 0.833641
Si Si5 0.424693 0.869182 0.821870
Si Si6 0.678172 0.053106 0.823352
O O1 0.688728 0.352825 0.767190
O O2 0.627244 0.428152 0.780155
O O3 0.754875 0.429225 0.748450
O O4 0.704357 0.404733 0.000000
O O5 0.675607 0.681973 0.500000
O O6 0.770746 0.705074 0.669297
O O7 0.652610 0.733747 0.732690
O O8 0.135870 0.731370 0.500000
O O9 0.109535 0.678508 0.278080
O O10 0.000000 0.070291 0.803821
O O11 0.925859 0.000000 0.833055
O O12 0.907847 0.069229 0.000000
O O13 0.500000 0.872404 0.772959
O O14 0.379988 0.912331 0.778202
O O15 0.424724 0.868995 0.000000
O O16 0.665808 0.000000 0.786848
O O17 0.684735 0.056150 0.000000
#
# Coordination Sequence:
#
# PCOD9519919 Si02
#       6
#    16  16  16  16  16  16
#     4  12  23  34  53  82 114 147 184 226 275 325
#     4  10  19  33  55  79 106 138 178 223 270 324
#     4   9  17  32  53  79 107 136 175 222 275 329
#     4   9  19  37  59  80 105 141 181 220 270 331
#     4   9  17  32  55  82 112 145 183 232 286 334
#     4  10  20  35  55  80 111 147 190 236 280 329
#
# _framework density 17.577946000000001
#
# number of rings (size 3 to 8) (size 9 to 14) (size 15 to 20)
#    0.000    2.167    1.667    3.000    0.000    4.000 
#    0.000    3.333    0.000    5.000    0.000    1.167 
#    0.000    0.000    0.000    0.000    0.000    0.000 
#
# Total GULP energy -267745.355815 kJ/mol
# GULP energy per Si atom -5578.028246 kJ/mol
# Density = 1.753794 g / cm^3
# Si number density = 17.577946 Si / 1000 Ang^3
#
#
#
# Elastic Constant Matrix: (Units=GPa)
#
#
# Indices 1 2 3 4 5 6 
#
# 1 90.8669 62.1821 37.6902 0.0000 0.0000 0.0000
# 2 62.1821 109.2899 38.0568 0.0000 0.0000 0.0000
# 3 37.6902 38.0568 51.1226 0.0000 0.0000 0.0000
# 4 0.0000 0.0000 0.0000 25.7967 0.0000 0.0000
# 5 0.0000 0.0000 0.0000 0.0000 10.3492 0.0000
# 6 0.0000 0.0000 0.0000 0.0000 0.0000 -3.6115
#
#
#
# Elastic Compliance Matrix: (Units=1/GPa)
#
#
# Indices 1 2 3 4 5 6 
#
# 1 0.020536 -0.008656 -0.008696 0.000000 0.000000 0.000000
# 2 -0.008656 0.016000 -0.005529 0.000000 0.000000 0.000000
# 3 -0.008696 -0.005529 0.030088 0.000000 0.000000 0.000000
# 4 0.000000 0.000000 0.000000 0.038765 0.000000 0.000000
# 5 0.000000 0.000000 0.000000 0.000000 0.096626 0.000000
# 6 0.000000 0.000000 0.000000 0.000000 0.000000 -0.276890
#
#
# Mechanical properties :
#
#
# Convention : Reuss Voigt Hill
#
# Bulk Modulus (GPa) = 47.93600 58.57085 53.25343
# Shear Modulus (GPa) = -225.64507 14.06356 -105.79076
#
# Velocity S-wave (km/s) = -11.34226 2.83162 -7.76624
# Velocity P-wave (km/s) = 12.00831 6.63956 7.07516
#
# Compressibility (1/GPa) = 0.02086115
#
# Stress axis : x y z
#
# Youngs Moduli (GPa) = 48.69614 62.49885 33.23538
#
# Poissons Ratio (x) = 0.54098 0.28902
# Poissons Ratio (y) = 0.42150 0.18377
# Poissons Ratio (z) = 0.42347 0.34559
#
# Static dielectric constant tensor:
#      x y z
#    x 1.585790 0.000000 0.000000 
#    y 0.000000 1.600780 0.000000 
#    z 0.000000 0.000000 1.589620 
# 
# From -- ./inp_files/10932.got.cif
#   From: 2010.05.17/outbox.cif.g08.bks.cpg/sg71_6_cif.got.tgz:10932.got - 2010.06.03 16:22:01.
