data_PCOD9519250
_publ_section_title
;
Structure prediction by ZEFSAII (Michael W. Deem and Ramdas Pophale) SiO2 
 PCOD9519250
Probable space group: I M M M
;
_chemical_formula_sum "Si O2"
_cell_formula_units_Z 96
_cell_length_a 18.011199
_cell_length_b 12.737097
_cell_length_c 23.197887
_cell_angle_alpha 90.000000
_cell_angle_beta 90.000000
_cell_angle_gamma 90.000000
_cell_volume 5321.836275
_symmetry_space_group_name_H-M "I M M M"
_symmetry_group_IT_number 71
_symmetry_cell_setting 'orthorhombic'
loop_
_space_group_symop_operation_xyz
x,y,z
-x,-y,z
x,-y,-z
-x,y,-z
-x,-y,-z
x,y,-z
-x,y,z
x,-y,z
1/2+x,1/2+y,1/2+z
1/2-x,1/2-y,1/2+z
1/2+x,1/2-y,1/2-z
1/2-x,1/2+y,1/2-z
1/2-x,1/2-y,1/2-z
1/2+x,1/2+y,1/2-z
1/2-x,1/2+y,1/2+z
1/2+x,1/2-y,1/2+z
loop_
_atom_site_type_symbol
_atom_site_label
_atom_site_fract_x
_atom_site_fract_y
_atom_site_fract_z
Si Si1 0.411843 0.877590 0.744084
Si Si2 0.858458 0.621459 0.629966
Si Si3 0.634470 0.000000 0.569113
Si Si4 0.200812 0.877395 0.067438
Si Si5 0.586215 0.217324 0.376752
Si Si6 0.806636 0.000000 0.429878
Si Si7 0.417657 0.681016 0.068996
O O1 0.500000 0.865915 0.757218
O O2 0.365673 0.858001 0.801885
O O3 0.393931 0.804004 0.690128
O O4 0.400948 0.000000 0.727143
O O5 0.881442 0.500000 0.620696
O O6 0.776278 0.633914 0.603874
O O7 0.908085 0.706049 0.597394
O O8 0.596684 0.105073 0.592356
O O9 0.721167 0.000000 0.588065
O O10 0.632452 0.000000 0.500000
O O11 0.138899 0.801369 0.093106
O O12 0.178589 0.000000 0.070345
O O13 0.215120 0.851664 0.000000
O O14 0.500000 0.248244 0.380041
O O15 0.852933 0.897739 0.411228
O O16 0.807248 0.000000 0.500000
O O17 0.500000 0.638283 0.081596
O O18 0.411452 0.691090 0.000000
#
# Coordination Sequence:
#
# PCOD9519250 Si02
#       7
#    16  16   8  16  16   8  16
#     4   9  18  35  57  82 114 148 181 225 284 339
#     4  10  20  35  57  82 109 148 190 232 276 333
#     4  11  21  33  55  85 111 137 178 233 290 341
#     4  10  22  39  57  80 114 153 189 229 283 341
#     4  11  22  37  58  83 111 145 186 236 289 343
#     4   9  19  35  51  71 107 151 183 216 274 341
#     4  10  19  31  51  79 111 147 188 232 277 330
#
# _framework density 18.038886999999999
#
# number of rings (size 3 to 8) (size 9 to 14) (size 15 to 20)
#    0.000    2.000    0.833    3.000    0.000    7.000 
#    0.000    1.667    1.833    0.000    0.000    0.000 
#    0.000    0.000    0.000    0.000    0.000    0.000 
#
# Total GULP energy -267921.286515 kJ/mol
# GULP energy per Si atom -5581.693469 kJ/mol
# Density = 1.799783 g / cm^3
# Si number density = 18.038887 Si / 1000 Ang^3
#
#
#
# Elastic Constant Matrix: (Units=GPa)
#
#
# Indices 1 2 3 4 5 6 
#
# 1 54.5550 28.9750 49.1797 0.0000 0.0000 0.0000
# 2 28.9750 62.3717 42.8137 0.0000 0.0000 0.0000
# 3 49.1797 42.8137 99.6567 0.0000 0.0000 0.0000
# 4 0.0000 0.0000 0.0000 23.8870 0.0000 0.0000
# 5 0.0000 0.0000 0.0000 0.0000 27.8250 0.0000
# 6 0.0000 0.0000 0.0000 0.0000 0.0000 25.6326
#
#
#
# Elastic Compliance Matrix: (Units=1/GPa)
#
#
# Indices 1 2 3 4 5 6 
#
# 1 0.034620 -0.006177 -0.014431 0.000000 0.000000 0.000000
# 2 -0.006177 0.023841 -0.007194 0.000000 0.000000 0.000000
# 3 -0.014431 -0.007194 0.020246 0.000000 0.000000 0.000000
# 4 0.000000 0.000000 0.000000 0.041864 0.000000 0.000000
# 5 0.000000 0.000000 0.000000 0.000000 0.035939 0.000000
# 6 0.000000 0.000000 0.000000 0.000000 0.000000 0.039013
#
#
# Mechanical properties :
#
#
# Convention : Reuss Voigt Hill
#
# Bulk Modulus (GPa) = 43.28371 50.94670 47.11520
# Shear Modulus (GPa) = 19.31794 21.84327 20.58061
#
# Velocity S-wave (km/s) = 3.27602 3.48357 3.38139
# Velocity P-wave (km/s) = 6.19326 6.66966 6.43587
#
# Compressibility (1/GPa) = 0.02310338
#
# Stress axis : x y z
#
# Youngs Moduli (GPa) = 28.88523 41.94536 49.39129
#
# Poissons Ratio (x) = 0.25910 0.71276
# Poissons Ratio (y) = 0.17842 0.35531
# Poissons Ratio (z) = 0.41684 0.30175
#
# Static dielectric constant tensor:
#      x y z
#    x 1.612000 0.000000 0.000000 
#    y 0.000000 1.607170 0.000000 
#    z 0.000000 0.000000 1.605580 
# 
# From -- ./inp_files/60566.got.cif
#   From: 2010.05.17/outbox.cif.g08.bks.cpg/sg71_31_cif.got.tgz:60566.got - 2010.06.03 16:22:01.
