data_PCOD9519877
_publ_section_title
;
Structure prediction by ZEFSAII (Michael W. Deem and Ramdas Pophale) SiO2 
 PCOD9519877
Probable space group: I M M M
;
_chemical_formula_sum "Si O2"
_cell_formula_units_Z 104
_cell_length_a 9.378396
_cell_length_b 28.615644
_cell_length_c 22.870970
_cell_angle_alpha 90.000000
_cell_angle_beta 90.000000
_cell_angle_gamma 90.000000
_cell_volume 6137.855717
_symmetry_space_group_name_H-M "I M M M"
_symmetry_group_IT_number 71
_symmetry_cell_setting 'orthorhombic'
loop_
_space_group_symop_operation_xyz
x,y,z
-x,-y,z
x,-y,-z
-x,y,-z
-x,-y,-z
x,y,-z
-x,y,z
x,-y,z
1/2+x,1/2+y,1/2+z
1/2-x,1/2-y,1/2+z
1/2+x,1/2-y,1/2-z
1/2-x,1/2+y,1/2-z
1/2-x,1/2-y,1/2-z
1/2+x,1/2+y,1/2-z
1/2-x,1/2+y,1/2+z
1/2+x,1/2-y,1/2+z
loop_
_atom_site_type_symbol
_atom_site_label
_atom_site_fract_x
_atom_site_fract_y
_atom_site_fract_z
Si Si1 0.668953 0.946262 0.236245
Si Si2 0.173393 0.555038 0.500000
Si Si3 0.841424 0.444039 0.932024
Si Si4 0.668073 0.708795 0.185613
Si Si5 0.670229 0.697914 0.324492
Si Si6 0.170192 0.390137 0.381473
Si Si7 0.667323 0.606153 0.837527
O O1 0.500000 0.944260 0.248574
O O2 0.689973 0.927294 0.170907
O O3 0.750348 0.913951 0.281757
O O4 0.715255 0.000000 0.241974
O O5 0.220189 0.500000 0.500000
O O6 0.214752 0.584551 0.558021
O O7 0.000000 0.553293 0.500000
O O8 0.836606 0.500000 0.927472
O O9 0.720741 0.422236 0.892851
O O10 0.000000 0.429182 0.911706
O O11 0.827329 0.431878 0.000000
O O12 0.500000 0.721079 0.182071
O O13 0.696559 0.695796 0.254017
O O14 0.761744 0.751476 0.162486
O O15 0.697006 0.660716 0.152680
O O16 0.500000 0.696412 0.333501
O O17 0.746066 0.656356 0.360514
O O18 0.000000 0.379572 0.385320
O O19 0.500000 0.601196 0.826963
#
# Coordination Sequence:
#
# PCOD9519877 Si02
#       7
#    16   8  16  16  16  16  16
#     4  10  20  32  48  74 107 141 176 213 257 313
#     4   9  18  34  57  83 109 143 191 237 272 317
#     4   9  19  36  55  74 101 139 178 212 248 299
#     4   9  19  34  51  76 108 137 170 210 259 315
#     4  10  19  33  54  78 105 136 171 213 261 317
#     4  10  19  33  55  79 106 141 181 225 272 317
#     4  11  21  33  51  78 108 136 168 214 266 311
#
# _framework density 16.944027999999999
#
# number of rings (size 3 to 8) (size 9 to 14) (size 15 to 20)
#    0.000    2.231    1.538    2.308    0.000    6.462 
#    0.000    1.154    1.692    1.846    0.000    0.000 
#    0.000    0.000    0.000    0.000    0.000    0.000 
#
# Total GULP energy -289881.925764 kJ/mol
# GULP energy per Si atom -5574.652419 kJ/mol
# Density = 1.690546 g / cm^3
# Si number density = 16.944028 Si / 1000 Ang^3
#
#
#
# Elastic Constant Matrix: (Units=GPa)
#
#
# Indices 1 2 3 4 5 6 
#
# 1 39.5571 52.4600 20.6937 0.0000 0.0000 0.0000
# 2 52.4600 103.0983 43.3431 0.0000 0.0000 0.0000
# 3 20.6937 43.3431 43.7046 0.0000 0.0000 0.0000
# 4 0.0000 0.0000 0.0000 13.9762 0.0000 0.0000
# 5 0.0000 0.0000 0.0000 0.0000 -10.4965 0.0000
# 6 0.0000 0.0000 0.0000 0.0000 0.0000 28.1244
#
#
#
# Elastic Compliance Matrix: (Units=1/GPa)
#
#
# Indices 1 2 3 4 5 6 
#
# 1 0.078180 -0.041536 0.004175 0.000000 0.000000 0.000000
# 2 -0.041536 0.038703 -0.018716 0.000000 0.000000 0.000000
# 3 0.004175 -0.018716 0.039465 0.000000 0.000000 0.000000
# 4 0.000000 0.000000 0.000000 0.071550 0.000000 0.000000
# 5 0.000000 0.000000 0.000000 0.000000 -0.095270 0.000000
# 6 0.000000 0.000000 0.000000 0.000000 0.000000 0.035556
#
#
# Mechanical properties :
#
#
# Convention : Reuss Voigt Hill
#
# Bulk Modulus (GPa) = 22.62737 46.59485 34.61111
# Shear Modulus (GPa) = 16.94518 10.97837 13.96178
#
# Velocity S-wave (km/s) = 3.16582 2.54819 2.87364
# Velocity P-wave (km/s) = 5.17169 6.01803 5.61084
#
# Compressibility (1/GPa) = 0.04419426
#
# Stress axis : x y z
#
# Youngs Moduli (GPa) = 12.79096 25.83809 25.33897
#
# Poissons Ratio (x) = 1.07321 -0.10578
# Poissons Ratio (y) = 0.53128 0.47423
# Poissons Ratio (z) = -0.05340 0.48357
#
# Static dielectric constant tensor:
#      x y z
#    x 1.576960 0.000000 0.000000 
#    y 0.000000 1.575420 0.000000 
#    z 0.000000 0.000000 1.565580 
# 
# From -- ./inp_files/57991.got.cif
#   From: 2010.05.17/outbox.cif.g08.bks.cpg/sg71_29_cif.got.tgz:57991.got - 2010.06.03 16:22:01.
