data_PCOD9519001
_publ_section_title
;
Structure prediction by ZEFSAII (Michael W. Deem and Ramdas Pophale) SiO2 
 PCOD9519001
Probable space group: I M M M
;
_chemical_formula_sum "Si O2"
_cell_formula_units_Z 120
_cell_length_a 14.641086
_cell_length_b 22.623324
_cell_length_c 23.502441
_cell_angle_alpha 90.000000
_cell_angle_beta 90.000000
_cell_angle_gamma 90.000000
_cell_volume 7784.714291
_symmetry_space_group_name_H-M "I M M M"
_symmetry_group_IT_number 71
_symmetry_cell_setting 'orthorhombic'
loop_
_space_group_symop_operation_xyz
x,y,z
-x,-y,z
x,-y,-z
-x,y,-z
-x,-y,-z
x,y,-z
-x,y,z
x,-y,z
1/2+x,1/2+y,1/2+z
1/2-x,1/2-y,1/2+z
1/2+x,1/2-y,1/2-z
1/2-x,1/2+y,1/2-z
1/2-x,1/2-y,1/2-z
1/2+x,1/2+y,1/2-z
1/2-x,1/2+y,1/2+z
1/2+x,1/2-y,1/2+z
loop_
_atom_site_type_symbol
_atom_site_label
_atom_site_fract_x
_atom_site_fract_y
_atom_site_fract_z
Si Si1 0.108274 0.568747 0.732464
Si Si2 0.391526 0.864209 0.885518
Si Si3 0.751189 0.771483 0.156490
Si Si4 0.611567 0.931941 0.000000
Si Si5 0.743944 0.343784 0.225359
Si Si6 0.609551 0.692143 0.563132
Si Si7 0.893749 0.931504 0.232719
Si Si8 0.111113 0.064566 0.101341
O O1 0.137036 0.500000 0.738534
O O2 0.121413 0.590785 0.667416
O O3 0.165841 0.615346 0.769672
O O4 0.000000 0.572220 0.744552
O O5 0.500000 0.851342 0.888810
O O6 0.333806 0.805267 0.872829
O O7 0.361749 0.896738 0.943215
O O8 0.739808 0.703740 0.175289
O O9 0.765408 0.807104 0.215540
O O10 0.836092 0.777665 0.113955
O O11 0.500000 0.933615 0.000000
O O12 0.642615 0.000000 0.000000
O O13 0.661266 0.389495 0.226311
O O14 0.632104 0.714463 0.500000
O O15 0.500000 0.696383 0.570980
O O16 0.635095 0.622575 0.566865
O O17 0.860014 0.926493 0.167129
O O18 0.000000 0.915744 0.231990
O O19 0.884815 0.000000 0.248220
O O20 0.000000 0.062040 0.101720
O O21 0.143349 0.000000 0.081628
#
# Coordination Sequence:
#
# PCOD9519001 Si02
#       8
#    16  16  16   8  16  16  16  16
#     4   9  17  30  47  66  91 120 151 193 239 279
#     4   9  18  31  45  65  92 123 157 191 231 273
#     4  10  21  32  45  64  91 124 164 201 232 271
#     4   9  16  28  48  68  87 119 160 197 229 259
#     4  10  19  31  46  66  90 124 159 197 235 278
#     4  10  20  33  48  64  89 127 164 201 237 267
#     4   9  16  27  46  70  95 121 148 186 236 285
#     4   8  14  26  43  63  88 120 157 193 228 263
#
# _framework density 15.414823
#
# number of rings (size 3 to 8) (size 9 to 14) (size 15 to 20)
#    0.000    2.733    1.333    1.600    0.933    2.933 
#    0.000    4.667    0.000    0.000    0.000    0.000 
#    0.000    2.133    0.000    8.800    0.000    0.000 
#
# Total GULP energy -334406.432889 kJ/mol
# GULP energy per Si atom -5573.440548 kJ/mol
# Density = 1.537974 g / cm^3
# Si number density = 15.414823 Si / 1000 Ang^3
#
#
#
# Elastic Constant Matrix: (Units=GPa)
#
#
# Indices 1 2 3 4 5 6 
#
# 1 60.7832 36.9509 31.6591 0.0000 0.0000 0.0000
# 2 36.9509 63.4727 46.4107 0.0000 0.0000 0.0000
# 3 31.6591 46.4107 64.3087 0.0000 0.0000 0.0000
# 4 0.0000 0.0000 0.0000 20.9018 0.0000 0.0000
# 5 0.0000 0.0000 0.0000 0.0000 14.7509 0.0000
# 6 0.0000 0.0000 0.0000 0.0000 0.0000 20.3360
#
#
#
# Elastic Compliance Matrix: (Units=1/GPa)
#
#
# Indices 1 2 3 4 5 6 
#
# 1 0.025932 -0.012199 -0.003962 0.000000 0.000000 0.000000
# 2 -0.012199 0.039096 -0.022209 0.000000 0.000000 0.000000
# 3 -0.003962 -0.022209 0.033529 0.000000 0.000000 0.000000
# 4 0.000000 0.000000 0.000000 0.047843 0.000000 0.000000
# 5 0.000000 0.000000 0.000000 0.000000 0.067792 0.000000
# 6 0.000000 0.000000 0.000000 0.000000 0.000000 0.049174
#
#
# Mechanical properties :
#
#
# Convention : Reuss Voigt Hill
#
# Bulk Modulus (GPa) = 45.84007 46.51179 46.17593
# Shear Modulus (GPa) = 14.39354 16.10066 15.24710
#
# Velocity S-wave (km/s) = 3.05904 3.23537 3.14844
# Velocity P-wave (km/s) = 6.50225 6.64799 6.57552
#
# Compressibility (1/GPa) = 0.02181498
#
# Stress axis : x y z
#
# Youngs Moduli (GPa) = 38.56291 25.57821 29.82519
#
# Poissons Ratio (x) = 0.31203 0.11817
# Poissons Ratio (y) = 0.47043 0.66240
# Poissons Ratio (z) = 0.15279 0.56807
#
# Static dielectric constant tensor:
#      x y z
#    x 1.555580 0.000000 0.000000 
#    y 0.000000 1.505320 0.000000 
#    z 0.000000 0.000000 1.519720 
# 
# From -- ./inp_files/53438.got.cif
#   From: 2010.05.17/outbox.cif.g08.bks.cpg/sg71_27_cif.got.tgz:53438.got - 2010.06.03 16:22:01.
