data_PCOD9519118
_publ_section_title
;
Structure prediction by ZEFSAII (Michael W. Deem and Ramdas Pophale) SiO2 
 PCOD9519118
Probable space group: I M M M
;
_chemical_formula_sum "Si O2"
_cell_formula_units_Z 88
_cell_length_a 18.359445
_cell_length_b 31.949419
_cell_length_c 7.965980
_cell_angle_alpha 90.000000
_cell_angle_beta 90.000000
_cell_angle_gamma 90.000000
_cell_volume 4672.633573
_symmetry_space_group_name_H-M "I M M M"
_symmetry_group_IT_number 71
_symmetry_cell_setting 'orthorhombic'
loop_
_space_group_symop_operation_xyz
x,y,z
-x,-y,z
x,-y,-z
-x,y,-z
-x,-y,-z
x,y,-z
-x,y,z
x,-y,z
1/2+x,1/2+y,1/2+z
1/2-x,1/2-y,1/2+z
1/2+x,1/2-y,1/2-z
1/2-x,1/2+y,1/2-z
1/2-x,1/2-y,1/2-z
1/2+x,1/2+y,1/2-z
1/2-x,1/2+y,1/2+z
1/2+x,1/2-y,1/2+z
loop_
_atom_site_type_symbol
_atom_site_label
_atom_site_fract_x
_atom_site_fract_y
_atom_site_fract_z
Si Si1 0.307222 0.620103 0.192988
Si Si2 0.653619 0.914115 0.800062
Si Si3 0.266026 0.202635 0.297260
Si Si4 0.583444 0.546958 0.298678
Si Si5 0.420549 0.832169 0.296952
Si Si6 0.916907 0.500000 0.705238
O O1 0.227652 0.599223 0.209994
O O2 0.290786 0.666848 0.266372
O O3 0.364848 0.586318 0.260406
O O4 0.327318 0.626205 0.000000
O O5 0.592819 0.879472 0.762141
O O6 0.625161 0.958691 0.742392
O O7 0.667885 0.915108 0.000000
O O8 0.265894 0.199160 0.500000
O O9 0.250000 0.250000 0.250000
O O10 0.347979 0.191623 0.237856
O O11 0.580937 0.544594 0.500000
O O12 0.500000 0.553348 0.238542
O O13 0.607646 0.500000 0.239656
O O14 0.419928 0.831326 0.500000
O O15 0.500000 0.816847 0.240474
O O16 0.918410 0.500000 0.500000
O O17 0.000000 0.500000 0.763093
#
# Coordination Sequence:
#
# PCOD9519118 Si02
#       6
#    16  16  16  16  16   8
#     4  10  21  36  53  77 107 138 173 215 264 318
#     4  10  19  31  49  72  99 134 174 213 249 293
#     4   9  19  35  54  76 103 134 171 217 268 320
#     4   9  19  36  57  81 109 141 180 225 269 317
#     4   9  18  34  53  73 100 131 165 210 262 313
#     4   9  18  30  43  65  98 131 164 205 247 282
#
# _framework density 18.833062999999999
#
# number of rings (size 3 to 8) (size 9 to 14) (size 15 to 20)
#    0.000    2.636    0.000    3.273    1.273    5.455 
#    0.000    3.182    0.000    6.545    0.000    0.000 
#    0.000    0.000    0.000    0.000    0.000    0.000 
#
# Total GULP energy -245100.751624 kJ/mol
# GULP energy per Si atom -5570.471628 kJ/mol
# Density = 1.879020 g / cm^3
# Si number density = 18.833063 Si / 1000 Ang^3
#
#
#
# Elastic Constant Matrix: (Units=GPa)
#
#
# Indices 1 2 3 4 5 6 
#
# 1 88.6478 75.1519 6.0810 -0.0010 0.0017 0.0028
# 2 75.1519 177.1719 5.1587 -0.0002 -0.0010 -0.0004
# 3 6.0810 5.1587 14.1213 0.0023 -0.0127 -0.0002
# 4 -0.0010 -0.0002 0.0023 22.9856 -0.0050 -0.0007
# 5 0.0017 -0.0010 -0.0127 -0.0050 19.8553 -0.0033
# 6 0.0028 -0.0004 -0.0002 -0.0007 -0.0033 18.2921
#
#
#
# Elastic Compliance Matrix: (Units=1/GPa)
#
#
# Indices 1 2 3 4 5 6 
#
# 1 0.017958 -0.007472 -0.005004 0.000001 -0.000005 -0.000003
# 2 -0.007472 0.008814 -0.000002 0.000000 0.000001 0.000001
# 3 -0.005004 -0.000002 0.072971 -0.000008 0.000047 0.000002
# 4 0.000001 0.000000 -0.000008 0.043505 0.000011 0.000002
# 5 -0.000005 0.000001 0.000047 0.000011 0.050364 0.000009
# 6 -0.000003 0.000001 0.000002 0.000002 0.000009 0.054668
#
#
# Mechanical properties :
#
#
# Convention : Reuss Voigt Hill
#
# Bulk Modulus (GPa) = 13.37127 50.30269 31.83698
# Shear Modulus (GPa) = 16.76926 25.12991 20.94958
#
# Velocity S-wave (km/s) = 2.98722 3.65684 3.33886
# Velocity P-wave (km/s) = 4.36042 6.67815 5.63964
#
# Compressibility (1/GPa) = 0.07478724
#
# Stress axis : x y z
#
# Youngs Moduli (GPa) = 55.68559 113.46124 13.70412
#
# Poissons Ratio (x) = 0.84774 0.06857
# Poissons Ratio (y) = 0.41606 0.00003
# Poissons Ratio (z) = 0.27863 0.00026
#
# Static dielectric constant tensor:
#      x y z
#    x 1.647820 0.000000 0.000000 
#    y 0.000000 1.666010 0.000000 
#    z 0.000000 0.000000 1.675910 
# 
# From -- ./inp_files/8856.got.cif
#   From: 2010.05.17/outbox.cif.g08.bks.cpg/sg71_5_cif.got.tgz:8856.got - 2010.06.03 16:22:01.
