data_PCOD9519786
_publ_section_title
;
Structure prediction by ZEFSAII (Michael W. Deem and Ramdas Pophale) SiO2 
 PCOD9519786
Probable space group: I M M M
;
_chemical_formula_sum "Si O2"
_cell_formula_units_Z 80
_cell_length_a 8.272915
_cell_length_b 20.620267
_cell_length_c 20.464498
_cell_angle_alpha 90.000000
_cell_angle_beta 90.000000
_cell_angle_gamma 90.000000
_cell_volume 3491.032905
_symmetry_space_group_name_H-M "I M M M"
_symmetry_group_IT_number 71
_symmetry_cell_setting 'orthorhombic'
loop_
_space_group_symop_operation_xyz
x,y,z
-x,-y,z
x,-y,-z
-x,y,-z
-x,-y,-z
x,y,-z
-x,y,z
x,-y,z
1/2+x,1/2+y,1/2+z
1/2-x,1/2-y,1/2+z
1/2+x,1/2-y,1/2-z
1/2-x,1/2+y,1/2-z
1/2-x,1/2-y,1/2-z
1/2+x,1/2+y,1/2-z
1/2-x,1/2+y,1/2+z
1/2+x,1/2-y,1/2+z
loop_
_atom_site_type_symbol
_atom_site_label
_atom_site_fract_x
_atom_site_fract_y
_atom_site_fract_z
Si Si1 0.310266 0.922096 0.071582
Si Si2 0.320670 0.100538 0.343533
Si Si3 0.500000 0.752438 0.073908
Si Si4 0.177531 0.757087 0.851531
Si Si5 0.000000 0.904692 0.576186
Si Si6 0.318605 0.615470 0.711795
O O1 0.500000 0.904687 0.077789
O O2 0.219351 0.903089 0.137594
O O3 0.303269 0.000000 0.069359
O O4 0.250600 0.898721 0.000000
O O5 0.500000 0.080053 0.365867
O O6 0.318370 0.179558 0.344126
O O7 0.294936 0.085684 0.266936
O O8 0.166559 0.077504 0.386025
O O9 0.664560 0.774000 0.107452
O O10 0.500000 0.673932 0.076117
O O11 0.500000 0.772889 0.000000
O O12 0.186045 0.805663 0.789858
O O13 0.000000 0.771446 0.881479
O O14 0.000000 0.925009 0.500000
O O15 0.500000 0.596105 0.729444
#
# Coordination Sequence:
#
# PCOD9519786 Si02
#       6
#    16  16   8  16   8  16
#     4   9  20  39  58  76 103 142 188 236 284 332
#     4  10  19  33  52  75 107 144 180 224 267 317
#     4   9  18  30  46  64  93 138 177 215 264 308
#     4   9  20  32  45  71 103 137 177 223 270 321
#     4   9  18  34  50  72 104 137 177 215 255 314
#     4  11  21  33  51  77 105 135 180 229 275 327
#
# _framework density 22.915855000000001
#
# number of rings (size 3 to 8) (size 9 to 14) (size 15 to 20)
#    0.000    2.400    1.000    1.800    2.800    2.400 
#    0.000    7.000    0.000    0.000    0.000    0.000 
#    0.000    1.600    0.000    4.200    0.000    0.200 
#
# Total GULP energy -223219.704890 kJ/mol
# GULP energy per Si atom -5580.492622 kJ/mol
# Density = 2.286370 g / cm^3
# Si number density = 22.915855 Si / 1000 Ang^3
#
#
#
# Elastic Constant Matrix: (Units=GPa)
#
#
# Indices 1 2 3 4 5 6 
#
# 1 190.5137 14.4021 85.7529 0.0000 0.0000 0.0000
# 2 14.4021 66.1756 6.4364 0.0000 0.0000 0.0000
# 3 85.7529 6.4364 120.8054 0.0000 0.0000 0.0000
# 4 0.0000 0.0000 0.0000 6.1639 0.0000 0.0000
# 5 0.0000 0.0000 0.0000 0.0000 18.3538 0.0000
# 6 0.0000 0.0000 0.0000 0.0000 0.0000 0.6343
#
#
#
# Elastic Compliance Matrix: (Units=1/GPa)
#
#
# Indices 1 2 3 4 5 6 
#
# 1 0.007802 -0.001165 -0.005476 0.000000 0.000000 0.000000
# 2 -0.001165 0.015364 0.000009 0.000000 0.000000 0.000000
# 3 -0.005476 0.000009 0.012164 0.000000 0.000000 0.000000
# 4 0.000000 0.000000 0.000000 0.162235 0.000000 0.000000
# 5 0.000000 0.000000 0.000000 0.000000 0.054485 0.000000
# 6 0.000000 0.000000 0.000000 0.000000 0.000000 1.576653
#
#
# Mechanical properties :
#
#
# Convention : Reuss Voigt Hill
#
# Bulk Modulus (GPa) = 45.32080 65.63082 55.47581
# Shear Modulus (GPa) = 2.70369 23.09061 12.89715
#
# Velocity S-wave (km/s) = 1.08738 3.17776 2.37492
# Velocity P-wave (km/s) = 4.62564 6.49356 5.63750
#
# Compressibility (1/GPa) = 0.02206492
#
# Stress axis : x y z
#
# Youngs Moduli (GPa) = 128.17380 65.08682 82.20679
#
# Poissons Ratio (x) = 0.07585 0.45017
# Poissons Ratio (y) = 0.14937 -0.00071
# Poissons Ratio (z) = 0.70188 -0.00056
#
# Static dielectric constant tensor:
#      x y z
#    x 1.741410 0.000000 0.000000 
#    y 0.000000 1.910680 0.000000 
#    z 0.000000 0.000000 1.827480 
# 
# From -- ./inp_files/50398.got.cif
#   From: 2010.05.17/outbox.cif.g08.bks.cpg/sg71_26_cif.got.tgz:50398.got - 2010.06.03 16:22:01.
