data_PCOD9519454
_publ_section_title
;
Structure prediction by ZEFSAII (Michael W. Deem and Ramdas Pophale) SiO2 
 PCOD9519454
Probable space group: I M M M
;
_chemical_formula_sum "Si O2"
_cell_formula_units_Z 80
_cell_length_a 17.580011
_cell_length_b 27.546280
_cell_length_c 7.413722
_cell_angle_alpha 90.000000
_cell_angle_beta 90.000000
_cell_angle_gamma 90.000000
_cell_volume 3590.197969
_symmetry_space_group_name_H-M "I M M M"
_symmetry_group_IT_number 71
_symmetry_cell_setting 'orthorhombic'
loop_
_space_group_symop_operation_xyz
x,y,z
-x,-y,z
x,-y,-z
-x,y,-z
-x,-y,-z
x,y,-z
-x,y,z
x,-y,z
1/2+x,1/2+y,1/2+z
1/2-x,1/2-y,1/2+z
1/2+x,1/2-y,1/2-z
1/2-x,1/2+y,1/2-z
1/2-x,1/2-y,1/2-z
1/2+x,1/2+y,1/2-z
1/2-x,1/2+y,1/2+z
1/2+x,1/2-y,1/2+z
loop_
_atom_site_type_symbol
_atom_site_label
_atom_site_fract_x
_atom_site_fract_y
_atom_site_fract_z
Si Si1 0.645924 0.116392 0.287512
Si Si2 0.587636 0.500000 0.720622
Si Si3 0.500000 0.943782 0.721249
Si Si4 0.084932 0.818843 0.779756
Si Si5 0.685529 0.592114 0.282809
Si Si6 0.168215 0.725503 0.784269
O O1 0.631073 0.122065 0.500000
O O2 0.575145 0.085311 0.217535
O O3 0.726522 0.089587 0.268064
O O4 0.657371 0.171048 0.212306
O O5 0.500000 0.500000 0.778652
O O6 0.586671 0.500000 0.500000
O O7 0.633913 0.452547 0.778625
O O8 0.500000 0.944487 0.500000
O O9 0.500000 0.000000 0.778073
O O10 0.147471 0.857680 0.719252
O O11 0.107016 0.764918 0.719928
O O12 0.000000 0.832818 0.724712
O O13 0.086157 0.819050 0.000000
O O14 0.682783 0.592429 0.500000
O O15 0.250000 0.750000 0.750000
O O16 0.161031 0.722434 0.000000
#
# Coordination Sequence:
#
# PCOD9519454 Si02
#       6
#    16   8   8  16  16  16
#     4  10  21  35  54  78 104 136 176 219 262 310
#     4   9  18  32  53  80 107 132 168 215 255 299
#     4   9  20  38  57  77 103 139 183 228 270 313
#     4   9  17  29  49  75 102 134 172 208 246 301
#     4  10  19  33  54  78 104 136 170 210 260 311
#     4  10  19  32  51  76 105 135 169 213 260 309
#
# _framework density 22.282893000000001
#
# number of rings (size 3 to 8) (size 9 to 14) (size 15 to 20)
#    0.000    2.400    2.000    0.600    2.800    2.400 
#    0.000    0.500    0.000    5.400    0.000    0.000 
#    0.000    0.000    0.000    0.000    0.000    0.000 
#
# Total GULP energy -223467.510568 kJ/mol
# GULP energy per Si atom -5586.687764 kJ/mol
# Density = 2.223218 g / cm^3
# Si number density = 22.282893 Si / 1000 Ang^3
#
#
#
# Elastic Constant Matrix: (Units=GPa)
#
#
# Indices 1 2 3 4 5 6 
#
# 1 207.8486 107.0905 -4.4277 0.0000 -0.0002 0.0000
# 2 107.0905 183.3064 8.5227 0.0000 -0.0001 0.0000
# 3 -4.4277 8.5227 73.3387 0.0004 -0.0019 0.0000
# 4 0.0000 0.0000 0.0004 -3.3776 -0.0001 0.0000
# 5 -0.0002 -0.0001 -0.0019 -0.0001 24.1094 0.0000
# 6 0.0000 0.0000 0.0000 0.0000 0.0000 37.1138
#
#
#
# Elastic Compliance Matrix: (Units=1/GPa)
#
#
# Indices 1 2 3 4 5 6 
#
# 1 0.006941 -0.004097 0.000895 0.000000 0.000000 0.000000
# 2 -0.004097 0.007903 -0.001166 0.000000 0.000000 0.000000
# 3 0.000895 -0.001166 0.013825 0.000002 0.000001 0.000000
# 4 0.000000 0.000000 0.000002 -0.296064 -0.000002 0.000000
# 5 0.000000 0.000000 0.000001 -0.000002 0.041478 0.000000
# 6 0.000000 0.000000 0.000000 0.000000 0.000000 0.026944
#
#
# Mechanical properties :
#
#
# Convention : Reuss Voigt Hill
#
# Bulk Modulus (GPa) = 50.16498 76.31832 63.24165
# Shear Modulus (GPa) = -27.23395 35.12299 3.94452
#
# Velocity S-wave (km/s) = -3.49978 3.97448 1.33193
# Velocity P-wave (km/s) = 2.49608 7.44219 5.55052
#
# Compressibility (1/GPa) = 0.01993422
#
# Stress axis : x y z
#
# Youngs Moduli (GPa) = 144.07160 126.53622 72.33341
#
# Poissons Ratio (x) = 0.51838 -0.06475
# Poissons Ratio (y) = 0.59021 0.08432
# Poissons Ratio (z) = -0.12896 0.14751
#
# Static dielectric constant tensor:
#      x y z
#    x 1.776550 0.000000 0.000000 
#    y 0.000000 1.798620 0.000000 
#    z 0.000000 0.000000 1.871700 
# 
# From -- ./inp_files/8392.got.cif
#   From: 2010.05.17/outbox.cif.g08.bks.cpg/sg71_5_cif.got.tgz:8392.got - 2010.06.03 16:22:01.
