data_PCOD9519783
_publ_section_title
;
Structure prediction by ZEFSAII (Michael W. Deem and Ramdas Pophale) SiO2 
 PCOD9519783
Probable space group: I M M M
;
_chemical_formula_sum "Si O2"
_cell_formula_units_Z 104
_cell_length_a 26.481899
_cell_length_b 11.523614
_cell_length_c 19.535096
_cell_angle_alpha 90.000000
_cell_angle_beta 90.000000
_cell_angle_gamma 90.000000
_cell_volume 5961.470198
_symmetry_space_group_name_H-M "I M M M"
_symmetry_group_IT_number 71
_symmetry_cell_setting 'orthorhombic'
loop_
_space_group_symop_operation_xyz
x,y,z
-x,-y,z
x,-y,-z
-x,y,-z
-x,-y,-z
x,y,-z
-x,y,z
x,-y,z
1/2+x,1/2+y,1/2+z
1/2-x,1/2-y,1/2+z
1/2+x,1/2-y,1/2-z
1/2-x,1/2+y,1/2-z
1/2-x,1/2-y,1/2-z
1/2+x,1/2+y,1/2-z
1/2-x,1/2+y,1/2+z
1/2+x,1/2-y,1/2+z
loop_
_atom_site_type_symbol
_atom_site_label
_atom_site_fract_x
_atom_site_fract_y
_atom_site_fract_z
Si Si1 0.059549 0.269360 0.836887
Si Si2 0.234578 0.289740 0.922934
Si Si3 0.386853 0.866283 0.785507
Si Si4 0.335951 0.862249 0.077302
Si Si5 0.365062 0.366527 0.576992
Si Si6 0.774405 0.371896 0.224434
Si Si7 0.561168 0.000000 0.421756
O O1 0.074415 0.292363 0.758641
O O2 0.092918 0.168236 0.868748
O O3 0.075346 0.385153 0.879794
O O4 0.000000 0.252168 0.845400
O O5 0.283999 0.208385 0.916596
O O6 0.184631 0.211112 0.916764
O O7 0.232774 0.371212 0.857246
O O8 0.235064 0.340730 0.000000
O O9 0.374030 0.827605 0.862473
O O10 0.333024 0.864234 0.746038
O O11 0.404391 0.000000 0.787230
O O12 0.325629 0.000000 0.086686
O O13 0.355297 0.845831 0.000000
O O14 0.385851 0.348402 0.500000
O O15 0.350311 0.500000 0.583754
O O16 0.756203 0.500000 0.250728
O O17 0.750000 0.250000 0.250000
O O18 0.500000 0.000000 0.424815
O O19 0.580348 0.000000 0.500000
#
# Coordination Sequence:
#
# PCOD9519783 Si02
#       7
#    16  16  16  16  16  16   8
#     4  11  21  34  51  72  99 133 178 230 279 322
#     4  10  19  33  52  77 109 145 180 217 262 314
#     4  10  19  33  52  75 103 136 177 219 268 322
#     4   9  17  30  52  79 106 138 174 214 263 328
#     4  10  21  35  51  74 107 145 184 222 264 320
#     4  11  22  36  54  80 112 145 181 221 269 324
#     4   9  18  32  50  70  93 127 171 217 266 320
#
# _framework density 17.445360999999998
#
# number of rings (size 3 to 8) (size 9 to 14) (size 15 to 20)
#    0.000    1.923    3.846    0.923    0.000    4.000 
#    0.000    0.769    0.000    0.462    0.000    2.154 
#    0.000    0.000    0.000    1.385    0.000    0.000 
#
# Total GULP energy -289938.643629 kJ/mol
# GULP energy per Si atom -5575.743147 kJ/mol
# Density = 1.740565 g / cm^3
# Si number density = 17.445361 Si / 1000 Ang^3
#
#
#
# Elastic Constant Matrix: (Units=GPa)
#
#
# Indices 1 2 3 4 5 6 
#
# 1 30.0018 10.6522 15.7376 0.0000 0.0000 0.0000
# 2 10.6522 59.5216 19.8513 0.0000 0.0000 0.0000
# 3 15.7376 19.8513 115.3783 0.0000 0.0000 0.0000
# 4 0.0000 0.0000 0.0000 18.7912 0.0000 0.0000
# 5 0.0000 0.0000 0.0000 0.0000 23.3591 0.0000
# 6 0.0000 0.0000 0.0000 0.0000 0.0000 10.2898
#
#
#
# Elastic Compliance Matrix: (Units=1/GPa)
#
#
# Indices 1 2 3 4 5 6 
#
# 1 0.037411 -0.005297 -0.004191 0.000000 0.000000 0.000000
# 2 -0.005297 0.018573 -0.002473 0.000000 0.000000 0.000000
# 3 -0.004191 -0.002473 0.009664 0.000000 0.000000 0.000000
# 4 0.000000 0.000000 0.000000 0.053217 0.000000 0.000000
# 5 0.000000 0.000000 0.000000 0.000000 0.042810 0.000000
# 6 0.000000 0.000000 0.000000 0.000000 0.000000 0.097183
#
#
# Mechanical properties :
#
#
# Convention : Reuss Voigt Hill
#
# Bulk Modulus (GPa) = 23.96643 33.04264 28.50453
# Shear Modulus (GPa) = 16.85260 21.06539 18.95899
#
# Velocity S-wave (km/s) = 3.11146 3.47869 3.30019
# Velocity P-wave (km/s) = 5.16489 5.92594 5.55846
#
# Compressibility (1/GPa) = 0.04172503
#
# Stress axis : x y z
#
# Youngs Moduli (GPa) = 26.73031 53.84025 103.47307
#
# Poissons Ratio (x) = 0.28521 0.43370
# Poissons Ratio (y) = 0.14160 0.25590
# Poissons Ratio (z) = 0.11204 0.13315
#
# Static dielectric constant tensor:
#      x y z
#    x 1.558000 0.000000 0.000000 
#    y 0.000000 1.616240 0.000000 
#    z 0.000000 0.000000 1.647150 
# 
# From -- ./inp_files/24530.got.cif
#   From: 2010.05.17/outbox.cif.g08.bks.cpg/sg71_13_cif.got.tgz:24530.got - 2010.06.03 16:22:01.
