data_PCOD9519290
_publ_section_title
;
Structure prediction by ZEFSAII (Michael W. Deem and Ramdas Pophale) SiO2 
 PCOD9519290
Probable space group: I M M M
;
_chemical_formula_sum "Si O2"
_cell_formula_units_Z 104
_cell_length_a 26.432596
_cell_length_b 10.047447
_cell_length_c 21.434849
_cell_angle_alpha 90.000000
_cell_angle_beta 90.000000
_cell_angle_gamma 90.000000
_cell_volume 5692.669499
_symmetry_space_group_name_H-M "I M M M"
_symmetry_group_IT_number 71
_symmetry_cell_setting 'orthorhombic'
loop_
_space_group_symop_operation_xyz
x,y,z
-x,-y,z
x,-y,-z
-x,y,-z
-x,-y,-z
x,y,-z
-x,y,z
x,-y,z
1/2+x,1/2+y,1/2+z
1/2-x,1/2-y,1/2+z
1/2+x,1/2-y,1/2-z
1/2-x,1/2+y,1/2-z
1/2-x,1/2-y,1/2-z
1/2+x,1/2+y,1/2-z
1/2-x,1/2+y,1/2+z
1/2+x,1/2-y,1/2+z
loop_
_atom_site_type_symbol
_atom_site_label
_atom_site_fract_x
_atom_site_fract_y
_atom_site_fract_z
Si Si1 0.442631 0.344238 0.378025
Si Si2 0.402936 0.349339 0.758576
Si Si3 0.646340 0.844936 0.573935
Si Si4 0.314128 0.150446 0.785322
Si Si5 0.562057 0.151042 0.000000
Si Si6 0.559951 0.354684 0.102465
Si Si7 0.255015 0.149414 0.655464
O O1 0.500000 0.307483 0.396112
O O2 0.434626 0.500000 0.394827
O O3 0.436767 0.335704 0.302902
O O4 0.399504 0.250749 0.406434
O O5 0.380494 0.500000 0.756003
O O6 0.361018 0.235868 0.760407
O O7 0.431691 0.338179 0.824037
O O8 0.654588 0.834663 0.500000
O O9 0.698002 0.813703 0.611065
O O10 0.634156 0.000000 0.588903
O O11 0.277195 0.139923 0.725620
O O12 0.287576 0.237978 0.839140
O O13 0.327157 0.000000 0.804422
O O14 0.579194 0.234433 0.939597
O O15 0.500000 0.146537 0.000000
O O16 0.579837 0.000000 0.000000
O O17 0.500000 0.359714 0.091166
O O18 0.581176 0.500000 0.084453
O O19 0.236850 0.000000 0.638272
#
# Coordination Sequence:
#
# PCOD9519290 Si02
#       7
#    16  16  16  16   8  16  16
#     4  10  21  36  54  79 113 149 186 231 278 322
#     4  10  19  32  52  78 108 141 177 218 268 320
#     4  10  21  38  59  81 107 143 187 231 276 329
#     4  10  19  31  53  81 106 132 165 209 263 321
#     4   9  17  29  45  67  95 127 165 209 255 301
#     4   9  17  30  49  71  96 131 175 215 252 305
#     4   9  18  34  54  78 105 132 168 213 263 317
#
# _framework density 18.269109
#
# number of rings (size 3 to 8) (size 9 to 14) (size 15 to 20)
#    0.000    2.385    1.538    1.154    0.000    5.538 
#    0.000    1.538    1.692    2.769    0.000    0.000 
#    0.000    0.000    0.000    0.000    0.000    0.000 
#
# Total GULP energy -289762.198281 kJ/mol
# GULP energy per Si atom -5572.349967 kJ/mol
# Density = 1.822753 g / cm^3
# Si number density = 18.269109 Si / 1000 Ang^3
#
#
#
# Elastic Constant Matrix: (Units=GPa)
#
#
# Indices 1 2 3 4 5 6 
#
# 1 33.8000 28.3266 -7.8999 0.0000 0.0000 0.0000
# 2 28.3266 100.0180 16.0216 0.0000 0.0000 0.0000
# 3 -7.8999 16.0216 46.1490 0.0000 0.0000 0.0000
# 4 0.0000 0.0000 0.0000 -206.6828 0.0000 0.0000
# 5 0.0000 0.0000 0.0000 0.0000 -13.1649 0.0000
# 6 0.0000 0.0000 0.0000 0.0000 0.0000 19.0047
#
#
#
# Elastic Compliance Matrix: (Units=1/GPa)
#
#
# Indices 1 2 3 4 5 6 
#
# 1 0.044988 -0.014798 0.012839 0.000000 0.000000 0.000000
# 2 -0.014798 0.015454 -0.007898 0.000000 0.000000 0.000000
# 3 0.012839 -0.007898 0.026609 0.000000 0.000000 0.000000
# 4 0.000000 0.000000 0.000000 -0.004838 0.000000 0.000000
# 5 0.000000 0.000000 0.000000 0.000000 -0.075959 0.000000
# 6 0.000000 0.000000 0.000000 0.000000 0.000000 0.052618
#
#
# Mechanical properties :
#
#
# Convention : Reuss Voigt Hill
#
# Bulk Modulus (GPa) = 14.85098 28.09596 21.47347
# Shear Modulus (GPa) = 49.48891 -30.60070 9.44411
#
# Velocity S-wave (km/s) = 5.21034 -4.09711 2.27611
# Velocity P-wave (km/s) = 6.65909 2.63997 4.32285
#
# Compressibility (1/GPa) = 0.06733564
#
# Stress axis : x y z
#
# Youngs Moduli (GPa) = 22.22815 64.70647 37.58159
#
# Poissons Ratio (x) = 0.95752 -0.48249
# Poissons Ratio (y) = 0.32893 0.29684
# Poissons Ratio (z) = -0.28538 0.51108
#
# Static dielectric constant tensor:
#      x y z
#    x 1.615170 0.000000 0.000000 
#    y 0.000000 1.655190 0.000000 
#    z 0.000000 0.000000 1.624340 
# 
# From -- ./inp_files/56257.got.cif
#   From: 2010.05.17/outbox.cif.g08.bks.cpg/sg71_29_cif.got.tgz:56257.got - 2010.06.03 16:22:01.
