data_PCOD9519219
_publ_section_title
;
Structure prediction by ZEFSAII (Michael W. Deem and Ramdas Pophale) SiO2 
 PCOD9519219
Probable space group: I M M M
;
_chemical_formula_sum "Si O2"
_cell_formula_units_Z 88
_cell_length_a 13.588187
_cell_length_b 19.477833
_cell_length_c 18.863648
_cell_angle_alpha 90.000000
_cell_angle_beta 90.000000
_cell_angle_gamma 90.000000
_cell_volume 4992.612235
_symmetry_space_group_name_H-M "I M M M"
_symmetry_group_IT_number 71
_symmetry_cell_setting 'orthorhombic'
loop_
_space_group_symop_operation_xyz
x,y,z
-x,-y,z
x,-y,-z
-x,y,-z
-x,-y,-z
x,y,-z
-x,y,z
x,-y,z
1/2+x,1/2+y,1/2+z
1/2-x,1/2-y,1/2+z
1/2+x,1/2-y,1/2-z
1/2-x,1/2+y,1/2-z
1/2-x,1/2-y,1/2-z
1/2+x,1/2+y,1/2-z
1/2-x,1/2+y,1/2+z
1/2+x,1/2-y,1/2+z
loop_
_atom_site_type_symbol
_atom_site_label
_atom_site_fract_x
_atom_site_fract_y
_atom_site_fract_z
Si Si1 0.115765 0.289912 0.785430
Si Si2 0.384150 0.578783 0.144731
Si Si3 0.702100 0.641728 0.280096
Si Si4 0.889434 0.500000 0.085722
Si Si5 0.614989 0.417277 0.581146
Si Si6 0.792603 0.355236 0.917514
O O1 0.185320 0.338895 0.737868
O O2 0.140903 0.211664 0.766064
O O3 0.156802 0.301518 0.865285
O O4 0.000000 0.303689 0.781168
O O5 0.500000 0.592530 0.145360
O O6 0.370272 0.500000 0.119681
O O7 0.339770 0.587401 0.223539
O O8 0.322514 0.632618 0.097838
O O9 0.681606 0.616778 0.359152
O O10 0.837548 0.570743 0.104809
O O11 0.000000 0.500000 0.113459
O O12 0.892160 0.500000 0.000000
O O13 0.638086 0.397299 0.500000
O O14 0.500000 0.399501 0.594840
O O15 0.622374 0.500000 0.585506
O O16 0.811832 0.342450 0.000000
#
# Coordination Sequence:
#
# PCOD9519219 Si02
#       6
#    16  16  16   8  16  16
#     4  10  21  35  51  73 100 133 171 206 243 291
#     4  10  19  31  51  76 101 133 169 205 249 299
#     4  10  20  34  53  74 101 133 164 204 249 296
#     4   9  16  28  45  61  85 123 159 196 240 280
#     4   9  17  30  52  81 106 127 156 200 255 306
#     4  10  20  33  48  71 100 131 168 207 248 293
#
# _framework density 17.626042999999999
#
# number of rings (size 3 to 8) (size 9 to 14) (size 15 to 20)
#    0.000    2.273    0.909    3.273    0.000    3.636 
#    0.000    0.909    0.000    0.545    0.000    1.273 
#    0.000    0.000    0.000    0.000    0.000    0.000 
#
# Total GULP energy -245372.697424 kJ/mol
# GULP energy per Si atom -5576.652214 kJ/mol
# Density = 1.758593 g / cm^3
# Si number density = 17.626043 Si / 1000 Ang^3
#
#
#
# Elastic Constant Matrix: (Units=GPa)
#
#
# Indices 1 2 3 4 5 6 
#
# 1 129.3698 14.8902 35.3229 0.0000 0.0000 0.0000
# 2 14.8902 22.5356 6.3281 0.0000 0.0000 0.0000
# 3 35.3229 6.3281 93.0372 0.0000 0.0000 0.0000
# 4 0.0000 0.0000 0.0000 21.2749 0.0000 0.0000
# 5 0.0000 0.0000 0.0000 0.0000 17.1059 0.0000
# 6 0.0000 0.0000 0.0000 0.0000 0.0000 17.6036
#
#
#
# Elastic Compliance Matrix: (Units=1/GPa)
#
#
# Indices 1 2 3 4 5 6 
#
# 1 0.009182 -0.005187 -0.003133 0.000000 0.000000 0.000000
# 2 -0.005187 0.048169 -0.001307 0.000000 0.000000 0.000000
# 3 -0.003133 -0.001307 0.012027 0.000000 0.000000 0.000000
# 4 0.000000 0.000000 0.000000 0.047004 0.000000 0.000000
# 5 0.000000 0.000000 0.000000 0.000000 0.058459 0.000000
# 6 0.000000 0.000000 0.000000 0.000000 0.000000 0.056807
#
#
# Mechanical properties :
#
#
# Convention : Reuss Voigt Hill
#
# Bulk Modulus (GPa) = 19.95095 39.78055 29.86575
# Shear Modulus (GPa) = 18.68387 23.75697 21.22042
#
# Velocity S-wave (km/s) = 3.25932 3.67527 3.47353
# Velocity P-wave (km/s) = 5.05053 6.37403 5.75048
#
# Compressibility (1/GPa) = 0.05012292
#
# Stress axis : x y z
#
# Youngs Moduli (GPa) = 108.90446 20.76037 83.14682
#
# Poissons Ratio (x) = 0.10769 0.26053
# Poissons Ratio (y) = 0.56492 0.10866
# Poissons Ratio (z) = 0.34124 0.02713
#
# Static dielectric constant tensor:
#      x y z
#    x 1.614560 0.000000 0.000000 
#    y 0.000000 1.613520 0.000000 
#    z 0.000000 0.000000 1.602740 
# 
# From -- ./inp_files/38014.got.cif
#   From: 2010.05.17/outbox.cif.g08.bks.cpg/sg71_20_cif.got.tgz:38014.got - 2010.06.03 16:22:01.
