data_PCOD9519763
_publ_section_title
;
Structure prediction by ZEFSAII (Michael W. Deem and Ramdas Pophale) SiO2 
 PCOD9519763
Probable space group: I M M M
;
_chemical_formula_sum "Si O2"
_cell_formula_units_Z 88
_cell_length_a 27.193823
_cell_length_b 8.969069
_cell_length_c 20.735749
_cell_angle_alpha 90.000000
_cell_angle_beta 90.000000
_cell_angle_gamma 90.000000
_cell_volume 5057.517088
_symmetry_space_group_name_H-M "I M M M"
_symmetry_group_IT_number 71
_symmetry_cell_setting 'orthorhombic'
loop_
_space_group_symop_operation_xyz
x,y,z
-x,-y,z
x,-y,-z
-x,y,-z
-x,-y,-z
x,y,-z
-x,y,z
x,-y,z
1/2+x,1/2+y,1/2+z
1/2-x,1/2-y,1/2+z
1/2+x,1/2-y,1/2-z
1/2-x,1/2+y,1/2-z
1/2-x,1/2-y,1/2-z
1/2+x,1/2+y,1/2-z
1/2-x,1/2+y,1/2+z
1/2+x,1/2-y,1/2+z
loop_
_atom_site_type_symbol
_atom_site_label
_atom_site_fract_x
_atom_site_fract_y
_atom_site_fract_z
Si Si1 0.940411 0.324814 0.000000
Si Si2 0.331663 0.672191 0.000000
Si Si3 0.712103 0.829696 0.500000
Si Si4 0.941356 0.320934 0.141276
Si Si5 0.365462 0.321336 0.263394
Si Si6 0.669161 0.821412 0.865794
Si Si7 0.784333 0.178382 0.132834
O O1 0.925020 0.264729 0.069788
O O2 0.927646 0.500000 0.000000
O O3 0.000000 0.318112 0.000000
O O4 0.346874 0.755079 0.934622
O O5 0.347194 0.500000 0.000000
O O6 0.271847 0.674262 0.000000
O O7 0.697394 0.750900 0.433729
O O8 0.695577 0.000000 0.500000
O O9 0.932810 0.500000 0.144227
O O10 0.911798 0.238884 0.196826
O O11 0.000000 0.298409 0.146860
O O12 0.366707 0.500000 0.257874
O O13 0.360025 0.247785 0.193701
O O14 0.318090 0.278229 0.307082
O O15 0.727126 0.780913 0.857120
O O16 0.665464 0.000000 0.866388
O O17 0.786485 0.000000 0.125676
#
# Coordination Sequence:
#
# PCOD9519763 Si02
#       7
#     8   8   8  16  16  16  16
#     4   7  12  27  51  72  90 119 161 206 245 280
#     4   9  17  31  50  72  98 126 159 201 245 288
#     4   9  17  28  46  69  93 128 171 208 241 282
#     4   9  18  34  54  74  97 127 165 207 248 293
#     4  11  22  33  47  71 101 131 163 203 252 296
#     4  10  19  33  52  72  96 130 169 203 239 288
#     4   9  19  33  47  66  98 135 167 203 245 290
#
# _framework density 17.399842
#
# number of rings (size 3 to 8) (size 9 to 14) (size 15 to 20)
#    0.000    2.636    0.000    3.273    0.000    5.455 
#    0.000    2.273    0.000    1.636    0.000    0.636 
#    0.000    5.091    0.000    0.000    0.000    0.000 
#
# Total GULP energy -245438.632089 kJ/mol
# GULP energy per Si atom -5578.150729 kJ/mol
# Density = 1.736024 g / cm^3
# Si number density = 17.399842 Si / 1000 Ang^3
#
#
#
# Elastic Constant Matrix: (Units=GPa)
#
#
# Indices 1 2 3 4 5 6 
#
# 1 40.2858 27.3978 45.9871 0.0000 0.0000 0.0000
# 2 27.3978 49.1045 63.9919 0.0000 0.0000 0.0000
# 3 45.9871 63.9919 183.1102 0.0000 0.0000 0.0000
# 4 0.0000 0.0000 0.0000 19.1304 0.0000 0.0000
# 5 0.0000 0.0000 0.0000 0.0000 -90.1397 0.0000
# 6 0.0000 0.0000 0.0000 0.0000 0.0000 17.5322
#
#
#
# Elastic Compliance Matrix: (Units=1/GPa)
#
#
# Indices 1 2 3 4 5 6 
#
# 1 0.041773 -0.017694 -0.004308 0.000000 0.000000 0.000000
# 2 -0.017694 0.044890 -0.011244 0.000000 0.000000 0.000000
# 3 -0.004308 -0.011244 0.010473 0.000000 0.000000 0.000000
# 4 0.000000 0.000000 0.000000 0.052273 0.000000 0.000000
# 5 0.000000 0.000000 0.000000 0.000000 -0.011094 0.000000
# 6 0.000000 0.000000 0.000000 0.000000 0.000000 0.057038
#
#
# Mechanical properties :
#
#
# Convention : Reuss Voigt Hill
#
# Bulk Modulus (GPa) = 32.63196 60.80603 46.71900
# Shear Modulus (GPa) = 18.37840 -1.68719 8.34561
#
# Velocity S-wave (km/s) = 3.25351 -0.98578 2.19244
# Velocity P-wave (km/s) = 5.73661 5.80745 5.77214
#
# Compressibility (1/GPa) = 0.03064480
#
# Stress axis : x y z
#
# Youngs Moduli (GPa) = 23.93887 22.27662 95.48763
#
# Poissons Ratio (x) = 0.39415 0.41133
# Poissons Ratio (y) = 0.42357 1.07368
# Poissons Ratio (z) = 0.10312 0.25048
#
# Static dielectric constant tensor:
#      x y z
#    x 1.593080 0.000000 0.000000 
#    y 0.000000 1.573300 0.000000 
#    z 0.000000 0.000000 1.586990 
# 
# From -- ./inp_files/8896.got.cif
#   From: 2010.05.17/outbox.cif.g08.bks.cpg/sg71_5_cif.got.tgz:8896.got - 2010.06.03 16:22:01.
