data_PCOD9519199
_publ_section_title
;
Structure prediction by ZEFSAII (Michael W. Deem and Ramdas Pophale) SiO2 
 PCOD9519199
Probable space group: I M M M
;
_chemical_formula_sum "Si O2"
_cell_formula_units_Z 104
_cell_length_a 26.786842
_cell_length_b 12.317712
_cell_length_c 18.310830
_cell_angle_alpha 90.000000
_cell_angle_beta 90.000000
_cell_angle_gamma 90.000000
_cell_volume 6041.706061
_symmetry_space_group_name_H-M "I M M M"
_symmetry_group_IT_number 71
_symmetry_cell_setting 'orthorhombic'
loop_
_space_group_symop_operation_xyz
x,y,z
-x,-y,z
x,-y,-z
-x,y,-z
-x,-y,-z
x,y,-z
-x,y,z
x,-y,z
1/2+x,1/2+y,1/2+z
1/2-x,1/2-y,1/2+z
1/2+x,1/2-y,1/2-z
1/2-x,1/2+y,1/2-z
1/2-x,1/2-y,1/2-z
1/2+x,1/2+y,1/2-z
1/2-x,1/2+y,1/2+z
1/2+x,1/2-y,1/2+z
loop_
_atom_site_type_symbol
_atom_site_label
_atom_site_fract_x
_atom_site_fract_y
_atom_site_fract_z
Si Si1 0.589721 0.374914 0.345028
Si Si2 0.248893 0.880733 0.413334
Si Si3 0.144981 0.767594 0.412847
Si Si4 0.806382 0.377981 0.698278
Si Si5 0.197052 0.202666 0.821026
Si Si6 0.558213 0.369302 0.184110
Si Si7 0.559272 0.624540 0.500000
O O1 0.572264 0.500000 0.347942
O O2 0.649335 0.366768 0.341082
O O3 0.568178 0.332882 0.268142
O O4 0.574659 0.323578 0.422687
O O5 0.254930 0.882700 0.500000
O O6 0.191107 0.850875 0.399031
O O7 0.283817 0.788159 0.381029
O O8 0.260132 0.000000 0.382778
O O9 0.137458 0.759541 0.500000
O O10 0.166623 0.657351 0.376766
O O11 0.096205 0.809659 0.370528
O O12 0.820522 0.500000 0.719096
O O13 0.818569 0.280684 0.754052
O O14 0.746078 0.368507 0.694585
O O15 0.500000 0.351217 0.166260
O O16 0.567625 0.500000 0.180767
O O17 0.580168 0.500000 0.500000
O O18 0.500000 0.617954 0.500000
#
# Coordination Sequence:
#
# PCOD9519199 Si02
#       7
#    16  16  16  16  16  16   8
#     4  10  19  32  51  76 107 138 167 203 252 307
#     4   9  18  31  48  72 105 139 168 203 247 299
#     4  10  20  35  52  74 103 138 173 209 259 313
#     4  10  20  34  51  74 103 137 174 211 253 304
#     4  10  19  31  50  77 103 134 171 211 250 298
#     4  10  20  34  54  79 104 130 167 217 267 313
#     4   9  18  32  50  74 105 139 169 199 245 304
#
# _framework density 17.213681999999999
#
# number of rings (size 3 to 8) (size 9 to 14) (size 15 to 20)
#    0.000    2.231    1.538    1.846    1.077    3.385 
#    0.000    0.769    0.000    0.462    0.000    1.077 
#    0.000    2.462    0.000    0.000    0.000    0.000 
#
# Total GULP energy -289621.806005 kJ/mol
# GULP energy per Si atom -5569.650115 kJ/mol
# Density = 1.717450 g / cm^3
# Si number density = 17.213682 Si / 1000 Ang^3
#
#
#
# Elastic Constant Matrix: (Units=GPa)
#
#
# Indices 1 2 3 4 5 6 
#
# 1 62.9420 2.9025 30.5568 0.0000 0.0000 0.0000
# 2 2.9025 46.0900 20.2435 0.0000 0.0000 0.0000
# 3 30.5568 20.2435 106.8122 0.0000 0.0000 0.0000
# 4 0.0000 0.0000 0.0000 5.8273 0.0000 0.0000
# 5 0.0000 0.0000 0.0000 0.0000 25.2109 0.0000
# 6 0.0000 0.0000 0.0000 0.0000 0.0000 11.3504
#
#
#
# Elastic Compliance Matrix: (Units=1/GPa)
#
#
# Indices 1 2 3 4 5 6 
#
# 1 0.018518 0.001266 -0.005537 0.000000 0.000000 0.000000
# 2 0.001266 0.023753 -0.004864 0.000000 0.000000 0.000000
# 3 -0.005537 -0.004864 0.011868 0.000000 0.000000 0.000000
# 4 0.000000 0.000000 0.000000 0.171605 0.000000 0.000000
# 5 0.000000 0.000000 0.000000 0.000000 0.039665 0.000000
# 6 0.000000 0.000000 0.000000 0.000000 0.000000 0.088102
#
#
# Mechanical properties :
#
#
# Convention : Reuss Voigt Hill
#
# Bulk Modulus (GPa) = 27.87987 35.91667 31.89827
# Shear Modulus (GPa) = 13.02968 19.28715 16.15842
#
# Velocity S-wave (km/s) = 2.75423 3.35095 3.06714
# Velocity P-wave (km/s) = 5.13283 5.99018 5.57800
#
# Compressibility (1/GPa) = 0.03586817
#
# Stress axis : x y z
#
# Youngs Moduli (GPa) = 54.00277 42.09942 84.25852
#
# Poissons Ratio (x) = -0.05330 0.46658
# Poissons Ratio (y) = -0.06837 0.40983
# Poissons Ratio (z) = 0.29904 0.20477
#
# Static dielectric constant tensor:
#      x y z
#    x 1.561370 0.000000 0.000000 
#    y 0.000000 1.569610 0.000000 
#    z 0.000000 0.000000 1.648920 
# 
# From -- ./inp_files/39467.got.cif
#   From: 2010.05.17/outbox.cif.g08.bks.cpg/sg71_20_cif.got.tgz:39467.got - 2010.06.03 16:22:01.
