data_PCOD9519544
_publ_section_title
;
Structure prediction by ZEFSAII (Michael W. Deem and Ramdas Pophale) SiO2 
 PCOD9519544
Probable space group: I M M M
;
_chemical_formula_sum "Si O2"
_cell_formula_units_Z 72
_cell_length_a 13.880567
_cell_length_b 10.888701
_cell_length_c 22.993505
_cell_angle_alpha 90.000000
_cell_angle_beta 90.000000
_cell_angle_gamma 90.000000
_cell_volume 3475.269244
_symmetry_space_group_name_H-M "I M M M"
_symmetry_group_IT_number 71
_symmetry_cell_setting 'orthorhombic'
loop_
_space_group_symop_operation_xyz
x,y,z
-x,-y,z
x,-y,-z
-x,y,-z
-x,-y,-z
x,y,-z
-x,y,z
x,-y,z
1/2+x,1/2+y,1/2+z
1/2-x,1/2-y,1/2+z
1/2+x,1/2-y,1/2-z
1/2-x,1/2+y,1/2-z
1/2-x,1/2-y,1/2-z
1/2+x,1/2+y,1/2-z
1/2-x,1/2+y,1/2+z
1/2+x,1/2-y,1/2+z
loop_
_atom_site_type_symbol
_atom_site_label
_atom_site_fract_x
_atom_site_fract_y
_atom_site_fract_z
Si Si1 0.893007 0.500000 0.929588
Si Si2 0.318259 0.634333 0.684984
Si Si3 0.609957 0.138694 0.241420
Si Si4 0.106769 0.862158 0.429769
Si Si5 0.298650 0.738276 0.568448
O O1 0.841895 0.627737 0.916508
O O2 0.000000 0.500000 0.905099
O O3 0.897539 0.500000 0.000000
O O4 0.349105 0.500000 0.706907
O O5 0.371190 0.748470 0.715097
O O6 0.203329 0.645159 0.699161
O O7 0.335268 0.644346 0.616026
O O8 0.500000 0.149526 0.217883
O O9 0.615650 0.000000 0.267722
O O10 0.103171 0.871634 0.500000
O O11 0.185627 0.759966 0.419779
O O12 0.000000 0.833856 0.408272
O O13 0.133386 0.000000 0.408854
O O14 0.315142 0.712166 0.500000
#
# Coordination Sequence:
#
# PCOD9519544 Si02
#       5
#     8  16  16  16  16
#     4   9  18  32  49  73 107 149 196 238 268 309
#     4  10  22  38  58  87 121 149 185 239 290 346
#     4   9  20  41  66  86 108 146 194 242 291 340
#     4   8  13  23  41  67 101 139 180 227 274 317
#     4  10  19  32  52  79 116 156 191 227 276 339
#
# _framework density 20.717818999999999
#
# number of rings (size 3 to 8) (size 9 to 14) (size 15 to 20)
#    0.000    2.778    1.111    0.667    1.556    2.667 
#    0.000    0.000    0.000    0.000    0.000   10.889 
#    0.000    0.000    0.000    0.000    0.000    0.000 
#
# Total GULP energy -200418.506762 kJ/mol
# GULP energy per Si atom -5567.180743 kJ/mol
# Density = 2.067066 g / cm^3
# Si number density = 20.717819 Si / 1000 Ang^3
#
#
#
# Elastic Constant Matrix: (Units=GPa)
#
#
# Indices 1 2 3 4 5 6 
#
# 1 59.3233 17.4650 -3.4749 0.0000 0.0000 0.0000
# 2 17.4650 106.5589 46.5471 0.0000 0.0000 0.0000
# 3 -3.4749 46.5471 58.8399 0.0000 0.0000 0.0000
# 4 0.0000 0.0000 0.0000 13.6223 0.0000 0.0000
# 5 0.0000 0.0000 0.0000 0.0000 4.0382 0.0000
# 6 0.0000 0.0000 0.0000 0.0000 0.0000 12.7634
#
#
#
# Elastic Compliance Matrix: (Units=1/GPa)
#
#
# Indices 1 2 3 4 5 6 
#
# 1 0.018776 -0.005442 0.005414 0.000000 0.000000 0.000000
# 2 -0.005442 0.015917 -0.012913 0.000000 0.000000 0.000000
# 3 0.005414 -0.012913 0.027530 0.000000 0.000000 0.000000
# 4 0.000000 0.000000 0.000000 0.073409 0.000000 0.000000
# 5 0.000000 0.000000 0.000000 0.000000 0.247633 0.000000
# 6 0.000000 0.000000 0.000000 0.000000 0.000000 0.078349
#
#
# Mechanical properties :
#
#
# Convention : Reuss Voigt Hill
#
# Bulk Modulus (GPa) = 27.51711 38.42184 32.96947
# Shear Modulus (GPa) = 10.00776 17.03045 13.51911
#
# Velocity S-wave (km/s) = 2.20023 2.87020 2.55725
# Velocity P-wave (km/s) = 4.44582 5.43780 4.96664
#
# Compressibility (1/GPa) = 0.03634102
#
# Stress axis : x y z
#
# Youngs Moduli (GPa) = 53.25891 62.82480 36.32342
#
# Poissons Ratio (x) = 0.34192 -0.19667
# Poissons Ratio (y) = 0.28986 0.46905
# Poissons Ratio (z) = -0.28836 0.81127
#
# Static dielectric constant tensor:
#      x y z
#    x 1.786640 0.000000 0.000000 
#    y 0.000000 1.727450 0.000000 
#    z 0.000000 0.000000 1.756350 
# 
# From -- ./inp_files/65162.got.cif
#   From: 2010.05.17/outbox.cif.g08.bks.cpg/sg71_33_cif.got.tgz:65162.got - 2010.06.03 16:22:01.
