data_PCOD9519343
_publ_section_title
;
Structure prediction by ZEFSAII (Michael W. Deem and Ramdas Pophale) SiO2 
 PCOD9519343
Probable space group: I M M M
;
_chemical_formula_sum "Si O2"
_cell_formula_units_Z 72
_cell_length_a 15.586134
_cell_length_b 7.374674
_cell_length_c 29.169316
_cell_angle_alpha 90.000000
_cell_angle_beta 90.000000
_cell_angle_gamma 90.000000
_cell_volume 3352.798689
_symmetry_space_group_name_H-M "I M M M"
_symmetry_group_IT_number 71
_symmetry_cell_setting 'orthorhombic'
loop_
_space_group_symop_operation_xyz
x,y,z
-x,-y,z
x,-y,-z
-x,y,-z
-x,-y,-z
x,y,-z
-x,y,z
x,-y,z
1/2+x,1/2+y,1/2+z
1/2-x,1/2-y,1/2+z
1/2+x,1/2-y,1/2-z
1/2-x,1/2+y,1/2-z
1/2-x,1/2-y,1/2-z
1/2+x,1/2+y,1/2-z
1/2-x,1/2+y,1/2+z
1/2+x,1/2-y,1/2+z
loop_
_atom_site_type_symbol
_atom_site_label
_atom_site_fract_x
_atom_site_fract_y
_atom_site_fract_z
Si Si1 0.399069 0.718273 0.549836
Si Si2 0.173657 0.296824 0.855139
Si Si3 0.636435 0.278872 0.130748
Si Si4 0.500000 0.720901 0.053825
Si Si5 0.000000 0.708407 0.812071
Si Si6 0.000000 0.218179 0.706353
O O1 0.365936 0.772927 0.500000
O O2 0.500000 0.760333 0.551912
O O3 0.391480 0.500000 0.553520
O O4 0.353140 0.805980 0.592037
O O5 0.183754 0.500000 0.835048
O O6 0.267820 0.212019 0.858691
O O7 0.090202 0.211702 0.830336
O O8 0.640441 0.500000 0.127859
O O9 0.583382 0.223707 0.084789
O O10 0.580265 0.230000 0.174954
O O11 0.500000 0.500000 0.053372
O O12 0.500000 0.778212 0.000000
O O13 0.000000 0.500000 0.829587
O O14 0.000000 0.709381 0.757444
O O15 0.000000 0.000000 0.710183
#
# Coordination Sequence:
#
# PCOD9519343 Si02
#       6
#    16  16  16   8   8   8
#     4   9  18  32  48  67  96 132 165 196 229 273
#     4  10  19  32  49  72 100 128 158 198 246 290
#     4   8  16  30  48  70  97 124 157 201 241 281
#     4   8  13  24  44  70  97 124 155 194 238 278
#     4  10  21  33  46  69 100 126 154 201 250 294
#     4   9  18  35  54  70  90 125 166 203 244 289
#
# _framework density 21.474596999999999
#
# number of rings (size 3 to 8) (size 9 to 14) (size 15 to 20)
#    0.000    3.000    1.111    2.000    0.000    3.111 
#    0.000    4.444    0.000    0.000    0.000    0.000 
#    0.000    6.222    0.000    0.000    0.000    0.000 
#
# Total GULP energy -200618.578784 kJ/mol
# GULP energy per Si atom -5572.738300 kJ/mol
# Density = 2.142572 g / cm^3
# Si number density = 21.474597 Si / 1000 Ang^3
#
#
#
# Elastic Constant Matrix: (Units=GPa)
#
#
# Indices 1 2 3 4 5 6 
#
# 1 197.4905 15.5843 96.6053 0.0000 0.0000 0.0000
# 2 15.5843 69.6078 2.6454 0.0000 0.0000 0.0000
# 3 96.6053 2.6454 152.9113 0.0000 0.0000 0.0000
# 4 0.0000 0.0000 0.0000 12.2945 0.0000 0.0000
# 5 0.0000 0.0000 0.0000 0.0000 2.9692 0.0000
# 6 0.0000 0.0000 0.0000 0.0000 0.0000 -11.2531
#
#
#
# Elastic Compliance Matrix: (Units=1/GPa)
#
#
# Indices 1 2 3 4 5 6 
#
# 1 0.007481 -0.001496 -0.004700 0.000000 0.000000 0.000000
# 2 -0.001496 0.014675 0.000691 0.000000 0.000000 0.000000
# 3 -0.004700 0.000691 0.009497 0.000000 0.000000 0.000000
# 4 0.000000 0.000000 0.000000 0.081337 0.000000 0.000000
# 5 0.000000 0.000000 0.000000 0.000000 0.336794 0.000000
# 6 0.000000 0.000000 0.000000 0.000000 0.000000 -0.088864
#
#
# Mechanical properties :
#
#
# Convention : Reuss Voigt Hill
#
# Bulk Modulus (GPa) = 48.44310 72.18662 60.31486
# Shear Modulus (GPa) = 13.19917 21.14708 17.17313
#
# Velocity S-wave (km/s) = 2.48189 3.14147 2.83096
# Velocity P-wave (km/s) = 5.55160 6.84444 6.23164
#
# Compressibility (1/GPa) = 0.02064277
#
# Stress axis : x y z
#
# Youngs Moduli (GPa) = 133.67507 68.14353 105.29306
#
# Poissons Ratio (x) = 0.10196 0.49491
# Poissons Ratio (y) = 0.20001 -0.07280
# Poissons Ratio (z) = 0.62831 -0.04711
#
# Static dielectric constant tensor:
#      x y z
#    x 1.848540 0.000000 0.000000 
#    y 0.000000 1.821160 0.000000 
#    z 0.000000 0.000000 1.724170 
# 
# From -- ./inp_files/16396.got.cif
#   From: 2010.05.17/outbox.cif.g08.bks.cpg/sg71_9_cif.got.tgz:16396.got - 2010.06.03 16:22:01.
