data_PCOD9519177
_publ_section_title
;
Structure prediction by ZEFSAII (Michael W. Deem and Ramdas Pophale) SiO2 
 PCOD9519177
Probable space group: I M M M
;
_chemical_formula_sum "Si O2"
_cell_formula_units_Z 104
_cell_length_a 7.976236
_cell_length_b 28.845786
_cell_length_c 23.861075
_cell_angle_alpha 90.000000
_cell_angle_beta 90.000000
_cell_angle_gamma 90.000000
_cell_volume 5489.975147
_symmetry_space_group_name_H-M "I M M M"
_symmetry_group_IT_number 71
_symmetry_cell_setting 'orthorhombic'
loop_
_space_group_symop_operation_xyz
x,y,z
-x,-y,z
x,-y,-z
-x,y,-z
-x,-y,-z
x,y,-z
-x,y,z
x,-y,z
1/2+x,1/2+y,1/2+z
1/2-x,1/2-y,1/2+z
1/2+x,1/2-y,1/2-z
1/2-x,1/2+y,1/2-z
1/2-x,1/2-y,1/2-z
1/2+x,1/2+y,1/2-z
1/2-x,1/2+y,1/2+z
1/2+x,1/2-y,1/2+z
loop_
_atom_site_type_symbol
_atom_site_label
_atom_site_fract_x
_atom_site_fract_y
_atom_site_fract_z
Si Si1 0.700807 0.402145 0.563460
Si Si2 0.202107 0.196233 0.260211
Si Si3 0.699007 0.644699 0.872640
Si Si4 0.294639 0.682188 0.362167
Si Si5 0.797750 0.266837 0.062738
Si Si6 0.300638 0.000000 0.064372
Si Si7 0.701698 0.052768 0.564214
O O1 0.768650 0.400943 0.500000
O O2 0.500000 0.397984 0.560182
O O3 0.764113 0.359321 0.598809
O O4 0.741186 0.451887 0.589768
O O5 0.250000 0.250000 0.250000
O O6 0.266896 0.168604 0.314886
O O7 0.257612 0.174048 0.201469
O O8 0.000000 0.195292 0.263528
O O9 0.500000 0.643076 0.866957
O O10 0.745823 0.681659 0.920587
O O11 0.753146 0.593626 0.892618
O O12 0.500000 0.683127 0.362367
O O13 0.238192 0.730499 0.390139
O O14 0.000000 0.264802 0.062547
O O15 0.740518 0.254309 0.000000
O O16 0.500000 0.000000 0.062209
O O17 0.232572 0.000000 0.000000
O O18 0.759849 0.063097 0.500000
O O19 0.500000 0.051530 0.562327
O O20 0.758731 0.000000 0.578342
#
# Coordination Sequence:
#
# PCOD9519177 Si02
#       7
#    16  16  16  16  16   8  16
#     4   9  16  28  49  74  95 119 159 207 249 290
#     4  10  20  35  53  73  99 136 177 210 244 293
#     4  11  22  33  50  78 109 139 172 210 258 313
#     4   9  17  31  51  72  96 127 167 213 251 285
#     4  10  19  31  50  75 102 135 172 207 248 301
#     4   9  17  29  45  67  97 129 155 185 236 299
#     4   9  19  37  60  83 105 134 176 220 262 315
#
# _framework density 18.943619000000002
#
# number of rings (size 3 to 8) (size 9 to 14) (size 15 to 20)
#    0.000    2.385    1.538    2.077    0.000    6.154 
#    0.000    2.308    1.692    1.846    0.000    0.000 
#    0.000    0.000    0.000    0.000    0.000    0.000 
#
# Total GULP energy -289782.167334 kJ/mol
# GULP energy per Si atom -5572.733987 kJ/mol
# Density = 1.890050 g / cm^3
# Si number density = 18.943619 Si / 1000 Ang^3
#
#
#
# Elastic Constant Matrix: (Units=GPa)
#
#
# Indices 1 2 3 4 5 6 
#
# 1 13.8648 1.2250 11.4040 0.0000 0.0000 0.0000
# 2 1.2250 132.5972 61.4740 0.0000 0.0000 0.0000
# 3 11.4040 61.4740 110.8558 0.0000 0.0000 0.0000
# 4 0.0000 0.0000 0.0000 30.0466 0.0000 0.0000
# 5 0.0000 0.0000 0.0000 0.0000 14.1104 0.0000
# 6 0.0000 0.0000 0.0000 0.0000 0.0000 2.9239
#
#
#
# Elastic Compliance Matrix: (Units=1/GPa)
#
#
# Indices 1 2 3 4 5 6 
#
# 1 0.080465 0.004165 -0.010587 0.000000 0.000000 0.000000
# 2 0.004165 0.010367 -0.006177 0.000000 0.000000 0.000000
# 3 -0.010587 -0.006177 0.013536 0.000000 0.000000 0.000000
# 4 0.000000 0.000000 0.000000 0.033282 0.000000 0.000000
# 5 0.000000 0.000000 0.000000 0.000000 0.070870 0.000000
# 6 0.000000 0.000000 0.000000 0.000000 0.000000 0.342005
#
#
# Mechanical properties :
#
#
# Convention : Reuss Voigt Hill
#
# Bulk Modulus (GPa) = 12.63129 45.05819 28.84474
# Shear Modulus (GPa) = 8.30408 21.63050 14.96729
#
# Velocity S-wave (km/s) = 2.09597 3.38277 2.81392
# Velocity P-wave (km/s) = 3.54115 6.25257 5.08106
#
# Compressibility (1/GPa) = 0.07916849
#
# Stress axis : x y z
#
# Youngs Moduli (GPa) = 12.42771 96.45881 73.87965
#
# Poissons Ratio (x) = -0.40176 0.78219
# Poissons Ratio (y) = -0.05176 0.45639
# Poissons Ratio (z) = 0.13158 0.59587
#
# Static dielectric constant tensor:
#      x y z
#    x 1.675900 0.000000 0.000000 
#    y 0.000000 1.673490 0.000000 
#    z 0.000000 0.000000 1.689000 
# 
# From -- ./inp_files/57973.got.cif
#   From: 2010.05.17/outbox.cif.g08.bks.cpg/sg71_29_cif.got.tgz:57973.got - 2010.06.03 16:22:01.
