data_PCOD9519420
_publ_section_title
;
Structure prediction by ZEFSAII (Michael W. Deem and Ramdas Pophale) SiO2 
 PCOD9519420
Probable space group: I M M M
;
_chemical_formula_sum "Si O2"
_cell_formula_units_Z 72
_cell_length_a 7.419717
_cell_length_b 30.563874
_cell_length_c 15.021760
_cell_angle_alpha 90.000000
_cell_angle_beta 90.000000
_cell_angle_gamma 90.000000
_cell_volume 3406.564063
_symmetry_space_group_name_H-M "I M M M"
_symmetry_group_IT_number 71
_symmetry_cell_setting 'orthorhombic'
loop_
_space_group_symop_operation_xyz
x,y,z
-x,-y,z
x,-y,-z
-x,y,-z
-x,-y,-z
x,y,-z
-x,y,z
x,-y,z
1/2+x,1/2+y,1/2+z
1/2-x,1/2-y,1/2+z
1/2+x,1/2-y,1/2-z
1/2-x,1/2+y,1/2-z
1/2-x,1/2-y,1/2-z
1/2+x,1/2+y,1/2-z
1/2-x,1/2+y,1/2+z
1/2+x,1/2-y,1/2+z
loop_
_atom_site_type_symbol
_atom_site_label
_atom_site_fract_x
_atom_site_fract_y
_atom_site_fract_z
Si Si1 0.785644 0.294576 0.195111
Si Si2 0.708520 0.446693 0.000000
Si Si3 0.780012 0.731051 0.000000
Si Si4 0.778559 0.167333 0.000000
Si Si5 0.778535 0.949461 0.306132
Si Si6 0.793110 0.125084 0.819217
O O1 0.750000 0.250000 0.250000
O O2 0.707780 0.335187 0.249075
O O3 0.000000 0.300653 0.192447
O O4 0.720829 0.290029 0.093265
O O5 0.784788 0.433918 0.095797
O O6 0.710227 0.500000 0.000000
O O7 0.500000 0.432607 0.000000
O O8 0.724911 0.781941 0.000000
O O9 0.000000 0.730218 0.000000
O O10 0.715189 0.143165 0.911023
O O11 0.000000 0.168138 0.000000
O O12 0.714300 0.917062 0.229692
O O13 0.000000 0.948479 0.308658
O O14 0.727534 0.000000 0.293111
O O15 0.000000 0.113611 0.839883
#
# Coordination Sequence:
#
# PCOD9519420 Si02
#       6
#    16   8   8   8  16  16
#     4  11  21  35  53  73  97 128 164 201 242 292
#     4   7  10  19  36  60  93 126 150 187 248 293
#     4   9  18  33  51  68  98 134 158 188 250 308
#     4   9  16  30  48  67  96 135 163 190 252 306
#     4   8  14  25  43  68  97 128 161 198 242 289
#     4  10  19  32  51  73  99 131 167 205 244 291
#
# _framework density 21.135664999999999
#
# number of rings (size 3 to 8) (size 9 to 14) (size 15 to 20)
#    0.000    2.778    2.222    2.000    0.000    0.889 
#    0.000    5.556    0.000    4.000    0.000    0.000 
#    0.000    7.111    0.000    0.000    0.000    0.000 
#
# Total GULP energy -200896.159037 kJ/mol
# GULP energy per Si atom -5580.448862 kJ/mol
# Density = 2.108756 g / cm^3
# Si number density = 21.135665 Si / 1000 Ang^3
#
#
#
# Elastic Constant Matrix: (Units=GPa)
#
#
# Indices 1 2 3 4 5 6 
#
# 1 72.1463 -8.8182 -0.3494 0.0000 0.0000 0.0000
# 2 -8.8182 88.4121 73.4640 0.0000 0.0000 0.0000
# 3 -0.3494 73.4640 208.1150 0.0000 0.0000 0.0000
# 4 0.0000 0.0000 0.0000 30.4919 0.0000 0.0000
# 5 0.0000 0.0000 0.0000 0.0000 -9.1066 0.0000
# 6 0.0000 0.0000 0.0000 0.0000 0.0000 0.9125
#
#
#
# Elastic Compliance Matrix: (Units=1/GPa)
#
#
# Indices 1 2 3 4 5 6 
#
# 1 0.014097 0.001962 -0.000669 0.000000 0.000000 0.000000
# 2 0.001962 0.016278 -0.005743 0.000000 0.000000 0.000000
# 3 -0.000669 -0.005743 0.006831 0.000000 0.000000 0.000000
# 4 0.000000 0.000000 0.000000 0.032796 0.000000 0.000000
# 5 0.000000 0.000000 0.000000 0.000000 -0.109811 -0.000001
# 6 0.000000 0.000000 0.000000 0.000000 -0.000001 1.095893
#
#
# Mechanical properties :
#
#
# Convention : Reuss Voigt Hill
#
# Bulk Modulus (GPa) = 35.32714 55.25180 45.28947
# Shear Modulus (GPa) = 4.65368 24.75137 14.70253
#
# Velocity S-wave (km/s) = 1.48546 3.42580 2.64033
# Velocity P-wave (km/s) = 4.43767 6.46888 5.54704
#
# Compressibility (1/GPa) = 0.02830684
#
# Stress axis : x y z
#
# Youngs Moduli (GPa) = 70.93574 61.43155 146.38841
#
# Poissons Ratio (x) = -0.12052 0.09791
# Poissons Ratio (y) = -0.13916 0.84069
# Poissons Ratio (z) = 0.04745 0.35280
#
# Static dielectric constant tensor:
#      x y z
#    x 1.833260 0.000000 0.000000 
#    y 0.000000 1.720150 0.000000 
#    z 0.000000 0.000000 1.841750 
# 
# From -- ./inp_files/6557.got.cif
#   From: 2010.05.17/outbox.cif.g08.bks.cpg/sg71_4_cif.got.tgz:6557.got - 2010.06.03 16:22:01.
