data_PCOD9519910
_publ_section_title
;
Structure prediction by ZEFSAII (Michael W. Deem and Ramdas Pophale) SiO2 
 PCOD9519910
Probable space group: I M M M
;
_chemical_formula_sum "Si O2"
_cell_formula_units_Z 90
_cell_length_a 7.872664
_cell_length_b 21.511199
_cell_length_c 28.658234
_cell_angle_alpha 90.000000
_cell_angle_beta 90.000000
_cell_angle_gamma 90.000000
_cell_volume 4853.284594
_symmetry_space_group_name_H-M "I M M M"
_symmetry_group_IT_number 71
_symmetry_cell_setting 'orthorhombic'
loop_
_space_group_symop_operation_xyz
x,y,z
-x,-y,z
x,-y,-z
-x,y,-z
-x,-y,-z
x,y,-z
-x,y,z
x,-y,z
1/2+x,1/2+y,1/2+z
1/2-x,1/2-y,1/2+z
1/2+x,1/2-y,1/2-z
1/2-x,1/2+y,1/2-z
1/2-x,1/2-y,1/2-z
1/2+x,1/2+y,1/2-z
1/2-x,1/2+y,1/2+z
1/2+x,1/2-y,1/2+z
loop_
_atom_site_type_symbol
_atom_site_label
_atom_site_fract_x
_atom_site_fract_y
_atom_site_fract_z
Si Si1 0.794312 0.699254 0.688843
Si Si2 0.705371 0.800302 0.085255
Si Si3 0.199979 0.569855 0.132520
Si Si4 0.706267 0.106960 0.000000
Si Si5 0.700086 0.661014 0.212820
Si Si6 0.500000 0.500000 0.500000
Si Si7 0.203232 0.834720 0.447583
O O1 0.736669 0.681256 0.637084
O O2 0.733144 0.657816 0.731977
O O3 0.734742 0.770504 0.697595
O O4 0.000000 0.699057 0.690705
O O5 0.500000 0.795088 0.088318
O O6 0.738219 0.850155 0.045368
O O7 0.769682 0.731862 0.070833
O O8 0.272982 0.500000 0.133582
O O9 0.228023 0.606898 0.180696
O O10 0.265433 0.611884 0.090033
O O11 0.000000 0.564992 0.125577
O O12 0.500000 0.090370 0.000000
O O13 0.846433 0.053416 0.000000
O O14 0.500000 0.661388 0.204083
O O15 0.267697 0.847703 0.500000
O O16 0.000000 0.828104 0.450936
#
# Coordination Sequence:
#
# PCOD9519910 Si02
#       7
#    16  16  16   8  16   2  16
#     4   9  17  31  55  85 116 142 181 236 296 352
#     4   9  16  33  61  90 116 152 191 237 297 351
#     4  11  24  39  54  75 112 162 205 243 294 355
#     4  10  21  41  67  90 124 164 199 244 301 357
#     4  10  19  33  54  82 110 145 187 239 294 344
#     4  12  26  44  60  98 124 160 208 240 280 394
#     4  10  19  35  59  87 117 148 194 249 294 347
#
# _framework density 18.544142000000001
#
# number of rings (size 3 to 8) (size 9 to 14) (size 15 to 20)
#    0.000    2.133    2.667    1.200    0.000    2.844 
#    3.200    1.778    1.956    0.000    0.000    0.000 
#    0.000    0.000    0.000    0.000    0.000    0.000 
#
# Total GULP energy -250667.017039 kJ/mol
# GULP energy per Si atom -5570.378156 kJ/mol
# Density = 1.850193 g / cm^3
# Si number density = 18.544142 Si / 1000 Ang^3
#
#
#
# Elastic Constant Matrix: (Units=GPa)
#
#
# Indices 1 2 3 4 5 6 
#
# 1 38.0731 21.5908 10.0986 0.0000 0.0000 0.0000
# 2 21.5908 111.2115 63.9398 0.0000 0.0000 0.0000
# 3 10.0986 63.9398 156.6466 0.0000 0.0000 0.0000
# 4 0.0000 0.0000 0.0000 -14.1897 0.0000 0.0000
# 5 0.0000 0.0000 0.0000 0.0000 22.6352 0.0000
# 6 0.0000 0.0000 0.0000 0.0000 0.0000 -13.4504
#
#
#
# Elastic Compliance Matrix: (Units=1/GPa)
#
#
# Indices 1 2 3 4 5 6 
#
# 1 0.029554 -0.006066 0.000571 0.000000 0.000000 0.000000
# 2 -0.006066 0.012994 -0.004913 0.000000 0.000000 0.000000
# 3 0.000571 -0.004913 0.008352 0.000000 0.000000 0.000000
# 4 0.000000 0.000000 0.000000 -0.070474 0.000000 0.000000
# 5 0.000000 0.000000 0.000000 0.000000 0.044179 0.000000
# 6 0.000000 0.000000 0.000000 0.000000 0.000000 -0.074347
#
#
# Mechanical properties :
#
#
# Convention : Reuss Voigt Hill
#
# Bulk Modulus (GPa) = 33.23995 55.24329 44.24162
# Shear Modulus (GPa) = -264.58123 13.01915 -125.78104
#
# Velocity S-wave (km/s) = -11.95768 2.65252 -8.24470
# Velocity P-wave (km/s) = 13.14095 6.26386 8.16849
#
# Compressibility (1/GPa) = 0.03008428
#
# Stress axis : x y z
#
# Youngs Moduli (GPa) = 33.83669 76.95811 119.72695
#
# Poissons Ratio (x) = 0.46681 -0.06832
# Poissons Ratio (y) = 0.20524 0.58820
# Poissons Ratio (z) = -0.01931 0.37809
#
# Static dielectric constant tensor:
#      x y z
#    x 1.673330 0.000000 0.000000 
#    y 0.000000 1.629060 0.000000 
#    z 0.000000 0.000000 1.652080 
# 
# From -- ./inp_files/63227.got.cif
#   From: 2010.05.17/outbox.cif.g08.bks.cpg/sg71_32_cif.got.tgz:63227.got - 2010.06.03 16:22:01.
