data_PCOD9519655
_publ_section_title
;
Structure prediction by ZEFSAII (Michael W. Deem and Ramdas Pophale) SiO2 
 PCOD9519655
Probable space group: I M M M
;
_chemical_formula_sum "Si O2"
_cell_formula_units_Z 84
_cell_length_a 12.235518
_cell_length_b 14.278058
_cell_length_c 30.303773
_cell_angle_alpha 90.000000
_cell_angle_beta 90.000000
_cell_angle_gamma 90.000000
_cell_volume 5294.052042
_symmetry_space_group_name_H-M "I M M M"
_symmetry_group_IT_number 71
_symmetry_cell_setting 'orthorhombic'
loop_
_space_group_symop_operation_xyz
x,y,z
-x,-y,z
x,-y,-z
-x,y,-z
-x,-y,-z
x,y,-z
-x,y,z
x,-y,z
1/2+x,1/2+y,1/2+z
1/2-x,1/2-y,1/2+z
1/2+x,1/2-y,1/2-z
1/2-x,1/2+y,1/2-z
1/2-x,1/2-y,1/2-z
1/2+x,1/2+y,1/2-z
1/2-x,1/2+y,1/2+z
1/2+x,1/2-y,1/2+z
loop_
_atom_site_type_symbol
_atom_site_label
_atom_site_fract_x
_atom_site_fract_y
_atom_site_fract_z
Si Si1 0.500000 0.686225 0.820864
Si Si2 0.777621 0.708121 0.701503
Si Si3 0.873056 0.309375 0.868106
Si Si4 0.242580 0.112369 0.550535
Si Si5 0.500000 0.500000 0.239764
Si Si6 0.500000 0.611875 0.080099
Si Si7 0.760702 0.000000 0.226255
Si Si8 0.878671 0.500000 0.812576
O O1 0.392829 0.746412 0.810977
O O2 0.500000 0.592693 0.790799
O O3 0.500000 0.656428 0.871689
O O4 0.750000 0.750000 0.750000
O O5 0.689776 0.739782 0.664842
O O6 0.779197 0.596126 0.704646
O O7 0.810741 0.328705 0.913913
O O8 0.869836 0.408644 0.842505
O O9 0.000000 0.283739 0.874555
O O10 0.275975 0.129221 0.500000
O O11 0.113644 0.134668 0.556033
O O12 0.255891 0.000000 0.559200
O O13 0.391308 0.500000 0.269110
O O14 0.500000 0.500000 0.085635
O O15 0.713662 0.000000 0.275949
O O16 0.000000 0.500000 0.791471
#
# Coordination Sequence:
#
# PCOD9519655 Si02
#       8
#     8  16  16  16   4   8   8   8
#     4  12  22  36  60  85 111 156 194 229 278 334
#     4  12  25  37  56  80 112 149 194 237 281 327
#     4  11  22  36  54  79 112 151 187 227 276 334
#     4  10  20  34  54  82 114 148 184 225 278 342
#     4  12  22  34  58  82 111 156 191 234 268 336
#     4  10  19  32  55  81 115 145 182 228 277 326
#     4  12  26  38  54  79 113 150 196 239 280 327
#     4  10  20  34  53  73 110 150 184 225 276 324
#
# _framework density 15.866863
#
# number of rings (size 3 to 8) (size 9 to 14) (size 15 to 20)
#    0.000    0.952    7.143    0.286    4.000    1.524 
#    0.000    0.952    0.000    0.000    0.000    0.667 
#    0.000    3.048    0.000    0.000    0.000    0.000 
#
# Total GULP energy -234531.676540 kJ/mol
# GULP energy per Si atom -5584.087537 kJ/mol
# Density = 1.583075 g / cm^3
# Si number density = 15.866863 Si / 1000 Ang^3
#
#
#
# Elastic Constant Matrix: (Units=GPa)
#
#
# Indices 1 2 3 4 5 6 
#
# 1 118.5172 30.0413 47.8738 0.0000 0.0000 0.0000
# 2 30.0413 91.8025 19.9064 0.0000 0.0000 0.0000
# 3 47.8738 19.9064 87.2251 0.0000 0.0000 0.0000
# 4 0.0000 0.0000 0.0000 12.9137 0.0000 0.0000
# 5 0.0000 0.0000 0.0000 0.0000 25.7009 0.0000
# 6 0.0000 0.0000 0.0000 0.0000 0.0000 14.6109
#
#
#
# Elastic Compliance Matrix: (Units=1/GPa)
#
#
# Indices 1 2 3 4 5 6 
#
# 1 0.011357 -0.002488 -0.005665 0.000000 0.000000 0.000000
# 2 -0.002488 0.012005 -0.001374 0.000000 0.000000 0.000000
# 3 -0.005665 -0.001374 0.014888 0.000000 0.000000 0.000000
# 4 0.000000 0.000000 0.000000 0.077437 0.000000 0.000000
# 5 0.000000 0.000000 0.000000 0.000000 0.038909 0.000000
# 6 0.000000 0.000000 0.000000 0.000000 0.000000 0.068442
#
#
# Mechanical properties :
#
#
# Convention : Reuss Voigt Hill
#
# Bulk Modulus (GPa) = 52.09868 54.79866 53.44867
# Shear Modulus (GPa) = 20.12145 23.95999 22.04072
#
# Velocity S-wave (km/s) = 3.56496 3.89017 3.73111
# Velocity P-wave (km/s) = 7.06056 7.40199 7.23329
#
# Compressibility (1/GPa) = 0.01919434
#
# Stress axis : x y z
#
# Youngs Moduli (GPa) = 88.05392 83.29809 67.16958
#
# Poissons Ratio (x) = 0.20723 0.38054
# Poissons Ratio (y) = 0.21907 0.09231
# Poissons Ratio (z) = 0.49886 0.11448
#
# Static dielectric constant tensor:
#      x y z
#    x 1.555840 0.000000 0.000000 
#    y 0.000000 1.509010 0.000000 
#    z 0.000000 0.000000 1.512270 
# 
# From -- ./inp_files/29946.got.cif
#   From: 2010.05.17/outbox.cif.g08.bks.cpg/sg71_15_cif.got.tgz:29946.got - 2010.06.03 16:22:01.
