data_PCOD9519409
_publ_section_title
;
Structure prediction by ZEFSAII (Michael W. Deem and Ramdas Pophale) SiO2 
 PCOD9519409
Probable space group: I M M M
;
_chemical_formula_sum "Si O2"
_cell_formula_units_Z 80
_cell_length_a 16.557789
_cell_length_b 7.453988
_cell_length_c 30.194234
_cell_angle_alpha 90.000000
_cell_angle_beta 90.000000
_cell_angle_gamma 90.000000
_cell_volume 3726.619479
_symmetry_space_group_name_H-M "I M M M"
_symmetry_group_IT_number 71
_symmetry_cell_setting 'orthorhombic'
loop_
_space_group_symop_operation_xyz
x,y,z
-x,-y,z
x,-y,-z
-x,y,-z
-x,-y,-z
x,y,-z
-x,y,z
x,-y,z
1/2+x,1/2+y,1/2+z
1/2-x,1/2-y,1/2+z
1/2+x,1/2-y,1/2-z
1/2-x,1/2+y,1/2-z
1/2-x,1/2-y,1/2-z
1/2+x,1/2+y,1/2-z
1/2-x,1/2+y,1/2+z
1/2+x,1/2-y,1/2+z
loop_
_atom_site_type_symbol
_atom_site_label
_atom_site_fract_x
_atom_site_fract_y
_atom_site_fract_z
Si Si1 0.831743 0.796970 0.210257
Si Si2 0.000000 0.709028 0.934286
Si Si3 0.283293 0.296109 0.868152
Si Si4 0.319766 0.780807 0.549034
Si Si5 0.000000 0.708755 0.171221
Si Si6 0.593459 0.279791 0.800472
O O1 0.777644 0.699896 0.173809
O O2 0.920722 0.798686 0.189584
O O3 0.849920 0.722443 0.259209
O O4 0.801977 0.000000 0.214244
O O5 0.912922 0.783381 0.948291
O O6 0.000000 0.500000 0.948582
O O7 0.000000 0.714590 0.881409
O O8 0.303008 0.500000 0.881138
O O9 0.235250 0.216315 0.909983
O O10 0.364492 0.219031 0.846106
O O11 0.288016 0.738182 0.500000
O O12 0.323764 0.000000 0.553081
O O13 0.000000 0.500000 0.184793
O O14 0.500000 0.225222 0.795434
O O15 0.594345 0.500000 0.799520
#
# Coordination Sequence:
#
# PCOD9519409 Si02
#       6
#    16   8  16  16   8  16
#     4  11  20  32  49  70 100 133 161 194 240 284
#     4   9  15  25  42  66  94 122 152 187 229 273
#     4  10  19  32  51  72  94 125 165 203 237 284
#     4   9  16  26  43  69  96 121 156 201 242 280
#     4  11  19  30  49  73 100 132 169 198 227 275
#     4   9  18  32  49  69  96 129 162 195 241 292
#
# _framework density 21.467178000000001
#
# number of rings (size 3 to 8) (size 9 to 14) (size 15 to 20)
#    0.000    2.200    3.000    1.800    0.000    1.200 
#    0.000    1.000    0.000    1.200    0.000    5.600 
#    0.000    0.000    0.000    1.800    0.000    2.000 
#
# Total GULP energy -223215.311670 kJ/mol
# GULP energy per Si atom -5580.382792 kJ/mol
# Density = 2.141832 g / cm^3
# Si number density = 21.467178 Si / 1000 Ang^3
#
#
#
# Elastic Constant Matrix: (Units=GPa)
#
#
# Indices 1 2 3 4 5 6 
#
# 1 59.0797 13.8480 53.3334 0.0000 0.0000 0.0000
# 2 13.8480 72.8061 11.4369 0.0000 0.0000 0.0000
# 3 53.3334 11.4369 161.4670 0.0000 0.0000 0.0000
# 4 0.0000 0.0000 0.0000 2.1415 0.0000 0.0000
# 5 0.0000 0.0000 0.0000 0.0000 35.9127 0.0000
# 6 0.0000 0.0000 0.0000 0.0000 0.0000 5.4797
#
#
#
# Elastic Compliance Matrix: (Units=1/GPa)
#
#
# Indices 1 2 3 4 5 6 
#
# 1 0.024966 -0.003492 -0.007999 0.000000 0.000000 0.000000
# 2 -0.003492 0.014378 0.000135 0.000000 0.000000 0.000000
# 3 -0.007999 0.000135 0.008826 0.000000 0.000000 0.000000
# 4 0.000000 0.000000 0.000000 0.466968 0.000000 0.000000
# 5 0.000000 0.000000 0.000000 0.000000 0.027845 0.000000
# 6 0.000000 0.000000 0.000000 0.000000 0.000000 0.182493
#
#
# Mechanical properties :
#
#
# Convention : Reuss Voigt Hill
#
# Bulk Modulus (GPa) = 39.28097 50.06550 44.67324
# Shear Modulus (GPa) = 6.60787 23.02240 14.81513
#
# Velocity S-wave (km/s) = 1.75636 3.27838 2.62988
# Velocity P-wave (km/s) = 4.73824 6.14026 5.48424
#
# Compressibility (1/GPa) = 0.02545762
#
# Stress axis : x y z
#
# Youngs Moduli (GPa) = 40.05482 69.55016 113.30474
#
# Poissons Ratio (x) = 0.24287 0.90632
# Poissons Ratio (y) = 0.13987 -0.01530
# Poissons Ratio (z) = 0.32040 -0.00939
#
# Static dielectric constant tensor:
#      x y z
#    x 1.779290 0.000000 0.000000 
#    y 0.000000 1.826620 0.000000 
#    z 0.000000 0.000000 1.782300 
# 
# From -- ./inp_files/65857.got.cif
#   From: 2010.05.17/outbox.cif.g08.bks.cpg/sg71_33_cif.got.tgz:65857.got - 2010.06.03 16:22:01.
