data_PCOD9519737
_publ_section_title
;
Structure prediction by ZEFSAII (Michael W. Deem and Ramdas Pophale) SiO2 
 PCOD9519737
Probable space group: I M M M
;
_chemical_formula_sum "Si O2"
_cell_formula_units_Z 104
_cell_length_a 33.080802
_cell_length_b 9.918662
_cell_length_c 19.038753
_cell_angle_alpha 90.000000
_cell_angle_beta 90.000000
_cell_angle_gamma 90.000000
_cell_volume 6246.944110
_symmetry_space_group_name_H-M "I M M M"
_symmetry_group_IT_number 71
_symmetry_cell_setting 'orthorhombic'
loop_
_space_group_symop_operation_xyz
x,y,z
-x,-y,z
x,-y,-z
-x,y,-z
-x,-y,-z
x,y,-z
-x,y,z
x,-y,z
1/2+x,1/2+y,1/2+z
1/2-x,1/2-y,1/2+z
1/2+x,1/2-y,1/2-z
1/2-x,1/2+y,1/2-z
1/2-x,1/2-y,1/2-z
1/2+x,1/2+y,1/2-z
1/2-x,1/2+y,1/2+z
1/2+x,1/2-y,1/2+z
loop_
_atom_site_type_symbol
_atom_site_label
_atom_site_fract_x
_atom_site_fract_y
_atom_site_fract_z
Si Si1 0.047555 0.342633 0.688970
Si Si2 0.257998 0.346211 0.585456
Si Si3 0.813682 0.845704 0.585534
Si Si4 0.594608 0.660959 0.916817
Si Si5 0.000000 0.663525 0.079905
Si Si6 0.082395 0.339116 0.158191
Si Si7 0.649575 0.338952 0.416086
O O1 0.052224 0.500000 0.669016
O O2 0.063415 0.245537 0.628475
O O3 0.073272 0.319761 0.759610
O O4 0.000000 0.321261 0.704181
O O5 0.256911 0.346117 0.500000
O O6 0.251033 0.500000 0.608247
O O7 0.222417 0.249136 0.610509
O O8 0.303870 0.306783 0.603619
O O9 0.812972 0.845930 0.500000
O O10 0.859206 0.802787 0.604443
O O11 0.807601 0.000000 0.608235
O O12 0.590114 0.500000 0.906457
O O13 0.590104 0.686895 0.000000
O O14 0.958941 0.702660 0.118693
O O15 0.000000 0.500000 0.079840
O O16 0.000000 0.711458 0.000000
O O17 0.088930 0.500000 0.146099
O O18 0.118640 0.250917 0.127637
O O19 0.644621 0.314062 0.500000
O O20 0.643746 0.500000 0.405253
#
# Coordination Sequence:
#
# PCOD9519737 Si02
#       7
#    16  16  16  16   8  16  16
#     4  10  21  37  54  73 100 131 165 208 254 299
#     4   8  14  25  42  66  98 133 163 194 239 292
#     4   8  14  26  45  70  99 126 155 197 243 286
#     4   9  19  35  54  78 105 130 160 201 248 299
#     4   9  16  28  49  73  94 121 160 206 251 289
#     4  10  19  33  51  71  96 129 170 211 249 296
#     4   9  18  31  46  70 105 137 166 206 251 292
#
# _framework density 16.648140000000001
#
# number of rings (size 3 to 8) (size 9 to 14) (size 15 to 20)
#    0.000    3.000    0.769    2.308    0.000    3.692 
#    0.000    5.000    0.000    2.308    0.000    0.000 
#    0.000    0.000    0.000    0.000    0.000    0.000 
#
# Total GULP energy -289652.775983 kJ/mol
# GULP energy per Si atom -5570.245692 kJ/mol
# Density = 1.661025 g / cm^3
# Si number density = 16.648140 Si / 1000 Ang^3
#
#
#
# Elastic Constant Matrix: (Units=GPa)
#
#
# Indices 1 2 3 4 5 6 
#
# 1 70.3882 49.4595 30.5588 0.0000 0.0000 0.0000
# 2 49.4595 50.4777 36.1189 0.0000 0.0000 0.0000
# 3 30.5588 36.1189 47.0017 0.0000 0.0000 0.0000
# 4 0.0000 0.0000 0.0000 20.0810 0.0000 0.0000
# 5 0.0000 0.0000 0.0000 0.0000 -27.8298 0.0000
# 6 0.0000 0.0000 0.0000 0.0000 0.0000 36.9147
#
#
#
# Elastic Compliance Matrix: (Units=1/GPa)
#
#
# Indices 1 2 3 4 5 6 
#
# 1 0.048024 -0.054903 0.010967 0.000000 0.000000 0.000000
# 2 -0.054903 0.106777 -0.046358 0.000000 0.000000 0.000000
# 3 0.010967 -0.046358 0.049770 0.000000 0.000000 0.000000
# 4 0.000000 0.000000 0.000000 0.049798 0.000000 0.000000
# 5 0.000000 0.000000 0.000000 0.000000 -0.035933 0.000000
# 6 0.000000 0.000000 0.000000 0.000000 0.000000 0.027089
#
#
# Mechanical properties :
#
#
# Convention : Reuss Voigt Hill
#
# Bulk Modulus (GPa) = 41.69563 44.46022 43.07793
# Shear Modulus (GPa) = 11.51785 9.28187 10.39986
#
# Velocity S-wave (km/s) = 2.63314 2.36377 2.50208
# Velocity P-wave (km/s) = 5.86039 5.84925 5.85482
#
# Compressibility (1/GPa) = 0.02398333
#
# Stress axis : x y z
#
# Youngs Moduli (GPa) = 20.82286 9.36528 20.09251
#
# Poissons Ratio (x) = 0.51418 -0.22035
# Poissons Ratio (y) = 1.14323 0.93145
# Poissons Ratio (z) = -0.22836 0.43416
#
# Static dielectric constant tensor:
#      x y z
#    x 1.557220 0.000000 0.000000 
#    y 0.000000 1.547700 0.000000 
#    z 0.000000 0.000000 1.549870 
# 
# From -- ./inp_files/56722.got.cif
#   From: 2010.05.17/outbox.cif.g08.bks.cpg/sg71_29_cif.got.tgz:56722.got - 2010.06.03 16:22:01.
