data_PCOD9519534
_publ_section_title
;
Structure prediction by ZEFSAII (Michael W. Deem and Ramdas Pophale) SiO2 
 PCOD9519534
Probable space group: I M M M
;
_chemical_formula_sum "Si O2"
_cell_formula_units_Z 112
_cell_length_a 14.190473
_cell_length_b 15.533220
_cell_length_c 23.251611
_cell_angle_alpha 90.000000
_cell_angle_beta 90.000000
_cell_angle_gamma 90.000000
_cell_volume 5125.207035
_symmetry_space_group_name_H-M "I M M M"
_symmetry_group_IT_number 71
_symmetry_cell_setting 'orthorhombic'
loop_
_space_group_symop_operation_xyz
x,y,z
-x,-y,z
x,-y,-z
-x,y,-z
-x,-y,-z
x,y,-z
-x,y,z
x,-y,z
1/2+x,1/2+y,1/2+z
1/2-x,1/2-y,1/2+z
1/2+x,1/2-y,1/2-z
1/2-x,1/2+y,1/2-z
1/2-x,1/2-y,1/2-z
1/2+x,1/2+y,1/2-z
1/2-x,1/2+y,1/2+z
1/2+x,1/2-y,1/2+z
loop_
_atom_site_type_symbol
_atom_site_label
_atom_site_fract_x
_atom_site_fract_y
_atom_site_fract_z
Si Si1 0.808539 0.845355 0.933061
Si Si2 0.896811 0.600315 0.430917
Si Si3 0.112972 0.904978 0.813465
Si Si4 0.247185 0.907248 0.347716
Si Si5 0.605755 0.845487 0.433679
Si Si6 0.889772 0.405648 0.741231
Si Si7 0.388215 0.282845 0.792676
O O1 0.696577 0.844560 0.920897
O O2 0.850310 0.895501 0.878422
O O3 0.860388 0.753585 0.930742
O O4 0.820568 0.877716 0.000000
O O5 0.905619 0.601031 0.500000
O O6 0.880273 0.500000 0.415279
O O7 0.000000 0.626461 0.406788
O O8 0.139158 0.828538 0.768844
O O9 0.000000 0.903114 0.816079
O O10 0.142307 0.000000 0.791112
O O11 0.313889 0.897619 0.402136
O O12 0.321441 0.902590 0.295444
O O13 0.172086 0.832661 0.339552
O O14 0.199177 0.000000 0.346968
O O15 0.601331 0.870232 0.500000
O O16 0.500000 0.854114 0.408830
O O17 0.877298 0.500000 0.713390
O O18 0.869471 0.318883 0.706804
O O19 0.000000 0.399985 0.758284
O O20 0.500000 0.296223 0.799519
#
# Coordination Sequence:
#
# PCOD9519534 Si02
#       7
#    16  16  16  16  16  16  16
#     4  10  19  32  52  78 113 160 211 261 315 373
#     4   8  14  26  46  72 102 141 193 249 299 349
#     4  10  20  32  49  78 117 162 211 259 309 368
#     4  11  22  37  62  91 119 158 205 249 300 365
#     4  10  22  40  62  90 122 154 193 246 310 376
#     4   9  18  33  56  88 122 156 198 250 309 368
#     4  10  21  39  62  87 121 163 206 255 307 364
#
# _framework density 21.852775000000001
#
# number of rings (size 3 to 8) (size 9 to 14) (size 15 to 20)
#    0.000    2.286    0.000    3.429    0.000    4.857 
#    0.000    2.143    0.000    3.857    0.000    9.000 
#    0.000    0.000    0.000    0.000    0.000    0.143 
#
# Total GULP energy -312747.255837 kJ/mol
# GULP energy per Si atom -5584.772426 kJ/mol
# Density = 2.180304 g / cm^3
# Si number density = 21.852775 Si / 1000 Ang^3
#
#
#
# Elastic Constant Matrix: (Units=GPa)
#
#
# Indices 1 2 3 4 5 6 
#
# 1 85.9487 35.5467 27.9706 0.0000 0.0000 0.0000
# 2 35.5467 133.5239 33.4802 0.0000 0.0000 0.0000
# 3 27.9706 33.4802 81.3489 0.0000 0.0000 0.0000
# 4 0.0000 0.0000 0.0000 -387.5596 0.0000 0.0000
# 5 0.0000 0.0000 0.0000 0.0000 31.9333 0.0000
# 6 0.0000 0.0000 0.0000 0.0000 0.0000 23.7760
#
#
#
# Elastic Compliance Matrix: (Units=1/GPa)
#
#
# Indices 1 2 3 4 5 6 
#
# 1 0.013985 -0.002807 -0.003653 0.000000 0.000000 0.000000
# 2 -0.002807 0.008915 -0.002704 0.000000 0.000000 0.000000
# 3 -0.003653 -0.002704 0.014662 0.000000 0.000000 0.000000
# 4 0.000000 0.000000 0.000000 -0.002580 0.000000 0.000000
# 5 0.000000 0.000000 0.000000 0.000000 0.031315 0.000000
# 6 0.000000 0.000000 0.000000 0.000000 0.000000 0.042059
#
#
# Mechanical properties :
#
#
# Convention : Reuss Voigt Hill
#
# Bulk Modulus (GPa) = 51.99411 54.97962 53.48687
# Shear Modulus (GPa) = 37.56754 -52.78178 -7.60712
#
# Velocity S-wave (km/s) = 4.15073 -4.91994 -1.86779
# Velocity P-wave (km/s) = 6.84222 2.65719 4.45843
#
# Compressibility (1/GPa) = 0.01923295
#
# Stress axis : x y z
#
# Youngs Moduli (GPa) = 71.50714 112.17664 68.20555
#
# Poissons Ratio (x) = 0.31488 0.24916
# Poissons Ratio (y) = 0.20072 0.18441
# Poissons Ratio (z) = 0.26123 0.30330
#
# Static dielectric constant tensor:
#      x y z
#    x 1.782680 0.000000 0.000000 
#    y 0.000000 1.824720 0.000000 
#    z 0.000000 0.000000 1.813480 
# 
# From -- ./inp_files/39274.got.cif
#   From: 2010.05.17/outbox.cif.g08.bks.cpg/sg71_20_cif.got.tgz:39274.got - 2010.06.03 16:22:01.
