data_PCOD9519508
_publ_section_title
;
Structure prediction by ZEFSAII (Michael W. Deem and Ramdas Pophale) SiO2 
 PCOD9519508
Probable space group: I M M M
;
_chemical_formula_sum "Si O2"
_cell_formula_units_Z 104
_cell_length_a 20.079519
_cell_length_b 30.844905
_cell_length_c 9.090631
_cell_angle_alpha 90.000000
_cell_angle_beta 90.000000
_cell_angle_gamma 90.000000
_cell_volume 5630.290091
_symmetry_space_group_name_H-M "I M M M"
_symmetry_group_IT_number 71
_symmetry_cell_setting 'orthorhombic'
loop_
_space_group_symop_operation_xyz
x,y,z
-x,-y,z
x,-y,-z
-x,y,-z
-x,-y,-z
x,y,-z
-x,y,z
x,-y,z
1/2+x,1/2+y,1/2+z
1/2-x,1/2-y,1/2+z
1/2+x,1/2-y,1/2-z
1/2-x,1/2+y,1/2-z
1/2-x,1/2-y,1/2-z
1/2+x,1/2+y,1/2-z
1/2-x,1/2+y,1/2+z
1/2+x,1/2-y,1/2+z
loop_
_atom_site_type_symbol
_atom_site_label
_atom_site_fract_x
_atom_site_fract_y
_atom_site_fract_z
Si Si1 0.741223 0.448936 0.322033
Si Si2 0.624871 0.087778 0.326065
Si Si3 0.760918 0.205425 0.166361
Si Si4 0.000000 0.253292 0.675181
Si Si5 0.609445 0.824646 0.832934
Si Si6 0.144424 0.127944 0.178964
Si Si7 0.500000 0.340684 0.322143
Si Si8 0.500000 0.949495 0.163277
O O1 0.748253 0.446805 0.500000
O O2 0.733636 0.500000 0.283224
O O3 0.806829 0.428083 0.249545
O O4 0.679881 0.417239 0.279071
O O5 0.629868 0.082755 0.500000
O O6 0.604969 0.136659 0.281605
O O7 0.565123 0.061394 0.254925
O O8 0.750000 0.250000 0.250000
O O9 0.687462 0.185440 0.160235
O O10 0.811324 0.169348 0.229575
O O11 0.783686 0.215150 0.000000
O O12 0.935428 0.283191 0.707298
O O13 0.000000 0.244366 0.500000
O O14 0.000000 0.208188 0.760545
O O15 0.588833 0.837489 0.000000
O O16 0.068087 0.135222 0.224296
O O17 0.146421 0.128878 0.000000
O O18 0.500000 0.338742 0.500000
O O19 0.500000 0.000000 0.142783
O O20 0.500000 0.928689 0.000000
#
# Coordination Sequence:
#
# PCOD9519508 Si02
#       8
#    16  16  16   8  16  16   8   8
#     4  10  20  38  63  84 110 154 201 241 292 362
#     4  12  24  37  57  87 120 150 188 244 295 336
#     4  10  19  32  52  76 109 146 186 235 279 339
#     4  10  21  35  54  82 113 149 195 240 278 335
#     4  10  20  36  55  76 110 155 194 230 277 339
#     4   9  18  35  56  82 113 147 191 240 293 350
#     4  10  20  35  58  82 114 154 185 236 305 360
#     4  11  24  41  60  80 108 153 198 229 272 341
#
# _framework density 18.471516999999999
#
# number of rings (size 3 to 8) (size 9 to 14) (size 15 to 20)
#    0.000    1.769    1.538    3.462    0.000    4.615 
#    0.000    1.154    0.000    2.308    0.000    0.000 
#    0.000    1.846    0.000    0.000    0.000    0.000 
#
# Total GULP energy -290063.152926 kJ/mol
# GULP energy per Si atom -5578.137556 kJ/mol
# Density = 1.842947 g / cm^3
# Si number density = 18.471517 Si / 1000 Ang^3
#
#
#
# Elastic Constant Matrix: (Units=GPa)
#
#
# Indices 1 2 3 4 5 6 
#
# 1 150.1207 61.6263 28.7126 0.0000 0.0000 0.0000
# 2 61.6263 115.4662 42.5887 0.0000 0.0000 0.0000
# 3 28.7126 42.5887 52.2737 0.0002 0.0002 -0.0001
# 4 0.0000 0.0000 0.0002 15.9091 0.0000 0.0000
# 5 0.0000 0.0000 0.0002 0.0000 3.2267 0.0000
# 6 0.0000 0.0000 -0.0001 0.0000 0.0000 22.9079
#
#
#
# Elastic Compliance Matrix: (Units=1/GPa)
#
#
# Indices 1 2 3 4 5 6 
#
# 1 0.008602 -0.004072 -0.001407 0.000000 0.000000 0.000000
# 2 -0.004072 0.014309 -0.009421 0.000000 0.000001 0.000000
# 3 -0.001407 -0.009421 0.027579 0.000000 -0.000002 0.000000
# 4 0.000000 0.000000 0.000000 0.062857 -0.000001 0.000000
# 5 0.000000 0.000001 -0.000002 -0.000001 0.309918 0.000000
# 6 0.000000 0.000000 0.000000 0.000000 0.000000 0.043653
#
#
# Mechanical properties :
#
#
# Convention : Reuss Voigt Hill
#
# Bulk Modulus (GPa) = 48.33557 64.85732 56.59645
# Shear Modulus (GPa) = 9.92822 20.73760 15.33291
#
# Velocity S-wave (km/s) = 2.32089 3.35428 2.88424
# Velocity P-wave (km/s) = 5.77984 7.08448 6.46515
#
# Compressibility (1/GPa) = 0.02068870
#
# Stress axis : x y z
#
# Youngs Moduli (GPa) = 116.25098 69.88755 36.25993
#
# Poissons Ratio (x) = 0.28458 0.05103
# Poissons Ratio (y) = 0.47337 0.34161
# Poissons Ratio (z) = 0.16361 0.65841
#
# Static dielectric constant tensor:
#      x y z
#    x 1.651870 0.000000 0.000000 
#    y 0.000000 2.165340 0.000000 
#    z 0.000000 0.000000 1.575950 
# 
# From -- ./inp_files/11191.got.cif
#   From: 2010.05.17/outbox.cif.g08.bks.cpg/sg71_6_cif.got.tgz:11191.got - 2010.06.03 16:22:01.
