data_PCOD9519144
_publ_section_title
;
Structure prediction by ZEFSAII (Michael W. Deem and Ramdas Pophale) SiO2 
 PCOD9519144
Probable space group: I M M M
;
_chemical_formula_sum "Si O2"
_cell_formula_units_Z 88
_cell_length_a 14.688724
_cell_length_b 16.746922
_cell_length_c 13.783646
_cell_angle_alpha 90.000000
_cell_angle_beta 90.000000
_cell_angle_gamma 90.000000
_cell_volume 3390.651693
_symmetry_space_group_name_H-M "I M M M"
_symmetry_group_IT_number 71
_symmetry_cell_setting 'orthorhombic'
loop_
_space_group_symop_operation_xyz
x,y,z
-x,-y,z
x,-y,-z
-x,y,-z
-x,-y,-z
x,y,-z
-x,y,z
x,-y,z
1/2+x,1/2+y,1/2+z
1/2-x,1/2-y,1/2+z
1/2+x,1/2-y,1/2-z
1/2-x,1/2+y,1/2-z
1/2-x,1/2-y,1/2-z
1/2+x,1/2+y,1/2-z
1/2-x,1/2+y,1/2+z
1/2+x,1/2-y,1/2+z
loop_
_atom_site_type_symbol
_atom_site_label
_atom_site_fract_x
_atom_site_fract_y
_atom_site_fract_z
Si Si1 0.896280 0.584608 0.307030
Si Si2 0.611181 0.500000 0.385435
Si Si3 0.892791 0.175984 0.882272
Si Si4 0.150839 0.354782 0.109267
Si Si5 0.108021 0.744677 0.391900
Si Si6 0.354998 0.413169 0.887137
O O1 0.850707 0.500000 0.329027
O O2 0.902151 0.599957 0.192783
O O3 0.851626 0.664262 0.348639
O O4 0.000000 0.580032 0.344360
O O5 0.500000 0.500000 0.379621
O O6 0.634975 0.500000 0.500000
O O7 0.640094 0.411977 0.347228
O O8 0.843580 0.260707 0.861223
O O9 0.000000 0.187063 0.855989
O O10 0.890493 0.170308 0.000000
O O11 0.247176 0.399958 0.108446
O O12 0.113383 0.357459 0.000000
O O13 0.147679 0.753593 0.500000
O O14 0.114944 0.829922 0.340205
O O15 0.000000 0.732696 0.398902
O O16 0.379656 0.500000 0.846439
O O17 0.388927 0.413385 0.000000
#
# Coordination Sequence:
#
# PCOD9519144 Si02
#       6
#    16   8  16  16  16  16
#     4  10  21  35  53  79 108 141 182 221 260 313
#     4   7  10  18  34  56  80 116 176 228 250 274
#     4   8  13  22  39  62  90 133 182 218 248 284
#     4  10  19  31  49  75 113 153 182 212 252 307
#     4   9  19  37  60  82 103 129 170 229 287 332
#     4   9  18  33  55  82 109 139 176 216 268 331
#
# _framework density 25.953711999999999
#
# number of rings (size 3 to 8) (size 9 to 14) (size 15 to 20)
#    0.000    3.000    0.000    2.182    0.000    3.636 
#    0.000    4.545    4.000    0.000    0.000    0.000 
#    0.000    0.000    0.000    0.000    0.000    0.000 
#
# Total GULP energy -245618.875066 kJ/mol
# GULP energy per Si atom -5582.247161 kJ/mol
# Density = 2.589464 g / cm^3
# Si number density = 25.953712 Si / 1000 Ang^3
#
#
#
# Elastic Constant Matrix: (Units=GPa)
#
#
# Indices 1 2 3 4 5 6 
#
# 1 44.1318 14.6204 -5.8332 0.0000 0.0000 0.0000
# 2 14.6204 299.1428 64.6763 0.0000 0.0000 0.0000
# 3 -5.8332 64.6763 53.7162 0.0000 0.0000 0.0000
# 4 0.0000 0.0000 0.0000 33.8024 0.0000 0.0000
# 5 0.0000 0.0000 0.0000 0.0000 5.6289 0.0000
# 6 0.0000 0.0000 0.0000 0.0000 0.0000 29.7068
#
#
#
# Elastic Compliance Matrix: (Units=1/GPa)
#
#
# Indices 1 2 3 4 5 6 
#
# 1 0.024166 -0.002364 0.005470 0.000000 0.000000 0.000000
# 2 -0.002364 0.004751 -0.005977 0.000000 0.000000 0.000000
# 3 0.005470 -0.005977 0.026406 0.000000 0.000000 0.000000
# 4 0.000000 0.000000 0.000000 0.029584 0.000000 0.000000
# 5 0.000000 0.000000 0.000000 0.000000 0.177654 0.000000
# 6 0.000000 0.000000 0.000000 0.000000 0.000000 0.033662
#
#
# Mechanical properties :
#
#
# Convention : Reuss Voigt Hill
#
# Bulk Modulus (GPa) = 20.16848 60.43532 40.30190
# Shear Modulus (GPa) = 15.69906 35.39612 25.54759
#
# Velocity S-wave (km/s) = 2.46211 3.69700 3.14084
# Velocity P-wave (km/s) = 3.98378 6.44671 5.35866
#
# Compressibility (1/GPa) = 0.04958232
#
# Stress axis : x y z
#
# Youngs Moduli (GPa) = 41.38125 210.50090 37.86969
#
# Poissons Ratio (x) = 0.49758 -0.20716
# Poissons Ratio (y) = 0.09782 0.22633
# Poissons Ratio (z) = -0.22637 1.25807
#
# Static dielectric constant tensor:
#      x y z
#    x 2.011980 0.000000 0.000000 
#    y 0.000000 2.080520 0.000000 
#    z 0.000000 0.000000 2.082610 
# 
# From -- ./inp_files/37735.got.cif
#   From: 2010.05.17/outbox.cif.g08.bks.cpg/sg71_19_cif.got.tgz:37735.got - 2010.06.03 16:22:01.
