data_PCOD9519725
_publ_section_title
;
Structure prediction by ZEFSAII (Michael W. Deem and Ramdas Pophale) SiO2 
 PCOD9519725
Probable space group: I M M M
;
_chemical_formula_sum "Si O2"
_cell_formula_units_Z 96
_cell_length_a 25.248999
_cell_length_b 25.964049
_cell_length_c 7.569397
_cell_angle_alpha 90.000000
_cell_angle_beta 90.000000
_cell_angle_gamma 90.000000
_cell_volume 4962.241185
_symmetry_space_group_name_H-M "I M M M"
_symmetry_group_IT_number 71
_symmetry_cell_setting 'orthorhombic'
loop_
_space_group_symop_operation_xyz
x,y,z
-x,-y,z
x,-y,-z
-x,y,-z
-x,-y,-z
x,y,-z
-x,y,z
x,-y,z
1/2+x,1/2+y,1/2+z
1/2-x,1/2-y,1/2+z
1/2+x,1/2-y,1/2-z
1/2-x,1/2+y,1/2-z
1/2-x,1/2-y,1/2-z
1/2+x,1/2+y,1/2-z
1/2-x,1/2+y,1/2+z
1/2+x,1/2-y,1/2+z
loop_
_atom_site_type_symbol
_atom_site_label
_atom_site_fract_x
_atom_site_fract_y
_atom_site_fract_z
Si Si1 0.000000 0.940753 0.217030
Si Si2 0.000000 0.781824 0.288291
Si Si3 0.437886 0.000000 0.217334
Si Si4 0.688413 0.306678 0.711932
Si Si5 0.691071 0.189280 0.786857
Si Si6 0.411725 0.363304 0.706749
Si Si7 0.392964 0.892513 0.204176
Si Si8 0.000000 0.337344 0.794861
O O1 0.052133 0.909654 0.278814
O O2 0.000000 0.000000 0.269015
O O3 0.000000 0.938454 0.000000
O O4 0.050792 0.813324 0.222143
O O5 0.000000 0.782302 0.500000
O O6 0.000000 0.723815 0.223584
O O7 0.407850 0.051511 0.278576
O O8 0.500000 0.000000 0.270079
O O9 0.438591 0.000000 0.000000
O O10 0.690063 0.312481 0.500000
O O11 0.672369 0.247359 0.745969
O O12 0.748298 0.314540 0.778455
O O13 0.644783 0.346451 0.782832
O O14 0.652545 0.144408 0.718422
O O15 0.691778 0.185824 0.000000
O O16 0.403506 0.375015 0.500000
O O17 0.447401 0.860558 0.210127
O O18 0.378087 0.901584 0.000000
O O19 0.000000 0.351957 0.000000
#
# Coordination Sequence:
#
# PCOD9519725 Si02
#       8
#     8   8   8  16  16  16  16   8
#     4   8  14  26  46  69  90 121 160 190 225 275
#     4  11  21  31  45  69  99 125 155 192 235 286
#     4   9  16  30  52  70  88 122 164 197 238 283
#     4   9  17  30  47  68  96 125 153 188 232 279
#     4   9  18  30  47  70  94 121 155 192 229 276
#     4   9  17  30  48  68  95 128 157 190 234 281
#     4  10  19  33  51  69  91 124 163 198 235 282
#     4  12  23  32  45  68  98 124 153 195 243 287
#
# _framework density 19.346098000000001
#
# number of rings (size 3 to 8) (size 9 to 14) (size 15 to 20)
#    0.000    2.500    0.833    3.000    0.000    4.000 
#    0.000    0.833    1.833    4.000    0.000    0.000 
#    0.000    0.000    0.333    0.000    0.667    0.000 
#
# Total GULP energy -267710.788410 kJ/mol
# GULP energy per Si atom -5577.308092 kJ/mol
# Density = 1.930206 g / cm^3
# Si number density = 19.346098 Si / 1000 Ang^3
#
#
#
# Elastic Constant Matrix: (Units=GPa)
#
#
# Indices 1 2 3 4 5 6 
#
# 1 125.2483 89.6801 -1.6449 0.0000 0.0000 0.0000
# 2 89.6801 169.6657 -4.2507 0.0000 0.0000 0.0000
# 3 -1.6449 -4.2507 51.5479 0.0000 0.0000 0.0000
# 4 0.0000 0.0000 0.0000 7.7118 0.0000 0.0000
# 5 0.0000 0.0000 0.0000 0.0000 15.0984 0.0000
# 6 0.0000 0.0000 0.0000 0.0000 0.0000 33.6917
#
#
#
# Elastic Compliance Matrix: (Units=1/GPa)
#
#
# Indices 1 2 3 4 5 6 
#
# 1 0.012847 -0.006794 -0.000150 0.000000 0.000000 0.000000
# 2 -0.006794 0.009499 0.000567 0.000000 0.000000 0.000000
# 3 -0.000150 0.000567 0.019441 0.000000 0.000000 0.000000
# 4 0.000000 0.000000 0.000000 0.129671 0.000000 0.000000
# 5 0.000000 0.000000 0.000000 0.000000 0.066232 0.000000
# 6 0.000000 0.000000 0.000000 0.000000 0.000000 0.029681
#
#
# Mechanical properties :
#
#
# Convention : Reuss Voigt Hill
#
# Bulk Modulus (GPa) = 34.44527 57.11455 45.77991
# Shear Modulus (GPa) = 17.25294 28.81221 23.03257
#
# Velocity S-wave (km/s) = 2.98955 3.86334 3.45418
# Velocity P-wave (km/s) = 5.45527 7.03471 6.29472
#
# Compressibility (1/GPa) = 0.02903156
#
# Stress axis : x y z
#
# Youngs Moduli (GPa) = 77.83908 105.26973 51.43677
#
# Poissons Ratio (x) = 0.71524 0.00773
# Poissons Ratio (y) = 0.52886 -0.02914
# Poissons Ratio (z) = 0.01170 -0.05964
#
# Static dielectric constant tensor:
#      x y z
#    x 1.688200 0.000000 0.000000 
#    y 0.000000 1.653800 0.000000 
#    z 0.000000 0.000000 1.761030 
# 
# From -- ./inp_files/15244.got.cif
#   From: 2010.05.17/outbox.cif.g08.bks.cpg/sg71_8_cif.got.tgz:15244.got - 2010.06.03 16:22:01.
