data_PCOD9519057
_publ_section_title
;
Structure prediction by ZEFSAII (Michael W. Deem and Ramdas Pophale) SiO2 
 PCOD9519057
Probable space group: I M M M
;
_chemical_formula_sum "Si O2"
_cell_formula_units_Z 80
_cell_length_a 7.980224
_cell_length_b 28.974567
_cell_length_c 21.242428
_cell_angle_alpha 90.000000
_cell_angle_beta 90.000000
_cell_angle_gamma 90.000000
_cell_volume 4911.749293
_symmetry_space_group_name_H-M "I M M M"
_symmetry_group_IT_number 71
_symmetry_cell_setting 'orthorhombic'
loop_
_space_group_symop_operation_xyz
x,y,z
-x,-y,z
x,-y,-z
-x,y,-z
-x,-y,-z
x,y,-z
-x,y,z
x,-y,z
1/2+x,1/2+y,1/2+z
1/2-x,1/2-y,1/2+z
1/2+x,1/2-y,1/2-z
1/2-x,1/2+y,1/2-z
1/2-x,1/2-y,1/2-z
1/2+x,1/2+y,1/2-z
1/2-x,1/2+y,1/2+z
1/2+x,1/2-y,1/2+z
loop_
_atom_site_type_symbol
_atom_site_label
_atom_site_fract_x
_atom_site_fract_y
_atom_site_fract_z
Si Si1 0.187942 0.855938 0.907726
Si Si2 0.500000 0.079057 0.932199
Si Si3 0.201324 0.747683 0.430615
Si Si4 0.187215 0.881890 0.237353
Si Si5 0.303165 0.209594 0.298835
Si Si6 0.000000 0.446788 0.286796
O O1 0.334902 0.888885 0.931221
O O2 0.224563 0.803776 0.927142
O O3 0.194749 0.859277 0.832143
O O4 0.000000 0.869673 0.926920
O O5 0.500000 0.054630 0.863889
O O6 0.500000 0.053907 0.000000
O O7 0.242476 0.767217 0.500000
O O8 0.266252 0.774683 0.369900
O O9 0.000000 0.744144 0.425767
O O10 0.215248 0.838848 0.283518
O O11 0.335863 0.919272 0.237382
O O12 0.000000 0.901585 0.245784
O O13 0.500000 0.202571 0.289668
O O14 0.250000 0.250000 0.250000
O O15 0.000000 0.500000 0.267217
#
# Coordination Sequence:
#
# PCOD9519057 Si02
#       6
#    16   8  16  16  16   8
#     4  10  19  31  48  70 100 140 181 223 263 311
#     4  10  20  33  50  72 102 137 179 228 278 322
#     4  11  22  33  46  70 108 148 187 223 262 312
#     4  10  20  36  55  79 105 135 179 225 274 327
#     4  12  22  33  52  78 109 147 186 224 267 325
#     4  10  22  39  58  78 103 134 180 237 285 328
#
# _framework density 16.287476000000002
#
# number of rings (size 3 to 8) (size 9 to 14) (size 15 to 20)
#    0.000    1.400    4.000    3.000    0.000    3.400 
#    0.000    0.000    0.000    0.000    0.000    5.600 
#    0.000    1.600    0.000    4.200    0.000    0.000 
#
# Total GULP energy -223210.570386 kJ/mol
# GULP energy per Si atom -5580.264260 kJ/mol
# Density = 1.625040 g / cm^3
# Si number density = 16.287476 Si / 1000 Ang^3
#
#
#
# Elastic Constant Matrix: (Units=GPa)
#
#
# Indices 1 2 3 4 5 6 
#
# 1 113.0444 33.6971 17.0164 0.0000 0.0000 0.0000
# 2 33.6971 84.7867 32.1409 0.0000 0.0000 0.0000
# 3 17.0164 32.1409 72.1195 0.0000 0.0000 0.0000
# 4 0.0000 0.0000 0.0000 -35.0520 0.0000 0.0000
# 5 0.0000 0.0000 0.0000 0.0000 93.7089 0.0000
# 6 0.0000 0.0000 0.0000 0.0000 0.0000 9.6761
#
#
#
# Elastic Compliance Matrix: (Units=1/GPa)
#
#
# Indices 1 2 3 4 5 6 
#
# 1 0.010065 -0.003730 -0.000712 0.000000 0.000000 0.000000
# 2 -0.003730 0.015574 -0.006061 0.000000 0.000000 0.000000
# 3 -0.000712 -0.006061 0.016735 0.000000 0.000000 0.000000
# 4 0.000000 0.000000 0.000000 -0.028529 0.000000 0.000000
# 5 0.000000 0.000000 0.000000 0.000000 0.010671 0.000000
# 6 0.000000 0.000000 0.000000 0.000000 0.000000 0.103347
#
#
# Mechanical properties :
#
#
# Convention : Reuss Voigt Hill
#
# Bulk Modulus (GPa) = 46.79944 48.40660 47.60302
# Shear Modulus (GPa) = 32.05269 26.13971 29.09620
#
# Velocity S-wave (km/s) = 4.44095 4.01046 4.23119
# Velocity P-wave (km/s) = 7.42239 7.15749 7.29114
#
# Compressibility (1/GPa) = 0.02136778
#
# Stress axis : x y z
#
# Youngs Moduli (GPa) = 99.35180 64.20829 59.75492
#
# Poissons Ratio (x) = 0.23951 0.04257
# Poissons Ratio (y) = 0.37060 0.36216
# Poissons Ratio (z) = 0.07078 0.38915
#
# Static dielectric constant tensor:
#      x y z
#    x 1.573820 0.000000 0.000000 
#    y 0.000000 1.507520 0.000000 
#    z 0.000000 0.000000 1.576640 
# 
# From -- ./inp_files/42387.got.cif
#   From: 2010.05.17/outbox.cif.g08.bks.cpg/sg71_22_cif.got.tgz:42387.got - 2010.06.03 16:22:01.
