data_PCOD9519967
_publ_section_title
;
Structure prediction by ZEFSAII (Michael W. Deem and Ramdas Pophale) SiO2 
 PCOD9519967
Probable space group: I M M M
;
_chemical_formula_sum "Si O2"
_cell_formula_units_Z 88
_cell_length_a 21.710843
_cell_length_b 13.536905
_cell_length_c 17.026368
_cell_angle_alpha 90.000000
_cell_angle_beta 90.000000
_cell_angle_gamma 90.000000
_cell_volume 5004.009018
_symmetry_space_group_name_H-M "I M M M"
_symmetry_group_IT_number 71
_symmetry_cell_setting 'orthorhombic'
loop_
_space_group_symop_operation_xyz
x,y,z
-x,-y,z
x,-y,-z
-x,y,-z
-x,-y,-z
x,y,-z
-x,y,z
x,-y,z
1/2+x,1/2+y,1/2+z
1/2-x,1/2-y,1/2+z
1/2+x,1/2-y,1/2-z
1/2-x,1/2+y,1/2-z
1/2-x,1/2-y,1/2-z
1/2+x,1/2+y,1/2-z
1/2-x,1/2+y,1/2+z
1/2+x,1/2-y,1/2+z
loop_
_atom_site_type_symbol
_atom_site_label
_atom_site_fract_x
_atom_site_fract_y
_atom_site_fract_z
Si Si1 0.000000 0.882763 0.818757
Si Si2 0.425680 0.116794 0.500000
Si Si3 0.500000 0.383080 0.869927
Si Si4 0.236511 0.886545 0.908228
Si Si5 0.365274 0.381814 0.088059
Si Si6 0.686711 0.227648 0.793924
Si Si7 0.381377 0.745147 0.360016
O O1 0.000000 0.871368 0.724002
O O2 0.939273 0.828689 0.851209
O O3 0.000000 0.000000 0.836083
O O4 0.500000 0.128239 0.500000
O O5 0.398389 0.171702 0.576536
O O6 0.411637 0.000000 0.500000
O O7 0.500000 0.500000 0.887180
O O8 0.563856 0.346439 0.905260
O O9 0.295040 0.857655 0.854915
O O10 0.178311 0.816792 0.888267
O O11 0.218873 0.000000 0.893137
O O12 0.251261 0.875127 0.000000
O O13 0.363303 0.500000 0.101635
O O14 0.329936 0.323152 0.154588
O O15 0.341910 0.363100 0.000000
O O16 0.750000 0.250000 0.750000
O O17 0.636147 0.212072 0.726141
#
# Coordination Sequence:
#
# PCOD9519967 Si02
#       7
#     8   8   8  16  16  16  16
#     4  11  20  32  58  92 123 148 185 239 292 347
#     4  11  24  42  62  84 116 152 188 235 286 351
#     4   9  17  30  52  86 118 148 181 220 285 344
#     4  10  21  38  59  82 113 148 188 239 289 336
#     4  10  19  33  55  85 120 153 185 227 281 346
#     4  10  22  35  55  78 112 151 194 235 277 335
#     4  11  21  39  60  86 115 150 192 237 289 351
#
# _framework density 17.585899999999999
#
# number of rings (size 3 to 8) (size 9 to 14) (size 15 to 20)
#    0.000    1.727    3.636    1.364    0.000    4.727 
#    0.000    3.182    0.000    0.000    0.000    0.000 
#    0.000    4.364    0.000    0.000    0.000    0.000 
#
# Total GULP energy -245352.708100 kJ/mol
# GULP energy per Si atom -5576.197911 kJ/mol
# Density = 1.754587 g / cm^3
# Si number density = 17.585900 Si / 1000 Ang^3
#
#
#
# Elastic Constant Matrix: (Units=GPa)
#
#
# Indices 1 2 3 4 5 6 
#
# 1 74.6292 47.7132 58.1495 0.0000 0.0000 0.0000
# 2 47.7132 99.1511 70.8803 0.0000 0.0000 0.0000
# 3 58.1495 70.8803 128.9434 0.0000 0.0000 0.0000
# 4 0.0000 0.0000 0.0000 19.5581 0.0000 0.0000
# 5 0.0000 0.0000 0.0000 0.0000 22.8529 0.0000
# 6 0.0000 0.0000 0.0000 0.0000 0.0000 24.6943
#
#
#
# Elastic Compliance Matrix: (Units=1/GPa)
#
#
# Indices 1 2 3 4 5 6 
#
# 1 0.022581 -0.005908 -0.006935 0.000000 0.000000 0.000000
# 2 -0.005908 0.018161 -0.007318 0.000000 0.000000 0.000000
# 3 -0.006935 -0.007318 0.014906 0.000000 0.000000 0.000000
# 4 0.000000 0.000000 0.000000 0.051130 0.000000 0.000000
# 5 0.000000 0.000000 0.000000 0.000000 0.043758 0.000000
# 6 0.000000 0.000000 0.000000 0.000000 0.000000 0.040495
#
#
# Mechanical properties :
#
#
# Convention : Reuss Voigt Hill
#
# Bulk Modulus (GPa) = 65.26134 72.91219 69.08677
# Shear Modulus (GPa) = 21.14500 21.81978 21.48239
#
# Velocity S-wave (km/s) = 3.47130 3.52626 3.49889
# Velocity P-wave (km/s) = 7.29775 7.62430 7.46281
#
# Compressibility (1/GPa) = 0.01532301
#
# Stress axis : x y z
#
# Youngs Moduli (GPa) = 44.28502 55.06452 67.08735
#
# Poissons Ratio (x) = 0.32534 0.46528
# Poissons Ratio (y) = 0.26165 0.49097
# Poissons Ratio (z) = 0.30714 0.40298
#
# Static dielectric constant tensor:
#      x y z
#    x 1.598120 0.000000 0.000000 
#    y 0.000000 1.577750 0.000000 
#    z 0.000000 0.000000 1.629140 
# 
# From -- ./inp_files/47132.got.cif
#   From: 2010.05.17/outbox.cif.g08.bks.cpg/sg71_24_cif.got.tgz:47132.got - 2010.06.03 16:22:01.
