data_PCOD9519839
_publ_section_title
;
Structure prediction by ZEFSAII (Michael W. Deem and Ramdas Pophale) SiO2 
 PCOD9519839
Probable space group: I M M M
;
_chemical_formula_sum "Si O2"
_cell_formula_units_Z 80
_cell_length_a 23.863197
_cell_length_b 7.585399
_cell_length_c 21.021103
_cell_angle_alpha 90.000000
_cell_angle_beta 90.000000
_cell_angle_gamma 90.000000
_cell_volume 3805.069177
_symmetry_space_group_name_H-M "I M M M"
_symmetry_group_IT_number 71
_symmetry_cell_setting 'orthorhombic'
loop_
_space_group_symop_operation_xyz
x,y,z
-x,-y,z
x,-y,-z
-x,y,-z
-x,-y,-z
x,y,-z
-x,y,z
x,-y,z
1/2+x,1/2+y,1/2+z
1/2-x,1/2-y,1/2+z
1/2+x,1/2-y,1/2-z
1/2-x,1/2+y,1/2-z
1/2-x,1/2-y,1/2-z
1/2+x,1/2+y,1/2-z
1/2-x,1/2+y,1/2+z
1/2+x,1/2-y,1/2+z
loop_
_atom_site_type_symbol
_atom_site_label
_atom_site_fract_x
_atom_site_fract_y
_atom_site_fract_z
Si Si1 0.065130 0.216245 0.247555
Si Si2 0.869618 0.215389 0.625932
Si Si3 0.063856 0.785077 0.500000
Si Si4 0.246470 0.207694 0.427316
Si Si5 0.564112 0.212051 0.500000
Si Si6 0.633395 0.704919 0.625397
O O1 0.098854 0.272922 0.310359
O O2 0.099093 0.278097 0.185364
O O3 0.000000 0.271976 0.247577
O O4 0.064065 0.000000 0.246768
O O5 0.904164 0.269054 0.563530
O O6 0.805982 0.276691 0.613487
O O7 0.869768 0.000000 0.628659
O O8 0.000000 0.725583 0.500000
O O9 0.063748 0.000000 0.500000
O O10 0.249378 0.280296 0.500000
O O11 0.305476 0.223744 0.391857
O O12 0.235600 0.000000 0.434489
O O13 0.500000 0.271861 0.500000
O O14 0.595797 0.274416 0.437285
O O15 0.565412 0.000000 0.500000
O O16 0.642167 0.500000 0.638817
#
# Coordination Sequence:
#
# PCOD9519839 Si02
#       6
#    16  16   8  16   8  16
#     4   9  18  32  49  73 108 143 175 219 273 323
#     4   9  16  28  47  73 105 143 178 213 263 317
#     4   9  14  21  40  71 102 133 172 213 256 311
#     4  10  19  33  53  77 109 143 177 220 267 311
#     4  11  23  38  57  80 104 135 178 227 276 323
#     4  11  22  35  54  79 107 143 183 221 266 318
#
# _framework density 21.024584999999998
#
# number of rings (size 3 to 8) (size 9 to 14) (size 15 to 20)
#    0.000    2.200    2.000    2.100    0.000    4.800 
#    0.000    0.000    0.000    1.200    0.000    0.000 
#    0.000    3.200    0.000    0.000    0.000    0.200 
#
# Total GULP energy -223375.806727 kJ/mol
# GULP energy per Si atom -5584.395168 kJ/mol
# Density = 2.097673 g / cm^3
# Si number density = 21.024585 Si / 1000 Ang^3
#
#
#
# Elastic Constant Matrix: (Units=GPa)
#
#
# Indices 1 2 3 4 5 6 
#
# 1 229.2506 -6.4677 123.0986 0.0000 0.0000 0.0000
# 2 -6.4677 40.8193 -6.5851 0.0000 0.0000 0.0000
# 3 123.0986 -6.5851 210.1256 0.0000 0.0000 0.0000
# 4 0.0000 0.0000 0.0000 -3.7034 0.0000 0.0000
# 5 0.0000 0.0000 0.0000 0.0000 34.6054 0.0000
# 6 0.0000 0.0000 0.0000 0.0000 0.0000 -13.0711
#
#
#
# Elastic Compliance Matrix: (Units=1/GPa)
#
#
# Indices 1 2 3 4 5 6 
#
# 1 0.006371 0.000409 -0.003719 0.000000 0.000000 0.000000
# 2 0.000409 0.024649 0.000533 0.000000 0.000000 0.000000
# 3 -0.003719 0.000533 0.006955 0.000000 0.000000 0.000000
# 4 0.000000 0.000000 0.000000 -0.270023 0.000000 0.000000
# 5 0.000000 0.000000 0.000000 0.000000 0.028897 0.000000
# 6 0.000000 0.000000 0.000000 0.000000 0.000000 -0.076505
#
#
# Mechanical properties :
#
#
# Convention : Reuss Voigt Hill
#
# Bulk Modulus (GPa) = 30.84539 77.80967 54.32753
# Shear Modulus (GPa) = -18.99008 28.24284 4.62638
#
# Velocity S-wave (km/s) = -3.00864 3.66912 1.48500
# Velocity P-wave (km/s) = 1.62287 7.41884 5.36995
#
# Compressibility (1/GPa) = 0.03241976
#
# Stress axis : x y z
#
# Youngs Moduli (GPa) = 156.96769 40.56960 143.78815
#
# Poissons Ratio (x) = -0.01661 0.53480
# Poissons Ratio (y) = -0.06426 -0.07659
# Poissons Ratio (z) = 0.58382 -0.02161
#
# Static dielectric constant tensor:
#      x y z
#    x 1.727650 0.000000 0.000000 
#    y 0.000000 1.828730 0.000000 
#    z 0.000000 0.000000 1.717960 
# 
# From -- ./inp_files/55456.got.cif
#   From: 2010.05.17/outbox.cif.g08.bks.cpg/sg71_28_cif.got.tgz:55456.got - 2010.06.03 16:22:01.
