data_PCOD9519070
_publ_section_title
;
Structure prediction by ZEFSAII (Michael W. Deem and Ramdas Pophale) SiO2 
 PCOD9519070
Probable space group: I M M M
;
_chemical_formula_sum "Si O2"
_cell_formula_units_Z 92
_cell_length_a 7.549191
_cell_length_b 24.176132
_cell_length_c 29.239597
_cell_angle_alpha 90.000000
_cell_angle_beta 90.000000
_cell_angle_gamma 90.000000
_cell_volume 5336.525811
_symmetry_space_group_name_H-M "I M M M"
_symmetry_group_IT_number 71
_symmetry_cell_setting 'orthorhombic'
loop_
_space_group_symop_operation_xyz
x,y,z
-x,-y,z
x,-y,-z
-x,y,-z
-x,-y,-z
x,y,-z
-x,y,z
x,-y,z
1/2+x,1/2+y,1/2+z
1/2-x,1/2-y,1/2+z
1/2+x,1/2-y,1/2-z
1/2-x,1/2+y,1/2-z
1/2-x,1/2-y,1/2-z
1/2+x,1/2+y,1/2-z
1/2-x,1/2+y,1/2+z
1/2+x,1/2-y,1/2+z
loop_
_atom_site_type_symbol
_atom_site_label
_atom_site_fract_x
_atom_site_fract_y
_atom_site_fract_z
Si Si1 0.284828 0.124882 0.591330
Si Si2 0.704134 0.747367 0.575923
Si Si3 0.216468 0.563264 0.000000
Si Si4 0.290038 0.667527 0.761776
Si Si5 0.287085 0.936993 0.317455
Si Si6 0.000000 0.720791 0.500000
Si Si7 0.705214 0.765755 0.174390
O O1 0.500000 0.122604 0.592631
O O2 0.239449 0.189042 0.586560
O O3 0.224960 0.093959 0.545657
O O4 0.220395 0.093429 0.636508
O O5 0.500000 0.747880 0.559139
O O6 0.707268 0.720195 0.626287
O O7 0.843149 0.723435 0.540101
O O8 0.272370 0.500000 0.000000
O O9 0.000000 0.564125 0.000000
O O10 0.500000 0.676245 0.759910
O O11 0.253877 0.605041 0.776469
O O12 0.220069 0.710239 0.800774
O O13 0.218089 0.687336 0.713132
O O14 0.500000 0.939988 0.321060
O O15 0.221792 0.000000 0.313064
O O16 0.500000 0.755478 0.164096
#
# Coordination Sequence:
#
# PCOD9519070 Si02
#       7
#    16  16   8  16  16   4  16
#     4   9  17  29  45  65  90 125 174 225 272 315
#     4  11  21  35  54  75 103 138 178 224 275 327
#     4   9  15  24  39  60  83 114 165 224 271 309
#     4  10  20  32  51  75 102 134 172 219 272 327
#     4  10  19  31  48  71 100 135 174 221 272 323
#     4  12  24  36  50  76 109 140 177 228 276 332
#     4  10  19  34  54  77 101 131 172 223 273 325
#
# _framework density 17.239681000000001
#
# number of rings (size 3 to 8) (size 9 to 14) (size 15 to 20)
#    0.000    2.000    2.609    2.348    0.000    5.217 
#    0.000    0.000    0.000    0.000    0.000    1.826 
#    0.000    0.000    0.000    1.565    0.000    6.696 
#
# Total GULP energy -256212.719720 kJ/mol
# GULP energy per Si atom -5569.841733 kJ/mol
# Density = 1.720044 g / cm^3
# Si number density = 17.239681 Si / 1000 Ang^3
#
#
#
# Elastic Constant Matrix: (Units=GPa)
#
#
# Indices 1 2 3 4 5 6 
#
# 1 80.6717 -3.8605 18.9628 0.0000 0.0000 0.0000
# 2 -3.8605 37.4831 24.7089 0.0000 0.0000 0.0000
# 3 18.9628 24.7089 115.4695 0.0000 0.0000 0.0000
# 4 0.0000 0.0000 0.0000 12.9163 0.0000 0.0000
# 5 0.0000 0.0000 0.0000 0.0000 24.6819 0.0000
# 6 0.0000 0.0000 0.0000 0.0000 0.0000 11.0839
#
#
#
# Elastic Compliance Matrix: (Units=1/GPa)
#
#
# Indices 1 2 3 4 5 6 
#
# 1 0.013226 0.003253 -0.002868 0.000000 0.000000 0.000000
# 2 0.003253 0.031860 -0.007352 0.000000 0.000000 0.000000
# 3 -0.002868 -0.007352 0.010704 0.000000 0.000000 0.000000
# 4 0.000000 0.000000 0.000000 0.077421 0.000000 0.000000
# 5 0.000000 0.000000 0.000000 0.000000 0.040515 0.000000
# 6 0.000000 0.000000 0.000000 0.000000 0.000000 0.090221
#
#
# Mechanical properties :
#
#
# Convention : Reuss Voigt Hill
#
# Bulk Modulus (GPa) = 23.89137 34.80518 29.34827
# Shear Modulus (GPa) = 17.13304 22.65731 19.89517
#
# Velocity S-wave (km/s) = 3.15590 3.62920 3.40079
# Velocity P-wave (km/s) = 5.21230 6.14770 5.69922
#
# Compressibility (1/GPa) = 0.04185612
#
# Stress axis : x y z
#
# Youngs Moduli (GPa) = 75.61009 31.38733 93.41888
#
# Poissons Ratio (x) = -0.10210 0.26793
# Poissons Ratio (y) = -0.24594 0.68679
# Poissons Ratio (z) = 0.21685 0.23075
#
# Static dielectric constant tensor:
#      x y z
#    x 1.654520 0.000000 0.000000 
#    y 0.000000 1.576800 0.000000 
#    z 0.000000 0.000000 1.602070 
# 
# From -- ./inp_files/13192.got.cif
#   From: 2010.05.17/outbox.cif.g08.bks.cpg/sg71_7_cif.got.tgz:13192.got - 2010.06.03 16:22:01.
