data_PCOD9519834
_publ_section_title
;
Structure prediction by ZEFSAII (Michael W. Deem and Ramdas Pophale) SiO2 
 PCOD9519834
Probable space group: I M M M
;
_chemical_formula_sum "Si O2"
_cell_formula_units_Z 88
_cell_length_a 22.964804
_cell_length_b 24.217608
_cell_length_c 8.029723
_cell_angle_alpha 90.000000
_cell_angle_beta 90.000000
_cell_angle_gamma 90.000000
_cell_volume 4465.751493
_symmetry_space_group_name_H-M "I M M M"
_symmetry_group_IT_number 71
_symmetry_cell_setting 'orthorhombic'
loop_
_space_group_symop_operation_xyz
x,y,z
-x,-y,z
x,-y,-z
-x,y,-z
-x,-y,-z
x,y,-z
-x,y,z
x,-y,z
1/2+x,1/2+y,1/2+z
1/2-x,1/2-y,1/2+z
1/2+x,1/2-y,1/2-z
1/2-x,1/2+y,1/2-z
1/2-x,1/2-y,1/2-z
1/2+x,1/2+y,1/2-z
1/2-x,1/2+y,1/2+z
1/2+x,1/2-y,1/2+z
loop_
_atom_site_type_symbol
_atom_site_label
_atom_site_fract_x
_atom_site_fract_y
_atom_site_fract_z
Si Si1 0.626000 0.935375 0.302285
Si Si2 0.500000 0.064095 0.800964
Si Si3 0.566195 0.773639 0.500000
Si Si4 0.644017 0.640110 0.184432
Si Si5 0.766557 0.363793 0.691940
Si Si6 0.066968 0.861006 0.000000
Si Si7 0.353282 0.772986 0.807510
O O1 0.634363 0.931436 0.500000
O O2 0.561639 0.912967 0.259720
O O3 0.678497 0.903725 0.215170
O O4 0.627331 0.000000 0.252974
O O5 0.500000 0.000000 0.741465
O O6 0.500000 0.064931 0.000000
O O7 0.500000 0.793408 0.500000
O O8 0.565406 0.706314 0.500000
O O9 0.600588 0.790013 0.333242
O O10 0.709974 0.619239 0.205931
O O11 0.602153 0.622164 0.334280
O O12 0.650244 0.706838 0.197430
O O13 0.621410 0.627028 0.000000
O O14 0.747853 0.361799 0.500000
O O15 0.793351 0.303985 0.735863
O O16 0.000000 0.879828 0.000000
O O17 0.367985 0.788461 0.000000
#
# Coordination Sequence:
#
# PCOD9519834 Si02
#       7
#    16   8   8  16  16   8  16
#     4  10  21  36  53  74 100 133 175 223 269 314
#     4   9  17  33  55  73  93 129 175 221 271 317
#     4   9  18  32  50  68  97 139 177 216 263 302
#     4  10  19  33  53  77 106 138 171 213 257 305
#     4  11  21  34  51  75 103 133 174 217 263 312
#     4   9  18  34  52  76 105 136 173 209 248 303
#     4   9  20  33  48  73 101 135 174 217 260 309
#
# _framework density 19.705531000000001
#
# number of rings (size 3 to 8) (size 9 to 14) (size 15 to 20)
#    0.000    2.273    0.909    1.909    2.545    2.909 
#    1.636    3.636    0.000    0.000    0.000    0.000 
#    0.000    1.455    0.000    3.818    0.000    0.182 
#
# Total GULP energy -245585.455699 kJ/mol
# GULP energy per Si atom -5581.487630 kJ/mol
# Density = 1.966068 g / cm^3
# Si number density = 19.705531 Si / 1000 Ang^3
#
#
#
# Elastic Constant Matrix: (Units=GPa)
#
#
# Indices 1 2 3 4 5 6 
#
# 1 131.7099 6.8409 64.1780 0.0000 0.0000 0.0000
# 2 6.8409 20.4791 -5.4186 0.0000 0.0000 0.0000
# 3 64.1780 -5.4186 86.4564 0.0000 0.0000 0.0000
# 4 0.0000 0.0000 0.0000 13.3526 0.0000 0.0000
# 5 0.0000 0.0000 0.0000 0.0000 29.4101 0.0000
# 6 0.0000 0.0000 0.0000 0.0000 0.0000 19.6374
#
#
#
# Elastic Compliance Matrix: (Units=1/GPa)
#
#
# Indices 1 2 3 4 5 6 
#
# 1 0.012786 -0.006897 -0.009924 0.000000 0.000000 0.000000
# 2 -0.006897 0.053374 0.008465 0.000000 0.000000 0.000000
# 3 -0.009924 0.008465 0.019463 0.000000 0.000000 0.000000
# 4 0.000000 0.000000 0.000000 0.074892 0.000000 0.000000
# 5 0.000000 0.000000 0.000000 0.000000 0.034002 0.000000
# 6 0.000000 0.000000 0.000000 0.000000 0.000000 0.050923
#
#
# Mechanical properties :
#
#
# Convention : Reuss Voigt Hill
#
# Bulk Modulus (GPa) = 14.51122 41.09400 27.80261
# Shear Modulus (GPa) = 17.53632 24.01637 20.77635
#
# Velocity S-wave (km/s) = 2.98639 3.49487 3.25058
# Velocity P-wave (km/s) = 4.38992 6.09793 5.31301
#
# Compressibility (1/GPa) = 0.06891220
#
# Stress axis : x y z
#
# Youngs Moduli (GPa) = 78.20996 18.73578 51.37826
#
# Poissons Ratio (x) = 0.12922 0.50986
# Poissons Ratio (y) = 0.53940 -0.43491
# Poissons Ratio (z) = 0.77612 -0.15859
#
# Static dielectric constant tensor:
#      x y z
#    x 1.680540 0.000000 0.000000 
#    y 0.000000 1.705830 0.000000 
#    z 0.000000 0.000000 1.706620 
# 
# From -- ./inp_files/8922.got.cif
#   From: 2010.05.17/outbox.cif.g08.bks.cpg/sg71_5_cif.got.tgz:8922.got - 2010.06.03 16:22:01.
