data_PCOD9519000
_publ_section_title
;
Structure prediction by ZEFSAII (Michael W. Deem and Ramdas Pophale) SiO2 
 PCOD9519000
Probable space group: I M M M
;
_chemical_formula_sum "Si O2"
_cell_formula_units_Z 80
_cell_length_a 24.201353
_cell_length_b 26.649982
_cell_length_c 8.810185
_cell_angle_alpha 90.000000
_cell_angle_beta 90.000000
_cell_angle_gamma 90.000000
_cell_volume 5682.266447
_symmetry_space_group_name_H-M "I M M M"
_symmetry_group_IT_number 71
_symmetry_cell_setting 'orthorhombic'
loop_
_space_group_symop_operation_xyz
x,y,z
-x,-y,z
x,-y,-z
-x,y,-z
-x,-y,-z
x,y,-z
-x,y,z
x,-y,z
1/2+x,1/2+y,1/2+z
1/2-x,1/2-y,1/2+z
1/2+x,1/2-y,1/2-z
1/2-x,1/2+y,1/2-z
1/2-x,1/2-y,1/2-z
1/2+x,1/2+y,1/2-z
1/2-x,1/2+y,1/2+z
1/2+x,1/2-y,1/2+z
loop_
_atom_site_type_symbol
_atom_site_label
_atom_site_fract_x
_atom_site_fract_y
_atom_site_fract_z
Si Si1 0.816952 0.141863 0.818636
Si Si2 0.000000 0.782249 0.681258
Si Si3 0.500000 0.606020 0.680667
Si Si4 0.609259 0.558285 0.180179
Si Si5 0.785155 0.296051 0.317999
Si Si6 0.615434 0.744698 0.681582
O O1 0.841586 0.094689 0.731998
O O2 0.753450 0.156123 0.782792
O O3 0.854489 0.191138 0.783025
O O4 0.821418 0.134063 0.000000
O O5 0.944629 0.756693 0.744634
O O6 0.000000 0.782460 0.500000
O O7 0.000000 0.839330 0.742590
O O8 0.500000 0.612441 0.500000
O O9 0.445637 0.576596 0.733778
O O10 0.620232 0.500000 0.213688
O O11 0.599993 0.563504 0.000000
O O12 0.787988 0.291376 0.500000
O O13 0.750000 0.250000 0.250000
O O14 0.845252 0.288441 0.246554
O O15 0.612027 0.748224 0.500000
#
# Coordination Sequence:
#
# PCOD9519000 Si02
#       6
#    16   8   8  16  16  16
#     4   9  18  31  47  64  85 112 144 182 223 267
#     4  12  22  31  47  66  88 119 149 185 226 261
#     4  12  23  35  48  61  82 114 152 191 233 273
#     4  11  23  35  47  64  85 112 151 194 232 269
#     4   9  17  29  45  65  87 110 141 179 219 265
#     4  10  19  31  46  66  89 113 145 180 218 267
#
# _framework density 14.078889
#
# number of rings (size 3 to 8) (size 9 to 14) (size 15 to 20)
#    0.000    1.800    2.000    5.100    0.000    6.800 
#    0.000    0.000    0.000    0.000    0.000    0.000 
#    0.000    0.000    0.000    0.900    0.000   16.800 
#
# Total GULP energy -223142.221017 kJ/mol
# GULP energy per Si atom -5578.555525 kJ/mol
# Density = 1.404684 g / cm^3
# Si number density = 14.078889 Si / 1000 Ang^3
#
#
#
# Elastic Constant Matrix: (Units=GPa)
#
#
# Indices 1 2 3 4 5 6 
#
# 1 122.7046 56.3108 61.9661 0.0000 0.0000 0.0000
# 2 56.3108 53.5782 38.5993 0.0000 0.0000 0.0000
# 3 61.9661 38.5993 76.3676 0.0000 0.0000 0.0000
# 4 0.0000 0.0000 0.0000 18.9736 0.0000 0.0000
# 5 0.0000 0.0000 0.0000 0.0000 26.7418 0.0000
# 6 0.0000 0.0000 0.0000 0.0000 0.0000 4.4627
#
#
#
# Elastic Compliance Matrix: (Units=1/GPa)
#
#
# Indices 1 2 3 4 5 6 
#
# 1 0.018487 -0.013561 -0.008146 0.000000 0.000000 0.000000
# 2 -0.013561 0.039300 -0.008860 0.000000 0.000000 0.000000
# 3 -0.008146 -0.008860 0.024183 0.000000 0.000000 0.000000
# 4 0.000000 0.000000 0.000000 0.052705 0.000000 0.000000
# 5 0.000000 0.000000 0.000000 0.000000 0.037395 0.000000
# 6 0.000000 0.000000 0.000000 0.000000 0.000000 0.224080
#
#
# Mechanical properties :
#
#
# Convention : Reuss Voigt Hill
#
# Bulk Modulus (GPa) = 47.99652 62.93366 55.46509
# Shear Modulus (GPa) = 10.77053 16.42057 13.59555
#
# Velocity S-wave (km/s) = 2.76889 3.41886 3.11089
# Velocity P-wave (km/s) = 6.66239 7.77062 7.23775
#
# Compressibility (1/GPa) = 0.02083484
#
# Stress axis : x y z
#
# Youngs Moduli (GPa) = 54.09260 25.44526 41.35132
#
# Poissons Ratio (x) = 0.34506 0.33686
# Poissons Ratio (y) = 0.73354 0.36639
# Poissons Ratio (z) = 0.44066 0.22545
#
# Static dielectric constant tensor:
#      x y z
#    x 1.461500 0.000000 0.000000 
#    y 0.000000 1.443240 0.000000 
#    z 0.000000 0.000000 1.467880 
# 
# From -- ./inp_files/10299.got.cif
#   From: 2010.05.17/outbox.cif.g08.bks.cpg/sg71_6_cif.got.tgz:10299.got - 2010.06.03 16:22:01.
