data_PCOD9519357
_publ_section_title
;
Structure prediction by ZEFSAII (Michael W. Deem and Ramdas Pophale) SiO2 
 PCOD9519357
Probable space group: I M M M
;
_chemical_formula_sum "Si O2"
_cell_formula_units_Z 128
_cell_length_a 16.667268
_cell_length_b 24.479525
_cell_length_c 18.229993
_cell_angle_alpha 90.000000
_cell_angle_beta 90.000000
_cell_angle_gamma 90.000000
_cell_volume 7437.961175
_symmetry_space_group_name_H-M "I M M M"
_symmetry_group_IT_number 71
_symmetry_cell_setting 'orthorhombic'
loop_
_space_group_symop_operation_xyz
x,y,z
-x,-y,z
x,-y,-z
-x,y,-z
-x,-y,-z
x,y,-z
-x,y,z
x,-y,z
1/2+x,1/2+y,1/2+z
1/2-x,1/2-y,1/2+z
1/2+x,1/2-y,1/2-z
1/2-x,1/2+y,1/2-z
1/2-x,1/2-y,1/2-z
1/2+x,1/2+y,1/2-z
1/2-x,1/2+y,1/2+z
1/2+x,1/2-y,1/2+z
loop_
_atom_site_type_symbol
_atom_site_label
_atom_site_fract_x
_atom_site_fract_y
_atom_site_fract_z
Si Si1 0.592612 0.652812 0.412924
Si Si2 0.175145 0.561954 0.777202
Si Si3 0.592445 0.172692 0.707823
Si Si4 0.906794 0.127924 0.327103
Si Si5 0.787364 0.062779 0.582452
Si Si6 0.159424 0.063569 0.806201
Si Si7 0.175389 0.242931 0.694397
Si Si8 0.190651 0.264517 0.086394
O O1 0.592199 0.643105 0.500000
O O2 0.500000 0.657696 0.387732
O O3 0.635667 0.603600 0.371393
O O4 0.639813 0.709166 0.400418
O O5 0.144641 0.500000 0.769315
O O6 0.112259 0.610389 0.772233
O O7 0.218443 0.566723 0.856553
O O8 0.248240 0.570191 0.719736
O O9 0.500000 0.180402 0.688021
O O10 0.615331 0.210644 0.777410
O O11 0.648651 0.190997 0.639312
O O12 0.856631 0.104769 0.395432
O O13 0.892731 0.083400 0.263285
O O14 0.866490 0.184170 0.299907
O O15 0.000000 0.135696 0.342190
O O16 0.758444 0.072352 0.500000
O O17 0.817733 0.000000 0.586954
O O18 0.145405 0.000000 0.822213
O O19 0.250000 0.250000 0.750000
O O20 0.219016 0.245570 0.615631
O O21 0.188193 0.277770 0.000000
#
# Coordination Sequence:
#
# PCOD9519357 Si02
#       8
#    16  16  16  16  16  16  16  16
#     4  10  20  32  47  71 102 129 155 195 246 294
#     4   9  19  35  53  73  96 126 166 205 241 287
#     4  11  21  33  53  78 104 131 161 204 255 304
#     4  11  21  31  46  70  98 125 158 203 250 289
#     4   9  18  33  51  69  94 132 172 204 235 279
#     4  10  19  32  50  69  94 130 168 201 234 284
#     4  10  20  34  52  72  96 130 169 205 244 294
#     4  10  20  35  55  75  98 132 172 207 241 291
#
# _framework density 17.209018
#
# number of rings (size 3 to 8) (size 9 to 14) (size 15 to 20)
#    0.000    2.000    0.000    7.500    0.000    5.250 
#    0.000    1.250    0.000    1.125    0.000    2.625 
#    0.000    0.000    0.000   10.750    0.000    0.000 
#
# Total GULP energy -357033.634016 kJ/mol
# GULP energy per Si atom -5578.650531 kJ/mol
# Density = 1.716985 g / cm^3
# Si number density = 17.209018 Si / 1000 Ang^3
#
#
#
# Elastic Constant Matrix: (Units=GPa)
#
#
# Indices 1 2 3 4 5 6 
#
# 1 28.2215 17.1172 8.2517 0.0000 0.0000 0.0000
# 2 17.1172 96.2307 24.4562 0.0000 0.0000 0.0000
# 3 8.2517 24.4562 36.3142 -0.0001 0.0000 0.0000
# 4 0.0000 0.0000 -0.0001 25.4111 0.0000 0.0000
# 5 0.0000 0.0000 0.0000 0.0000 9.9673 0.0000
# 6 0.0000 0.0000 0.0000 0.0000 0.0000 0.7297
#
#
#
# Elastic Compliance Matrix: (Units=1/GPa)
#
#
# Indices 1 2 3 4 5 6 
#
# 1 0.040533 -0.005875 -0.005254 0.000000 0.000000 0.000000
# 2 -0.005875 0.013389 -0.007682 0.000000 0.000000 0.000000
# 3 -0.005254 -0.007682 0.033905 0.000000 0.000000 0.000000
# 4 0.000000 0.000000 0.000000 0.039353 0.000000 0.000000
# 5 0.000000 0.000000 0.000000 0.000000 0.100328 0.000000
# 6 0.000000 0.000000 0.000000 0.000000 0.000000 1.370430
#
#
# Mechanical properties :
#
#
# Convention : Reuss Voigt Hill
#
# Bulk Modulus (GPa) = 19.91804 28.93516 24.42660
# Shear Modulus (GPa) = 3.02609 14.61770 8.82190
#
# Velocity S-wave (km/s) = 1.32750 2.91764 2.26659
# Velocity P-wave (km/s) = 3.73483 5.31043 4.59073
#
# Compressibility (1/GPa) = 0.05020575
#
# Stress axis : x y z
#
# Youngs Moduli (GPa) = 24.67099 74.68826 29.49424
#
# Poissons Ratio (x) = 0.43877 0.15496
# Poissons Ratio (y) = 0.14493 0.22658
# Poissons Ratio (z) = 0.12962 0.57376
#
# Static dielectric constant tensor:
#      x y z
#    x 1.573980 0.000000 0.000000 
#    y 0.000000 1.594320 0.000000 
#    z 0.000000 0.000000 1.596660 
# 
# From -- ./inp_files/46667.got.cif
#   From: 2010.05.17/outbox.cif.g08.bks.cpg/sg71_24_cif.got.tgz:46667.got - 2010.06.03 16:22:01.
