data_PCOD9519927
_publ_section_title
;
Structure prediction by ZEFSAII (Michael W. Deem and Ramdas Pophale) SiO2 
 PCOD9519927
Probable space group: I M M M
;
_chemical_formula_sum "Si O2"
_cell_formula_units_Z 72
_cell_length_a 15.667479
_cell_length_b 27.159914
_cell_length_c 7.479278
_cell_angle_alpha 90.000000
_cell_angle_beta 90.000000
_cell_angle_gamma 90.000000
_cell_volume 3182.637588
_symmetry_space_group_name_H-M "I M M M"
_symmetry_group_IT_number 71
_symmetry_cell_setting 'orthorhombic'
loop_
_space_group_symop_operation_xyz
x,y,z
-x,-y,z
x,-y,-z
-x,y,-z
-x,-y,-z
x,y,-z
-x,y,z
x,-y,z
1/2+x,1/2+y,1/2+z
1/2-x,1/2-y,1/2+z
1/2+x,1/2-y,1/2-z
1/2-x,1/2+y,1/2-z
1/2-x,1/2-y,1/2-z
1/2+x,1/2+y,1/2-z
1/2-x,1/2+y,1/2+z
1/2+x,1/2-y,1/2+z
loop_
_atom_site_type_symbol
_atom_site_label
_atom_site_fract_x
_atom_site_fract_y
_atom_site_fract_z
Si Si1 0.500000 0.698779 0.217598
Si Si2 0.814370 0.055118 0.218934
Si Si3 0.154144 0.732578 0.286223
Si Si4 0.500000 0.943986 0.713649
Si Si5 0.000000 0.915887 0.207069
Si Si6 0.336943 0.877420 0.211130
O O1 0.583428 0.728929 0.278981
O O2 0.500000 0.643104 0.283978
O O3 0.500000 0.696260 0.000000
O O4 0.747596 0.095939 0.283429
O O5 0.910559 0.065001 0.282601
O O6 0.786763 0.000000 0.268554
O O7 0.814859 0.057137 0.000000
O O8 0.141453 0.730999 0.500000
O O9 0.250000 0.750000 0.250000
O O10 0.143993 0.676920 0.215615
O O11 0.500000 0.946139 0.500000
O O12 0.583474 0.913767 0.769120
O O13 0.500000 0.000000 0.782798
O O14 0.000000 0.931942 0.000000
O O15 0.321711 0.870518 0.000000
#
# Coordination Sequence:
#
# PCOD9519927 Si02
#       6
#     8  16  16   8   8  16
#     4  10  21  36  52  74 110 147 174 210 264 316
#     4   9  17  30  52  82 109 133 168 217 267 310
#     4  10  21  37  57  82 111 143 180 223 269 319
#     4  11  24  39  55  80 112 143 180 230 285 333
#     4  10  19  33  55  80 106 137 176 218 255 303
#     4  10  20  36  58  81 107 143 185 223 265 325
#
# _framework density 22.622745999999999
#
# number of rings (size 3 to 8) (size 9 to 14) (size 15 to 20)
#    0.000    2.111    0.000    3.333    0.000    8.444 
#    0.000    2.222    0.000    2.667    0.000    0.000 
#    0.000    0.000    0.000    0.000    0.000    0.000 
#
# Total GULP energy -201276.274346 kJ/mol
# GULP energy per Si atom -5591.007621 kJ/mol
# Density = 2.257126 g / cm^3
# Si number density = 22.622746 Si / 1000 Ang^3
#
#
#
# Elastic Constant Matrix: (Units=GPa)
#
#
# Indices 1 2 3 4 5 6 
#
# 1 80.4633 -4.3980 -18.6299 -0.0002 -0.0001 -0.0009
# 2 -4.3980 103.5783 -12.6583 -0.0037 -0.0002 -0.0007
# 3 -18.6299 -12.6583 62.9580 -0.0295 -0.0040 0.0031
# 4 -0.0002 -0.0037 -0.0295 15.8245 -0.0015 0.0008
# 5 -0.0001 -0.0002 -0.0040 -0.0015 -4.4652 -0.0010
# 6 -0.0009 -0.0007 0.0031 0.0008 -0.0010 35.5316
#
#
#
# Elastic Compliance Matrix: (Units=1/GPa)
#
#
# Indices 1 2 3 4 5 6 
#
# 1 0.013460 0.001085 0.004201 0.000008 -0.000004 0.000000
# 2 0.001085 0.009985 0.002329 0.000007 -0.000003 0.000000
# 3 0.004201 0.002329 0.017595 0.000033 -0.000016 -0.000001
# 4 0.000008 0.000007 0.000033 0.063193 -0.000021 -0.000001
# 5 -0.000004 -0.000003 -0.000016 -0.000021 -0.223956 -0.000006
# 6 0.000000 0.000000 -0.000001 -0.000001 -0.000006 0.028144
#
#
# Mechanical properties :
#
#
# Convention : Reuss Voigt Hill
#
# Bulk Modulus (GPa) = 17.77162 19.51415 18.64288
# Shear Modulus (GPa) = -56.78472 28.22390 -14.28041
#
# Velocity S-wave (km/s) = -5.01550 3.53596 -2.51518
# Velocity P-wave (km/s) = 5.06632 5.03143 0.41971
#
# Compressibility (1/GPa) = 0.05626950
#
# Stress axis : x y z
#
# Youngs Moduli (GPa) = 74.29418 100.14836 56.83443
#
# Poissons Ratio (x) = -0.10865 -0.23877
# Poissons Ratio (y) = -0.08060 -0.13235
# Poissons Ratio (z) = -0.31212 -0.23321
#
# Static dielectric constant tensor:
#      x y z
#    x 1.791440 0.000000 0.000000 
#    y 0.000000 1.790430 0.000000 
#    z 0.000000 0.000000 1.878480 
# 
# From -- ./inp_files/6115.got.cif
#   From: 2010.05.17/outbox.cif.g08.bks.cpg/sg71_4_cif.got.tgz:6115.got - 2010.06.03 16:22:01.
