data_PCOD9519397
_publ_section_title
;
Structure prediction by ZEFSAII (Michael W. Deem and Ramdas Pophale) SiO2 
 PCOD9519397
Probable space group: I M M M
;
_chemical_formula_sum "Si O2"
_cell_formula_units_Z 80
_cell_length_a 8.042198
_cell_length_b 20.481973
_cell_length_c 28.417282
_cell_angle_alpha 90.000000
_cell_angle_beta 90.000000
_cell_angle_gamma 90.000000
_cell_volume 4680.897030
_symmetry_space_group_name_H-M "I M M M"
_symmetry_group_IT_number 71
_symmetry_cell_setting 'orthorhombic'
loop_
_space_group_symop_operation_xyz
x,y,z
-x,-y,z
x,-y,-z
-x,y,-z
-x,-y,-z
x,y,-z
-x,y,z
x,-y,z
1/2+x,1/2+y,1/2+z
1/2-x,1/2-y,1/2+z
1/2+x,1/2-y,1/2-z
1/2-x,1/2+y,1/2-z
1/2-x,1/2-y,1/2-z
1/2+x,1/2+y,1/2-z
1/2-x,1/2+y,1/2+z
1/2+x,1/2-y,1/2+z
loop_
_atom_site_type_symbol
_atom_site_label
_atom_site_fract_x
_atom_site_fract_y
_atom_site_fract_z
Si Si1 0.500000 0.264151 0.553738
Si Si2 0.683975 0.766076 0.885343
Si Si3 0.687970 0.391839 0.881761
Si Si4 0.194674 0.806678 0.214365
Si Si5 0.000000 0.604996 0.945644
Si Si6 0.302100 0.925569 0.277463
O O1 0.500000 0.285811 0.500000
O O2 0.665412 0.285565 0.580945
O O3 0.500000 0.184558 0.553758
O O4 0.500000 0.781009 0.903968
O O5 0.694799 0.687318 0.879529
O O6 0.708546 0.797780 0.834288
O O7 0.500000 0.410219 0.896109
O O8 0.834019 0.414364 0.916936
O O9 0.724624 0.416084 0.829148
O O10 0.250000 0.750000 0.250000
O O11 0.228436 0.874250 0.240870
O O12 0.000000 0.798700 0.204185
O O13 0.000000 0.583284 0.000000
O O14 0.500000 0.913580 0.281761
O O15 0.275535 0.000000 0.262326
#
# Coordination Sequence:
#
# PCOD9519397 Si02
#       6
#     8  16  16  16   8  16
#     4   9  18  32  50  75 109 145 177 223 277 321
#     4  10  19  32  50  78 108 138 182 224 264 322
#     4  10  19  32  52  74 101 138 179 223 271 324
#     4  12  22  33  53  80 109 144 184 227 268 324
#     4   9  18  32  51  74 103 135 178 232 279 319
#     4  11  23  37  53  76 108 144 182 224 274 330
#
# _framework density 17.090741000000001
#
# number of rings (size 3 to 8) (size 9 to 14) (size 15 to 20)
#    0.000    1.600    4.000    2.400    0.000    2.400 
#    0.000    4.000    0.000    1.200    0.000    1.400 
#    0.000    1.600    0.000    4.200    0.000    0.200 
#
# Total GULP energy -223395.048507 kJ/mol
# GULP energy per Si atom -5584.876213 kJ/mol
# Density = 1.705184 g / cm^3
# Si number density = 17.090741 Si / 1000 Ang^3
#
#
#
# Elastic Constant Matrix: (Units=GPa)
#
#
# Indices 1 2 3 4 5 6 
#
# 1 136.8614 27.8477 48.6977 0.0000 0.0000 0.0000
# 2 27.8477 34.4653 20.8395 0.0000 0.0000 0.0000
# 3 48.6977 20.8395 102.7313 0.0000 0.0000 0.0000
# 4 0.0000 0.0000 0.0000 3.2447 0.0000 0.0000
# 5 0.0000 0.0000 0.0000 0.0000 22.3310 0.0000
# 6 0.0000 0.0000 0.0000 0.0000 0.0000 13.5260
#
#
#
# Elastic Compliance Matrix: (Units=1/GPa)
#
#
# Indices 1 2 3 4 5 6 
#
# 1 0.009699 -0.005764 -0.003429 0.000000 0.000000 0.000000
# 2 -0.005764 0.036496 -0.004671 0.000000 0.000000 0.000000
# 3 -0.003429 -0.004671 0.012307 0.000000 0.000000 0.000000
# 4 0.000000 0.000000 0.000000 0.308195 0.000000 0.000000
# 5 0.000000 0.000000 0.000000 0.000000 0.044781 0.000000
# 6 0.000000 0.000000 0.000000 0.000000 0.000000 0.073932
#
#
# Mechanical properties :
#
#
# Convention : Reuss Voigt Hill
#
# Bulk Modulus (GPa) = 32.49355 52.09197 42.29276
# Shear Modulus (GPa) = 9.55298 19.59854 14.57576
#
# Velocity S-wave (km/s) = 2.36679 3.39002 2.92352
# Velocity P-wave (km/s) = 5.15001 6.77265 6.01629
#
# Compressibility (1/GPa) = 0.03077534
#
# Stress axis : x y z
#
# Youngs Moduli (GPa) = 103.09893 27.39997 81.25501
#
# Poissons Ratio (x) = 0.15793 0.27859
# Poissons Ratio (y) = 0.59426 0.37956
# Poissons Ratio (z) = 0.35348 0.12799
#
# Static dielectric constant tensor:
#      x y z
#    x 1.610210 0.000000 0.000000 
#    y 0.000000 1.563580 0.000000 
#    z 0.000000 0.000000 1.552170 
# 
# From -- ./inp_files/12394.got.cif
#   From: 2010.05.17/outbox.cif.g08.bks.cpg/sg71_7_cif.got.tgz:12394.got - 2010.06.03 16:22:01.
