data_PCOD9519891
_publ_section_title
;
Structure prediction by ZEFSAII (Michael W. Deem and Ramdas Pophale) SiO2 
 PCOD9519891
Probable space group: I M M M
;
_chemical_formula_sum "Si O2"
_cell_formula_units_Z 104
_cell_length_a 21.336920
_cell_length_b 8.989010
_cell_length_c 29.262310
_cell_angle_alpha 90.000000
_cell_angle_beta 90.000000
_cell_angle_gamma 90.000000
_cell_volume 5612.446308
_symmetry_space_group_name_H-M "I M M M"
_symmetry_group_IT_number 71
_symmetry_cell_setting 'orthorhombic'
loop_
_space_group_symop_operation_xyz
x,y,z
-x,-y,z
x,-y,-z
-x,y,-z
-x,-y,-z
x,y,-z
-x,y,z
x,-y,z
1/2+x,1/2+y,1/2+z
1/2-x,1/2-y,1/2+z
1/2+x,1/2-y,1/2-z
1/2-x,1/2+y,1/2-z
1/2-x,1/2-y,1/2-z
1/2+x,1/2+y,1/2-z
1/2-x,1/2+y,1/2+z
1/2+x,1/2-y,1/2+z
loop_
_atom_site_type_symbol
_atom_site_label
_atom_site_fract_x
_atom_site_fract_y
_atom_site_fract_z
Si Si1 0.180501 0.177814 0.700238
Si Si2 0.254678 0.828040 0.054660
Si Si3 0.878070 0.677179 0.946858
Si Si4 0.500000 0.680979 0.053085
Si Si5 0.127802 0.179434 0.603794
Si Si6 0.174703 0.677086 0.798246
Si Si7 0.430463 0.322835 0.639096
O O1 0.135936 0.213476 0.657540
O O2 0.166079 0.264287 0.746641
O O3 0.253217 0.212206 0.687948
O O4 0.177138 0.000000 0.708926
O O5 0.191973 0.734781 0.064054
O O6 0.314460 0.756418 0.078449
O O7 0.245862 0.000000 0.068551
O O8 0.264214 0.824517 0.000000
O O9 0.881159 0.500000 0.940978
O O10 0.923157 0.758291 0.911706
O O11 0.890857 0.712175 0.000000
O O12 0.500000 0.500000 0.052211
O O13 0.562610 0.725822 0.080349
O O14 0.500000 0.730693 0.000000
O O15 0.133493 0.000000 0.599130
O O16 0.167556 0.500000 0.800163
O O17 0.124187 0.752869 0.830604
O O18 0.500000 0.286292 0.656967
O O19 0.423671 0.500000 0.638147
#
# Coordination Sequence:
#
# PCOD9519891 Si02
#       7
#    16  16  16   8  16  16  16
#     4   9  19  35  56  83 112 141 180 230 288 342
#     4  10  20  33  52  80 112 145 184 233 287 337
#     4  10  21  37  58  84 113 146 186 232 278 327
#     4   9  18  32  51  77 109 147 191 237 284 337
#     4  10  19  33  54  79 108 146 191 236 283 340
#     4  10  20  36  59  84 111 145 185 231 281 337
#     4  11  24  40  58  82 114 153 190 226 274 329
#
# _framework density 18.530245000000001
#
# number of rings (size 3 to 8) (size 9 to 14) (size 15 to 20)
#    0.000    2.077    0.000    3.231    0.000    6.462 
#    1.385    1.923    0.000    1.385    0.000    0.000 
#    0.000    0.000    0.000    0.000    0.000    0.000 
#
# Total GULP energy -290404.372191 kJ/mol
# GULP energy per Si atom -5584.699465 kJ/mol
# Density = 1.848807 g / cm^3
# Si number density = 18.530245 Si / 1000 Ang^3
#
#
#
# Elastic Constant Matrix: (Units=GPa)
#
#
# Indices 1 2 3 4 5 6 
#
# 1 87.1150 38.1627 72.1352 0.0000 0.0000 0.0000
# 2 38.1627 43.4871 42.2065 0.0000 0.0000 0.0000
# 3 72.1352 42.2065 97.2904 0.0000 0.0000 0.0000
# 4 0.0000 0.0000 0.0000 33.1575 0.0000 0.0000
# 5 0.0000 0.0000 0.0000 0.0000 23.0296 0.0000
# 6 0.0000 0.0000 0.0000 0.0000 0.0000 24.1723
#
#
#
# Elastic Compliance Matrix: (Units=1/GPa)
#
#
# Indices 1 2 3 4 5 6 
#
# 1 0.031489 -0.008591 -0.019621 0.000000 0.000000 0.000000
# 2 -0.008591 0.042063 -0.011878 0.000000 0.000000 0.000000
# 3 -0.019621 -0.011878 0.029979 0.000000 0.000000 0.000000
# 4 0.000000 0.000000 0.000000 0.030159 0.000000 0.000000
# 5 0.000000 0.000000 0.000000 0.000000 0.043422 0.000000
# 6 0.000000 0.000000 0.000000 0.000000 0.000000 0.041370
#
#
# Mechanical properties :
#
#
# Convention : Reuss Voigt Hill
#
# Bulk Modulus (GPa) = 42.82306 59.21127 51.01717
# Shear Modulus (GPa) = 16.31614 21.09773 18.70693
#
# Velocity S-wave (km/s) = 2.97056 3.37791 3.18077
# Velocity P-wave (km/s) = 5.90979 6.87291 6.40947
#
# Compressibility (1/GPa) = 0.02335190
#
# Stress axis : x y z
#
# Youngs Moduli (GPa) = 31.75675 23.77404 33.35690
#
# Poissons Ratio (x) = 0.20425 0.65448
# Poissons Ratio (y) = 0.27283 0.39620
# Poissons Ratio (z) = 0.62308 0.28238
#
# Static dielectric constant tensor:
#      x y z
#    x 1.624290 0.000000 0.000000 
#    y 0.000000 1.615390 0.000000 
#    z 0.000000 0.000000 1.636830 
# 
# From -- ./inp_files/66444.got.cif
#   From: 2010.05.17/outbox.cif.g08.bks.cpg/sg71_34_cif.got.tgz:66444.got - 2010.06.03 16:22:01.
