data_PCOD9519187
_publ_section_title
;
Structure prediction by ZEFSAII (Michael W. Deem and Ramdas Pophale) SiO2 
 PCOD9519187
Probable space group: I M M M
;
_chemical_formula_sum "Si O2"
_cell_formula_units_Z 80
_cell_length_a 8.016185
_cell_length_b 15.045180
_cell_length_c 30.178255
_cell_angle_alpha 90.000000
_cell_angle_beta 90.000000
_cell_angle_gamma 90.000000
_cell_volume 3639.646822
_symmetry_space_group_name_H-M "I M M M"
_symmetry_group_IT_number 71
_symmetry_cell_setting 'orthorhombic'
loop_
_space_group_symop_operation_xyz
x,y,z
-x,-y,z
x,-y,-z
-x,y,-z
-x,-y,-z
x,y,-z
-x,y,z
x,-y,z
1/2+x,1/2+y,1/2+z
1/2-x,1/2-y,1/2+z
1/2+x,1/2-y,1/2-z
1/2-x,1/2+y,1/2-z
1/2-x,1/2-y,1/2-z
1/2+x,1/2+y,1/2-z
1/2-x,1/2+y,1/2+z
1/2+x,1/2-y,1/2+z
loop_
_atom_site_type_symbol
_atom_site_label
_atom_site_fract_x
_atom_site_fract_y
_atom_site_fract_z
Si Si1 0.500000 0.357773 0.551382
Si Si2 0.688952 0.849334 0.892267
Si Si3 0.678904 0.359006 0.896576
Si Si4 0.297396 0.897149 0.205428
Si Si5 0.000000 0.639609 0.948796
Si Si6 0.308265 0.892616 0.300579
O O1 0.500000 0.383215 0.500000
O O2 0.666862 0.388501 0.576874
O O3 0.500000 0.248628 0.553151
O O4 0.500000 0.888008 0.895057
O O5 0.674447 0.746388 0.905032
O O6 0.745948 0.852078 0.840845
O O7 0.500000 0.396757 0.909467
O O8 0.706345 0.370163 0.844121
O O9 0.837041 0.393517 0.923132
O O10 0.500000 0.895503 0.208662
O O11 0.238512 0.860990 0.253000
O O12 0.245415 0.000000 0.201285
O O13 0.000000 0.614692 0.000000
O O14 0.500000 0.861593 0.306728
O O15 0.313674 0.000000 0.297106
#
# Coordination Sequence:
#
# PCOD9519187 Si02
#       6
#     8  16  16  16   8  16
#     4   9  18  32  51  75 101 131 167 207 254 301
#     4   9  18  32  50  74 101 129 165 207 249 292
#     4  10  19  31  50  76 102 128 163 206 250 296
#     4   8  15  30  51  72  98 135 172 203 241 292
#     4   9  18  34  53  73 101 133 165 207 254 297
#     4   9  17  31  51  72  98 135 171 202 242 294
#
# _framework density 21.980156000000001
#
# number of rings (size 3 to 8) (size 9 to 14) (size 15 to 20)
#    0.000    3.000    1.000    1.200    0.000    2.000 
#    1.800    4.500    0.000    2.400    0.000    4.200 
#    0.000    0.000    0.000    0.000    0.000    0.000 
#
# Total GULP energy -223134.654122 kJ/mol
# GULP energy per Si atom -5578.366353 kJ/mol
# Density = 2.193013 g / cm^3
# Si number density = 21.980156 Si / 1000 Ang^3
#
#
#
# Elastic Constant Matrix: (Units=GPa)
#
#
# Indices 1 2 3 4 5 6 
#
# 1 156.9598 6.1747 103.3682 0.0000 0.0000 0.0000
# 2 6.1747 45.9457 -7.3187 0.0000 0.0000 0.0000
# 3 103.3682 -7.3187 164.0966 0.0000 0.0000 0.0000
# 4 0.0000 0.0000 0.0000 37.0044 0.0000 0.0000
# 5 0.0000 0.0000 0.0000 0.0000 23.2765 0.0000
# 6 0.0000 0.0000 0.0000 0.0000 0.0000 -16.7341
#
#
#
# Elastic Compliance Matrix: (Units=1/GPa)
#
#
# Indices 1 2 3 4 5 6 
#
# 1 0.011199 -0.002648 -0.007172 0.000000 0.000000 0.000000
# 2 -0.002648 0.022546 0.002673 0.000000 0.000000 0.000000
# 3 -0.007172 0.002673 0.010731 0.000000 0.000000 0.000000
# 4 0.000000 0.000000 0.000000 0.027024 0.000000 0.000000
# 5 0.000000 0.000000 0.000000 0.000000 0.042962 0.000000
# 6 0.000000 0.000000 0.000000 0.000000 0.000000 -0.059758
#
#
# Mechanical properties :
#
#
# Convention : Reuss Voigt Hill
#
# Bulk Modulus (GPa) = 33.13097 63.49449 48.31273
# Shear Modulus (GPa) = 63.24444 26.36120 44.80282
#
# Velocity S-wave (km/s) = 5.36991 3.46687 4.51969
# Velocity P-wave (km/s) = 7.31804 6.70638 7.01888
#
# Compressibility (1/GPa) = 0.03018324
#
# Stress axis : x y z
#
# Youngs Moduli (GPa) = 89.29605 44.35282 93.18567
#
# Poissons Ratio (x) = 0.11742 0.66837
# Poissons Ratio (y) = 0.23641 -0.24911
# Poissons Ratio (z) = 0.64047 -0.11857
#
# Static dielectric constant tensor:
#      x y z
#    x 1.848970 0.000000 0.000000 
#    y 0.000000 1.828860 0.000000 
#    z 0.000000 0.000000 1.777110 
# 
# From -- ./inp_files/8448.got.cif
#   From: 2010.05.17/outbox.cif.g08.bks.cpg/sg71_5_cif.got.tgz:8448.got - 2010.06.03 16:22:01.
