data_PCOD9519755
_publ_section_title
;
Structure prediction by ZEFSAII (Michael W. Deem and Ramdas Pophale) SiO2 
 PCOD9519755
Probable space group: I M M M
;
_chemical_formula_sum "Si O2"
_cell_formula_units_Z 72
_cell_length_a 16.380551
_cell_length_b 18.686483
_cell_length_c 13.143359
_cell_angle_alpha 90.000000
_cell_angle_beta 90.000000
_cell_angle_gamma 90.000000
_cell_volume 4023.114998
_symmetry_space_group_name_H-M "I M M M"
_symmetry_group_IT_number 71
_symmetry_cell_setting 'orthorhombic'
loop_
_space_group_symop_operation_xyz
x,y,z
-x,-y,z
x,-y,-z
-x,y,-z
-x,-y,-z
x,y,-z
-x,y,z
x,-y,z
1/2+x,1/2+y,1/2+z
1/2-x,1/2-y,1/2+z
1/2+x,1/2-y,1/2-z
1/2-x,1/2+y,1/2-z
1/2-x,1/2-y,1/2-z
1/2+x,1/2+y,1/2-z
1/2-x,1/2+y,1/2+z
1/2+x,1/2-y,1/2+z
loop_
_atom_site_type_symbol
_atom_site_label
_atom_site_fract_x
_atom_site_fract_y
_atom_site_fract_z
Si Si1 0.753409 0.500000 0.880944
Si Si2 0.091151 0.125536 0.884324
Si Si3 0.500000 0.086832 0.622675
Si Si4 0.253970 0.782977 0.113288
Si Si5 0.909259 0.000000 0.279436
Si Si6 0.173597 0.645926 0.193579
O O1 0.656816 0.500000 0.866951
O O2 0.786115 0.568869 0.821768
O O3 0.778891 0.500000 0.000000
O O4 0.165850 0.179176 0.873660
O O5 0.000000 0.158135 0.875496
O O6 0.099366 0.066923 0.797048
O O7 0.095825 0.095255 0.000000
O O8 0.500000 0.088328 0.500000
O O9 0.580347 0.129458 0.661584
O O10 0.500000 0.000000 0.650493
O O11 0.229066 0.700316 0.127116
O O12 0.314297 0.817393 0.196078
O O13 0.284499 0.796166 0.000000
O O14 0.000000 0.000000 0.321689
#
# Coordination Sequence:
#
# PCOD9519755 Si02
#       6
#     8  16   8  16   8  16
#     4  12  22  37  57  78 111 152 194 240 293 349
#     4   9  17  30  52  82 112 140 175 224 279 332
#     4  11  22  38  63  91 119 154 204 261 307 348
#     4  10  21  38  60  86 117 153 191 235 296 361
#     4  10  19  33  51  78 112 145 186 228 275 337
#     4  11  23  39  59  88 118 151 194 250 299 356
#
# _framework density 17.89658
#
# number of rings (size 3 to 8) (size 9 to 14) (size 15 to 20)
#    0.000    1.667    3.333    2.333    1.556    1.556 
#    0.000    1.111    0.000    0.667    0.000    0.000 
#    0.000    0.000    0.000    0.000    0.000    0.000 
#
# Total GULP energy -200535.668364 kJ/mol
# GULP energy per Si atom -5570.435232 kJ/mol
# Density = 1.785585 g / cm^3
# Si number density = 17.896580 Si / 1000 Ang^3
#
#
#
# Elastic Constant Matrix: (Units=GPa)
#
#
# Indices 1 2 3 4 5 6 
#
# 1 94.1206 35.0654 34.2410 0.0000 0.0000 0.0000
# 2 35.0654 102.3398 23.8860 0.0000 0.0000 0.0000
# 3 34.2410 23.8860 85.0403 0.0000 0.0000 0.0000
# 4 0.0000 0.0000 0.0000 10.7320 0.0000 0.0000
# 5 0.0000 0.0000 0.0000 0.0000 25.9906 0.0000
# 6 0.0000 0.0000 0.0000 0.0000 0.0000 7.6657
#
#
#
# Elastic Compliance Matrix: (Units=1/GPa)
#
#
# Indices 1 2 3 4 5 6 
#
# 1 0.013594 -0.003617 -0.004457 0.000000 0.000000 0.000000
# 2 -0.003617 0.011420 -0.001751 0.000000 0.000000 0.000000
# 3 -0.004457 -0.001751 0.014046 0.000000 0.000000 0.000000
# 4 0.000000 0.000000 0.000000 0.093179 0.000000 0.000000
# 5 0.000000 0.000000 0.000000 0.000000 0.038475 0.000000
# 6 0.000000 0.000000 0.000000 0.000000 0.000000 0.130451
#
#
# Mechanical properties :
#
#
# Convention : Reuss Voigt Hill
#
# Bulk Modulus (GPa) = 51.52655 51.98728 51.75692
# Shear Modulus (GPa) = 15.27716 21.43156 18.35436
#
# Velocity S-wave (km/s) = 2.92487 3.46428 3.20594
# Velocity P-wave (km/s) = 6.34510 6.71665 6.53352
#
# Compressibility (1/GPa) = 0.01940747
#
# Stress axis : x y z
#
# Youngs Moduli (GPa) = 73.56188 87.56940 71.19611
#
# Poissons Ratio (x) = 0.31678 0.31736
# Poissons Ratio (y) = 0.26611 0.12466
# Poissons Ratio (z) = 0.32790 0.15333
#
# Static dielectric constant tensor:
#      x y z
#    x 1.623160 0.000000 0.000000 
#    y 0.000000 1.644840 0.000000 
#    z 0.000000 0.000000 1.615100 
# 
# From -- ./inp_files/34139.got.cif
#   From: 2010.05.17/outbox.cif.g08.bks.cpg/sg71_18_cif.got.tgz:34139.got - 2010.06.03 16:22:01.
