data_PCOD9519419
_publ_section_title
;
Structure prediction by ZEFSAII (Michael W. Deem and Ramdas Pophale) SiO2 
 PCOD9519419
Probable space group: I M M M
;
_chemical_formula_sum "Si O2"
_cell_formula_units_Z 112
_cell_length_a 28.017727
_cell_length_b 15.211886
_cell_length_c 14.277749
_cell_angle_alpha 90.000000
_cell_angle_beta 90.000000
_cell_angle_gamma 90.000000
_cell_volume 6085.211877
_symmetry_space_group_name_H-M "I M M M"
_symmetry_group_IT_number 71
_symmetry_cell_setting 'orthorhombic'
loop_
_space_group_symop_operation_xyz
x,y,z
-x,-y,z
x,-y,-z
-x,y,-z
-x,-y,-z
x,y,-z
-x,y,z
x,-y,z
1/2+x,1/2+y,1/2+z
1/2-x,1/2-y,1/2+z
1/2+x,1/2-y,1/2-z
1/2-x,1/2+y,1/2-z
1/2-x,1/2-y,1/2-z
1/2+x,1/2+y,1/2-z
1/2-x,1/2+y,1/2+z
1/2+x,1/2-y,1/2+z
loop_
_atom_site_type_symbol
_atom_site_label
_atom_site_fract_x
_atom_site_fract_y
_atom_site_fract_z
Si Si1 0.443361 0.402302 0.731995
Si Si2 0.202682 0.899031 0.890684
Si Si3 0.447388 0.236995 0.611741
Si Si4 0.705769 0.898606 0.761137
Si Si5 0.387401 0.098063 0.111597
Si Si6 0.942581 0.774244 0.392554
Si Si7 0.156679 0.284302 0.110836
O O1 0.500000 0.411549 0.750833
O O2 0.423446 0.500000 0.720725
O O3 0.441455 0.337981 0.643450
O O4 0.423861 0.346779 0.819867
O O5 0.246182 0.882307 0.819631
O O6 0.165245 0.820350 0.877155
O O7 0.185957 0.000000 0.876790
O O8 0.218655 0.893560 0.000000
O O9 0.448621 0.231456 0.500000
O O10 0.500000 0.207639 0.647733
O O11 0.397701 0.191670 0.640561
O O12 0.661668 0.889826 0.832974
O O13 0.694288 0.835415 0.674656
O O14 0.706976 0.000000 0.728890
O O15 0.422457 0.178503 0.132276
O O16 0.406353 0.000000 0.133762
O O17 0.378209 0.100333 0.000000
O O18 0.929409 0.794745 0.500000
O O19 0.000000 0.771542 0.387583
O O20 0.162154 0.303324 0.000000
#
# Coordination Sequence:
#
# PCOD9519419 Si02
#       7
#    16  16  16  16  16  16  16
#     4   9  17  28  42  61  86 118 155 192 231 281
#     4   9  18  33  53  77 103 129 161 204 252 299
#     4   9  18  32  49  69  95 129 168 210 254 293
#     4  10  19  32  51  73  99 131 164 200 244 293
#     4   9  17  29  46  67  88 114 153 198 243 290
#     4   9  17  28  42  62  89 119 151 192 242 293
#     4  10  20  33  51  75 102 133 168 205 246 295
#
# _framework density 18.405275
#
# number of rings (size 3 to 8) (size 9 to 14) (size 15 to 20)
#    0.000    2.714    0.000    1.714    0.000    3.429 
#    0.000    5.714    0.000    1.286    0.000    2.000 
#    0.000   11.429    0.000    0.143    0.000    0.286 
#
# Total GULP energy -311851.719233 kJ/mol
# GULP energy per Si atom -5568.780701 kJ/mol
# Density = 1.836338 g / cm^3
# Si number density = 18.405275 Si / 1000 Ang^3
#
#
#
# Elastic Constant Matrix: (Units=GPa)
#
#
# Indices 1 2 3 4 5 6 
#
# 1 65.5738 18.4624 26.8947 0.0000 0.0000 0.0000
# 2 18.4624 27.7153 4.4188 0.0000 0.0000 0.0000
# 3 26.8947 4.4188 35.6642 0.0000 0.0000 0.0000
# 4 0.0000 0.0000 0.0000 23.3008 0.0000 0.0000
# 5 0.0000 0.0000 0.0000 0.0000 17.2380 0.0000
# 6 0.0000 0.0000 0.0000 0.0000 0.0000 17.0043
#
#
#
# Elastic Compliance Matrix: (Units=1/GPa)
#
#
# Indices 1 2 3 4 5 6 
#
# 1 0.027125 -0.015106 -0.018584 0.000000 0.000000 0.000000
# 2 -0.015106 0.045221 0.005789 0.000000 0.000000 0.000000
# 3 -0.018584 0.005789 0.041336 0.000000 0.000000 0.000000
# 4 0.000000 0.000000 0.000000 0.042917 0.000000 0.000000
# 5 0.000000 0.000000 0.000000 0.000000 0.058011 0.000000
# 6 0.000000 0.000000 0.000000 0.000000 0.000000 0.058809
#
#
# Mechanical properties :
#
#
# Convention : Reuss Voigt Hill
#
# Bulk Modulus (GPa) = 17.27702 25.38946 21.33324
# Shear Modulus (GPa) = 14.34657 16.78710 15.56683
#
# Velocity S-wave (km/s) = 2.79495 3.02334 2.91139
# Velocity P-wave (km/s) = 4.45231 5.10021 4.78723
#
# Compressibility (1/GPa) = 0.05788034
#
# Stress axis : x y z
#
# Youngs Moduli (GPa) = 36.86614 22.11350 24.19190
#
# Poissons Ratio (x) = 0.33405 0.44957
# Poissons Ratio (y) = 0.55691 -0.14004
# Poissons Ratio (z) = 0.68511 -0.12801
#
# Static dielectric constant tensor:
#      x y z
#    x 1.660150 0.000000 0.000000 
#    y 0.000000 1.637610 0.000000 
#    z 0.000000 0.000000 1.638920 
# 
# From -- ./inp_files/35333.got.cif
#   From: 2010.05.17/outbox.cif.g08.bks.cpg/sg71_18_cif.got.tgz:35333.got - 2010.06.03 16:22:01.
