data_PCOD9519382
_publ_section_title
;
Structure prediction by ZEFSAII (Michael W. Deem and Ramdas Pophale) SiO2 
 PCOD9519382
Probable space group: I M M M
;
_chemical_formula_sum "Si O2"
_cell_formula_units_Z 96
_cell_length_a 22.205445
_cell_length_b 23.371292
_cell_length_c 8.890299
_cell_angle_alpha 90.000000
_cell_angle_beta 90.000000
_cell_angle_gamma 90.000000
_cell_volume 4613.797930
_symmetry_space_group_name_H-M "I M M M"
_symmetry_group_IT_number 71
_symmetry_cell_setting 'orthorhombic'
loop_
_space_group_symop_operation_xyz
x,y,z
-x,-y,z
x,-y,-z
-x,y,-z
-x,-y,-z
x,y,-z
-x,y,z
x,-y,z
1/2+x,1/2+y,1/2+z
1/2-x,1/2-y,1/2+z
1/2+x,1/2-y,1/2-z
1/2-x,1/2+y,1/2-z
1/2-x,1/2-y,1/2-z
1/2+x,1/2+y,1/2-z
1/2-x,1/2+y,1/2+z
1/2+x,1/2-y,1/2+z
loop_
_atom_site_type_symbol
_atom_site_label
_atom_site_fract_x
_atom_site_fract_y
_atom_site_fract_z
Si Si1 0.936429 0.230143 0.321072
Si Si2 0.188829 0.097097 0.179063
Si Si3 0.191211 0.777124 0.318783
Si Si4 0.433322 0.930123 0.824704
Si Si5 0.687714 0.067534 0.667391
Si Si6 0.566613 0.591031 0.177945
O O1 0.937827 0.241566 0.500000
O O2 0.871817 0.251472 0.266471
O O3 0.935279 0.160657 0.306178
O O4 0.000000 0.250730 0.255358
O O5 0.189524 0.158867 0.257171
O O6 0.252463 0.071909 0.232359
O O7 0.126253 0.069658 0.237881
O O8 0.186990 0.100653 0.000000
O O9 0.192957 0.776583 0.500000
O O10 0.250000 0.750000 0.250000
O O11 0.500000 0.912445 0.768591
O O12 0.373959 0.908767 0.739166
O O13 0.432888 0.000000 0.821076
O O14 0.428837 0.913582 0.000000
O O15 0.699086 0.091477 0.500000
O O16 0.676689 0.000000 0.652643
O O17 0.500000 0.570680 0.227161
O O18 0.572674 0.579060 0.000000
#
# Coordination Sequence:
#
# PCOD9519382 Si02
#       6
#    16  16  16  16  16  16
#     4   7  11  22  42  66  89 116 151 189 228 272
#     4  11  21  32  49  73 101 131 163 201 246 292
#     4  10  19  32  50  72  99 128 161 200 242 289
#     4   8  14  26  45  69  96 124 155 194 240 288
#     4  10  20  33  50  72  98 129 165 204 245 289
#     4   8  14  27  47  69  94 124 158 197 240 285
#
# _framework density 20.807151999999999
#
# number of rings (size 3 to 8) (size 9 to 14) (size 15 to 20)
#    0.000    3.000    0.000    5.000    0.000    1.667 
#    0.000    1.667    0.000    3.000    0.000    5.833 
#    0.000    0.000    0.000    0.000    0.000    0.000 
#
# Total GULP energy -267311.522852 kJ/mol
# GULP energy per Si atom -5568.990059 kJ/mol
# Density = 2.075979 g / cm^3
# Si number density = 20.807152 Si / 1000 Ang^3
#
#
#
# Elastic Constant Matrix: (Units=GPa)
#
#
# Indices 1 2 3 4 5 6 
#
# 1 250.9260 22.5704 77.6056 0.0000 0.0000 0.0000
# 2 22.5704 18.8126 6.8567 0.0000 0.0000 0.0000
# 3 77.6056 6.8567 84.6293 0.0000 0.0000 0.0000
# 4 0.0000 0.0000 0.0000 10.7219 0.0000 0.0000
# 5 0.0000 0.0000 0.0000 0.0000 38.3368 0.0000
# 6 0.0000 0.0000 0.0000 0.0000 0.0000 10.6263
#
#
#
# Elastic Compliance Matrix: (Units=1/GPa)
#
#
# Indices 1 2 3 4 5 6 
#
# 1 0.006052 -0.005397 -0.005112 0.000000 0.000000 0.000000
# 2 -0.005397 0.059587 0.000122 0.000000 0.000000 0.000000
# 3 -0.005112 0.000122 0.016494 0.000000 0.000000 0.000000
# 4 0.000000 0.000000 0.000000 0.093267 0.000000 0.000000
# 5 0.000000 0.000000 0.000000 0.000000 0.026085 0.000000
# 6 0.000000 0.000000 0.000000 0.000000 0.000000 0.094107
#
#
# Mechanical properties :
#
#
# Convention : Reuss Voigt Hill
#
# Bulk Modulus (GPa) = 16.29801 63.15927 39.72864
# Shear Modulus (GPa) = 14.84475 28.42600 21.63537
#
# Velocity S-wave (km/s) = 2.67394 3.70018 3.22810
# Velocity P-wave (km/s) = 4.16931 6.97679 5.74712
#
# Compressibility (1/GPa) = 0.06135718
#
# Stress axis : x y z
#
# Youngs Moduli (GPa) = 165.23920 16.78219 60.62679
#
# Poissons Ratio (x) = 0.09058 0.30994
# Poissons Ratio (y) = 0.89186 -0.00738
# Poissons Ratio (z) = 0.84475 -0.00204
#
# Static dielectric constant tensor:
#      x y z
#    x 1.826520 0.000000 0.000000 
#    y 0.000000 1.771990 0.000000 
#    z 0.000000 0.000000 1.742500 
# 
# From -- ./inp_files/10883.got.cif
#   From: 2010.05.17/outbox.cif.g08.bks.cpg/sg71_6_cif.got.tgz:10883.got - 2010.06.03 16:22:01.
