data_PCOD9519059
_publ_section_title
;
Structure prediction by ZEFSAII (Michael W. Deem and Ramdas Pophale) SiO2 
 PCOD9519059
Probable space group: I M M M
;
_chemical_formula_sum "Si O2"
_cell_formula_units_Z 88
_cell_length_a 9.376495
_cell_length_b 26.811831
_cell_length_c 20.439519
_cell_angle_alpha 90.000000
_cell_angle_beta 90.000000
_cell_angle_gamma 90.000000
_cell_volume 5138.515502
_symmetry_space_group_name_H-M "I M M M"
_symmetry_group_IT_number 71
_symmetry_cell_setting 'orthorhombic'
loop_
_space_group_symop_operation_xyz
x,y,z
-x,-y,z
x,-y,-z
-x,y,-z
-x,-y,-z
x,y,-z
-x,y,z
x,-y,z
1/2+x,1/2+y,1/2+z
1/2-x,1/2-y,1/2+z
1/2+x,1/2-y,1/2-z
1/2-x,1/2+y,1/2-z
1/2-x,1/2-y,1/2-z
1/2+x,1/2+y,1/2-z
1/2-x,1/2+y,1/2+z
1/2+x,1/2-y,1/2+z
loop_
_atom_site_type_symbol
_atom_site_label
_atom_site_fract_x
_atom_site_fract_y
_atom_site_fract_z
Si Si1 0.834975 0.663834 0.000000
Si Si2 0.168488 0.558657 0.370828
Si Si3 0.668755 0.663831 0.868656
Si Si4 0.663115 0.285210 0.500000
Si Si5 0.829860 0.361498 0.739383
Si Si6 0.336243 0.560737 0.500000
Si Si7 0.667559 0.783200 0.129223
O O1 0.750748 0.648543 0.934742
O O2 0.835285 0.724495 0.000000
O O3 0.000000 0.647653 0.000000
O O4 0.197157 0.500000 0.359874
O O5 0.199395 0.591184 0.306955
O O6 0.256192 0.576117 0.433971
O O7 0.000000 0.564085 0.385217
O O8 0.500000 0.653937 0.873342
O O9 0.740154 0.639487 0.805337
O O10 0.686869 0.723962 0.861821
O O11 0.500000 0.301722 0.500000
O O12 0.743572 0.300063 0.433847
O O13 0.794082 0.313660 0.694107
O O14 0.000000 0.359906 0.753710
O O15 0.332208 0.500000 0.500000
O O16 0.500000 0.576421 0.500000
O O17 0.500000 0.792426 0.116307
#
# Coordination Sequence:
#
# PCOD9519059 Si02
#       7
#     8  16  16   8  16   8  16
#     4   9  17  31  50  68  90 122 157 189 222 268
#     4   9  18  33  51  69  91 122 160 198 233 273
#     4  10  19  31  48  70  95 122 153 189 229 273
#     4   9  17  28  44  65  89 122 161 197 230 264
#     4  10  20  32  47  68  93 123 157 191 232 278
#     4   9  17  30  49  70  92 121 157 198 241 278
#     4   9  18  31  45  63  92 127 158 190 228 272
#
# _framework density 17.125568000000001
#
# number of rings (size 3 to 8) (size 9 to 14) (size 15 to 20)
#    0.000    2.636    0.000    1.909    0.000    6.182 
#    0.000    3.636    0.000    0.000    0.000    0.636 
#    0.000    5.091    0.000    0.000    0.000    0.000 
#
# Total GULP energy -245520.929960 kJ/mol
# GULP energy per Si atom -5580.021135 kJ/mol
# Density = 1.708659 g / cm^3
# Si number density = 17.125568 Si / 1000 Ang^3
#
#
#
# Elastic Constant Matrix: (Units=GPa)
#
#
# Indices 1 2 3 4 5 6 
#
# 1 102.2944 36.9287 106.7065 0.0000 0.0000 0.0000
# 2 36.9287 35.4196 39.6084 0.0000 0.0000 0.0000
# 3 106.7065 39.6084 178.3079 0.0002 0.0000 0.0000
# 4 0.0000 0.0000 0.0002 -132.0219 0.0000 0.0000
# 5 0.0000 0.0000 0.0000 0.0000 34.9315 0.0000
# 6 0.0000 0.0000 0.0000 0.0000 0.0000 10.4167
#
#
#
# Elastic Compliance Matrix: (Units=1/GPa)
#
#
# Indices 1 2 3 4 5 6 
#
# 1 0.031381 -0.015590 -0.015316 0.000000 0.000000 0.000000
# 2 -0.015590 0.045309 -0.000735 0.000000 0.000000 0.000000
# 3 -0.015316 -0.000735 0.014938 0.000000 0.000000 0.000000
# 4 0.000000 0.000000 0.000000 -0.007575 0.000000 0.000000
# 5 0.000000 0.000000 0.000000 0.000000 0.028627 0.000000
# 6 0.000000 0.000000 0.000000 0.000000 0.000000 0.096000
#
#
# Mechanical properties :
#
#
# Convention : Reuss Voigt Hill
#
# Bulk Modulus (GPa) = 35.28026 75.83434 55.55730
# Shear Modulus (GPa) = 17.76756 -8.48285 4.64235
#
# Velocity S-wave (km/s) = 3.22450 -2.22802 1.64823
# Velocity P-wave (km/s) = 5.87442 6.14481 6.01114
#
# Compressibility (1/GPa) = 0.02834446
#
# Stress axis : x y z
#
# Youngs Moduli (GPa) = 31.86654 22.07060 66.94538
#
# Poissons Ratio (x) = 0.34408 1.02537
# Poissons Ratio (y) = 0.49680 0.04921
# Poissons Ratio (z) = 0.48808 0.01622
#
# Static dielectric constant tensor:
#      x y z
#    x 1.570710 0.000000 0.000000 
#    y 0.000000 1.586910 0.000000 
#    z 0.000000 0.000000 1.550810 
# 
# From -- ./inp_files/8897.got.cif
#   From: 2010.05.17/outbox.cif.g08.bks.cpg/sg71_5_cif.got.tgz:8897.got - 2010.06.03 16:22:01.
