data_PCOD9519801
_publ_section_title
;
Structure prediction by ZEFSAII (Michael W. Deem and Ramdas Pophale) SiO2 
 PCOD9519801
Probable space group: I M M M
;
_chemical_formula_sum "Si O2"
_cell_formula_units_Z 84
_cell_length_a 27.694691
_cell_length_b 7.529149
_cell_length_c 21.423082
_cell_angle_alpha 90.000000
_cell_angle_beta 90.000000
_cell_angle_gamma 90.000000
_cell_volume 4467.086538
_symmetry_space_group_name_H-M "I M M M"
_symmetry_group_IT_number 71
_symmetry_cell_setting 'orthorhombic'
loop_
_space_group_symop_operation_xyz
x,y,z
-x,-y,z
x,-y,-z
-x,y,-z
-x,-y,-z
x,y,-z
-x,y,z
x,-y,z
1/2+x,1/2+y,1/2+z
1/2-x,1/2-y,1/2+z
1/2+x,1/2-y,1/2-z
1/2-x,1/2+y,1/2-z
1/2-x,1/2-y,1/2-z
1/2+x,1/2+y,1/2-z
1/2-x,1/2+y,1/2+z
1/2+x,1/2-y,1/2+z
loop_
_atom_site_type_symbol
_atom_site_label
_atom_site_fract_x
_atom_site_fract_y
_atom_site_fract_z
Si Si1 0.871915 0.715672 0.571414
Si Si2 0.639212 0.287214 0.267212
Si Si3 0.813601 0.203485 0.109656
Si Si4 0.054323 0.288024 0.676101
Si Si5 0.287011 0.292937 0.163074
Si Si6 0.191134 0.500000 0.000000
O O1 0.876393 0.773269 0.500000
O O2 0.871332 0.500000 0.572217
O O3 0.915411 0.777931 0.616148
O O4 0.822537 0.778165 0.603485
O O5 0.643641 0.500000 0.266154
O O6 0.647806 0.233692 0.338228
O O7 0.588137 0.243768 0.235907
O O8 0.681363 0.219111 0.220646
O O9 0.762800 0.200536 0.147026
O O10 0.809094 0.343382 0.054463
O O11 0.824185 0.000000 0.089662
O O12 0.050984 0.500000 0.668670
O O13 0.000000 0.217343 0.680745
O O14 0.276599 0.500000 0.174569
#
# Coordination Sequence:
#
# PCOD9519801 Si02
#       6
#    16  16  16  16  16   4
#     4   9  18  30  45  69 106 152 193 232 276 324
#     4   9  20  36  56  80 108 144 186 235 285 332
#     4  11  23  39  57  82 115 150 192 231 276 337
#     4   9  18  32  52  78 105 137 184 238 288 339
#     4  10  19  33  52  78 110 150 194 236 276 323
#     4  12  26  40  56  86 113 158 181 230 280 332
#
# _framework density 18.804202
#
# number of rings (size 3 to 8) (size 9 to 14) (size 15 to 20)
#    0.000    2.286    0.952    1.429    2.667    1.905 
#    0.000    1.905    0.000    0.000    0.000    6.667 
#    0.000    3.048    0.000    0.000    0.000    0.000 
#
# Total GULP energy -233897.496398 kJ/mol
# GULP energy per Si atom -5568.988009 kJ/mol
# Density = 1.876140 g / cm^3
# Si number density = 18.804202 Si / 1000 Ang^3
#
#
#
# Elastic Constant Matrix: (Units=GPa)
#
#
# Indices 1 2 3 4 5 6 
#
# 1 72.2502 -0.1534 36.2655 0.0000 0.0000 0.0000
# 2 -0.1534 79.7477 16.1495 0.0000 0.0000 0.0000
# 3 36.2655 16.1495 60.8455 0.0000 0.0000 0.0000
# 4 0.0000 0.0000 0.0000 260.6605 0.0000 0.0000
# 5 0.0000 0.0000 0.0000 0.0000 4.1113 0.0000
# 6 0.0000 0.0000 0.0000 0.0000 0.0000 15.3501
#
#
#
# Elastic Compliance Matrix: (Units=1/GPa)
#
#
# Indices 1 2 3 4 5 6 
#
# 1 0.020256 0.002625 -0.012770 0.000000 0.000000 0.000000
# 2 0.002625 0.013592 -0.005172 0.000000 0.000000 0.000000
# 3 -0.012770 -0.005172 0.025419 0.000000 0.000000 0.000000
# 4 0.000000 0.000000 0.000000 0.003836 0.000000 0.000000
# 5 0.000000 0.000000 0.000000 0.000000 0.243232 0.000000
# 6 0.000000 0.000000 0.000000 0.000000 0.000000 0.065146
#
#
# Mechanical properties :
#
#
# Convention : Reuss Voigt Hill
#
# Bulk Modulus (GPa) = 34.92468 35.26298 35.09383
# Shear Modulus (GPa) = 12.14595 66.72982 39.43789
#
# Velocity S-wave (km/s) = 2.54425 5.96353 4.58459
# Velocity P-wave (km/s) = 5.21958 8.13706 6.83578
#
# Compressibility (1/GPa) = 0.02863305
#
# Stress axis : x y z
#
# Youngs Moduli (GPa) = 49.36777 73.57271 39.34058
#
# Poissons Ratio (x) = -0.19313 0.50238
# Poissons Ratio (y) = -0.12959 0.20347
# Poissons Ratio (z) = 0.63042 0.38053
#
# Static dielectric constant tensor:
#      x y z
#    x 1.644300 0.000000 0.000000 
#    y 0.000000 1.701010 0.000000 
#    z 0.000000 0.000000 1.661860 
# 
# From -- ./inp_files/56078.got.cif
#   From: 2010.05.17/outbox.cif.g08.bks.cpg/sg71_29_cif.got.tgz:56078.got - 2010.06.03 16:22:01.
