data_PCOD9519214
_publ_section_title
;
Structure prediction by ZEFSAII (Michael W. Deem and Ramdas Pophale) SiO2 
 PCOD9519214
Probable space group: I M M M
;
_chemical_formula_sum "Si O2"
_cell_formula_units_Z 80
_cell_length_a 28.313336
_cell_length_b 9.898662
_cell_length_c 16.705684
_cell_angle_alpha 90.000000
_cell_angle_beta 90.000000
_cell_angle_gamma 90.000000
_cell_volume 4682.004212
_symmetry_space_group_name_H-M "I M M M"
_symmetry_group_IT_number 71
_symmetry_cell_setting 'orthorhombic'
loop_
_space_group_symop_operation_xyz
x,y,z
-x,-y,z
x,-y,-z
-x,y,-z
-x,-y,-z
x,y,-z
-x,y,z
x,-y,z
1/2+x,1/2+y,1/2+z
1/2-x,1/2-y,1/2+z
1/2+x,1/2-y,1/2-z
1/2-x,1/2+y,1/2-z
1/2-x,1/2-y,1/2-z
1/2+x,1/2+y,1/2-z
1/2-x,1/2+y,1/2+z
1/2+x,1/2-y,1/2+z
loop_
_atom_site_type_symbol
_atom_site_label
_atom_site_fract_x
_atom_site_fract_y
_atom_site_fract_z
Si Si1 0.684557 0.500000 0.908843
Si Si2 0.055797 0.000000 0.744323
Si Si3 0.764697 0.500000 0.340209
Si Si4 0.365346 0.000000 0.906593
Si Si5 0.374229 0.281047 0.177890
Si Si6 0.891753 0.000000 0.910769
Si Si7 0.319252 0.287973 0.346569
Si Si8 0.787240 0.500000 0.158045
O O1 0.653738 0.369920 0.886930
O O2 0.731630 0.500000 0.857273
O O3 0.698851 0.500000 0.000000
O O4 0.080224 0.868329 0.704169
O O5 0.071471 0.000000 0.837675
O O6 0.000000 0.000000 0.735484
O O7 0.807834 0.500000 0.401683
O O8 0.729789 0.628568 0.345992
O O9 0.790129 0.500000 0.254242
O O10 0.382113 0.866154 0.859033
O O11 0.379487 0.000000 0.000000
O O12 0.340913 0.280595 0.256913
O O13 0.857057 0.872063 0.897464
O O14 0.911703 0.000000 0.000000
O O15 0.309849 0.136607 0.374571
#
# Coordination Sequence:
#
# PCOD9519214 Si02
#       8
#     8   8   8   8  16   8  16   8
#     4  11  21  30  45  70 102 143 185 223 255 284
#     4   9  20  39  66  86  94 125 172 205 260 335
#     4  11  18  30  49  69 107 147 194 229 248 291
#     4  12  23  32  51  80 109 142 177 218 266 301
#     4  10  19  36  53  74 105 135 169 217 258 313
#     4   9  20  36  54  80 114 135 161 214 269 310
#     4  10  19  31  51  72 102 152 187 212 253 299
#     4  12  18  29  50  70 105 145 194 226 240 291
#
# _framework density 17.0867
#
# number of rings (size 3 to 8) (size 9 to 14) (size 15 to 20)
#    0.000    1.600    4.000    3.600    0.000    2.600 
#    0.000    0.500    0.000   11.400    0.000    0.000 
#    0.000    6.400    0.000    0.000    0.000    0.000 
#
# Total GULP energy -223231.885323 kJ/mol
# GULP energy per Si atom -5580.797133 kJ/mol
# Density = 1.704781 g / cm^3
# Si number density = 17.086700 Si / 1000 Ang^3
#
#
#
# Elastic Constant Matrix: (Units=GPa)
#
#
# Indices 1 2 3 4 5 6 
#
# 1 87.0056 44.4422 7.4856 0.0000 0.0000 0.0000
# 2 44.4422 164.4510 26.0941 0.0000 0.0000 0.0000
# 3 7.4856 26.0941 70.4590 0.0000 0.0000 0.0000
# 4 0.0000 0.0000 0.0000 3.5147 0.0000 0.0000
# 5 0.0000 0.0000 0.0000 0.0000 5.9481 0.0000
# 6 0.0000 0.0000 0.0000 0.0000 0.0000 1.4036
#
#
#
# Elastic Compliance Matrix: (Units=1/GPa)
#
#
# Indices 1 2 3 4 5 6 
#
# 1 0.013335 -0.003590 -0.000087 0.000000 0.000000 0.000000
# 2 -0.003590 0.007427 -0.002369 0.000000 0.000000 0.000000
# 3 -0.000087 -0.002369 0.015079 0.000000 0.000000 0.000000
# 4 0.000000 0.000000 0.000000 0.284518 0.000000 0.000000
# 5 0.000000 0.000000 0.000000 0.000000 0.168120 0.000000
# 6 0.000000 0.000000 0.000000 0.000000 0.000000 0.712448
#
#
# Mechanical properties :
#
#
# Convention : Reuss Voigt Hill
#
# Bulk Modulus (GPa) = 42.10777 53.10661 47.60719
# Shear Modulus (GPa) = 4.09522 18.43287 11.26405
#
# Velocity S-wave (km/s) = 1.54982 3.28805 2.57033
# Velocity P-wave (km/s) = 5.28201 6.75005 6.06065
#
# Compressibility (1/GPa) = 0.02374859
#
# Stress axis : x y z
#
# Youngs Moduli (GPa) = 74.99242 134.64590 66.31604
#
# Poissons Ratio (x) = 0.48335 0.00578
# Poissons Ratio (y) = 0.26921 0.15711
# Poissons Ratio (z) = 0.00654 0.31899
#
# Static dielectric constant tensor:
#      x y z
#    x 1.534210 0.000000 0.000000 
#    y 0.000000 1.607570 0.000000 
#    z 0.000000 0.000000 1.583200 
# 
# From -- ./inp_files/48663.got.cif
#   From: 2010.05.17/outbox.cif.g08.bks.cpg/sg71_25_cif.got.tgz:48663.got - 2010.06.03 16:22:01.
