data_PCOD9519780
_publ_section_title
;
Structure prediction by ZEFSAII (Michael W. Deem and Ramdas Pophale) SiO2 
 PCOD9519780
Probable space group: I M M M
;
_chemical_formula_sum "Si O2"
_cell_formula_units_Z 108
_cell_length_a 14.082558
_cell_length_b 22.687403
_cell_length_c 21.670166
_cell_angle_alpha 90.000000
_cell_angle_beta 90.000000
_cell_angle_gamma 90.000000
_cell_volume 6923.545845
_symmetry_space_group_name_H-M "I M M M"
_symmetry_group_IT_number 71
_symmetry_cell_setting 'orthorhombic'
loop_
_space_group_symop_operation_xyz
x,y,z
-x,-y,z
x,-y,-z
-x,y,-z
-x,-y,-z
x,y,-z
-x,y,z
x,-y,z
1/2+x,1/2+y,1/2+z
1/2-x,1/2-y,1/2+z
1/2+x,1/2-y,1/2-z
1/2-x,1/2+y,1/2-z
1/2-x,1/2-y,1/2-z
1/2+x,1/2+y,1/2-z
1/2-x,1/2+y,1/2+z
1/2+x,1/2-y,1/2+z
loop_
_atom_site_type_symbol
_atom_site_label
_atom_site_fract_x
_atom_site_fract_y
_atom_site_fract_z
Si Si1 0.206291 0.674747 0.188661
Si Si2 0.607195 0.067973 0.748258
Si Si3 0.612632 0.222409 0.570930
Si Si4 0.000000 0.577711 0.500000
Si Si5 0.000000 0.932837 0.926058
Si Si6 0.834343 0.849177 0.881874
Si Si7 0.842270 0.432788 0.391197
Si Si8 0.386703 0.289253 0.252997
O O1 0.180771 0.611850 0.216826
O O2 0.169623 0.682672 0.119218
O O3 0.316791 0.691094 0.197986
O O4 0.145821 0.723403 0.227639
O O5 0.500000 0.084825 0.729709
O O6 0.613938 0.070690 0.822519
O O7 0.623659 0.000000 0.730874
O O8 0.623084 0.204577 0.500000
O O9 0.500000 0.222783 0.586527
O O10 0.650072 0.289136 0.580051
O O11 0.917808 0.574749 0.554431
O O12 0.910241 0.897193 0.902244
O O13 0.000000 0.000000 0.904440
O O14 0.000000 0.932346 0.000000
O O15 0.734361 0.880590 0.892418
O O16 0.855896 0.829477 0.811556
O O17 0.802017 0.500000 0.397196
O O18 0.500000 0.292432 0.243072
#
# Coordination Sequence:
#
# PCOD9519780 Si02
#       8
#    16  16  16   4   8  16  16  16
#     4  10  19  34  55  77 102 134 174 212 264 325
#     4  10  19  33  52  75 102 131 172 222 264 307
#     4  10  20  35  56  78 103 133 167 211 261 320
#     4  12  25  40  48  60 100 154 196 226 257 298
#     4  11  22  32  44  69 101 137 175 216 254 290
#     4  11  19  34  51  70 101 133 174 217 259 303
#     4  11  22  34  48  67  96 142 186 219 253 297
#     4  10  19  33  54  78 102 133 169 218 265 308
#
# _framework density 15.598943
#
# number of rings (size 3 to 8) (size 9 to 14) (size 15 to 20)
#    0.000    1.556    3.704    3.778    2.074    0.000 
#    0.000    0.000    0.000    0.889    0.000    2.074 
#    0.000    0.000    0.000    1.333    0.000    0.148 
#
# Total GULP energy -300640.549885 kJ/mol
# GULP energy per Si atom -5567.417590 kJ/mol
# Density = 1.556344 g / cm^3
# Si number density = 15.598943 Si / 1000 Ang^3
#
#
#
# Elastic Constant Matrix: (Units=GPa)
#
#
# Indices 1 2 3 4 5 6 
#
# 1 107.5783 26.0832 32.2251 0.0000 0.0000 0.0000
# 2 26.0832 52.1949 21.8498 0.0000 0.0000 0.0000
# 3 32.2251 21.8498 68.0741 0.0000 0.0000 0.0000
# 4 0.0000 0.0000 0.0000 7.9897 0.0000 0.0000
# 5 0.0000 0.0000 0.0000 0.0000 21.2490 0.0000
# 6 0.0000 0.0000 0.0000 0.0000 0.0000 14.9275
#
#
#
# Elastic Compliance Matrix: (Units=1/GPa)
#
#
# Indices 1 2 3 4 5 6 
#
# 1 0.011515 -0.004012 -0.004164 0.000000 0.000000 0.000000
# 2 -0.004012 0.023530 -0.005654 0.000000 0.000000 0.000000
# 3 -0.004164 -0.005654 0.018475 0.000000 0.000000 0.000000
# 4 0.000000 0.000000 0.000000 0.125162 0.000000 0.000000
# 5 0.000000 0.000000 0.000000 0.000000 0.047061 0.000000
# 6 0.000000 0.000000 0.000000 0.000000 0.000000 0.066991
#
#
# Mechanical properties :
#
#
# Convention : Reuss Voigt Hill
#
# Bulk Modulus (GPa) = 38.66413 43.12928 40.89670
# Shear Modulus (GPa) = 15.19696 18.67918 16.93807
#
# Velocity S-wave (km/s) = 3.12465 3.46419 3.29879
# Velocity P-wave (km/s) = 6.15289 6.61133 6.38623
#
# Compressibility (1/GPa) = 0.02586377
#
# Stress axis : x y z
#
# Youngs Moduli (GPa) = 86.84025 42.49832 54.12581
#
# Poissons Ratio (x) = 0.17049 0.22536
# Poissons Ratio (y) = 0.34837 0.30600
# Poissons Ratio (z) = 0.36157 0.24027
#
# Static dielectric constant tensor:
#      x y z
#    x 1.557540 0.000000 0.000000 
#    y 0.000000 1.513050 0.000000 
#    z 0.000000 0.000000 1.518280 
# 
# From -- ./inp_files/59061.got.cif
#   From: 2010.05.17/outbox.cif.g08.bks.cpg/sg71_30_cif.got.tgz:59061.got - 2010.06.03 16:22:01.
