data_PCOD9519064
_publ_section_title
;
Structure prediction by ZEFSAII (Michael W. Deem and Ramdas Pophale) SiO2 
 PCOD9519064
Probable space group: I M M M
;
_chemical_formula_sum "Si O2"
_cell_formula_units_Z 80
_cell_length_a 14.312387
_cell_length_b 21.365073
_cell_length_c 14.777041
_cell_angle_alpha 90.000000
_cell_angle_beta 90.000000
_cell_angle_gamma 90.000000
_cell_volume 4518.600335
_symmetry_space_group_name_H-M "I M M M"
_symmetry_group_IT_number 71
_symmetry_cell_setting 'orthorhombic'
loop_
_space_group_symop_operation_xyz
x,y,z
-x,-y,z
x,-y,-z
-x,y,-z
-x,-y,-z
x,y,-z
-x,y,z
x,-y,z
1/2+x,1/2+y,1/2+z
1/2-x,1/2-y,1/2+z
1/2+x,1/2-y,1/2-z
1/2-x,1/2+y,1/2-z
1/2-x,1/2-y,1/2-z
1/2+x,1/2+y,1/2-z
1/2-x,1/2+y,1/2+z
1/2+x,1/2-y,1/2+z
loop_
_atom_site_type_symbol
_atom_site_label
_atom_site_fract_x
_atom_site_fract_y
_atom_site_fract_z
Si Si1 0.608104 0.134643 0.709201
Si Si2 0.296560 0.246168 0.606319
Si Si3 0.271740 0.500000 0.390975
Si Si4 0.105837 0.308261 0.600808
Si Si5 0.107810 0.123061 0.109824
Si Si6 0.388361 0.000000 0.747084
O O1 0.500000 0.146080 0.683854
O O2 0.669225 0.187127 0.662023
O O3 0.614757 0.143329 0.817765
O O4 0.632172 0.062953 0.691396
O O5 0.319390 0.237922 0.500000
O O6 0.185873 0.257227 0.614018
O O7 0.345573 0.311039 0.637786
O O8 0.258600 0.500000 0.500000
O O9 0.331246 0.562252 0.365739
O O10 0.175663 0.500000 0.335998
O O11 0.121136 0.335816 0.500000
O O12 0.000000 0.283463 0.604164
O O13 0.000000 0.118642 0.140189
O O14 0.106846 0.123935 0.000000
O O15 0.500000 0.000000 0.768036
#
# Coordination Sequence:
#
# PCOD9519064 Si02
#       6
#    16  16   8  16  16   8
#     4  10  20  34  51  71  99 132 165 207 253 294
#     4  10  19  32  53  78 101 129 167 209 250 293
#     4  10  19  31  48  70  98 132 164 196 240 294
#     4   9  18  32  50  75 105 133 162 197 241 297
#     4   9  17  29  46  71 102 131 159 194 240 296
#     4  10  22  36  48  66  94 129 167 207 251 295
#
# _framework density 17.704598000000001
#
# number of rings (size 3 to 8) (size 9 to 14) (size 15 to 20)
#    0.000    2.400    0.000    2.700    0.000    5.000 
#    0.000    2.500    0.000    3.000    0.000    0.000 
#    0.000    3.200    0.000    0.000    0.000    1.400 
#
# Total GULP energy -223063.480782 kJ/mol
# GULP energy per Si atom -5576.587020 kJ/mol
# Density = 1.766430 g / cm^3
# Si number density = 17.704598 Si / 1000 Ang^3
#
#
#
# Elastic Constant Matrix: (Units=GPa)
#
#
# Indices 1 2 3 4 5 6 
#
# 1 86.9030 62.2324 20.8784 0.0004 0.0000 -0.0001
# 2 62.2324 150.9179 37.9283 0.0006 0.0000 -0.0001
# 3 20.8784 37.9283 28.0367 0.0012 0.0001 -0.0003
# 4 0.0004 0.0006 0.0012 8.5305 0.0000 -0.0001
# 5 0.0000 0.0000 0.0001 0.0000 16.1403 0.0000
# 6 -0.0001 -0.0001 -0.0003 -0.0001 0.0000 13.9306
#
#
#
# Elastic Compliance Matrix: (Units=1/GPa)
#
#
# Indices 1 2 3 4 5 6 
#
# 1 0.016734 -0.005710 -0.004737 0.000000 0.000000 0.000000
# 2 -0.005710 0.011988 -0.011965 0.000001 0.000000 0.000000
# 3 -0.004737 -0.011965 0.055382 -0.000007 0.000000 0.000001
# 4 0.000000 0.000001 -0.000007 0.117226 0.000000 0.000001
# 5 0.000000 0.000000 0.000000 0.000000 0.061957 0.000000
# 6 0.000000 0.000000 0.000001 0.000001 0.000000 0.071784
#
#
# Mechanical properties :
#
#
# Convention : Reuss Voigt Hill
#
# Bulk Modulus (GPa) = 25.45871 56.43732 40.94801
# Shear Modulus (GPa) = 12.72305 17.37484 15.04894
#
# Velocity S-wave (km/s) = 2.68363 3.13609 2.91864
# Velocity P-wave (km/s) = 4.90035 6.71266 5.87679
#
# Compressibility (1/GPa) = 0.03927929
#
# Stress axis : x y z
#
# Youngs Moduli (GPa) = 59.75793 83.41898 18.05654
#
# Poissons Ratio (x) = 0.47632 0.08554
# Poissons Ratio (y) = 0.34122 0.21605
# Poissons Ratio (z) = 0.28308 0.99810
#
# Static dielectric constant tensor:
#      x y z
#    x 1.629360 0.000000 0.000000 
#    y 0.000000 1.601440 0.000000 
#    z 0.000000 0.000000 1.616660 
# 
# From -- ./inp_files/44626.got.cif
#   From: 2010.05.17/outbox.cif.g08.bks.cpg/sg71_23_cif.got.tgz:44626.got - 2010.06.03 16:22:01.
