data_PCOD9519878
_publ_section_title
;
Structure prediction by ZEFSAII (Michael W. Deem and Ramdas Pophale) SiO2 
 PCOD9519878
Probable space group: I M M M
;
_chemical_formula_sum "Si O2"
_cell_formula_units_Z 96
_cell_length_a 12.371526
_cell_length_b 29.098274
_cell_length_c 13.204907
_cell_angle_alpha 90.000000
_cell_angle_beta 90.000000
_cell_angle_gamma 90.000000
_cell_volume 4753.635175
_symmetry_space_group_name_H-M "I M M M"
_symmetry_group_IT_number 71
_symmetry_cell_setting 'orthorhombic'
loop_
_space_group_symop_operation_xyz
x,y,z
-x,-y,z
x,-y,-z
-x,y,-z
-x,-y,-z
x,y,-z
-x,y,z
x,-y,z
1/2+x,1/2+y,1/2+z
1/2-x,1/2-y,1/2+z
1/2+x,1/2-y,1/2-z
1/2-x,1/2+y,1/2-z
1/2-x,1/2-y,1/2-z
1/2+x,1/2+y,1/2-z
1/2-x,1/2+y,1/2+z
1/2+x,1/2-y,1/2+z
loop_
_atom_site_type_symbol
_atom_site_label
_atom_site_fract_x
_atom_site_fract_y
_atom_site_fract_z
Si Si1 0.779333 0.308158 0.623201
Si Si2 0.125624 0.596430 0.383430
Si Si3 0.873305 0.550982 0.821764
Si Si4 0.763033 0.861028 0.379901
Si Si5 0.000000 0.151143 0.622226
Si Si6 0.000000 0.740790 0.622008
Si Si7 0.625199 0.228062 0.376277
O O1 0.778258 0.307711 0.500000
O O2 0.795140 0.361867 0.646931
O O3 0.888931 0.282362 0.655378
O O4 0.678945 0.276527 0.654537
O O5 0.144675 0.582973 0.500000
O O6 0.134455 0.557101 0.300007
O O7 0.000000 0.613547 0.378623
O O8 0.837576 0.500000 0.852465
O O9 0.806763 0.593262 0.865577
O O10 0.000000 0.555983 0.848662
O O11 0.775490 0.853271 0.500000
O O12 0.884673 0.866635 0.338043
O O13 0.699165 0.815369 0.344061
O O14 0.000000 0.205430 0.642089
O O15 0.000000 0.143705 0.500000
O O16 0.000000 0.735986 0.500000
O O17 0.626219 0.227330 0.500000
O O18 0.500000 0.223792 0.346930
#
# Coordination Sequence:
#
# PCOD9519878 Si02
#       7
#    16  16  16  16   8   8  16
#     4   9  14  23  44  73 103 133 168 205 244 293
#     4   9  17  31  54  80 103 131 169 214 261 304
#     4  10  22  38  54  75 103 133 168 214 266 315
#     4  10  19  33  54  78 105 138 174 210 250 299
#     4   9  16  28  51  80 104 133 174 213 248 290
#     4   9  12  20  42  73 101 130 165 203 245 289
#     4   9  16  25  42  71 108 146 173 196 237 296
#
# _framework density 20.195070000000001
#
# number of rings (size 3 to 8) (size 9 to 14) (size 15 to 20)
#    0.000    2.667    2.500    0.500    0.000    1.667 
#    0.000    3.750    1.833    1.500    0.000    0.000 
#    0.000    1.333    0.000    0.000    0.000    0.000 
#
# Total GULP energy -268034.628723 kJ/mol
# GULP energy per Si atom -5584.054765 kJ/mol
# Density = 2.014911 g / cm^3
# Si number density = 20.195070 Si / 1000 Ang^3
#
#
#
# Elastic Constant Matrix: (Units=GPa)
#
#
# Indices 1 2 3 4 5 6 
#
# 1 124.3680 61.3954 14.8141 0.0000 0.0000 0.0000
# 2 61.3954 83.8792 -9.6066 0.0001 0.0000 0.0000
# 3 14.8141 -9.6066 40.7523 0.0005 0.0000 0.0000
# 4 0.0000 0.0001 0.0005 15.7518 0.0000 0.0000
# 5 0.0000 0.0000 0.0000 0.0000 26.9922 0.0000
# 6 0.0000 0.0000 0.0000 0.0000 0.0000 23.4115
#
#
#
# Elastic Compliance Matrix: (Units=1/GPa)
#
#
# Indices 1 2 3 4 5 6 
#
# 1 0.014838 -0.011797 -0.008175 0.000000 0.000000 0.000000
# 2 -0.011797 0.021632 0.009388 0.000000 0.000000 0.000000
# 3 -0.008175 0.009388 0.029723 -0.000001 0.000000 0.000000
# 4 0.000000 0.000000 -0.000001 0.063485 0.000000 0.000000
# 5 0.000000 0.000000 0.000000 0.000000 0.037048 0.000000
# 6 0.000000 0.000000 0.000000 0.000000 0.000000 0.042714
#
#
# Mechanical properties :
#
#
# Convention : Reuss Voigt Hill
#
# Bulk Modulus (GPa) = 22.20996 42.46727 32.33861
# Shear Modulus (GPa) = 20.35697 25.39088 22.87392
#
# Velocity S-wave (km/s) = 3.17837 3.54966 3.36914
# Velocity P-wave (km/s) = 4.94884 6.15421 5.58414
#
# Compressibility (1/GPa) = 0.04502484
#
# Stress axis : x y z
#
# Youngs Moduli (GPa) = 67.39421 46.22814 33.64389
#
# Poissons Ratio (x) = 0.54535 0.27503
# Poissons Ratio (y) = 0.79505 -0.31584
# Poissons Ratio (z) = 0.55093 -0.43397
#
# Static dielectric constant tensor:
#      x y z
#    x 1.704410 0.000000 0.000000 
#    y 0.000000 1.662790 0.000000 
#    z 0.000000 0.000000 1.832660 
# 
# From -- ./inp_files/33203.got.cif
#   From: 2010.05.17/outbox.cif.g08.bks.cpg/sg71_17_cif.got.tgz:33203.got - 2010.06.03 16:22:01.
