data_PCOD9519997
_publ_section_title
;
Structure prediction by ZEFSAII (Michael W. Deem and Ramdas Pophale) SiO2 
 PCOD9519997
Probable space group: I M M M
;
_chemical_formula_sum "Si O2"
_cell_formula_units_Z 72
_cell_length_a 24.288347
_cell_length_b 17.308130
_cell_length_c 9.367254
_cell_angle_alpha 90.000000
_cell_angle_beta 90.000000
_cell_angle_gamma 90.000000
_cell_volume 3937.861198
_symmetry_space_group_name_H-M "I M M M"
_symmetry_group_IT_number 71
_symmetry_cell_setting 'orthorhombic'
loop_
_space_group_symop_operation_xyz
x,y,z
-x,-y,z
x,-y,-z
-x,y,-z
-x,-y,-z
x,y,-z
-x,y,z
x,-y,z
1/2+x,1/2+y,1/2+z
1/2-x,1/2-y,1/2+z
1/2+x,1/2-y,1/2-z
1/2-x,1/2+y,1/2-z
1/2-x,1/2-y,1/2-z
1/2+x,1/2+y,1/2-z
1/2-x,1/2+y,1/2+z
1/2+x,1/2-y,1/2+z
loop_
_atom_site_type_symbol
_atom_site_label
_atom_site_fract_x
_atom_site_fract_y
_atom_site_fract_z
Si Si1 0.500000 0.413089 0.269213
Si Si2 0.805825 0.767877 0.331724
Si Si3 0.624463 0.415399 0.169003
Si Si4 0.566583 0.000000 0.668601
Si Si5 0.500000 0.241265 0.659630
Si Si6 0.093852 0.655807 0.668531
O O1 0.500000 0.500000 0.334153
O O2 0.558406 0.407968 0.187269
O O3 0.500000 0.333363 0.353949
O O4 0.794232 0.779743 0.500000
O O5 0.750000 0.750000 0.250000
O O6 0.839865 0.843157 0.276202
O O7 0.846815 0.695249 0.320476
O O8 0.639938 0.500000 0.229515
O O9 0.634256 0.416855 0.000000
O O10 0.588910 0.075020 0.750150
O O11 0.500000 0.000000 0.680224
O O12 0.580342 0.000000 0.500000
O O13 0.500000 0.206353 0.500000
O O14 0.448231 0.212429 0.750517
O O15 0.079806 0.648617 0.500000
#
# Coordination Sequence:
#
# PCOD9519997 Si02
#       6
#     8  16  16   8   8  16
#     4  10  19  33  56  87 122 154 191 231 292 356
#     4  10  22  40  61  85 115 155 203 249 293 346
#     4   9  17  32  57  88 118 148 189 238 287 346
#     4  11  23  39  61  95 130 156 192 239 302 365
#     4  12  23  35  57  89 124 159 196 240 297 360
#     4  11  23  40  63  88 118 158 202 246 299 359
#
# _framework density 18.284037000000001
#
# number of rings (size 3 to 8) (size 9 to 14) (size 15 to 20)
#    0.000    1.667    3.333    1.667    0.000    4.667 
#    2.000    0.000    0.000    0.000    0.000    0.000 
#    0.000    0.000    0.000    0.000    0.000    0.000 
#
# Total GULP energy -200645.808395 kJ/mol
# GULP energy per Si atom -5573.494678 kJ/mol
# Density = 1.824242 g / cm^3
# Si number density = 18.284037 Si / 1000 Ang^3
#
#
#
# Elastic Constant Matrix: (Units=GPa)
#
#
# Indices 1 2 3 4 5 6 
#
# 1 124.1439 62.8568 58.2636 0.0000 0.0000 0.0000
# 2 62.8568 169.5328 63.3124 0.0000 0.0000 0.0000
# 3 58.2636 63.3124 111.3856 0.0000 0.0000 0.0000
# 4 0.0000 0.0000 0.0000 7.2838 0.0000 0.0000
# 5 0.0000 0.0000 0.0000 0.0000 5.9225 0.0000
# 6 0.0000 0.0000 0.0000 0.0000 0.0000 13.9897
#
#
#
# Elastic Compliance Matrix: (Units=1/GPa)
#
#
# Indices 1 2 3 4 5 6 
#
# 1 0.011488 -0.002558 -0.004555 0.000000 0.000000 0.000000
# 2 -0.002558 0.008058 -0.003242 0.000000 0.000000 0.000000
# 3 -0.004555 -0.003242 0.013203 0.000000 0.000000 0.000000
# 4 0.000000 0.000000 0.000000 0.137291 0.000000 0.000000
# 5 0.000000 0.000000 0.000000 0.000000 0.168847 0.000000
# 6 0.000000 0.000000 0.000000 0.000000 0.000000 0.071481
#
#
# Mechanical properties :
#
#
# Convention : Reuss Voigt Hill
#
# Bulk Modulus (GPa) = 83.06598 85.99200 84.52899
# Shear Modulus (GPa) = 11.49182 20.14783 15.81983
#
# Velocity S-wave (km/s) = 2.50974 3.32314 2.94466
# Velocity P-wave (km/s) = 7.34356 7.86496 7.60873
#
# Compressibility (1/GPa) = 0.01203862
#
# Stress axis : x y z
#
# Youngs Moduli (GPa) = 87.04474 124.10327 75.73901
#
# Poissons Ratio (x) = 0.31750 0.34500
# Poissons Ratio (y) = 0.22269 0.24554
# Poissons Ratio (z) = 0.39650 0.40233
#
# Static dielectric constant tensor:
#      x y z
#    x 1.604080 0.000000 0.000000 
#    y 0.000000 1.675230 0.000000 
#    z 0.000000 0.000000 1.614330 
# 
# From -- ./inp_files/12221.got.cif
#   From: 2010.05.17/outbox.cif.g08.bks.cpg/sg71_7_cif.got.tgz:12221.got - 2010.06.03 16:22:01.
