data_PCOD9519430
_publ_section_title
;
Structure prediction by ZEFSAII (Michael W. Deem and Ramdas Pophale) SiO2 
 PCOD9519430
Probable space group: I M M M
;
_chemical_formula_sum "Si O2"
_cell_formula_units_Z 104
_cell_length_a 18.764780
_cell_length_b 14.505910
_cell_length_c 18.746392
_cell_angle_alpha 90.000000
_cell_angle_beta 90.000000
_cell_angle_gamma 90.000000
_cell_volume 5102.771836
_symmetry_space_group_name_H-M "I M M M"
_symmetry_group_IT_number 71
_symmetry_cell_setting 'orthorhombic'
loop_
_space_group_symop_operation_xyz
x,y,z
-x,-y,z
x,-y,-z
-x,y,-z
-x,-y,-z
x,y,-z
-x,y,z
x,-y,z
1/2+x,1/2+y,1/2+z
1/2-x,1/2-y,1/2+z
1/2+x,1/2-y,1/2-z
1/2-x,1/2+y,1/2-z
1/2-x,1/2-y,1/2-z
1/2+x,1/2+y,1/2-z
1/2-x,1/2+y,1/2+z
1/2+x,1/2-y,1/2+z
loop_
_atom_site_type_symbol
_atom_site_label
_atom_site_fract_x
_atom_site_fract_y
_atom_site_fract_z
Si Si1 0.872485 0.389334 0.319416
Si Si2 0.000000 0.387653 0.579858
Si Si3 0.132836 0.393708 0.837169
Si Si4 0.804969 0.106970 0.344454
Si Si5 0.782963 0.286025 0.577996
Si Si6 0.080192 0.110311 0.221981
Si Si7 0.612361 0.721671 0.420724
O O1 0.867061 0.500000 0.317113
O O2 0.892712 0.359914 0.240252
O O3 0.802378 0.347382 0.353764
O O4 0.931691 0.359917 0.375628
O O5 0.000000 0.500000 0.577863
O O6 0.000000 0.352803 0.500000
O O7 0.113808 0.500000 0.848585
O O8 0.219523 0.389358 0.829560
O O9 0.101970 0.327607 0.897185
O O10 0.812885 0.183918 0.405553
O O11 0.856307 0.133274 0.278008
O O12 0.820841 0.000000 0.363284
O O13 0.808424 0.319940 0.500000
O O14 0.697949 0.285276 0.575467
O O15 0.088035 0.159198 0.145313
O O16 0.000000 0.130809 0.250058
O O17 0.084995 0.000000 0.211445
O O18 0.584383 0.700625 0.500000
#
# Coordination Sequence:
#
# PCOD9519430 Si02
#       7
#    16   8  16  16  16  16  16
#     4  10  19  32  51  74 104 140 174 212 257 310
#     4   9  18  32  48  68 100 138 168 199 246 306
#     4   9  18  34  57  82 105 135 176 221 271 321
#     4   9  18  35  57  78 104 137 177 226 270 313
#     4  10  20  33  52  80 110 140 174 215 270 326
#     4  10  21  37  57  79 105 142 185 224 266 318
#     4  10  21  36  54  78 109 140 173 221 274 322
#
# _framework density 20.381080000000001
#
# number of rings (size 3 to 8) (size 9 to 14) (size 15 to 20)
#    0.000    2.385    0.000    2.308    0.000    6.462 
#    5.538    5.385    0.000    0.000    0.000    3.231 
#    0.000    0.000    0.000    0.000    0.000    0.000 
#
# Total GULP energy -289937.233253 kJ/mol
# GULP energy per Si atom -5575.716024 kJ/mol
# Density = 2.033469 g / cm^3
# Si number density = 20.381080 Si / 1000 Ang^3
#
#
#
# Elastic Constant Matrix: (Units=GPa)
#
#
# Indices 1 2 3 4 5 6 
#
# 1 35.3638 7.4806 8.3034 0.0000 0.0000 0.0000
# 2 7.4806 20.2302 -5.1576 0.0000 0.0000 0.0000
# 3 8.3034 -5.1576 47.4760 0.0000 0.0000 0.0000
# 4 0.0000 0.0000 0.0000 25.1116 0.0000 0.0000
# 5 0.0000 0.0000 0.0000 0.0000 28.0205 0.0000
# 6 0.0000 0.0000 0.0000 0.0000 0.0000 12.1916
#
#
#
# Elastic Compliance Matrix: (Units=1/GPa)
#
#
# Indices 1 2 3 4 5 6 
#
# 1 0.032961 -0.014047 -0.007291 0.000000 0.000000 0.000000
# 2 -0.014047 0.056825 0.008630 0.000000 0.000000 0.000000
# 3 -0.007291 0.008630 0.023276 0.000000 0.000000 0.000000
# 4 0.000000 0.000000 0.000000 0.039822 0.000000 0.000000
# 5 0.000000 0.000000 0.000000 0.000000 0.035688 0.000000
# 6 0.000000 0.000000 0.000000 0.000000 0.000000 0.082024
#
#
# Mechanical properties :
#
#
# Convention : Reuss Voigt Hill
#
# Bulk Modulus (GPa) = 11.40941 13.81365 12.61153
# Shear Modulus (GPa) = 15.37391 19.22765 17.30078
#
# Velocity S-wave (km/s) = 2.74947 3.07483 2.91669
# Velocity P-wave (km/s) = 3.96102 4.40437 4.18856
#
# Compressibility (1/GPa) = 0.08764697
#
# Stress axis : x y z
#
# Youngs Moduli (GPa) = 30.33921 17.59783 42.96287
#
# Poissons Ratio (x) = 0.24719 0.31323
# Poissons Ratio (y) = 0.42617 -0.37077
# Poissons Ratio (z) = 0.22119 -0.15187
#
# Static dielectric constant tensor:
#      x y z
#    x 1.810020 0.000000 0.000000 
#    y 0.000000 1.725620 0.000000 
#    z 0.000000 0.000000 1.718720 
# 
# From -- ./inp_files/47303.got.cif
#   From: 2010.05.17/outbox.cif.g08.bks.cpg/sg71_24_cif.got.tgz:47303.got - 2010.06.03 16:22:01.
