data_PCOD9519449
_publ_section_title
;
Structure prediction by ZEFSAII (Michael W. Deem and Ramdas Pophale) SiO2 
 PCOD9519449
Probable space group: I M M M
;
_chemical_formula_sum "Si O2"
_cell_formula_units_Z 88
_cell_length_a 31.686092
_cell_length_b 12.711361
_cell_length_c 13.741056
_cell_angle_alpha 90.000000
_cell_angle_beta 90.000000
_cell_angle_gamma 90.000000
_cell_volume 5534.531214
_symmetry_space_group_name_H-M "I M M M"
_symmetry_group_IT_number 71
_symmetry_cell_setting 'orthorhombic'
loop_
_space_group_symop_operation_xyz
x,y,z
-x,-y,z
x,-y,-z
-x,y,-z
-x,-y,-z
x,y,-z
-x,y,z
x,-y,z
1/2+x,1/2+y,1/2+z
1/2-x,1/2-y,1/2+z
1/2+x,1/2-y,1/2-z
1/2-x,1/2+y,1/2-z
1/2-x,1/2-y,1/2-z
1/2+x,1/2+y,1/2-z
1/2-x,1/2+y,1/2+z
1/2+x,1/2-y,1/2+z
loop_
_atom_site_type_symbol
_atom_site_label
_atom_site_fract_x
_atom_site_fract_y
_atom_site_fract_z
Si Si1 0.238219 0.120392 0.617191
Si Si2 0.239183 0.500000 0.617710
Si Si3 0.409105 0.207730 0.882311
Si Si4 0.700639 0.305154 0.616398
Si Si5 0.000000 0.622095 0.618148
Si Si6 0.851452 0.125990 0.283896
Si Si7 0.356500 0.000000 0.881725
O O1 0.235169 0.126124 0.500000
O O2 0.275897 0.197919 0.645445
O O3 0.192291 0.149942 0.658271
O O4 0.246855 0.000000 0.645198
O O5 0.236283 0.500000 0.500000
O O6 0.266224 0.602386 0.642843
O O7 0.191509 0.500000 0.654285
O O8 0.457133 0.181265 0.853702
O O9 0.388982 0.310133 0.833619
O O10 0.381102 0.105845 0.854018
O O11 0.407300 0.217974 0.000000
O O12 0.694181 0.306369 0.500000
O O13 0.658800 0.331143 0.676236
O O14 0.000000 0.500000 0.650949
O O15 0.000000 0.617971 0.500000
O O16 0.857445 0.000000 0.284491
O O17 0.355933 0.000000 0.000000
#
# Coordination Sequence:
#
# PCOD9519449 Si02
#       7
#    16   8  16  16   8  16   8
#     4   9  18  31  45  63  92 130 167 206 250 292
#     4   9  16  26  43  64  88 124 166 206 238 264
#     4  10  19  32  51  76 102 129 158 194 243 300
#     4  10  19  33  48  63  91 131 176 217 248 280
#     4   9  16  32  55  77 104 129 151 190 247 303
#     4  11  21  32  46  68  98 133 171 205 243 293
#     4   9  16  27  46  73 101 125 159 201 235 276
#
# _framework density 15.900172
#
# number of rings (size 3 to 8) (size 9 to 14) (size 15 to 20)
#    0.000    2.273    1.818    2.182    0.000    4.000 
#    1.636    0.455    0.000    1.636    0.000    0.636 
#    0.000    2.182    0.000    0.000    0.000    0.000 
#
# Total GULP energy -245506.442574 kJ/mol
# GULP energy per Si atom -5579.691877 kJ/mol
# Density = 1.586398 g / cm^3
# Si number density = 15.900172 Si / 1000 Ang^3
#
#
#
# Elastic Constant Matrix: (Units=GPa)
#
#
# Indices 1 2 3 4 5 6 
#
# 1 100.9598 50.5561 31.5832 0.0000 0.0000 0.0000
# 2 50.5561 92.5459 31.8109 0.0000 0.0000 0.0000
# 3 31.5832 31.8109 46.6197 0.0000 0.0000 0.0000
# 4 0.0000 0.0000 0.0000 19.2869 0.0000 0.0000
# 5 0.0000 0.0000 0.0000 0.0000 18.4316 0.0000
# 6 0.0000 0.0000 0.0000 0.0000 0.0000 24.3434
#
#
#
# Elastic Compliance Matrix: (Units=1/GPa)
#
#
# Indices 1 2 3 4 5 6 
#
# 1 0.014774 -0.006049 -0.005881 0.000000 0.000000 0.000000
# 2 -0.006049 0.016593 -0.007224 0.000000 0.000000 0.000000
# 3 -0.005881 -0.007224 0.030364 0.000000 0.000000 0.000000
# 4 0.000000 0.000000 0.000000 0.051849 0.000000 0.000000
# 5 0.000000 0.000000 0.000000 0.000000 0.054255 0.000000
# 6 0.000000 0.000000 0.000000 0.000000 0.000000 0.041079
#
#
# Mechanical properties :
#
#
# Convention : Reuss Voigt Hill
#
# Bulk Modulus (GPa) = 42.69521 52.00286 47.34904
# Shear Modulus (GPa) = 19.60557 20.82405 20.21481
#
# Velocity S-wave (km/s) = 3.51528 3.62287 3.56948
# Velocity P-wave (km/s) = 6.58685 7.09063 6.84338
#
# Compressibility (1/GPa) = 0.02342183
#
# Stress axis : x y z
#
# Youngs Moduli (GPa) = 67.68704 60.26569 32.93389
#
# Poissons Ratio (x) = 0.36456 0.19369
# Poissons Ratio (y) = 0.40945 0.23792
# Poissons Ratio (z) = 0.39808 0.43537
#
# Static dielectric constant tensor:
#      x y z
#    x 1.506090 0.000000 0.000000 
#    y 0.000000 1.542770 0.000000 
#    z 0.000000 0.000000 1.564180 
# 
# From -- ./inp_files/40191.got.cif
#   From: 2010.05.17/outbox.cif.g08.bks.cpg/sg71_21_cif.got.tgz:40191.got - 2010.06.03 16:22:01.
