data_PCOD9519104
_publ_section_title
;
Structure prediction by ZEFSAII (Michael W. Deem and Ramdas Pophale) SiO2 
 PCOD9519104
Probable space group: I M M M
;
_chemical_formula_sum "Si O2"
_cell_formula_units_Z 104
_cell_length_a 21.186214
_cell_length_b 33.057814
_cell_length_c 8.636817
_cell_angle_alpha 90.000000
_cell_angle_beta 90.000000
_cell_angle_gamma 90.000000
_cell_volume 6048.966847
_symmetry_space_group_name_H-M "I M M M"
_symmetry_group_IT_number 71
_symmetry_cell_setting 'orthorhombic'
loop_
_space_group_symop_operation_xyz
x,y,z
-x,-y,z
x,-y,-z
-x,y,-z
-x,-y,-z
x,y,-z
-x,y,z
x,-y,z
1/2+x,1/2+y,1/2+z
1/2-x,1/2-y,1/2+z
1/2+x,1/2-y,1/2-z
1/2-x,1/2+y,1/2-z
1/2-x,1/2-y,1/2-z
1/2+x,1/2+y,1/2-z
1/2-x,1/2+y,1/2+z
1/2+x,1/2-y,1/2+z
loop_
_atom_site_type_symbol
_atom_site_label
_atom_site_fract_x
_atom_site_fract_y
_atom_site_fract_z
Si Si1 0.705608 0.455069 0.815562
Si Si2 0.678877 0.843307 0.186375
Si Si3 0.571715 0.781985 0.811184
Si Si4 0.571973 0.687953 0.813349
Si Si5 0.425579 0.000000 0.323445
Si Si6 0.840805 0.435043 0.317015
Si Si7 0.181879 0.132170 0.814604
O O1 0.683590 0.500000 0.762858
O O2 0.779274 0.451229 0.771066
O O3 0.676771 0.414110 0.744224
O O4 0.698180 0.453351 0.000000
O O5 0.629670 0.809754 0.245321
O O6 0.650815 0.887763 0.215840
O O7 0.751647 0.847476 0.241716
O O8 0.682625 0.837653 0.000000
O O9 0.500000 0.793786 0.762430
O O10 0.581738 0.735009 0.769274
O O11 0.571503 0.783941 0.000000
O O12 0.500000 0.677030 0.770302
O O13 0.623689 0.659012 0.740147
O O14 0.576581 0.685710 0.000000
O O15 0.399343 0.038879 0.235892
O O16 0.500000 0.000000 0.325479
O O17 0.401661 0.000000 0.500000
O O18 0.829009 0.439537 0.500000
O O19 0.185054 0.130743 0.000000
#
# Coordination Sequence:
#
# PCOD9519104 Si02
#       7
#    16  16  16  16   8  16  16
#     4  10  19  32  53  76 100 131 165 201 246 303
#     4   8  16  29  45  72 104 129 161 210 259 304
#     4   8  14  27  48  71  97 133 173 210 252 303
#     4   9  18  33  53  75  99 131 171 211 251 303
#     4  11  23  35  45  61  91 133 178 219 260 309
#     4  10  19  31  49  71  97 127 164 214 264 307
#     4  10  20  32  49  76 107 136 167 207 256 303
#
# _framework density 17.193019
#
# number of rings (size 3 to 8) (size 9 to 14) (size 15 to 20)
#    0.000    2.692    0.769    3.462    0.000    3.077 
#    0.000    1.538    0.000    5.077    0.000    3.231 
#    0.000    0.000    0.000    0.000    0.000    0.000 
#
# Total GULP energy -289652.218105 kJ/mol
# GULP energy per Si atom -5570.234964 kJ/mol
# Density = 1.715389 g / cm^3
# Si number density = 17.193019 Si / 1000 Ang^3
#
#
#
# Elastic Constant Matrix: (Units=GPa)
#
#
# Indices 1 2 3 4 5 6 
#
# 1 112.7879 95.0525 29.4924 -0.0001 0.0001 0.0000
# 2 95.0525 125.7048 31.6415 0.0000 0.0000 0.0000
# 3 29.4924 31.6415 22.8185 -0.0004 0.0004 0.0003
# 4 -0.0001 0.0000 -0.0004 8.3264 -0.0001 -0.0002
# 5 0.0001 0.0000 0.0004 -0.0001 20.0371 0.0000
# 6 0.0000 0.0000 0.0003 -0.0002 0.0000 40.6173
#
#
#
# Elastic Compliance Matrix: (Units=1/GPa)
#
#
# Indices 1 2 3 4 5 6 
#
# 1 0.025755 -0.017045 -0.009652 0.000000 0.000000 0.000000
# 2 -0.017045 0.023502 -0.010558 -0.000001 0.000000 0.000000
# 3 -0.009652 -0.010558 0.070939 0.000003 -0.000001 -0.000001
# 4 0.000000 -0.000001 0.000003 0.120100 0.000000 0.000001
# 5 0.000000 0.000000 -0.000001 0.000000 0.049907 0.000000
# 6 0.000000 0.000000 -0.000001 0.000001 0.000000 0.024620
#
#
# Mechanical properties :
#
#
# Convention : Reuss Voigt Hill
#
# Bulk Modulus (GPa) = 21.88875 63.74268 42.81572
# Shear Modulus (GPa) = 12.35902 20.80448 16.58175
#
# Velocity S-wave (km/s) = 2.68403 3.48236 3.10892
# Velocity P-wave (km/s) = 4.72908 7.30235 6.15177
#
# Compressibility (1/GPa) = 0.04568556
#
# Stress axis : x y z
#
# Youngs Moduli (GPa) = 38.82720 42.54999 14.09659
#
# Poissons Ratio (x) = 0.72528 0.13606
# Poissons Ratio (y) = 0.66183 0.14883
# Poissons Ratio (z) = 0.37475 0.44924
#
# Static dielectric constant tensor:
#      x y z
#    x 1.574300 0.000000 0.000000 
#    y 0.000000 1.587900 0.000000 
#    z 0.000000 0.000000 1.592230 
# 
# From -- ./inp_files/11500.got.cif
#   From: 2010.05.17/outbox.cif.g08.bks.cpg/sg71_6_cif.got.tgz:11500.got - 2010.06.03 16:22:01.
