data_PCOD9519687
_publ_section_title
;
Structure prediction by ZEFSAII (Michael W. Deem and Ramdas Pophale) SiO2 
 PCOD9519687
Probable space group: I M M M
;
_chemical_formula_sum "Si O2"
_cell_formula_units_Z 52
_cell_length_a 11.913912
_cell_length_b 16.851023
_cell_length_c 12.503075
_cell_angle_alpha 90.000000
_cell_angle_beta 90.000000
_cell_angle_gamma 90.000000
_cell_volume 2510.137406
_symmetry_space_group_name_H-M "I M M M"
_symmetry_group_IT_number 71
_symmetry_cell_setting 'orthorhombic'
loop_
_space_group_symop_operation_xyz
x,y,z
-x,-y,z
x,-y,-z
-x,y,-z
-x,-y,-z
x,y,-z
-x,y,z
x,-y,z
1/2+x,1/2+y,1/2+z
1/2-x,1/2-y,1/2+z
1/2+x,1/2-y,1/2-z
1/2-x,1/2+y,1/2-z
1/2-x,1/2-y,1/2-z
1/2+x,1/2+y,1/2-z
1/2-x,1/2+y,1/2+z
1/2+x,1/2-y,1/2+z
loop_
_atom_site_type_symbol
_atom_site_label
_atom_site_fract_x
_atom_site_fract_y
_atom_site_fract_z
Si Si1 0.127945 0.620902 0.000000
Si Si2 0.131906 0.301396 0.625068
Si Si3 0.000000 0.914554 0.814499
Si Si4 0.500000 0.281535 0.500000
Si Si5 0.278921 0.629384 0.802996
O O1 0.103550 0.718014 0.000000
O O2 0.200543 0.597421 0.102658
O O3 0.000000 0.590396 0.000000
O O4 0.146321 0.317865 0.500000
O O5 0.200542 0.359819 0.699993
O O6 0.178307 0.214467 0.653209
O O7 0.000000 0.303674 0.650938
O O8 0.891269 0.911067 0.738714
O O9 0.000000 0.000000 0.871450
O O10 0.000000 0.839384 0.896493
#
# Coordination Sequence:
#
# PCOD9519687 Si02
#       5
#     8  16   8   4  16
#     4  10  22  38  67  99 121 154 198 291 327 355
#     4  10  19  32  56  88 119 150 193 276 322 354
#     4  12  27  41  60  89 137 184 207 241 297 407
#     4  10  21  42  64 100 123 150 218 258 332 356
#     4  11  21  36  56  89 128 159 207 249 321 374
#
# _framework density 20.715997999999999
#
# number of rings (size 3 to 8) (size 9 to 14) (size 15 to 20)
#    0.462    0.923    3.077    4.846    2.154    0.615 
#    0.000    1.538    0.000    4.615    0.000    2.154 
#    0.000    0.000    0.000    0.000    0.000    0.000 
#
# Total GULP energy -145172.238701 kJ/mol
# GULP energy per Si atom -5583.547642 kJ/mol
# Density = 2.066885 g / cm^3
# Si number density = 20.715998 Si / 1000 Ang^3
#
#
#
# Elastic Constant Matrix: (Units=GPa)
#
#
# Indices 1 2 3 4 5 6 
#
# 1 195.6887 21.5658 105.7971 0.0000 0.0000 0.0000
# 2 21.5658 67.5056 36.6430 0.0001 0.0000 0.0000
# 3 105.7971 36.6430 109.6404 0.0002 0.0000 0.0000
# 4 0.0000 0.0001 0.0002 -1.5070 0.0000 0.0000
# 5 0.0000 0.0000 0.0000 0.0000 32.1001 0.0000
# 6 0.0000 0.0000 0.0000 0.0000 0.0000 -43.5045
#
#
#
# Elastic Compliance Matrix: (Units=1/GPa)
#
#
# Indices 1 2 3 4 5 6 
#
# 1 0.011092 0.002769 -0.011628 -0.000001 0.000000 0.000000
# 2 0.002769 0.018788 -0.008950 0.000000 0.000000 0.000000
# 3 -0.011628 -0.008950 0.023333 0.000002 0.000000 0.000000
# 4 -0.000001 0.000000 0.000002 -0.663579 0.000000 0.000000
# 5 0.000000 0.000000 0.000000 0.000000 0.031153 0.000000
# 6 0.000000 0.000000 0.000000 0.000000 0.000000 -0.022986
#
#
# Mechanical properties :
#
#
# Convention : Reuss Voigt Hill
#
# Bulk Modulus (GPa) = 56.84511 77.87180 67.35846
# Shear Modulus (GPa) = -8.91716 11.33964 1.21124
#
# Velocity S-wave (km/s) = -2.07698 2.34217 0.76548
# Velocity P-wave (km/s) = 4.66347 6.70717 5.77642
#
# Compressibility (1/GPa) = 0.01759166
#
# Stress axis : x y z
#
# Youngs Moduli (GPa) = 90.15741 53.22662 42.85842
#
# Poissons Ratio (x) = -0.14736 0.49837
# Poissons Ratio (y) = -0.24960 0.38360
# Poissons Ratio (z) = 1.04837 0.47640
#
# Static dielectric constant tensor:
#      x y z
#    x 1.731470 0.000000 0.000000 
#    y 0.000000 1.733240 0.000000 
#    z 0.000000 0.000000 1.716470 
# 
# From -- ./inp_files/19294.got.cif
#   From: 2010.05.17/outbox.cif.g08.bks.cpg/sg71_10_cif.got.tgz:19294.got - 2010.06.03 16:22:01.
