data_PCOD9519121
_publ_section_title
;
Structure prediction by ZEFSAII (Michael W. Deem and Ramdas Pophale) SiO2 
 PCOD9519121
Probable space group: I M M M
;
_chemical_formula_sum "Si O2"
_cell_formula_units_Z 96
_cell_length_a 7.686791
_cell_length_b 29.966193
_cell_length_c 20.495281
_cell_angle_alpha 90.000000
_cell_angle_beta 90.000000
_cell_angle_gamma 90.000000
_cell_volume 4720.962192
_symmetry_space_group_name_H-M "I M M M"
_symmetry_group_IT_number 71
_symmetry_cell_setting 'orthorhombic'
loop_
_space_group_symop_operation_xyz
x,y,z
-x,-y,z
x,-y,-z
-x,y,-z
-x,-y,-z
x,y,-z
-x,y,z
x,-y,z
1/2+x,1/2+y,1/2+z
1/2-x,1/2-y,1/2+z
1/2+x,1/2-y,1/2-z
1/2-x,1/2+y,1/2-z
1/2-x,1/2-y,1/2-z
1/2+x,1/2+y,1/2-z
1/2-x,1/2+y,1/2+z
1/2+x,1/2-y,1/2+z
loop_
_atom_site_type_symbol
_atom_site_label
_atom_site_fract_x
_atom_site_fract_y
_atom_site_fract_z
Si Si1 0.798161 0.781536 0.427358
Si Si2 0.707811 0.554036 0.069635
Si Si3 0.710325 0.677983 0.572709
Si Si4 0.786200 0.051745 0.288956
Si Si5 0.697982 0.375866 0.306395
Si Si6 0.199131 0.297694 0.781537
O O1 0.726831 0.793372 0.500000
O O2 0.785037 0.727743 0.422339
O O3 0.717572 0.798304 0.359806
O O4 0.000000 0.794888 0.426680
O O5 0.500000 0.562526 0.068737
O O6 0.727655 0.500000 0.070282
O O7 0.773945 0.569408 0.139928
O O8 0.779212 0.570466 0.000000
O O9 0.745324 0.661078 0.500000
O O10 0.500000 0.683023 0.580254
O O11 0.777304 0.645709 0.629013
O O12 0.721604 0.082095 0.230197
O O13 0.000000 0.053502 0.289908
O O14 0.738352 0.000000 0.282434
O O15 0.500000 0.388516 0.323959
O O16 0.693669 0.336345 0.253212
O O17 0.250000 0.250000 0.750000
O O18 0.000000 0.305844 0.764175
#
# Coordination Sequence:
#
# PCOD9519121 Si02
#       6
#    16  16  16  16  16  16
#     4  10  20  34  53  76 102 133 170 210 250 299
#     4   7   9  15  30  53  81 113 149 189 233 281
#     4   9  17  29  46  68  95 130 170 210 252 300
#     4   8  14  25  42  65  93 126 165 209 257 304
#     4  10  19  31  49  73 100 131 169 213 258 307
#     4  12  23  35  52  74 103 136 169 209 256 307
#
# _framework density 20.334838999999999
#
# number of rings (size 3 to 8) (size 9 to 14) (size 15 to 20)
#    0.000    2.667    1.667    3.500    0.000    1.000 
#    0.000    0.833    0.000    4.000    0.000    3.500 
#    0.000    0.000    0.000   11.333    0.000   11.500 
#
# Total GULP energy -267576.230281 kJ/mol
# GULP energy per Si atom -5574.504798 kJ/mol
# Density = 2.028856 g / cm^3
# Si number density = 20.334839 Si / 1000 Ang^3
#
#
#
# Elastic Constant Matrix: (Units=GPa)
#
#
# Indices 1 2 3 4 5 6 
#
# 1 49.4647 -9.0633 0.1787 0.0000 0.0000 0.0000
# 2 -9.0633 34.9611 24.4554 0.0000 0.0000 0.0000
# 3 0.1787 24.4554 136.6501 0.0000 0.0000 0.0000
# 4 0.0000 0.0000 0.0000 24.8114 0.0000 0.0000
# 5 0.0000 0.0000 0.0000 0.0000 9.6545 0.0000
# 6 0.0000 0.0000 0.0000 0.0000 0.0000 -1.8286
#
#
#
# Elastic Compliance Matrix: (Units=1/GPa)
#
#
# Indices 1 2 3 4 5 6 
#
# 1 0.021386 0.006360 -0.001166 0.000000 0.000000 0.000000
# 2 0.006360 0.034588 -0.006198 0.000000 0.000000 0.000000
# 3 -0.001166 -0.006198 0.008429 0.000000 0.000000 0.000000
# 4 0.000000 0.000000 0.000000 0.040304 0.000000 0.000000
# 5 0.000000 0.000000 0.000000 0.000000 0.103578 0.000000
# 6 0.000000 0.000000 0.000000 0.000000 0.000000 -0.546879
#
#
# Mechanical properties :
#
#
# Convention : Reuss Voigt Hill
#
# Bulk Modulus (GPa) = 16.02737 28.02415 22.02576
# Shear Modulus (GPa) = -15.83345 20.22782 2.19718
#
# Velocity S-wave (km/s) = -2.79343 3.15737 1.04060
# Velocity P-wave (km/s) = 1.58288 5.20608 3.50697
#
# Compressibility (1/GPa) = 0.06239325
#
# Stress axis : x y z
#
# Youngs Moduli (GPa) = 46.75965 28.91204 118.64166
#
# Poissons Ratio (x) = -0.18388 0.13835
# Poissons Ratio (y) = -0.29738 0.73537
# Poissons Ratio (z) = 0.05453 0.17920
#
# Static dielectric constant tensor:
#      x y z
#    x 0.533260 0.000000 0.000000 
#    y 0.000000 1.717200 0.000000 
#    z 0.000000 0.000000 1.770240 
# 
# From -- ./inp_files/50800.got.cif
#   From: 2010.05.17/outbox.cif.g08.bks.cpg/sg71_26_cif.got.tgz:50800.got - 2010.06.03 16:22:01.
