data_PCOD9519888
_publ_section_title
;
Structure prediction by ZEFSAII (Michael W. Deem and Ramdas Pophale) SiO2 
 PCOD9519888
Probable space group: I M M M
;
_chemical_formula_sum "Si O2"
_cell_formula_units_Z 104
_cell_length_a 20.046658
_cell_length_b 28.621522
_cell_length_c 9.519305
_cell_angle_alpha 90.000000
_cell_angle_beta 90.000000
_cell_angle_gamma 90.000000
_cell_volume 5461.852248
_symmetry_space_group_name_H-M "I M M M"
_symmetry_group_IT_number 71
_symmetry_cell_setting 'orthorhombic'
loop_
_space_group_symop_operation_xyz
x,y,z
-x,-y,z
x,-y,-z
-x,y,-z
-x,-y,-z
x,y,-z
-x,y,z
x,-y,z
1/2+x,1/2+y,1/2+z
1/2-x,1/2-y,1/2+z
1/2+x,1/2-y,1/2-z
1/2-x,1/2+y,1/2-z
1/2-x,1/2-y,1/2-z
1/2+x,1/2+y,1/2-z
1/2-x,1/2+y,1/2+z
1/2+x,1/2-y,1/2+z
loop_
_atom_site_type_symbol
_atom_site_label
_atom_site_fract_x
_atom_site_fract_y
_atom_site_fract_z
Si Si1 0.728885 0.000000 0.341027
Si Si2 0.390885 0.500000 0.838110
Si Si3 0.578887 0.234842 0.344585
Si Si4 0.274779 0.089745 0.162170
Si Si5 0.614082 0.407808 0.336289
Si Si6 0.115887 0.628374 0.833620
Si Si7 0.500000 0.945052 0.670377
Si Si8 0.579571 0.682416 0.843179
O O1 0.707660 0.955500 0.253561
O O2 0.703209 0.000000 0.500000
O O3 0.809736 0.000000 0.345768
O O4 0.408820 0.453513 0.750883
O O5 0.414984 0.500000 0.000000
O O6 0.607758 0.244369 0.500000
O O7 0.500000 0.244570 0.352375
O O8 0.585213 0.179867 0.316520
O O9 0.606625 0.270411 0.229095
O O10 0.194935 0.094069 0.167108
O O11 0.317421 0.128470 0.241099
O O12 0.294010 0.085179 0.000000
O O13 0.593726 0.410339 0.500000
O O14 0.590753 0.361391 0.258312
O O15 0.064313 0.587048 0.790312
O O16 0.130180 0.621826 0.000000
O O17 0.500000 0.946365 0.500000
O O18 0.500000 0.000000 0.717171
O O19 0.500000 0.687496 0.857087
O O20 0.607173 0.674271 0.000000
#
# Coordination Sequence:
#
# PCOD9519888 Si02
#       8
#     8   8  16  16  16  16   8  16
#     4   9  17  31  51  73  97 137 185 218 253 308
#     4   9  17  31  54  80 108 140 175 215 258 304
#     4   9  17  33  55  77 103 137 181 226 267 321
#     4  10  21  34  50  76 110 142 176 221 268 315
#     4  10  20  36  56  79 110 147 181 215 260 318
#     4  10  19  33  54  79 106 143 187 225 268 322
#     4   9  18  32  51  79 113 145 184 231 270 311
#     4  10  21  36  57  84 109 133 171 223 276 322
#
# _framework density 19.041159
#
# number of rings (size 3 to 8) (size 9 to 14) (size 15 to 20)
#    0.000    2.385    0.769    1.846    1.077    5.231 
#    0.000    1.538    0.000    2.769    0.000    0.000 
#    0.000    0.000    0.000    0.000    0.000    0.000 
#
# Total GULP energy -289792.186007 kJ/mol
# GULP energy per Si atom -5572.926654 kJ/mol
# Density = 1.899782 g / cm^3
# Si number density = 19.041159 Si / 1000 Ang^3
#
#
#
# Elastic Constant Matrix: (Units=GPa)
#
#
# Indices 1 2 3 4 5 6 
#
# 1 19.0092 7.7957 22.7706 0.0000 0.0000 0.0000
# 2 7.7957 111.0241 73.3845 0.0000 0.0000 0.0000
# 3 22.7706 73.3845 143.9304 0.0000 0.0000 0.0000
# 4 0.0000 0.0000 0.0000 29.0259 0.0000 0.0000
# 5 0.0000 0.0000 0.0000 0.0000 21.2293 0.0000
# 6 0.0000 0.0000 0.0000 0.0000 0.0000 -25.2251
#
#
#
# Elastic Compliance Matrix: (Units=1/GPa)
#
#
# Indices 1 2 3 4 5 6 
#
# 1 0.065750 0.003407 -0.012139 0.000000 0.000000 0.000000
# 2 0.003407 0.013762 -0.007556 0.000000 0.000000 0.000000
# 3 -0.012139 -0.007556 0.012721 0.000000 0.000000 0.000000
# 4 0.000000 0.000000 0.000000 0.034452 0.000000 0.000000
# 5 0.000000 0.000000 0.000000 0.000000 0.047105 0.000000
# 6 0.000000 0.000000 0.000000 0.000000 0.000000 -0.039643
#
#
# Mechanical properties :
#
#
# Convention : Reuss Voigt Hill
#
# Bulk Modulus (GPa) = 16.76249 53.54058 35.15154
# Shear Modulus (GPa) = 26.79420 16.34022 21.56721
#
# Velocity S-wave (km/s) = 3.75530 2.93260 3.36916
# Velocity P-wave (km/s) = 5.25599 6.29653 5.79964
#
# Compressibility (1/GPa) = 0.05965701
#
# Stress axis : x y z
#
# Youngs Moduli (GPa) = 15.20912 72.66395 78.61247
#
# Poissons Ratio (x) = -0.24756 0.95428
# Poissons Ratio (y) = -0.05182 0.59397
# Poissons Ratio (z) = 0.18462 0.54903
#
# Static dielectric constant tensor:
#      x y z
#    x 1.681300 0.000000 0.000000 
#    y 0.000000 1.688460 0.000000 
#    z 0.000000 0.000000 1.666920 
# 
# From -- ./inp_files/11214.got.cif
#   From: 2010.05.17/outbox.cif.g08.bks.cpg/sg71_6_cif.got.tgz:11214.got - 2010.06.03 16:22:01.
