data_PCOD9519299
_publ_section_title
;
Structure prediction by ZEFSAII (Michael W. Deem and Ramdas Pophale) SiO2 
 PCOD9519299
Probable space group: I M M M
;
_chemical_formula_sum "Si O2"
_cell_formula_units_Z 92
_cell_length_a 26.947861
_cell_length_b 18.944780
_cell_length_c 9.658857
_cell_angle_alpha 90.000000
_cell_angle_beta 90.000000
_cell_angle_gamma 90.000000
_cell_volume 4931.052214
_symmetry_space_group_name_H-M "I M M M"
_symmetry_group_IT_number 71
_symmetry_cell_setting 'orthorhombic'
loop_
_space_group_symop_operation_xyz
x,y,z
-x,-y,z
x,-y,-z
-x,y,-z
-x,-y,-z
x,y,-z
-x,y,z
x,-y,z
1/2+x,1/2+y,1/2+z
1/2-x,1/2-y,1/2+z
1/2+x,1/2-y,1/2-z
1/2-x,1/2+y,1/2-z
1/2-x,1/2-y,1/2-z
1/2+x,1/2+y,1/2-z
1/2-x,1/2+y,1/2+z
1/2+x,1/2-y,1/2+z
loop_
_atom_site_type_symbol
_atom_site_label
_atom_site_fract_x
_atom_site_fract_y
_atom_site_fract_z
Si Si1 0.418890 0.852543 0.219695
Si Si2 0.000000 0.395436 0.500000
Si Si3 0.850773 0.158480 0.335426
Si Si4 0.689939 0.188377 0.155801
Si Si5 0.943290 0.801689 0.165924
Si Si6 0.247250 0.080242 0.664175
Si Si7 0.943437 0.416843 0.000000
O O1 0.365122 0.844234 0.154834
O O2 0.439121 0.774524 0.258990
O O3 0.415692 0.892146 0.364308
O O4 0.457000 0.891044 0.120071
O O5 0.863671 0.164255 0.500000
O O6 0.820877 0.230923 0.298799
O O7 0.899771 0.154523 0.241261
O O8 0.811282 0.096255 0.316939
O O9 0.722664 0.139669 0.253831
O O10 0.710691 0.190292 0.000000
O O11 0.000000 0.827543 0.184364
O O12 0.934540 0.794443 0.000000
O O13 0.257304 0.087163 0.500000
O O14 0.259307 0.000000 0.706881
O O15 0.947414 0.500000 0.000000
O O16 0.000000 0.386616 0.000000
#
# Coordination Sequence:
#
# PCOD9519299 Si02
#       7
#    16   4  16  16  16  16   8
#     4  11  21  35  53  79 106 146 182 227 282 328
#     4  12  20  34  59  72 114 144 185 236 278 332
#     4   9  20  36  57  84 113 145 183 229 279 333
#     4  10  21  35  55  84 111 140 183 231 283 331
#     4  10  19  31  54  85 116 139 174 223 272 333
#     4  10  22  40  59  80 109 147 188 231 281 337
#     4  11  22  36  50  66  97 143 192 228 270 328
#
# _framework density 18.657274999999998
#
# number of rings (size 3 to 8) (size 9 to 14) (size 15 to 20)
#    0.000    1.826    3.478    0.522    2.435    2.783 
#    0.000    0.870    0.000    0.522    0.000    3.652 
#    0.000    0.000    0.000    0.000    0.000    0.000 
#
# Total GULP energy -256083.132590 kJ/mol
# GULP energy per Si atom -5567.024622 kJ/mol
# Density = 1.861481 g / cm^3
# Si number density = 18.657275 Si / 1000 Ang^3
#
#
#
# Elastic Constant Matrix: (Units=GPa)
#
#
# Indices 1 2 3 4 5 6 
#
# 1 86.9606 16.2681 33.3478 0.0000 0.0000 0.0000
# 2 16.2681 23.8405 11.9380 0.0000 0.0000 0.0000
# 3 33.3478 11.9380 86.8936 0.0000 0.0000 0.0000
# 4 0.0000 0.0000 0.0000 14.2871 0.0000 0.0000
# 5 0.0000 0.0000 0.0000 0.0000 46.9228 0.0000
# 6 0.0000 0.0000 0.0000 0.0000 0.0000 4.3981
#
#
#
# Elastic Compliance Matrix: (Units=1/GPa)
#
#
# Indices 1 2 3 4 5 6 
#
# 1 0.014704 -0.007740 -0.004580 0.000000 0.000000 0.000000
# 2 -0.007740 0.049119 -0.003778 0.000000 0.000000 0.000000
# 3 -0.004580 -0.003778 0.013785 0.000000 0.000000 0.000000
# 4 0.000000 0.000000 0.000000 0.069993 0.000000 0.000000
# 5 0.000000 0.000000 0.000000 0.000000 0.021312 0.000000
# 6 0.000000 0.000000 0.000000 0.000000 0.000000 0.227370
#
#
# Mechanical properties :
#
#
# Convention : Reuss Voigt Hill
#
# Bulk Modulus (GPa) = 22.02039 35.64473 28.83256
# Shear Modulus (GPa) = 11.27105 22.19765 16.73435
#
# Velocity S-wave (km/s) = 2.46053 3.45303 2.99814
# Velocity P-wave (km/s) = 4.46100 5.91983 5.24141
#
# Compressibility (1/GPa) = 0.04541245
#
# Stress axis : x y z
#
# Youngs Moduli (GPa) = 68.01045 20.35876 72.54342
#
# Poissons Ratio (x) = 0.15758 0.33221
# Poissons Ratio (y) = 0.52642 0.27405
# Poissons Ratio (z) = 0.31146 0.07691
#
# Static dielectric constant tensor:
#      x y z
#    x 1.661120 0.000000 0.000000 
#    y 0.000000 1.647860 0.000000 
#    z 0.000000 0.000000 1.651690 
# 
# From -- ./inp_files/11009.got.cif
#   From: 2010.05.17/outbox.cif.g08.bks.cpg/sg71_6_cif.got.tgz:11009.got - 2010.06.03 16:22:01.
