data_PCOD9519435
_publ_section_title
;
Structure prediction by ZEFSAII (Michael W. Deem and Ramdas Pophale) SiO2 
 PCOD9519435
Probable space group: I M M M
;
_chemical_formula_sum "Si O2"
_cell_formula_units_Z 80
_cell_length_a 7.375872
_cell_length_b 22.602992
_cell_length_c 22.456058
_cell_angle_alpha 90.000000
_cell_angle_beta 90.000000
_cell_angle_gamma 90.000000
_cell_volume 3743.801587
_symmetry_space_group_name_H-M "I M M M"
_symmetry_group_IT_number 71
_symmetry_cell_setting 'orthorhombic'
loop_
_space_group_symop_operation_xyz
x,y,z
-x,-y,z
x,-y,-z
-x,y,-z
-x,-y,-z
x,y,-z
-x,y,z
x,-y,z
1/2+x,1/2+y,1/2+z
1/2-x,1/2-y,1/2+z
1/2+x,1/2-y,1/2-z
1/2-x,1/2+y,1/2-z
1/2-x,1/2-y,1/2-z
1/2+x,1/2+y,1/2-z
1/2-x,1/2+y,1/2+z
1/2+x,1/2-y,1/2+z
loop_
_atom_site_type_symbol
_atom_site_label
_atom_site_fract_x
_atom_site_fract_y
_atom_site_fract_z
Si Si1 0.221345 0.115931 0.860165
Si Si2 0.715342 0.432020 0.765508
Si Si3 0.278486 0.267089 0.430251
Si Si4 0.779215 0.000000 0.067713
Si Si5 0.278340 0.067433 0.500000
Si Si6 0.217358 0.359901 0.114387
O O1 0.282998 0.102799 0.792849
O O2 0.280711 0.175603 0.893042
O O3 0.000000 0.118125 0.859719
O O4 0.276392 0.058947 0.898312
O O5 0.500000 0.437777 0.757138
O O6 0.785485 0.500000 0.770399
O O7 0.741848 0.392990 0.824294
O O8 0.223138 0.267750 0.500000
O O9 0.500000 0.267530 0.431179
O O10 0.219467 0.207054 0.397061
O O11 0.000000 0.000000 0.067669
O O12 0.718378 0.000000 0.000000
O O13 0.500000 0.067989 0.500000
O O14 0.217818 0.100899 0.559048
O O15 0.220051 0.000000 0.500000
O O16 0.000000 0.357483 0.110523
#
# Coordination Sequence:
#
# PCOD9519435 Si02
#       6
#    16  16  16   8   8  16
#     4   9  16  27  44  67  99 135 163 196 245 295
#     4  10  20  34  49  69 102 138 167 198 243 295
#     4   9  16  28  47  72  99 126 161 208 254 293
#     4   9  14  22  40  68  97 128 167 202 238 289
#     4   9  16  28  47  69  91 118 158 206 249 283
#     4  10  19  32  51  74  98 127 165 207 251 295
#
# _framework density 21.368652000000001
#
# number of rings (size 3 to 8) (size 9 to 14) (size 15 to 20)
#    0.000    2.600    2.000    1.200    0.000    4.400 
#    0.000    0.500    0.000    1.800    0.000    0.000 
#    0.000    3.200    0.000    0.000    0.000    0.000 
#
# Total GULP energy -223388.841229 kJ/mol
# GULP energy per Si atom -5584.721031 kJ/mol
# Density = 2.132002 g / cm^3
# Si number density = 21.368652 Si / 1000 Ang^3
#
#
#
# Elastic Constant Matrix: (Units=GPa)
#
#
# Indices 1 2 3 4 5 6 
#
# 1 74.5645 6.7698 0.2065 0.0000 0.0000 0.0000
# 2 6.7698 251.8467 145.0038 0.0000 0.0000 0.0000
# 3 0.2065 145.0038 238.8474 0.0000 0.0000 0.0000
# 4 0.0000 0.0000 0.0000 41.7963 0.0000 0.0000
# 5 0.0000 0.0000 0.0000 0.0000 201.7024 0.0000
# 6 0.0000 0.0000 0.0000 0.0000 0.0000 -2.4969
#
#
#
# Elastic Compliance Matrix: (Units=1/GPa)
#
#
# Indices 1 2 3 4 5 6 
#
# 1 0.013460 -0.000546 0.000320 0.000000 0.000000 0.000000
# 2 -0.000546 0.006127 -0.003719 0.000000 0.000000 0.000000
# 3 0.000320 -0.003719 0.006444 0.000000 0.000000 0.000000
# 4 0.000000 0.000000 0.000000 0.023926 0.000000 0.000000
# 5 0.000000 0.000000 0.000000 0.000000 0.004958 0.000000
# 6 0.000000 0.000000 0.000000 0.000000 0.000000 -0.400497
#
#
# Mechanical properties :
#
#
# Convention : Reuss Voigt Hill
#
# Bulk Modulus (GPa) = 55.12515 96.57986 75.85251
# Shear Modulus (GPa) = -15.07631 75.75226 30.33797
#
# Velocity S-wave (km/s) = -2.65907 5.96046 3.77203
# Velocity P-wave (km/s) = 4.05286 9.62625 7.38547
#
# Compressibility (1/GPa) = 0.01814054
#
# Stress axis : x y z
#
# Youngs Moduli (GPa) = 74.29483 163.22308 155.17651
#
# Poissons Ratio (x) = 0.08911 -0.04963
# Poissons Ratio (y) = 0.04056 0.57710
# Poissons Ratio (z) = -0.02376 0.60702
#
# Static dielectric constant tensor:
#      x y z
#    x 1.858940 0.000000 0.000000 
#    y 0.000000 1.734380 0.000000 
#    z 0.000000 0.000000 1.731280 
# 
# From -- ./inp_files/43272.got.cif
#   From: 2010.05.17/outbox.cif.g08.bks.cpg/sg71_22_cif.got.tgz:43272.got - 2010.06.03 16:22:01.
