data_PCOD9519353
_publ_section_title
;
Structure prediction by ZEFSAII (Michael W. Deem and Ramdas Pophale) SiO2 
 PCOD9519353
Probable space group: I M M M
;
_chemical_formula_sum "Si O2"
_cell_formula_units_Z 104
_cell_length_a 28.216463
_cell_length_b 12.201209
_cell_length_c 18.182123
_cell_angle_alpha 90.000000
_cell_angle_beta 90.000000
_cell_angle_gamma 90.000000
_cell_volume 6259.649710
_symmetry_space_group_name_H-M "I M M M"
_symmetry_group_IT_number 71
_symmetry_cell_setting 'orthorhombic'
loop_
_space_group_symop_operation_xyz
x,y,z
-x,-y,z
x,-y,-z
-x,y,-z
-x,-y,-z
x,y,-z
-x,y,z
x,-y,z
1/2+x,1/2+y,1/2+z
1/2-x,1/2-y,1/2+z
1/2+x,1/2-y,1/2-z
1/2-x,1/2+y,1/2-z
1/2-x,1/2-y,1/2-z
1/2+x,1/2+y,1/2-z
1/2-x,1/2+y,1/2+z
1/2+x,1/2-y,1/2+z
loop_
_atom_site_type_symbol
_atom_site_label
_atom_site_fract_x
_atom_site_fract_y
_atom_site_fract_z
Si Si1 0.686714 0.629844 0.587287
Si Si2 0.780251 0.238679 0.589515
Si Si3 0.625316 0.128728 0.911790
Si Si4 0.000000 0.867201 0.083045
Si Si5 0.191815 0.000000 0.589074
Si Si6 0.554972 0.280697 0.828646
Si Si7 0.591710 0.631825 0.322056
Si Si8 0.920421 0.000000 0.412238
O O1 0.677228 0.649213 0.500000
O O2 0.697421 0.500000 0.594367
O O3 0.731993 0.700757 0.610835
O O4 0.640563 0.654340 0.635773
O O5 0.780279 0.237075 0.500000
O O6 0.826942 0.306875 0.610848
O O7 0.785364 0.113435 0.615704
O O8 0.580974 0.184181 0.872091
O O9 0.629547 0.000000 0.896254
O O10 0.620325 0.142306 0.000000
O O11 0.952555 0.837116 0.126226
O O12 0.000000 0.000000 0.079815
O O13 0.000000 0.825321 0.000000
O O14 0.135847 0.000000 0.605416
O O15 0.195549 0.000000 0.500000
O O16 0.500000 0.257927 0.812232
O O17 0.583748 0.307661 0.754547
O O18 0.557965 0.390735 0.877733
O O19 0.589230 0.500000 0.308989
O O20 0.925761 0.000000 0.500000
#
# Coordination Sequence:
#
# PCOD9519353 Si02
#       8
#    16  16  16   8   8  16  16   8
#     4   9  17  30  52  80 108 139 178 218 258 312
#     4   9  16  30  53  80 107 136 172 217 265 312
#     4  10  21  37  57  78 103 138 181 223 262 311
#     4   9  16  28  50  76 107 142 177 215 258 318
#     4   9  16  29  52  79 106 135 172 215 263 313
#     4  12  23  35  53  75 108 143 176 221 272 320
#     4  10  19  32  49  76 111 143 175 213 270 320
#     4  11  21  34  53  78 104 138 181 220 260 314
#
# _framework density 16.614348
#
# number of rings (size 3 to 8) (size 9 to 14) (size 15 to 20)
#    0.000    2.077    3.077    1.615    0.000    5.538 
#    0.000    1.538    1.692    0.000    0.000    0.000 
#    0.000    0.615    0.000    0.000    0.000    0.000 
#
# Total GULP energy -290082.277078 kJ/mol
# GULP energy per Si atom -5578.505328 kJ/mol
# Density = 1.657653 g / cm^3
# Si number density = 16.614348 Si / 1000 Ang^3
#
#
#
# Elastic Constant Matrix: (Units=GPa)
#
#
# Indices 1 2 3 4 5 6 
#
# 1 123.0086 66.7556 34.7635 0.0000 0.0000 0.0000
# 2 66.7556 102.2558 39.3266 0.0000 0.0000 0.0000
# 3 34.7635 39.3266 52.8668 0.0000 0.0000 0.0000
# 4 0.0000 0.0000 0.0000 15.9070 0.0000 0.0000
# 5 0.0000 0.0000 0.0000 0.0000 832.0704 0.0000
# 6 0.0000 0.0000 0.0000 0.0000 0.0000 25.3321
#
#
#
# Elastic Compliance Matrix: (Units=1/GPa)
#
#
# Indices 1 2 3 4 5 6 
#
# 1 0.012947 -0.007253 -0.003118 0.000000 0.000000 0.000000
# 2 -0.007253 0.017761 -0.008443 0.000000 0.000000 0.000000
# 3 -0.003118 -0.008443 0.027247 0.000000 0.000000 0.000000
# 4 0.000000 0.000000 0.000000 0.062866 0.000000 0.000000
# 5 0.000000 0.000000 0.000000 0.000000 0.001202 0.000000
# 6 0.000000 0.000000 0.000000 0.000000 0.000000 0.039476
#
#
# Mechanical properties :
#
#
# Convention : Reuss Voigt Hill
#
# Bulk Modulus (GPa) = 49.19685 62.20249 55.69967
# Shear Modulus (GPa) = 24.28348 183.81427 104.04888
#
# Velocity S-wave (km/s) = 3.82723 10.52977 7.92224
# Velocity P-wave (km/s) = 7.01467 13.61452 10.82960
#
# Compressibility (1/GPa) = 0.02032650
#
# Stress axis : x y z
#
# Youngs Moduli (GPa) = 77.23933 56.30187 36.70194
#
# Poissons Ratio (x) = 0.40835 0.11444
# Poissons Ratio (y) = 0.56020 0.30988
# Poissons Ratio (z) = 0.24084 0.47536
#
# Static dielectric constant tensor:
#      x y z
#    x 1.548020 0.000000 0.000000 
#    y 0.000000 1.544130 0.000000 
#    z 0.000000 0.000000 1.562300 
# 
# From -- ./inp_files/48905.got.cif
#   From: 2010.05.17/outbox.cif.g08.bks.cpg/sg71_25_cif.got.tgz:48905.got - 2010.06.03 16:22:01.
