data_PCOD9519111
_publ_section_title
;
Structure prediction by ZEFSAII (Michael W. Deem and Ramdas Pophale) SiO2 
 PCOD9519111
Probable space group: I M M M
;
_chemical_formula_sum "Si O2"
_cell_formula_units_Z 80
_cell_length_a 21.211308
_cell_length_b 7.350524
_cell_length_c 23.768534
_cell_angle_alpha 90.000000
_cell_angle_beta 90.000000
_cell_angle_gamma 90.000000
_cell_volume 3705.852642
_symmetry_space_group_name_H-M "I M M M"
_symmetry_group_IT_number 71
_symmetry_cell_setting 'orthorhombic'
loop_
_space_group_symop_operation_xyz
x,y,z
-x,-y,z
x,-y,-z
-x,y,-z
-x,-y,-z
x,y,-z
-x,y,z
x,-y,z
1/2+x,1/2+y,1/2+z
1/2-x,1/2-y,1/2+z
1/2+x,1/2-y,1/2-z
1/2-x,1/2+y,1/2-z
1/2-x,1/2-y,1/2-z
1/2+x,1/2+y,1/2-z
1/2-x,1/2+y,1/2+z
1/2+x,1/2-y,1/2+z
loop_
_atom_site_type_symbol
_atom_site_label
_atom_site_fract_x
_atom_site_fract_y
_atom_site_fract_z
Si Si1 0.122794 0.278068 0.367124
Si Si2 0.500000 0.277661 0.564711
Si Si3 0.374614 0.283992 0.374284
Si Si4 0.752929 0.277529 0.434326
Si Si5 0.426961 0.217797 0.747216
Si Si6 0.000000 0.721623 0.563965
O O1 0.124546 0.500000 0.366329
O O2 0.186504 0.219395 0.398044
O O3 0.108345 0.217747 0.303506
O O4 0.062615 0.222306 0.403741
O O5 0.500000 0.500000 0.567294
O O6 0.500000 0.226056 0.500000
O O7 0.562874 0.212679 0.595241
O O8 0.373451 0.500000 0.383946
O O9 0.310505 0.215843 0.402550
O O10 0.386454 0.256949 0.308251
O O11 0.755059 0.221962 0.500000
O O12 0.753402 0.500000 0.434851
O O13 0.500000 0.284807 0.742779
O O14 0.431725 0.000000 0.751834
O O15 0.000000 0.500000 0.563935
O O16 0.000000 0.782409 0.500000
#
# Coordination Sequence:
#
# PCOD9519111 Si02
#       6
#    16   8  16  16  16   8
#     4   9  16  27  43  66  96 129 159 191 236 287
#     4   9  16  27  45  67  89 117 156 197 236 278
#     4  10  19  31  49  72  96 125 161 200 241 283
#     4   9  17  29  46  70  98 124 155 200 247 286
#     4  10  19  32  49  69  98 131 162 197 236 280
#     4   9  14  21  38  64  93 125 158 191 234 286
#
# _framework density 21.587475999999999
#
# number of rings (size 3 to 8) (size 9 to 14) (size 15 to 20)
#    0.000    2.600    2.000    1.200    0.000    5.600 
#    0.000    0.000    0.000    3.000    0.000    0.000 
#    0.000    3.200    0.000    0.000    0.000    0.000 
#
# Total GULP energy -223429.723543 kJ/mol
# GULP energy per Si atom -5585.743089 kJ/mol
# Density = 2.153834 g / cm^3
# Si number density = 21.587476 Si / 1000 Ang^3
#
#
#
# Elastic Constant Matrix: (Units=GPa)
#
#
# Indices 1 2 3 4 5 6 
#
# 1 235.9563 7.7128 141.0071 0.0000 0.0000 0.0000
# 2 7.7128 80.0835 -6.2202 0.0000 0.0000 0.0000
# 3 141.0071 -6.2202 225.0346 0.0000 0.0000 0.0000
# 4 0.0000 0.0000 0.0000 -7.5569 0.0000 0.0000
# 5 0.0000 0.0000 0.0000 0.0000 15.5514 0.0000
# 6 0.0000 0.0000 0.0000 0.0000 0.0000 -11.3376
#
#
#
# Elastic Compliance Matrix: (Units=1/GPa)
#
#
# Indices 1 2 3 4 5 6 
#
# 1 0.006853 -0.000996 -0.004322 0.000000 0.000000 0.000000
# 2 -0.000996 0.012659 0.000974 0.000000 0.000000 0.000000
# 3 -0.004322 0.000974 0.007179 0.000000 0.000000 0.000000
# 4 0.000000 0.000000 0.000000 -0.132330 0.000000 0.000000
# 5 0.000000 0.000000 0.000000 0.000000 0.064303 0.000000
# 6 0.000000 0.000000 0.000000 0.000000 0.000000 -0.088202
#
#
# Mechanical properties :
#
#
# Convention : Reuss Voigt Hill
#
# Bulk Modulus (GPa) = 55.54597 91.78598 73.66598
# Shear Modulus (GPa) = -43.53516 25.90304 -8.81606
#
# Velocity S-wave (km/s) = -4.49562 3.46773 -2.02305
# Velocity P-wave (km/s) = 1.07750 7.65794 5.36111
#
# Compressibility (1/GPa) = 0.01800310
#
# Stress axis : x y z
#
# Youngs Moduli (GPa) = 145.91409 78.99827 139.29997
#
# Poissons Ratio (x) = 0.07866 0.60203
# Poissons Ratio (y) = 0.14529 -0.13565
# Poissons Ratio (z) = 0.63062 -0.07693
#
# Static dielectric constant tensor:
#      x y z
#    x 1.740410 0.000000 0.000000 
#    y 0.000000 1.862190 0.000000 
#    z 0.000000 0.000000 1.747010 
# 
# From -- ./inp_files/25560.got.cif
#   From: 2010.05.17/outbox.cif.g08.bks.cpg/sg71_13_cif.got.tgz:25560.got - 2010.06.03 16:22:01.
