data_PCOD9519052
_publ_section_title
;
Structure prediction by ZEFSAII (Michael W. Deem and Ramdas Pophale) SiO2 
 PCOD9519052
Probable space group: I M M M
;
_chemical_formula_sum "Si O2"
_cell_formula_units_Z 72
_cell_length_a 8.689504
_cell_length_b 19.550812
_cell_length_c 28.601622
_cell_angle_alpha 90.000000
_cell_angle_beta 90.000000
_cell_angle_gamma 90.000000
_cell_volume 4859.039726
_symmetry_space_group_name_H-M "I M M M"
_symmetry_group_IT_number 71
_symmetry_cell_setting 'orthorhombic'
loop_
_space_group_symop_operation_xyz
x,y,z
-x,-y,z
x,-y,-z
-x,y,-z
-x,-y,-z
x,y,-z
-x,y,z
x,-y,z
1/2+x,1/2+y,1/2+z
1/2-x,1/2-y,1/2+z
1/2+x,1/2-y,1/2-z
1/2-x,1/2+y,1/2-z
1/2-x,1/2-y,1/2-z
1/2+x,1/2+y,1/2-z
1/2-x,1/2+y,1/2+z
1/2+x,1/2-y,1/2+z
loop_
_atom_site_type_symbol
_atom_site_label
_atom_site_fract_x
_atom_site_fract_y
_atom_site_fract_z
Si Si1 0.816385 0.357924 0.270455
Si Si2 0.683853 0.000000 0.346481
Si Si3 0.317657 0.500000 0.257413
Si Si4 0.684191 0.628180 0.902942
Si Si5 0.184903 0.781698 0.319230
Si Si6 0.184306 0.580447 0.000000
O O1 0.735010 0.429480 0.281181
O O2 0.776392 0.296123 0.305753
O O3 0.763889 0.330181 0.219482
O O4 0.000000 0.367403 0.270183
O O5 0.754433 0.065334 0.372133
O O6 0.500000 0.000000 0.350758
O O7 0.733572 0.000000 0.292784
O O8 0.500000 0.500000 0.250449
O O9 0.500000 0.624586 0.906990
O O10 0.724454 0.694376 0.871503
O O11 0.756103 0.618405 0.953803
O O12 0.000000 0.789742 0.313500
O O13 0.235816 0.500000 0.000000
O O14 0.000000 0.579570 0.000000
#
# Coordination Sequence:
#
# PCOD9519052 Si02
#       6
#    16   8   8  16  16   8
#     4  10  19  31  48  69  93 123 157 194 236 280
#     4  12  22  31  45  68  92 124 162 199 238 281
#     4  12  22  32  45  67  96 127 163 200 233 275
#     4  11  21  34  51  68  91 124 160 199 241 282
#     4   9  19  33  48  68  94 122 155 195 238 284
#     4  11  23  35  47  67  96 125 162 203 234 270
#
# _framework density 14.817743
#
# number of rings (size 3 to 8) (size 9 to 14) (size 15 to 20)
#    0.000    1.444    3.333    3.667    0.000    2.222 
#    0.000    0.000    0.000    0.000    0.000    0.000 
#    0.000    0.889    0.000   10.222    0.000    4.000 
#
# Total GULP energy -200929.663979 kJ/mol
# GULP energy per Si atom -5581.379555 kJ/mol
# Density = 1.478402 g / cm^3
# Si number density = 14.817743 Si / 1000 Ang^3
#
#
#
# Elastic Constant Matrix: (Units=GPa)
#
#
# Indices 1 2 3 4 5 6 
#
# 1 37.0699 26.0866 26.1247 0.0000 0.0000 0.0000
# 2 26.0866 99.7044 47.4907 0.0000 0.0000 0.0000
# 3 26.1247 47.4907 96.2447 0.0000 0.0000 0.0000
# 4 0.0000 0.0000 0.0000 21.4202 0.0000 0.0000
# 5 0.0000 0.0000 0.0000 0.0000 21.0392 0.0000
# 6 0.0000 0.0000 0.0000 0.0000 0.0000 21.3846
#
#
#
# Elastic Compliance Matrix: (Units=1/GPa)
#
#
# Indices 1 2 3 4 5 6 
#
# 1 0.036107 -0.006247 -0.006718 0.000000 0.000000 0.000000
# 2 -0.006247 0.014192 -0.005307 0.000000 0.000000 0.000000
# 3 -0.006718 -0.005307 0.014833 0.000000 0.000000 0.000000
# 4 0.000000 0.000000 0.000000 0.046685 0.000000 0.000000
# 5 0.000000 0.000000 0.000000 0.000000 0.047530 0.000000
# 6 0.000000 0.000000 0.000000 0.000000 0.000000 0.046763
#
#
# Mechanical properties :
#
#
# Convention : Reuss Voigt Hill
#
# Bulk Modulus (GPa) = 34.98165 48.04703 41.51434
# Shear Modulus (GPa) = 19.82687 21.65660 20.74173
#
# Velocity S-wave (km/s) = 3.66190 3.82715 3.74544
# Velocity P-wave (km/s) = 6.44504 7.21284 6.83973
#
# Compressibility (1/GPa) = 0.02858641
#
# Stress axis : x y z
#
# Youngs Moduli (GPa) = 27.69559 70.46234 67.41911
#
# Poissons Ratio (x) = 0.44017 0.45295
# Poissons Ratio (y) = 0.17301 0.35781
# Poissons Ratio (z) = 0.18607 0.37396
#
# Static dielectric constant tensor:
#      x y z
#    x 1.495100 0.000000 0.000000 
#    y 0.000000 1.500950 0.000000 
#    z 0.000000 0.000000 1.480060 
# 
# From -- ./inp_files/48559.got.cif
#   From: 2010.05.17/outbox.cif.g08.bks.cpg/sg71_25_cif.got.tgz:48559.got - 2010.06.03 16:22:01.
