data_PCOD9519650
_publ_section_title
;
Structure prediction by ZEFSAII (Michael W. Deem and Ramdas Pophale) SiO2 
 PCOD9519650
Probable space group: I M M M
;
_chemical_formula_sum "Si O2"
_cell_formula_units_Z 108
_cell_length_a 17.909501
_cell_length_b 14.579470
_cell_length_c 21.109802
_cell_angle_alpha 90.000000
_cell_angle_beta 90.000000
_cell_angle_gamma 90.000000
_cell_volume 5512.002197
_symmetry_space_group_name_H-M "I M M M"
_symmetry_group_IT_number 71
_symmetry_cell_setting 'orthorhombic'
loop_
_space_group_symop_operation_xyz
x,y,z
-x,-y,z
x,-y,-z
-x,y,-z
-x,-y,-z
x,y,-z
-x,y,z
x,-y,z
1/2+x,1/2+y,1/2+z
1/2-x,1/2-y,1/2+z
1/2+x,1/2-y,1/2-z
1/2-x,1/2+y,1/2-z
1/2-x,1/2-y,1/2-z
1/2+x,1/2+y,1/2-z
1/2-x,1/2+y,1/2+z
1/2+x,1/2-y,1/2+z
loop_
_atom_site_type_symbol
_atom_site_label
_atom_site_fract_x
_atom_site_fract_y
_atom_site_fract_z
Si Si1 0.500000 0.000000 0.586252
Si Si2 0.411698 0.111041 0.068761
Si Si3 0.583791 0.730820 0.300826
Si Si4 0.713332 0.392034 0.904130
Si Si5 0.586504 0.387923 0.000000
Si Si6 0.118070 0.669609 0.071189
Si Si7 0.628041 0.897079 0.208176
Si Si8 0.718194 0.352661 0.243457
O O1 0.566017 0.080272 0.583188
O O2 0.500000 0.130927 0.071165
O O3 0.378433 0.139539 0.136244
O O4 0.403784 0.000000 0.067866
O O5 0.382919 0.144733 0.000000
O O6 0.500000 0.699941 0.293118
O O7 0.599922 0.761255 0.372338
O O8 0.594757 0.822887 0.257111
O O9 0.640546 0.652708 0.279110
O O10 0.718916 0.500000 0.917637
O O11 0.793130 0.351102 0.924696
O O12 0.707047 0.377274 0.829286
O O13 0.638614 0.359449 0.940444
O O14 0.582084 0.500000 0.000000
O O15 0.500000 0.355183 0.000000
O O16 0.101330 0.701687 0.000000
O O17 0.714521 0.907034 0.225717
O O18 0.593537 0.000000 0.213081
O O19 0.750000 0.250000 0.250000
#
# Coordination Sequence:
#
# PCOD9519650 Si02
#       8
#     4  16  16  16   8  16  16  16
#     4  12  25  32  52  92 136 144 183 236 295 354
#     4   8  14  26  45  72 105 134 162 209 272 324
#     4  11  24  37  54  76 112 152 187 228 277 342
#     4  11  20  34  60  83 111 149 191 235 293 339
#     4   9  20  36  56  86 112 140 187 239 282 339
#     4  12  22  34  53  86 120 154 184 231 286 349
#     4  10  19  32  55  81 104 135 184 232 276 335
#     4  10  21  36  51  74 109 149 185 225 271 329
#
# _framework density 19.593605
#
# number of rings (size 3 to 8) (size 9 to 14) (size 15 to 20)
#    0.000    1.704    5.185    2.000    1.037    1.481 
#    0.000    0.741    6.519    1.333    0.000    0.000 
#    0.000    0.000    0.000    9.037    0.000    0.000 
#
# Total GULP energy -300615.468962 kJ/mol
# GULP energy per Si atom -5566.953129 kJ/mol
# Density = 1.954901 g / cm^3
# Si number density = 19.593605 Si / 1000 Ang^3
#
#
#
# Elastic Constant Matrix: (Units=GPa)
#
#
# Indices 1 2 3 4 5 6 
#
# 1 155.9004 -3.3928 43.1692 0.0000 0.0000 0.0000
# 2 -3.3928 16.5600 -2.3373 0.0000 0.0000 0.0000
# 3 43.1692 -2.3373 154.9669 0.0000 0.0000 0.0000
# 4 0.0000 0.0000 0.0000 -83.7526 0.0000 0.0000
# 5 0.0000 0.0000 0.0000 0.0000 18.9392 0.0000
# 6 0.0000 0.0000 0.0000 0.0000 0.0000 -116.2353
#
#
#
# Elastic Compliance Matrix: (Units=1/GPa)
#
#
# Indices 1 2 3 4 5 6 
#
# 1 0.006973 0.001157 -0.001925 0.000000 0.000000 0.000000
# 2 0.001157 0.060707 0.000593 0.000000 0.000000 0.000000
# 3 -0.001925 0.000593 0.006998 0.000000 0.000000 0.000000
# 4 0.000000 0.000000 0.000000 -0.011940 0.000000 0.000000
# 5 0.000000 0.000000 0.000000 0.000000 0.052800 0.000000
# 6 0.000000 0.000000 0.000000 0.000000 0.000000 -0.008603
#
#
# Mechanical properties :
#
#
# Convention : Reuss Voigt Hill
#
# Bulk Modulus (GPa) = 13.45379 44.70060 29.07719
# Shear Modulus (GPa) = 37.86140 -16.87719 10.49210
#
# Velocity S-wave (km/s) = 4.40060 -2.93808 2.31657
# Velocity P-wave (km/s) = 5.71854 3.36952 4.69337
#
# Compressibility (1/GPa) = 0.07432850
#
# Stress axis : x y z
#
# Youngs Moduli (GPa) = 143.41986 16.47253 142.89471
#
# Poissons Ratio (x) = -0.01906 0.27506
# Poissons Ratio (y) = -0.16592 -0.08479
# Poissons Ratio (z) = 0.27607 -0.00977
#
# Static dielectric constant tensor:
#      x y z
#    x 1.709670 0.000000 0.000000 
#    y 0.000000 1.696310 0.000000 
#    z 0.000000 0.000000 1.702600 
# 
# From -- ./inp_files/54308.got.cif
#   From: 2010.05.17/outbox.cif.g08.bks.cpg/sg71_28_cif.got.tgz:54308.got - 2010.06.03 16:22:01.
