data_PCOD9519087
_publ_section_title
;
Structure prediction by ZEFSAII (Michael W. Deem and Ramdas Pophale) SiO2 
 PCOD9519087
Probable space group: I M M M
;
_chemical_formula_sum "Si O2"
_cell_formula_units_Z 88
_cell_length_a 18.945919
_cell_length_b 12.919252
_cell_length_c 21.668157
_cell_angle_alpha 90.000000
_cell_angle_beta 90.000000
_cell_angle_gamma 90.000000
_cell_volume 5303.651993
_symmetry_space_group_name_H-M "I M M M"
_symmetry_group_IT_number 71
_symmetry_cell_setting 'orthorhombic'
loop_
_space_group_symop_operation_xyz
x,y,z
-x,-y,z
x,-y,-z
-x,y,-z
-x,-y,-z
x,y,-z
-x,y,z
x,-y,z
1/2+x,1/2+y,1/2+z
1/2-x,1/2-y,1/2+z
1/2+x,1/2-y,1/2-z
1/2-x,1/2+y,1/2-z
1/2-x,1/2-y,1/2-z
1/2+x,1/2+y,1/2-z
1/2-x,1/2+y,1/2+z
1/2+x,1/2-y,1/2+z
loop_
_atom_site_type_symbol
_atom_site_label
_atom_site_fract_x
_atom_site_fract_y
_atom_site_fract_z
Si Si1 0.727928 0.000000 0.929222
Si Si2 0.420347 0.831056 0.775178
Si Si3 0.640166 0.617331 0.756270
Si Si4 0.706226 0.883267 0.682141
Si Si5 0.422060 0.000000 0.881182
Si Si6 0.174322 0.175890 0.881401
Si Si7 0.082184 0.874638 0.000000
O O1 0.760651 0.100121 0.896193
O O2 0.644249 0.000000 0.925296
O O3 0.751475 0.000000 0.000000
O O4 0.500000 0.843931 0.750152
O O5 0.404765 0.709838 0.785617
O O6 0.359919 0.869245 0.728380
O O7 0.416091 0.900647 0.836116
O O8 0.617584 0.500000 0.769988
O O9 0.721072 0.629545 0.779563
O O10 0.640011 0.635650 0.682494
O O11 0.699303 0.792284 0.632391
O O12 0.705498 0.000000 0.657087
O O13 0.500000 0.000000 0.909560
O O14 0.121351 0.165781 0.938716
O O15 0.000000 0.845200 0.000000
O O16 0.085785 0.000000 0.000000
#
# Coordination Sequence:
#
# PCOD9519087 Si02
#       7
#     8  16  16  16   8  16   8
#     4  12  20  33  56  74  96 130 169 213 259 301
#     4  10  19  31  48  73 105 137 162 194 249 309
#     4  10  19  32  53  77 105 131 171 214 258 301
#     4  10  20  33  53  77 102 137 170 212 253 308
#     4  10  20  33  50  74 106 133 160 200 250 314
#     4  11  19  34  51  77 100 131 176 212 258 293
#     4  11  22  38  53  73 105 141 180 216 254 300
#
# _framework density 16.592341000000001
#
# number of rings (size 3 to 8) (size 9 to 14) (size 15 to 20)
#    0.000    1.545    3.636    4.364    0.000    3.455 
#    0.000    0.455    0.000    0.545    0.000    0.000 
#    0.000    0.000    0.000   15.636    0.000    0.000 
#
# Total GULP energy -245468.556949 kJ/mol
# GULP energy per Si atom -5578.830840 kJ/mol
# Density = 1.655458 g / cm^3
# Si number density = 16.592341 Si / 1000 Ang^3
#
#
#
# Elastic Constant Matrix: (Units=GPa)
#
#
# Indices 1 2 3 4 5 6 
#
# 1 85.0671 12.9468 21.3039 0.0000 0.0000 0.0000
# 2 12.9468 125.6684 29.0973 0.0000 0.0000 0.0000
# 3 21.3039 29.0973 49.4938 0.0000 0.0000 0.0000
# 4 0.0000 0.0000 0.0000 14.1249 0.0000 0.0000
# 5 0.0000 0.0000 0.0000 0.0000 21.2404 0.0000
# 6 0.0000 0.0000 0.0000 0.0000 0.0000 1036.9078
#
#
#
# Elastic Compliance Matrix: (Units=1/GPa)
#
#
# Indices 1 2 3 4 5 6 
#
# 1 0.013176 -0.000051 -0.005641 0.000000 0.000000 0.000000
# 2 -0.000051 0.009212 -0.005393 0.000000 0.000000 0.000000
# 3 -0.005641 -0.005393 0.025803 0.000000 0.000000 0.000000
# 4 0.000000 0.000000 0.000000 0.070797 0.000000 0.000000
# 5 0.000000 0.000000 0.000000 0.000000 0.047080 0.000000
# 6 0.000000 0.000000 0.000000 0.000000 0.000000 0.000964
#
#
# Mechanical properties :
#
#
# Convention : Reuss Voigt Hill
#
# Bulk Modulus (GPa) = 38.43317 42.99172 40.71244
# Shear Modulus (GPa) = 25.26819 227.58005 126.42412
#
# Velocity S-wave (km/s) = 3.90665 11.72423 8.73840
# Velocity P-wave (km/s) = 6.60020 14.46525 11.24291
#
# Compressibility (1/GPa) = 0.02601919
#
# Stress axis : x y z
#
# Youngs Moduli (GPa) = 75.89555 108.55984 38.75445
#
# Poissons Ratio (x) = 0.00556 0.21862
# Poissons Ratio (y) = 0.00389 0.20902
# Poissons Ratio (z) = 0.42815 0.58550
#
# Static dielectric constant tensor:
#      x y z
#    x 1.569920 0.000000 0.000000 
#    y 0.000000 1.583720 0.000000 
#    z 0.000000 0.000000 1.525400 
# 
# From -- ./inp_files/44921.got.cif
#   From: 2010.05.17/outbox.cif.g08.bks.cpg/sg71_23_cif.got.tgz:44921.got - 2010.06.03 16:22:01.
