data_PCOD9519351
_publ_section_title
;
Structure prediction by ZEFSAII (Michael W. Deem and Ramdas Pophale) SiO2 
 PCOD9519351
Probable space group: I M M M
;
_chemical_formula_sum "Si O2"
_cell_formula_units_Z 80
_cell_length_a 12.337828
_cell_length_b 28.365544
_cell_length_c 12.766963
_cell_angle_alpha 90.000000
_cell_angle_beta 90.000000
_cell_angle_gamma 90.000000
_cell_volume 4468.043866
_symmetry_space_group_name_H-M "I M M M"
_symmetry_group_IT_number 71
_symmetry_cell_setting 'orthorhombic'
loop_
_space_group_symop_operation_xyz
x,y,z
-x,-y,z
x,-y,-z
-x,y,-z
-x,-y,-z
x,y,-z
-x,y,z
x,-y,z
1/2+x,1/2+y,1/2+z
1/2-x,1/2-y,1/2+z
1/2+x,1/2-y,1/2-z
1/2-x,1/2+y,1/2-z
1/2-x,1/2-y,1/2-z
1/2+x,1/2+y,1/2-z
1/2-x,1/2+y,1/2+z
1/2+x,1/2-y,1/2+z
loop_
_atom_site_type_symbol
_atom_site_label
_atom_site_fract_x
_atom_site_fract_y
_atom_site_fract_z
Si Si1 0.125541 0.391793 0.118681
Si Si2 0.500000 0.443516 0.625298
Si Si3 0.618257 0.781902 0.338138
Si Si4 0.209047 0.702366 0.618349
Si Si5 0.769679 0.098442 0.184026
Si Si6 0.375643 0.943648 0.000000
O O1 0.132919 0.334765 0.119820
O O2 0.212905 0.408386 0.203366
O O3 0.000000 0.403118 0.148527
O O4 0.143911 0.408515 0.000000
O O5 0.500000 0.500000 0.638659
O O6 0.500000 0.433853 0.500000
O O7 0.609786 0.421902 0.673280
O O8 0.500000 0.764624 0.368685
O O9 0.707728 0.745754 0.376874
O O10 0.626039 0.786982 0.211958
O O11 0.166559 0.697122 0.500000
O O12 0.267236 0.653789 0.652989
O O13 0.690755 0.073886 0.100157
O O14 0.500000 0.926158 0.000000
O O15 0.377554 0.000000 0.000000
#
# Coordination Sequence:
#
# PCOD9519351 Si02
#       6
#    16   8  16  16  16   8
#     4   9  18  35  58  83 112 150 189 230 281 332
#     4  11  22  38  59  81 115 153 184 225 287 347
#     4   9  19  32  49  73 107 146 183 223 268 322
#     4  10  19  32  49  76 106 141 182 229 272 320
#     4  11  21  36  56  86 112 145 188 233 277 341
#     4  11  22  37  59  85 113 140 173 233 303 351
#
# _framework density 17.904927000000001
#
# number of rings (size 3 to 8) (size 9 to 14) (size 15 to 20)
#    0.000    2.000    2.000    1.800    1.400    2.400 
#    0.000    0.500    0.000    3.000    0.000    7.000 
#    0.000    0.000    0.000    0.000    0.000    0.000 
#
# Total GULP energy -223126.153650 kJ/mol
# GULP energy per Si atom -5578.153841 kJ/mol
# Density = 1.786418 g / cm^3
# Si number density = 17.904927 Si / 1000 Ang^3
#
#
#
# Elastic Constant Matrix: (Units=GPa)
#
#
# Indices 1 2 3 4 5 6 
#
# 1 142.8845 37.2475 59.3593 0.0001 0.0000 0.0000
# 2 37.2475 40.3860 13.6331 0.0002 0.0001 0.0000
# 3 59.3593 13.6331 141.4712 0.0005 0.0005 -0.0001
# 4 0.0001 0.0002 0.0005 12.9660 0.0001 0.0000
# 5 0.0000 0.0001 0.0005 0.0001 12.7084 0.0001
# 6 0.0000 0.0000 -0.0001 0.0000 0.0001 14.8281
#
#
#
# Elastic Compliance Matrix: (Units=1/GPa)
#
#
# Indices 1 2 3 4 5 6 
#
# 1 0.010806 -0.008720 -0.003694 0.000000 0.000000 0.000000
# 2 -0.008720 0.032629 0.000514 0.000000 0.000000 0.000000
# 3 -0.003694 0.000514 0.008569 0.000000 0.000000 0.000000
# 4 0.000000 0.000000 0.000000 0.077125 -0.000001 0.000000
# 5 0.000000 0.000000 0.000000 -0.000001 0.078688 0.000000
# 6 0.000000 0.000000 0.000000 0.000000 0.000000 0.067439
#
#
# Mechanical properties :
#
#
# Convention : Reuss Voigt Hill
#
# Bulk Modulus (GPa) = 35.45323 60.58018 48.01671
# Shear Modulus (GPa) = 16.20968 22.40061 19.30515
#
# Velocity S-wave (km/s) = 3.01212 3.54091 3.28716
# Velocity P-wave (km/s) = 5.65163 7.11514 6.42519
#
# Compressibility (1/GPa) = 0.02820618
#
# Stress axis : x y z
#
# Youngs Moduli (GPa) = 92.53883 30.64716 116.70076
#
# Poissons Ratio (x) = 0.26723 0.43108
# Poissons Ratio (y) = 0.80690 -0.06001
# Poissons Ratio (z) = 0.34183 -0.01576
#
# Static dielectric constant tensor:
#      x y z
#    x 1.581420 0.000000 0.000000 
#    y 0.000000 1.601200 0.000000 
#    z 0.000000 0.000000 1.652680 
# 
# From -- ./inp_files/20160.got.cif
#   From: 2010.05.17/outbox.cif.g08.bks.cpg/sg71_11_cif.got.tgz:20160.got - 2010.06.03 16:22:01.
