data_PCOD9519328
_publ_section_title
;
Structure prediction by ZEFSAII (Michael W. Deem and Ramdas Pophale) SiO2 
 PCOD9519328
Probable space group: I M M M
;
_chemical_formula_sum "Si O2"
_cell_formula_units_Z 72
_cell_length_a 22.898027
_cell_length_b 7.350150
_cell_length_c 17.124484
_cell_angle_alpha 90.000000
_cell_angle_beta 90.000000
_cell_angle_gamma 90.000000
_cell_volume 2882.118010
_symmetry_space_group_name_H-M "I M M M"
_symmetry_group_IT_number 71
_symmetry_cell_setting 'orthorhombic'
loop_
_space_group_symop_operation_xyz
x,y,z
-x,-y,z
x,-y,-z
-x,y,-z
-x,-y,-z
x,y,-z
-x,y,z
x,-y,z
1/2+x,1/2+y,1/2+z
1/2-x,1/2-y,1/2+z
1/2+x,1/2-y,1/2-z
1/2-x,1/2+y,1/2-z
1/2-x,1/2-y,1/2-z
1/2+x,1/2+y,1/2-z
1/2-x,1/2+y,1/2+z
1/2+x,1/2-y,1/2+z
loop_
_atom_site_type_symbol
_atom_site_label
_atom_site_fract_x
_atom_site_fract_y
_atom_site_fract_z
Si Si1 0.105971 0.723237 0.500000
Si Si2 0.431773 0.776943 0.500000
Si Si3 0.069958 0.292475 0.833842
Si Si4 0.091542 0.295154 0.334070
Si Si5 0.245247 0.793240 0.500000
Si Si6 0.225284 0.217274 0.335812
O O1 0.107576 0.500000 0.500000
O O2 0.076120 0.781911 0.580969
O O3 0.173585 0.789367 0.500000
O O4 0.500000 0.722740 0.500000
O O5 0.407075 0.716809 0.583755
O O6 0.430301 0.000000 0.500000
O O7 0.093681 0.500000 0.828263
O O8 0.079104 0.205258 0.749303
O O9 0.000000 0.303237 0.842936
O O10 0.066846 0.500000 0.330474
O O11 0.161452 0.302793 0.337358
O O12 0.259324 0.717075 0.586202
O O13 0.267988 0.000000 0.500000
O O14 0.250000 0.250000 0.250000
O O15 0.219033 0.000000 0.345047
#
# Coordination Sequence:
#
# PCOD9519328 Si02
#       6
#     8   8  16  16   8  16
#     4   8  14  24  39  59  83 112 143 173 208 253
#     4   7  10  18  33  54  80 110 143 175 206 243
#     4   8  13  22  38  60  85 112 142 176 212 250
#     4   9  16  27  43  63  87 114 144 177 214 255
#     4   8  16  30  47  64  83 112 148 179 208 255
#     4  10  19  32  49  68  89 114 146 182 220 261
#
# _framework density 24.981629000000002
#
# number of rings (size 3 to 8) (size 9 to 14) (size 15 to 20)
#    0.000    3.444    0.000    2.000    0.000    0.889 
#    0.000    1.667    0.000    8.000    0.000    0.000 
#    0.000   11.556    0.000    0.000    0.000    0.000 
#
# Total GULP energy -200484.163729 kJ/mol
# GULP energy per Si atom -5569.004548 kJ/mol
# Density = 2.492477 g / cm^3
# Si number density = 24.981629 Si / 1000 Ang^3
#
#
#
# Elastic Constant Matrix: (Units=GPa)
#
#
# Indices 1 2 3 4 5 6 
#
# 1 44.1996 -1.0988 21.3904 0.0000 0.0000 0.0000
# 2 -1.0988 110.1473 12.1035 0.0000 0.0000 0.0000
# 3 21.3904 12.1035 367.9941 0.0000 0.0000 0.0000
# 4 0.0000 0.0000 0.0000 -6.7955 0.0000 0.0000
# 5 0.0000 0.0000 0.0000 0.0000 31.5691 0.0000
# 6 0.0000 0.0000 0.0000 0.0000 0.0000 7.5079
#
#
#
# Elastic Compliance Matrix: (Units=1/GPa)
#
#
# Indices 1 2 3 4 5 6 
#
# 1 0.023296 0.000383 -0.001367 0.000000 0.000000 0.000000
# 2 0.000383 0.009118 -0.000322 0.000000 0.000000 0.000000
# 3 -0.001367 -0.000322 0.002807 0.000000 0.000000 0.000000
# 4 0.000000 0.000000 0.000000 -0.147156 0.000000 0.000000
# 5 0.000000 0.000000 0.000000 0.000000 0.031677 0.000000
# 6 0.000000 0.000000 0.000000 0.000000 0.000000 0.133193
#
#
# Mechanical properties :
#
#
# Convention : Reuss Voigt Hill
#
# Bulk Modulus (GPa) = 30.66685 65.23681 47.95183
# Shear Modulus (GPa) = 75.28337 39.11937 57.20137
#
# Velocity S-wave (km/s) = 5.49554 3.96147 4.79031
# Velocity P-wave (km/s) = 7.25054 6.86258 7.05922
#
# Compressibility (1/GPa) = 0.03260851
#
# Stress axis : x y z
#
# Youngs Moduli (GPa) = 42.92663 109.67356 356.19241
#
# Poissons Ratio (x) = -0.04196 0.48680
# Poissons Ratio (y) = -0.01642 0.11474
# Poissons Ratio (z) = 0.05867 0.03533
#
# Static dielectric constant tensor:
#      x y z
#    x 1.932130 0.000000 0.000000 
#    y 0.000000 1.415240 0.000000 
#    z 0.000000 0.000000 2.124720 
# 
# From -- ./inp_files/40697.got.cif
#   From: 2010.05.17/outbox.cif.g08.bks.cpg/sg71_21_cif.got.tgz:40697.got - 2010.06.03 16:22:01.
