data_PCOD9519436
_publ_section_title
;
Structure prediction by ZEFSAII (Michael W. Deem and Ramdas Pophale) SiO2 
 PCOD9519436
Probable space group: I M M M
;
_chemical_formula_sum "Si O2"
_cell_formula_units_Z 72
_cell_length_a 23.139886
_cell_length_b 8.573579
_cell_length_c 16.818569
_cell_angle_alpha 90.000000
_cell_angle_beta 90.000000
_cell_angle_gamma 90.000000
_cell_volume 3336.663498
_symmetry_space_group_name_H-M "I M M M"
_symmetry_group_IT_number 71
_symmetry_cell_setting 'orthorhombic'
loop_
_space_group_symop_operation_xyz
x,y,z
-x,-y,z
x,-y,-z
-x,y,-z
-x,-y,-z
x,y,-z
-x,y,z
x,-y,z
1/2+x,1/2+y,1/2+z
1/2-x,1/2-y,1/2+z
1/2+x,1/2-y,1/2-z
1/2-x,1/2+y,1/2-z
1/2-x,1/2-y,1/2-z
1/2+x,1/2+y,1/2-z
1/2-x,1/2+y,1/2+z
1/2+x,1/2-y,1/2+z
loop_
_atom_site_type_symbol
_atom_site_label
_atom_site_fract_x
_atom_site_fract_y
_atom_site_fract_z
Si Si1 0.091492 0.317207 0.660127
Si Si2 0.933901 0.675776 0.841349
Si Si3 0.225328 0.313004 0.667399
Si Si4 0.931857 0.000000 0.094517
Si Si5 0.773089 0.812957 0.500000
Si Si6 0.592176 0.683414 0.000000
O O1 0.091527 0.500000 0.642221
O O2 0.064225 0.299041 0.746488
O O3 0.157897 0.264190 0.668573
O O4 0.065645 0.236947 0.582903
O O5 0.908510 0.500000 0.854911
O O6 0.000000 0.668828 0.872151
O O7 0.906455 0.834264 0.875950
O O8 0.228955 0.500000 0.666498
O O9 0.250000 0.250000 0.750000
O O10 0.251131 0.248669 0.584221
O O11 0.000000 0.000000 0.120618
O O12 0.930377 0.000000 0.000000
O O13 0.840716 0.758061 0.500000
O O14 0.771015 0.000000 0.500000
O O15 0.594445 0.500000 0.000000
#
# Coordination Sequence:
#
# PCOD9519436 Si02
#       6
#    16  16  16   8   8   8
#     4   9  18  32  50  71  99 132 165 202 244 293
#     4   9  18  33  53  76 102 133 167 206 252 299
#     4  10  19  32  51  74  99 130 167 205 251 299
#     4   9  18  32  52  77 101 129 167 210 254 300
#     4   9  17  31  49  72  98 125 165 210 246 292
#     4   9  17  27  46  74  97 128 167 203 239 283
#
# _framework density 21.578443
#
# number of rings (size 3 to 8) (size 9 to 14) (size 15 to 20)
#    0.000    2.778    0.000    1.333    1.556    4.000 
#    0.000    2.778    2.444    3.333    0.000    0.000 
#    0.000    0.000    0.000    0.000    0.000    0.000 
#
# Total GULP energy -200614.558734 kJ/mol
# GULP energy per Si atom -5572.626632 kJ/mol
# Density = 2.152933 g / cm^3
# Si number density = 21.578443 Si / 1000 Ang^3
#
#
#
# Elastic Constant Matrix: (Units=GPa)
#
#
# Indices 1 2 3 4 5 6 
#
# 1 32.5981 14.0672 28.3461 0.0000 0.0000 0.0000
# 2 14.0672 109.0643 73.8087 0.0000 0.0000 0.0000
# 3 28.3461 73.8087 126.0352 0.0000 0.0000 0.0000
# 4 0.0000 0.0000 0.0000 42.6944 0.0000 0.0000
# 5 0.0000 0.0000 0.0000 0.0000 5.6650 0.0000
# 6 0.0000 0.0000 0.0000 0.0000 0.0000 -2.3411
#
#
#
# Elastic Compliance Matrix: (Units=1/GPa)
#
#
# Indices 1 2 3 4 5 6 
#
# 1 0.038277 0.001472 -0.009471 0.000000 0.000000 0.000000
# 2 0.001472 0.015245 -0.009259 0.000000 0.000000 0.000000
# 3 -0.009471 -0.009259 0.015487 0.000000 0.000000 0.000000
# 4 0.000000 0.000000 0.000000 0.023422 0.000000 0.000000
# 5 0.000000 0.000000 0.000000 0.000000 0.176523 0.000000
# 6 0.000000 0.000000 0.000000 0.000000 0.000000 -0.427153
#
#
# Mechanical properties :
#
#
# Convention : Reuss Voigt Hill
#
# Bulk Modulus (GPa) = 28.99096 55.57129 42.28113
# Shear Modulus (GPa) = -44.56842 19.30203 -12.63320
#
# Velocity S-wave (km/s) = -4.54961 2.99407 -2.42224
# Velocity P-wave (km/s) = 3.75956 6.14505 3.43710
#
# Compressibility (1/GPa) = 0.03449351
#
# Stress axis : x y z
#
# Youngs Moduli (GPa) = 26.12539 65.59588 64.57210
#
# Poissons Ratio (x) = -0.09659 0.61157
# Poissons Ratio (y) = -0.03847 0.59786
# Poissons Ratio (z) = 0.24743 0.60734
#
# Static dielectric constant tensor:
#      x y z
#    x 1.857010 0.000000 0.000000 
#    y 0.000000 1.777220 0.000000 
#    z 0.000000 0.000000 1.781870 
# 
# From -- ./inp_files/6118.got.cif
#   From: 2010.05.17/outbox.cif.g08.bks.cpg/sg71_4_cif.got.tgz:6118.got - 2010.06.03 16:22:01.
