data_PCOD9519716
_publ_section_title
;
Structure prediction by ZEFSAII (Michael W. Deem and Ramdas Pophale) SiO2 
 PCOD9519716
Probable space group: I M M M
;
_chemical_formula_sum "Si O2"
_cell_formula_units_Z 104
_cell_length_a 26.721576
_cell_length_b 13.706796
_cell_length_c 18.331096
_cell_angle_alpha 90.000000
_cell_angle_beta 90.000000
_cell_angle_gamma 90.000000
_cell_volume 6714.079040
_symmetry_space_group_name_H-M "I M M M"
_symmetry_group_IT_number 71
_symmetry_cell_setting 'orthorhombic'
loop_
_space_group_symop_operation_xyz
x,y,z
-x,-y,z
x,-y,-z
-x,y,-z
-x,-y,-z
x,y,-z
-x,y,z
x,-y,z
1/2+x,1/2+y,1/2+z
1/2-x,1/2-y,1/2+z
1/2+x,1/2-y,1/2-z
1/2-x,1/2+y,1/2-z
1/2-x,1/2-y,1/2-z
1/2+x,1/2+y,1/2-z
1/2-x,1/2+y,1/2+z
1/2+x,1/2-y,1/2+z
loop_
_atom_site_type_symbol
_atom_site_label
_atom_site_fract_x
_atom_site_fract_y
_atom_site_fract_z
Si Si1 0.630648 0.805870 0.206322
Si Si2 0.737739 0.111430 0.158363
Si Si3 0.059448 0.383655 0.416799
Si Si4 0.736325 0.808668 0.585287
Si Si5 0.811676 0.889304 0.702879
Si Si6 0.627537 0.882380 0.634973
Si Si7 0.557301 0.881628 0.500000
O O1 0.681985 0.862855 0.185725
O O2 0.590847 0.828131 0.143744
O O3 0.646165 0.692739 0.209179
O O4 0.613531 0.843414 0.285247
O O5 0.754114 0.194330 0.101655
O O6 0.774552 0.120806 0.227833
O O7 0.739634 0.000000 0.131835
O O8 0.073979 0.357529 0.500000
O O9 0.067908 0.500000 0.408335
O O10 0.000000 0.367173 0.409320
O O11 0.739949 0.829823 0.500000
O O12 0.777845 0.865289 0.632431
O O13 0.681887 0.840264 0.614052
O O14 0.830130 0.000000 0.700458
O O15 0.588159 0.853373 0.572224
O O16 0.630735 0.000000 0.636767
O O17 0.500000 0.846926 0.500000
O O18 0.556036 0.000000 0.500000
#
# Coordination Sequence:
#
# PCOD9519716 Si02
#       7
#    16  16  16  16  16  16   8
#     4  11  19  32  53  78  98 129 170 207 247 298
#     4  10  19  33  50  71 103 135 166 207 248 287
#     4   9  19  35  53  75 103 131 160 201 255 307
#     4  11  20  31  47  71 101 135 173 199 237 299
#     4  10  20  34  50  70 102 137 168 204 242 288
#     4  11  19  29  48  71  97 131 168 202 243 298
#     4   9  20  34  46  68 103 135 163 207 255 292
#
# _framework density 15.489839
#
# number of rings (size 3 to 8) (size 9 to 14) (size 15 to 20)
#    0.000    1.769    3.846    3.231    0.000    4.308 
#    0.000    1.538    0.000    0.462    0.000    1.077 
#    0.000    3.077    0.000    0.000    0.000    0.000 
#
# Total GULP energy -290162.711098 kJ/mol
# GULP energy per Si atom -5580.052137 kJ/mol
# Density = 1.545458 g / cm^3
# Si number density = 15.489839 Si / 1000 Ang^3
#
#
#
# Elastic Constant Matrix: (Units=GPa)
#
#
# Indices 1 2 3 4 5 6 
#
# 1 61.9381 34.4799 45.7093 0.0000 0.0000 0.0000
# 2 34.4799 76.0765 17.6831 0.0000 0.0000 0.0000
# 3 45.7093 17.6831 86.5701 0.0000 0.0000 0.0000
# 4 0.0000 0.0000 0.0000 17.9719 0.0000 0.0000
# 5 0.0000 0.0000 0.0000 0.0000 28.8017 0.0000
# 6 0.0000 0.0000 0.0000 0.0000 0.0000 13.1986
#
#
#
# Elastic Compliance Matrix: (Units=1/GPa)
#
#
# Indices 1 2 3 4 5 6 
#
# 1 0.034388 -0.011932 -0.015720 0.000000 0.000000 0.000000
# 2 -0.011932 0.017940 0.002636 0.000000 0.000000 0.000000
# 3 -0.015720 0.002636 0.019313 0.000000 0.000000 0.000000
# 4 0.000000 0.000000 0.000000 0.055642 0.000000 0.000000
# 5 0.000000 0.000000 0.000000 0.000000 0.034720 0.000000
# 6 0.000000 0.000000 0.000000 0.000000 0.000000 0.075765
#
#
# Mechanical properties :
#
#
# Convention : Reuss Voigt Hill
#
# Bulk Modulus (GPa) = 46.27689 46.70326 46.49008
# Shear Modulus (GPa) = 16.94887 20.44195 18.69541
#
# Velocity S-wave (km/s) = 3.31145 3.63671 3.47788
# Velocity P-wave (km/s) = 6.67543 6.91741 6.79750
#
# Compressibility (1/GPa) = 0.02160906
#
# Stress axis : x y z
#
# Youngs Moduli (GPa) = 29.07954 55.74177 51.77820
#
# Poissons Ratio (x) = 0.66510 0.81395
# Poissons Ratio (y) = 0.34697 -0.13647
# Poissons Ratio (z) = 0.45713 -0.14691
#
# Static dielectric constant tensor:
#      x y z
#    x 1.493300 0.000000 0.000000 
#    y 0.000000 1.515380 0.000000 
#    z 0.000000 0.000000 1.512100 
# 
# From -- ./inp_files/36935.got.cif
#   From: 2010.05.17/outbox.cif.g08.bks.cpg/sg71_19_cif.got.tgz:36935.got - 2010.06.03 16:22:01.
