data_PCOD9519372
_publ_section_title
;
Structure prediction by ZEFSAII (Michael W. Deem and Ramdas Pophale) SiO2 
 PCOD9519372
Probable space group: I M M M
;
_chemical_formula_sum "Si O2"
_cell_formula_units_Z 120
_cell_length_a 8.734664
_cell_length_b 28.033716
_cell_length_c 27.469128
_cell_angle_alpha 90.000000
_cell_angle_beta 90.000000
_cell_angle_gamma 90.000000
_cell_volume 6726.230498
_symmetry_space_group_name_H-M "I M M M"
_symmetry_group_IT_number 71
_symmetry_cell_setting 'orthorhombic'
loop_
_space_group_symop_operation_xyz
x,y,z
-x,-y,z
x,-y,-z
-x,y,-z
-x,-y,-z
x,y,-z
-x,y,z
x,-y,z
1/2+x,1/2+y,1/2+z
1/2-x,1/2-y,1/2+z
1/2+x,1/2-y,1/2-z
1/2-x,1/2+y,1/2-z
1/2-x,1/2-y,1/2-z
1/2+x,1/2+y,1/2-z
1/2-x,1/2+y,1/2+z
1/2+x,1/2-y,1/2+z
loop_
_atom_site_type_symbol
_atom_site_label
_atom_site_fract_x
_atom_site_fract_y
_atom_site_fract_z
Si Si1 0.818318 0.291550 0.947451
Si Si2 0.174742 0.941859 0.898158
Si Si3 0.677124 0.058277 0.000000
Si Si4 0.182815 0.686182 0.552875
Si Si5 0.684548 0.803969 0.158740
Si Si6 0.178737 0.556523 0.705047
Si Si7 0.180152 0.141782 0.251303
Si Si8 0.182567 0.696860 0.158551
O O1 0.722087 0.242719 0.947233
O O2 0.785292 0.318572 0.897340
O O3 0.000000 0.278686 0.945318
O O4 0.791982 0.315388 0.000000
O O5 0.246310 0.925990 0.949447
O O6 0.271112 0.930793 0.850065
O O7 0.000000 0.925419 0.893104
O O8 0.171800 0.000000 0.900526
O O9 0.500000 0.072163 0.000000
O O10 0.683074 0.000000 0.000000
O O11 0.242586 0.668509 0.500000
O O12 0.237838 0.672453 0.607162
O O13 0.000000 0.679079 0.552447
O O14 0.500000 0.801817 0.158104
O O15 0.740529 0.831879 0.205797
O O16 0.751558 0.750518 0.162477
O O17 0.200677 0.500000 0.710704
O O18 0.276539 0.586835 0.742821
O O19 0.000000 0.567778 0.710974
O O20 0.243237 0.163583 0.301069
O O21 0.000000 0.149190 0.248513
O O22 0.000000 0.698285 0.166000
#
# Coordination Sequence:
#
# PCOD9519372 Si02
#       8
#    16  16   8  16  16  16  16  16
#     4   8  14  25  43  68  97 129 163 198 236 279
#     4   9  16  27  45  69  94 118 146 186 239 296
#     4   9  15  23  39  65  93 119 149 187 235 291
#     4   8  14  25  43  66  91 123 162 203 245 290
#     4  10  19  32  50  72 101 134 170 209 251 297
#     4  10  21  38  58  76  94 119 156 203 255 309
#     4  12  24  36  51  71  99 132 169 207 248 298
#     4  10  19  32  50  74 105 137 170 205 244 290
#
# _framework density 17.840602000000001
#
# number of rings (size 3 to 8) (size 9 to 14) (size 15 to 20)
#    0.000    2.467    0.000    3.400    0.000    4.267 
#    0.000    0.000    1.467    0.000    0.000    0.000 
#    0.000    0.533    0.000    6.133    0.000    1.733 
#
# Total GULP energy -334779.375599 kJ/mol
# GULP energy per Si atom -5579.656260 kJ/mol
# Density = 1.780000 g / cm^3
# Si number density = 17.840602 Si / 1000 Ang^3
#
#
#
# Elastic Constant Matrix: (Units=GPa)
#
#
# Indices 1 2 3 4 5 6 
#
# 1 41.0728 15.2013 20.2828 0.0000 0.0000 0.0000
# 2 15.2013 40.1469 40.0550 0.0000 0.0000 0.0000
# 3 20.2828 40.0550 130.7832 0.0000 0.0000 0.0000
# 4 0.0000 0.0000 0.0000 24.9443 0.0000 0.0000
# 5 0.0000 0.0000 0.0000 0.0000 22.4054 0.0000
# 6 0.0000 0.0000 0.0000 0.0000 0.0000 16.3528
#
#
#
# Elastic Compliance Matrix: (Units=1/GPa)
#
#
# Indices 1 2 3 4 5 6 
#
# 1 0.028548 -0.009205 -0.001608 0.000000 0.000000 0.000000
# 2 -0.009205 0.038837 -0.010467 0.000000 0.000000 0.000000
# 3 -0.001608 -0.010467 0.011101 0.000000 0.000000 0.000000
# 4 0.000000 0.000000 0.000000 0.040089 0.000000 0.000000
# 5 0.000000 0.000000 0.000000 0.000000 0.044632 0.000000
# 6 0.000000 0.000000 0.000000 0.000000 0.000000 0.061152
#
#
# Mechanical properties :
#
#
# Convention : Reuss Voigt Hill
#
# Bulk Modulus (GPa) = 27.83498 40.34235 34.08867
# Shear Modulus (GPa) = 17.92788 21.83807 19.88297
#
# Velocity S-wave (km/s) = 3.17344 3.50246 3.34200
# Velocity P-wave (km/s) = 5.39106 6.24644 5.83445
#
# Compressibility (1/GPa) = 0.03592601
#
# Stress axis : x y z
#
# Youngs Moduli (GPa) = 35.02872 25.74870 90.07866
#
# Poissons Ratio (x) = 0.23701 0.14487
# Poissons Ratio (y) = 0.32243 0.94286
# Poissons Ratio (z) = 0.05634 0.26951
#
# Static dielectric constant tensor:
#      x y z
#    x 1.605430 0.000000 0.000000 
#    y 0.000000 1.623890 0.000000 
#    z 0.000000 0.000000 1.643400 
# 
# From -- ./inp_files/63768.got.cif
#   From: 2010.05.17/outbox.cif.g08.bks.cpg/sg71_32_cif.got.tgz:63768.got - 2010.06.03 16:22:01.
