data_PCOD9519749
_publ_section_title
;
Structure prediction by ZEFSAII (Michael W. Deem and Ramdas Pophale) SiO2 
 PCOD9519749
Probable space group: I M M M
;
_chemical_formula_sum "Si O2"
_cell_formula_units_Z 120
_cell_length_a 15.462049
_cell_length_b 13.226844
_cell_length_c 30.229246
_cell_angle_alpha 90.000000
_cell_angle_beta 90.000000
_cell_angle_gamma 90.000000
_cell_volume 6182.307343
_symmetry_space_group_name_H-M "I M M M"
_symmetry_group_IT_number 71
_symmetry_cell_setting 'orthorhombic'
loop_
_space_group_symop_operation_xyz
x,y,z
-x,-y,z
x,-y,-z
-x,y,-z
-x,-y,-z
x,y,-z
-x,y,z
x,-y,z
1/2+x,1/2+y,1/2+z
1/2-x,1/2-y,1/2+z
1/2+x,1/2-y,1/2-z
1/2-x,1/2+y,1/2-z
1/2-x,1/2-y,1/2-z
1/2+x,1/2+y,1/2-z
1/2-x,1/2+y,1/2+z
1/2+x,1/2-y,1/2+z
loop_
_atom_site_type_symbol
_atom_site_label
_atom_site_fract_x
_atom_site_fract_y
_atom_site_fract_z
Si Si1 0.791543 0.173867 0.171034
Si Si2 0.102785 0.674840 0.952696
Si Si3 0.100414 0.878404 0.500000
Si Si4 0.132824 0.885406 0.597797
Si Si5 0.594702 0.774395 0.168861
Si Si6 0.821415 0.608355 0.860716
Si Si7 0.402023 0.612471 0.752777
Si Si8 0.397620 0.387820 0.414530
O O1 0.687127 0.168145 0.167383
O O2 0.823437 0.291682 0.169112
O O3 0.830525 0.127271 0.215383
O O4 0.838442 0.124335 0.128795
O O5 0.128082 0.623151 0.906792
O O6 0.123551 0.793691 0.946055
O O7 0.000000 0.665335 0.955408
O O8 0.139524 0.637825 0.000000
O O9 0.141623 0.850557 0.546917
O O10 0.000000 0.845565 0.500000
O O11 0.101400 0.000000 0.500000
O O12 0.089224 0.797753 0.625930
O O13 0.224057 0.894492 0.621729
O O14 0.095000 0.000000 0.598263
O O15 0.500000 0.826757 0.173101
O O16 0.604109 0.697666 0.210175
O O17 0.844361 0.500000 0.840003
O O18 0.500000 0.618190 0.733553
O O19 0.393023 0.500000 0.772846
O O20 0.500000 0.377624 0.402650
O O21 0.386110 0.500000 0.433594
#
# Coordination Sequence:
#
# PCOD9519749 Si02
#       8
#    16  16   8  16  16  16  16  16
#     4  10  19  33  51  75 102 130 167 213 255 299
#     4   9  18  30  44  67  99 132 168 209 251 304
#     4   9  16  24  38  62  87 113 148 191 239 283
#     4   9  17  29  45  66  92 125 164 208 250 288
#     4  10  20  33  49  71 103 138 167 200 249 309
#     4   9  19  32  46  66  96 137 176 205 243 296
#     4  10  20  34  56  82 101 125 166 216 269 314
#     4   9  17  31  53  77  99 125 161 213 272 314
#
# _framework density 19.410229000000001
#
# number of rings (size 3 to 8) (size 9 to 14) (size 15 to 20)
#    0.000    2.600    0.000    2.000    0.933    4.267 
#    0.000    2.000    0.000    1.600    0.000    3.733 
#    0.000    0.000    0.000    6.267    0.000    0.133 
#
# Total GULP energy -334124.889595 kJ/mol
# GULP energy per Si atom -5568.748160 kJ/mol
# Density = 1.936605 g / cm^3
# Si number density = 19.410229 Si / 1000 Ang^3
#
#
#
# Elastic Constant Matrix: (Units=GPa)
#
#
# Indices 1 2 3 4 5 6 
#
# 1 67.6485 6.9199 16.7285 0.0000 0.0000 0.0000
# 2 6.9199 45.3170 -14.2613 0.0000 0.0000 0.0000
# 3 16.7285 -14.2613 44.7932 0.0000 0.0000 0.0000
# 4 0.0000 0.0000 0.0000 14.0396 0.0000 0.0000
# 5 0.0000 0.0000 0.0000 0.0000 -0.1487 0.0000
# 6 0.0000 0.0000 0.0000 0.0000 0.0000 12.2100
#
#
#
# Elastic Compliance Matrix: (Units=1/GPa)
#
#
# Indices 1 2 3 4 5 6 
#
# 1 0.017324 -0.005203 -0.008126 0.000000 0.000000 0.000000
# 2 -0.005203 0.026086 0.010248 0.000000 0.000000 0.000000
# 3 -0.008126 0.010248 0.028623 0.000000 0.000000 0.000000
# 4 0.000000 0.000000 0.000000 0.071227 0.000000 0.000000
# 5 0.000000 0.000000 0.000000 0.000000 -6.724925 0.000000
# 6 0.000000 0.000000 0.000000 0.000000 0.000000 0.081900
#
#
# Mechanical properties :
#
#
# Convention : Reuss Voigt Hill
#
# Bulk Modulus (GPa) = 15.18099 19.61477 17.39788
# Shear Modulus (GPa) = -0.77260 15.11160 7.16950
#
# Velocity S-wave (km/s) = -0.63159 2.79326 1.92398
# Velocity P-wave (km/s) = 2.70301 4.53104 3.73072
#
# Compressibility (1/GPa) = 0.06587184
#
# Stress axis : x y z
#
# Youngs Moduli (GPa) = 57.72333 38.33408 34.93747
#
# Poissons Ratio (x) = 0.19944 0.28391
# Poissons Ratio (y) = 0.30032 -0.35805
# Poissons Ratio (z) = 0.46908 -0.39286
#
# Static dielectric constant tensor:
#      x y z
#    x 1.715340 0.000000 0.000000 
#    y 0.000000 1.718380 0.000000 
#    z 0.000000 0.000000 1.624530 
# 
# From -- ./inp_files/70120.got.cif
#   From: 2010.05.17/outbox.cif.g08.bks.cpg/sg71_36_cif.got.tgz:70120.got - 2010.06.03 16:22:01.
