data_PCOD9519073
_publ_section_title
;
Structure prediction by ZEFSAII (Michael W. Deem and Ramdas Pophale) SiO2 
 PCOD9519073
Probable space group: I M M M
;
_chemical_formula_sum "Si O2"
_cell_formula_units_Z 104
_cell_length_a 30.610372
_cell_length_b 8.907259
_cell_length_c 23.048973
_cell_angle_alpha 90.000000
_cell_angle_beta 90.000000
_cell_angle_gamma 90.000000
_cell_volume 6284.406474
_symmetry_space_group_name_H-M "I M M M"
_symmetry_group_IT_number 71
_symmetry_cell_setting 'orthorhombic'
loop_
_space_group_symop_operation_xyz
x,y,z
-x,-y,z
x,-y,-z
-x,y,-z
-x,-y,-z
x,y,-z
-x,y,z
x,-y,z
1/2+x,1/2+y,1/2+z
1/2-x,1/2-y,1/2+z
1/2+x,1/2-y,1/2-z
1/2-x,1/2+y,1/2-z
1/2-x,1/2-y,1/2-z
1/2+x,1/2+y,1/2-z
1/2-x,1/2+y,1/2+z
1/2+x,1/2-y,1/2+z
loop_
_atom_site_type_symbol
_atom_site_label
_atom_site_fract_x
_atom_site_fract_y
_atom_site_fract_z
Si Si1 0.783636 0.172941 0.929547
Si Si2 0.550005 0.817538 0.000000
Si Si3 0.604938 0.180469 0.113404
Si Si4 0.125263 0.680829 0.932580
Si Si5 0.192626 0.820965 0.568912
Si Si6 0.550173 0.819349 0.656922
Si Si7 0.949095 0.820587 0.717339
O O1 0.829125 0.248488 0.911709
O O2 0.739979 0.260649 0.911961
O O3 0.781503 0.000000 0.911184
O O4 0.783946 0.176594 0.000000
O O5 0.575921 0.771643 0.942377
O O6 0.500000 0.764402 0.000000
O O7 0.549122 0.000000 0.000000
O O8 0.653299 0.243374 0.102931
O O9 0.582186 0.244794 0.170515
O O10 0.605844 0.000000 0.115322
O O11 0.129241 0.500000 0.931091
O O12 0.084918 0.724931 0.891971
O O13 0.118067 0.724058 0.000000
O O14 0.187538 0.784967 0.500000
O O15 0.190675 0.000000 0.574987
O O16 0.500000 0.783544 0.640491
O O17 0.559570 0.741227 0.718215
O O18 0.552811 0.000000 0.664374
O O19 0.000000 0.784076 0.703747
O O20 0.944273 0.000000 0.716083
#
# Coordination Sequence:
#
# PCOD9519073 Si02
#       7
#    16   8  16  16  16  16  16
#     4   9  17  29  47  71 100 134 171 206 244 296
#     4   9  18  30  45  69  99 129 161 203 254 301
#     4  11  20  32  51  73 100 131 169 213 256 305
#     4   9  17  30  50  78 109 136 164 202 251 299
#     4  10  19  31  48  71 102 134 167 208 256 303
#     4   9  18  33  53  76 102 135 173 208 244 294
#     4  10  21  36  52  71  97 132 174 215 254 297
#
# _framework density 16.548898999999999
#
# number of rings (size 3 to 8) (size 9 to 14) (size 15 to 20)
#    0.000    2.385    0.769    2.308    0.000    4.923 
#    0.000    1.538    0.000    2.769    0.000    4.308 
#    0.000    0.000    0.000    0.000    0.000    0.000 
#
# Total GULP energy -290043.268019 kJ/mol
# GULP energy per Si atom -5577.755154 kJ/mol
# Density = 1.651123 g / cm^3
# Si number density = 16.548899 Si / 1000 Ang^3
#
#
#
# Elastic Constant Matrix: (Units=GPa)
#
#
# Indices 1 2 3 4 5 6 
#
# 1 169.5306 61.1507 89.6028 0.0000 0.0000 0.0000
# 2 61.1507 52.3539 42.9715 0.0000 0.0000 0.0000
# 3 89.6028 42.9715 81.0406 0.0000 0.0000 0.0000
# 4 0.0000 0.0000 0.0000 17.6158 0.0000 0.0000
# 5 0.0000 0.0000 0.0000 0.0000 15.8114 0.0000
# 6 0.0000 0.0000 0.0000 0.0000 0.0000 27.3294
#
#
#
# Elastic Compliance Matrix: (Units=1/GPa)
#
#
# Indices 1 2 3 4 5 6 
#
# 1 0.015584 -0.007188 -0.013419 0.000000 0.000000 0.000000
# 2 -0.007188 0.037136 -0.011743 0.000000 0.000000 0.000000
# 3 -0.013419 -0.011743 0.033403 0.000000 0.000000 0.000000
# 4 0.000000 0.000000 0.000000 0.056767 0.000000 0.000000
# 5 0.000000 0.000000 0.000000 0.000000 0.063245 0.000000
# 6 0.000000 0.000000 0.000000 0.000000 0.000000 0.036591
#
#
# Mechanical properties :
#
#
# Convention : Reuss Voigt Hill
#
# Bulk Modulus (GPa) = 46.68176 76.70834 61.69505
# Shear Modulus (GPa) = 15.89492 19.43134 17.66313
#
# Velocity S-wave (km/s) = 3.10253 3.43034 3.27055
# Velocity P-wave (km/s) = 6.41123 7.88307 7.18494
#
# Compressibility (1/GPa) = 0.02142164
#
# Stress axis : x y z
#
# Youngs Moduli (GPa) = 64.16965 26.92833 29.93785
#
# Poissons Ratio (x) = 0.19357 0.40172
# Poissons Ratio (y) = 0.46127 0.35157
# Poissons Ratio (z) = 0.86106 0.31622
#
# Static dielectric constant tensor:
#      x y z
#    x 1.547960 0.000000 0.000000 
#    y 0.000000 1.552000 0.000000 
#    z 0.000000 0.000000 1.530630 
# 
# From -- ./inp_files/11049.got.cif
#   From: 2010.05.17/outbox.cif.g08.bks.cpg/sg71_6_cif.got.tgz:11049.got - 2010.06.03 16:22:01.
