data_PCOD9519426
_publ_section_title
;
Structure prediction by ZEFSAII (Michael W. Deem and Ramdas Pophale) SiO2 
 PCOD9519426
Probable space group: I M M M
;
_chemical_formula_sum "Si O2"
_cell_formula_units_Z 120
_cell_length_a 25.336597
_cell_length_b 13.865301
_cell_length_c 20.868884
_cell_angle_alpha 90.000000
_cell_angle_beta 90.000000
_cell_angle_gamma 90.000000
_cell_volume 7331.229427
_symmetry_space_group_name_H-M "I M M M"
_symmetry_group_IT_number 71
_symmetry_cell_setting 'orthorhombic'
loop_
_space_group_symop_operation_xyz
x,y,z
-x,-y,z
x,-y,-z
-x,y,-z
-x,-y,-z
x,y,-z
-x,y,z
x,-y,z
1/2+x,1/2+y,1/2+z
1/2-x,1/2-y,1/2+z
1/2+x,1/2-y,1/2-z
1/2-x,1/2+y,1/2-z
1/2-x,1/2-y,1/2-z
1/2+x,1/2+y,1/2-z
1/2-x,1/2+y,1/2+z
1/2+x,1/2-y,1/2+z
loop_
_atom_site_type_symbol
_atom_site_label
_atom_site_fract_x
_atom_site_fract_y
_atom_site_fract_z
Si Si1 0.849592 0.800761 0.336666
Si Si2 0.936116 0.000000 0.927235
Si Si3 0.307177 0.388904 0.291585
Si Si4 0.239964 0.112520 0.425723
Si Si5 0.938916 0.212682 0.922315
Si Si6 0.181547 0.389648 0.270332
Si Si7 0.839033 0.701628 0.865329
Si Si8 0.562756 0.385401 0.925720
O O1 0.841626 0.860570 0.270747
O O2 0.801057 0.830979 0.381859
O O3 0.843752 0.689276 0.317184
O O4 0.902112 0.828197 0.375058
O O5 0.923651 0.104224 0.898580
O O6 0.000000 0.000000 0.931794
O O7 0.914829 0.000000 0.000000
O O8 0.316342 0.500000 0.310497
O O9 0.245292 0.378920 0.272750
O O10 0.318897 0.308028 0.344457
O O11 0.225030 0.119430 0.500000
O O12 0.297831 0.155436 0.414324
O O13 0.239214 0.000000 0.406861
O O14 0.897158 0.286173 0.893608
O O15 0.000000 0.231117 0.905289
O O16 0.936037 0.211520 0.000000
O O17 0.168838 0.500000 0.285861
O O18 0.163418 0.361966 0.198929
O O19 0.500000 0.371557 0.916668
O O20 0.573808 0.500000 0.918477
O O21 0.575281 0.360349 0.000000
#
# Coordination Sequence:
#
# PCOD9519426 Si02
#       8
#    16   8  16  16  16  16  16  16
#     4  11  18  33  54  77 101 133 169 205 248 305
#     4   7  12  26  46  66  90 128 170 198 232 288
#     4  10  19  32  51  74 102 136 171 205 251 302
#     4  11  21  31  49  78 105 128 162 211 258 299
#     4   9  18  32  50  71 100 138 172 205 251 302
#     4  10  20  36  54  72 100 138 173 208 256 304
#     4  11  19  32  51  75 102 132 172 214 250 301
#     4   9  18  32  52  80 111 139 163 195 249 311
#
# _framework density 16.368331999999999
#
# number of rings (size 3 to 8) (size 9 to 14) (size 15 to 20)
#    0.000    2.067    2.667    4.400    0.933    1.067 
#    0.000    2.667    0.000    6.000    0.000    5.600 
#    0.000    0.000    0.000    0.000    0.000    0.000 
#
# Total GULP energy -334583.081786 kJ/mol
# GULP energy per Si atom -5576.384696 kJ/mol
# Density = 1.633108 g / cm^3
# Si number density = 16.368332 Si / 1000 Ang^3
#
#
#
# Elastic Constant Matrix: (Units=GPa)
#
#
# Indices 1 2 3 4 5 6 
#
# 1 52.9163 19.5351 10.3343 0.0000 0.0000 0.0000
# 2 19.5351 89.7359 23.9236 0.0000 0.0000 0.0000
# 3 10.3343 23.9236 30.3145 0.0000 0.0000 0.0000
# 4 0.0000 0.0000 0.0000 17.9382 0.0000 0.0000
# 5 0.0000 0.0000 0.0000 0.0000 30.0353 0.0000
# 6 0.0000 0.0000 0.0000 0.0000 0.0000 22.2461
#
#
#
# Elastic Compliance Matrix: (Units=1/GPa)
#
#
# Indices 1 2 3 4 5 6 
#
# 1 0.021024 -0.003376 -0.004502 0.000000 0.000000 0.000000
# 2 -0.003376 0.014655 -0.010415 0.000000 0.000000 0.000000
# 3 -0.004502 -0.010415 0.042742 0.000000 0.000000 0.000000
# 4 0.000000 0.000000 0.000000 0.055747 0.000000 0.000000
# 5 0.000000 0.000000 0.000000 0.000000 0.033294 0.000000
# 6 0.000000 0.000000 0.000000 0.000000 0.000000 0.044952
#
#
# Mechanical properties :
#
#
# Convention : Reuss Voigt Hill
#
# Bulk Modulus (GPa) = 23.90435 31.17253 27.53844
# Shear Modulus (GPa) = 19.01539 21.98882 20.50210
#
# Velocity S-wave (km/s) = 3.41210 3.66919 3.54297
# Velocity P-wave (km/s) = 5.49171 6.08575 5.79635
#
# Compressibility (1/GPa) = 0.04183339
#
# Stress axis : x y z
#
# Youngs Moduli (GPa) = 47.56579 68.23414 23.39646
#
# Poissons Ratio (x) = 0.23039 0.10534
# Poissons Ratio (y) = 0.16060 0.24367
# Poissons Ratio (z) = 0.21416 0.71064
#
# Static dielectric constant tensor:
#      x y z
#    x 1.543170 0.000000 0.000000 
#    y 0.000000 1.557870 0.000000 
#    z 0.000000 0.000000 1.552560 
# 
# From -- ./inp_files/55922.got.cif
#   From: 2010.05.17/outbox.cif.g08.bks.cpg/sg71_28_cif.got.tgz:55922.got - 2010.06.03 16:22:01.
