data_PCOD9519208
_publ_section_title
;
Structure prediction by ZEFSAII (Michael W. Deem and Ramdas Pophale) SiO2 
 PCOD9519208
Probable space group: I M M M
;
_chemical_formula_sum "Si O2"
_cell_formula_units_Z 112
_cell_length_a 14.411449
_cell_length_b 26.356087
_cell_length_c 14.377392
_cell_angle_alpha 90.000000
_cell_angle_beta 90.000000
_cell_angle_gamma 90.000000
_cell_volume 5460.956229
_symmetry_space_group_name_H-M "I M M M"
_symmetry_group_IT_number 71
_symmetry_cell_setting 'orthorhombic'
loop_
_space_group_symop_operation_xyz
x,y,z
-x,-y,z
x,-y,-z
-x,y,-z
-x,-y,-z
x,y,-z
-x,y,z
x,-y,z
1/2+x,1/2+y,1/2+z
1/2-x,1/2-y,1/2+z
1/2+x,1/2-y,1/2-z
1/2-x,1/2+y,1/2-z
1/2-x,1/2-y,1/2-z
1/2+x,1/2+y,1/2-z
1/2-x,1/2+y,1/2+z
1/2+x,1/2-y,1/2+z
loop_
_atom_site_type_symbol
_atom_site_label
_atom_site_fract_x
_atom_site_fract_y
_atom_site_fract_z
Si Si1 0.603276 0.884065 0.394027
Si Si2 0.393726 0.704987 0.604760
Si Si3 0.791763 0.648927 0.609390
Si Si4 0.109851 0.944308 0.387417
Si Si5 0.298182 0.660076 0.109602
Si Si6 0.890743 0.743327 0.294279
Si Si7 0.392154 0.058729 0.793592
O O1 0.610346 0.903892 0.500000
O O2 0.500000 0.861158 0.383155
O O3 0.688082 0.846046 0.381351
O O4 0.612873 0.926661 0.315463
O O5 0.379881 0.725579 0.500000
O O6 0.500000 0.686633 0.611881
O O7 0.317284 0.661439 0.618695
O O8 0.380642 0.746227 0.684752
O O9 0.814948 0.652717 0.500000
O O10 0.844352 0.692828 0.666582
O O11 0.825203 0.595908 0.650508
O O12 0.120194 0.944705 0.500000
O O13 0.160308 0.893526 0.354285
O O14 0.000000 0.940502 0.368141
O O15 0.142878 0.000000 0.353949
O O16 0.341743 0.708158 0.159137
O O17 0.320450 0.664224 0.000000
O O18 0.000000 0.742818 0.316383
O O19 0.500000 0.068243 0.821404
O O20 0.371462 0.000000 0.808003
#
# Coordination Sequence:
#
# PCOD9519208 Si02
#       7
#    16  16  16  16  16  16  16
#     4   9  19  36  57  82 114 153 198 246 292 340
#     4   9  20  40  64  88 116 153 195 237 282 336
#     4  11  23  40  63  89 120 155 190 236 294 351
#     4   8  14  25  41  63  95 136 179 221 267 323
#     4  10  19  31  50  78 114 154 192 232 283 343
#     4  11  22  36  58  88 122 157 194 239 289 344
#     4  10  22  40  61  85 114 150 194 244 297 355
#
# _framework density 20.509229000000001
#
# number of rings (size 3 to 8) (size 9 to 14) (size 15 to 20)
#    0.000    2.286    0.000    3.000    0.000    3.714 
#    0.000    7.857    0.000   10.714    0.000    2.000 
#    0.000    0.000    0.000    0.000    0.000    0.000 
#
# Total GULP energy -312972.416247 kJ/mol
# GULP energy per Si atom -5588.793147 kJ/mol
# Density = 2.046255 g / cm^3
# Si number density = 20.509229 Si / 1000 Ang^3
#
#
#
# Elastic Constant Matrix: (Units=GPa)
#
#
# Indices 1 2 3 4 5 6 
#
# 1 112.0971 72.0003 65.4240 0.0000 0.0000 0.0000
# 2 72.0003 125.7279 59.7967 -0.0002 0.0000 0.0000
# 3 65.4240 59.7967 107.0719 -0.0001 0.0000 0.0000
# 4 0.0000 -0.0002 -0.0001 6.3394 0.0000 0.0000
# 5 0.0000 0.0000 0.0000 0.0000 24.3763 0.0000
# 6 0.0000 0.0000 0.0000 0.0000 0.0000 12.8941
#
#
#
# Elastic Compliance Matrix: (Units=1/GPa)
#
#
# Indices 1 2 3 4 5 6 
#
# 1 0.017094 -0.006565 -0.006778 0.000000 0.000000 0.000000
# 2 -0.006565 0.013352 -0.003445 0.000000 0.000000 0.000000
# 3 -0.006778 -0.003445 0.015405 0.000000 0.000000 0.000000
# 4 0.000000 0.000000 0.000000 0.157743 0.000000 0.000000
# 5 0.000000 0.000000 0.000000 0.000000 0.041023 0.000000
# 6 0.000000 0.000000 0.000000 0.000000 0.000000 0.077555
#
#
# Mechanical properties :
#
#
# Convention : Reuss Voigt Hill
#
# Bulk Modulus (GPa) = 81.47551 82.14879 81.81215
# Shear Modulus (GPa) = 13.89504 18.56702 16.23103
#
# Velocity S-wave (km/s) = 2.60571 3.01209 2.81624
# Velocity P-wave (km/s) = 6.99038 7.22761 7.10999
#
# Compressibility (1/GPa) = 0.01227363
#
# Stress axis : x y z
#
# Youngs Moduli (GPa) = 58.50079 74.89563 64.91307
#
# Poissons Ratio (x) = 0.49171 0.44000
# Poissons Ratio (y) = 0.38407 0.22363
# Poissons Ratio (z) = 0.39653 0.25802
#
# Static dielectric constant tensor:
#      x y z
#    x 1.754900 0.000000 0.000000 
#    y 0.000000 1.700090 0.000000 
#    z 0.000000 0.000000 1.756780 
# 
# From -- ./inp_files/34859.got.cif
#   From: 2010.05.17/outbox.cif.g08.bks.cpg/sg71_18_cif.got.tgz:34859.got - 2010.06.03 16:22:01.
