data_PCOD9519467
_publ_section_title
;
Structure prediction by ZEFSAII (Michael W. Deem and Ramdas Pophale) SiO2 
 PCOD9519467
Probable space group: I M M M
;
_chemical_formula_sum "Si O2"
_cell_formula_units_Z 72
_cell_length_a 31.995439
_cell_length_b 14.062991
_cell_length_c 7.964358
_cell_angle_alpha 90.000000
_cell_angle_beta 90.000000
_cell_angle_gamma 90.000000
_cell_volume 3583.575392
_symmetry_space_group_name_H-M "I M M M"
_symmetry_group_IT_number 71
_symmetry_cell_setting 'orthorhombic'
loop_
_space_group_symop_operation_xyz
x,y,z
-x,-y,z
x,-y,-z
-x,y,-z
-x,-y,-z
x,y,-z
-x,y,z
x,-y,z
1/2+x,1/2+y,1/2+z
1/2-x,1/2-y,1/2+z
1/2+x,1/2-y,1/2-z
1/2-x,1/2+y,1/2-z
1/2-x,1/2-y,1/2-z
1/2+x,1/2+y,1/2-z
1/2-x,1/2+y,1/2+z
1/2+x,1/2-y,1/2+z
loop_
_atom_site_type_symbol
_atom_site_label
_atom_site_fract_x
_atom_site_fract_y
_atom_site_fract_z
Si Si1 0.641841 0.392094 0.701850
Si Si2 0.949971 0.610424 0.500000
Si Si3 0.177438 0.386756 0.305486
Si Si4 0.766842 0.111159 0.301436
Si Si5 0.095598 0.289856 0.192420
O O1 0.643490 0.395187 0.500000
O O2 0.636183 0.500000 0.765551
O O3 0.686870 0.353285 0.760943
O O4 0.605501 0.318662 0.745614
O O5 0.936413 0.500000 0.500000
O O6 0.932334 0.659412 0.331802
O O7 0.000000 0.614376 0.500000
O O8 0.165925 0.373823 0.500000
O O9 0.178424 0.500000 0.268720
O O10 0.224717 0.349253 0.280307
O O11 0.141274 0.339479 0.197574
O O12 0.760474 0.114473 0.500000
O O13 0.768971 0.000000 0.245980
O O14 0.079859 0.293607 0.000000
#
# Coordination Sequence:
#
# PCOD9519467 Si02
#       5
#    16   8  16  16  16
#     4   9  19  36  56  82 120 165 211 254 297 344
#     4  11  26  48  71  97 127 153 186 242 311 381
#     4  10  19  32  51  77 117 164 206 255 306 353
#     4   9  17  28  46  76 114 161 212 257 298 342
#     4  11  23  39  64  94 121 158 203 248 301 366
#
# _framework density 20.091667000000001
#
# number of rings (size 3 to 8) (size 9 to 14) (size 15 to 20)
#    0.000    2.111    1.111    2.000    1.556    6.667 
#    0.000    1.111    0.000    1.333    0.000    3.111 
#    0.000    0.000    0.000    0.000    0.000    0.000 
#
# Total GULP energy -201076.052355 kJ/mol
# GULP energy per Si atom -5585.445899 kJ/mol
# Density = 2.004594 g / cm^3
# Si number density = 20.091667 Si / 1000 Ang^3
#
#
#
# Elastic Constant Matrix: (Units=GPa)
#
#
# Indices 1 2 3 4 5 6 
#
# 1 63.0781 35.0622 41.1276 0.0000 0.0000 0.0000
# 2 35.0622 98.3854 48.1027 0.0000 0.0000 0.0000
# 3 41.1276 48.1027 62.5168 0.0000 0.0000 0.0000
# 4 0.0000 0.0000 0.0000 19.9172 0.0000 0.0000
# 5 0.0000 0.0000 0.0000 0.0000 14.7756 0.0000
# 6 0.0000 0.0000 0.0000 0.0000 0.0000 25.7875
#
#
#
# Elastic Compliance Matrix: (Units=1/GPa)
#
#
# Indices 1 2 3 4 5 6 
#
# 1 0.027908 -0.001554 -0.017164 0.000000 0.000000 0.000000
# 2 -0.001554 0.016380 -0.011581 0.000000 0.000000 0.000000
# 3 -0.017164 -0.011581 0.036199 0.000000 0.000000 0.000000
# 4 0.000000 0.000000 0.000000 0.050208 0.000000 0.000000
# 5 0.000000 0.000000 0.000000 0.000000 0.067679 0.000000
# 6 0.000000 0.000000 0.000000 0.000000 0.000000 0.038778
#
#
# Mechanical properties :
#
#
# Convention : Reuss Voigt Hill
#
# Bulk Modulus (GPa) = 50.28114 52.50726 51.39420
# Shear Modulus (GPa) = 16.42677 18.74191 17.58434
#
# Velocity S-wave (km/s) = 2.86246 3.05752 2.96160
# Velocity P-wave (km/s) = 6.00042 6.21733 6.10984
#
# Compressibility (1/GPa) = 0.01988817
#
# Stress axis : x y z
#
# Youngs Moduli (GPa) = 35.83145 61.04930 27.62538
#
# Poissons Ratio (x) = 0.09486 0.47417
# Poissons Ratio (y) = 0.05568 0.31994
# Poissons Ratio (z) = 0.61502 0.70703
#
# Static dielectric constant tensor:
#      x y z
#    x 1.699760 0.000000 0.000000 
#    y 0.000000 1.799560 0.000000 
#    z 0.000000 0.000000 1.682770 
# 
# From -- ./inp_files/6424.got.cif
#   From: 2010.05.17/outbox.cif.g08.bks.cpg/sg71_4_cif.got.tgz:6424.got - 2010.06.03 16:22:01.
