data_PCOD9519191
_publ_section_title
;
Structure prediction by ZEFSAII (Michael W. Deem and Ramdas Pophale) SiO2 
 PCOD9519191
Probable space group: I M M M
;
_chemical_formula_sum "Si O2"
_cell_formula_units_Z 88
_cell_length_a 28.539638
_cell_length_b 9.377522
_cell_length_c 18.117390
_cell_angle_alpha 90.000000
_cell_angle_beta 90.000000
_cell_angle_gamma 90.000000
_cell_volume 4848.776711
_symmetry_space_group_name_H-M "I M M M"
_symmetry_group_IT_number 71
_symmetry_cell_setting 'orthorhombic'
loop_
_space_group_symop_operation_xyz
x,y,z
-x,-y,z
x,-y,-z
-x,y,-z
-x,-y,-z
x,y,-z
-x,y,z
x,-y,z
1/2+x,1/2+y,1/2+z
1/2-x,1/2-y,1/2+z
1/2+x,1/2-y,1/2-z
1/2-x,1/2+y,1/2-z
1/2-x,1/2-y,1/2-z
1/2+x,1/2+y,1/2-z
1/2-x,1/2+y,1/2+z
1/2+x,1/2-y,1/2+z
loop_
_atom_site_type_symbol
_atom_site_label
_atom_site_fract_x
_atom_site_fract_y
_atom_site_fract_z
Si Si1 0.852719 0.328638 0.662924
Si Si2 0.552557 0.826548 0.914061
Si Si3 0.500000 0.836707 0.590015
Si Si4 0.259431 0.172442 0.081838
Si Si5 0.409463 0.333968 0.585701
Si Si6 0.820406 0.168560 0.809057
O O1 0.854063 0.500000 0.673535
O O2 0.903974 0.279474 0.636029
O O3 0.813383 0.299043 0.600950
O O4 0.834525 0.254253 0.736706
O O5 0.500000 0.781248 0.891244
O O6 0.553014 0.000000 0.912808
O O7 0.559469 0.785561 0.000000
O O8 0.500000 0.830149 0.500000
O O9 0.547279 0.758877 0.614090
O O10 0.500000 0.000000 0.613036
O O11 0.225726 0.222316 0.147810
O O12 0.253653 0.000000 0.080435
O O13 0.246816 0.225416 0.000000
O O14 0.400044 0.297201 0.500000
O O15 0.423520 0.500000 0.587614
O O16 0.363054 0.317634 0.633273
O O17 0.814556 0.000000 0.791635
#
# Coordination Sequence:
#
# PCOD9519191 Si02
#       6
#    16  16   8  16  16  16
#     4  10  19  31  50  76 104 131 162 204 255 304
#     4   8  14  27  49  75 100 127 164 207 244 284
#     4   9  17  29  47  71  95 119 152 203 260 299
#     4   9  17  31  53  77  97 125 171 217 250 289
#     4   9  17  31  50  68  89 125 173 213 243 288
#     4  10  20  33  49  71 101 134 165 203 251 300
#
# _framework density 18.148907000000001
#
# number of rings (size 3 to 8) (size 9 to 14) (size 15 to 20)
#    0.000    2.818    0.000    2.455    0.000    6.182 
#    1.636    0.000    0.000    4.909    0.000    1.273 
#    0.000    0.000    0.000    0.000    0.000    0.000 
#
# Total GULP energy -245216.341166 kJ/mol
# GULP energy per Si atom -5573.098663 kJ/mol
# Density = 1.810760 g / cm^3
# Si number density = 18.148907 Si / 1000 Ang^3
#
#
#
# Elastic Constant Matrix: (Units=GPa)
#
#
# Indices 1 2 3 4 5 6 
#
# 1 124.2770 27.9302 52.2849 0.0000 0.0000 0.0000
# 2 27.9302 15.1909 16.6537 0.0000 0.0000 0.0000
# 3 52.2849 16.6537 89.8617 0.0000 0.0000 0.0000
# 4 0.0000 0.0000 0.0000 20.3066 0.0000 0.0000
# 5 0.0000 0.0000 0.0000 0.0000 -28.3317 0.0000
# 6 0.0000 0.0000 0.0000 0.0000 0.0000 10.7552
#
#
#
# Elastic Compliance Matrix: (Units=1/GPa)
#
#
# Indices 1 2 3 4 5 6 
#
# 1 0.015067 -0.022705 -0.004559 0.000000 0.000000 0.000000
# 2 -0.022705 0.116829 -0.008441 0.000000 0.000000 0.000000
# 3 -0.004559 -0.008441 0.015345 0.000000 0.000000 0.000000
# 4 0.000000 0.000000 0.000000 0.049245 0.000000 0.000000
# 5 0.000000 0.000000 0.000000 0.000000 -0.035296 0.000000
# 6 0.000000 0.000000 0.000000 0.000000 0.000000 0.092978
#
#
# Mechanical properties :
#
#
# Convention : Reuss Voigt Hill
#
# Bulk Modulus (GPa) = 13.18711 47.00747 30.09729
# Shear Modulus (GPa) = 14.25093 9.37676 11.81385
#
# Velocity S-wave (km/s) = 2.80522 2.27547 2.55412
# Velocity P-wave (km/s) = 4.21595 5.73245 5.03166
#
# Compressibility (1/GPa) = 0.07583160
#
# Stress axis : x y z
#
# Youngs Moduli (GPa) = 66.36879 8.55954 65.16784
#
# Poissons Ratio (x) = 0.19435 0.29709
# Poissons Ratio (y) = 1.50692 0.55006
# Poissons Ratio (z) = 0.30257 0.07225
#
# Static dielectric constant tensor:
#      x y z
#    x 1.638190 0.000000 0.000000 
#    y 0.000000 1.608640 0.000000 
#    z 0.000000 0.000000 1.621890 
# 
# From -- ./inp_files/49256.got.cif
#   From: 2010.05.17/outbox.cif.g08.bks.cpg/sg71_25_cif.got.tgz:49256.got - 2010.06.03 16:22:01.
