data_PCOD9519289
_publ_section_title
;
Structure prediction by ZEFSAII (Michael W. Deem and Ramdas Pophale) SiO2 
 PCOD9519289
Probable space group: I M M M
;
_chemical_formula_sum "Si O2"
_cell_formula_units_Z 56
_cell_length_a 37.856623
_cell_length_b 10.644190
_cell_length_c 7.779949
_cell_angle_alpha 90.000000
_cell_angle_beta 90.000000
_cell_angle_gamma 90.000000
_cell_volume 3134.954474
_symmetry_space_group_name_H-M "I M M M"
_symmetry_group_IT_number 71
_symmetry_cell_setting 'orthorhombic'
loop_
_space_group_symop_operation_xyz
x,y,z
-x,-y,z
x,-y,-z
-x,y,-z
-x,-y,-z
x,y,-z
-x,y,z
x,-y,z
1/2+x,1/2+y,1/2+z
1/2-x,1/2-y,1/2+z
1/2+x,1/2-y,1/2-z
1/2-x,1/2+y,1/2-z
1/2-x,1/2-y,1/2-z
1/2+x,1/2+y,1/2-z
1/2-x,1/2+y,1/2+z
1/2+x,1/2-y,1/2+z
loop_
_atom_site_type_symbol
_atom_site_label
_atom_site_fract_x
_atom_site_fract_y
_atom_site_fract_z
Si Si1 0.795792 0.000000 0.706117
Si Si2 0.669001 0.241790 0.790829
Si Si3 0.092415 0.649630 0.803428
Si Si4 0.540272 0.847319 0.000000
Si Si5 0.213413 0.500000 0.706862
O O1 0.814339 0.127176 0.769278
O O2 0.799519 0.000000 0.500000
O O3 0.754319 0.000000 0.745110
O O4 0.629237 0.219308 0.729362
O O5 0.693205 0.124907 0.732496
O O6 0.668546 0.240779 0.000000
O O7 0.099153 0.500000 0.776007
O O8 0.062723 0.689386 0.667611
O O9 0.080993 0.666469 0.000000
O O10 0.500000 0.801651 0.000000
O O11 0.538865 0.000000 0.000000
O O12 0.211358 0.500000 0.500000
#
# Coordination Sequence:
#
# PCOD9519289 Si02
#       5
#     8  16  16   8   8
#     4  10  22  34  48  74 106 137 180 231 277 319
#     4  10  19  34  52  72 103 143 181 225 271 321
#     4  10  19  31  53  81 105 141 185 217 262 322
#     4   9  18  32  52  79 117 147 171 221 273 319
#     4  10  20  32  52  70  98 145 182 223 279 325
#
# _framework density 17.863098000000001
#
# number of rings (size 3 to 8) (size 9 to 14) (size 15 to 20)
#    0.000    2.143    2.857    0.857    0.000    2.857 
#    0.000    2.857    0.000    0.000    0.000    2.000 
#    0.000    2.286    0.000    0.000    0.000    0.000 
#
# Total GULP energy -156300.246534 kJ/mol
# GULP energy per Si atom -5582.151662 kJ/mol
# Density = 1.782244 g / cm^3
# Si number density = 17.863098 Si / 1000 Ang^3
#
#
#
# Elastic Constant Matrix: (Units=GPa)
#
#
# Indices 1 2 3 4 5 6 
#
# 1 184.0218 69.3900 57.4048 0.0000 0.0000 0.0000
# 2 69.3900 110.5865 38.1900 0.0000 0.0000 0.0000
# 3 57.4048 38.1900 65.0884 0.0000 0.0000 0.0000
# 4 0.0000 0.0000 0.0000 2.7938 0.0000 0.0000
# 5 0.0000 0.0000 0.0000 0.0000 21.5798 0.0000
# 6 0.0000 0.0000 0.0000 0.0000 0.0000 -2.3664
#
#
#
# Elastic Compliance Matrix: (Units=1/GPa)
#
#
# Indices 1 2 3 4 5 6 
#
# 1 0.008408 -0.003405 -0.005418 0.000000 0.000000 0.000000
# 2 -0.003405 0.012719 -0.004460 0.000000 0.000000 0.000000
# 3 -0.005418 -0.004460 0.022759 0.000000 0.000000 0.000000
# 4 0.000000 0.000000 0.000000 0.357941 0.000000 0.000000
# 5 0.000000 0.000000 0.000000 0.000000 0.046340 0.000000
# 6 0.000000 0.000000 0.000000 0.000000 0.000000 -0.422577
#
#
# Mechanical properties :
#
#
# Convention : Reuss Voigt Hill
#
# Bulk Modulus (GPa) = 57.73358 76.62960 67.18159
# Shear Modulus (GPa) = 86.31241 17.38221 51.84731
#
# Velocity S-wave (km/s) = 6.95872 3.12281 5.39331
# Velocity P-wave (km/s) = 9.84658 7.48291 8.74497
#
# Compressibility (1/GPa) = 0.01732094
#
# Stress axis : x y z
#
# Youngs Moduli (GPa) = 118.93333 78.62008 43.93910
#
# Poissons Ratio (x) = 0.26769 0.23805
# Poissons Ratio (y) = 0.40495 0.19597
# Poissons Ratio (z) = 0.64435 0.35065
#
# Static dielectric constant tensor:
#      x y z
#    x 1.568300 0.000000 0.000000 
#    y 0.000000 1.601900 0.000000 
#    z 0.000000 0.000000 1.633360 
# 
# From -- ./inp_files/16104.got.cif
#   From: 2010.05.17/outbox.cif.g08.bks.cpg/sg71_9_cif.got.tgz:16104.got - 2010.06.03 16:22:01.
