data_PCOD9519270
_publ_section_title
;
Structure prediction by ZEFSAII (Michael W. Deem and Ramdas Pophale) SiO2 
 PCOD9519270
Probable space group: I M M M
;
_chemical_formula_sum "Si O2"
_cell_formula_units_Z 96
_cell_length_a 21.915297
_cell_length_b 25.586164
_cell_length_c 7.499571
_cell_angle_alpha 90.000000
_cell_angle_beta 90.000000
_cell_angle_gamma 90.000000
_cell_volume 4205.222321
_symmetry_space_group_name_H-M "I M M M"
_symmetry_group_IT_number 71
_symmetry_cell_setting 'orthorhombic'
loop_
_space_group_symop_operation_xyz
x,y,z
-x,-y,z
x,-y,-z
-x,y,-z
-x,-y,-z
x,y,-z
-x,y,z
x,-y,z
1/2+x,1/2+y,1/2+z
1/2-x,1/2-y,1/2+z
1/2+x,1/2-y,1/2-z
1/2-x,1/2+y,1/2-z
1/2-x,1/2-y,1/2-z
1/2+x,1/2+y,1/2-z
1/2-x,1/2+y,1/2+z
1/2+x,1/2-y,1/2+z
loop_
_atom_site_type_symbol
_atom_site_label
_atom_site_fract_x
_atom_site_fract_y
_atom_site_fract_z
Si Si1 0.177262 0.245380 0.213370
Si Si2 0.596482 0.557404 0.214901
Si Si3 0.433539 0.674866 0.290306
Si Si4 0.239007 0.942836 0.282719
Si Si5 0.331107 0.141087 0.705186
Si Si6 0.570543 0.057720 0.784703
O O1 0.250000 0.250000 0.250000
O O2 0.129320 0.201364 0.282359
O O3 0.154542 0.302137 0.279206
O O4 0.174174 0.240044 0.000000
O O5 0.573818 0.500000 0.276171
O O6 0.569093 0.612015 0.275486
O O7 0.668104 0.560170 0.263114
O O8 0.591690 0.557044 0.000000
O O9 0.435155 0.687655 0.500000
O O10 0.500000 0.691941 0.215104
O O11 0.242929 0.942474 0.500000
O O12 0.276725 0.893559 0.213326
O O13 0.262245 0.000000 0.223583
O O14 0.313173 0.150816 0.500000
O O15 0.388496 0.103262 0.710462
O O16 0.500000 0.063613 0.735611
O O17 0.590922 0.000000 0.725497
O O18 0.574264 0.059109 0.000000
#
# Coordination Sequence:
#
# PCOD9519270 Si02
#       6
#    16  16  16  16  16  16
#     4  10  22  39  59  83 111 145 185 230 277 324
#     4   9  18  34  57  83 109 138 175 220 268 319
#     4  10  22  39  56  77 111 151 185 221 271 330
#     4   8  14  26  46  74 106 133 159 203 263 317
#     4  10  19  31  52  79 102 131 176 224 267 316
#     4   9  19  35  51  70 103 143 177 215 269 328
#
# _framework density 22.828757
#
# number of rings (size 3 to 8) (size 9 to 14) (size 15 to 20)
#    0.000    2.667    0.000    3.000    0.000    5.667 
#    0.000    5.000    0.000    1.000    0.000    0.000 
#    0.000    0.000    0.000    0.000    0.000    0.000 
#
# Total GULP energy -267683.298714 kJ/mol
# GULP energy per Si atom -5576.735390 kJ/mol
# Density = 2.277680 g / cm^3
# Si number density = 22.828757 Si / 1000 Ang^3
#
#
#
# Elastic Constant Matrix: (Units=GPa)
#
#
# Indices 1 2 3 4 5 6 
#
# 1 141.0740 77.8668 5.4752 0.0000 0.0000 0.0000
# 2 77.8668 147.0442 0.6674 0.0000 0.0000 0.0000
# 3 5.4752 0.6674 61.3623 0.0000 0.0000 0.0000
# 4 0.0000 0.0000 0.0000 9.4792 0.0000 0.0000
# 5 0.0000 0.0000 0.0000 0.0000 24.0169 0.0000
# 6 0.0000 0.0000 0.0000 0.0000 0.0000 -64.2431
#
#
#
# Elastic Compliance Matrix: (Units=1/GPa)
#
#
# Indices 1 2 3 4 5 6 
#
# 1 0.010059 -0.005323 -0.000840 0.000000 0.000000 0.000000
# 2 -0.005323 0.009618 0.000370 0.000000 0.000000 0.000000
# 3 -0.000840 0.000370 0.016368 0.000000 0.000000 0.000000
# 4 0.000000 0.000000 0.000000 0.105494 0.000000 0.000000
# 5 0.000000 0.000000 0.000000 0.000000 0.041637 0.000000
# 6 0.000000 0.000000 0.000000 0.000000 0.000000 -0.015566
#
#
# Mechanical properties :
#
#
# Convention : Reuss Voigt Hill
#
# Bulk Modulus (GPa) = 40.88329 57.49993 49.19161
# Shear Modulus (GPa) = 26.68833 11.54867 19.11850
#
# Velocity S-wave (km/s) = 3.42287 2.25162 2.89705
# Velocity P-wave (km/s) = 5.79387 5.65702 5.72586
#
# Compressibility (1/GPa) = 0.02445987
#
# Stress axis : x y z
#
# Youngs Moduli (GPa) = 99.41235 103.97443 61.09650
#
# Poissons Ratio (x) = 0.55345 0.05130
# Poissons Ratio (y) = 0.52917 -0.02263
# Poissons Ratio (z) = 0.08347 -0.03851
#
# Static dielectric constant tensor:
#      x y z
#    x 1.872160 0.000000 0.000000 
#    y 0.000000 1.864320 0.000000 
#    z 0.000000 0.000000 1.899340 
# 
# From -- ./inp_files/12831.got.cif
#   From: 2010.05.17/outbox.cif.g08.bks.cpg/sg71_7_cif.got.tgz:12831.got - 2010.06.03 16:22:01.
