data_PCOD9519772
_publ_section_title
;
Structure prediction by ZEFSAII (Michael W. Deem and Ramdas Pophale) SiO2 
 PCOD9519772
Probable space group: I M M M
;
_chemical_formula_sum "Si O2"
_cell_formula_units_Z 68
_cell_length_a 7.541239
_cell_length_b 22.055768
_cell_length_c 23.668016
_cell_angle_alpha 90.000000
_cell_angle_beta 90.000000
_cell_angle_gamma 90.000000
_cell_volume 3936.649453
_symmetry_space_group_name_H-M "I M M M"
_symmetry_group_IT_number 71
_symmetry_cell_setting 'orthorhombic'
loop_
_space_group_symop_operation_xyz
x,y,z
-x,-y,z
x,-y,-z
-x,y,-z
-x,-y,-z
x,y,-z
-x,y,z
x,-y,z
1/2+x,1/2+y,1/2+z
1/2-x,1/2-y,1/2+z
1/2+x,1/2-y,1/2-z
1/2-x,1/2+y,1/2-z
1/2-x,1/2-y,1/2-z
1/2+x,1/2+y,1/2-z
1/2-x,1/2+y,1/2+z
1/2+x,1/2-y,1/2+z
loop_
_atom_site_type_symbol
_atom_site_label
_atom_site_fract_x
_atom_site_fract_y
_atom_site_fract_z
Si Si1 0.796497 0.659315 0.794342
Si Si2 0.785010 0.292703 0.671018
Si Si3 0.500000 0.431578 0.189361
Si Si4 0.000000 0.000000 0.199783
Si Si5 0.784716 0.632351 0.437953
Si Si6 0.787808 0.500000 0.395334
O O1 0.736714 0.674382 0.729869
O O2 0.781943 0.723960 0.825591
O O3 0.671446 0.609128 0.821915
O O4 0.000000 0.639304 0.792501
O O5 0.723456 0.328792 0.615732
O O6 0.000000 0.290352 0.670536
O O7 0.500000 0.500000 0.164711
O O8 0.500000 0.444407 0.256825
O O9 0.173536 0.000000 0.161426
O O10 0.722595 0.651956 0.500000
O O11 0.743072 0.561619 0.428135
O O12 0.000000 0.636309 0.437876
O O13 0.000000 0.500000 0.384307
#
# Coordination Sequence:
#
# PCOD9519772 Si02
#       6
#    16  16   8   4  16   8
#     4  10  19  33  52  73  97 132 170 210 261 309
#     4   9  17  30  50  72  99 131 175 216 252 306
#     4  10  22  34  48  75 105 127 162 217 252 310
#     4  10  22  32  49  74 100 134 171 214 250 292
#     4   9  17  30  50  73 100 139 180 219 257 292
#     4  10  19  34  50  68  98 142 184 217 249 292
#
# _framework density 17.273574
#
# number of rings (size 3 to 8) (size 9 to 14) (size 15 to 20)
#    0.353    2.118    1.176    1.765    1.647    4.706 
#    2.118    1.176    0.000    0.000    0.000    0.000 
#    0.000    1.882    0.000    2.118    0.000    0.000 
#
# Total GULP energy -189580.755822 kJ/mol
# GULP energy per Si atom -5575.904583 kJ/mol
# Density = 1.723426 g / cm^3
# Si number density = 17.273574 Si / 1000 Ang^3
#
#
#
# Elastic Constant Matrix: (Units=GPa)
#
#
# Indices 1 2 3 4 5 6 
#
# 1 59.5116 32.6066 -2.3955 0.0000 0.0000 0.0000
# 2 32.6066 115.2425 36.1646 0.0000 0.0000 0.0000
# 3 -2.3955 36.1646 81.0089 0.0000 0.0000 0.0000
# 4 0.0000 0.0000 0.0000 7.2958 0.0000 0.0000
# 5 0.0000 0.0000 0.0000 0.0000 9.1201 0.0000
# 6 0.0000 0.0000 0.0000 0.0000 0.0000 4.8839
#
#
#
# Elastic Compliance Matrix: (Units=1/GPa)
#
#
# Indices 1 2 3 4 5 6 
#
# 1 0.020835 -0.007080 0.003777 0.000000 0.000000 0.000000
# 2 -0.007080 0.012497 -0.005788 0.000000 0.000000 0.000000
# 3 0.003777 -0.005788 0.015040 0.000000 0.000000 0.000000
# 4 0.000000 0.000000 0.000000 0.137064 0.000000 0.000000
# 5 0.000000 0.000000 0.000000 0.000000 0.109648 0.000000
# 6 0.000000 0.000000 0.000000 0.000000 0.000000 0.204756
#
#
# Mechanical properties :
#
#
# Convention : Reuss Voigt Hill
#
# Bulk Modulus (GPa) = 33.12517 43.16827 38.14672
# Shear Modulus (GPa) = 9.46815 16.88578 13.17696
#
# Velocity S-wave (km/s) = 2.34376 3.12997 2.76495
# Velocity P-wave (km/s) = 5.15196 6.17313 5.68551
#
# Compressibility (1/GPa) = 0.03018853
#
# Stress axis : x y z
#
# Youngs Moduli (GPa) = 47.99670 80.01849 66.48883
#
# Poissons Ratio (x) = 0.56655 -0.25112
# Poissons Ratio (y) = 0.33983 0.38487
# Poissons Ratio (z) = -0.18128 0.46318
#
# Static dielectric constant tensor:
#      x y z
#    x 1.623550 0.000000 0.000000 
#    y 0.000000 1.584540 0.000000 
#    z 0.000000 0.000000 1.568310 
# 
# From -- ./inp_files/63016.got.cif
#   From: 2010.05.17/outbox.cif.g08.bks.cpg/sg71_32_cif.got.tgz:63016.got - 2010.06.03 16:22:01.
