data_PCOD9519761
_publ_section_title
;
Structure prediction by ZEFSAII (Michael W. Deem and Ramdas Pophale) SiO2 
 PCOD9519761
Probable space group: I M M M
;
_chemical_formula_sum "Si O2"
_cell_formula_units_Z 96
_cell_length_a 31.639135
_cell_length_b 21.943578
_cell_length_c 8.260001
_cell_angle_alpha 90.000000
_cell_angle_beta 90.000000
_cell_angle_gamma 90.000000
_cell_volume 5734.719023
_symmetry_space_group_name_H-M "I M M M"
_symmetry_group_IT_number 71
_symmetry_cell_setting 'orthorhombic'
loop_
_space_group_symop_operation_xyz
x,y,z
-x,-y,z
x,-y,-z
-x,y,-z
-x,-y,-z
x,y,-z
-x,y,z
x,-y,z
1/2+x,1/2+y,1/2+z
1/2-x,1/2-y,1/2+z
1/2+x,1/2-y,1/2-z
1/2-x,1/2+y,1/2-z
1/2-x,1/2-y,1/2-z
1/2+x,1/2+y,1/2-z
1/2-x,1/2+y,1/2+z
1/2+x,1/2-y,1/2+z
loop_
_atom_site_type_symbol
_atom_site_label
_atom_site_fract_x
_atom_site_fract_y
_atom_site_fract_z
Si Si1 0.840320 0.901684 0.303633
Si Si2 0.247300 0.433813 0.198159
Si Si3 0.283132 0.198015 0.692157
Si Si4 0.362674 0.265957 0.193030
Si Si5 0.433739 0.565908 0.803842
Si Si6 0.046055 0.200758 0.192819
O O1 0.839538 0.902320 0.500000
O O2 0.796452 0.930006 0.250849
O O3 0.844511 0.831586 0.251237
O O4 0.884125 0.932855 0.258266
O O5 0.229864 0.500000 0.249387
O O6 0.226979 0.370210 0.254471
O O7 0.246064 0.433248 0.000000
O O8 0.278148 0.196224 0.500000
O O9 0.250000 0.250000 0.750000
O O10 0.330890 0.216734 0.735060
O O11 0.412208 0.267032 0.236988
O O12 0.359164 0.263649 0.000000
O O13 0.451282 0.500000 0.753839
O O14 0.451620 0.628726 0.735535
O O15 0.437062 0.569554 0.000000
O O16 0.000000 0.223318 0.250611
O O17 0.047853 0.206860 0.000000
#
# Coordination Sequence:
#
# PCOD9519761 Si02
#       6
#    16  16  16  16  16  16
#     4   8  13  24  42  64  88 117 158 203 240 274
#     4   9  16  26  43  68  97 129 166 203 237 278
#     4  11  20  31  49  74 102 132 168 207 247 291
#     4  10  19  33  52  72  92 122 164 204 246 294
#     4   9  17  28  44  65  89 122 164 205 243 289
#     4  10  21  35  49  67  92 120 152 200 258 302
#
# _framework density 16.740141000000001
#
# number of rings (size 3 to 8) (size 9 to 14) (size 15 to 20)
#    0.000    2.500    1.667    3.000    0.000    4.000 
#    0.000    1.667    0.000    2.000    0.000    0.000 
#    0.000    0.667    0.000    7.667    0.000    2.167 
#
# Total GULP energy -267439.691389 kJ/mol
# GULP energy per Si atom -5571.660237 kJ/mol
# Density = 1.670204 g / cm^3
# Si number density = 16.740141 Si / 1000 Ang^3
#
#
#
# Elastic Constant Matrix: (Units=GPa)
#
#
# Indices 1 2 3 4 5 6 
#
# 1 99.8310 61.9240 5.6462 0.0000 0.0000 0.0000
# 2 61.9240 108.0896 12.6816 0.0000 0.0000 0.0000
# 3 5.6462 12.6816 16.2659 0.0000 0.0000 0.0000
# 4 0.0000 0.0000 0.0000 14.0551 0.0000 0.0000
# 5 0.0000 0.0000 0.0000 0.0000 17.7377 0.0000
# 6 0.0000 0.0000 0.0000 0.0000 0.0000 -5.2879
#
#
#
# Elastic Compliance Matrix: (Units=1/GPa)
#
#
# Indices 1 2 3 4 5 6 
#
# 1 0.015582 -0.009127 0.001707 0.000000 0.000000 0.000000
# 2 -0.009127 0.015529 -0.008939 0.000000 0.000000 0.000000
# 3 0.001707 -0.008939 0.067855 0.000000 0.000000 0.000000
# 4 0.000000 0.000000 0.000000 0.071149 0.000000 0.000000
# 5 0.000000 0.000000 0.000000 0.000000 0.056377 0.000000
# 6 0.000000 0.000000 0.000000 0.000000 0.000000 -0.189113
#
#
# Mechanical properties :
#
#
# Convention : Reuss Voigt Hill
#
# Bulk Modulus (GPa) = 15.09476 42.74336 28.91906
# Shear Modulus (GPa) = 54.24159 14.89662 34.56911
#
# Velocity S-wave (km/s) = 5.69846 2.98631 4.54920
# Velocity P-wave (km/s) = 7.23417 6.12206 6.70123
#
# Compressibility (1/GPa) = 0.06624816
#
# Stress axis : x y z
#
# Youngs Moduli (GPa) = 64.17761 64.39490 14.73726
#
# Poissons Ratio (x) = 0.58773 -0.02516
# Poissons Ratio (y) = 0.58575 0.13174
# Poissons Ratio (z) = -0.10956 0.57563
#
# Static dielectric constant tensor:
#      x y z
#    x 1.591260 0.000000 0.000000 
#    y 0.000000 1.584690 0.000000 
#    z 0.000000 0.000000 1.589060 
# 
# From -- ./inp_files/15172.got.cif
#   From: 2010.05.17/outbox.cif.g08.bks.cpg/sg71_8_cif.got.tgz:15172.got - 2010.06.03 16:22:01.
