data_PCOD9519043
_publ_section_title
;
Structure prediction by ZEFSAII (Michael W. Deem and Ramdas Pophale) SiO2 
 PCOD9519043
Probable space group: I M M M
;
_chemical_formula_sum "Si O2"
_cell_formula_units_Z 128
_cell_length_a 22.952369
_cell_length_b 19.126573
_cell_length_c 18.256283
_cell_angle_alpha 90.000000
_cell_angle_beta 90.000000
_cell_angle_gamma 90.000000
_cell_volume 8014.511180
_symmetry_space_group_name_H-M "I M M M"
_symmetry_group_IT_number 71
_symmetry_cell_setting 'orthorhombic'
loop_
_space_group_symop_operation_xyz
x,y,z
-x,-y,z
x,-y,-z
-x,y,-z
-x,-y,-z
x,y,-z
-x,y,z
x,-y,z
1/2+x,1/2+y,1/2+z
1/2-x,1/2-y,1/2+z
1/2+x,1/2-y,1/2-z
1/2-x,1/2+y,1/2-z
1/2-x,1/2-y,1/2-z
1/2+x,1/2+y,1/2-z
1/2-x,1/2+y,1/2+z
1/2+x,1/2-y,1/2+z
loop_
_atom_site_type_symbol
_atom_site_label
_atom_site_fract_x
_atom_site_fract_y
_atom_site_fract_z
Si Si1 0.236313 0.688187 0.849636
Si Si2 0.633582 0.276587 0.414102
Si Si3 0.565757 0.722023 0.275253
Si Si4 0.328788 0.803616 0.200542
Si Si5 0.066538 0.080502 0.306343
Si Si6 0.826814 0.917063 0.584480
Si Si7 0.825574 0.420014 0.585275
Si Si8 0.314382 0.575349 0.587045
O O1 0.184908 0.720964 0.898705
O O2 0.284038 0.749136 0.836528
O O3 0.206674 0.669102 0.771803
O O4 0.271853 0.624913 0.884428
O O5 0.619979 0.278522 0.500000
O O6 0.580127 0.263246 0.360019
O O7 0.658107 0.352317 0.387779
O O8 0.500000 0.743286 0.256830
O O9 0.614992 0.762345 0.229587
O O10 0.571026 0.639743 0.255474
O O11 0.346518 0.863715 0.143799
O O12 0.115723 0.096090 0.366702
O O13 0.000000 0.084939 0.335753
O O14 0.074778 0.000000 0.281354
O O15 0.836943 0.897171 0.500000
O O16 0.815802 0.000000 0.587598
O O17 0.837776 0.402181 0.500000
O O18 0.845320 0.500000 0.597925
O O19 0.755273 0.420103 0.594161
O O20 0.326361 0.573017 0.500000
O O21 0.333446 0.500000 0.618816
#
# Coordination Sequence:
#
# PCOD9519043 Si02
#       8
#    16  16  16  16  16  16  16  16
#     4  10  19  31  47  73 102 128 161 198 243 302
#     4  10  19  31  50  72  97 131 163 201 251 293
#     4  10  21  36  50  68  95 128 173 214 241 285
#     4  10  19  32  50  72  99 131 162 197 246 293
#     4   9  18  33  50  67  94 135 175 208 242 279
#     4  10  20  32  48  71  98 129 164 205 248 287
#     4   9  17  29  48  76 105 130 157 191 236 294
#     4   8  14  24  39  65 100 129 153 185 229 282
#
# _framework density 15.971031
#
# number of rings (size 3 to 8) (size 9 to 14) (size 15 to 20)
#    0.000    2.500    2.500    1.125    0.000    2.000 
#    0.000    3.750    0.000    0.750    0.000    4.375 
#    0.000    0.000    0.000   13.250    0.000    0.000 
#
# Total GULP energy -356394.266076 kJ/mol
# GULP energy per Si atom -5568.660407 kJ/mol
# Density = 1.593468 g / cm^3
# Si number density = 15.971031 Si / 1000 Ang^3
#
#
#
# Elastic Constant Matrix: (Units=GPa)
#
#
# Indices 1 2 3 4 5 6 
#
# 1 69.2607 29.4884 30.4192 0.0000 0.0000 0.0000
# 2 29.4884 58.0029 40.6113 0.0000 0.0000 0.0000
# 3 30.4192 40.6113 73.7689 0.0000 0.0000 0.0000
# 4 0.0000 0.0000 0.0000 21.4987 0.0000 0.0000
# 5 0.0000 0.0000 0.0000 0.0000 11.1121 0.0000
# 6 0.0000 0.0000 0.0000 0.0000 0.0000 19.9602
#
#
#
# Elastic Compliance Matrix: (Units=1/GPa)
#
#
# Indices 1 2 3 4 5 6 
#
# 1 0.019171 -0.006853 -0.004133 0.000000 0.000000 0.000000
# 2 -0.006853 0.030504 -0.013967 0.000000 0.000000 0.000000
# 3 -0.004133 -0.013967 0.022949 0.000000 0.000000 0.000000
# 4 0.000000 0.000000 0.000000 0.046515 0.000000 0.000000
# 5 0.000000 0.000000 0.000000 0.000000 0.089992 0.000000
# 6 0.000000 0.000000 0.000000 0.000000 0.000000 0.050100
#
#
# Mechanical properties :
#
#
# Convention : Reuss Voigt Hill
#
# Bulk Modulus (GPa) = 44.01687 44.67448 44.34568
# Shear Modulus (GPa) = 15.78741 17.21510 16.50125
#
# Velocity S-wave (km/s) = 3.14746 3.28669 3.21783
# Velocity P-wave (km/s) = 6.38975 6.51430 6.45232
#
# Compressibility (1/GPa) = 0.02271856
#
# Stress axis : x y z
#
# Youngs Moduli (GPa) = 52.16227 32.78287 43.57465
#
# Poissons Ratio (x) = 0.22466 0.18008
# Poissons Ratio (y) = 0.35747 0.60861
# Poissons Ratio (z) = 0.21557 0.45788
#
# Static dielectric constant tensor:
#      x y z
#    x 1.507090 0.000000 0.000000 
#    y 0.000000 1.588210 0.000000 
#    z 0.000000 0.000000 1.541360 
# 
# From -- ./inp_files/46649.got.cif
#   From: 2010.05.17/outbox.cif.g08.bks.cpg/sg71_24_cif.got.tgz:46649.got - 2010.06.03 16:22:01.
