data_PCOD9519852
_publ_section_title
;
Structure prediction by ZEFSAII (Michael W. Deem and Ramdas Pophale) SiO2 
 PCOD9519852
Probable space group: I M M M
;
_chemical_formula_sum "Si O2"
_cell_formula_units_Z 82
_cell_length_a 7.734784
_cell_length_b 23.376914
_cell_length_c 22.844040
_cell_angle_alpha 90.000000
_cell_angle_beta 90.000000
_cell_angle_gamma 90.000000
_cell_volume 4130.553782
_symmetry_space_group_name_H-M "I M M M"
_symmetry_group_IT_number 71
_symmetry_cell_setting 'orthorhombic'
loop_
_space_group_symop_operation_xyz
x,y,z
-x,-y,z
x,-y,-z
-x,y,-z
-x,-y,-z
x,y,-z
-x,y,z
x,-y,z
1/2+x,1/2+y,1/2+z
1/2-x,1/2-y,1/2+z
1/2+x,1/2-y,1/2-z
1/2-x,1/2+y,1/2-z
1/2-x,1/2-y,1/2-z
1/2+x,1/2+y,1/2-z
1/2-x,1/2+y,1/2+z
1/2+x,1/2-y,1/2+z
loop_
_atom_site_type_symbol
_atom_site_label
_atom_site_fract_x
_atom_site_fract_y
_atom_site_fract_z
Si Si1 0.304860 0.000000 0.179049
Si Si2 0.787245 0.932394 0.000000
Si Si3 0.298619 0.624328 0.849051
Si Si4 0.700371 0.616817 0.622413
Si Si5 0.305117 0.500000 0.194169
Si Si6 0.207450 0.814062 0.769244
Si Si7 0.500000 0.878166 0.563863
Si Si8 0.500000 0.000000 0.500000
O O1 0.211365 0.943107 0.157189
O O2 0.500000 0.000000 0.155385
O O3 0.311148 0.000000 0.248947
O O4 0.727801 0.899123 0.941572
O O5 0.000000 0.933280 0.000000
O O6 0.736426 0.000000 0.000000
O O7 0.500000 0.640847 0.858245
O O8 0.288621 0.556118 0.844007
O O9 0.238334 0.647247 0.785828
O O10 0.167983 0.640507 0.899909
O O11 0.500000 0.632558 0.612720
O O12 0.776613 0.663289 0.668181
O O13 0.500000 0.500000 0.219256
O O14 0.250000 0.750000 0.750000
O O15 0.000000 0.819815 0.772809
O O16 0.500000 0.850752 0.500000
O O17 0.500000 0.947129 0.549947
#
# Coordination Sequence:
#
# PCOD9519852 Si02
#       8
#     8   8  16  16   8  16   8   2
#     4  12  22  28  48  85 117 151 185 230 291 355
#     4   9  16  28  58  85 108 150 187 226 276 346
#     4  10  21  36  59  88 115 156 199 244 307 363
#     4  10  19  36  55  80 114 151 192 233 286 354
#     4  10  19  33  53  81 115 148 184 236 295 357
#     4  10  22  37  59  84 113 151 200 258 303 349
#     4  10  22  38  58  84 124 157 188 243 291 357
#     4   8  20  40  54  92 120 158 200 226 302 374
#
# _framework density 19.852060000000002
#
# number of rings (size 3 to 8) (size 9 to 14) (size 15 to 20)
#    0.293    1.659    2.927    1.463    2.732    1.171 
#    0.000    1.463    2.146    0.000    0.000    0.000 
#    0.000    0.000    0.000    0.000    0.000    0.000 
#
# Total GULP energy -228240.805634 kJ/mol
# GULP energy per Si atom -5566.848918 kJ/mol
# Density = 1.980688 g / cm^3
# Si number density = 19.852060 Si / 1000 Ang^3
#
#
#
# Elastic Constant Matrix: (Units=GPa)
#
#
# Indices 1 2 3 4 5 6 
#
# 1 53.5776 0.9139 50.8780 0.0000 0.0000 0.0000
# 2 0.9139 72.5079 36.6369 0.0000 0.0000 0.0000
# 3 50.8780 36.6369 173.2446 0.0000 0.0000 0.0000
# 4 0.0000 0.0000 0.0000 9.1926 0.0000 0.0000
# 5 0.0000 0.0000 0.0000 0.0000 17.7178 0.0000
# 6 0.0000 0.0000 0.0000 0.0000 0.0000 7.4328
#
#
#
# Elastic Compliance Matrix: (Units=1/GPa)
#
#
# Indices 1 2 3 4 5 6 
#
# 1 0.026926 0.004094 -0.008773 0.000000 0.000000 0.000000
# 2 0.004094 0.016064 -0.004599 0.000000 0.000000 0.000000
# 3 -0.008773 -0.004599 0.009321 0.000000 0.000000 0.000000
# 4 0.000000 0.000000 0.000000 0.108783 0.000000 0.000000
# 5 0.000000 0.000000 0.000000 0.000000 0.056441 0.000000
# 6 0.000000 0.000000 0.000000 0.000000 0.000000 0.134539
#
#
# Mechanical properties :
#
#
# Convention : Reuss Voigt Hill
#
# Bulk Modulus (GPa) = 29.62678 52.90972 41.26825
# Shear Modulus (GPa) = 13.09304 20.92872 17.01088
#
# Velocity S-wave (km/s) = 2.57092 3.25042 2.93043
# Velocity P-wave (km/s) = 4.87535 6.38724 5.68181
#
# Compressibility (1/GPa) = 0.03375325
#
# Stress axis : x y z
#
# Youngs Moduli (GPa) = 37.13902 62.25116 107.28106
#
# Poissons Ratio (x) = -0.25483 0.94120
# Poissons Ratio (y) = -0.15203 0.49342
# Poissons Ratio (z) = 0.32583 0.28631
#
# Static dielectric constant tensor:
#      x y z
#    x 1.766640 0.000000 0.000000 
#    y 0.000000 1.729670 0.000000 
#    z 0.000000 0.000000 1.727880 
# 
# From -- ./inp_files/50772.got.cif
#   From: 2010.05.17/outbox.cif.g08.bks.cpg/sg71_26_cif.got.tgz:50772.got - 2010.06.03 16:22:01.
