data_PCOD9519274
_publ_section_title
;
Structure prediction by ZEFSAII (Michael W. Deem and Ramdas Pophale) SiO2 
 PCOD9519274
Probable space group: I M M M
;
_chemical_formula_sum "Si O2"
_cell_formula_units_Z 82
_cell_length_a 23.865402
_cell_length_b 22.165488
_cell_length_c 7.582161
_cell_angle_alpha 90.000000
_cell_angle_beta 90.000000
_cell_angle_gamma 90.000000
_cell_volume 4010.874319
_symmetry_space_group_name_H-M "I M M M"
_symmetry_group_IT_number 71
_symmetry_cell_setting 'orthorhombic'
loop_
_space_group_symop_operation_xyz
x,y,z
-x,-y,z
x,-y,-z
-x,y,-z
-x,-y,-z
x,y,-z
-x,y,z
x,-y,z
1/2+x,1/2+y,1/2+z
1/2-x,1/2-y,1/2+z
1/2+x,1/2-y,1/2-z
1/2-x,1/2+y,1/2-z
1/2-x,1/2-y,1/2-z
1/2+x,1/2+y,1/2-z
1/2-x,1/2+y,1/2+z
1/2+x,1/2-y,1/2+z
loop_
_atom_site_type_symbol
_atom_site_label
_atom_site_fract_x
_atom_site_fract_y
_atom_site_fract_z
Si Si1 0.713163 0.568911 0.789343
Si Si2 0.500000 0.000000 0.500000
Si Si3 0.595038 0.000000 0.196136
Si Si4 0.000000 0.929164 0.783024
Si Si5 0.331093 0.883871 0.713980
Si Si6 0.817024 0.748526 0.212053
Si Si7 0.890216 0.139918 0.799834
O O1 0.727344 0.500000 0.755311
O O2 0.766507 0.607059 0.732651
O O3 0.656577 0.588150 0.698307
O O4 0.705607 0.576436 0.000000
O O5 0.548832 0.000000 0.346563
O O6 0.632498 0.060622 0.217174
O O7 0.571037 0.000000 0.000000
O O8 0.945540 0.891204 0.722995
O O9 0.000000 0.000000 0.728394
O O10 0.000000 0.930598 0.000000
O O11 0.333546 0.887499 0.500000
O O12 0.343884 0.815423 0.768084
O O13 0.750000 0.750000 0.250000
O O14 0.855235 0.803826 0.280808
O O15 0.819644 0.751187 0.000000
O O16 0.905364 0.157882 0.000000
#
# Coordination Sequence:
#
# PCOD9519274 Si02
#       7
#    16   2   8   8  16  16  16
#     4  10  19  31  52  80 115 156 194 244 322 387
#     4  12  26  52  72  90 140 168 202 274 342 382
#     4  12  25  43  73 102 125 172 223 268 331 401
#     4   9  18  34  54  75 113 159 196 252 309 351
#     4  10  19  37  58  85 129 166 199 258 333 386
#     4  10  20  33  55  85 123 162 201 254 323 388
#     4  10  20  34  53  81 113 153 210 256 304 378
#
# _framework density 20.444420999999998
#
# number of rings (size 3 to 8) (size 9 to 14) (size 15 to 20)
#    0.000    1.854    3.902    0.732    0.000    2.732 
#    0.000    1.463    2.146    1.756    0.000    0.000 
#    0.000    0.000    0.000    0.000    0.000    0.000 
#
# Total GULP energy -228416.454712 kJ/mol
# GULP energy per Si atom -5571.133042 kJ/mol
# Density = 2.039789 g / cm^3
# Si number density = 20.444421 Si / 1000 Ang^3
#
#
#
# Elastic Constant Matrix: (Units=GPa)
#
#
# Indices 1 2 3 4 5 6 
#
# 1 141.1745 61.7638 21.1141 0.0000 0.0000 0.0000
# 2 61.7638 138.3772 17.9623 0.0000 0.0000 0.0000
# 3 21.1141 17.9623 65.9175 0.0000 0.0000 0.0000
# 4 0.0000 0.0000 0.0000 6.6444 0.0000 0.0000
# 5 0.0000 0.0000 0.0000 0.0000 24.6876 0.0000
# 6 0.0000 0.0000 0.0000 0.0000 0.0000 22.0487
#
#
#
# Elastic Compliance Matrix: (Units=1/GPa)
#
#
# Indices 1 2 3 4 5 6 
#
# 1 0.009016 -0.003783 -0.001857 0.000000 0.000000 0.000000
# 2 -0.003783 0.009079 -0.001262 0.000000 0.000000 0.000000
# 3 -0.001857 -0.001262 0.016109 0.000000 0.000000 0.000000
# 4 0.000000 0.000000 0.000000 0.150503 0.000000 0.000000
# 5 0.000000 0.000000 0.000000 0.000000 0.040506 0.000000
# 6 0.000000 0.000000 0.000000 0.000000 0.000000 0.045354
#
#
# Mechanical properties :
#
#
# Convention : Reuss Voigt Hill
#
# Bulk Modulus (GPa) = 49.02074 60.79438 54.90756
# Shear Modulus (GPa) = 17.17189 26.98474 22.07831
#
# Velocity S-wave (km/s) = 2.90130 3.63699 3.28978
# Velocity P-wave (km/s) = 5.93742 6.88752 6.43004
#
# Compressibility (1/GPa) = 0.02039953
#
# Stress axis : x y z
#
# Youngs Moduli (GPa) = 110.90906 110.14258 62.07611
#
# Poissons Ratio (x) = 0.41671 0.11528
# Poissons Ratio (y) = 0.41961 0.07835
# Poissons Ratio (z) = 0.20597 0.13902
#
# Static dielectric constant tensor:
#      x y z
#    x 1.688630 0.000000 0.000000 
#    y 0.000000 1.756440 0.000000 
#    z 0.000000 0.000000 1.775120 
# 
# From -- ./inp_files/10314.got.cif
#   From: 2010.05.17/outbox.cif.g08.bks.cpg/sg71_6_cif.got.tgz:10314.got - 2010.06.03 16:22:01.
