data_PCOD9519010
_publ_section_title
;
Structure prediction by ZEFSAII (Michael W. Deem and Ramdas Pophale) SiO2 
 PCOD9519010
Probable space group: I M M M
;
_chemical_formula_sum "Si O2"
_cell_formula_units_Z 88
_cell_length_a 20.201185
_cell_length_b 18.484085
_cell_length_c 13.290226
_cell_angle_alpha 90.000000
_cell_angle_beta 90.000000
_cell_angle_gamma 90.000000
_cell_volume 4962.575979
_symmetry_space_group_name_H-M "I M M M"
_symmetry_group_IT_number 71
_symmetry_cell_setting 'orthorhombic'
loop_
_space_group_symop_operation_xyz
x,y,z
-x,-y,z
x,-y,-z
-x,y,-z
-x,-y,-z
x,y,-z
-x,y,z
x,-y,z
1/2+x,1/2+y,1/2+z
1/2-x,1/2-y,1/2+z
1/2+x,1/2-y,1/2-z
1/2-x,1/2+y,1/2-z
1/2-x,1/2-y,1/2-z
1/2+x,1/2+y,1/2-z
1/2-x,1/2+y,1/2+z
1/2+x,1/2-y,1/2+z
loop_
_atom_site_type_symbol
_atom_site_label
_atom_site_fract_x
_atom_site_fract_y
_atom_site_fract_z
Si Si1 0.075134 0.000000 0.877738
Si Si2 0.113057 0.079152 0.619098
Si Si3 0.738549 0.082181 0.698781
Si Si4 0.676953 0.374848 0.617423
Si Si5 0.924560 0.761452 0.380556
Si Si6 0.177196 0.274867 0.213175
O O1 0.117488 0.071336 0.852405
O O2 0.000000 0.000000 0.842100
O O3 0.072540 0.000000 0.000000
O O4 0.101842 0.075993 0.500000
O O5 0.191654 0.087715 0.639413
O O6 0.079255 0.153646 0.650324
O O7 0.092530 0.000000 0.659421
O O8 0.761771 0.099601 0.813314
O O9 0.688831 0.145770 0.667522
O O10 0.714604 0.000000 0.689553
O O11 0.691304 0.383425 0.500000
O O12 0.658067 0.291889 0.641287
O O13 0.907343 0.756189 0.500000
O O14 0.872571 0.722978 0.307416
O O15 0.000000 0.736213 0.368337
O O16 0.250000 0.250000 0.250000
#
# Coordination Sequence:
#
# PCOD9519010 Si02
#       6
#     8  16  16  16  16  16
#     4   9  18  32  48  68  99 135 166 196 239 306
#     4   9  17  30  48  73 106 138 172 213 255 309
#     4  10  19  34  52  74 100 131 180 227 272 310
#     4  10  19  31  46  71 103 136 171 207 255 311
#     4  10  20  34  52  75 106 141 176 216 264 318
#     4  10  20  34  50  76 100 135 179 224 268 312
#
# _framework density 17.732727000000001
#
# number of rings (size 3 to 8) (size 9 to 14) (size 15 to 20)
#    0.000    2.273    4.545    0.000    0.000    4.727 
#    0.000    1.818    0.000    0.545    0.000    1.273 
#    0.000    0.000    0.000   10.727    0.000    0.000 
#
# Total GULP energy -245169.400392 kJ/mol
# GULP energy per Si atom -5572.031827 kJ/mol
# Density = 1.769237 g / cm^3
# Si number density = 17.732727 Si / 1000 Ang^3
#
#
#
# Elastic Constant Matrix: (Units=GPa)
#
#
# Indices 1 2 3 4 5 6 
#
# 1 56.7576 28.6203 -2.7006 0.0000 0.0000 0.0000
# 2 28.6203 124.0615 -8.6265 0.0000 0.0000 0.0000
# 3 -2.7006 -8.6265 12.6291 0.0000 0.0000 0.0000
# 4 0.0000 0.0000 0.0000 19.4597 0.0000 0.0000
# 5 0.0000 0.0000 0.0000 0.0000 20.1393 0.0000
# 6 0.0000 0.0000 0.0000 0.0000 0.0000 15.8821
#
#
#
# Elastic Compliance Matrix: (Units=1/GPa)
#
#
# Indices 1 2 3 4 5 6 
#
# 1 0.019955 -0.004522 0.001179 0.000000 0.000000 0.000000
# 2 -0.004522 0.009487 0.005513 0.000000 0.000000 0.000000
# 3 0.001179 0.005513 0.083200 0.000000 0.000000 0.000000
# 4 0.000000 0.000000 0.000000 0.051388 0.000000 0.000000
# 5 0.000000 0.000000 0.000000 0.000000 0.049654 0.000000
# 6 0.000000 0.000000 0.000000 0.000000 0.000000 0.062964
#
#
# Mechanical properties :
#
#
# Convention : Reuss Voigt Hill
#
# Bulk Modulus (GPa) = 8.54826 25.33718 16.94272
# Shear Modulus (GPa) = 16.06159 22.83989 19.45074
#
# Velocity S-wave (km/s) = 3.01285 3.59278 3.31552
# Velocity P-wave (km/s) = 4.11510 5.61517 4.92261
#
# Compressibility (1/GPa) = 0.11698293
#
# Stress axis : x y z
#
# Youngs Moduli (GPa) = 50.11308 105.40773 12.01920
#
# Poissons Ratio (x) = 0.47660 -0.01417
# Poissons Ratio (y) = 0.22659 -0.06627
# Poissons Ratio (z) = -0.05906 -0.58115
#
# Static dielectric constant tensor:
#      x y z
#    x 1.598130 0.000000 0.000000 
#    y 0.000000 1.664850 0.000000 
#    z 0.000000 0.000000 1.661460 
# 
# From -- ./inp_files/36368.got.cif
#   From: 2010.05.17/outbox.cif.g08.bks.cpg/sg71_19_cif.got.tgz:36368.got - 2010.06.03 16:22:01.
