data_PCOD9519272
_publ_section_title
;
Structure prediction by ZEFSAII (Michael W. Deem and Ramdas Pophale) SiO2 
 PCOD9519272
Probable space group: I M M M
;
_chemical_formula_sum "Si O2"
_cell_formula_units_Z 82
_cell_length_a 22.449959
_cell_length_b 7.360336
_cell_length_c 23.500144
_cell_angle_alpha 90.000000
_cell_angle_beta 90.000000
_cell_angle_gamma 90.000000
_cell_volume 3883.145968
_symmetry_space_group_name_H-M "I M M M"
_symmetry_group_IT_number 71
_symmetry_cell_setting 'orthorhombic'
loop_
_space_group_symop_operation_xyz
x,y,z
-x,-y,z
x,-y,-z
-x,y,-z
-x,-y,-z
x,y,-z
-x,y,z
x,-y,z
1/2+x,1/2+y,1/2+z
1/2-x,1/2-y,1/2+z
1/2+x,1/2-y,1/2-z
1/2-x,1/2+y,1/2-z
1/2-x,1/2-y,1/2-z
1/2+x,1/2+y,1/2-z
1/2-x,1/2+y,1/2+z
1/2+x,1/2-y,1/2+z
loop_
_atom_site_type_symbol
_atom_site_label
_atom_site_fract_x
_atom_site_fract_y
_atom_site_fract_z
Si Si1 0.710312 0.719017 0.938096
Si Si2 0.000000 0.500000 0.500000
Si Si3 0.624195 0.720191 0.162010
Si Si4 0.656844 0.712894 0.599052
Si Si5 0.316392 0.717418 0.725598
Si Si6 0.569468 0.277402 0.500000
Si Si7 0.000000 0.781389 0.395333
O O1 0.707324 0.500000 0.937554
O O2 0.671621 0.785497 0.885097
O O3 0.778967 0.770626 0.930926
O O4 0.687653 0.780517 0.000000
O O5 0.000000 0.659330 0.450747
O O6 0.629413 0.500000 0.163282
O O7 0.640281 0.785053 0.224761
O O8 0.558733 0.761622 0.140719
O O9 0.643028 0.500000 0.605883
O O10 0.667924 0.789274 0.662719
O O11 0.606154 0.784165 0.556198
O O12 0.321595 0.500000 0.721504
O O13 0.250000 0.750000 0.750000
O O14 0.571134 0.500000 0.500000
O O15 0.500000 0.224558 0.500000
O O16 0.000000 0.000000 0.407785
#
# Coordination Sequence:
#
# PCOD9519272 Si02
#       7
#    16   2  16  16  16   8   8
#     4  10  19  31  52  80 107 141 185 228 281 354
#     4  12  26  44  64  98 116 152 226 242 298 390
#     4   9  19  37  58  78 111 155 198 235 297 361
#     4  10  19  32  52  80 109 141 185 234 287 341
#     4  10  19  33  54  84 111 144 189 236 288 355
#     4   9  18  34  52  75 111 147 178 230 291 337
#     4  10  23  45  65  86 125 168 200 259 308 358
#
# _framework density 21.116897000000002
#
# number of rings (size 3 to 8) (size 9 to 14) (size 15 to 20)
#    0.000    2.244    2.927    0.146    1.366    0.000 
#    5.268    0.000    0.000    1.171    0.000    0.000 
#    0.000    0.000    0.000    0.000    0.000    0.000 
#
# Total GULP energy -228633.296619 kJ/mol
# GULP energy per Si atom -5576.421869 kJ/mol
# Density = 2.106883 g / cm^3
# Si number density = 21.116897 Si / 1000 Ang^3
#
#
#
# Elastic Constant Matrix: (Units=GPa)
#
#
# Indices 1 2 3 4 5 6 
#
# 1 147.1649 7.6798 89.5817 0.0000 0.0000 0.0000
# 2 7.6798 86.9467 22.3899 0.0000 0.0000 0.0000
# 3 89.5817 22.3899 225.7972 0.0000 0.0000 0.0000
# 4 0.0000 0.0000 0.0000 -0.6328 0.0000 0.0000
# 5 0.0000 0.0000 0.0000 0.0000 -50.1005 0.0000
# 6 0.0000 0.0000 0.0000 0.0000 0.0000 14.0287
#
#
#
# Elastic Compliance Matrix: (Units=1/GPa)
#
#
# Indices 1 2 3 4 5 6 
#
# 1 0.008960 0.000127 -0.003567 0.000000 0.000000 0.000000
# 2 0.000127 0.011804 -0.001221 0.000000 0.000000 0.000000
# 3 -0.003567 -0.001221 0.005965 0.000000 0.000000 0.000000
# 4 0.000000 0.000000 0.000000 -1.580298 0.000000 0.000000
# 5 0.000000 0.000000 0.000000 0.000000 -0.019960 0.000000
# 6 0.000000 0.000000 0.000000 0.000000 0.000000 0.071282
#
#
# Mechanical properties :
#
#
# Convention : Reuss Voigt Hill
#
# Bulk Modulus (GPa) = 57.44709 77.69018 67.56864
# Shear Modulus (GPa) = -3.36220 15.34290 5.99035
#
# Velocity S-wave (km/s) = -1.26319 2.69842 1.68609
# Velocity P-wave (km/s) = 5.01357 6.82488 5.98811
#
# Compressibility (1/GPa) = 0.01740732
#
# Stress axis : x y z
#
# Youngs Moduli (GPa) = 111.60760 84.71355 167.64119
#
# Poissons Ratio (x) = -0.01078 0.59803
# Poissons Ratio (y) = -0.01420 0.20469
# Poissons Ratio (z) = 0.39814 0.10344
#
# Static dielectric constant tensor:
#      x y z
#    x 1.710200 0.000000 0.000000 
#    y 0.000000 1.830740 0.000000 
#    z 0.000000 0.000000 1.555320 
# 
# From -- ./inp_files/50460.got.cif
#   From: 2010.05.17/outbox.cif.g08.bks.cpg/sg71_26_cif.got.tgz:50460.got - 2010.06.03 16:22:01.
