data_PCOD9519607
_publ_section_title
;
Structure prediction by ZEFSAII (Michael W. Deem and Ramdas Pophale) SiO2 
 PCOD9519607
Probable space group: I M M M
;
_chemical_formula_sum "Si O2"
_cell_formula_units_Z 88
_cell_length_a 25.463953
_cell_length_b 22.061869
_cell_length_c 8.513551
_cell_angle_alpha 90.000000
_cell_angle_beta 90.000000
_cell_angle_gamma 90.000000
_cell_volume 4782.763073
_symmetry_space_group_name_H-M "I M M M"
_symmetry_group_IT_number 71
_symmetry_cell_setting 'orthorhombic'
loop_
_space_group_symop_operation_xyz
x,y,z
-x,-y,z
x,-y,-z
-x,y,-z
-x,-y,-z
x,y,-z
-x,y,z
x,-y,z
1/2+x,1/2+y,1/2+z
1/2-x,1/2-y,1/2+z
1/2+x,1/2-y,1/2-z
1/2-x,1/2+y,1/2-z
1/2-x,1/2-y,1/2-z
1/2+x,1/2+y,1/2-z
1/2-x,1/2+y,1/2+z
1/2+x,1/2-y,1/2+z
loop_
_atom_site_type_symbol
_atom_site_label
_atom_site_fract_x
_atom_site_fract_y
_atom_site_fract_z
Si Si1 0.000000 0.752368 0.690761
Si Si2 0.086405 0.656329 0.312940
Si Si3 0.193539 0.828789 0.813107
Si Si4 0.500000 0.071678 0.683206
Si Si5 0.000000 0.891401 0.308262
Si Si6 0.305446 0.810745 0.686264
Si Si7 0.884462 0.067841 0.689772
O O1 0.948461 0.714704 0.738655
O O2 0.000000 0.752433 0.500000
O O3 0.000000 0.821319 0.743494
O O4 0.093827 0.659916 0.500000
O O5 0.050371 0.599867 0.267897
O O6 0.141718 0.654673 0.227993
O O7 0.254168 0.839130 0.766198
O O8 0.185163 0.759000 0.757637
O O9 0.153686 0.878246 0.744581
O O10 0.187831 0.829714 0.000000
O O11 0.500000 0.090391 0.500000
O O12 0.500000 0.000000 0.691443
O O13 0.944916 0.920954 0.258653
O O14 0.000000 0.892868 0.500000
O O15 0.296289 0.808950 0.500000
O O16 0.884400 0.068904 0.500000
O O17 0.867909 0.000000 0.740384
#
# Coordination Sequence:
#
# PCOD9519607 Si02
#       7
#     8  16  16   8   8  16  16
#     4   8  15  26  45  76 108 137 167 206 256 302
#     4  10  19  32  53  81 111 140 174 218 266 317
#     4  10  21  36  55  79 107 140 175 216 267 318
#     4  10  21  37  55  76 107 146 182 218 264 318
#     4   9  16  29  51  77 105 137 175 213 250 299
#     4  10  20  35  56  81 107 136 173 218 269 323
#     4  10  20  34  53  77 106 142 182 221 259 303
#
# _framework density 18.399405999999999
#
# number of rings (size 3 to 8) (size 9 to 14) (size 15 to 20)
#    0.000    2.273    0.000    3.818    0.000    5.818 
#    0.000    1.364    0.000    9.818    0.000    0.000 
#    0.000    0.000    0.000    0.000    0.000    0.000 
#
# Total GULP energy -245491.986184 kJ/mol
# GULP energy per Si atom -5579.363322 kJ/mol
# Density = 1.835753 g / cm^3
# Si number density = 18.399406 Si / 1000 Ang^3
#
#
#
# Elastic Constant Matrix: (Units=GPa)
#
#
# Indices 1 2 3 4 5 6 
#
# 1 127.0460 45.7303 7.6904 0.0000 0.0000 0.0000
# 2 45.7303 81.7006 16.1841 0.0000 0.0000 0.0000
# 3 7.6904 16.1841 17.5562 0.0000 0.0000 0.0000
# 4 0.0000 0.0000 0.0000 23.5972 0.0000 0.0000
# 5 0.0000 0.0000 0.0000 0.0000 23.4555 0.0000
# 6 0.0000 0.0000 0.0000 0.0000 0.0000 0.0707
#
#
#
# Elastic Compliance Matrix: (Units=1/GPa)
#
#
# Indices 1 2 3 4 5 6 
#
# 1 0.009870 -0.005711 0.000941 0.000000 0.000000 0.000000
# 2 -0.005711 0.018279 -0.014348 0.000000 0.000000 0.000000
# 3 0.000941 -0.014348 0.069775 0.000000 0.000000 0.000000
# 4 0.000000 0.000000 0.000000 0.042378 0.000000 0.000000
# 5 0.000000 0.000000 0.000000 0.000000 0.042634 0.000000
# 6 0.000000 0.000000 0.000000 0.000000 0.000000 14.148552
#
#
# Mechanical properties :
#
#
# Convention : Reuss Voigt Hill
#
# Bulk Modulus (GPa) = 16.75409 40.61246 28.68327
# Shear Modulus (GPa) = 0.34747 19.87122 10.10935
#
# Velocity S-wave (km/s) = 0.43504 3.28989 2.34655
# Velocity P-wave (km/s) = 3.06233 6.04581 4.79216
#
# Compressibility (1/GPa) = 0.05968693
#
# Stress axis : x y z
#
# Youngs Moduli (GPa) = 101.31888 54.70863 14.33180
#
# Poissons Ratio (x) = 0.31243 -0.01349
# Poissons Ratio (y) = 0.57862 0.20564
# Poissons Ratio (z) = -0.09535 0.78499
#
# Static dielectric constant tensor:
#      x y z
#    x 1.608290 0.000000 0.000000 
#    y 0.000000 1.630440 0.000000 
#    z 0.000000 0.000000 1.632230 
# 
# From -- ./inp_files/12635.got.cif
#   From: 2010.05.17/outbox.cif.g08.bks.cpg/sg71_7_cif.got.tgz:12635.got - 2010.06.03 16:22:01.
