data_PCOD9519080
_publ_section_title
;
Structure prediction by ZEFSAII (Michael W. Deem and Ramdas Pophale) SiO2 
 PCOD9519080
Probable space group: I M M M
;
_chemical_formula_sum "Si O2"
_cell_formula_units_Z 104
_cell_length_a 18.524929
_cell_length_b 18.293275
_cell_length_c 15.636752
_cell_angle_alpha 90.000000
_cell_angle_beta 90.000000
_cell_angle_gamma 90.000000
_cell_volume 5299.007858
_symmetry_space_group_name_H-M "I M M M"
_symmetry_group_IT_number 71
_symmetry_cell_setting 'orthorhombic'
loop_
_space_group_symop_operation_xyz
x,y,z
-x,-y,z
x,-y,-z
-x,y,-z
-x,-y,-z
x,y,-z
-x,y,z
x,-y,z
1/2+x,1/2+y,1/2+z
1/2-x,1/2-y,1/2+z
1/2+x,1/2-y,1/2-z
1/2-x,1/2+y,1/2-z
1/2-x,1/2-y,1/2-z
1/2+x,1/2+y,1/2-z
1/2-x,1/2+y,1/2+z
1/2+x,1/2-y,1/2+z
loop_
_atom_site_type_symbol
_atom_site_label
_atom_site_fract_x
_atom_site_fract_y
_atom_site_fract_z
Si Si1 0.348144 0.088515 0.595260
Si Si2 0.417547 0.132555 0.225806
Si Si3 0.277608 0.920063 0.853425
Si Si4 0.149040 0.155861 0.095973
Si Si5 0.079615 0.000000 0.897723
Si Si6 0.415931 0.698994 0.232946
Si Si7 0.697644 0.583562 0.169202
O O1 0.372579 0.110846 0.500000
O O2 0.391269 0.120700 0.675892
O O3 0.262595 0.105537 0.605826
O O4 0.353731 0.000000 0.601520
O O5 0.500000 0.108053 0.218660
O O6 0.361093 0.091833 0.165165
O O7 0.413034 0.218013 0.201190
O O8 0.234998 0.855944 0.901210
O O9 0.240006 0.919278 0.759876
O O10 0.265655 0.000000 0.893256
O O11 0.117423 0.203999 0.171181
O O12 0.119168 0.075091 0.121457
O O13 0.125420 0.174189 0.000000
O O14 0.000000 0.000000 0.858906
O O15 0.073614 0.000000 0.000000
O O16 0.500000 0.676170 0.236939
O O17 0.366516 0.641650 0.180923
O O18 0.673202 0.500000 0.150853
#
# Coordination Sequence:
#
# PCOD9519080 Si02
#       7
#    16  16  16  16   8  16  16
#     4   9  18  33  54  78 101 124 154 200 255 305
#     4  10  21  35  49  70 100 132 167 207 249 292
#     4   9  17  31  51  71  93 125 167 210 246 288
#     4  10  19  31  48  72 101 131 162 199 243 292
#     4   9  16  26  42  66  97 129 154 181 225 281
#     4  10  21  33  47  70 102 137 169 203 241 286
#     4   8  16  31  50  72  96 125 164 203 240 290
#
# _framework density 19.626314000000001
#
# number of rings (size 3 to 8) (size 9 to 14) (size 15 to 20)
#    0.000    2.692    0.769    1.846    1.077    8.923 
#    0.000    2.308    0.000    0.923    0.000    5.385 
#    0.000    0.000    0.000    0.000    0.000    0.000 
#
# Total GULP energy -289737.117872 kJ/mol
# GULP energy per Si atom -5571.867651 kJ/mol
# Density = 1.958164 g / cm^3
# Si number density = 19.626314 Si / 1000 Ang^3
#
#
#
# Elastic Constant Matrix: (Units=GPa)
#
#
# Indices 1 2 3 4 5 6 
#
# 1 123.1713 25.2358 -0.5657 0.0000 0.0000 0.0000
# 2 25.2358 36.8602 -9.1284 0.0000 0.0000 0.0000
# 3 -0.5657 -9.1284 12.1838 0.0000 0.0000 0.0000
# 4 0.0000 0.0000 0.0000 10.8143 0.0000 0.0000
# 5 0.0000 0.0000 0.0000 0.0000 15.9246 0.0000
# 6 0.0000 0.0000 0.0000 0.0000 0.0000 25.3683
#
#
#
# Elastic Compliance Matrix: (Units=1/GPa)
#
#
# Indices 1 2 3 4 5 6 
#
# 1 0.009743 -0.008052 -0.005581 0.000000 0.000000 0.000000
# 2 -0.008052 0.039965 0.029569 0.000000 0.000000 0.000000
# 3 -0.005581 0.029569 0.103970 0.000000 0.000000 0.000000
# 4 0.000000 0.000000 0.000000 0.092470 0.000000 0.000000
# 5 0.000000 0.000000 0.000000 0.000000 0.062796 0.000000
# 6 0.000000 0.000000 0.000000 0.000000 0.000000 0.039419
#
#
# Mechanical properties :
#
#
# Convention : Reuss Voigt Hill
#
# Bulk Modulus (GPa) = 5.38938 22.58877 13.98908
# Shear Modulus (GPa) = 13.21553 20.86634 17.04094
#
# Velocity S-wave (km/s) = 2.59773 3.26418 2.94984
# Velocity P-wave (km/s) = 3.42776 5.07355 4.32958
#
# Compressibility (1/GPa) = 0.18555008
#
# Stress axis : x y z
#
# Youngs Moduli (GPa) = 102.63823 25.02179 9.61811
#
# Poissons Ratio (x) = 0.20149 0.05368
# Poissons Ratio (y) = 0.82649 -0.28440
# Poissons Ratio (z) = 0.57279 -0.73987
#
# Static dielectric constant tensor:
#      x y z
#    x 1.734630 0.000000 0.000000 
#    y 0.000000 1.724830 0.000000 
#    z 0.000000 0.000000 1.699920 
# 
# From -- ./inp_files/46151.got.cif
#   From: 2010.05.17/outbox.cif.g08.bks.cpg/sg71_24_cif.got.tgz:46151.got - 2010.06.03 16:22:01.
