data_PCOD9519729
_publ_section_title
;
Structure prediction by ZEFSAII (Michael W. Deem and Ramdas Pophale) SiO2 
 PCOD9519729
Probable space group: I M M M
;
_chemical_formula_sum "Si O2"
_cell_formula_units_Z 80
_cell_length_a 7.971342
_cell_length_b 24.566065
_cell_length_c 20.922229
_cell_angle_alpha 90.000000
_cell_angle_beta 90.000000
_cell_angle_gamma 90.000000
_cell_volume 4097.085152
_symmetry_space_group_name_H-M "I M M M"
_symmetry_group_IT_number 71
_symmetry_cell_setting 'orthorhombic'
loop_
_space_group_symop_operation_xyz
x,y,z
-x,-y,z
x,-y,-z
-x,y,-z
-x,-y,-z
x,y,-z
-x,y,z
x,-y,z
1/2+x,1/2+y,1/2+z
1/2-x,1/2-y,1/2+z
1/2+x,1/2-y,1/2-z
1/2-x,1/2+y,1/2-z
1/2-x,1/2-y,1/2-z
1/2+x,1/2+y,1/2-z
1/2-x,1/2+y,1/2+z
1/2+x,1/2-y,1/2+z
loop_
_atom_site_type_symbol
_atom_site_label
_atom_site_fract_x
_atom_site_fract_y
_atom_site_fract_z
Si Si1 0.293743 0.062582 0.859069
Si Si2 0.192009 0.433964 0.500000
Si Si3 0.799167 0.666158 0.715853
Si Si4 0.701254 0.224934 0.654368
Si Si5 0.000000 0.562479 0.078244
Si Si6 0.816568 0.131262 0.576305
O O1 0.500000 0.062647 0.860866
O O2 0.234652 0.079715 0.930567
O O3 0.238253 0.107557 0.807982
O O4 0.243572 0.000000 0.846500
O O5 0.185101 0.500000 0.500000
O O6 0.000000 0.413428 0.500000
O O7 0.755609 0.713293 0.665154
O O8 0.738493 0.689999 0.783592
O O9 0.000000 0.662827 0.720922
O O10 0.500000 0.222799 0.651184
O O11 0.778535 0.193201 0.595112
O O12 0.164680 0.594233 0.101087
O O13 0.000000 0.500000 0.098285
O O14 0.000000 0.563337 0.000000
O O15 0.816615 0.125879 0.500000
O O16 0.000000 0.114867 0.600179
#
# Coordination Sequence:
#
# PCOD9519729 Si02
#       6
#    16   8  16  16   8  16
#     4   8  13  24  43  68  99 131 166 212 265 318
#     4   7  10  18  36  62  93 127 153 189 251 308
#     4   9  18  31  49  73 101 136 182 223 269 324
#     4  10  19  33  51  70 103 144 182 224 273 320
#     4   9  18  34  56  82 112 144 177 216 268 330
#     4  10  20  35  57  82 109 143 180 225 278 327
#
# _framework density 19.526076
#
# number of rings (size 3 to 8) (size 9 to 14) (size 15 to 20)
#    0.000    3.000    1.000    1.800    0.000    1.200 
#    1.800    3.000    0.000    0.600    0.000    0.000 
#    0.000    2.400    0.000    0.000    0.000    0.000 
#
# Total GULP energy -222821.757394 kJ/mol
# GULP energy per Si atom -5570.543935 kJ/mol
# Density = 1.948163 g / cm^3
# Si number density = 19.526076 Si / 1000 Ang^3
#
#
#
# Elastic Constant Matrix: (Units=GPa)
#
#
# Indices 1 2 3 4 5 6 
#
# 1 33.9650 17.5522 6.7300 0.0000 0.0000 0.0000
# 2 17.5522 104.5597 19.6776 0.0000 0.0000 0.0000
# 3 6.7300 19.6776 8.7336 0.0000 0.0000 0.0000
# 4 0.0000 0.0000 0.0000 26.9920 0.0000 0.0000
# 5 0.0000 0.0000 0.0000 0.0000 3.6339 0.0000
# 6 0.0000 0.0000 0.0000 0.0000 0.0000 13.5858
#
#
#
# Elastic Compliance Matrix: (Units=1/GPa)
#
#
# Indices 1 2 3 4 5 6 
#
# 1 0.034862 -0.001383 -0.023749 0.000000 0.000000 0.000000
# 2 -0.001383 0.016660 -0.036470 0.000000 0.000000 0.000000
# 3 -0.023749 -0.036470 0.214972 0.000000 0.000000 0.000000
# 4 0.000000 0.000000 0.000000 0.037048 0.000000 0.000000
# 5 0.000000 0.000000 0.000000 0.000000 0.275184 0.000000
# 6 0.000000 0.000000 0.000000 0.000000 0.000000 0.073606
#
#
# Mechanical properties :
#
#
# Convention : Reuss Voigt Hill
#
# Bulk Modulus (GPa) = 6.97882 26.13086 16.55484
# Shear Modulus (GPa) = 6.07312 15.72891 10.90101
#
# Velocity S-wave (km/s) = 1.76551 2.84127 2.36536
# Velocity P-wave (km/s) = 2.78170 4.91684 3.99457
#
# Compressibility (1/GPa) = 0.14329064
#
# Stress axis : x y z
#
# Youngs Moduli (GPa) = 28.68416 60.02568 4.65176
#
# Poissons Ratio (x) = 0.08301 0.11047
# Poissons Ratio (y) = 0.03967 0.16965
# Poissons Ratio (z) = 0.68122 2.18914
#
# Static dielectric constant tensor:
#      x y z
#    x 1.710110 0.000000 0.000000 
#    y 0.000000 1.666210 0.000000 
#    z 0.000000 0.000000 1.725450 
# 
# From -- ./inp_files/50415.got.cif
#   From: 2010.05.17/outbox.cif.g08.bks.cpg/sg71_26_cif.got.tgz:50415.got - 2010.06.03 16:22:01.
