data_PCOD9519204
_publ_section_title
;
Structure prediction by ZEFSAII (Michael W. Deem and Ramdas Pophale) SiO2 
 PCOD9519204
Probable space group: I M M M
;
_chemical_formula_sum "Si O2"
_cell_formula_units_Z 104
_cell_length_a 9.419139
_cell_length_b 20.831626
_cell_length_c 27.967288
_cell_angle_alpha 90.000000
_cell_angle_beta 90.000000
_cell_angle_gamma 90.000000
_cell_volume 5487.628848
_symmetry_space_group_name_H-M "I M M M"
_symmetry_group_IT_number 71
_symmetry_cell_setting 'orthorhombic'
loop_
_space_group_symop_operation_xyz
x,y,z
-x,-y,z
x,-y,-z
-x,y,-z
-x,-y,-z
x,y,-z
-x,y,z
x,-y,z
1/2+x,1/2+y,1/2+z
1/2-x,1/2-y,1/2+z
1/2+x,1/2-y,1/2-z
1/2-x,1/2+y,1/2-z
1/2-x,1/2-y,1/2-z
1/2+x,1/2+y,1/2-z
1/2-x,1/2+y,1/2+z
1/2+x,1/2-y,1/2+z
loop_
_atom_site_type_symbol
_atom_site_label
_atom_site_fract_x
_atom_site_fract_y
_atom_site_fract_z
Si Si1 0.832534 0.214344 0.793324
Si Si2 0.338149 0.375579 0.441895
Si Si3 0.158757 0.073355 0.681315
Si Si4 0.164459 0.500000 0.441252
Si Si5 0.163202 0.324382 0.872150
Si Si6 0.337228 0.747963 0.057127
Si Si7 0.333553 0.570803 0.703400
O O1 0.750000 0.250000 0.750000
O O2 0.825317 0.262465 0.837737
O O3 0.778376 0.142784 0.808093
O O4 0.000000 0.207251 0.779734
O O5 0.344682 0.379848 0.500000
O O6 0.500000 0.374590 0.424117
O O7 0.250216 0.437242 0.425264
O O8 0.253823 0.311157 0.430913
O O9 0.277601 0.116521 0.657923
O O10 0.172124 0.071984 0.738676
O O11 0.000000 0.098564 0.670371
O O12 0.167460 0.000000 0.664695
O O13 0.164129 0.500000 0.500000
O O14 0.000000 0.500000 0.426547
O O15 0.262485 0.311004 0.917156
O O16 0.000000 0.332445 0.885983
O O17 0.500000 0.755723 0.072455
O O18 0.334850 0.741129 0.000000
O O19 0.500000 0.569781 0.689212
O O20 0.273632 0.500000 0.688615
#
# Coordination Sequence:
#
# PCOD9519204 Si02
#       7
#    16  16  16   8  16  16  16
#     4  10  19  31  50  78 110 142 178 217 260 313
#     4   9  16  27  45  69  95 121 154 204 263 315
#     4   9  17  31  53  79 106 141 183 219 253 304
#     4   9  15  23  39  65  95 125 159 199 249 313
#     4  11  22  33  51  81 113 143 173 217 277 328
#     4  10  21  37  56  75  96 131 180 229 277 329
#     4   8  14  27  49  74 102 140 182 218 251 295
#
# _framework density 18.951719000000001
#
# number of rings (size 3 to 8) (size 9 to 14) (size 15 to 20)
#    0.000    2.538    1.538    2.538    0.000    4.615 
#    0.000    0.000    1.692    0.923    0.000    3.231 
#    0.000    0.000    0.000    0.000    0.000    0.000 
#
# Total GULP energy -290002.190293 kJ/mol
# GULP energy per Si atom -5576.965198 kJ/mol
# Density = 1.890858 g / cm^3
# Si number density = 18.951719 Si / 1000 Ang^3
#
#
#
# Elastic Constant Matrix: (Units=GPa)
#
#
# Indices 1 2 3 4 5 6 
#
# 1 112.2196 26.8865 24.3631 0.0000 0.0000 0.0000
# 2 26.8865 85.5394 11.2706 0.0000 0.0000 0.0000
# 3 24.3631 11.2706 28.3396 0.0000 0.0000 0.0000
# 4 0.0000 0.0000 0.0000 10.2324 0.0000 0.0000
# 5 0.0000 0.0000 0.0000 0.0000 12.7173 0.0000
# 6 0.0000 0.0000 0.0000 0.0000 0.0000 31.5166
#
#
#
# Elastic Compliance Matrix: (Units=1/GPa)
#
#
# Indices 1 2 3 4 5 6 
#
# 1 0.011412 -0.002421 -0.008848 0.000000 0.000000 0.000000
# 2 -0.002421 0.012851 -0.003029 0.000000 0.000000 0.000000
# 3 -0.008848 -0.003029 0.044097 0.000000 0.000000 0.000000
# 4 0.000000 0.000000 0.000000 0.097729 0.000000 0.000000
# 5 0.000000 0.000000 0.000000 0.000000 0.078633 0.000000
# 6 0.000000 0.000000 0.000000 0.000000 0.000000 0.031729
#
#
# Mechanical properties :
#
#
# Convention : Reuss Voigt Hill
#
# Bulk Modulus (GPa) = 25.14866 39.01545 32.08206
# Shear Modulus (GPa) = 15.70832 21.79848 18.75340
#
# Velocity S-wave (km/s) = 2.88212 3.39516 3.14910
# Velocity P-wave (km/s) = 4.93702 6.00007 5.49432
#
# Compressibility (1/GPa) = 0.03976355
#
# Stress axis : x y z
#
# Youngs Moduli (GPa) = 87.62633 77.81697 22.67707
#
# Poissons Ratio (x) = 0.18841 0.20064
# Poissons Ratio (y) = 0.21216 0.06869
# Poissons Ratio (z) = 0.77531 0.23572
#
# Static dielectric constant tensor:
#      x y z
#    x 1.643970 0.000000 0.000000 
#    y 0.000000 1.678660 0.000000 
#    z 0.000000 0.000000 1.679600 
# 
# From -- ./inp_files/63291.got.cif
#   From: 2010.05.17/outbox.cif.g08.bks.cpg/sg71_32_cif.got.tgz:63291.got - 2010.06.03 16:22:01.
