data_PCOD9519942
_publ_section_title
;
Structure prediction by ZEFSAII (Michael W. Deem and Ramdas Pophale) SiO2 
 PCOD9519942
Probable space group: I M M M
;
_chemical_formula_sum "Si O2"
_cell_formula_units_Z 104
_cell_length_a 8.851434
_cell_length_b 23.406508
_cell_length_c 28.542796
_cell_angle_alpha 90.000000
_cell_angle_beta 90.000000
_cell_angle_gamma 90.000000
_cell_volume 5913.529606
_symmetry_space_group_name_H-M "I M M M"
_symmetry_group_IT_number 71
_symmetry_cell_setting 'orthorhombic'
loop_
_space_group_symop_operation_xyz
x,y,z
-x,-y,z
x,-y,-z
-x,y,-z
-x,-y,-z
x,y,-z
-x,y,z
x,-y,z
1/2+x,1/2+y,1/2+z
1/2-x,1/2-y,1/2+z
1/2+x,1/2-y,1/2-z
1/2-x,1/2+y,1/2-z
1/2-x,1/2-y,1/2-z
1/2+x,1/2+y,1/2-z
1/2-x,1/2+y,1/2+z
1/2+x,1/2-y,1/2+z
loop_
_atom_site_type_symbol
_atom_site_label
_atom_site_fract_x
_atom_site_fract_y
_atom_site_fract_z
Si Si1 0.821178 0.142817 0.683024
Si Si2 0.179196 0.759008 0.198096
Si Si3 0.320430 0.565168 0.906161
Si Si4 0.820295 0.565222 0.261626
Si Si5 0.180155 0.368108 0.645794
Si Si6 0.815990 0.566276 0.553556
Si Si7 0.678827 0.067420 0.500000
O O1 0.728629 0.200137 0.673965
O O2 0.792560 0.099958 0.640489
O O3 0.766863 0.110611 0.729790
O O4 0.000000 0.155277 0.686137
O O5 0.250000 0.750000 0.250000
O O6 0.243012 0.812523 0.168816
O O7 0.000000 0.764318 0.202698
O O8 0.500000 0.563610 0.914146
O O9 0.265883 0.500000 0.899842
O O10 0.244417 0.591455 0.952045
O O11 0.773100 0.500000 0.252262
O O12 0.798981 0.581742 0.315841
O O13 0.000000 0.570109 0.251771
O O14 0.233698 0.391260 0.595172
O O15 0.000000 0.356652 0.642775
O O16 0.770575 0.581178 0.500000
O O17 0.771098 0.500000 0.562385
O O18 0.000000 0.566846 0.554520
O O19 0.500000 0.070450 0.500000
O O20 0.724772 0.000000 0.500000
#
# Coordination Sequence:
#
# PCOD9519942 Si02
#       7
#    16  16  16  16  16  16   8
#     4  11  22  36  55  78 105 140 181 225 270 319
#     4  12  24  39  57  77 103 140 184 227 272 323
#     4   9  18  33  53  77 106 138 171 212 265 319
#     4  10  20  32  49  77 112 146 177 216 268 322
#     4  10  19  33  55  81 111 146 186 227 269 321
#     4   8  14  27  52  87 121 149 181 225 274 324
#     4   9  17  29  49  77 105 135 171 209 252 307
#
# _framework density 17.586789
#
# number of rings (size 3 to 8) (size 9 to 14) (size 15 to 20)
#    0.000    2.077    1.538    3.462    0.000    4.923 
#    0.000    1.538    1.692    1.846    0.000    1.077 
#    0.000    0.000    0.000    0.000    0.000    0.000 
#
# Total GULP energy -289975.637753 kJ/mol
# GULP energy per Si atom -5576.454572 kJ/mol
# Density = 1.754676 g / cm^3
# Si number density = 17.586789 Si / 1000 Ang^3
#
#
#
# Elastic Constant Matrix: (Units=GPa)
#
#
# Indices 1 2 3 4 5 6 
#
# 1 34.6933 33.0644 44.4706 0.0000 0.0000 0.0000
# 2 33.0644 94.2647 46.1476 0.0000 0.0000 0.0000
# 3 44.4706 46.1476 127.3783 0.0000 0.0000 0.0000
# 4 0.0000 0.0000 0.0000 19.4550 0.0000 0.0000
# 5 0.0000 0.0000 0.0000 0.0000 18.0604 0.0000
# 6 0.0000 0.0000 0.0000 0.0000 0.0000 23.2223
#
#
#
# Elastic Compliance Matrix: (Units=1/GPa)
#
#
# Indices 1 2 3 4 5 6 
#
# 1 0.064678 -0.014140 -0.017458 0.000000 0.000000 0.000000
# 2 -0.014140 0.015987 -0.000855 0.000000 0.000000 0.000000
# 3 -0.017458 -0.000855 0.014255 0.000000 0.000000 0.000000
# 4 0.000000 0.000000 0.000000 0.051401 0.000000 0.000000
# 5 0.000000 0.000000 0.000000 0.000000 0.055370 0.000000
# 6 0.000000 0.000000 0.000000 0.000000 0.000000 0.043062
#
#
# Mechanical properties :
#
#
# Convention : Reuss Voigt Hill
#
# Bulk Modulus (GPa) = 33.31766 55.96683 44.64224
# Shear Modulus (GPa) = 15.64145 20.99110 18.31628
#
# Velocity S-wave (km/s) = 2.98549 3.45856 3.23070
# Velocity P-wave (km/s) = 5.55608 6.91673 6.27340
#
# Compressibility (1/GPa) = 0.03001412
#
# Stress axis : x y z
#
# Youngs Moduli (GPa) = 15.46125 62.55130 70.14896
#
# Poissons Ratio (x) = 0.88447 1.22464
# Poissons Ratio (y) = 0.21862 0.06000
# Poissons Ratio (z) = 0.26992 0.05350
#
# Static dielectric constant tensor:
#      x y z
#    x 1.597280 0.000000 0.000000 
#    y 0.000000 1.625650 0.000000 
#    z 0.000000 0.000000 1.618630 
# 
# From -- ./inp_files/63561.got.cif
#   From: 2010.05.17/outbox.cif.g08.bks.cpg/sg71_32_cif.got.tgz:63561.got - 2010.06.03 16:22:01.
