data_PCOD9519523
_publ_section_title
;
Structure prediction by ZEFSAII (Michael W. Deem and Ramdas Pophale) SiO2 
 PCOD9519523
Probable space group: I M M M
;
_chemical_formula_sum "Si O2"
_cell_formula_units_Z 96
_cell_length_a 23.725129
_cell_length_b 12.084626
_cell_length_c 18.598722
_cell_angle_alpha 90.000000
_cell_angle_beta 90.000000
_cell_angle_gamma 90.000000
_cell_volume 5332.426766
_symmetry_space_group_name_H-M "I M M M"
_symmetry_group_IT_number 71
_symmetry_cell_setting 'orthorhombic'
loop_
_space_group_symop_operation_xyz
x,y,z
-x,-y,z
x,-y,-z
-x,y,-z
-x,-y,-z
x,y,-z
-x,y,z
x,-y,z
1/2+x,1/2+y,1/2+z
1/2-x,1/2-y,1/2+z
1/2+x,1/2-y,1/2-z
1/2-x,1/2+y,1/2-z
1/2-x,1/2-y,1/2-z
1/2+x,1/2+y,1/2-z
1/2-x,1/2+y,1/2+z
1/2+x,1/2-y,1/2+z
loop_
_atom_site_type_symbol
_atom_site_label
_atom_site_fract_x
_atom_site_fract_y
_atom_site_fract_z
Si Si1 0.112207 0.752498 0.915781
Si Si2 0.398095 0.367400 0.918352
Si Si3 0.296820 0.286236 0.825922
Si Si4 0.176592 0.625785 0.205255
Si Si5 0.227274 0.871057 0.921818
Si Si6 0.500000 0.634342 0.818198
Si Si7 0.000000 0.864497 0.148660
O O1 0.138954 0.656760 0.864788
O O2 0.161704 0.844201 0.912225
O O3 0.055083 0.807476 0.886406
O O4 0.105897 0.719961 0.000000
O O5 0.403604 0.500000 0.921991
O O6 0.338820 0.339125 0.882547
O O7 0.446006 0.326843 0.863495
O O8 0.403881 0.324863 0.000000
O O9 0.244554 0.366782 0.807701
O O10 0.330581 0.229361 0.760275
O O11 0.264306 0.184537 0.861921
O O12 0.163319 0.500000 0.228964
O O13 0.236306 0.000000 0.921541
O O14 0.243414 0.823931 0.000000
O O15 0.500000 0.500000 0.819650
O O16 0.500000 0.662032 0.734092
O O17 0.000000 0.000000 0.139560
#
# Coordination Sequence:
#
# PCOD9519523 Si02
#       7
#    16  16  16  16  16   8   8
#     4  10  21  35  52  76 104 136 178 223 270 326
#     4  10  19  32  52  78 109 141 171 207 254 310
#     4  10  19  32  52  78 104 134 180 219 253 311
#     4  10  21  36  53  74 105 143 177 220 274 318
#     4   9  17  30  48  73 106 137 164 205 261 313
#     4   9  19  33  49  74 106 137 166 201 253 308
#     4  11  21  35  58  83 108 139 177 224 274 324
#
# _framework density 18.003060000000001
#
# number of rings (size 3 to 8) (size 9 to 14) (size 15 to 20)
#    0.000    2.167    0.000    3.500    0.000    3.333 
#    0.000    5.417    0.000    1.000    0.000    1.750 
#    0.000    8.000    0.000    0.000    0.000    0.000 
#
# Total GULP energy -267305.722408 kJ/mol
# GULP energy per Si atom -5568.869217 kJ/mol
# Density = 1.796208 g / cm^3
# Si number density = 18.003060 Si / 1000 Ang^3
#
#
#
# Elastic Constant Matrix: (Units=GPa)
#
#
# Indices 1 2 3 4 5 6 
#
# 1 67.9720 0.6521 37.7177 0.0000 0.0000 0.0000
# 2 0.6521 41.0595 13.8718 0.0000 0.0000 0.0000
# 3 37.7177 13.8718 118.2766 0.0000 0.0000 0.0000
# 4 0.0000 0.0000 0.0000 20.4835 0.0000 0.0000
# 5 0.0000 0.0000 0.0000 0.0000 28.2669 0.0000
# 6 0.0000 0.0000 0.0000 0.0000 0.0000 9.4953
#
#
#
# Elastic Compliance Matrix: (Units=1/GPa)
#
#
# Indices 1 2 3 4 5 6 
#
# 1 0.017991 0.001721 -0.005939 0.000000 0.000000 0.000000
# 2 0.001721 0.025524 -0.003542 0.000000 0.000000 0.000000
# 3 -0.005939 -0.003542 0.010764 0.000000 0.000000 0.000000
# 4 0.000000 0.000000 0.000000 0.048820 0.000000 0.000000
# 5 0.000000 0.000000 0.000000 0.000000 0.035377 0.000000
# 6 0.000000 0.000000 0.000000 0.000000 0.000000 0.105315
#
#
# Mechanical properties :
#
#
# Convention : Reuss Voigt Hill
#
# Bulk Modulus (GPa) = 25.80093 36.86571 31.33332
# Shear Modulus (GPa) = 18.36668 23.32025 20.84346
#
# Velocity S-wave (km/s) = 3.19752 3.60300 3.40630
# Velocity P-wave (km/s) = 5.29100 6.15067 5.73696
#
# Compressibility (1/GPa) = 0.03875830
#
# Stress axis : x y z
#
# Youngs Moduli (GPa) = 55.58328 39.17834 92.90103
#
# Poissons Ratio (x) = -0.06742 0.55174
# Poissons Ratio (y) = -0.09565 0.32908
# Poissons Ratio (z) = 0.33011 0.13878
#
# Static dielectric constant tensor:
#      x y z
#    x 1.614670 0.000000 0.000000 
#    y 0.000000 1.594200 0.000000 
#    z 0.000000 0.000000 1.681140 
# 
# From -- ./inp_files/54932.got.cif
#   From: 2010.05.17/outbox.cif.g08.bks.cpg/sg71_28_cif.got.tgz:54932.got - 2010.06.03 16:22:01.
