data_PCOD9519482
_publ_section_title
;
Structure prediction by ZEFSAII (Michael W. Deem and Ramdas Pophale) SiO2 
 PCOD9519482
Probable space group: I M M M
;
_chemical_formula_sum "Si O2"
_cell_formula_units_Z 72
_cell_length_a 22.371884
_cell_length_b 8.359978
_cell_length_c 17.242739
_cell_angle_alpha 90.000000
_cell_angle_beta 90.000000
_cell_angle_gamma 90.000000
_cell_volume 3224.882888
_symmetry_space_group_name_H-M "I M M M"
_symmetry_group_IT_number 71
_symmetry_cell_setting 'orthorhombic'
loop_
_space_group_symop_operation_xyz
x,y,z
-x,-y,z
x,-y,-z
-x,y,-z
-x,-y,-z
x,y,-z
-x,y,z
x,-y,z
1/2+x,1/2+y,1/2+z
1/2-x,1/2-y,1/2+z
1/2+x,1/2-y,1/2-z
1/2-x,1/2+y,1/2-z
1/2-x,1/2-y,1/2-z
1/2+x,1/2+y,1/2-z
1/2-x,1/2+y,1/2+z
1/2+x,1/2-y,1/2+z
loop_
_atom_site_type_symbol
_atom_site_label
_atom_site_fract_x
_atom_site_fract_y
_atom_site_fract_z
Si Si1 0.569188 0.324208 0.667200
Si Si2 0.072995 0.500000 0.091025
Si Si3 0.410799 0.188736 0.000000
Si Si4 0.767561 0.684210 0.333318
Si Si5 0.266699 0.806743 0.000000
Si Si6 0.603028 0.315746 0.842486
O O1 0.500000 0.331214 0.641957
O O2 0.596338 0.500000 0.648798
O O3 0.570522 0.305984 0.760178
O O4 0.595791 0.164500 0.629625
O O5 0.000000 0.500000 0.101318
O O6 0.085240 0.500000 0.000000
O O7 0.338659 0.218047 0.000000
O O8 0.431752 0.265078 0.080444
O O9 0.421772 0.000000 0.000000
O O10 0.750106 0.500000 0.333391
O O11 0.750000 0.750000 0.250000
O O12 0.744929 0.755379 0.416044
O O13 0.839065 0.703999 0.336472
O O14 0.258120 0.000000 0.000000
O O15 0.622895 0.500000 0.851823
#
# Coordination Sequence:
#
# PCOD9519482 Si02
#       6
#    16   8   8  16   8  16
#     4   9  19  34  53  78 107 138 173 216 262 309
#     4   9  18  32  54  79 101 133 175 218 264 314
#     4   9  17  29  48  74 101 134 171 209 249 295
#     4  10  19  32  52  75 100 132 170 211 258 307
#     4   7  14  29  47  68  94 125 161 204 246 296
#     4  10  19  32  52  75 102 135 173 212 254 304
#
# _framework density 22.326391999999998
#
# number of rings (size 3 to 8) (size 9 to 14) (size 15 to 20)
#    0.000    2.778    0.000    3.000    3.111    0.444 
#    0.000    4.444    2.444    3.333    0.000    0.000 
#    0.000    0.000    0.000    0.000    0.000    0.000 
#
# Total GULP energy -200638.599476 kJ/mol
# GULP energy per Si atom -5573.294430 kJ/mol
# Density = 2.227558 g / cm^3
# Si number density = 22.326392 Si / 1000 Ang^3
#
#
#
# Elastic Constant Matrix: (Units=GPa)
#
#
# Indices 1 2 3 4 5 6 
#
# 1 38.8119 -5.1857 14.4682 0.0000 0.0000 0.0000
# 2 -5.1857 125.9533 89.6415 0.0000 0.0000 0.0000
# 3 14.4682 89.6415 184.6978 0.0000 0.0000 0.0000
# 4 0.0000 0.0000 0.0000 31.4017 0.0000 0.0000
# 5 0.0000 0.0000 0.0000 0.0000 24.8979 0.0000
# 6 0.0000 0.0000 0.0000 0.0000 0.0000 -0.6768
#
#
#
# Elastic Compliance Matrix: (Units=1/GPa)
#
#
# Indices 1 2 3 4 5 6 
#
# 1 0.027878 0.004128 -0.004187 0.000000 0.000000 0.000000
# 2 0.004128 0.012740 -0.006507 0.000000 0.000000 0.000000
# 3 -0.004187 -0.006507 0.008900 0.000000 0.000000 0.000000
# 4 0.000000 0.000000 0.000000 0.031845 0.000000 0.000000
# 5 0.000000 0.000000 0.000000 0.000000 0.040164 0.000000
# 6 0.000000 0.000000 0.000000 0.000000 0.000000 -1.477438
#
#
# Mechanical properties :
#
#
# Convention : Reuss Voigt Hill
#
# Bulk Modulus (GPa) = 27.48309 60.81234 44.14771
# Shear Modulus (GPa) = -3.75756 27.82715 12.03479
#
# Velocity S-wave (km/s) = -1.29872 3.53424 2.32424
# Velocity P-wave (km/s) = 3.17609 6.62959 5.19803
#
# Compressibility (1/GPa) = 0.03638602
#
# Stress axis : x y z
#
# Youngs Moduli (GPa) = 35.87093 78.49135 112.35664
#
# Poissons Ratio (x) = -0.32400 0.47046
# Poissons Ratio (y) = -0.14807 0.73107
# Poissons Ratio (z) = 0.15020 0.51072
#
# Static dielectric constant tensor:
#      x y z
#    x 1.857760 0.000000 0.000000 
#    y 0.000000 3.254370 0.000000 
#    z 0.000000 0.000000 1.872980 
# 
# From -- ./inp_files/40731.got.cif
#   From: 2010.05.17/outbox.cif.g08.bks.cpg/sg71_21_cif.got.tgz:40731.got - 2010.06.03 16:22:01.
