data_PCOD9519697
_publ_section_title
;
Structure prediction by ZEFSAII (Michael W. Deem and Ramdas Pophale) SiO2 
 PCOD9519697
Probable space group: I M M M
;
_chemical_formula_sum "Si O2"
_cell_formula_units_Z 68
_cell_length_a 7.457726
_cell_length_b 17.093829
_cell_length_c 22.720290
_cell_angle_alpha 90.000000
_cell_angle_beta 90.000000
_cell_angle_gamma 90.000000
_cell_volume 2896.407402
_symmetry_space_group_name_H-M "I M M M"
_symmetry_group_IT_number 71
_symmetry_cell_setting 'orthorhombic'
loop_
_space_group_symop_operation_xyz
x,y,z
-x,-y,z
x,-y,-z
-x,y,-z
-x,-y,-z
x,y,-z
-x,y,z
x,-y,z
1/2+x,1/2+y,1/2+z
1/2-x,1/2-y,1/2+z
1/2+x,1/2-y,1/2-z
1/2-x,1/2+y,1/2-z
1/2-x,1/2-y,1/2-z
1/2+x,1/2+y,1/2-z
1/2-x,1/2+y,1/2+z
1/2+x,1/2-y,1/2+z
loop_
_atom_site_type_symbol
_atom_site_label
_atom_site_fract_x
_atom_site_fract_y
_atom_site_fract_z
Si Si1 0.000000 0.000000 0.678008
Si Si2 0.218763 0.306434 0.500000
Si Si3 0.792526 0.412767 0.392990
Si Si4 0.210310 0.220133 0.814989
Si Si5 0.280839 0.118282 0.369760
Si Si6 0.206163 0.623443 0.000000
O O1 0.159606 0.932513 0.673257
O O2 0.282203 0.356121 0.556479
O O3 0.286504 0.217899 0.500000
O O4 0.000000 0.300456 0.500000
O O5 0.714718 0.500000 0.389145
O O6 0.788405 0.363084 0.333214
O O7 0.000000 0.421692 0.409419
O O8 0.250000 0.250000 0.750000
O O9 0.263763 0.290739 0.858303
O O10 0.000000 0.210289 0.820936
O O11 0.500000 0.108941 0.363755
O O12 0.222971 0.096932 0.436648
O O13 0.000000 0.598676 0.000000
#
# Coordination Sequence:
#
# PCOD9519697 Si02
#       6
#     4   8  16  16  16   8
#     4  12  26  41  74  94 134 168 222 269 336 390
#     4  10  19  32  62  95 133 170 215 255 315 402
#     4  10  21  38  62  98 135 169 213 266 320 383
#     4  11  24  43  67  89 125 170 218 270 329 395
#     4  10  24  43  64  98 131 170 217 272 330 394
#     4  10  20  37  62  89 131 170 210 266 322 392
#
# _framework density 23.477360000000001
#
# number of rings (size 3 to 8) (size 9 to 14) (size 15 to 20)
#    0.000    1.647    2.353    1.412    4.941    2.824 
#    2.118    1.765    0.000    2.118    0.000    0.000 
#    0.000    0.000    0.000    0.000    0.000    0.000 
#
# Total GULP energy -189411.205780 kJ/mol
# GULP energy per Si atom -5570.917817 kJ/mol
# Density = 2.342392 g / cm^3
# Si number density = 23.477360 Si / 1000 Ang^3
#
#
#
# Elastic Constant Matrix: (Units=GPa)
#
#
# Indices 1 2 3 4 5 6 
#
# 1 88.9681 10.7126 -12.9822 0.0000 0.0000 0.0000
# 2 10.7126 141.7046 5.1154 0.0000 0.0000 0.0000
# 3 -12.9822 5.1154 71.3224 0.0000 0.0000 0.0000
# 4 0.0000 0.0000 0.0000 259.4680 0.0000 0.0000
# 5 0.0000 0.0000 0.0000 0.0000 10.4329 0.0000
# 6 0.0000 0.0000 0.0000 0.0000 0.0000 18.1115
#
#
#
# Elastic Compliance Matrix: (Units=1/GPa)
#
#
# Indices 1 2 3 4 5 6 
#
# 1 0.011676 -0.000962 0.002194 0.000000 0.000000 0.000000
# 2 -0.000962 0.007154 -0.000688 0.000000 0.000000 0.000000
# 3 0.002194 -0.000688 0.014470 0.000000 0.000000 0.000000
# 4 0.000000 0.000000 0.000000 0.003854 0.000000 0.000000
# 5 0.000000 0.000000 0.000000 0.000000 0.095851 0.000000
# 6 0.000000 0.000000 0.000000 0.000000 0.000000 0.055214
#
#
# Mechanical properties :
#
#
# Convention : Reuss Voigt Hill
#
# Bulk Modulus (GPa) = 29.07958 34.18742 31.63350
# Shear Modulus (GPa) = 25.17710 77.54574 51.36142
#
# Velocity S-wave (km/s) = 3.27830 5.75341 4.68236
# Velocity P-wave (km/s) = 5.17135 7.66349 6.53727
#
# Compressibility (1/GPa) = 0.03438839
#
# Stress axis : x y z
#
# Youngs Moduli (GPa) = 85.64581 139.77227 69.11035
#
# Poissons Ratio (x) = 0.13445 -0.15165
# Poissons Ratio (y) = 0.08238 0.04756
# Poissons Ratio (z) = -0.18793 0.09619
#
# Static dielectric constant tensor:
#      x y z
#    x 1.907550 0.000000 0.000000 
#    y 0.000000 1.891910 0.000000 
#    z 0.000000 0.000000 1.892790 
# 
# From -- ./inp_files/57332.got.cif
#   From: 2010.05.17/outbox.cif.g08.bks.cpg/sg71_29_cif.got.tgz:57332.got - 2010.06.03 16:22:01.
