data_PCOD9519787
_publ_section_title
;
Structure prediction by ZEFSAII (Michael W. Deem and Ramdas Pophale) SiO2 
 PCOD9519787
Probable space group: I M M M
;
_chemical_formula_sum "Si O2"
_cell_formula_units_Z 96
_cell_length_a 12.921728
_cell_length_b 30.164298
_cell_length_c 14.350643
_cell_angle_alpha 90.000000
_cell_angle_beta 90.000000
_cell_angle_gamma 90.000000
_cell_volume 5593.519781
_symmetry_space_group_name_H-M "I M M M"
_symmetry_group_IT_number 71
_symmetry_cell_setting 'orthorhombic'
loop_
_space_group_symop_operation_xyz
x,y,z
-x,-y,z
x,-y,-z
-x,y,-z
-x,-y,-z
x,y,-z
-x,y,z
x,-y,z
1/2+x,1/2+y,1/2+z
1/2-x,1/2-y,1/2+z
1/2+x,1/2-y,1/2-z
1/2-x,1/2+y,1/2-z
1/2-x,1/2-y,1/2-z
1/2+x,1/2+y,1/2-z
1/2-x,1/2+y,1/2+z
1/2+x,1/2-y,1/2+z
loop_
_atom_site_type_symbol
_atom_site_label
_atom_site_fract_x
_atom_site_fract_y
_atom_site_fract_z
Si Si1 0.839328 0.780928 0.214456
Si Si2 0.113108 0.167792 0.603358
Si Si3 0.123359 0.866487 0.109149
Si Si4 0.728846 0.912690 0.391001
Si Si5 0.500000 0.220176 0.388837
Si Si6 0.000000 0.617376 0.113112
Si Si7 0.121085 0.950294 0.758451
O O1 0.750000 0.750000 0.250000
O O2 0.887692 0.799313 0.310329
O O3 0.817197 0.825290 0.155194
O O4 0.905649 0.748478 0.150334
O O5 0.122534 0.188456 0.500000
O O6 0.207900 0.133858 0.613621
O O7 0.000000 0.144453 0.605195
O O8 0.140883 0.911478 0.166689
O O9 0.000000 0.855805 0.118501
O O10 0.145727 0.871495 0.000000
O O11 0.729082 0.926374 0.500000
O O12 0.609450 0.905334 0.360281
O O13 0.797671 0.943744 0.325209
O O14 0.500000 0.220055 0.500000
O O15 0.500000 0.168979 0.356837
O O16 0.000000 0.617687 0.000000
O O17 0.000000 0.945844 0.728767
O O18 0.132098 0.000000 0.797378
#
# Coordination Sequence:
#
# PCOD9519787 Si02
#       7
#    16  16  16  16   8   8  16
#     4  12  22  33  54  82 111 148 188 229 277 332
#     4  10  19  33  52  75 107 145 183 224 275 336
#     4  10  20  37  58  81 113 148 185 229 283 342
#     4  10  19  34  56  80 109 148 185 225 278 335
#     4  11  22  36  53  80 114 149 193 236 275 331
#     4   9  20  36  53  77 110 148 191 230 273 329
#     4  10  21  36  57  86 116 145 183 231 286 345
#
# _framework density 17.162717000000001
#
# number of rings (size 3 to 8) (size 9 to 14) (size 15 to 20)
#    0.000    1.667    3.333    2.000    0.000    4.333 
#    0.000    2.917    0.000    1.500    0.000    0.583 
#    0.000    1.333    0.000    0.000    0.000    0.000 
#
# Total GULP energy -267405.161587 kJ/mol
# GULP energy per Si atom -5570.940866 kJ/mol
# Density = 1.712365 g / cm^3
# Si number density = 17.162717 Si / 1000 Ang^3
#
#
#
# Elastic Constant Matrix: (Units=GPa)
#
#
# Indices 1 2 3 4 5 6 
#
# 1 103.6807 41.1116 34.6751 0.0000 0.0002 0.0000
# 2 41.1116 102.9068 44.6143 0.0000 0.0000 -0.0001
# 3 34.6751 44.6143 94.9838 -0.0002 0.0008 0.0001
# 4 0.0000 0.0000 -0.0002 14.5891 -0.0001 -0.0003
# 5 0.0002 0.0000 0.0008 -0.0001 -15.6021 -0.0005
# 6 0.0000 -0.0001 0.0001 -0.0003 -0.0005 -109.3979
#
#
#
# Elastic Compliance Matrix: (Units=1/GPa)
#
#
# Indices 1 2 3 4 5 6 
#
# 1 0.011976 -0.003628 -0.002668 0.000000 0.000000 0.000000
# 2 -0.003628 0.013301 -0.004923 0.000000 0.000000 0.000000
# 3 -0.002668 -0.004923 0.013815 0.000000 0.000001 0.000000
# 4 0.000000 0.000000 0.000000 0.068544 0.000000 0.000000
# 5 0.000000 0.000000 0.000001 0.000000 -0.064094 0.000000
# 6 0.000000 0.000000 0.000000 0.000000 0.000000 -0.009141
#
#
# Mechanical properties :
#
#
# Convention : Reuss Voigt Hill
#
# Bulk Modulus (GPa) = 60.04689 60.26370 60.15530
# Shear Modulus (GPa) = 80.14051 -10.00418 35.06817
#
# Velocity S-wave (km/s) = 6.84075 -2.41696 4.52516
# Velocity P-wave (km/s) = 9.87205 5.23455 7.90120
#
# Compressibility (1/GPa) = 0.01665365
#
# Stress axis : x y z
#
# Youngs Moduli (GPa) = 83.50222 75.18084 72.38713
#
# Poissons Ratio (x) = 0.27273 0.19313
# Poissons Ratio (y) = 0.30292 0.35639
# Poissons Ratio (z) = 0.22278 0.37014
#
# Static dielectric constant tensor:
#      x y z
#    x 1.616570 0.000000 0.000000 
#    y 0.000000 1.586780 0.000000 
#    z 0.000000 0.000000 1.580410 
# 
# From -- ./inp_files/33240.got.cif
#   From: 2010.05.17/outbox.cif.g08.bks.cpg/sg71_17_cif.got.tgz:33240.got - 2010.06.03 16:22:01.
