data_PCOD9519945
_publ_section_title
;
Structure prediction by ZEFSAII (Michael W. Deem and Ramdas Pophale) SiO2 
 PCOD9519945
Probable space group: I M M M
;
_chemical_formula_sum "Si O2"
_cell_formula_units_Z 80
_cell_length_a 7.503524
_cell_length_b 22.419224
_cell_length_c 22.488233
_cell_angle_alpha 90.000000
_cell_angle_beta 90.000000
_cell_angle_gamma 90.000000
_cell_volume 3783.042188
_symmetry_space_group_name_H-M "I M M M"
_symmetry_group_IT_number 71
_symmetry_cell_setting 'orthorhombic'
loop_
_space_group_symop_operation_xyz
x,y,z
-x,-y,z
x,-y,-z
-x,y,-z
-x,-y,-z
x,y,-z
-x,y,z
x,-y,z
1/2+x,1/2+y,1/2+z
1/2-x,1/2-y,1/2+z
1/2+x,1/2-y,1/2-z
1/2-x,1/2+y,1/2-z
1/2-x,1/2-y,1/2-z
1/2+x,1/2+y,1/2-z
1/2-x,1/2+y,1/2+z
1/2+x,1/2-y,1/2+z
loop_
_atom_site_type_symbol
_atom_site_label
_atom_site_fract_x
_atom_site_fract_y
_atom_site_fract_z
Si Si1 0.281958 0.500000 0.432107
Si Si2 0.718345 0.569557 0.768742
Si Si3 0.712522 0.766151 0.068005
Si Si4 0.291761 0.357829 0.117400
Si Si5 0.785656 0.431612 0.000000
Si Si6 0.285767 0.614814 0.358855
O O1 0.500000 0.500000 0.431543
O O2 0.224401 0.500000 0.500000
O O3 0.222620 0.559173 0.398286
O O4 0.500000 0.568282 0.769524
O O5 0.773868 0.500000 0.768529
O O6 0.781743 0.605613 0.826596
O O7 0.774859 0.603257 0.708556
O O8 0.500000 0.757759 0.062629
O O9 0.785447 0.706629 0.099779
O O10 0.740338 0.823802 0.108730
O O11 0.780857 0.773227 0.000000
O O12 0.500000 0.348102 0.131578
O O13 0.278362 0.397981 0.058666
O O14 0.726041 0.500000 0.000000
O O15 0.000000 0.430380 0.000000
O O16 0.500000 0.611880 0.357237
#
# Coordination Sequence:
#
# PCOD9519945 Si02
#       6
#     8  16  16  16   8  16
#     4   9  16  28  49  77 107 138 179 228 274 321
#     4   9  17  32  56  85 111 138 183 240 279 319
#     4  10  21  37  53  76 112 148 185 232 277 324
#     4  10  20  37  60  81 107 151 194 226 271 332
#     4  11  23  37  55  85 119 144 179 236 289 325
#     4  10  19  33  55  82 110 142 183 230 280 329
#
# _framework density 21.147003000000002
#
# number of rings (size 3 to 8) (size 9 to 14) (size 15 to 20)
#    0.000    2.200    2.000    1.500    0.000    4.400 
#    0.000    1.500    0.000    3.000    0.000    0.000 
#    0.000    0.000    0.000    0.000    0.000    0.000 
#
# Total GULP energy -223424.898260 kJ/mol
# GULP energy per Si atom -5585.622456 kJ/mol
# Density = 2.109887 g / cm^3
# Si number density = 21.147003 Si / 1000 Ang^3
#
#
#
# Elastic Constant Matrix: (Units=GPa)
#
#
# Indices 1 2 3 4 5 6 
#
# 1 55.5410 -3.9365 -1.4081 0.0000 0.0000 0.0000
# 2 -3.9365 224.8881 129.0119 0.0000 0.0000 0.0000
# 3 -1.4081 129.0119 228.2758 0.0000 0.0000 0.0000
# 4 0.0000 0.0000 0.0000 21.2117 0.0000 0.0000
# 5 0.0000 0.0000 0.0000 0.0000 3.1454 0.0000
# 6 0.0000 0.0000 0.0000 0.0000 0.0000 11.3961
#
#
#
# Elastic Compliance Matrix: (Units=1/GPa)
#
#
# Indices 1 2 3 4 5 6 
#
# 1 0.018029 0.000373 -0.000099 0.000000 0.000000 0.000000
# 2 0.000373 0.006588 -0.003721 0.000000 0.000000 0.000000
# 3 -0.000099 -0.003721 0.006483 0.000000 0.000000 0.000000
# 4 0.000000 0.000000 0.000000 0.047144 0.000000 0.000000
# 5 0.000000 0.000000 0.000000 0.000000 0.317920 0.000000
# 6 0.000000 0.000000 0.000000 0.000000 0.000000 0.087749
#
#
# Mechanical properties :
#
#
# Convention : Reuss Voigt Hill
#
# Bulk Modulus (GPa) = 41.31542 84.00439 62.65990
# Shear Modulus (GPa) = 10.02255 32.81982 21.42118
#
# Velocity S-wave (km/s) = 2.17939 3.94380 3.18616
# Velocity P-wave (km/s) = 5.09045 7.78128 6.57499
#
# Compressibility (1/GPa) = 0.02420404
#
# Stress axis : x y z
#
# Youngs Moduli (GPa) = 55.46742 151.79833 154.25225
#
# Poissons Ratio (x) = -0.05656 0.01532
# Poissons Ratio (y) = -0.02067 0.57394
# Poissons Ratio (z) = 0.00551 0.56481
#
# Static dielectric constant tensor:
#      x y z
#    x 1.824220 0.000000 0.000000 
#    y 0.000000 1.727500 0.000000 
#    z 0.000000 0.000000 1.727550 
# 
# From -- ./inp_files/50387.got.cif
#   From: 2010.05.17/outbox.cif.g08.bks.cpg/sg71_26_cif.got.tgz:50387.got - 2010.06.03 16:22:01.
