data_PCOD9519829
_publ_section_title
;
Structure prediction by ZEFSAII (Michael W. Deem and Ramdas Pophale) SiO2 
 PCOD9519829
Probable space group: I M M M
;
_chemical_formula_sum "Si O2"
_cell_formula_units_Z 112
_cell_length_a 18.776108
_cell_length_b 13.102450
_cell_length_c 21.741334
_cell_angle_alpha 90.000000
_cell_angle_beta 90.000000
_cell_angle_gamma 90.000000
_cell_volume 5348.651155
_symmetry_space_group_name_H-M "I M M M"
_symmetry_group_IT_number 71
_symmetry_cell_setting 'orthorhombic'
loop_
_space_group_symop_operation_xyz
x,y,z
-x,-y,z
x,-y,-z
-x,y,-z
-x,-y,-z
x,y,-z
-x,y,z
x,-y,z
1/2+x,1/2+y,1/2+z
1/2-x,1/2-y,1/2+z
1/2+x,1/2-y,1/2-z
1/2-x,1/2+y,1/2-z
1/2-x,1/2-y,1/2-z
1/2+x,1/2+y,1/2-z
1/2-x,1/2+y,1/2+z
1/2+x,1/2-y,1/2+z
loop_
_atom_site_type_symbol
_atom_site_label
_atom_site_fract_x
_atom_site_fract_y
_atom_site_fract_z
Si Si1 0.917435 0.608783 0.393458
Si Si2 0.579459 0.664147 0.930206
Si Si3 0.281300 0.617271 0.654531
Si Si4 0.887016 0.612931 0.927307
Si Si5 0.080283 0.770944 0.827021
Si Si6 0.231582 0.190224 0.574008
Si Si7 0.340435 0.114889 0.237680
O O1 0.898630 0.500000 0.423696
O O2 0.912251 0.712440 0.431175
O O3 0.875614 0.616938 0.329907
O O4 0.000000 0.603780 0.376360
O O5 0.500000 0.641746 0.903108
O O6 0.657484 0.638479 0.903214
O O7 0.577416 0.625128 0.000000
O O8 0.267391 0.500000 0.635723
O O9 0.365128 0.637426 0.661112
O O10 0.249693 0.702775 0.608086
O O11 0.241970 0.632595 0.720354
O O12 0.911507 0.500000 0.909527
O O13 0.921517 0.702356 0.888422
O O14 0.801863 0.622719 0.916107
O O15 0.898893 0.625743 0.000000
O O16 0.120406 0.697490 0.778555
O O17 0.000000 0.797246 0.808205
O O18 0.225226 0.205264 0.500000
O O19 0.349122 0.000000 0.262928
#
# Coordination Sequence:
#
# PCOD9519829 Si02
#       7
#    16  16  16  16  16  16  16
#     4   9  16  25  39  64  98 131 162 201 249 294
#     4   9  16  25  40  66 100 137 174 210 250 296
#     4  10  21  37  55  77 106 140 176 211 249 298
#     4   9  19  36  57  80 104 131 167 216 272 321
#     4  11  23  37  56  81 106 134 168 210 263 316
#     4   9  17  31  52  77 106 141 180 215 250 301
#     4  10  19  33  53  77 102 131 170 212 252 299
#
# _framework density 20.939859999999999
#
# number of rings (size 3 to 8) (size 9 to 14) (size 15 to 20)
#    0.000    2.429    1.429    1.286    0.000    2.857 
#    0.000    3.571    0.000    0.429    0.000    7.000 
#    0.000    0.000    0.000    0.000    0.000    0.000 
#
# Total GULP energy -311999.832350 kJ/mol
# GULP energy per Si atom -5571.425578 kJ/mol
# Density = 2.089220 g / cm^3
# Si number density = 20.939860 Si / 1000 Ang^3
#
#
#
# Elastic Constant Matrix: (Units=GPa)
#
#
# Indices 1 2 3 4 5 6 
#
# 1 146.6523 12.5433 11.8810 0.0000 0.0000 0.0000
# 2 12.5433 58.5781 13.9196 0.0000 0.0000 0.0000
# 3 11.8810 13.9196 35.8148 0.0000 0.0000 0.0000
# 4 0.0000 0.0000 0.0000 6.2490 0.0000 0.0000
# 5 0.0000 0.0000 0.0000 0.0000 14.9767 0.0000
# 6 0.0000 0.0000 0.0000 0.0000 0.0000 2.9875
#
#
#
# Elastic Compliance Matrix: (Units=1/GPa)
#
#
# Indices 1 2 3 4 5 6 
#
# 1 0.007066 -0.001053 -0.001935 0.000000 0.000000 0.000000
# 2 -0.001053 0.018965 -0.007022 0.000000 0.000000 0.000000
# 3 -0.001935 -0.007022 0.031292 0.000000 0.000000 0.000000
# 4 0.000000 0.000000 0.000000 0.160027 0.000000 0.000000
# 5 0.000000 0.000000 0.000000 0.000000 0.066771 0.000000
# 6 0.000000 0.000000 0.000000 0.000000 0.000000 0.334724
#
#
# Mechanical properties :
#
#
# Convention : Reuss Voigt Hill
#
# Bulk Modulus (GPa) = 26.80656 35.30366 31.05511
# Shear Modulus (GPa) = 7.67698 18.35605 13.01652
#
# Velocity S-wave (km/s) = 1.91681 2.96397 2.49592
# Velocity P-wave (km/s) = 4.21051 5.34880 4.81342
#
# Compressibility (1/GPa) = 0.03730430
#
# Stress axis : x y z
#
# Youngs Moduli (GPa) = 141.52950 52.72799 31.95694
#
# Poissons Ratio (x) = 0.05554 0.06182
# Poissons Ratio (y) = 0.14907 0.22439
# Poissons Ratio (z) = 0.27380 0.37023
#
# Static dielectric constant tensor:
#      x y z
#    x 1.839740 0.000000 0.000000 
#    y 0.000000 1.759640 0.000000 
#    z 0.000000 0.000000 1.734350 
# 
# From -- ./inp_files/61299.got.cif
#   From: 2010.05.17/outbox.cif.g08.bks.cpg/sg71_31_cif.got.tgz:61299.got - 2010.06.03 16:22:01.
