data_PCOD9519221
_publ_section_title
;
Structure prediction by ZEFSAII (Michael W. Deem and Ramdas Pophale) SiO2 
 PCOD9519221
Probable space group: I M M M
;
_chemical_formula_sum "Si O2"
_cell_formula_units_Z 80
_cell_length_a 12.783409
_cell_length_b 13.863705
_cell_length_c 26.653435
_cell_angle_alpha 90.000000
_cell_angle_beta 90.000000
_cell_angle_gamma 90.000000
_cell_volume 4723.665980
_symmetry_space_group_name_H-M "I M M M"
_symmetry_group_IT_number 71
_symmetry_cell_setting 'orthorhombic'
loop_
_space_group_symop_operation_xyz
x,y,z
-x,-y,z
x,-y,-z
-x,y,-z
-x,-y,-z
x,y,-z
-x,y,z
x,-y,z
1/2+x,1/2+y,1/2+z
1/2-x,1/2-y,1/2+z
1/2+x,1/2-y,1/2-z
1/2-x,1/2+y,1/2-z
1/2-x,1/2-y,1/2-z
1/2+x,1/2+y,1/2-z
1/2-x,1/2+y,1/2+z
1/2+x,1/2-y,1/2+z
loop_
_atom_site_type_symbol
_atom_site_label
_atom_site_fract_x
_atom_site_fract_y
_atom_site_fract_z
Si Si1 0.878828 0.889217 0.895933
Si Si2 0.000000 0.609751 0.439667
Si Si3 0.308504 0.246728 0.087533
Si Si4 0.310158 0.389395 0.718965
Si Si5 0.378097 0.241934 0.803170
Si Si6 0.126024 0.885743 0.500000
O O1 0.800963 0.809357 0.917865
O O2 0.864652 0.883036 0.835519
O O3 0.000000 0.874142 0.908923
O O4 0.849781 0.000000 0.910064
O O5 0.898036 0.666980 0.422256
O O6 0.000000 0.500000 0.421239
O O7 0.000000 0.609156 0.500000
O O8 0.328148 0.279507 0.144724
O O9 0.326834 0.332166 0.048419
O O10 0.312578 0.500000 0.735167
O O11 0.363417 0.320119 0.759407
O O12 0.192105 0.350387 0.711314
O O13 0.500000 0.220250 0.810149
O O14 0.000000 0.870180 0.500000
O O15 0.145071 0.000000 0.500000
#
# Coordination Sequence:
#
# PCOD9519221 Si02
#       6
#    16   8  16  16  16   8
#     4   9  18  33  54  79 107 140 171 205 258 319
#     4  11  20  32  54  80 106 136 162 208 274 329
#     4  11  19  36  53  78 108 134 174 217 261 310
#     4   9  19  33  49  73 105 139 172 209 254 305
#     4  10  19  31  51  76 103 134 173 215 256 305
#     4  11  22  38  57  76 105 141 176 216 264 310
#
# _framework density 16.935998000000001
#
# number of rings (size 3 to 8) (size 9 to 14) (size 15 to 20)
#    0.000    2.000    3.000    1.200    0.000    3.200 
#    0.000    0.500    0.000    2.400    0.000    0.000 
#    0.000    0.000    0.000    0.000    0.000    0.000 
#
# Total GULP energy -223151.332243 kJ/mol
# GULP energy per Si atom -5578.783306 kJ/mol
# Density = 1.689745 g / cm^3
# Si number density = 16.935998 Si / 1000 Ang^3
#
#
#
# Elastic Constant Matrix: (Units=GPa)
#
#
# Indices 1 2 3 4 5 6 
#
# 1 107.0309 38.7739 9.1579 0.0000 0.0000 0.0000
# 2 38.7739 91.6368 20.7694 0.0000 0.0000 0.0000
# 3 9.1579 20.7694 34.7100 0.0000 0.0000 0.0000
# 4 0.0000 0.0000 0.0000 10.1207 0.0000 0.0000
# 5 0.0000 0.0000 0.0000 0.0000 14.8772 0.0000
# 6 0.0000 0.0000 0.0000 0.0000 0.0000 17.2704
#
#
#
# Elastic Compliance Matrix: (Units=1/GPa)
#
#
# Indices 1 2 3 4 5 6 
#
# 1 0.011035 -0.004638 -0.000136 0.000000 0.000000 0.000000
# 2 -0.004638 0.014574 -0.007497 0.000000 0.000000 0.000000
# 3 -0.000136 -0.007497 0.033332 0.000000 0.000000 0.000000
# 4 0.000000 0.000000 0.000000 0.098808 0.000000 0.000000
# 5 0.000000 0.000000 0.000000 0.000000 0.067217 0.000000
# 6 0.000000 0.000000 0.000000 0.000000 0.000000 0.057903
#
#
# Mechanical properties :
#
#
# Convention : Reuss Voigt Hill
#
# Bulk Modulus (GPa) = 29.07101 41.19780 35.13440
# Shear Modulus (GPa) = 15.67996 19.43208 17.55602
#
# Velocity S-wave (km/s) = 3.04606 3.39098 3.22313
# Velocity P-wave (km/s) = 5.43818 6.30159 5.88574
#
# Compressibility (1/GPa) = 0.03439853
#
# Stress axis : x y z
#
# Youngs Moduli (GPa) = 90.62015 68.61305 30.00112
#
# Poissons Ratio (x) = 0.31825 0.00408
# Poissons Ratio (y) = 0.42033 0.22492
# Poissons Ratio (z) = 0.01233 0.51440
#
# Static dielectric constant tensor:
#      x y z
#    x 1.568840 0.000000 0.000000 
#    y 0.000000 1.544910 0.000000 
#    z 0.000000 0.000000 1.593520 
# 
# From -- ./inp_files/22217.got.cif
#   From: 2010.05.17/outbox.cif.g08.bks.cpg/sg71_12_cif.got.tgz:22217.got - 2010.06.03 16:22:01.
