data_PCOD9519271
_publ_section_title
;
Structure prediction by ZEFSAII (Michael W. Deem and Ramdas Pophale) SiO2 
 PCOD9519271
Probable space group: I M M M
;
_chemical_formula_sum "Si O2"
_cell_formula_units_Z 104
_cell_length_a 8.512268
_cell_length_b 22.672465
_cell_length_c 27.458036
_cell_angle_alpha 90.000000
_cell_angle_beta 90.000000
_cell_angle_gamma 90.000000
_cell_volume 5299.238899
_symmetry_space_group_name_H-M "I M M M"
_symmetry_group_IT_number 71
_symmetry_cell_setting 'orthorhombic'
loop_
_space_group_symop_operation_xyz
x,y,z
-x,-y,z
x,-y,-z
-x,y,-z
-x,-y,-z
x,y,-z
-x,y,z
x,-y,z
1/2+x,1/2+y,1/2+z
1/2-x,1/2-y,1/2+z
1/2+x,1/2-y,1/2-z
1/2-x,1/2+y,1/2-z
1/2-x,1/2-y,1/2-z
1/2+x,1/2+y,1/2-z
1/2-x,1/2+y,1/2+z
1/2+x,1/2-y,1/2+z
loop_
_atom_site_type_symbol
_atom_site_label
_atom_site_fract_x
_atom_site_fract_y
_atom_site_fract_z
Si Si1 0.500000 0.929855 0.443133
Si Si2 0.323993 0.222242 0.322246
Si Si3 0.313919 0.369920 0.446546
Si Si4 0.674045 0.385848 0.055264
Si Si5 0.823799 0.247827 0.577477
Si Si6 0.680743 0.345101 0.737401
Si Si7 0.192133 0.931518 0.152665
O O1 0.500000 0.908248 0.500000
O O2 0.665541 0.908808 0.420787
O O3 0.500000 0.000000 0.443743
O O4 0.500000 0.213486 0.341722
O O5 0.206208 0.232178 0.366302
O O6 0.323092 0.283380 0.292197
O O7 0.276513 0.169908 0.285896
O O8 0.249424 0.386752 0.500000
O O9 0.500000 0.381971 0.447612
O O10 0.288835 0.300063 0.439039
O O11 0.251902 0.402655 0.398239
O O12 0.500000 0.398001 0.076998
O O13 0.691250 0.315309 0.052383
O O14 0.670269 0.410240 0.000000
O O15 0.000000 0.270084 0.569510
O O16 0.500000 0.359619 0.750279
O O17 0.743532 0.393792 0.699675
O O18 0.000000 0.927598 0.152674
O O19 0.235111 0.000000 0.155507
#
# Coordination Sequence:
#
# PCOD9519271 Si02
#       7
#     8  16  16  16  16  16  16
#     4   9  18  32  52  76 100 136 181 221 265 317
#     4  10  19  31  52  79 106 131 166 220 273 328
#     4  10  20  33  51  78 111 148 190 234 280 330
#     4   9  19  33  49  75 109 143 181 224 271 327
#     4  11  21  33  51  77 110 145 180 222 281 337
#     4   9  17  32  51  76 106 134 172 218 270 327
#     4   9  17  32  54  79 109 145 187 234 279 329
#
# _framework density 19.625458999999999
#
# number of rings (size 3 to 8) (size 9 to 14) (size 15 to 20)
#    0.000    2.385    1.538    1.385    2.154    2.154 
#    0.000    3.077    0.000    2.769    0.000    3.231 
#    0.000    0.000    0.000    0.000    0.000    0.000 
#
# Total GULP energy -289731.936745 kJ/mol
# GULP energy per Si atom -5571.768014 kJ/mol
# Density = 1.958079 g / cm^3
# Si number density = 19.625459 Si / 1000 Ang^3
#
#
#
# Elastic Constant Matrix: (Units=GPa)
#
#
# Indices 1 2 3 4 5 6 
#
# 1 55.5077 19.9533 -8.7426 0.0000 0.0000 0.0000
# 2 19.9533 67.2527 21.2384 0.0000 0.0000 0.0000
# 3 -8.7426 21.2384 46.4122 0.0000 0.0000 0.0000
# 4 0.0000 0.0000 0.0000 24.4282 0.0000 0.0000
# 5 0.0000 0.0000 0.0000 0.0000 7.3384 0.0000
# 6 0.0000 0.0000 0.0000 0.0000 0.0000 11.8421
#
#
#
# Elastic Compliance Matrix: (Units=1/GPa)
#
#
# Indices 1 2 3 4 5 6 
#
# 1 0.022785 -0.009487 0.008633 0.000000 0.000000 0.000000
# 2 -0.009487 0.021331 -0.011548 0.000000 0.000000 0.000000
# 3 0.008633 -0.011548 0.028457 0.000000 0.000000 0.000000
# 4 0.000000 0.000000 0.000000 0.040936 0.000000 0.000000
# 5 0.000000 0.000000 0.000000 0.000000 0.136270 0.000000
# 6 0.000000 0.000000 0.000000 0.000000 0.000000 0.084444
#
#
# Mechanical properties :
#
#
# Convention : Reuss Voigt Hill
#
# Bulk Modulus (GPa) = 20.93365 26.00784 23.47075
# Shear Modulus (GPa) = 13.33512 17.83664 15.58588
#
# Velocity S-wave (km/s) = 2.60951 3.01799 2.82115
# Velocity P-wave (km/s) = 4.44625 5.04234 4.75365
#
# Compressibility (1/GPa) = 0.04776999
#
# Stress axis : x y z
#
# Youngs Moduli (GPa) = 43.88777 46.88071 35.14114
#
# Poissons Ratio (x) = 0.44474 -0.30338
# Poissons Ratio (y) = 0.41634 0.40581
# Poissons Ratio (z) = -0.37889 0.54138
#
# Static dielectric constant tensor:
#      x y z
#    x 1.730390 0.000000 0.000000 
#    y 0.000000 1.656720 0.000000 
#    z 0.000000 0.000000 1.722490 
# 
# From -- ./inp_files/63571.got.cif
#   From: 2010.05.17/outbox.cif.g08.bks.cpg/sg71_32_cif.got.tgz:63571.got - 2010.06.03 16:22:01.
