data_PCOD9519634
_publ_section_title
;
Structure prediction by ZEFSAII (Michael W. Deem and Ramdas Pophale) SiO2 
 PCOD9519634
Probable space group: I M M M
;
_chemical_formula_sum "Si O2"
_cell_formula_units_Z 88
_cell_length_a 30.268795
_cell_length_b 18.203205
_cell_length_c 7.551764
_cell_angle_alpha 90.000000
_cell_angle_beta 90.000000
_cell_angle_gamma 90.000000
_cell_volume 4160.939502
_symmetry_space_group_name_H-M "I M M M"
_symmetry_group_IT_number 71
_symmetry_cell_setting 'orthorhombic'
loop_
_space_group_symop_operation_xyz
x,y,z
-x,-y,z
x,-y,-z
-x,y,-z
-x,-y,-z
x,y,-z
-x,y,z
x,-y,z
1/2+x,1/2+y,1/2+z
1/2-x,1/2-y,1/2+z
1/2+x,1/2-y,1/2-z
1/2-x,1/2+y,1/2-z
1/2-x,1/2-y,1/2-z
1/2+x,1/2+y,1/2-z
1/2-x,1/2+y,1/2+z
1/2+x,1/2-y,1/2+z
loop_
_atom_site_type_symbol
_atom_site_label
_atom_site_fract_x
_atom_site_fract_y
_atom_site_fract_z
Si Si1 0.704530 0.829437 0.788510
Si Si2 0.699220 0.660388 0.702456
Si Si3 0.103850 0.145435 0.790457
Si Si4 0.384036 0.916988 0.287052
Si Si5 0.050026 0.000000 0.288067
Si Si6 0.551023 0.211205 0.716934
O O1 0.696233 0.749362 0.705701
O O2 0.752378 0.857202 0.721748
O O3 0.663792 0.882790 0.754641
O O4 0.708332 0.817715 0.000000
O O5 0.700307 0.632993 0.500000
O O6 0.653117 0.635173 0.785713
O O7 0.077481 0.216385 0.721806
O O8 0.075305 0.072857 0.769576
O O9 0.110078 0.159587 0.000000
O O10 0.387563 0.919484 0.500000
O O11 0.421691 0.860433 0.225241
O O12 0.388441 0.000000 0.219629
O O13 0.048707 0.000000 0.500000
O O14 0.000000 0.000000 0.219987
O O15 0.550762 0.212027 0.500000
O O16 0.500000 0.211748 0.773287
#
# Coordination Sequence:
#
# PCOD9519634 Si02
#       6
#    16  16  16  16   8  16
#     4  10  19  32  54  82 111 143 178 220 271 328
#     4   9  18  34  57  83 109 139 177 224 271 320
#     4  10  19  36  61  82 106 142 186 230 269 324
#     4  10  20  35  54  77 112 151 185 227 274 319
#     4  11  25  41  55  79 117 149 177 225 286 341
#     4   9  17  31  55  84 107 133 178 230 272 315
#
# _framework density 21.149069999999998
#
# number of rings (size 3 to 8) (size 9 to 14) (size 15 to 20)
#    0.000    2.273    1.818    1.364    0.000    3.636 
#    1.636    1.818    0.000    0.545    0.000    1.273 
#    0.000    0.000    0.000    0.000    0.000    0.000 
#
# Total GULP energy -245634.800017 kJ/mol
# GULP energy per Si atom -5582.609091 kJ/mol
# Density = 2.110093 g / cm^3
# Si number density = 21.149070 Si / 1000 Ang^3
#
#
#
# Elastic Constant Matrix: (Units=GPa)
#
#
# Indices 1 2 3 4 5 6 
#
# 1 193.0155 56.9463 -2.1809 0.0000 0.0000 0.0000
# 2 56.9463 87.1390 -10.4797 0.0000 0.0000 0.0000
# 3 -2.1809 -10.4797 56.3768 0.0000 0.0000 0.0000
# 4 0.0000 0.0000 0.0000 2.3033 0.0000 0.0000
# 5 0.0000 0.0000 0.0000 0.0000 13.6729 0.0000
# 6 0.0000 0.0000 0.0000 0.0000 0.0000 27.1799
#
#
#
# Elastic Compliance Matrix: (Units=1/GPa)
#
#
# Indices 1 2 3 4 5 6 
#
# 1 0.006435 -0.004271 -0.000545 0.000000 0.000000 0.000000
# 2 -0.004271 0.014573 0.002544 0.000000 0.000000 0.000000
# 3 -0.000545 0.002544 0.018190 0.000000 0.000000 0.000000
# 4 0.000000 0.000000 0.000000 0.434163 0.000000 0.000000
# 5 0.000000 0.000000 0.000000 0.000000 0.073138 0.000000
# 6 0.000000 0.000000 0.000000 0.000000 0.000000 0.036792
#
#
# Mechanical properties :
#
#
# Convention : Reuss Voigt Hill
#
# Bulk Modulus (GPa) = 28.85744 47.23365 38.04554
# Shear Modulus (GPa) = 8.34189 28.11424 18.22807
#
# Velocity S-wave (km/s) = 1.98819 3.64996 2.93897
# Velocity P-wave (km/s) = 4.35258 6.33602 5.43553
#
# Compressibility (1/GPa) = 0.03465311
#
# Stress axis : x y z
#
# Youngs Moduli (GPa) = 155.40509 68.62094 54.97664
#
# Poissons Ratio (x) = 0.29306 0.02996
# Poissons Ratio (y) = 0.66370 -0.13984
# Poissons Ratio (z) = 0.08469 -0.17455
#
# Static dielectric constant tensor:
#      x y z
#    x 1.778420 0.000000 0.000000 
#    y 0.000000 1.746990 0.000000 
#    z 0.000000 0.000000 1.855900 
# 
# From -- ./inp_files/8860.got.cif
#   From: 2010.05.17/outbox.cif.g08.bks.cpg/sg71_5_cif.got.tgz:8860.got - 2010.06.03 16:22:01.
