data_PCOD9519373
_publ_section_title
;
Structure prediction by ZEFSAII (Michael W. Deem and Ramdas Pophale) SiO2 
 PCOD9519373
Probable space group: I M M M
;
_chemical_formula_sum "Si O2"
_cell_formula_units_Z 120
_cell_length_a 9.935632
_cell_length_b 25.944386
_cell_length_c 27.770258
_cell_angle_alpha 90.000000
_cell_angle_beta 90.000000
_cell_angle_gamma 90.000000
_cell_volume 7158.446924
_symmetry_space_group_name_H-M "I M M M"
_symmetry_group_IT_number 71
_symmetry_cell_setting 'orthorhombic'
loop_
_space_group_symop_operation_xyz
x,y,z
-x,-y,z
x,-y,-z
-x,y,-z
-x,-y,-z
x,y,-z
-x,y,z
x,-y,z
1/2+x,1/2+y,1/2+z
1/2-x,1/2-y,1/2+z
1/2+x,1/2-y,1/2-z
1/2-x,1/2+y,1/2-z
1/2-x,1/2-y,1/2-z
1/2+x,1/2+y,1/2-z
1/2-x,1/2+y,1/2+z
1/2+x,1/2-y,1/2+z
loop_
_atom_site_type_symbol
_atom_site_label
_atom_site_fract_x
_atom_site_fract_y
_atom_site_fract_z
Si Si1 0.840501 0.240536 0.056332
Si Si2 0.158424 0.331118 0.377131
Si Si3 0.164494 0.439998 0.000000
Si Si4 0.161180 0.356887 0.921749
Si Si5 0.842522 0.440361 0.655996
Si Si6 0.346995 0.883930 0.311617
Si Si7 0.350160 0.560881 0.253135
Si Si8 0.347879 0.793945 0.768011
O O1 0.753816 0.202197 0.088905
O O2 0.792335 0.299865 0.063108
O O3 0.000000 0.238241 0.069398
O O4 0.828869 0.227528 0.000000
O O5 0.179558 0.393054 0.380492
O O6 0.183998 0.315283 0.321263
O O7 0.000000 0.321082 0.386877
O O8 0.208247 0.405153 0.954103
O O9 0.209128 0.500000 0.000000
O O10 0.000000 0.441983 0.000000
O O11 0.183616 0.364835 0.865208
O O12 0.000000 0.355604 0.929404
O O13 0.823005 0.500000 0.639787
O O14 0.743117 0.429886 0.700347
O O15 0.000000 0.436052 0.671721
O O16 0.500000 0.905610 0.311612
O O17 0.232656 0.921714 0.293162
O O18 0.345071 0.838497 0.272161
O O19 0.500000 0.584299 0.256782
O O20 0.364272 0.500000 0.251038
O O21 0.500000 0.773592 0.770288
O O22 0.250000 0.750000 0.750000
#
# Coordination Sequence:
#
# PCOD9519373 Si02
#       8
#    16  16   8  16  16  16  16  16
#     4  10  20  36  58  80 104 138 177 219 268 322
#     4  10  20  34  53  80 109 135 174 222 266 319
#     4   9  16  28  48  76 107 135 172 229 284 316
#     4   9  17  31  51  75 104 137 176 223 270 317
#     4   9  17  33  56  77 103 141 178 215 262 315
#     4  10  19  32  50  72 102 138 176 214 257 313
#     4  10  20  32  47  71 104 140 177 216 256 301
#     4  10  20  33  47  71 105 139 174 215 263 316
#
# _framework density 16.763413
#
# number of rings (size 3 to 8) (size 9 to 14) (size 15 to 20)
#    0.000    2.333    2.000    1.200    0.000    4.267 
#    0.000    2.000    0.000    0.400    0.000    2.800 
#    0.000    2.133    0.000    0.000    0.000    0.000 
#
# Total GULP energy -334125.310775 kJ/mol
# GULP energy per Si atom -5568.755180 kJ/mol
# Density = 1.672526 g / cm^3
# Si number density = 16.763413 Si / 1000 Ang^3
#
#
#
# Elastic Constant Matrix: (Units=GPa)
#
#
# Indices 1 2 3 4 5 6 
#
# 1 65.0525 56.9978 45.1213 0.0000 0.0000 0.0000
# 2 56.9978 113.5101 58.0105 0.0000 0.0000 0.0000
# 3 45.1213 58.0105 91.5880 0.0000 0.0000 0.0000
# 4 0.0000 0.0000 0.0000 24.8235 0.0000 0.0000
# 5 0.0000 0.0000 0.0000 0.0000 20.3361 0.0000
# 6 0.0000 0.0000 0.0000 0.0000 0.0000 27.1033
#
#
#
# Elastic Compliance Matrix: (Units=1/GPa)
#
#
# Indices 1 2 3 4 5 6 
#
# 1 0.030957 -0.011460 -0.007992 0.000000 0.000000 0.000000
# 2 -0.011460 0.017269 -0.005292 0.000000 0.000000 0.000000
# 3 -0.007992 -0.005292 0.018208 0.000000 0.000000 0.000000
# 4 0.000000 0.000000 0.000000 0.040284 0.000000 0.000000
# 5 0.000000 0.000000 0.000000 0.000000 0.049174 0.000000
# 6 0.000000 0.000000 0.000000 0.000000 0.000000 0.036896
#
#
# Mechanical properties :
#
#
# Convention : Reuss Voigt Hill
#
# Bulk Modulus (GPa) = 59.01566 65.60110 62.30838
# Shear Modulus (GPa) = 20.16738 21.78729 20.97734
#
# Velocity S-wave (km/s) = 3.47228 3.60904 3.54132
# Velocity P-wave (km/s) = 7.16639 7.52232 7.34651
#
# Compressibility (1/GPa) = 0.01694465
#
# Stress axis : x y z
#
# Youngs Moduli (GPa) = 32.30287 57.90774 54.92134
#
# Poissons Ratio (x) = 0.66363 0.43896
# Poissons Ratio (y) = 0.37019 0.29064
# Poissons Ratio (z) = 0.25818 0.30645
#
# Static dielectric constant tensor:
#      x y z
#    x 1.590660 0.000000 0.000000 
#    y 0.000000 1.594810 0.000000 
#    z 0.000000 0.000000 1.554310 
# 
# From -- ./inp_files/63775.got.cif
#   From: 2010.05.17/outbox.cif.g08.bks.cpg/sg71_32_cif.got.tgz:63775.got - 2010.06.03 16:22:01.
