data_PCOD9519728
_publ_section_title
;
Structure prediction by ZEFSAII (Michael W. Deem and Ramdas Pophale) SiO2 
 PCOD9519728
Probable space group: I M M M
;
_chemical_formula_sum "Si O2"
_cell_formula_units_Z 104
_cell_length_a 27.214256
_cell_length_b 28.781265
_cell_length_c 8.127650
_cell_angle_alpha 90.000000
_cell_angle_beta 90.000000
_cell_angle_gamma 90.000000
_cell_volume 6366.068940
_symmetry_space_group_name_H-M "I M M M"
_symmetry_group_IT_number 71
_symmetry_cell_setting 'orthorhombic'
loop_
_space_group_symop_operation_xyz
x,y,z
-x,-y,z
x,-y,-z
-x,y,-z
-x,-y,-z
x,y,-z
-x,y,z
x,-y,z
1/2+x,1/2+y,1/2+z
1/2-x,1/2-y,1/2+z
1/2+x,1/2-y,1/2-z
1/2-x,1/2+y,1/2-z
1/2-x,1/2-y,1/2-z
1/2+x,1/2+y,1/2-z
1/2-x,1/2+y,1/2+z
1/2+x,1/2-y,1/2+z
loop_
_atom_site_type_symbol
_atom_site_label
_atom_site_fract_x
_atom_site_fract_y
_atom_site_fract_z
Si Si1 0.940307 0.693242 0.187966
Si Si2 0.559164 0.869737 0.000000
Si Si3 0.692774 0.553554 0.692002
Si Si4 0.098513 0.106131 0.308371
Si Si5 0.297440 0.056443 0.681379
Si Si6 0.139366 0.443978 0.500000
Si Si7 0.943222 0.799035 0.802224
Si Si8 0.500000 0.553638 0.302375
O O1 0.926489 0.658773 0.334943
O O2 0.926298 0.746405 0.230337
O O3 0.000000 0.693590 0.182800
O O4 0.923970 0.682169 0.000000
O O5 0.500000 0.874800 0.000000
O O6 0.587463 0.918243 0.000000
O O7 0.706758 0.552806 0.500000
O O8 0.681342 0.500000 0.740367
O O9 0.645023 0.584695 0.715917
O O10 0.740739 0.570072 0.789799
O O11 0.107025 0.098746 0.500000
O O12 0.089218 0.160233 0.271994
O O13 0.048736 0.079649 0.257140
O O14 0.314438 0.071562 0.500000
O O15 0.297311 0.000000 0.683492
O O16 0.330653 0.070331 0.836031
O O17 0.134809 0.500000 0.500000
O O18 0.000000 0.804088 0.744683
O O19 0.943817 0.804599 0.000000
O O20 0.500000 0.500000 0.247630
O O21 0.500000 0.554575 0.500000
#
# Coordination Sequence:
#
# PCOD9519728 Si02
#       8
#    16   8  16  16  16   8  16   8
#     4   8  16  31  51  74 102 137 173 217 259 290
#     4  10  20  33  54  84 114 146 175 205 234 296
#     4  10  19  33  51  69  95 130 171 221 271 314
#     4  12  23  30  43  69  96 127 169 220 272 327
#     4   9  17  32  54  77 102 133 173 221 260 294
#     4  10  20  35  54  82 116 145 174 202 243 293
#     4   9  17  31  49  66  93 129 168 218 266 311
#     4  11  23  37  45  53  85 139 183 213 261 332
#
# _framework density 16.336613
#
# number of rings (size 3 to 8) (size 9 to 14) (size 15 to 20)
#    0.000    2.231    1.538    3.462    1.077    4.154 
#    0.000    0.000    0.000    0.000    0.000    5.385 
#    0.000    0.000    0.000    0.000    0.000    0.000 
#
# Total GULP energy -289912.389905 kJ/mol
# GULP energy per Si atom -5575.238267 kJ/mol
# Density = 1.629943 g / cm^3
# Si number density = 16.336613 Si / 1000 Ang^3
#
#
#
# Elastic Constant Matrix: (Units=GPa)
#
#
# Indices 1 2 3 4 5 6 
#
# 1 49.8797 27.5360 27.2664 0.0000 0.0000 0.0000
# 2 27.5360 53.4507 30.7765 0.0000 0.0000 0.0000
# 3 27.2664 30.7765 89.2340 0.0000 0.0000 0.0000
# 4 0.0000 0.0000 0.0000 11.5361 0.0000 0.0000
# 5 0.0000 0.0000 0.0000 0.0000 6.3985 0.0000
# 6 0.0000 0.0000 0.0000 0.0000 0.0000 3.5589
#
#
#
# Elastic Compliance Matrix: (Units=1/GPa)
#
#
# Indices 1 2 3 4 5 6 
#
# 1 0.029522 -0.012496 -0.004711 0.000000 0.000000 0.000000
# 2 -0.012496 0.028634 -0.006058 0.000000 0.000000 0.000000
# 3 -0.004711 -0.006058 0.014735 0.000000 0.000000 0.000000
# 4 0.000000 0.000000 0.000000 0.086685 0.000000 0.000000
# 5 0.000000 0.000000 0.000000 0.000000 0.156287 0.000000
# 6 0.000000 0.000000 0.000000 0.000000 0.000000 0.280983
#
#
# Mechanical properties :
#
#
# Convention : Reuss Voigt Hill
#
# Bulk Modulus (GPa) = 37.93306 40.41359 39.17333
# Shear Modulus (GPa) = 7.66679 11.43106 9.54893
#
# Velocity S-wave (km/s) = 2.16869 2.64809 2.42029
# Velocity P-wave (km/s) = 5.43516 5.84308 5.64281
#
# Compressibility (1/GPa) = 0.02636223
#
# Stress axis : x y z
#
# Youngs Moduli (GPa) = 33.87319 34.92308 67.86491
#
# Poissons Ratio (x) = 0.43641 0.31970
# Poissons Ratio (y) = 0.42329 0.41109
# Poissons Ratio (z) = 0.15957 0.21155
#
# Static dielectric constant tensor:
#      x y z
#    x 1.186460 0.000000 0.000000 
#    y 0.000000 1.536830 0.000000 
#    z 0.000000 0.000000 1.582790 
# 
# From -- ./inp_files/13352.got.cif
#   From: 2010.05.17/outbox.cif.g08.bks.cpg/sg71_7_cif.got.tgz:13352.got - 2010.06.03 16:22:01.
