data_PCOD9519443
_publ_section_title
;
Structure prediction by ZEFSAII (Michael W. Deem and Ramdas Pophale) SiO2 
 PCOD9519443
Probable space group: I M M M
;
_chemical_formula_sum "Si O2"
_cell_formula_units_Z 88
_cell_length_a 10.732137
_cell_length_b 25.109264
_cell_length_c 16.582634
_cell_angle_alpha 90.000000
_cell_angle_beta 90.000000
_cell_angle_gamma 90.000000
_cell_volume 4468.622895
_symmetry_space_group_name_H-M "I M M M"
_symmetry_group_IT_number 71
_symmetry_cell_setting 'orthorhombic'
loop_
_space_group_symop_operation_xyz
x,y,z
-x,-y,z
x,-y,-z
-x,y,-z
-x,-y,-z
x,y,-z
-x,y,z
x,-y,z
1/2+x,1/2+y,1/2+z
1/2-x,1/2-y,1/2+z
1/2+x,1/2-y,1/2-z
1/2-x,1/2+y,1/2-z
1/2-x,1/2-y,1/2-z
1/2+x,1/2+y,1/2-z
1/2-x,1/2+y,1/2+z
1/2+x,1/2-y,1/2+z
loop_
_atom_site_type_symbol
_atom_site_label
_atom_site_fract_x
_atom_site_fract_y
_atom_site_fract_z
Si Si1 0.137398 0.826396 0.404816
Si Si2 0.358991 0.440806 0.163606
Si Si3 0.862372 0.559599 0.291895
Si Si4 0.643021 0.751114 0.401368
Si Si5 0.764756 0.133343 0.903803
Si Si6 0.500000 0.559844 0.402642
O O1 0.133571 0.814910 0.500000
O O2 0.152120 0.889557 0.392898
O O3 0.256227 0.794344 0.372027
O O4 0.000000 0.811402 0.371049
O O5 0.500000 0.437677 0.199027
O O6 0.349540 0.500000 0.125967
O O7 0.248290 0.436419 0.227655
O O8 0.851310 0.500000 0.329641
O O9 0.847298 0.606689 0.355897
O O10 0.000000 0.562429 0.254220
O O11 0.638820 0.752893 0.500000
O O12 0.500000 0.758510 0.373929
O O13 0.694601 0.692621 0.379934
O O14 0.878901 0.093919 0.883307
O O15 0.744675 0.133031 0.000000
O O16 0.500000 0.500000 0.369691
O O17 0.500000 0.555821 0.500000
#
# Coordination Sequence:
#
# PCOD9519443 Si02
#       6
#    16  16  16  16  16   8
#     4   9  18  33  55  83 110 134 166 211 262 315
#     4   9  19  36  57  79 104 137 173 210 258 318
#     4  10  22  37  52  74 106 141 174 216 269 317
#     4   9  17  31  51  76 107 140 174 213 258 308
#     4  10  19  32  51  75 103 138 180 221 259 303
#     4   9  16  26  44  72 100 126 164 216 260 292
#
# _framework density 19.692869000000002
#
# number of rings (size 3 to 8) (size 9 to 14) (size 15 to 20)
#    0.000    2.636    0.909    0.545    1.273    3.273 
#    0.000    5.455    0.000    0.000    0.000    5.091 
#    0.000    0.000    0.000    0.000    0.000    0.000 
#
# Total GULP energy -245173.071857 kJ/mol
# GULP energy per Si atom -5572.115269 kJ/mol
# Density = 1.964805 g / cm^3
# Si number density = 19.692869 Si / 1000 Ang^3
#
#
#
# Elastic Constant Matrix: (Units=GPa)
#
#
# Indices 1 2 3 4 5 6 
#
# 1 139.0965 65.8906 14.3024 0.0000 0.0000 0.0000
# 2 65.8906 117.4899 2.6442 0.0000 0.0000 0.0000
# 3 14.3024 2.6442 -1.4601 0.0000 0.0000 0.0000
# 4 0.0000 0.0000 0.0000 7.3052 0.0000 0.0000
# 5 0.0000 0.0000 0.0000 0.0000 16.6611 0.0000
# 6 0.0000 0.0000 0.0000 0.0000 0.0000 9.3191
#
#
#
# Elastic Compliance Matrix: (Units=1/GPa)
#
#
# Indices 1 2 3 4 5 6 
#
# 1 0.004755 -0.003570 0.040117 0.000000 0.000000 0.000000
# 2 -0.003570 0.010858 -0.015305 0.000000 0.000000 0.000000
# 3 0.040117 -0.015305 -0.319644 0.000000 0.000000 0.000001
# 4 0.000000 0.000000 0.000000 0.136888 0.000000 0.000000
# 5 0.000000 0.000000 0.000000 0.000000 0.060020 0.000000
# 6 0.000000 0.000000 0.000001 0.000000 0.000000 0.107307
#
#
# Mechanical properties :
#
#
# Convention : Reuss Voigt Hill
#
# Bulk Modulus (GPa) = -3.82342 46.75563 21.46610
# Shear Modulus (GPa) = -38.61495 18.14303 -10.23596
#
# Velocity S-wave (km/s) = -4.43296 3.03858 -2.28234
# Velocity P-wave (km/s) = 5.30540 6.00871 1.99466
#
# Compressibility (1/GPa) = -0.26154605
#
# Stress axis : x y z
#
# Youngs Moduli (GPa) = 210.29433 92.10010 -3.12848
#
# Poissons Ratio (x) = 0.32877 0.12550
# Poissons Ratio (y) = 0.75068 -0.04788
# Poissons Ratio (z) = -8.43637 1.40956
#
# Static dielectric constant tensor:
#      x y z
#    x 1.734010 0.000000 0.000000 
#    y 0.000000 1.688120 0.000000 
#    z 0.000000 0.000000 1.699500 
# 
# From -- ./inp_files/43363.got.cif
#   From: 2010.05.17/outbox.cif.g08.bks.cpg/sg71_22_cif.got.tgz:43363.got - 2010.06.03 16:22:01.
