data_PCOD9519458
_publ_section_title
;
Structure prediction by ZEFSAII (Michael W. Deem and Ramdas Pophale) SiO2 
 PCOD9519458
Probable space group: I M M M
;
_chemical_formula_sum "Si O2"
_cell_formula_units_Z 104
_cell_length_a 7.491677
_cell_length_b 23.399939
_cell_length_c 28.206216
_cell_angle_alpha 90.000000
_cell_angle_beta 90.000000
_cell_angle_gamma 90.000000
_cell_volume 4944.684626
_symmetry_space_group_name_H-M "I M M M"
_symmetry_group_IT_number 71
_symmetry_cell_setting 'orthorhombic'
loop_
_space_group_symop_operation_xyz
x,y,z
-x,-y,z
x,-y,-z
-x,y,-z
-x,-y,-z
x,y,-z
-x,y,z
x,-y,z
1/2+x,1/2+y,1/2+z
1/2-x,1/2-y,1/2+z
1/2+x,1/2-y,1/2-z
1/2-x,1/2+y,1/2-z
1/2-x,1/2-y,1/2-z
1/2+x,1/2+y,1/2-z
1/2-x,1/2+y,1/2+z
1/2+x,1/2-y,1/2+z
loop_
_atom_site_type_symbol
_atom_site_label
_atom_site_fract_x
_atom_site_fract_y
_atom_site_fract_z
Si Si1 0.287660 0.766990 0.803491
Si Si2 0.702152 0.602637 0.307535
Si Si3 0.718739 0.370221 0.593992
Si Si4 0.787370 0.064045 0.295240
Si Si5 0.782159 0.935261 0.000000
Si Si6 0.200900 0.662314 0.129899
Si Si7 0.281207 0.247511 0.444707
O O1 0.500000 0.771003 0.811608
O O2 0.250000 0.750000 0.750000
O O3 0.199986 0.828552 0.808433
O O4 0.208872 0.717285 0.835744
O O5 0.500000 0.579409 0.308792
O O6 0.784508 0.595160 0.359680
O O7 0.782545 0.583690 0.256951
O O8 0.500000 0.369915 0.596683
O O9 0.773733 0.402609 0.546867
O O10 0.773460 0.304071 0.585134
O O11 0.762632 0.109686 0.337430
O O12 0.000000 0.061410 0.289619
O O13 0.721607 0.000000 0.306107
O O14 0.000000 0.934603 0.000000
O O15 0.722772 0.000000 0.000000
O O16 0.282982 0.689883 0.082050
O O17 0.000000 0.647007 0.117112
O O18 0.228908 0.251525 0.500000
O O19 0.500000 0.247407 0.443969
#
# Coordination Sequence:
#
# PCOD9519458 Si02
#       7
#    16  16  16  16   8  16  16
#     4  12  22  32  50  78 110 140 172 216 266 317
#     4  10  19  32  51  76 106 142 179 219 266 318
#     4   9  15  25  43  69 103 140 177 217 264 310
#     4  10  22  38  54  74 106 147 184 222 270 325
#     4   9  16  24  38  66 105 147 186 223 260 300
#     4  11  21  34  56  83 107 140 181 223 274 327
#     4   9  16  28  49  78 108 135 169 218 278 330
#
# _framework density 21.032686999999999
#
# number of rings (size 3 to 8) (size 9 to 14) (size 15 to 20)
#    0.000    1.923    3.846    1.846    0.000    0.923 
#    0.000    3.077    0.000    2.308    0.000    3.231 
#    0.000    0.615    0.000    0.000    0.000    0.000 
#
# Total GULP energy -289852.033003 kJ/mol
# GULP energy per Si atom -5574.077558 kJ/mol
# Density = 2.098482 g / cm^3
# Si number density = 21.032687 Si / 1000 Ang^3
#
#
#
# Elastic Constant Matrix: (Units=GPa)
#
#
# Indices 1 2 3 4 5 6 
#
# 1 70.1482 1.8371 3.0264 0.0000 0.0000 0.0000
# 2 1.8371 125.6230 49.8903 0.0000 0.0000 0.0000
# 3 3.0264 49.8903 119.6617 0.0000 0.0000 0.0000
# 4 0.0000 0.0000 0.0000 13.8020 0.0000 0.0000
# 5 0.0000 0.0000 0.0000 0.0000 5.0872 0.0000
# 6 0.0000 0.0000 0.0000 0.0000 0.0000 7.8371
#
#
#
# Elastic Compliance Matrix: (Units=1/GPa)
#
#
# Indices 1 2 3 4 5 6 
#
# 1 0.014272 -0.000078 -0.000328 0.000000 0.000000 0.000000
# 2 -0.000078 0.009540 -0.003976 0.000000 0.000000 0.000000
# 3 -0.000328 -0.003976 0.010023 0.000000 0.000000 0.000000
# 4 0.000000 0.000000 0.000000 0.072453 0.000000 0.000000
# 5 0.000000 0.000000 0.000000 0.000000 0.196571 0.000000
# 6 0.000000 0.000000 0.000000 0.000000 0.000000 0.127598
#
#
# Mechanical properties :
#
#
# Convention : Reuss Voigt Hill
#
# Bulk Modulus (GPa) = 39.88782 47.21562 43.55172
# Shear Modulus (GPa) = 11.17121 22.72387 16.94754
#
# Velocity S-wave (km/s) = 2.30714 3.29052 2.84169
# Velocity P-wave (km/s) = 5.10911 6.07735 5.61414
#
# Compressibility (1/GPa) = 0.02507031
#
# Stress axis : x y z
#
# Youngs Moduli (GPa) = 70.06849 104.81763 99.77289
#
# Poissons Ratio (x) = 0.00821 0.03275
# Poissons Ratio (y) = 0.00549 0.39666
# Poissons Ratio (z) = 0.02300 0.41672
#
# Static dielectric constant tensor:
#      x y z
#    x 1.832360 0.000000 0.000000 
#    y 0.000000 1.916040 0.000000 
#    z 0.000000 0.000000 1.613000 
# 
# From -- ./inp_files/68284.got.cif
#   From: 2010.05.17/outbox.cif.g08.bks.cpg/sg71_35_cif.got.tgz:68284.got - 2010.06.03 16:22:01.
