data_PCOD9519631
_publ_section_title
;
Structure prediction by ZEFSAII (Michael W. Deem and Ramdas Pophale) SiO2 
 PCOD9519631
Probable space group: I M M M
;
_chemical_formula_sum "Si O2"
_cell_formula_units_Z 82
_cell_length_a 28.913849
_cell_length_b 7.395542
_cell_length_c 19.747779
_cell_angle_alpha 90.000000
_cell_angle_beta 90.000000
_cell_angle_gamma 90.000000
_cell_volume 4222.738373
_symmetry_space_group_name_H-M "I M M M"
_symmetry_group_IT_number 71
_symmetry_cell_setting 'orthorhombic'
loop_
_space_group_symop_operation_xyz
x,y,z
-x,-y,z
x,-y,-z
-x,y,-z
-x,-y,-z
x,y,-z
-x,y,z
x,-y,z
1/2+x,1/2+y,1/2+z
1/2-x,1/2-y,1/2+z
1/2+x,1/2-y,1/2-z
1/2-x,1/2+y,1/2-z
1/2-x,1/2-y,1/2-z
1/2+x,1/2+y,1/2-z
1/2-x,1/2+y,1/2+z
1/2+x,1/2-y,1/2+z
loop_
_atom_site_type_symbol
_atom_site_label
_atom_site_fract_x
_atom_site_fract_y
_atom_site_fract_z
Si Si1 0.050847 0.000000 0.359416
Si Si2 0.887723 0.279968 0.284337
Si Si3 0.053739 0.278593 0.000000
Si Si4 0.000000 0.000000 0.500000
Si Si5 0.711747 0.718514 0.422818
Si Si6 0.217150 0.715213 0.313959
Si Si7 0.890364 0.712312 0.130849
O O1 0.078656 0.175897 0.335008
O O2 0.039602 0.000000 0.439130
O O3 0.000000 0.000000 0.325726
O O4 0.891189 0.500000 0.288873
O O5 0.834898 0.223108 0.300624
O O6 0.898507 0.221273 0.206984
O O7 0.080098 0.214571 0.932229
O O8 0.056018 0.500000 0.000000
O O9 0.000000 0.228278 0.000000
O O10 0.711462 0.782938 0.500000
O O11 0.713380 0.500000 0.424025
O O12 0.755289 0.784908 0.379327
O O13 0.663716 0.768051 0.386937
O O14 0.213484 0.500000 0.321677
O O15 0.250000 0.750000 0.250000
O O16 0.901010 0.500000 0.133742
#
# Coordination Sequence:
#
# PCOD9519631 Si02
#       7
#     8  16   8   2  16  16  16
#     4  10  24  48  74  93 128 160 207 272 338 392
#     4  10  22  39  64  99 129 164 212 268 325 391
#     4   9  18  32  49  72 109 159 202 258 313 348
#     4   8  24  56  74 100 124 156 212 284 338 420
#     4  10  20  33  50  75 115 163 206 247 304 376
#     4  10  20  33  54  85 122 163 211 258 313 382
#     4  10  19  32  54  81 115 156 209 255 302 369
#
# _framework density 19.418679000000001
#
# number of rings (size 3 to 8) (size 9 to 14) (size 15 to 20)
#    0.293    1.854    2.927    0.000    2.732    1.171 
#    1.756    2.927    0.000    0.585    0.000    0.000 
#    0.000    0.000    0.000    0.000    0.000    0.000 
#
# Total GULP energy -228484.896400 kJ/mol
# GULP energy per Si atom -5572.802351 kJ/mol
# Density = 1.937448 g / cm^3
# Si number density = 19.418679 Si / 1000 Ang^3
#
#
#
# Elastic Constant Matrix: (Units=GPa)
#
#
# Indices 1 2 3 4 5 6 
#
# 1 141.5381 20.9729 70.8412 0.0000 0.0000 0.0000
# 2 20.9729 69.0975 25.0130 0.0000 0.0000 0.0000
# 3 70.8412 25.0130 174.1910 0.0000 0.0000 0.0000
# 4 0.0000 0.0000 0.0000 2.0187 0.0000 0.0000
# 5 0.0000 0.0000 0.0000 0.0000 40.6563 0.0000
# 6 0.0000 0.0000 0.0000 0.0000 0.0000 12.7238
#
#
#
# Elastic Compliance Matrix: (Units=1/GPa)
#
#
# Indices 1 2 3 4 5 6 
#
# 1 0.009013 -0.001486 -0.003452 0.000000 0.000000 0.000000
# 2 -0.001486 0.015511 -0.001623 0.000000 0.000000 0.000000
# 3 -0.003452 -0.001623 0.007378 0.000000 0.000000 0.000000
# 4 0.000000 0.000000 0.000000 0.495371 0.000000 0.000000
# 5 0.000000 0.000000 0.000000 0.000000 0.024596 0.000000
# 6 0.000000 0.000000 0.000000 0.000000 0.000000 0.078593
#
#
# Mechanical properties :
#
#
# Convention : Reuss Voigt Hill
#
# Bulk Modulus (GPa) = 53.24930 68.72008 60.98469
# Shear Modulus (GPa) = 7.69414 28.94639 18.32027
#
# Velocity S-wave (km/s) = 1.99270 3.86508 3.07487
# Velocity P-wave (km/s) = 5.72500 7.44204 6.63926
#
# Compressibility (1/GPa) = 0.01877959
#
# Stress axis : x y z
#
# Youngs Moduli (GPa) = 110.94718 64.47097 135.54122
#
# Poissons Ratio (x) = 0.09581 0.46791
# Poissons Ratio (y) = 0.16488 0.21997
# Poissons Ratio (z) = 0.38301 0.10463
#
# Static dielectric constant tensor:
#      x y z
#    x 1.649410 0.000000 0.000000 
#    y 0.000000 1.713930 0.000000 
#    z 0.000000 0.000000 1.673290 
# 
# From -- ./inp_files/56092.got.cif
#   From: 2010.05.17/outbox.cif.g08.bks.cpg/sg71_29_cif.got.tgz:56092.got - 2010.06.03 16:22:01.
