data_PCOD9519288
_publ_section_title
;
Structure prediction by ZEFSAII (Michael W. Deem and Ramdas Pophale) SiO2 
 PCOD9519288
Probable space group: I M M M
;
_chemical_formula_sum "Si O2"
_cell_formula_units_Z 58
_cell_length_a 25.494814
_cell_length_b 22.020671
_cell_length_c 5.344536
_cell_angle_alpha 90.000000
_cell_angle_beta 90.000000
_cell_angle_gamma 90.000000
_cell_volume 3000.491515
_symmetry_space_group_name_H-M "I M M M"
_symmetry_group_IT_number 71
_symmetry_cell_setting 'orthorhombic'
loop_
_space_group_symop_operation_xyz
x,y,z
-x,-y,z
x,-y,-z
-x,y,-z
-x,-y,-z
x,y,-z
-x,y,z
x,-y,z
1/2+x,1/2+y,1/2+z
1/2-x,1/2-y,1/2+z
1/2+x,1/2-y,1/2-z
1/2-x,1/2+y,1/2-z
1/2-x,1/2-y,1/2-z
1/2+x,1/2+y,1/2-z
1/2-x,1/2+y,1/2+z
1/2+x,1/2-y,1/2+z
loop_
_atom_site_type_symbol
_atom_site_label
_atom_site_fract_x
_atom_site_fract_y
_atom_site_fract_z
Si Si1 0.394762 0.568866 0.500000
Si Si2 0.441496 0.871945 0.000000
Si Si3 0.714020 0.745599 0.500000
Si Si4 0.374863 0.850391 0.500000
Si Si5 0.722858 0.928263 0.500000
Si Si6 0.062233 0.928765 0.500000
Si Si7 0.500000 0.000000 0.000000
Si Si8 0.282709 0.609253 0.500000
O O1 0.417642 0.500000 0.500000
O O2 0.414971 0.599560 0.249639
O O3 0.332664 0.566012 0.500000
O O4 0.409926 0.853188 0.750631
O O5 0.454881 0.944702 0.000000
O O6 0.500000 0.843470 0.000000
O O7 0.750000 0.750000 0.750000
O O8 0.667198 0.794741 0.500000
O O9 0.694006 0.676759 0.500000
O O10 0.337629 0.909576 0.500000
O O11 0.749112 0.901490 0.750613
O O12 0.730533 0.000000 0.500000
O O13 0.000000 0.927745 0.500000
O O14 0.079837 0.000000 0.500000
#
# Coordination Sequence:
#
# PCOD9519288 Si02
#       8
#     8   8   8   8   8   8   2   8
#     4  10  19  31  53  76 109 146 184 234 306 371
#     4  10  24  40  65  95 131 171 215 268 338 395
#     4  12  23  44  64  89 123 168 229 268 309 389
#     4  12  23  41  65  94 126 174 221 272 325 386
#     4  12  25  36  61  93 131 162 205 264 326 395
#     4   9  17  30  49  76 104 138 182 229 278 351
#     4   8  24  42  68  98 144 174 220 282 338 430
#     4  12  23  42  57  86 125 167 208 255 319 380
#
# _framework density 19.330166999999999
#
# number of rings (size 3 to 8) (size 9 to 14) (size 15 to 20)
#    0.414    0.690    2.759    4.552    1.931    3.310 
#    0.000    0.000    0.000    4.966    0.000    0.000 
#    0.000    0.000    0.000    0.000    0.000    0.000 
#
# Total GULP energy -161464.409639 kJ/mol
# GULP energy per Si atom -5567.738263 kJ/mol
# Density = 1.928617 g / cm^3
# Si number density = 19.330167 Si / 1000 Ang^3
#
#
#
# Elastic Constant Matrix: (Units=GPa)
#
#
# Indices 1 2 3 4 5 6 
#
# 1 112.0097 21.5423 92.3346 0.0000 0.0000 0.0000
# 2 21.5423 99.5110 21.0172 0.0000 0.0000 0.0000
# 3 92.3346 21.0172 225.4141 0.0000 0.0000 0.0000
# 4 0.0000 0.0000 0.0000 -6.0391 0.0000 0.0000
# 5 0.0000 0.0000 0.0000 0.0000 38.8680 0.0000
# 6 0.0000 0.0000 0.0000 0.0000 0.0000 36.2309
#
#
#
# Elastic Compliance Matrix: (Units=1/GPa)
#
#
# Indices 1 2 3 4 5 6 
#
# 1 0.013798 -0.001829 -0.005482 0.000000 0.000000 0.000000
# 2 -0.001829 0.010494 -0.000229 0.000000 0.000000 0.000000
# 3 -0.005482 -0.000229 0.006703 0.000000 0.000000 0.000000
# 4 0.000000 0.000000 0.000000 -0.165588 0.000000 0.000000
# 5 0.000000 0.000000 0.000000 0.000000 0.025728 0.000000
# 6 0.000000 0.000000 0.000000 0.000000 0.000000 0.027601
#
#
# Mechanical properties :
#
#
# Convention : Reuss Voigt Hill
#
# Bulk Modulus (GPa) = 62.83394 78.52478 70.67936
# Shear Modulus (GPa) = -82.12883 33.94801 -24.09041
#
# Velocity S-wave (km/s) = -6.52531 4.19527 -3.53407
# Velocity P-wave (km/s) = 4.91901 8.01113 4.47111
#
# Compressibility (1/GPa) = 0.01591497
#
# Stress axis : x y z
#
# Youngs Moduli (GPa) = 72.47273 95.29677 149.18713
#
# Poissons Ratio (x) = 0.17433 0.81777
# Poissons Ratio (y) = 0.13258 0.03417
# Poissons Ratio (z) = 0.39726 0.02183
#
# Static dielectric constant tensor:
#      x y z
#    x 1.651220 0.000000 0.000000 
#    y 0.000000 1.708280 0.000000 
#    z 0.000000 0.000000 1.717370 
# 
# From -- ./inp_files/991.got.cif
#   From: 2010.05.17/outbox.cif.g08.bks.cpg/sg71_1_cif.got.tgz:991.got - 2010.06.03 16:22:01.
