data_PCOD9519808
_publ_section_title
;
Structure prediction by ZEFSAII (Michael W. Deem and Ramdas Pophale) SiO2 
 PCOD9519808
Probable space group: I M M M
;
_chemical_formula_sum "Si O2"
_cell_formula_units_Z 120
_cell_length_a 12.921803
_cell_length_b 22.228646
_cell_length_c 22.178700
_cell_angle_alpha 90.000000
_cell_angle_beta 90.000000
_cell_angle_gamma 90.000000
_cell_volume 6370.480809
_symmetry_space_group_name_H-M "I M M M"
_symmetry_group_IT_number 71
_symmetry_cell_setting 'orthorhombic'
loop_
_space_group_symop_operation_xyz
x,y,z
-x,-y,z
x,-y,-z
-x,y,-z
-x,-y,-z
x,y,-z
-x,y,z
x,-y,z
1/2+x,1/2+y,1/2+z
1/2-x,1/2-y,1/2+z
1/2+x,1/2-y,1/2-z
1/2-x,1/2+y,1/2-z
1/2-x,1/2-y,1/2-z
1/2+x,1/2+y,1/2-z
1/2-x,1/2+y,1/2+z
1/2+x,1/2-y,1/2+z
loop_
_atom_site_type_symbol
_atom_site_label
_atom_site_fract_x
_atom_site_fract_y
_atom_site_fract_z
Si Si1 0.171840 0.315434 0.687804
Si Si2 0.118272 0.933495 0.926857
Si Si3 0.260506 0.314124 0.569947
Si Si4 0.375637 0.500000 0.928506
Si Si5 0.384595 0.690883 0.756813
Si Si6 0.884052 0.566447 0.246601
Si Si7 0.118814 0.691938 0.928846
Si Si8 0.274764 0.391497 0.853594
O O1 0.169873 0.302163 0.617119
O O2 0.292396 0.316142 0.708846
O O3 0.120427 0.260606 0.723404
O O4 0.127068 0.379342 0.706607
O O5 0.190909 0.878177 0.911949
O O6 0.000000 0.923755 0.906416
O O7 0.151826 0.000000 0.906227
O O8 0.115108 0.934683 0.000000
O O9 0.229418 0.315680 0.500000
O O10 0.345049 0.261205 0.576195
O O11 0.500000 0.500000 0.922876
O O12 0.329831 0.440897 0.895407
O O13 0.349763 0.500000 0.000000
O O14 0.500000 0.675905 0.735648
O O15 0.352821 0.649535 0.814090
O O16 0.870857 0.500000 0.273649
O O17 0.799213 0.576163 0.195068
O O18 0.000000 0.569550 0.220363
O O19 0.199611 0.651862 0.892021
O O20 0.000000 0.684925 0.908275
O O21 0.123343 0.676407 0.000000
#
# Coordination Sequence:
#
# PCOD9519808 Si02
#       8
#    16  16  16   8  16  16  16  16
#     4  10  21  37  56  85 112 146 189 241 288 347
#     4   8  14  25  42  66  98 139 182 217 259 321
#     4  10  19  33  52  79 116 151 187 231 286 346
#     4  11  24  40  61  89 123 165 199 230 282 350
#     4  10  21  37  58  83 109 146 192 241 291 334
#     4  10  21  38  62  86 112 148 191 245 302 347
#     4  10  20  33  53  83 120 159 196 239 292 346
#     4  11  20  39  60  85 116 152 194 246 283 347
#
# _framework density 18.836883
#
# number of rings (size 3 to 8) (size 9 to 14) (size 15 to 20)
#    0.000    2.067    2.000    2.400    0.000    3.200 
#    0.000    0.000    0.000    4.000    0.000    0.933 
#    0.000    0.000    0.000    0.000    0.000    0.000 
#
# Total GULP energy -334732.626366 kJ/mol
# GULP energy per Si atom -5578.877106 kJ/mol
# Density = 1.879401 g / cm^3
# Si number density = 18.836883 Si / 1000 Ang^3
#
#
#
# Elastic Constant Matrix: (Units=GPa)
#
#
# Indices 1 2 3 4 5 6 
#
# 1 73.6377 17.7966 16.0697 0.0000 0.0000 0.0000
# 2 17.7966 104.0058 25.2919 0.0000 0.0000 0.0000
# 3 16.0697 25.2919 63.6588 0.0000 0.0000 0.0000
# 4 0.0000 0.0000 0.0000 30.8041 0.0000 0.0000
# 5 0.0000 0.0000 0.0000 0.0000 15.7885 0.0000
# 6 0.0000 0.0000 0.0000 0.0000 0.0000 -0.1995
#
#
#
# Elastic Compliance Matrix: (Units=1/GPa)
#
#
# Indices 1 2 3 4 5 6 
#
# 1 0.014664 -0.001781 -0.002994 0.000000 0.000000 0.000000
# 2 -0.001781 0.010859 -0.003865 0.000000 0.000000 0.000000
# 3 -0.002994 -0.003865 0.018000 0.000000 0.000000 0.000000
# 4 0.000000 0.000000 0.000000 0.032463 0.000000 0.000000
# 5 0.000000 0.000000 0.000000 0.000000 0.063337 0.000000
# 6 0.000000 0.000000 0.000000 0.000000 0.000000 -5.011465
#
#
# Mechanical properties :
#
#
# Convention : Reuss Voigt Hill
#
# Bulk Modulus (GPa) = 38.10490 39.95765 39.03128
# Shear Modulus (GPa) = -1.03175 21.42155 10.19490
#
# Velocity S-wave (km/s) = -0.74089 3.37592 2.32894
# Velocity P-wave (km/s) = 4.42051 6.03774 5.29127
#
# Compressibility (1/GPa) = 0.02624335
#
# Stress axis : x y z
#
# Youngs Moduli (GPa) = 68.19504 92.08553 55.55528
#
# Poissons Ratio (x) = 0.16401 0.16633
# Poissons Ratio (y) = 0.12146 0.21472
# Poissons Ratio (z) = 0.20418 0.35590
#
# Static dielectric constant tensor:
#      x y z
#    x 1.641400 0.000000 0.000000 
#    y 0.000000 1.657200 0.000000 
#    z 0.000000 0.000000 1.654490 
# 
# From -- ./inp_files/52244.got.cif
#   From: 2010.05.17/outbox.cif.g08.bks.cpg/sg71_27_cif.got.tgz:52244.got - 2010.06.03 16:22:01.
