data_PCOD9519034
_publ_section_title
;
Structure prediction by ZEFSAII (Michael W. Deem and Ramdas Pophale) SiO2 
 PCOD9519034
Probable space group: I M M M
;
_chemical_formula_sum "Si O2"
_cell_formula_units_Z 88
_cell_length_a 30.529537
_cell_length_b 19.139146
_cell_length_c 7.798101
_cell_angle_alpha 90.000000
_cell_angle_beta 90.000000
_cell_angle_gamma 90.000000
_cell_volume 4556.502671
_symmetry_space_group_name_H-M "I M M M"
_symmetry_group_IT_number 71
_symmetry_cell_setting 'orthorhombic'
loop_
_space_group_symop_operation_xyz
x,y,z
-x,-y,z
x,-y,-z
-x,y,-z
-x,-y,-z
x,y,-z
-x,y,z
x,-y,z
1/2+x,1/2+y,1/2+z
1/2-x,1/2-y,1/2+z
1/2+x,1/2-y,1/2-z
1/2-x,1/2+y,1/2-z
1/2-x,1/2-y,1/2-z
1/2+x,1/2+y,1/2-z
1/2-x,1/2+y,1/2+z
1/2+x,1/2-y,1/2+z
loop_
_atom_site_type_symbol
_atom_site_label
_atom_site_fract_x
_atom_site_fract_y
_atom_site_fract_z
Si Si1 0.244703 0.078780 0.290654
Si Si2 0.793898 0.708525 0.793785
Si Si3 0.450030 0.152410 0.206410
Si Si4 0.883406 0.225868 0.796161
Si Si5 0.645132 0.578993 0.205615
Si Si6 0.446546 0.000000 0.200541
O O1 0.243886 0.081365 0.500000
O O2 0.282051 0.131175 0.231045
O O3 0.194925 0.096231 0.233358
O O4 0.253454 0.000000 0.238535
O O5 0.750000 0.750000 0.750000
O O6 0.837583 0.743655 0.723043
O O7 0.798105 0.706682 0.000000
O O8 0.500000 0.161863 0.267945
O O9 0.420984 0.219710 0.246229
O O10 0.433181 0.076229 0.272475
O O11 0.451652 0.146118 0.000000
O O12 0.885841 0.144184 0.747733
O O13 0.881006 0.226947 0.000000
O O14 0.634029 0.500000 0.266932
O O15 0.647109 0.575069 0.000000
O O16 0.500000 0.000000 0.206647
O O17 0.433667 0.000000 0.000000
#
# Coordination Sequence:
#
# PCOD9519034 Si02
#       6
#    16  16  16  16  16   8
#     4   8  14  27  47  66  87 124 172 212 242 278
#     4  10  19  31  47  69  98 133 169 204 246 295
#     4   9  18  35  59  80  99 131 174 214 250 296
#     4  11  22  32  47  78 111 138 165 203 264 316
#     4   9  17  31  53  75  93 128 181 221 249 293
#     4   7  12  28  55  81  99 123 167 215 251 285
#
# _framework density 19.313057000000001
#
# number of rings (size 3 to 8) (size 9 to 14) (size 15 to 20)
#    0.000    2.818    1.818    2.727    0.000    1.455 
#    1.636    0.455    0.000    2.727    0.000    3.818 
#    0.000    0.000    0.000    0.000    0.000    0.000 
#
# Total GULP energy -245041.880150 kJ/mol
# GULP energy per Si atom -5569.133640 kJ/mol
# Density = 1.926910 g / cm^3
# Si number density = 19.313057 Si / 1000 Ang^3
#
#
#
# Elastic Constant Matrix: (Units=GPa)
#
#
# Indices 1 2 3 4 5 6 
#
# 1 65.7910 70.1413 4.3438 0.0000 0.0000 0.0000
# 2 70.1413 189.1233 10.4196 0.0000 0.0000 0.0000
# 3 4.3438 10.4196 28.2965 0.0000 0.0000 0.0000
# 4 0.0000 0.0000 0.0000 5.8731 0.0000 0.0000
# 5 0.0000 0.0000 0.0000 0.0000 9.8098 0.0000
# 6 0.0000 0.0000 0.0000 0.0000 0.0000 33.3596
#
#
#
# Elastic Compliance Matrix: (Units=1/GPa)
#
#
# Indices 1 2 3 4 5 6 
#
# 1 0.025145 -0.009302 -0.000435 0.000000 0.000000 0.000000
# 2 -0.009302 0.008838 -0.001826 0.000000 0.000000 0.000000
# 3 -0.000435 -0.001826 0.036079 0.000000 0.000000 0.000000
# 4 0.000000 0.000000 0.000000 0.170268 0.000000 0.000000
# 5 0.000000 0.000000 0.000000 0.000000 0.101939 0.000000
# 6 0.000000 0.000000 0.000000 0.000000 0.000000 0.029976
#
#
# Mechanical properties :
#
#
# Convention : Reuss Voigt Hill
#
# Bulk Modulus (GPa) = 21.30546 50.33559 35.82052
# Shear Modulus (GPa) = 12.16493 23.02890 17.59691
#
# Velocity S-wave (km/s) = 2.51247 3.45686 3.02179
# Velocity P-wave (km/s) = 4.41273 6.48481 5.54639
#
# Compressibility (1/GPa) = 0.04693632
#
# Stress axis : x y z
#
# Youngs Moduli (GPa) = 39.76897 113.14771 27.71666
#
# Poissons Ratio (x) = 1.05248 0.01205
# Poissons Ratio (y) = 0.36992 0.05062
# Poissons Ratio (z) = 0.01729 0.20666
#
# Static dielectric constant tensor:
#      x y z
#    x 1.664520 0.000000 0.000000 
#    y 0.000000 1.738440 0.000000 
#    z 0.000000 0.000000 1.697870 
# 
# From -- ./inp_files/8765.got.cif
#   From: 2010.05.17/outbox.cif.g08.bks.cpg/sg71_5_cif.got.tgz:8765.got - 2010.06.03 16:22:01.
