data_PCOD9519244
_publ_section_title
;
Structure prediction by ZEFSAII (Michael W. Deem and Ramdas Pophale) SiO2 
 PCOD9519244
Probable space group: I M M M
;
_chemical_formula_sum "Si O2"
_cell_formula_units_Z 88
_cell_length_a 9.122586
_cell_length_b 28.067021
_cell_length_c 19.454147
_cell_angle_alpha 90.000000
_cell_angle_beta 90.000000
_cell_angle_gamma 90.000000
_cell_volume 4981.113973
_symmetry_space_group_name_H-M "I M M M"
_symmetry_group_IT_number 71
_symmetry_cell_setting 'orthorhombic'
loop_
_space_group_symop_operation_xyz
x,y,z
-x,-y,z
x,-y,-z
-x,y,-z
-x,-y,-z
x,y,-z
-x,y,z
x,-y,z
1/2+x,1/2+y,1/2+z
1/2-x,1/2-y,1/2+z
1/2+x,1/2-y,1/2-z
1/2-x,1/2+y,1/2-z
1/2-x,1/2-y,1/2-z
1/2+x,1/2+y,1/2-z
1/2-x,1/2+y,1/2+z
1/2+x,1/2-y,1/2+z
loop_
_atom_site_type_symbol
_atom_site_label
_atom_site_fract_x
_atom_site_fract_y
_atom_site_fract_z
Si Si1 0.323092 0.553388 0.284147
Si Si2 0.675198 0.150848 0.823514
Si Si3 0.177829 0.732778 0.577847
Si Si4 0.833694 0.085462 0.634295
Si Si5 0.173813 0.554839 0.000000
Si Si6 0.330933 0.308007 0.808265
O O1 0.500000 0.558993 0.288437
O O2 0.284874 0.500000 0.308397
O O3 0.247593 0.598624 0.319852
O O4 0.284918 0.558082 0.203121
O O5 0.500000 0.146729 0.817035
O O6 0.710393 0.180425 0.892344
O O7 0.736675 0.182522 0.759912
O O8 0.231308 0.740529 0.500000
O O9 0.227153 0.770499 0.635773
O O10 0.000000 0.737495 0.576013
O O11 0.734970 0.077957 0.568776
O O12 0.835926 0.140741 0.654933
O O13 0.000000 0.070248 0.618227
O O14 0.221989 0.500000 0.000000
O O15 0.000000 0.556835 0.000000
O O16 0.500000 0.295258 0.789580
#
# Coordination Sequence:
#
# PCOD9519244 Si02
#       6
#    16  16  16  16   8  16
#     4   9  18  34  55  75  95 125 167 209 247 296
#     4  10  19  31  51  79 107 132 161 207 260 303
#     4   9  18  32  52  76 102 135 174 210 245 294
#     4   9  18  31  49  70  89 118 166 211 240 280
#     4  11  23  33  41  59  93 133 163 197 252 301
#     4   9  18  33  54  74  96 133 174 210 244 290
#
# _framework density 17.666730999999999
#
# number of rings (size 3 to 8) (size 9 to 14) (size 15 to 20)
#    0.000    2.636    0.000    3.000    1.273    4.727 
#    0.000    0.909    0.000    4.909    0.000    3.818 
#    0.000    0.000    0.000    0.000    0.000    0.000 
#
# Total GULP energy -245246.926356 kJ/mol
# GULP energy per Si atom -5573.793781 kJ/mol
# Density = 1.762652 g / cm^3
# Si number density = 17.666731 Si / 1000 Ang^3
#
#
#
# Elastic Constant Matrix: (Units=GPa)
#
#
# Indices 1 2 3 4 5 6 
#
# 1 23.4381 17.7015 14.5449 0.0000 0.0000 0.0000
# 2 17.7015 95.7582 35.6621 0.0000 0.0000 0.0000
# 3 14.5449 35.6621 46.8512 -0.0001 0.0000 0.0000
# 4 0.0000 0.0000 -0.0001 5.0020 0.0000 0.0000
# 5 0.0000 0.0000 0.0000 0.0000 20.1531 0.0000
# 6 0.0000 0.0000 0.0000 0.0000 0.0000 20.2035
#
#
#
# Elastic Compliance Matrix: (Units=1/GPa)
#
#
# Indices 1 2 3 4 5 6 
#
# 1 0.054699 -0.005286 -0.012958 0.000000 0.000000 0.000000
# 2 -0.005286 0.015085 -0.009842 0.000000 0.000000 0.000000
# 3 -0.012958 -0.009842 0.032858 0.000001 0.000000 0.000000
# 4 0.000000 0.000000 0.000001 0.199922 0.000000 0.000000
# 5 0.000000 0.000000 0.000000 0.000000 0.049620 0.000000
# 6 0.000000 0.000000 0.000000 0.000000 0.000000 0.049496
#
#
# Mechanical properties :
#
#
# Convention : Reuss Voigt Hill
#
# Bulk Modulus (GPa) = 21.51836 33.54048 27.52942
# Shear Modulus (GPa) = 10.56320 15.61431 13.08876
#
# Velocity S-wave (km/s) = 2.44788 2.97615 2.72485
# Velocity P-wave (km/s) = 4.49401 5.55304 5.05135
#
# Compressibility (1/GPa) = 0.04647194
#
# Stress axis : x y z
#
# Youngs Moduli (GPa) = 18.28193 66.28980 30.43383
#
# Poissons Ratio (x) = 0.35039 0.39436
# Poissons Ratio (y) = 0.09663 0.29952
# Poissons Ratio (z) = 0.23689 0.65240
#
# Static dielectric constant tensor:
#      x y z
#    x 1.598670 0.000000 0.000000 
#    y 0.000000 1.626830 0.000000 
#    z 0.000000 0.000000 1.543250 
# 
# From -- ./inp_files/10922.got.cif
#   From: 2010.05.17/outbox.cif.g08.bks.cpg/sg71_6_cif.got.tgz:10922.got - 2010.06.03 16:22:01.
