data_PCOD9519047
_publ_section_title
;
Structure prediction by ZEFSAII (Michael W. Deem and Ramdas Pophale) SiO2 
 PCOD9519047
Probable space group: I M M M
;
_chemical_formula_sum "Si O2"
_cell_formula_units_Z 80
_cell_length_a 8.855644
_cell_length_b 24.049281
_cell_length_c 26.794494
_cell_angle_alpha 90.000000
_cell_angle_beta 90.000000
_cell_angle_gamma 90.000000
_cell_volume 5706.473519
_symmetry_space_group_name_H-M "I M M M"
_symmetry_group_IT_number 71
_symmetry_cell_setting 'orthorhombic'
loop_
_space_group_symop_operation_xyz
x,y,z
-x,-y,z
x,-y,-z
-x,y,-z
-x,-y,-z
x,y,-z
-x,y,z
x,-y,z
1/2+x,1/2+y,1/2+z
1/2-x,1/2-y,1/2+z
1/2+x,1/2-y,1/2-z
1/2-x,1/2+y,1/2-z
1/2-x,1/2-y,1/2-z
1/2+x,1/2+y,1/2-z
1/2-x,1/2+y,1/2+z
1/2+x,1/2-y,1/2+z
loop_
_atom_site_type_symbol
_atom_site_label
_atom_site_fract_x
_atom_site_fract_y
_atom_site_fract_z
Si Si1 0.178474 0.000000 0.711319
Si Si2 0.179984 0.612717 0.759374
Si Si3 0.180671 0.500000 0.100884
Si Si4 0.180345 0.311890 0.142216
Si Si5 0.680011 0.387050 0.941673
Si Si6 0.819099 0.718758 0.297930
O O1 0.229827 0.944292 0.739449
O O2 0.262497 0.000000 0.657906
O O3 0.000000 0.000000 0.702956
O O4 0.212965 0.646875 0.810661
O O5 0.214655 0.654190 0.713415
O O6 0.000000 0.601657 0.759429
O O7 0.244183 0.445077 0.074364
O O8 0.000000 0.500000 0.100002
O O9 0.252775 0.339574 0.093799
O O10 0.248437 0.251711 0.155852
O O11 0.000000 0.308451 0.137895
O O12 0.500000 0.391277 0.933977
O O13 0.708603 0.376487 0.000000
O O14 0.750000 0.750000 0.250000
O O15 0.000000 0.725042 0.297912
#
# Coordination Sequence:
#
# PCOD9519047 Si02
#       6
#     8  16   8  16  16  16
#     4  12  22  29  45  66  88 119 151 187 224 259
#     4   9  18  31  45  63  87 115 145 179 221 266
#     4  12  23  35  48  61  84 116 152 191 233 275
#     4  10  19  31  48  66  86 113 144 182 227 271
#     4  11  23  36  49  65  85 112 151 195 233 269
#     4   9  17  29  46  65  86 111 142 180 221 266
#
# _framework density 14.019166
#
# number of rings (size 3 to 8) (size 9 to 14) (size 15 to 20)
#    0.000    1.800    2.000    5.100    0.000    6.800 
#    0.000    0.000    0.000    0.000    0.000    0.000 
#    0.000    0.000    0.000    0.900    0.000   17.400 
#
# Total GULP energy -223148.115152 kJ/mol
# GULP energy per Si atom -5578.702879 kJ/mol
# Density = 1.398726 g / cm^3
# Si number density = 14.019166 Si / 1000 Ang^3
#
#
#
# Elastic Constant Matrix: (Units=GPa)
#
#
# Indices 1 2 3 4 5 6 
#
# 1 81.8194 66.7069 49.0138 0.0000 0.0000 0.0000
# 2 66.7069 101.0492 63.6291 0.0000 0.0000 0.0000
# 3 49.0138 63.6291 72.5827 0.0000 0.0000 0.0000
# 4 0.0000 0.0000 0.0000 4.1787 0.0000 0.0000
# 5 0.0000 0.0000 0.0000 0.0000 19.0563 0.0000
# 6 0.0000 0.0000 0.0000 0.0000 0.0000 25.1188
#
#
#
# Elastic Compliance Matrix: (Units=1/GPa)
#
#
# Indices 1 2 3 4 5 6 
#
# 1 0.027569 -0.014457 -0.005943 0.000000 0.000000 0.000000
# 2 -0.014457 0.029671 -0.016248 0.000000 0.000000 0.000000
# 3 -0.005943 -0.016248 0.032035 0.000000 0.000000 0.000000
# 4 0.000000 0.000000 0.000000 0.239311 0.000000 0.000000
# 5 0.000000 0.000000 0.000000 0.000000 0.052476 0.000000
# 6 0.000000 0.000000 0.000000 0.000000 0.000000 0.039811
#
#
# Mechanical properties :
#
#
# Convention : Reuss Voigt Hill
#
# Bulk Modulus (GPa) = 62.58752 68.23897 65.41325
# Shear Modulus (GPa) = 10.01005 14.74418 12.37711
#
# Velocity S-wave (km/s) = 2.67503 3.24653 2.97454
# Velocity P-wave (km/s) = 7.36765 7.92682 7.65234
#
# Compressibility (1/GPa) = 0.01597763
#
# Stress axis : x y z
#
# Youngs Moduli (GPa) = 36.27229 33.70238 31.21603
#
# Poissons Ratio (x) = 0.48725 0.18552
# Poissons Ratio (y) = 0.52440 0.50721
# Poissons Ratio (z) = 0.21557 0.54761
#
# Static dielectric constant tensor:
#      x y z
#    x 1.463300 0.000000 0.000000 
#    y 0.000000 1.464540 0.000000 
#    z 0.000000 0.000000 1.453950 
# 
# From -- ./inp_files/10719.got.cif
#   From: 2010.05.17/outbox.cif.g08.bks.cpg/sg71_6_cif.got.tgz:10719.got - 2010.06.03 16:22:01.
