data_PCOD9519609
_publ_section_title
;
Structure prediction by ZEFSAII (Michael W. Deem and Ramdas Pophale) SiO2 
 PCOD9519609
Probable space group: I M M M
;
_chemical_formula_sum "Si O2"
_cell_formula_units_Z 104
_cell_length_a 16.971752
_cell_length_b 25.130968
_cell_length_c 13.938055
_cell_angle_alpha 90.000000
_cell_angle_beta 90.000000
_cell_angle_gamma 90.000000
_cell_volume 5944.811222
_symmetry_space_group_name_H-M "I M M M"
_symmetry_group_IT_number 71
_symmetry_cell_setting 'orthorhombic'
loop_
_space_group_symop_operation_xyz
x,y,z
-x,-y,z
x,-y,-z
-x,y,-z
-x,-y,-z
x,y,-z
-x,y,z
x,-y,z
1/2+x,1/2+y,1/2+z
1/2-x,1/2-y,1/2+z
1/2+x,1/2-y,1/2-z
1/2-x,1/2+y,1/2-z
1/2-x,1/2-y,1/2-z
1/2+x,1/2+y,1/2-z
1/2-x,1/2+y,1/2+z
1/2+x,1/2-y,1/2+z
loop_
_atom_site_type_symbol
_atom_site_label
_atom_site_fract_x
_atom_site_fract_y
_atom_site_fract_z
Si Si1 0.153026 0.325564 0.608771
Si Si2 0.159377 0.630584 0.184226
Si Si3 0.326378 0.606725 0.886312
Si Si4 0.000000 0.599990 0.600241
Si Si5 0.594109 0.760070 0.606769
Si Si6 0.409399 0.500000 0.116881
Si Si7 0.500000 0.939189 0.696547
Si Si8 0.094838 0.213542 0.690192
O O1 0.188462 0.328054 0.500000
O O2 0.186435 0.351971 0.707174
O O3 0.073293 0.360075 0.603832
O O4 0.131491 0.264653 0.635284
O O5 0.234202 0.603958 0.136225
O O6 0.138237 0.685238 0.130066
O O7 0.080334 0.594263 0.175753
O O8 0.367899 0.553554 0.849111
O O9 0.365339 0.659600 0.843683
O O10 0.338161 0.609531 0.000000
O O11 0.000000 0.560868 0.688316
O O12 0.000000 0.570578 0.500000
O O13 0.614173 0.740708 0.500000
O O14 0.500000 0.770898 0.609480
O O15 0.610320 0.721896 0.696334
O O16 0.500000 0.500000 0.144885
O O17 0.405770 0.500000 0.000000
O O18 0.500000 0.000000 0.659215
O O19 0.000000 0.213364 0.674784
#
# Coordination Sequence:
#
# PCOD9519609 Si02
#       8
#    16  16  16   8  16   8   8  16
#     4   9  16  28  50  77 110 143 170 208 261 316
#     4  10  20  35  51  76 108 142 179 217 263 310
#     4  11  23  36  54  79 107 135 171 222 265 307
#     4   8  14  27  46  73 105 139 172 210 261 307
#     4   9  17  32  54  77 109 148 177 207 255 314
#     4   9  20  40  60  77 102 138 171 207 268 324
#     4  10  20  33  53  74  98 141 188 224 252 300
#     4  10  19  32  53  82 106 135 178 216 257 313
#
# _framework density 17.494247000000001
#
# number of rings (size 3 to 8) (size 9 to 14) (size 15 to 20)
#    0.000    2.385    1.538    1.385    1.077    4.154 
#    0.000    2.308    0.000    1.846    0.000    1.615 
#    0.000    4.923    0.000    0.000    0.000    0.000 
#
# Total GULP energy -289595.371375 kJ/mol
# GULP energy per Si atom -5569.141757 kJ/mol
# Density = 1.745443 g / cm^3
# Si number density = 17.494247 Si / 1000 Ang^3
#
#
#
# Elastic Constant Matrix: (Units=GPa)
#
#
# Indices 1 2 3 4 5 6 
#
# 1 59.0612 53.9711 12.2926 0.0000 0.0000 0.0001
# 2 53.9711 110.1845 20.8931 0.0000 0.0000 0.0000
# 3 12.2926 20.8931 76.3902 0.0000 0.0000 0.0000
# 4 0.0000 0.0000 0.0000 11.7800 0.0000 0.0000
# 5 0.0000 0.0000 0.0000 0.0000 10.9026 0.0001
# 6 0.0001 0.0000 0.0000 0.0000 0.0001 -44.4243
#
#
#
# Elastic Compliance Matrix: (Units=1/GPa)
#
#
# Indices 1 2 3 4 5 6 
#
# 1 0.030707 -0.014875 -0.000873 0.000000 0.000000 0.000000
# 2 -0.014875 0.016778 -0.002195 0.000000 0.000000 0.000000
# 3 -0.000873 -0.002195 0.013832 0.000000 0.000000 0.000000
# 4 0.000000 0.000000 0.000000 0.084890 0.000000 0.000000
# 5 0.000000 0.000000 0.000000 0.000000 0.091721 0.000000
# 6 0.000000 0.000000 0.000000 0.000000 0.000000 -0.022510
#
#
# Mechanical properties :
#
#
# Convention : Reuss Voigt Hill
#
# Bulk Modulus (GPa) = 39.32415 46.66106 42.99261
# Shear Modulus (GPa) = 19.24706 6.21693 12.73200
#
# Velocity S-wave (km/s) = 3.32052 1.88717 2.70067
# Velocity P-wave (km/s) = 6.10149 5.61059 5.86118
#
# Compressibility (1/GPa) = 0.02542966
#
# Stress axis : x y z
#
# Youngs Moduli (GPa) = 32.56635 59.60100 72.29854
#
# Poissons Ratio (x) = 0.88658 0.06310
# Poissons Ratio (y) = 0.48444 0.15871
# Poissons Ratio (z) = 0.02842 0.13084
#
# Static dielectric constant tensor:
#      x y z
#    x 1.606640 0.000000 0.000000 
#    y 0.000000 1.558450 0.000000 
#    z 0.000000 0.000000 1.649790 
# 
# From -- ./inp_files/36965.got.cif
#   From: 2010.05.17/outbox.cif.g08.bks.cpg/sg71_19_cif.got.tgz:36965.got - 2010.06.03 16:22:01.
