data_PCOD9519980
_publ_section_title
;
Structure prediction by ZEFSAII (Michael W. Deem and Ramdas Pophale) SiO2 
 PCOD9519980
Probable space group: I M M M
;
_chemical_formula_sum "Si O2"
_cell_formula_units_Z 120
_cell_length_a 21.997497
_cell_length_b 15.649938
_cell_length_c 18.821714
_cell_angle_alpha 90.000000
_cell_angle_beta 90.000000
_cell_angle_gamma 90.000000
_cell_volume 6479.553177
_symmetry_space_group_name_H-M "I M M M"
_symmetry_group_IT_number 71
_symmetry_cell_setting 'orthorhombic'
loop_
_space_group_symop_operation_xyz
x,y,z
-x,-y,z
x,-y,-z
-x,y,-z
-x,-y,-z
x,y,-z
-x,y,z
x,-y,z
1/2+x,1/2+y,1/2+z
1/2-x,1/2-y,1/2+z
1/2+x,1/2-y,1/2-z
1/2-x,1/2+y,1/2-z
1/2-x,1/2-y,1/2-z
1/2+x,1/2+y,1/2-z
1/2-x,1/2+y,1/2+z
1/2+x,1/2-y,1/2+z
loop_
_atom_site_type_symbol
_atom_site_label
_atom_site_fract_x
_atom_site_fract_y
_atom_site_fract_z
Si Si1 0.069234 0.500000 0.584548
Si Si2 0.764072 0.734114 0.584341
Si Si3 0.336872 0.592544 0.081484
Si Si4 0.071838 0.400891 0.812247
Si Si5 0.427754 0.662624 0.188833
Si Si6 0.427174 0.596727 0.344664
Si Si7 0.629786 0.152123 0.832555
Si Si8 0.377578 0.242954 0.582591
O O1 0.069093 0.500000 0.500000
O O2 0.101443 0.415553 0.613314
O O3 0.000000 0.500000 0.611582
O O4 0.771339 0.709810 0.500000
O O5 0.791873 0.828846 0.592704
O O6 0.803106 0.674801 0.637668
O O7 0.693147 0.741545 0.601021
O O8 0.307266 0.500000 0.091900
O O9 0.393266 0.602968 0.133550
O O10 0.357951 0.597981 0.000000
O O11 0.076456 0.500000 0.835709
O O12 0.116535 0.387211 0.745016
O O13 0.091662 0.330757 0.870079
O O14 0.000000 0.386207 0.792879
O O15 0.500000 0.655806 0.183910
O O16 0.408448 0.635504 0.268210
O O17 0.406487 0.758387 0.170589
O O18 0.500000 0.592141 0.343478
O O19 0.403712 0.500000 0.354486
O O20 0.408518 0.665896 0.402621
O O21 0.381457 0.219524 0.500000
#
# Coordination Sequence:
#
# PCOD9519980 Si02
#       8
#     8  16  16  16  16  16  16  16
#     4  11  22  34  56  92 127 163 210 256 305 372
#     4   9  21  40  60  84 119 159 202 247 291 351
#     4   9  18  33  53  79 113 154 193 236 285 336
#     4  11  23  40  64  94 127 159 199 256 320 378
#     4  10  19  33  56  83 114 153 194 238 291 351
#     4  10  21  38  60  87 118 151 190 241 304 367
#     4  11  20  37  61  84 118 163 202 244 303 365
#     4  11  24  43  65  88 118 159 204 255 311 371
#
# _framework density 18.519794999999998
#
# number of rings (size 3 to 8) (size 9 to 14) (size 15 to 20)
#    0.000    1.800    2.000    2.400    0.000    4.267 
#    1.200    3.333    0.000    0.000    0.000    0.000 
#    0.000    0.000    0.000    0.000    0.000    0.000 
#
# Total GULP energy -334651.866720 kJ/mol
# GULP energy per Si atom -5577.531112 kJ/mol
# Density = 1.847764 g / cm^3
# Si number density = 18.519795 Si / 1000 Ang^3
#
#
#
# Elastic Constant Matrix: (Units=GPa)
#
#
# Indices 1 2 3 4 5 6 
#
# 1 53.3462 30.5602 30.5705 0.0000 0.0000 0.0000
# 2 30.5602 110.4892 31.9613 0.0000 0.0000 0.0000
# 3 30.5705 31.9613 57.6897 0.0000 0.0000 0.0000
# 4 0.0000 0.0000 0.0000 15.5990 0.0000 0.0000
# 5 0.0000 0.0000 0.0000 0.0000 26.0536 0.0000
# 6 0.0000 0.0000 0.0000 0.0000 0.0000 9.3915
#
#
#
# Elastic Compliance Matrix: (Units=1/GPa)
#
#
# Indices 1 2 3 4 5 6 
#
# 1 0.028453 -0.004178 -0.012763 0.000000 0.000000 0.000000
# 2 -0.004178 0.011391 -0.004097 0.000000 0.000000 0.000000
# 3 -0.012763 -0.004097 0.026367 0.000000 0.000000 0.000000
# 4 0.000000 0.000000 0.000000 0.064107 0.000000 0.000000
# 5 0.000000 0.000000 0.000000 0.000000 0.038382 0.000000
# 6 0.000000 0.000000 0.000000 0.000000 0.000000 0.106479
#
#
# Mechanical properties :
#
#
# Convention : Reuss Voigt Hill
#
# Bulk Modulus (GPa) = 41.43254 45.30101 43.36677
# Shear Modulus (GPa) = 15.37044 18.77105 17.07074
#
# Velocity S-wave (km/s) = 2.88400 3.18711 3.03934
# Velocity P-wave (km/s) = 5.78883 6.16908 5.98198
#
# Compressibility (1/GPa) = 0.02413562
#
# Stress axis : x y z
#
# Youngs Moduli (GPa) = 35.14615 87.78559 37.92593
#
# Poissons Ratio (x) = 0.36675 0.48404
# Poissons Ratio (y) = 0.14683 0.15539
# Poissons Ratio (z) = 0.44856 0.35967
#
# Static dielectric constant tensor:
#      x y z
#    x 1.619940 0.000000 0.000000 
#    y 0.000000 1.646040 0.000000 
#    z 0.000000 0.000000 1.645210 
# 
# From -- ./inp_files/55144.got.cif
#   From: 2010.05.17/outbox.cif.g08.bks.cpg/sg71_28_cif.got.tgz:55144.got - 2010.06.03 16:22:01.
