data_PCOD9519986
_publ_section_title
;
Structure prediction by ZEFSAII (Michael W. Deem and Ramdas Pophale) SiO2 
 PCOD9519986
Probable space group: I M M M
;
_chemical_formula_sum "Si O2"
_cell_formula_units_Z 104
_cell_length_a 27.236947
_cell_length_b 23.954168
_cell_length_c 8.440734
_cell_angle_alpha 90.000000
_cell_angle_beta 90.000000
_cell_angle_gamma 90.000000
_cell_volume 5507.059022
_symmetry_space_group_name_H-M "I M M M"
_symmetry_group_IT_number 71
_symmetry_cell_setting 'orthorhombic'
loop_
_space_group_symop_operation_xyz
x,y,z
-x,-y,z
x,-y,-z
-x,y,-z
-x,-y,-z
x,y,-z
-x,y,z
x,-y,z
1/2+x,1/2+y,1/2+z
1/2-x,1/2-y,1/2+z
1/2+x,1/2-y,1/2-z
1/2-x,1/2+y,1/2-z
1/2-x,1/2-y,1/2-z
1/2+x,1/2+y,1/2-z
1/2-x,1/2+y,1/2+z
1/2+x,1/2-y,1/2+z
loop_
_atom_site_type_symbol
_atom_site_label
_atom_site_fract_x
_atom_site_fract_y
_atom_site_fract_z
Si Si1 0.209780 0.436989 0.811201
Si Si2 0.056983 0.739742 0.308755
Si Si3 0.590996 0.360227 0.692172
Si Si4 0.179532 0.063048 0.191292
Si Si5 0.056444 0.566527 0.822658
Si Si6 0.500000 0.437079 0.307280
Si Si7 0.628646 0.856758 0.820794
O O1 0.193511 0.500000 0.756315
O O2 0.265234 0.429060 0.751250
O O3 0.175472 0.385969 0.758112
O O4 0.209556 0.438468 0.000000
O O5 0.055559 0.734354 0.500000
O O6 0.076701 0.800559 0.262162
O O7 0.097410 0.694823 0.249243
O O8 0.000000 0.732137 0.253116
O O9 0.591290 0.355495 0.500000
O O10 0.642053 0.388774 0.743312
O O11 0.548119 0.403116 0.738717
O O12 0.163466 0.000000 0.239134
O O13 0.179943 0.063757 0.000000
O O14 0.058081 0.500000 0.813973
O O15 0.088467 0.594284 0.689464
O O16 0.000000 0.584086 0.810754
O O17 0.074837 0.582058 0.000000
O O18 0.500000 0.500000 0.247707
O O19 0.500000 0.439227 0.500000
O O20 0.642030 0.842131 0.000000
#
# Coordination Sequence:
#
# PCOD9519986 Si02
#       7
#    16  16  16  16  16   8  16
#     4  10  21  37  57  82 111 142 178 224 278 332
#     4  10  22  39  55  74 108 150 186 226 274 320
#     4  10  19  33  56  85 112 143 183 221 263 320
#     4   9  18  34  57  85 115 144 175 217 270 325
#     4   9  18  32  49  72 103 135 168 215 276 334
#     4   9  16  28  51  85 119 143 170 215 266 317
#     4  11  22  35  53  76 102 139 187 231 274 324
#
# _framework density 18.884853
#
# number of rings (size 3 to 8) (size 9 to 14) (size 15 to 20)
#    0.000    2.231    0.769    2.769    0.000    7.692 
#    0.000    1.538    0.000    1.846    0.000    0.000 
#    0.000    0.000    0.000    0.000    0.000    0.000 
#
# Total GULP energy -289882.954982 kJ/mol
# GULP energy per Si atom -5574.672211 kJ/mol
# Density = 1.884187 g / cm^3
# Si number density = 18.884853 Si / 1000 Ang^3
#
#
#
# Elastic Constant Matrix: (Units=GPa)
#
#
# Indices 1 2 3 4 5 6 
#
# 1 113.8919 79.7460 16.0777 0.0000 0.0000 0.0000
# 2 79.7460 118.7330 14.4027 0.0000 0.0000 0.0000
# 3 16.0777 14.4027 9.7634 0.0000 0.0000 0.0000
# 4 0.0000 0.0000 0.0000 21.3098 0.0000 0.0000
# 5 0.0000 0.0000 0.0000 0.0000 19.6485 0.0000
# 6 0.0000 0.0000 0.0000 0.0000 0.0000 31.3595
#
#
#
# Elastic Compliance Matrix: (Units=1/GPa)
#
#
# Indices 1 2 3 4 5 6 
#
# 1 0.018111 -0.010409 -0.014469 0.000000 0.000000 0.000000
# 2 -0.010409 0.016240 -0.006816 0.000000 0.000000 0.000000
# 3 -0.014469 -0.006816 0.136305 0.000000 0.000000 0.000000
# 4 0.000000 0.000000 0.000000 0.046927 0.000000 0.000000
# 5 0.000000 0.000000 0.000000 0.000000 0.050895 0.000000
# 6 0.000000 0.000000 0.000000 0.000000 0.000000 0.031888
#
#
# Mechanical properties :
#
#
# Convention : Reuss Voigt Hill
#
# Bulk Modulus (GPa) = 9.32246 51.42678 30.37462
# Shear Modulus (GPa) = 12.51532 23.27435 17.89483
#
# Velocity S-wave (km/s) = 2.57712 3.51441 3.08161
# Velocity P-wave (km/s) = 3.71519 6.61506 5.36477
#
# Compressibility (1/GPa) = 0.10726787
#
# Stress axis : x y z
#
# Youngs Moduli (GPa) = 55.21477 61.57561 7.33648
#
# Poissons Ratio (x) = 0.64094 0.10615
# Poissons Ratio (y) = 0.57473 0.05001
# Poissons Ratio (z) = 0.79891 0.41971
#
# Static dielectric constant tensor:
#      x y z
#    x 1.651230 0.000000 0.000000 
#    y 0.000000 1.658110 0.000000 
#    z 0.000000 0.000000 1.690330 
# 
# From -- ./inp_files/15300.got.cif
#   From: 2010.05.17/outbox.cif.g08.bks.cpg/sg71_8_cif.got.tgz:15300.got - 2010.06.03 16:22:01.
