data_PCOD9519881
_publ_section_title
;
Structure prediction by ZEFSAII (Michael W. Deem and Ramdas Pophale) SiO2 
 PCOD9519881
Probable space group: I M M M
;
_chemical_formula_sum "Si O2"
_cell_formula_units_Z 112
_cell_length_a 18.015305
_cell_length_b 13.977629
_cell_length_c 24.097653
_cell_angle_alpha 90.000000
_cell_angle_beta 90.000000
_cell_angle_gamma 90.000000
_cell_volume 6068.060115
_symmetry_space_group_name_H-M "I M M M"
_symmetry_group_IT_number 71
_symmetry_cell_setting 'orthorhombic'
loop_
_space_group_symop_operation_xyz
x,y,z
-x,-y,z
x,-y,-z
-x,y,-z
-x,-y,-z
x,y,-z
-x,y,z
x,-y,z
1/2+x,1/2+y,1/2+z
1/2-x,1/2-y,1/2+z
1/2+x,1/2-y,1/2-z
1/2-x,1/2+y,1/2-z
1/2-x,1/2-y,1/2-z
1/2+x,1/2+y,1/2-z
1/2-x,1/2+y,1/2+z
1/2+x,1/2-y,1/2+z
loop_
_atom_site_type_symbol
_atom_site_label
_atom_site_fract_x
_atom_site_fract_y
_atom_site_fract_z
Si Si1 0.667789 0.108725 0.844092
Si Si2 0.201246 0.608666 0.933155
Si Si3 0.412170 0.267311 0.565782
Si Si4 0.652277 0.390870 0.659808
Si Si5 0.337210 0.265432 0.238695
Si Si6 0.917162 0.112111 0.349318
Si Si7 0.348277 0.266507 0.065575
O O1 0.757900 0.108315 0.841122
O O2 0.637849 0.166617 0.790357
O O3 0.649008 0.169642 0.898870
O O4 0.641941 0.000000 0.846057
O O5 0.206631 0.500000 0.910901
O O6 0.129328 0.669602 0.916216
O O7 0.271627 0.676347 0.921458
O O8 0.198755 0.600353 0.000000
O O9 0.397442 0.280820 0.500000
O O10 0.500000 0.260785 0.573737
O O11 0.378712 0.353638 0.601519
O O12 0.628143 0.500000 0.672477
O O13 0.629489 0.312141 0.705855
O O14 0.250000 0.250000 0.250000
O O15 0.356119 0.342902 0.191322
O O16 0.909549 0.163943 0.408317
O O17 0.000000 0.129552 0.326464
O O18 0.905989 0.000000 0.355355
O O19 0.353550 0.252025 0.000000
#
# Coordination Sequence:
#
# PCOD9519881 Si02
#       7
#    16  16  16  16  16  16  16
#     4   9  18  33  55  82 111 142 180 231 285 330
#     4   9  17  31  51  73 100 141 192 238 278 326
#     4  10  21  35  50  75 114 152 186 232 289 345
#     4  10  19  33  54  78 107 143 185 229 280 341
#     4   9  19  36  57  82 111 143 188 238 281 330
#     4  10  21  36  56  85 119 152 185 228 288 347
#     4  10  19  33  54  82 115 149 190 233 276 333
#
# _framework density 18.457298999999999
#
# number of rings (size 3 to 8) (size 9 to 14) (size 15 to 20)
#    0.000    2.429    1.429    0.857    0.000    3.429 
#    0.000    5.000    0.000    6.857    0.000    4.000 
#    0.000    0.000    0.000    0.000    0.000    0.000 
#
# Total GULP energy -311905.417641 kJ/mol
# GULP energy per Si atom -5569.739601 kJ/mol
# Density = 1.841529 g / cm^3
# Si number density = 18.457299 Si / 1000 Ang^3
#
#
#
# Elastic Constant Matrix: (Units=GPa)
#
#
# Indices 1 2 3 4 5 6 
#
# 1 38.4274 36.0310 22.6616 0.0000 0.0000 0.0000
# 2 36.0310 154.5505 54.2759 0.0000 0.0000 0.0000
# 3 22.6616 54.2759 78.0896 0.0000 0.0000 0.0000
# 4 0.0000 0.0000 0.0000 20.8630 0.0000 0.0000
# 5 0.0000 0.0000 0.0000 0.0000 18.6688 0.0000
# 6 0.0000 0.0000 0.0000 0.0000 0.0000 17.7647
#
#
#
# Elastic Compliance Matrix: (Units=1/GPa)
#
#
# Indices 1 2 3 4 5 6 
#
# 1 0.035298 -0.006127 -0.005985 0.000000 0.000000 0.000000
# 2 -0.006127 0.009623 -0.004911 0.000000 0.000000 0.000000
# 3 -0.005985 -0.004911 0.017956 0.000000 0.000000 0.000000
# 4 0.000000 0.000000 0.000000 0.047932 0.000000 0.000000
# 5 0.000000 0.000000 0.000000 0.000000 0.053565 0.000000
# 6 0.000000 0.000000 0.000000 0.000000 0.000000 0.056291
#
#
# Mechanical properties :
#
#
# Convention : Reuss Voigt Hill
#
# Bulk Modulus (GPa) = 34.68415 55.22273 44.95344
# Shear Modulus (GPa) = 18.91644 21.99924 20.45784
#
# Velocity S-wave (km/s) = 3.20484 3.45613 3.33286
# Velocity P-wave (km/s) = 5.70325 6.77574 6.26249
#
# Compressibility (1/GPa) = 0.02883161
#
# Stress axis : x y z
#
# Youngs Moduli (GPa) = 28.33058 103.91350 55.69299
#
# Poissons Ratio (x) = 0.63672 0.33330
# Poissons Ratio (y) = 0.17359 0.27348
# Poissons Ratio (z) = 0.16955 0.51027
#
# Static dielectric constant tensor:
#      x y z
#    x 1.644770 0.000000 0.000000 
#    y 0.000000 1.639890 0.000000 
#    z 0.000000 0.000000 1.383120 
# 
# From -- ./inp_files/61301.got.cif
#   From: 2010.05.17/outbox.cif.g08.bks.cpg/sg71_31_cif.got.tgz:61301.got - 2010.06.03 16:22:01.
