data_PCOD9519275
_publ_section_title
;
Structure prediction by ZEFSAII (Michael W. Deem and Ramdas Pophale) SiO2 
 PCOD9519275
Probable space group: I M M M
;
_chemical_formula_sum "Si O2"
_cell_formula_units_Z 104
_cell_length_a 24.602414
_cell_length_b 7.993898
_cell_length_c 26.936014
_cell_angle_alpha 90.000000
_cell_angle_beta 90.000000
_cell_angle_gamma 90.000000
_cell_volume 5297.484003
_symmetry_space_group_name_H-M "I M M M"
_symmetry_group_IT_number 71
_symmetry_cell_setting 'orthorhombic'
loop_
_space_group_symop_operation_xyz
x,y,z
-x,-y,z
x,-y,-z
-x,y,-z
-x,-y,-z
x,y,-z
-x,y,z
x,-y,z
1/2+x,1/2+y,1/2+z
1/2-x,1/2-y,1/2+z
1/2+x,1/2-y,1/2-z
1/2-x,1/2+y,1/2-z
1/2-x,1/2-y,1/2-z
1/2+x,1/2+y,1/2-z
1/2-x,1/2+y,1/2+z
1/2+x,1/2-y,1/2+z
loop_
_atom_site_type_symbol
_atom_site_label
_atom_site_fract_x
_atom_site_fract_y
_atom_site_fract_z
Si Si1 0.938147 0.696704 0.293958
Si Si2 0.747381 0.701236 0.057313
Si Si3 0.061062 0.802343 0.182174
Si Si4 0.634510 0.197605 0.407719
Si Si5 0.062291 0.201365 0.000000
Si Si6 0.557994 0.796592 0.056400
Si Si7 0.150803 0.297857 0.628459
O O1 0.941377 0.500000 0.307234
O O2 0.930151 0.715633 0.235125
O O3 0.883635 0.759352 0.322612
O O4 0.000000 0.765451 0.304360
O O5 0.749020 0.500000 0.053791
O O6 0.807117 0.763915 0.073695
O O7 0.707293 0.742845 0.103336
O O8 0.733788 0.760646 0.000000
O O9 0.107501 0.766808 0.142246
O O10 0.000000 0.753785 0.163858
O O11 0.060094 0.000000 0.191612
O O12 0.592657 0.233059 0.451725
O O13 0.640792 0.000000 0.400665
O O14 0.000000 0.254565 0.000000
O O15 0.064300 0.000000 0.000000
O O16 0.500000 0.745677 0.077947
O O17 0.608545 0.739528 0.086659
O O18 0.559015 0.000000 0.056357
O O19 0.560719 0.740861 0.000000
O O20 0.154432 0.500000 0.631539
#
# Coordination Sequence:
#
# PCOD9519275 Si02
#       7
#    16  16  16  16   8  16  16
#     4   9  18  34  56  83 115 148 184 230 282 336
#     4  10  22  40  56  75 109 150 189 230 278 329
#     4  10  21  37  58  86 117 145 178 225 282 339
#     4  11  22  39  60  82 111 150 192 227 270 330
#     4  11  23  37  57  89 123 147 174 221 278 333
#     4   8  13  22  39  67 102 133 164 214 276 328
#     4  10  19  31  52  81 106 137 188 236 275 326
#
# _framework density 19.631961
#
# number of rings (size 3 to 8) (size 9 to 14) (size 15 to 20)
#    0.000    2.231    0.769    3.000    0.000    8.000 
#    0.000    0.769    0.000    1.385    0.000    5.385 
#    0.000    0.000    0.000    0.000    0.000    0.000 
#
# Total GULP energy -289562.499331 kJ/mol
# GULP energy per Si atom -5568.509603 kJ/mol
# Density = 1.958728 g / cm^3
# Si number density = 19.631961 Si / 1000 Ang^3
#
#
#
# Elastic Constant Matrix: (Units=GPa)
#
#
# Indices 1 2 3 4 5 6 
#
# 1 130.3082 3.9609 51.3562 0.0000 0.0000 0.0000
# 2 3.9609 19.9246 1.5192 0.0000 0.0000 0.0000
# 3 51.3562 1.5192 102.9678 0.0000 0.0000 0.0000
# 4 0.0000 0.0000 0.0000 15.7838 0.0000 0.0000
# 5 0.0000 0.0000 0.0000 0.0000 27.9706 0.0000
# 6 0.0000 0.0000 0.0000 0.0000 0.0000 246.7361
#
#
#
# Elastic Compliance Matrix: (Units=1/GPa)
#
#
# Indices 1 2 3 4 5 6 
#
# 1 0.009599 -0.001545 -0.004765 0.000000 0.000000 0.000000
# 2 -0.001545 0.050494 0.000026 0.000000 0.000000 0.000000
# 3 -0.004765 0.000026 0.012088 0.000000 0.000000 0.000000
# 4 0.000000 0.000000 0.000000 0.063356 0.000000 0.000000
# 5 0.000000 0.000000 0.000000 0.000000 0.035752 0.000000
# 6 0.000000 0.000000 0.000000 0.000000 0.000000 0.004053
#
#
# Mechanical properties :
#
#
# Convention : Reuss Voigt Hill
#
# Bulk Modulus (GPa) = 16.77490 40.76370 28.76930
# Shear Modulus (GPa) = 24.06378 71.18905 47.62642
#
# Velocity S-wave (km/s) = 3.50486 6.02831 4.93075
# Velocity P-wave (km/s) = 4.99420 8.32244 6.86313
#
# Compressibility (1/GPa) = 0.05961287
#
# Stress axis : x y z
#
# Youngs Moduli (GPa) = 104.17823 19.80419 82.72751
#
# Poissons Ratio (x) = 0.03060 0.39418
# Poissons Ratio (y) = 0.16095 -0.00211
# Poissons Ratio (z) = 0.49639 -0.00051
#
# Static dielectric constant tensor:
#      x y z
#    x 1.726110 0.000000 0.000000 
#    y 0.000000 1.717710 0.000000 
#    z 0.000000 0.000000 1.691960 
# 
# From -- ./inp_files/66799.got.cif
#   From: 2010.05.17/outbox.cif.g08.bks.cpg/sg71_34_cif.got.tgz:66799.got - 2010.06.03 16:22:01.
