data_PCOD9519612
_publ_section_title
;
Structure prediction by ZEFSAII (Michael W. Deem and Ramdas Pophale) SiO2 
 PCOD9519612
Probable space group: I M M M
;
_chemical_formula_sum "Si O2"
_cell_formula_units_Z 112
_cell_length_a 26.199421
_cell_length_b 14.377920
_cell_length_c 14.938421
_cell_angle_alpha 90.000000
_cell_angle_beta 90.000000
_cell_angle_gamma 90.000000
_cell_volume 5627.201298
_symmetry_space_group_name_H-M "I M M M"
_symmetry_group_IT_number 71
_symmetry_cell_setting 'orthorhombic'
loop_
_space_group_symop_operation_xyz
x,y,z
-x,-y,z
x,-y,-z
-x,y,-z
-x,-y,-z
x,y,-z
-x,y,z
x,-y,z
1/2+x,1/2+y,1/2+z
1/2-x,1/2-y,1/2+z
1/2+x,1/2-y,1/2-z
1/2-x,1/2+y,1/2-z
1/2-x,1/2-y,1/2-z
1/2+x,1/2+y,1/2-z
1/2-x,1/2+y,1/2+z
1/2+x,1/2-y,1/2+z
loop_
_atom_site_type_symbol
_atom_site_label
_atom_site_fract_x
_atom_site_fract_y
_atom_site_fract_z
Si Si1 0.594761 0.890256 0.606406
Si Si2 0.720030 0.604983 0.863746
Si Si3 0.743620 0.894763 0.839035
Si Si4 0.811285 0.731413 0.096371
Si Si5 0.061904 0.105742 0.896760
Si Si6 0.645822 0.230689 0.892298
Si Si7 0.941898 0.738994 0.753781
O O1 0.583198 0.874674 0.500000
O O2 0.645690 0.834648 0.636349
O O3 0.555841 0.847400 0.676886
O O4 0.601881 0.000000 0.616445
O O5 0.712312 0.500000 0.895262
O O6 0.745899 0.600013 0.766185
O O7 0.762312 0.665807 0.912457
O O8 0.669616 0.667710 0.869687
O O9 0.789986 0.827001 0.866040
O O10 0.690763 0.842826 0.864741
O O11 0.744906 0.000000 0.875675
O O12 0.832059 0.755748 0.000000
O O13 0.077670 0.176649 0.818772
O O14 0.000000 0.105501 0.894132
O O15 0.079761 0.000000 0.880362
O O16 0.074754 0.130491 0.000000
O O17 0.596130 0.220409 0.829123
O O18 0.637088 0.223567 0.000000
O O19 0.000000 0.760025 0.723902
#
# Coordination Sequence:
#
# PCOD9519612 Si02
#       7
#    16  16  16  16  16  16  16
#     4  10  21  37  59  89 123 154 185 230 294 364
#     4  10  19  33  57  85 112 143 182 232 288 347
#     4  10  20  36  60  86 113 146 184 232 290 348
#     4  10  19  32  53  82 116 148 175 208 264 345
#     4   8  15  31  57  86 111 136 173 229 301 372
#     4  11  24  39  56  82 117 159 206 249 289 337
#     4  11  23  39  59  81 110 153 206 258 300 340
#
# _framework density 19.903321999999999
#
# number of rings (size 3 to 8) (size 9 to 14) (size 15 to 20)
#    0.000    2.000    0.000    6.429    0.000    6.571 
#    0.000    1.429    0.000    0.857    0.000    5.000 
#    0.000    0.000    0.000    0.000    0.000    0.000 
#
# Total GULP energy -311955.228041 kJ/mol
# GULP energy per Si atom -5570.629072 kJ/mol
# Density = 1.985802 g / cm^3
# Si number density = 19.903322 Si / 1000 Ang^3
#
#
#
# Elastic Constant Matrix: (Units=GPa)
#
#
# Indices 1 2 3 4 5 6 
#
# 1 91.1870 40.8625 46.3118 0.0000 0.0000 0.0000
# 2 40.8625 151.9307 59.6165 0.0000 0.0000 0.0000
# 3 46.3118 59.6165 123.1490 0.0000 0.0000 0.0000
# 4 0.0000 0.0000 0.0000 16.8600 0.0000 0.0000
# 5 0.0000 0.0000 0.0000 0.0000 60.4459 0.0000
# 6 0.0000 0.0000 0.0000 0.0000 0.0000 13.1812
#
#
#
# Elastic Compliance Matrix: (Units=1/GPa)
#
#
# Indices 1 2 3 4 5 6 
#
# 1 0.014083 -0.002110 -0.004274 0.000000 0.000000 0.000000
# 2 -0.002110 0.008442 -0.003293 0.000000 0.000000 0.000000
# 3 -0.004274 -0.003293 0.011322 0.000000 0.000000 0.000000
# 4 0.000000 0.000000 0.000000 0.059312 0.000000 0.000000
# 5 0.000000 0.000000 0.000000 0.000000 0.016544 0.000000
# 6 0.000000 0.000000 0.000000 0.000000 0.000000 0.075866
#
#
# Mechanical properties :
#
#
# Convention : Reuss Voigt Hill
#
# Bulk Modulus (GPa) = 69.00896 73.31649 71.16272
# Shear Modulus (GPa) = 23.83744 32.72915 28.28329
#
# Velocity S-wave (km/s) = 3.46448 4.05953 3.77375
# Velocity P-wave (km/s) = 7.12396 7.67394 7.40406
#
# Compressibility (1/GPa) = 0.01449087
#
# Stress axis : x y z
#
# Youngs Moduli (GPa) = 71.00706 118.45959 88.32480
#
# Poissons Ratio (x) = 0.25000 0.37754
# Poissons Ratio (y) = 0.14986 0.29085
# Poissons Ratio (z) = 0.30352 0.39008
#
# Static dielectric constant tensor:
#      x y z
#    x 1.735360 0.000000 0.000000 
#    y 0.000000 1.742110 0.000000 
#    z 0.000000 0.000000 1.829760 
# 
# From -- ./inp_files/40364.got.cif
#   From: 2010.05.17/outbox.cif.g08.bks.cpg/sg71_21_cif.got.tgz:40364.got - 2010.06.03 16:22:01.
