data_PCOD9519586
_publ_section_title
;
Structure prediction by ZEFSAII (Michael W. Deem and Ramdas Pophale) SiO2 
 PCOD9519586
Probable space group: I M M M
;
_chemical_formula_sum "Si O2"
_cell_formula_units_Z 112
_cell_length_a 25.969010
_cell_length_b 14.918738
_cell_length_c 14.960704
_cell_angle_alpha 90.000000
_cell_angle_beta 90.000000
_cell_angle_gamma 90.000000
_cell_volume 5796.148597
_symmetry_space_group_name_H-M "I M M M"
_symmetry_group_IT_number 71
_symmetry_cell_setting 'orthorhombic'
loop_
_space_group_symop_operation_xyz
x,y,z
-x,-y,z
x,-y,-z
-x,y,-z
-x,-y,-z
x,y,-z
-x,y,z
x,-y,z
1/2+x,1/2+y,1/2+z
1/2-x,1/2-y,1/2+z
1/2+x,1/2-y,1/2-z
1/2-x,1/2+y,1/2-z
1/2-x,1/2-y,1/2-z
1/2+x,1/2+y,1/2-z
1/2-x,1/2+y,1/2+z
1/2+x,1/2-y,1/2+z
loop_
_atom_site_type_symbol
_atom_site_label
_atom_site_fract_x
_atom_site_fract_y
_atom_site_fract_z
Si Si1 0.647929 0.641862 0.900199
Si Si2 0.059786 0.299488 0.217422
Si Si3 0.391275 0.845159 0.098799
Si Si4 0.250301 0.608901 0.788236
Si Si5 0.647780 0.107819 0.395148
Si Si6 0.059560 0.902952 0.728411
Si Si7 0.222996 0.397189 0.598196
O O1 0.630831 0.744659 0.905913
O O2 0.698254 0.634289 0.839785
O O3 0.599694 0.596146 0.852361
O O4 0.658224 0.608186 0.000000
O O5 0.071885 0.342399 0.315550
O O6 0.098956 0.344346 0.148904
O O7 0.069223 0.191469 0.221758
O O8 0.000000 0.313699 0.195491
O O9 0.338747 0.900148 0.113220
O O10 0.413091 0.867855 0.000000
O O11 0.249329 0.500000 0.783710
O O12 0.199207 0.635657 0.841984
O O13 0.247564 0.644745 0.686607
O O14 0.652697 0.128177 0.500000
O O15 0.642410 0.000000 0.385891
O O16 0.000000 0.897246 0.697949
O O17 0.065088 0.000000 0.776435
O O18 0.231808 0.355024 0.500000
O O19 0.241171 0.500000 0.593238
#
# Coordination Sequence:
#
# PCOD9519586 Si02
#       7
#    16  16  16  16  16  16  16
#     4  10  20  32  51  81 112 144 183 225 270 323
#     4  10  20  35  55  79 107 143 186 228 270 323
#     4   9  18  33  51  76 106 136 175 225 276 324
#     4  10  19  32  53  79 108 142 179 221 268 321
#     4  10  21  37  56  81 113 147 181 220 273 330
#     4   9  19  36  56  78 107 144 184 226 274 325
#     4   9  17  31  51  72 100 141 182 217 262 324
#
# _framework density 19.323176
#
# number of rings (size 3 to 8) (size 9 to 14) (size 15 to 20)
#    0.000    2.429    1.429    0.857    0.000    3.429 
#    0.000    4.286    0.000    0.429    0.000    5.000 
#    0.000    0.000    0.000    0.000    0.000    0.143 
#
# Total GULP energy -312131.061718 kJ/mol
# GULP energy per Si atom -5573.768959 kJ/mol
# Density = 1.927920 g / cm^3
# Si number density = 19.323176 Si / 1000 Ang^3
#
#
#
# Elastic Constant Matrix: (Units=GPa)
#
#
# Indices 1 2 3 4 5 6 
#
# 1 93.3470 20.4204 64.6028 0.0000 0.0000 0.0000
# 2 20.4204 32.6865 31.6523 0.0000 0.0000 0.0000
# 3 64.6028 31.6523 121.0111 0.0000 0.0000 0.0000
# 4 0.0000 0.0000 0.0000 11.7020 0.0000 0.0000
# 5 0.0000 0.0000 0.0000 0.0000 2.2339 0.0000
# 6 0.0000 0.0000 0.0000 0.0000 0.0000 -35.4955
#
#
#
# Elastic Compliance Matrix: (Units=1/GPa)
#
#
# Indices 1 2 3 4 5 6 
#
# 1 0.017138 -0.002473 -0.008502 0.000000 0.000000 0.000000
# 2 -0.002473 0.041328 -0.009490 0.000000 0.000000 0.000000
# 3 -0.008502 -0.009490 0.015285 0.000000 0.000000 0.000000
# 4 0.000000 0.000000 0.000000 0.085456 0.000000 0.000000
# 5 0.000000 0.000000 0.000000 0.000000 0.447653 0.000000
# 6 0.000000 0.000000 0.000000 0.000000 0.000000 -0.028173
#
#
# Mechanical properties :
#
#
# Convention : Reuss Voigt Hill
#
# Bulk Modulus (GPa) = 30.46875 53.37729 41.92302
# Shear Modulus (GPa) = 7.92949 4.37935 6.15442
#
# Velocity S-wave (km/s) = 2.02794 1.50708 1.78659
# Velocity P-wave (km/s) = 4.61363 5.54182 5.09889
#
# Compressibility (1/GPa) = 0.03282051
#
# Stress axis : x y z
#
# Youngs Moduli (GPa) = 58.34986 24.19654 65.42411
#
# Poissons Ratio (x) = 0.05985 0.55626
# Poissons Ratio (y) = 0.14432 0.62085
# Poissons Ratio (z) = 0.49611 0.22961
#
# Static dielectric constant tensor:
#      x y z
#    x 1.633010 0.000000 0.000000 
#    y 0.000000 1.761270 0.000000 
#    z 0.000000 0.000000 1.696380 
# 
# From -- ./inp_files/34900.got.cif
#   From: 2010.05.17/outbox.cif.g08.bks.cpg/sg71_18_cif.got.tgz:34900.got - 2010.06.03 16:22:01.
