data_PCOD9519251
_publ_section_title
;
Structure prediction by ZEFSAII (Michael W. Deem and Ramdas Pophale) SiO2 
 PCOD9519251
Probable space group: I M M M
;
_chemical_formula_sum "Si O2"
_cell_formula_units_Z 104
_cell_length_a 27.649499
_cell_length_b 8.141200
_cell_length_c 22.715542
_cell_angle_alpha 90.000000
_cell_angle_beta 90.000000
_cell_angle_gamma 90.000000
_cell_volume 5113.270804
_symmetry_space_group_name_H-M "I M M M"
_symmetry_group_IT_number 71
_symmetry_cell_setting 'orthorhombic'
loop_
_space_group_symop_operation_xyz
x,y,z
-x,-y,z
x,-y,-z
-x,y,-z
-x,-y,-z
x,y,-z
-x,y,z
x,-y,z
1/2+x,1/2+y,1/2+z
1/2-x,1/2-y,1/2+z
1/2+x,1/2-y,1/2-z
1/2-x,1/2+y,1/2-z
1/2-x,1/2-y,1/2-z
1/2+x,1/2+y,1/2-z
1/2-x,1/2+y,1/2+z
1/2+x,1/2-y,1/2+z
loop_
_atom_site_type_symbol
_atom_site_label
_atom_site_fract_x
_atom_site_fract_y
_atom_site_fract_z
Si Si1 0.444766 0.698022 0.716788
Si Si2 0.881480 0.696886 0.680620
Si Si3 0.301763 0.802733 0.271262
Si Si4 0.556943 0.187098 0.500000
Si Si5 0.176069 0.198508 0.433231
Si Si6 0.285254 0.803247 0.402136
Si Si7 0.115976 0.191543 0.895206
O O1 0.500000 0.753575 0.705162
O O2 0.444182 0.500000 0.712935
O O3 0.428715 0.745454 0.783434
O O4 0.405982 0.761542 0.667382
O O5 0.882063 0.500000 0.680304
O O6 0.839882 0.762437 0.724786
O O7 0.863003 0.749582 0.615956
O O8 0.250000 0.750000 0.250000
O O9 0.301069 0.741487 0.337563
O O10 0.306475 0.000000 0.272806
O O11 0.500000 0.178121 0.500000
O O12 0.573790 0.278686 0.558362
O O13 0.576422 0.000000 0.500000
O O14 0.164074 0.250872 0.500000
O O15 0.231658 0.257576 0.419505
O O16 0.177564 0.000000 0.432361
O O17 0.336550 0.760013 0.430091
O O18 0.280732 0.000000 0.402359
O O19 0.124532 0.000000 0.885833
#
# Coordination Sequence:
#
# PCOD9519251 Si02
#       7
#    16  16  16   8  16  16  16
#     4  10  22  40  62  87 116 151 192 242 299 358
#     4  11  22  36  57  87 119 151 190 242 300 355
#     4  10  19  31  51  79 112 148 186 228 276 331
#     4  11  25  43  61  79 107 155 207 251 296 347
#     4  10  22  39  59  83 115 161 205 241 286 347
#     4  10  20  35  54  81 117 155 195 235 280 338
#     4  11  23  38  59  87 119 155 197 246 297 346
#
# _framework density 20.339233
#
# number of rings (size 3 to 8) (size 9 to 14) (size 15 to 20)
#    0.000    1.615    3.077    1.615    1.077    4.308 
#    0.000    0.000    0.000    0.462    0.000    3.231 
#    0.000    0.000    0.000    0.000    0.000    0.000 
#
# Total GULP energy -289566.510469 kJ/mol
# GULP energy per Si atom -5568.586740 kJ/mol
# Density = 2.029294 g / cm^3
# Si number density = 20.339233 Si / 1000 Ang^3
#
#
#
# Elastic Constant Matrix: (Units=GPa)
#
#
# Indices 1 2 3 4 5 6 
#
# 1 68.4335 2.2251 29.6796 0.0000 0.0000 0.0000
# 2 2.2251 23.1977 11.2174 0.0000 0.0000 0.0000
# 3 29.6796 11.2174 132.6828 0.0000 0.0000 0.0000
# 4 0.0000 0.0000 0.0000 20.2303 0.0000 0.0000
# 5 0.0000 0.0000 0.0000 0.0000 18.0796 0.0000
# 6 0.0000 0.0000 0.0000 0.0000 0.0000 26.0374
#
#
#
# Elastic Compliance Matrix: (Units=1/GPa)
#
#
# Indices 1 2 3 4 5 6 
#
# 1 0.016184 0.000207 -0.003638 0.000000 0.000000 0.000000
# 2 0.000207 0.044948 -0.003846 0.000000 0.000000 0.000000
# 3 -0.003638 -0.003846 0.008676 0.000000 0.000000 0.000000
# 4 0.000000 0.000000 0.000000 0.049431 0.000000 0.000000
# 5 0.000000 0.000000 0.000000 0.000000 0.055311 0.000000
# 6 0.000000 0.000000 0.000000 0.000000 0.000000 0.038406
#
#
# Mechanical properties :
#
#
# Convention : Reuss Voigt Hill
#
# Bulk Modulus (GPa) = 18.09870 34.50649 26.30259
# Shear Modulus (GPa) = 20.33125 24.94892 22.64009
#
# Velocity S-wave (km/s) = 3.16509 3.50614 3.33997
# Velocity P-wave (km/s) = 4.71962 5.77867 5.27578
#
# Compressibility (1/GPa) = 0.05525259
#
# Stress axis : x y z
#
# Youngs Moduli (GPa) = 61.79091 22.24808 115.26549
#
# Poissons Ratio (x) = -0.00460 0.41928
# Poissons Ratio (y) = -0.01277 0.44334
# Poissons Ratio (z) = 0.22477 0.08557
#
# Static dielectric constant tensor:
#      x y z
#    x 2.114990 0.000000 0.000000 
#    y 0.000000 1.796550 0.000000 
#    z 0.000000 0.000000 1.699970 
# 
# From -- ./inp_files/56231.got.cif
#   From: 2010.05.17/outbox.cif.g08.bks.cpg/sg71_29_cif.got.tgz:56231.got - 2010.06.03 16:22:01.
