data_PCOD9519451
_publ_section_title
;
Structure prediction by ZEFSAII (Michael W. Deem and Ramdas Pophale) SiO2 
 PCOD9519451
Probable space group: I M M M
;
_chemical_formula_sum "Si O2"
_cell_formula_units_Z 104
_cell_length_a 26.797488
_cell_length_b 21.069136
_cell_length_c 7.827264
_cell_angle_alpha 90.000000
_cell_angle_beta 90.000000
_cell_angle_gamma 90.000000
_cell_volume 4419.272621
_symmetry_space_group_name_H-M "I M M M"
_symmetry_group_IT_number 71
_symmetry_cell_setting 'orthorhombic'
loop_
_space_group_symop_operation_xyz
x,y,z
-x,-y,z
x,-y,-z
-x,y,-z
-x,-y,-z
x,y,-z
-x,y,z
x,-y,z
1/2+x,1/2+y,1/2+z
1/2-x,1/2-y,1/2+z
1/2+x,1/2-y,1/2-z
1/2-x,1/2+y,1/2-z
1/2-x,1/2-y,1/2-z
1/2+x,1/2+y,1/2-z
1/2-x,1/2+y,1/2+z
1/2+x,1/2-y,1/2+z
loop_
_atom_site_type_symbol
_atom_site_label
_atom_site_fract_x
_atom_site_fract_y
_atom_site_fract_z
Si Si1 0.580064 0.931111 0.197586
Si Si2 0.396426 0.571039 0.704529
Si Si3 0.163593 0.254733 0.791602
Si Si4 0.186527 0.397154 0.200917
Si Si5 0.500000 0.572806 0.201871
Si Si6 0.054787 0.288030 0.798047
Si Si7 0.791975 0.126540 0.793446
O O1 0.640519 0.930275 0.207714
O O2 0.562863 0.864675 0.279863
O O3 0.563514 0.000000 0.268403
O O4 0.564762 0.928261 0.000000
O O5 0.393046 0.568690 0.500000
O O6 0.400766 0.500000 0.775205
O O7 0.448486 0.604894 0.744169
O O8 0.344595 0.598263 0.765201
O O9 0.183494 0.323592 0.743810
O O10 0.105520 0.254401 0.731786
O O11 0.200476 0.199272 0.733814
O O12 0.161977 0.251392 0.000000
O O13 0.244149 0.412319 0.231637
O O14 0.175726 0.402328 0.000000
O O15 0.500000 0.500000 0.277925
O O16 0.500000 0.567859 0.000000
O O17 0.000000 0.272138 0.725068
O O18 0.053443 0.274294 0.000000
O O19 0.789658 0.125690 0.000000
#
# Coordination Sequence:
#
# PCOD9519451 Si02
#       7
#    16  16  16  16   8  16  16
#     4  10  21  36  54  77 105 138 176 215 256 310
#     4   9  18  32  49  71  99 129 163 203 247 297
#     4   8  16  32  51  74 101 133 174 213 253 304
#     4  10  20  34  53  75 102 135 170 213 261 307
#     4   9  17  31  51  69  89 123 161 197 240 289
#     4   9  18  34  55  78 106 138 172 217 267 312
#     4  10  19  32  51  76 103 135 174 213 256 304
#
# _framework density 23.533283000000001
#
# number of rings (size 3 to 8) (size 9 to 14) (size 15 to 20)
#    0.000    2.692    0.000    2.538    0.000    4.000 
#    1.385    6.154    0.000    0.000    0.000    0.000 
#    0.000    0.000    0.000    0.000    0.000    0.000 
#
# Total GULP energy -290064.978305 kJ/mol
# GULP energy per Si atom -5578.172660 kJ/mol
# Density = 2.347972 g / cm^3
# Si number density = 23.533283 Si / 1000 Ang^3
#
#
#
# Elastic Constant Matrix: (Units=GPa)
#
#
# Indices 1 2 3 4 5 6 
#
# 1 144.7248 -1.2247 -2.9738 0.0000 0.0000 0.0000
# 2 -1.2247 26.5369 -4.6599 0.0000 0.0000 0.0000
# 3 -2.9738 -4.6599 32.4377 0.0000 0.0000 0.0000
# 4 0.0000 0.0000 0.0000 4.7595 0.0000 0.0000
# 5 0.0000 0.0000 0.0000 0.0000 15.5979 0.0000
# 6 0.0000 0.0000 0.0000 0.0000 0.0000 -96.7921
#
#
#
# Elastic Compliance Matrix: (Units=1/GPa)
#
#
# Indices 1 2 3 4 5 6 
#
# 1 0.006928 0.000442 0.000699 0.000000 0.000000 0.000000
# 2 0.000442 0.038687 0.005598 0.000000 0.000000 0.000000
# 3 0.000699 0.005598 0.031697 0.000000 0.000000 0.000000
# 4 0.000000 0.000000 0.000000 0.210107 0.000000 0.000000
# 5 0.000000 0.000000 0.000000 0.000000 0.064111 0.000000
# 6 0.000000 0.000000 0.000000 0.000000 0.000000 -0.010331
#
#
# Mechanical properties :
#
#
# Convention : Reuss Voigt Hill
#
# Bulk Modulus (GPa) = 11.01444 20.66474 15.83959
# Shear Modulus (GPa) = 13.96713 -1.11643 6.42535
#
# Velocity S-wave (km/s) = 2.43884 -0.68952 1.65416
# Velocity P-wave (km/s) = 3.55262 2.85766 3.22392
#
# Compressibility (1/GPa) = 0.09078989
#
# Stress axis : x y z
#
# Youngs Moduli (GPa) = 144.34673 25.84859 31.54906
#
# Poissons Ratio (x) = -0.01144 -0.02204
# Poissons Ratio (y) = -0.06386 -0.17662
# Poissons Ratio (z) = -0.10085 -0.14471
#
# Static dielectric constant tensor:
#      x y z
#    x 1.964230 0.000000 0.000000 
#    y 0.000000 1.940200 0.000000 
#    z 0.000000 0.000000 1.852550 
# 
# From -- ./inp_files/15268.got.cif
#   From: 2010.05.17/outbox.cif.g08.bks.cpg/sg71_8_cif.got.tgz:15268.got - 2010.06.03 16:22:01.
