data_PCOD9519255
_publ_section_title
;
Structure prediction by ZEFSAII (Michael W. Deem and Ramdas Pophale) SiO2 
 PCOD9519255
Probable space group: I M M M
;
_chemical_formula_sum "Si O2"
_cell_formula_units_Z 88
_cell_length_a 23.222425
_cell_length_b 21.659697
_cell_length_c 7.728014
_cell_angle_alpha 90.000000
_cell_angle_beta 90.000000
_cell_angle_gamma 90.000000
_cell_volume 3887.119087
_symmetry_space_group_name_H-M "I M M M"
_symmetry_group_IT_number 71
_symmetry_cell_setting 'orthorhombic'
loop_
_space_group_symop_operation_xyz
x,y,z
-x,-y,z
x,-y,-z
-x,y,-z
-x,-y,-z
x,y,-z
-x,y,z
x,-y,z
1/2+x,1/2+y,1/2+z
1/2-x,1/2-y,1/2+z
1/2+x,1/2-y,1/2-z
1/2-x,1/2+y,1/2-z
1/2-x,1/2-y,1/2-z
1/2+x,1/2+y,1/2-z
1/2-x,1/2+y,1/2+z
1/2+x,1/2-y,1/2+z
loop_
_atom_site_type_symbol
_atom_site_label
_atom_site_fract_x
_atom_site_fract_y
_atom_site_fract_z
Si Si1 0.000000 0.427241 0.288759
Si Si2 0.936511 0.091799 0.298708
Si Si3 0.385265 0.142047 0.196638
Si Si4 0.761687 0.321949 0.709079
Si Si5 0.188663 0.065449 0.201193
Si Si6 0.567155 0.267625 0.697249
O O1 0.059696 0.394862 0.227002
O O2 0.000000 0.500000 0.248643
O O3 0.000000 0.420192 0.500000
O O4 0.935182 0.074649 0.500000
O O5 0.880214 0.066062 0.210379
O O6 0.930412 0.165557 0.280979
O O7 0.000000 0.075641 0.228469
O O8 0.321489 0.147281 0.275601
O O9 0.402992 0.213803 0.198742
O O10 0.378908 0.118596 0.000000
O O11 0.764707 0.322502 0.500000
O O12 0.750000 0.250000 0.750000
O O13 0.712663 0.369771 0.771103
O O14 0.208886 0.000000 0.279686
O O15 0.205721 0.064587 0.000000
O O16 0.590178 0.270840 0.500000
O O17 0.500000 0.251011 0.687751
#
# Coordination Sequence:
#
# PCOD9519255 Si02
#       6
#     8  16  16  16  16  16
#     4   9  18  32  53  83 115 147 188 239 292 351
#     4  10  21  36  56  83 113 145 183 231 283 336
#     4  10  19  33  55  81 111 147 188 236 290 345
#     4  10  22  38  58  85 115 151 194 241 289 343
#     4  10  22  40  59  81 114 154 194 236 284 342
#     4  10  19  31  51  80 113 145 180 224 279 339
#
# _framework density 22.638871999999999
#
# number of rings (size 3 to 8) (size 9 to 14) (size 15 to 20)
#    0.000    2.091    0.909    2.182    0.000    7.636 
#    0.000    5.455    0.000    1.091    0.000    2.545 
#    0.000    0.000    0.000    0.000    0.000    0.000 
#
# Total GULP energy -245391.494218 kJ/mol
# GULP energy per Si atom -5577.079414 kJ/mol
# Density = 2.258735 g / cm^3
# Si number density = 22.638872 Si / 1000 Ang^3
#
#
#
# Elastic Constant Matrix: (Units=GPa)
#
#
# Indices 1 2 3 4 5 6 
#
# 1 150.4267 76.6062 2.5835 0.0000 0.0000 0.0000
# 2 76.6062 150.7918 -0.7333 0.0000 0.0000 0.0000
# 3 2.5835 -0.7333 50.1906 0.0000 0.0000 0.0000
# 4 0.0000 0.0000 0.0000 1.2377 0.0000 0.0000
# 5 0.0000 0.0000 0.0000 0.0000 7.8382 0.0000
# 6 0.0000 0.0000 0.0000 0.0000 0.0000 -1.9381
#
#
#
# Elastic Compliance Matrix: (Units=1/GPa)
#
#
# Indices 1 2 3 4 5 6 
#
# 1 0.008982 -0.004566 -0.000529 0.000000 0.000000 0.000000
# 2 -0.004566 0.008953 0.000366 0.000000 0.000000 0.000000
# 3 -0.000529 0.000366 0.019957 0.000000 0.000000 0.000000
# 4 0.000000 0.000000 0.000000 0.807924 0.000000 0.000000
# 5 0.000000 0.000000 0.000000 0.000000 0.127580 0.000000
# 6 0.000000 0.000000 0.000000 0.000000 0.000000 -0.515974
#
#
# Mechanical properties :
#
#
# Convention : Reuss Voigt Hill
#
# Bulk Modulus (GPa) = 35.16947 56.48020 45.82483
# Shear Modulus (GPa) = 10.49634 19.62442 15.06038
#
# Velocity S-wave (km/s) = 2.15557 2.94742 2.58203
# Velocity P-wave (km/s) = 4.66519 6.04860 5.40137
#
# Compressibility (1/GPa) = 0.02843376
#
# Stress axis : x y z
#
# Youngs Moduli (GPa) = 111.33458 111.69567 50.10868
#
# Poissons Ratio (x) = 0.50996 0.02651
# Poissons Ratio (y) = 0.50831 -0.01833
# Poissons Ratio (z) = 0.05890 -0.04086
#
# Static dielectric constant tensor:
#      x y z
#    x 1.886590 0.000000 0.000000 
#    y 0.000000 1.847920 0.000000 
#    z 0.000000 0.000000 1.880830 
# 
# From -- ./inp_files/10393.got.cif
#   From: 2010.05.17/outbox.cif.g08.bks.cpg/sg71_6_cif.got.tgz:10393.got - 2010.06.03 16:22:01.
