data_PCOD9519954
_publ_section_title
;
Structure prediction by ZEFSAII (Michael W. Deem and Ramdas Pophale) SiO2 
 PCOD9519954
Probable space group: I M M M
;
_chemical_formula_sum "Si O2"
_cell_formula_units_Z 120
_cell_length_a 9.028651
_cell_length_b 30.903482
_cell_length_c 24.727694
_cell_angle_alpha 90.000000
_cell_angle_beta 90.000000
_cell_angle_gamma 90.000000
_cell_volume 6899.440905
_symmetry_space_group_name_H-M "I M M M"
_symmetry_group_IT_number 71
_symmetry_cell_setting 'orthorhombic'
loop_
_space_group_symop_operation_xyz
x,y,z
-x,-y,z
x,-y,-z
-x,y,-z
-x,-y,-z
x,y,-z
-x,y,z
x,-y,z
1/2+x,1/2+y,1/2+z
1/2-x,1/2-y,1/2+z
1/2+x,1/2-y,1/2-z
1/2-x,1/2+y,1/2-z
1/2-x,1/2-y,1/2-z
1/2+x,1/2+y,1/2-z
1/2-x,1/2+y,1/2+z
1/2+x,1/2-y,1/2+z
loop_
_atom_site_type_symbol
_atom_site_label
_atom_site_fract_x
_atom_site_fract_y
_atom_site_fract_z
Si Si1 0.176937 0.000000 0.936741
Si Si2 0.820428 0.627295 0.166775
Si Si3 0.827822 0.248052 0.063678
Si Si4 0.319920 0.049300 0.744783
Si Si5 0.823055 0.159500 0.562333
Si Si6 0.174705 0.326383 0.368403
Si Si7 0.325447 0.796511 0.746312
Si Si8 0.178806 0.425185 0.632772
O O1 0.245218 0.958440 0.907320
O O2 0.000000 0.000000 0.931009
O O3 0.214210 0.000000 0.000000
O O4 0.773812 0.585167 0.201124
O O5 0.752568 0.629741 0.107303
O O6 0.773016 0.670422 0.200004
O O7 0.000000 0.627668 0.164203
O O8 0.735479 0.291785 0.072514
O O9 0.766643 0.209109 0.099396
O O10 0.000000 0.256679 0.076232
O O11 0.816159 0.237108 0.000000
O O12 0.500000 0.049214 0.744105
O O13 0.277426 0.063593 0.805444
O O14 0.270529 0.000000 0.734341
O O15 0.783838 0.148682 0.500000
O O16 0.000000 0.158374 0.567442
O O17 0.192717 0.319435 0.304261
O O18 0.216411 0.375694 0.380803
O O19 0.000000 0.320529 0.380663
O O20 0.500000 0.789606 0.737356
O O21 0.250000 0.750000 0.750000
O O22 0.000000 0.429621 0.629910
#
# Coordination Sequence:
#
# PCOD9519954 Si02
#       8
#     8  16  16  16  16  16  16  16
#     4  11  25  41  55  77 111 145 180 231 288 329
#     4  10  19  33  55  83 111 138 175 219 268 327
#     4  10  21  36  53  74 103 143 188 229 271 318
#     4   9  16  31  59  87 109 137 174 222 276 324
#     4  10  21  37  56  78 107 143 182 223 263 308
#     4  10  20  34  53  78 108 140 178 224 272 321
#     4  10  20  32  47  73 110 144 174 213 262 315
#     4  10  19  36  61  81 103 140 184 227 271 326
#
# _framework density 17.392713000000001
#
# number of rings (size 3 to 8) (size 9 to 14) (size 15 to 20)
#    0.000    2.067    2.000    1.800    0.000    6.400 
#    0.000    3.333    0.000    0.400    0.000    2.800 
#    0.000    0.000    0.000    0.000    0.000    0.000 
#
# Total GULP energy -334911.387896 kJ/mol
# GULP energy per Si atom -5581.856465 kJ/mol
# Density = 1.735313 g / cm^3
# Si number density = 17.392713 Si / 1000 Ang^3
#
#
#
# Elastic Constant Matrix: (Units=GPa)
#
#
# Indices 1 2 3 4 5 6 
#
# 1 25.8699 25.9987 39.7779 0.0000 0.0000 0.0000
# 2 25.9987 90.0625 63.4420 0.0000 0.0000 0.0000
# 3 39.7779 63.4420 113.2670 0.0000 0.0000 0.0000
# 4 0.0000 0.0000 0.0000 26.5456 0.0000 0.0000
# 5 0.0000 0.0000 0.0000 0.0000 27.8155 0.0000
# 6 0.0000 0.0000 0.0000 0.0000 0.0000 20.0497
#
#
#
# Elastic Compliance Matrix: (Units=1/GPa)
#
#
# Indices 1 2 3 4 5 6 
#
# 1 0.085861 -0.005856 -0.026873 0.000000 0.000000 0.000000
# 2 -0.005856 0.018739 -0.008439 0.000000 0.000000 0.000000
# 3 -0.026873 -0.008439 0.022993 0.000000 0.000000 0.000000
# 4 0.000000 0.000000 0.000000 0.037671 0.000000 0.000000
# 5 0.000000 0.000000 0.000000 0.000000 0.035951 0.000000
# 6 0.000000 0.000000 0.000000 0.000000 0.000000 0.049876
#
#
# Mechanical properties :
#
#
# Convention : Reuss Voigt Hill
#
# Bulk Modulus (GPa) = 22.09650 54.18187 38.13919
# Shear Modulus (GPa) = 14.34667 21.54753 17.94710
#
# Velocity S-wave (km/s) = 2.87516 3.52359 3.21577
# Velocity P-wave (km/s) = 4.87382 6.91187 5.98031
#
# Compressibility (1/GPa) = 0.04525603
#
# Stress axis : x y z
#
# Youngs Moduli (GPa) = 11.64675 53.36593 43.49102
#
# Poissons Ratio (x) = 0.31249 1.16876
# Poissons Ratio (y) = 0.06820 0.36703
# Poissons Ratio (z) = 0.31299 0.45037
#
# Static dielectric constant tensor:
#      x y z
#    x 1.585660 0.000000 0.000000 
#    y 0.000000 1.578570 0.000000 
#    z 0.000000 0.000000 1.588750 
# 
# From -- ./inp_files/63816.got.cif
#   From: 2010.05.17/outbox.cif.g08.bks.cpg/sg71_32_cif.got.tgz:63816.got - 2010.06.03 16:22:01.
