data_PCOD9519583
_publ_section_title
;
Structure prediction by ZEFSAII (Michael W. Deem and Ramdas Pophale) SiO2 
 PCOD9519583
Probable space group: I M M M
;
_chemical_formula_sum "Si O2"
_cell_formula_units_Z 96
_cell_length_a 21.257072
_cell_length_b 17.927110
_cell_length_c 15.219503
_cell_angle_alpha 90.000000
_cell_angle_beta 90.000000
_cell_angle_gamma 90.000000
_cell_volume 5799.815756
_symmetry_space_group_name_H-M "I M M M"
_symmetry_group_IT_number 71
_symmetry_cell_setting 'orthorhombic'
loop_
_space_group_symop_operation_xyz
x,y,z
-x,-y,z
x,-y,-z
-x,y,-z
-x,-y,-z
x,y,-z
-x,y,z
x,-y,z
1/2+x,1/2+y,1/2+z
1/2-x,1/2-y,1/2+z
1/2+x,1/2-y,1/2-z
1/2-x,1/2+y,1/2-z
1/2-x,1/2-y,1/2-z
1/2+x,1/2+y,1/2-z
1/2-x,1/2+y,1/2+z
1/2+x,1/2-y,1/2+z
loop_
_atom_site_type_symbol
_atom_site_label
_atom_site_fract_x
_atom_site_fract_y
_atom_site_fract_z
Si Si1 0.926168 0.855919 0.396586
Si Si2 0.424460 0.765433 0.248307
Si Si3 0.927946 0.589563 0.500000
Si Si4 0.872297 0.416000 0.311033
Si Si5 0.864765 0.000000 0.104818
Si Si6 0.661663 0.500000 0.104458
Si Si7 0.075593 0.842627 0.900465
Si Si8 0.247522 0.500000 0.731821
O O1 0.921445 0.837640 0.500000
O O2 0.908661 0.785611 0.336290
O O3 0.881731 0.926989 0.379328
O O4 0.000000 0.874447 0.378622
O O5 0.500000 0.770687 0.250276
O O6 0.398263 0.848468 0.245312
O O7 0.402001 0.719001 0.332413
O O8 0.933763 0.500000 0.500000
O O9 0.889876 0.606356 0.588880
O O10 0.000000 0.620537 0.500000
O O11 0.900601 0.500000 0.296827
O O12 0.799310 0.430751 0.288517
O O13 0.902733 0.074922 0.125909
O O14 0.801942 0.000000 0.160442
O O15 0.853045 0.000000 0.000000
O O16 0.719935 0.500000 0.172526
O O17 0.678763 0.500000 0.000000
O O18 0.000000 0.841845 0.899907
O O19 0.097048 0.828328 0.000000
#
# Coordination Sequence:
#
# PCOD9519583 Si02
#       8
#    16  16   8  16   8   8  16   8
#     4   9  18  31  52  83 111 133 165 216 272 328
#     4  10  19  32  53  79 108 133 163 212 275 326
#     4   9  16  30  54  80 100 127 163 209 273 334
#     4   9  21  35  52  74 107 138 171 216 260 311
#     4  10  19  32  56  78 104 140 177 211 261 317
#     4  10  19  36  56  72 102 149 188 212 254 306
#     4   9  18  33  53  80 107 134 171 219 264 308
#     4  10  22  36  51  72 104 141 188 224 248 303
#
# _framework density 16.552250000000001
#
# number of rings (size 3 to 8) (size 9 to 14) (size 15 to 20)
#    0.500    2.083    0.000    2.000    2.333    3.000 
#    0.000    7.500    0.000    4.000    0.000    2.333 
#    0.000    0.000    0.000    0.000    0.000    0.000 
#
# Total GULP energy -267227.209493 kJ/mol
# GULP energy per Si atom -5567.233531 kJ/mol
# Density = 1.651458 g / cm^3
# Si number density = 16.552250 Si / 1000 Ang^3
#
#
#
# Elastic Constant Matrix: (Units=GPa)
#
#
# Indices 1 2 3 4 5 6 
#
# 1 46.3600 25.4210 44.1998 0.0000 0.0000 0.0000
# 2 25.4210 119.4035 65.2167 0.0000 0.0000 0.0000
# 3 44.1998 65.2167 71.7383 0.0000 0.0000 0.0000
# 4 0.0000 0.0000 0.0000 19.1269 0.0000 0.0000
# 5 0.0000 0.0000 0.0000 0.0000 26.1313 0.0000
# 6 0.0000 0.0000 0.0000 0.0000 0.0000 15.4425
#
#
#
# Elastic Compliance Matrix: (Units=1/GPa)
#
#
# Indices 1 2 3 4 5 6 
#
# 1 0.064503 0.015838 -0.054140 0.000000 0.000000 0.000000
# 2 0.015838 0.020523 -0.028416 0.000000 0.000000 0.000000
# 3 -0.054140 -0.028416 0.073129 0.000000 0.000000 0.000000
# 4 0.000000 0.000000 0.000000 0.052282 0.000000 0.000000
# 5 0.000000 0.000000 0.000000 0.000000 0.038268 0.000000
# 6 0.000000 0.000000 0.000000 0.000000 0.000000 0.064756
#
#
# Mechanical properties :
#
#
# Convention : Reuss Voigt Hill
#
# Bulk Modulus (GPa) = 40.45352 56.35299 48.40325
# Shear Modulus (GPa) = 10.98567 18.98443 14.98505
#
# Velocity S-wave (km/s) = 2.57903 3.39032 3.01211
# Velocity P-wave (km/s) = 5.77594 7.03172 6.43454
#
# Compressibility (1/GPa) = 0.02471973
#
# Stress axis : x y z
#
# Youngs Moduli (GPa) = 15.50317 48.72476 13.67445
#
# Poissons Ratio (x) = -0.77170 0.74033
# Poissons Ratio (y) = -0.24554 0.38857
# Poissons Ratio (z) = 0.83934 1.38455
#
# Static dielectric constant tensor:
#      x y z
#    x 1.545280 0.000000 0.000000 
#    y 0.000000 1.553300 0.000000 
#    z 0.000000 0.000000 1.579670 
# 
# From -- ./inp_files/39232.got.cif
#   From: 2010.05.17/outbox.cif.g08.bks.cpg/sg71_20_cif.got.tgz:39232.got - 2010.06.03 16:22:01.
