data_PCOD9519863
_publ_section_title
;
Structure prediction by ZEFSAII (Michael W. Deem and Ramdas Pophale) SiO2 
 PCOD9519863
Probable space group: I M M M
;
_chemical_formula_sum "Si O2"
_cell_formula_units_Z 80
_cell_length_a 19.593718
_cell_length_b 8.825262
_cell_length_c 26.601275
_cell_angle_alpha 90.000000
_cell_angle_beta 90.000000
_cell_angle_gamma 90.000000
_cell_volume 4599.884357
_symmetry_space_group_name_H-M "I M M M"
_symmetry_group_IT_number 71
_symmetry_cell_setting 'orthorhombic'
loop_
_space_group_symop_operation_xyz
x,y,z
-x,-y,z
x,-y,-z
-x,y,-z
-x,-y,-z
x,y,-z
-x,y,z
x,-y,z
1/2+x,1/2+y,1/2+z
1/2-x,1/2-y,1/2+z
1/2+x,1/2-y,1/2-z
1/2-x,1/2+y,1/2-z
1/2-x,1/2-y,1/2-z
1/2+x,1/2+y,1/2-z
1/2-x,1/2+y,1/2+z
1/2+x,1/2-y,1/2+z
loop_
_atom_site_type_symbol
_atom_site_label
_atom_site_fract_x
_atom_site_fract_y
_atom_site_fract_z
Si Si1 0.824252 0.180106 0.394768
Si Si2 0.826491 0.182774 0.891002
Si Si3 0.836830 0.173931 0.000000
Si Si4 0.329243 0.825618 0.000000
Si Si5 0.080179 0.681799 0.194949
Si Si6 0.419301 0.818847 0.189631
O O1 0.749514 0.251396 0.385238
O O2 0.849552 0.243482 0.448621
O O3 0.874414 0.231800 0.350670
O O4 0.818465 0.000000 0.397140
O O5 0.855069 0.239247 0.945444
O O6 0.873747 0.235271 0.845664
O O7 0.822010 0.000000 0.893145
O O8 0.753896 0.173591 0.000000
O O9 0.861119 0.000000 0.000000
O O10 0.351817 0.000000 0.000000
O O11 0.088221 0.500000 0.189959
O O12 0.098167 0.721518 0.252632
O O13 0.000000 0.716422 0.187741
O O14 0.500000 0.789937 0.182776
O O15 0.408768 0.000000 0.183947
#
# Coordination Sequence:
#
# PCOD9519863 Si02
#       6
#    16  16   8   8  16  16
#     4  11  21  33  53  81 109 135 169 215 260 302
#     4  10  19  33  54  77 103 137 176 215 256 307
#     4   7  14  29  48  71  98 130 166 204 246 293
#     4   9  17  33  54  75 104 139 172 206 252 310
#     4   9  19  36  55  75 102 135 172 217 267 314
#     4   9  19  37  57  74  99 138 176 211 260 318
#
# _framework density 17.391742000000001
#
# number of rings (size 3 to 8) (size 9 to 14) (size 15 to 20)
#    0.000    2.600    0.000    5.100    0.000    2.400 
#    0.000    4.500    0.000    6.000    0.000    0.000 
#    0.000    0.000    0.000    0.000    0.000    0.000 
#
# Total GULP energy -223001.304788 kJ/mol
# GULP energy per Si atom -5575.032620 kJ/mol
# Density = 1.735216 g / cm^3
# Si number density = 17.391742 Si / 1000 Ang^3
#
#
#
# Elastic Constant Matrix: (Units=GPa)
#
#
# Indices 1 2 3 4 5 6 
#
# 1 49.4251 46.1913 78.1569 0.0000 0.0000 0.0000
# 2 46.1913 85.8925 82.2234 0.0000 0.0000 0.0000
# 3 78.1569 82.2234 181.2709 0.0000 0.0000 0.0000
# 4 0.0000 0.0000 0.0000 33.3001 0.0000 0.0000
# 5 0.0000 0.0000 0.0000 0.0000 -134.5387 0.0000
# 6 0.0000 0.0000 0.0000 0.0000 0.0000 26.0007
#
#
#
# Elastic Compliance Matrix: (Units=1/GPa)
#
#
# Indices 1 2 3 4 5 6 
#
# 1 0.074887 -0.016550 -0.024781 0.000000 0.000000 0.000000
# 2 -0.016550 0.024235 -0.003857 0.000000 0.000000 0.000000
# 3 -0.024781 -0.003857 0.017951 0.000000 0.000000 0.000000
# 4 0.000000 0.000000 0.000000 0.030030 0.000000 0.000000
# 5 0.000000 0.000000 0.000000 0.000000 -0.007433 0.000000
# 6 0.000000 0.000000 0.000000 0.000000 0.000000 0.038460
#
#
# Mechanical properties :
#
#
# Convention : Reuss Voigt Hill
#
# Bulk Modulus (GPa) = 37.45878 81.08132 59.27005
# Shear Modulus (GPa) = 18.02407 -7.71311 5.15548
#
# Velocity S-wave (km/s) = 3.22274 -2.10821 1.72359
# Velocity P-wave (km/s) = 5.95257 6.38715 6.17369
#
# Compressibility (1/GPa) = 0.02669601
#
# Stress axis : x y z
#
# Youngs Moduli (GPa) = 13.35343 41.26236 55.70726
#
# Poissons Ratio (x) = 0.68289 1.38050
# Poissons Ratio (y) = 0.22100 0.21487
# Poissons Ratio (z) = 0.33092 0.15916
#
# Static dielectric constant tensor:
#      x y z
#    x 1.559500 0.000000 0.000000 
#    y 0.000000 1.585330 0.000000 
#    z 0.000000 0.000000 1.606890 
# 
# From -- ./inp_files/14622.got.cif
#   From: 2010.05.17/outbox.cif.g08.bks.cpg/sg71_8_cif.got.tgz:14622.got - 2010.06.03 16:22:01.
