data_PCOD9519396
_publ_section_title
;
Structure prediction by ZEFSAII (Michael W. Deem and Ramdas Pophale) SiO2 
 PCOD9519396
Probable space group: I M M M
;
_chemical_formula_sum "Si O2"
_cell_formula_units_Z 104
_cell_length_a 28.641839
_cell_length_b 22.969819
_cell_length_c 7.607684
_cell_angle_alpha 90.000000
_cell_angle_beta 90.000000
_cell_angle_gamma 90.000000
_cell_volume 5005.079005
_symmetry_space_group_name_H-M "I M M M"
_symmetry_group_IT_number 71
_symmetry_cell_setting 'orthorhombic'
loop_
_space_group_symop_operation_xyz
x,y,z
-x,-y,z
x,-y,-z
-x,y,-z
-x,-y,-z
x,y,-z
-x,y,z
x,-y,z
1/2+x,1/2+y,1/2+z
1/2-x,1/2-y,1/2+z
1/2+x,1/2-y,1/2-z
1/2-x,1/2+y,1/2-z
1/2-x,1/2-y,1/2-z
1/2+x,1/2+y,1/2-z
1/2-x,1/2+y,1/2+z
1/2+x,1/2-y,1/2+z
loop_
_atom_site_type_symbol
_atom_site_label
_atom_site_fract_x
_atom_site_fract_y
_atom_site_fract_z
Si Si1 0.000000 0.932271 0.791729
Si Si2 0.713012 0.500000 0.785975
Si Si3 0.577672 0.335237 0.211130
Si Si4 0.677398 0.000000 0.715215
Si Si5 0.051571 0.294790 0.711104
Si Si6 0.176561 0.120868 0.714866
Si Si7 0.232658 0.313875 0.789684
Si Si8 0.639926 0.125619 0.711067
O O1 0.956013 0.890402 0.745549
O O2 0.000000 0.000000 0.721389
O O3 0.000000 0.937923 0.000000
O O4 0.767643 0.500000 0.729562
O O5 0.682430 0.445282 0.733169
O O6 0.716074 0.500000 0.000000
O O7 0.561706 0.271393 0.276361
O O8 0.629660 0.348790 0.277499
O O9 0.579415 0.330403 0.000000
O O10 0.651262 0.059532 0.771898
O O11 0.677966 0.000000 0.500000
O O12 0.049925 0.290742 0.500000
O O13 0.091561 0.341902 0.749904
O O14 0.000000 0.312394 0.774169
O O15 0.175922 0.124507 0.500000
O O16 0.225012 0.147557 0.777522
O O17 0.250000 0.250000 0.750000
O O18 0.182384 0.333576 0.721958
O O19 0.230526 0.321036 0.000000
O O20 0.642573 0.122785 0.500000
#
# Coordination Sequence:
#
# PCOD9519396 Si02
#       8
#     8   8  16   8  16  16  16  16
#     4  11  25  41  55  77 113 152 185 226 285 339
#     4   9  14  26  48  77 109 139 173 217 266 313
#     4  10  20  37  60  84 107 140 191 239 274 320
#     4   9  16  32  54  80 116 149 182 227 276 333
#     4  10  21  39  59  81 111 145 184 237 294 338
#     4   9  17  28  49  81 108 132 170 221 266 308
#     4  10  19  32  50  77 111 143 176 215 268 327
#     4  10  20  34  57  85 111 146 189 232 281 339
#
# _framework density 20.778891000000002
#
# number of rings (size 3 to 8) (size 9 to 14) (size 15 to 20)
#    0.000    2.231    2.308    1.154    1.077    3.385 
#    0.000    1.538    0.000    2.308    0.000    0.000 
#    0.000    0.000    0.000    0.000    0.000    0.000 
#
# Total GULP energy -289957.025474 kJ/mol
# GULP energy per Si atom -5576.096644 kJ/mol
# Density = 2.073160 g / cm^3
# Si number density = 20.778891 Si / 1000 Ang^3
#
#
#
# Elastic Constant Matrix: (Units=GPa)
#
#
# Indices 1 2 3 4 5 6 
#
# 1 182.5826 69.4076 9.0583 0.0000 0.0000 0.0000
# 2 69.4076 117.5260 5.1805 0.0000 0.0000 0.0000
# 3 9.0583 5.1805 43.8390 0.0000 0.0000 0.0000
# 4 0.0000 0.0000 0.0000 18.4558 0.0000 0.0000
# 5 0.0000 0.0000 0.0000 0.0000 -74.3649 0.0000
# 6 0.0000 0.0000 0.0000 0.0000 0.0000 38.0793
#
#
#
# Elastic Compliance Matrix: (Units=1/GPa)
#
#
# Indices 1 2 3 4 5 6 
#
# 1 0.007104 -0.004152 -0.000977 0.000000 0.000000 0.000000
# 2 -0.004152 0.010980 -0.000440 0.000000 0.000000 0.000000
# 3 -0.000977 -0.000440 0.023065 0.000000 0.000000 0.000000
# 4 0.000000 0.000000 0.000000 0.054184 0.000000 0.000000
# 5 0.000000 0.000000 0.000000 0.000000 -0.013447 0.000000
# 6 0.000000 0.000000 0.000000 0.000000 0.000000 0.026261
#
#
# Mechanical properties :
#
#
# Convention : Reuss Voigt Hill
#
# Bulk Modulus (GPa) = 33.32138 56.80449 45.06293
# Shear Modulus (GPa) = 38.67332 13.78743 26.23038
#
# Velocity S-wave (km/s) = 4.31882 2.57870 3.55682
# Velocity P-wave (km/s) = 6.39849 6.02190 6.21304
#
# Compressibility (1/GPa) = 0.03001076
#
# Stress axis : x y z
#
# Youngs Moduli (GPa) = 140.76717 91.07152 43.35645
#
# Poissons Ratio (x) = 0.37816 0.04237
# Poissons Ratio (y) = 0.58451 0.01906
# Poissons Ratio (z) = 0.13755 0.04004
#
# Static dielectric constant tensor:
#      x y z
#    x 1.731190 0.000000 0.000000 
#    y 0.000000 1.664910 0.000000 
#    z 0.000000 0.000000 1.803190 
# 
# From -- ./inp_files/15078.got.cif
#   From: 2010.05.17/outbox.cif.g08.bks.cpg/sg71_8_cif.got.tgz:15078.got - 2010.06.03 16:22:01.
