data_PCOD9519849
_publ_section_title
;
Structure prediction by ZEFSAII (Michael W. Deem and Ramdas Pophale) SiO2 
 PCOD9519849
Probable space group: I M M M
;
_chemical_formula_sum "Si O2"
_cell_formula_units_Z 112
_cell_length_a 13.414084
_cell_length_b 20.478110
_cell_length_c 23.428343
_cell_angle_alpha 90.000000
_cell_angle_beta 90.000000
_cell_angle_gamma 90.000000
_cell_volume 6435.650735
_symmetry_space_group_name_H-M "I M M M"
_symmetry_group_IT_number 71
_symmetry_cell_setting 'orthorhombic'
loop_
_space_group_symop_operation_xyz
x,y,z
-x,-y,z
x,-y,-z
-x,y,-z
-x,-y,-z
x,y,-z
-x,y,z
x,-y,z
1/2+x,1/2+y,1/2+z
1/2-x,1/2-y,1/2+z
1/2+x,1/2-y,1/2-z
1/2-x,1/2+y,1/2-z
1/2-x,1/2-y,1/2-z
1/2+x,1/2+y,1/2-z
1/2-x,1/2+y,1/2+z
1/2+x,1/2-y,1/2+z
loop_
_atom_site_type_symbol
_atom_site_label
_atom_site_fract_x
_atom_site_fract_y
_atom_site_fract_z
Si Si1 0.389757 0.691202 0.750171
Si Si2 0.280298 0.265582 0.565954
Si Si3 0.810527 0.310567 0.677134
Si Si4 0.500000 0.742036 0.569228
Si Si5 0.500000 0.890441 0.430690
Si Si6 0.388321 0.923227 0.248468
Si Si7 0.780069 0.606751 0.933939
Si Si8 0.191057 0.074514 0.319859
O O1 0.500000 0.695208 0.724681
O O2 0.300363 0.689963 0.704783
O O3 0.369818 0.753319 0.790582
O O4 0.378498 0.627036 0.789505
O O5 0.260959 0.282555 0.500000
O O6 0.203228 0.294429 0.610982
O O7 0.392813 0.288065 0.582413
O O8 0.281757 0.186156 0.569230
O O9 0.861930 0.378127 0.694639
O O10 0.500000 0.747769 0.500000
O O11 0.500000 0.816231 0.592119
O O12 0.500000 0.887382 0.500000
O O13 0.608620 0.918782 0.417271
O O14 0.500000 0.907940 0.269551
O O15 0.301770 0.910408 0.294495
O O16 0.384626 0.000000 0.234813
O O17 0.701665 0.582550 0.887648
O O18 0.761027 0.589202 0.000000
O O19 0.165577 0.000000 0.305451
#
# Coordination Sequence:
#
# PCOD9519849 Si02
#       8
#    16  16  16   8   8  16  16  16
#     4  10  21  35  50  74 102 129 166 214 254 283
#     4   9  16  28  48  74 105 133 160 198 249 301
#     4  10  19  33  53  80 100 126 165 205 246 304
#     4   7  12  22  38  67  99 129 157 183 229 295
#     4   7  12  22  37  60  91 129 164 196 241 289
#     4   9  19  35  53  73 100 132 163 203 255 304
#     4   9  16  28  44  67 101 136 169 209 250 291
#     4  10  20  33  49  71  98 135 178 209 242 295
#
# _framework density 17.403058000000001
#
# number of rings (size 3 to 8) (size 9 to 14) (size 15 to 20)
#    0.000    2.857    1.429    2.143    2.000    0.571 
#    0.000    0.000    0.000    4.714    0.000    2.000 
#    0.000    1.714    0.000    0.000    0.000    0.000 
#
# Total GULP energy -311985.807460 kJ/mol
# GULP energy per Si atom -5571.175133 kJ/mol
# Density = 1.736345 g / cm^3
# Si number density = 17.403058 Si / 1000 Ang^3
#
#
#
# Elastic Constant Matrix: (Units=GPa)
#
#
# Indices 1 2 3 4 5 6 
#
# 1 49.8310 16.5939 0.7876 0.0000 0.0000 0.0000
# 2 16.5939 36.5969 19.8289 0.0000 0.0000 0.0000
# 3 0.7876 19.8289 55.9753 0.0000 0.0000 0.0000
# 4 0.0000 0.0000 0.0000 15.4675 0.0000 0.0000
# 5 0.0000 0.0000 0.0000 0.0000 20.1052 0.0000
# 6 0.0000 0.0000 0.0000 0.0000 0.0000 4.3253
#
#
#
# Elastic Compliance Matrix: (Units=1/GPa)
#
#
# Indices 1 2 3 4 5 6 
#
# 1 0.024498 -0.013515 0.004443 0.000000 0.000000 0.000000
# 2 -0.013515 0.041271 -0.014430 0.000000 0.000000 0.000000
# 3 0.004443 -0.014430 0.022914 0.000000 0.000000 0.000000
# 4 0.000000 0.000000 0.000000 0.064652 0.000000 0.000000
# 5 0.000000 0.000000 0.000000 0.000000 0.049738 0.000000
# 6 0.000000 0.000000 0.000000 0.000000 0.000000 0.231198
#
#
# Mechanical properties :
#
#
# Convention : Reuss Voigt Hill
#
# Bulk Modulus (GPa) = 23.99277 24.09155 24.04216
# Shear Modulus (GPa) = 10.09754 14.99245 12.54500
#
# Velocity S-wave (km/s) = 2.41138 2.93829 2.68778
# Velocity P-wave (km/s) = 4.64429 5.03833 4.84532
#
# Compressibility (1/GPa) = 0.04167923
#
# Stress axis : x y z
#
# Youngs Moduli (GPa) = 40.81911 24.22984 43.64103
#
# Poissons Ratio (x) = 0.32748 -0.19390
# Poissons Ratio (y) = 0.55169 0.62974
# Poissons Ratio (z) = -0.18136 0.34964
#
# Static dielectric constant tensor:
#      x y z
#    x 1.622810 0.000000 0.000000 
#    y 0.000000 1.590770 0.000000 
#    z 0.000000 0.000000 1.589160 
# 
# From -- ./inp_files/59173.got.cif
#   From: 2010.05.17/outbox.cif.g08.bks.cpg/sg71_30_cif.got.tgz:59173.got - 2010.06.03 16:22:01.
