data_PCOD9519854
_publ_section_title
;
Structure prediction by ZEFSAII (Michael W. Deem and Ramdas Pophale) SiO2 
 PCOD9519854
Probable space group: I M M M
;
_chemical_formula_sum "Si O2"
_cell_formula_units_Z 116
_cell_length_a 28.900462
_cell_length_b 23.512699
_cell_length_c 9.099682
_cell_angle_alpha 90.000000
_cell_angle_beta 90.000000
_cell_angle_gamma 90.000000
_cell_volume 6183.487472
_symmetry_space_group_name_H-M "I M M M"
_symmetry_group_IT_number 71
_symmetry_cell_setting 'orthorhombic'
loop_
_space_group_symop_operation_xyz
x,y,z
-x,-y,z
x,-y,-z
-x,y,-z
-x,-y,-z
x,y,-z
-x,y,z
x,-y,z
1/2+x,1/2+y,1/2+z
1/2-x,1/2-y,1/2+z
1/2+x,1/2-y,1/2-z
1/2-x,1/2+y,1/2-z
1/2-x,1/2-y,1/2-z
1/2+x,1/2+y,1/2-z
1/2-x,1/2+y,1/2+z
1/2+x,1/2-y,1/2+z
loop_
_atom_site_type_symbol
_atom_site_label
_atom_site_fract_x
_atom_site_fract_y
_atom_site_fract_z
Si Si1 0.574126 0.404631 0.822241
Si Si2 0.362167 0.062846 0.676729
Si Si3 0.054253 0.226448 0.669042
Si Si4 0.799883 0.251473 0.673535
Si Si5 0.763797 0.566845 0.332273
Si Si6 0.119167 0.315366 0.824482
Si Si7 0.677446 0.621596 0.173082
Si Si8 0.000000 0.000000 0.239044
O O1 0.560349 0.339582 0.788133
O O2 0.628720 0.407584 0.786376
O O3 0.540665 0.450136 0.748282
O O4 0.568611 0.412533 0.000000
O O5 0.359522 0.061720 0.500000
O O6 0.310750 0.071839 0.739984
O O7 0.390915 0.119014 0.717052
O O8 0.378287 0.000000 0.726370
O O9 0.071397 0.230969 0.500000
O O10 0.081816 0.270738 0.766968
O O11 0.000000 0.239271 0.671653
O O12 0.794913 0.262184 0.500000
O O13 0.750000 0.250000 0.750000
O O14 0.832534 0.297191 0.750636
O O15 0.824349 0.189797 0.691428
O O16 0.772101 0.585069 0.500000
O O17 0.751788 0.500000 0.332313
O O18 0.721075 0.599865 0.263012
O O19 0.123288 0.311541 0.000000
O O20 0.685160 0.610571 0.000000
#
# Coordination Sequence:
#
# PCOD9519854 Si02
#       8
#    16  16  16  16  16  16  16   4
#     4  10  19  33  53  82 111 139 183 242 297 337
#     4   9  19  37  59  82 111 146 185 229 276 333
#     4  10  20  38  61  84 116 151 186 235 293 349
#     4  11  22  36  54  80 117 154 193 239 289 347
#     4  10  21  35  51  76 110 148 189 232 280 336
#     4  11  22  36  58  87 114 146 190 236 289 349
#     4  10  21  35  51  74 108 148 189 235 285 339
#     4  12  21  32  60  92 113 138 195 264 301 344
#
# _framework density 18.759640999999998
#
# number of rings (size 3 to 8) (size 9 to 14) (size 15 to 20)
#    0.000    1.793    2.069    2.690    0.966    6.621 
#    0.000    0.000    0.000    0.414    0.000    4.828 
#    0.000    0.000    0.000    0.000    0.000    0.000 
#
# Total GULP energy -323279.205055 kJ/mol
# GULP energy per Si atom -5573.779398 kJ/mol
# Density = 1.871694 g / cm^3
# Si number density = 18.759641 Si / 1000 Ang^3
#
#
#
# Elastic Constant Matrix: (Units=GPa)
#
#
# Indices 1 2 3 4 5 6 
#
# 1 45.6199 36.1309 12.3309 0.0000 0.0000 0.0000
# 2 36.1309 136.5264 39.6160 0.0000 0.0000 0.0000
# 3 12.3309 39.6160 29.6230 0.0000 0.0000 0.0000
# 4 0.0000 0.0000 0.0000 15.9411 0.0000 0.0000
# 5 0.0000 0.0000 0.0000 0.0000 15.2303 0.0000
# 6 0.0000 0.0000 0.0000 0.0000 0.0000 47.5884
#
#
#
# Elastic Compliance Matrix: (Units=1/GPa)
#
#
# Indices 1 2 3 4 5 6 
#
# 1 0.027878 -0.006554 -0.002840 0.000000 0.000000 0.000000
# 2 -0.006554 0.013510 -0.015339 0.000000 0.000000 0.000000
# 3 -0.002840 -0.015339 0.055454 0.000000 0.000000 0.000000
# 4 0.000000 0.000000 0.000000 0.062731 0.000000 0.000000
# 5 0.000000 0.000000 0.000000 0.000000 0.065659 0.000000
# 6 0.000000 0.000000 0.000000 0.000000 0.000000 0.021014
#
#
# Mechanical properties :
#
#
# Convention : Reuss Voigt Hill
#
# Bulk Modulus (GPa) = 21.10789 43.10277 32.10533
# Shear Modulus (GPa) = 16.05115 23.99806 20.02461
#
# Velocity S-wave (km/s) = 2.92827 3.58052 3.27070
# Velocity P-wave (km/s) = 4.76542 6.33402 5.60486
#
# Compressibility (1/GPa) = 0.04737564
#
# Stress axis : x y z
#
# Youngs Moduli (GPa) = 35.86996 74.01898 18.03303
#
# Poissons Ratio (x) = 0.48510 0.05122
# Poissons Ratio (y) = 0.23508 0.27662
# Poissons Ratio (z) = 0.10188 1.13541
#
# Static dielectric constant tensor:
#      x y z
#    x 1.622360 0.000000 0.000000 
#    y 0.000000 1.685540 0.000000 
#    z 0.000000 0.000000 1.645010 
# 
# From -- ./inp_files/15394.got.cif
#   From: 2010.05.17/outbox.cif.g08.bks.cpg/sg71_8_cif.got.tgz:15394.got - 2010.06.03 16:22:01.
