data_PCOD9519078
_publ_section_title
;
Structure prediction by ZEFSAII (Michael W. Deem and Ramdas Pophale) SiO2 
 PCOD9519078
Probable space group: I M M M
;
_chemical_formula_sum "Si O2"
_cell_formula_units_Z 88
_cell_length_a 8.727784
_cell_length_b 25.580320
_cell_length_c 21.274882
_cell_angle_alpha 90.000000
_cell_angle_beta 90.000000
_cell_angle_gamma 90.000000
_cell_volume 4749.819680
_symmetry_space_group_name_H-M "I M M M"
_symmetry_group_IT_number 71
_symmetry_cell_setting 'orthorhombic'
loop_
_space_group_symop_operation_xyz
x,y,z
-x,-y,z
x,-y,-z
-x,y,-z
-x,-y,-z
x,y,-z
-x,y,z
x,-y,z
1/2+x,1/2+y,1/2+z
1/2-x,1/2-y,1/2+z
1/2+x,1/2-y,1/2-z
1/2-x,1/2+y,1/2-z
1/2-x,1/2-y,1/2-z
1/2+x,1/2+y,1/2-z
1/2-x,1/2+y,1/2+z
1/2+x,1/2-y,1/2+z
loop_
_atom_site_type_symbol
_atom_site_label
_atom_site_fract_x
_atom_site_fract_y
_atom_site_fract_z
Si Si1 0.320173 0.709158 0.201255
Si Si2 0.318182 0.057665 0.605863
Si Si3 0.322703 0.897478 0.259998
Si Si4 0.314981 0.330605 0.930568
Si Si5 0.813113 0.939787 0.000000
Si Si6 0.323372 0.437037 0.364400
O O1 0.500000 0.719621 0.197913
O O2 0.250000 0.750000 0.250000
O O3 0.285470 0.651813 0.228255
O O4 0.260098 0.703919 0.129022
O O5 0.500000 0.060470 0.591941
O O6 0.300517 0.063441 0.681415
O O7 0.239884 0.109383 0.578261
O O8 0.262631 0.000000 0.585873
O O9 0.500000 0.880439 0.262018
O O10 0.281328 0.921547 0.193362
O O11 0.500000 0.330785 0.928212
O O12 0.266619 0.312406 0.000000
O O13 0.769527 0.916333 0.067332
O O14 0.000000 0.941275 0.000000
O O15 0.758693 0.000000 0.000000
O O16 0.500000 0.420273 0.353418
O O17 0.326239 0.500000 0.368946
#
# Coordination Sequence:
#
# PCOD9519078 Si02
#       6
#    16  16  16  16   8  16
#     4  10  20  36  58  79  99 125 162 207 256 307
#     4   9  18  31  46  69 104 142 175 206 241 284
#     4  10  19  31  48  71  99 130 166 207 251 296
#     4   9  19  35  54  77 104 134 167 205 251 301
#     4   7  12  24  41  61  87 123 163 199 239 289
#     4   9  16  27  45  68  95 129 167 205 247 296
#
# _framework density 18.527018000000002
#
# number of rings (size 3 to 8) (size 9 to 14) (size 15 to 20)
#    0.000    2.818    0.000    2.727    0.000    3.636 
#    0.000    2.273    2.000    1.636    0.000    0.000 
#    0.000    0.000    0.000    0.000    0.000    0.000 
#
# Total GULP energy -245011.257490 kJ/mol
# GULP energy per Si atom -5568.437670 kJ/mol
# Density = 1.848485 g / cm^3
# Si number density = 18.527018 Si / 1000 Ang^3
#
#
#
# Elastic Constant Matrix: (Units=GPa)
#
#
# Indices 1 2 3 4 5 6 
#
# 1 14.0461 7.8568 21.9642 0.0000 0.0000 0.0000
# 2 7.8568 50.8726 26.7950 0.0000 0.0000 0.0000
# 3 21.9642 26.7950 145.3458 0.0000 0.0000 0.0000
# 4 0.0000 0.0000 0.0000 9.9256 0.0000 0.0000
# 5 0.0000 0.0000 0.0000 0.0000 20.6636 0.0000
# 6 0.0000 0.0000 0.0000 0.0000 0.0000 24.3877
#
#
#
# Elastic Compliance Matrix: (Units=1/GPa)
#
#
# Indices 1 2 3 4 5 6 
#
# 1 0.096049 -0.007962 -0.013047 0.000000 0.000000 0.000000
# 2 -0.007962 0.022431 -0.002932 0.000000 0.000000 0.000000
# 3 -0.013047 -0.002932 0.009392 0.000000 0.000000 0.000000
# 4 0.000000 0.000000 0.000000 0.100749 0.000000 0.000000
# 5 0.000000 0.000000 0.000000 0.000000 0.048394 0.000000
# 6 0.000000 0.000000 0.000000 0.000000 0.000000 0.041004
#
#
# Mechanical properties :
#
#
# Convention : Reuss Voigt Hill
#
# Bulk Modulus (GPa) = 12.50146 35.94405 24.22276
# Shear Modulus (GPa) = 12.73673 21.23863 16.98768
#
# Velocity S-wave (km/s) = 2.62481 3.38947 3.03134
# Velocity P-wave (km/s) = 3.99355 5.89584 5.03535
#
# Compressibility (1/GPa) = 0.07999066
#
# Stress axis : x y z
#
# Youngs Moduli (GPa) = 10.41133 44.58135 106.47065
#
# Poissons Ratio (x) = 0.35496 1.38910
# Poissons Ratio (y) = 0.08290 0.31217
# Poissons Ratio (z) = 0.13583 0.13071
#
# Static dielectric constant tensor:
#      x y z
#    x 1.654360 0.000000 0.000000 
#    y 0.000000 1.620420 0.000000 
#    z 0.000000 0.000000 1.699480 
# 
# From -- ./inp_files/50504.got.cif
#   From: 2010.05.17/outbox.cif.g08.bks.cpg/sg71_26_cif.got.tgz:50504.got - 2010.06.03 16:22:01.
