data_PCOD9519760
_publ_section_title
;
Structure prediction by ZEFSAII (Michael W. Deem and Ramdas Pophale) SiO2 
 PCOD9519760
Probable space group: I M M M
;
_chemical_formula_sum "Si O2"
_cell_formula_units_Z 88
_cell_length_a 7.480506
_cell_length_b 19.115617
_cell_length_c 29.248665
_cell_angle_alpha 90.000000
_cell_angle_beta 90.000000
_cell_angle_gamma 90.000000
_cell_volume 4182.397866
_symmetry_space_group_name_H-M "I M M M"
_symmetry_group_IT_number 71
_symmetry_cell_setting 'orthorhombic'
loop_
_space_group_symop_operation_xyz
x,y,z
-x,-y,z
x,-y,-z
-x,y,-z
-x,-y,-z
x,y,-z
-x,y,z
x,-y,z
1/2+x,1/2+y,1/2+z
1/2-x,1/2-y,1/2+z
1/2+x,1/2-y,1/2-z
1/2-x,1/2+y,1/2-z
1/2-x,1/2-y,1/2-z
1/2+x,1/2+y,1/2-z
1/2-x,1/2+y,1/2+z
1/2+x,1/2-y,1/2+z
loop_
_atom_site_type_symbol
_atom_site_label
_atom_site_fract_x
_atom_site_fract_y
_atom_site_fract_z
Si Si1 0.710627 0.814735 0.283141
Si Si2 0.282201 0.922223 0.552955
Si Si3 0.281754 0.500000 0.552902
Si Si4 0.281725 0.364172 0.389230
Si Si5 0.711984 0.421933 0.292847
Si Si6 0.780624 0.292037 0.113896
O O1 0.500000 0.817937 0.288823
O O2 0.750000 0.750000 0.250000
O O3 0.764100 0.882869 0.254837
O O4 0.782775 0.803896 0.334007
O O5 0.229442 0.914578 0.500000
O O6 0.500000 0.921852 0.553931
O O7 0.221720 0.856788 0.582875
O O8 0.226418 0.000000 0.568874
O O9 0.500000 0.500000 0.553761
O O10 0.226484 0.500000 0.500000
O O11 0.224855 0.570590 0.579366
O O12 0.500000 0.364165 0.390212
O O13 0.222379 0.379248 0.337014
O O14 0.225906 0.285633 0.402212
O O15 0.500000 0.427064 0.300101
O O16 0.786872 0.500000 0.292679
O O17 0.000000 0.292114 0.113599
#
# Coordination Sequence:
#
# PCOD9519760 Si02
#       6
#    16  16   8  16  16  16
#     4  11  21  33  50  73 102 134 170 211 251 295
#     4   8  14  25  40  59  88 125 157 187 235 298
#     4   9  16  24  38  64  95 125 161 207 250 295
#     4   9  15  26  42  61  89 127 163 195 244 300
#     4  10  19  33  52  70  96 137 174 203 247 305
#     4   9  17  27  43  65  91 124 160 199 243 293
#
# _framework density 21.040562999999999
#
# number of rings (size 3 to 8) (size 9 to 14) (size 15 to 20)
#    0.000    2.636    2.727    1.091    0.000    1.818 
#    0.000    5.455    0.000    0.000    0.000    0.000 
#    0.000    5.818    0.000   10.000    0.000    8.727 
#
# Total GULP energy -245519.666090 kJ/mol
# GULP energy per Si atom -5579.992411 kJ/mol
# Density = 2.099267 g / cm^3
# Si number density = 21.040563 Si / 1000 Ang^3
#
#
#
# Elastic Constant Matrix: (Units=GPa)
#
#
# Indices 1 2 3 4 5 6 
#
# 1 54.7403 4.5118 -0.3862 0.0000 0.0000 0.0000
# 2 4.5118 234.8430 109.5358 0.0000 0.0000 0.0000
# 3 -0.3862 109.5358 127.2148 0.0000 0.0000 0.0000
# 4 0.0000 0.0000 0.0000 41.1632 0.0000 0.0000
# 5 0.0000 0.0000 0.0000 0.0000 8.7855 0.0000
# 6 0.0000 0.0000 0.0000 0.0000 0.0000 1.4300
#
#
#
# Elastic Compliance Matrix: (Units=1/GPa)
#
#
# Indices 1 2 3 4 5 6 
#
# 1 0.018324 -0.000632 0.000600 0.000000 0.000000 0.000000
# 2 -0.000632 0.007138 -0.006148 0.000000 0.000000 0.000000
# 3 0.000600 -0.006148 0.013156 0.000000 0.000000 0.000000
# 4 0.000000 0.000000 0.000000 0.024294 0.000000 0.000000
# 5 0.000000 0.000000 0.000000 0.000000 0.113824 0.000000
# 6 0.000000 0.000000 0.000000 0.000000 0.000000 0.699296
#
#
# Mechanical properties :
#
#
# Convention : Reuss Voigt Hill
#
# Bulk Modulus (GPa) = 38.08328 71.56900 54.82614
# Shear Modulus (GPa) = 5.57324 30.48485 18.02904
#
# Velocity S-wave (km/s) = 1.62928 3.81052 2.93041
# Velocity P-wave (km/s) = 4.65603 7.31086 6.12892
#
# Compressibility (1/GPa) = 0.02625824
#
# Stress axis : x y z
#
# Youngs Moduli (GPa) = 54.57217 140.10069 76.01148
#
# Poissons Ratio (x) = 0.08850 -0.04557
# Poissons Ratio (y) = 0.03447 0.46730
# Poissons Ratio (z) = -0.03272 0.86130
#
# Static dielectric constant tensor:
#      x y z
#    x 1.768160 0.000000 0.000000 
#    y 0.000000 1.746370 0.000000 
#    z 0.000000 0.000000 1.728740 
# 
# From -- ./inp_files/10442.got.cif
#   From: 2010.05.17/outbox.cif.g08.bks.cpg/sg71_6_cif.got.tgz:10442.got - 2010.06.03 16:22:01.
