data_PCOD9519576
_publ_section_title
;
Structure prediction by ZEFSAII (Michael W. Deem and Ramdas Pophale) SiO2 
 PCOD9519576
Probable space group: I M M M
;
_chemical_formula_sum "Si O2"
_cell_formula_units_Z 104
_cell_length_a 26.903850
_cell_length_b 24.134181
_cell_length_c 7.577981
_cell_angle_alpha 90.000000
_cell_angle_beta 90.000000
_cell_angle_gamma 90.000000
_cell_volume 4920.401141
_symmetry_space_group_name_H-M "I M M M"
_symmetry_group_IT_number 71
_symmetry_cell_setting 'orthorhombic'
loop_
_space_group_symop_operation_xyz
x,y,z
-x,-y,z
x,-y,-z
-x,y,-z
-x,-y,-z
x,y,-z
-x,y,z
x,-y,z
1/2+x,1/2+y,1/2+z
1/2-x,1/2-y,1/2+z
1/2+x,1/2-y,1/2-z
1/2-x,1/2+y,1/2-z
1/2-x,1/2-y,1/2-z
1/2+x,1/2+y,1/2-z
1/2-x,1/2+y,1/2+z
1/2+x,1/2-y,1/2+z
loop_
_atom_site_type_symbol
_atom_site_label
_atom_site_fract_x
_atom_site_fract_y
_atom_site_fract_z
Si Si1 0.442423 0.435764 0.784795
Si Si2 0.150736 0.727558 0.792271
Si Si3 0.202626 0.440326 0.713716
Si Si4 0.500000 0.063841 0.783418
Si Si5 0.102548 0.389049 0.287758
Si Si6 0.248114 0.174187 0.295908
Si Si7 0.861951 0.844697 0.704354
O O1 0.500000 0.424207 0.730443
O O2 0.430752 0.500000 0.734330
O O3 0.401623 0.389755 0.724955
O O4 0.442522 0.434303 0.000000
O O5 0.120435 0.671492 0.765528
O O6 0.207143 0.713432 0.722735
O O7 0.122350 0.780200 0.711496
O O8 0.155342 0.736939 0.000000
O O9 0.206279 0.437240 0.500000
O O10 0.222010 0.500000 0.770379
O O11 0.145100 0.432577 0.763139
O O12 0.229458 0.387351 0.789907
O O13 0.450729 0.093953 0.720429
O O14 0.500000 0.000000 0.732030
O O15 0.500000 0.064904 0.000000
O O16 0.101009 0.389660 0.500000
O O17 0.241614 0.190138 0.500000
O O18 0.193423 0.164304 0.214229
O O19 0.854326 0.861027 0.500000
#
# Coordination Sequence:
#
# PCOD9519576 Si02
#       7
#    16  16  16   8  16  16  16
#     4   8  15  30  52  77 102 124 150 194 250 299
#     4  10  20  34  49  68 100 136 166 199 245 296
#     4   9  17  29  46  69  98 131 164 200 246 297
#     4   9  16  28  51  79  99 121 164 217 256 285
#     4   9  17  31  50  71  96 128 166 208 249 289
#     4   9  19  32  47  70  99 131 166 204 245 291
#     4  10  19  32  53  78  98 123 164 205 241 288
#
# _framework density 21.136488
#
# number of rings (size 3 to 8) (size 9 to 14) (size 15 to 20)
#    0.000    2.846    0.000    1.846    0.000    4.000 
#    1.385    1.923    0.000    2.308    0.000    1.077 
#    0.000    0.000    0.000    0.000    0.000    0.000 
#
# Total GULP energy -289740.173239 kJ/mol
# GULP energy per Si atom -5571.926408 kJ/mol
# Density = 2.108838 g / cm^3
# Si number density = 21.136488 Si / 1000 Ang^3
#
#
#
# Elastic Constant Matrix: (Units=GPa)
#
#
# Indices 1 2 3 4 5 6 
#
# 1 126.9840 76.8419 11.6240 0.0000 0.0000 0.0000
# 2 76.8419 149.8136 8.2733 0.0000 0.0000 0.0000
# 3 11.6240 8.2733 44.3313 0.0000 0.0000 0.0000
# 4 0.0000 0.0000 0.0000 -36.6528 0.0000 0.0000
# 5 0.0000 0.0000 0.0000 0.0000 -538.5283 0.0000
# 6 0.0000 0.0000 0.0000 0.0000 0.0000 33.1823
#
#
#
# Elastic Compliance Matrix: (Units=1/GPa)
#
#
# Indices 1 2 3 4 5 6 
#
# 1 0.011584 -0.005834 -0.001949 0.000000 0.000000 0.000000
# 2 -0.005834 0.009683 -0.000277 0.000000 0.000000 0.000000
# 3 -0.001949 -0.000277 0.023120 0.000000 0.000000 0.000000
# 4 0.000000 0.000000 0.000000 -0.027283 0.000000 0.000000
# 5 0.000000 0.000000 0.000000 0.000000 -0.001857 0.000000
# 6 0.000000 0.000000 0.000000 0.000000 0.000000 0.030137
#
#
# Mechanical properties :
#
#
# Convention : Reuss Voigt Hill
#
# Bulk Modulus (GPa) = 35.37721 57.17860 46.27790
# Shear Modulus (GPa) = 70.49752 -93.44044 -11.47146
#
# Velocity S-wave (km/s) = 5.78151 -6.65613 -2.33219
# Velocity P-wave (km/s) = 7.83209 5.65343 3.83278
#
# Compressibility (1/GPa) = 0.02826679
#
# Stress axis : x y z
#
# Youngs Moduli (GPa) = 86.32895 103.27874 43.25243
#
# Poissons Ratio (x) = 0.60251 0.08428
# Poissons Ratio (y) = 0.50363 0.01199
# Poissons Ratio (z) = 0.16822 0.02864
#
# Static dielectric constant tensor:
#      x y z
#    x 1.788980 0.000000 0.000000 
#    y 0.000000 1.769610 0.000000 
#    z 0.000000 0.000000 1.824190 
# 
# From -- ./inp_files/15266.got.cif
#   From: 2010.05.17/outbox.cif.g08.bks.cpg/sg71_8_cif.got.tgz:15266.got - 2010.06.03 16:22:01.
