data_PCOD9519234
_publ_section_title
;
Structure prediction by ZEFSAII (Michael W. Deem and Ramdas Pophale) SiO2 
 PCOD9519234
Probable space group: I M M M
;
_chemical_formula_sum "Si O2"
_cell_formula_units_Z 96
_cell_length_a 7.762242
_cell_length_b 25.270730
_cell_length_c 22.201139
_cell_angle_alpha 90.000000
_cell_angle_beta 90.000000
_cell_angle_gamma 90.000000
_cell_volume 4354.920407
_symmetry_space_group_name_H-M "I M M M"
_symmetry_group_IT_number 71
_symmetry_cell_setting 'orthorhombic'
loop_
_space_group_symop_operation_xyz
x,y,z
-x,-y,z
x,-y,-z
-x,y,-z
-x,-y,-z
x,y,-z
-x,y,z
x,-y,z
1/2+x,1/2+y,1/2+z
1/2-x,1/2-y,1/2+z
1/2+x,1/2-y,1/2-z
1/2-x,1/2+y,1/2-z
1/2-x,1/2-y,1/2-z
1/2+x,1/2+y,1/2-z
1/2-x,1/2+y,1/2+z
1/2+x,1/2-y,1/2+z
loop_
_atom_site_type_symbol
_atom_site_label
_atom_site_fract_x
_atom_site_fract_y
_atom_site_fract_z
Si Si1 0.292682 0.636254 0.330804
Si Si2 0.295362 0.942093 0.727759
Si Si3 0.710427 0.560212 0.566630
Si Si4 0.801050 0.941716 0.409626
Si Si5 0.797388 0.323408 0.933742
Si Si6 0.207373 0.746544 0.178557
O O1 0.500000 0.637981 0.334038
O O2 0.249241 0.608240 0.267961
O O3 0.223875 0.597613 0.381744
O O4 0.232465 0.695432 0.341882
O O5 0.500000 0.941769 0.717956
O O6 0.208547 0.939826 0.662915
O O7 0.248747 0.000000 0.755696
O O8 0.760435 0.577752 0.500000
O O9 0.500000 0.560134 0.568602
O O10 0.766071 0.500000 0.575402
O O11 0.717760 0.887086 0.430356
O O12 0.000000 0.940486 0.428371
O O13 0.729153 0.000000 0.426962
O O14 0.728844 0.296395 0.871362
O O15 0.000000 0.310082 0.935042
O O16 0.725232 0.307033 0.000000
O O17 0.250000 0.750000 0.250000
O O18 0.000000 0.742250 0.177666
#
# Coordination Sequence:
#
# PCOD9519234 Si02
#       6
#    16  16  16  16  16  16
#     4  10  19  31  51  77 103 136 181 229 274 322
#     4  10  20  33  51  78 112 146 180 222 275 335
#     4   8  14  25  43  70 102 132 164 208 262 316
#     4  10  21  37  58  84 112 141 177 224 275 327
#     4  10  22  40  60  83 115 153 189 227 276 336
#     4  10  22  38  56  80 109 144 186 231 277 323
#
# _framework density 22.044032000000001
#
# number of rings (size 3 to 8) (size 9 to 14) (size 15 to 20)
#    0.000    2.333    0.000    3.000    0.000    8.000 
#    0.000    5.000    0.000    0.500    0.000    4.667 
#    0.000    0.000    0.000    0.000    0.000    0.000 
#
# Total GULP energy -267659.173360 kJ/mol
# GULP energy per Si atom -5576.232778 kJ/mol
# Density = 2.199386 g / cm^3
# Si number density = 22.044032 Si / 1000 Ang^3
#
#
#
# Elastic Constant Matrix: (Units=GPa)
#
#
# Indices 1 2 3 4 5 6 
#
# 1 29.7985 12.8826 5.5029 0.0000 0.0000 0.0000
# 2 12.8826 94.0177 74.6888 0.0000 0.0000 0.0000
# 3 5.5029 74.6888 154.4196 0.0000 0.0000 0.0000
# 4 0.0000 0.0000 0.0000 -109.7780 0.0000 0.0000
# 5 0.0000 0.0000 0.0000 0.0000 5.5016 0.0000
# 6 0.0000 0.0000 0.0000 0.0000 0.0000 17.2740
#
#
#
# Elastic Compliance Matrix: (Units=1/GPa)
#
#
# Indices 1 2 3 4 5 6 
#
# 1 0.035974 -0.006351 0.001790 0.000000 0.000000 0.000000
# 2 -0.006351 0.018395 -0.008671 0.000000 0.000000 0.000000
# 3 0.001790 -0.008671 0.010606 0.000000 0.000000 0.000000
# 4 0.000000 0.000000 0.000000 -0.009109 0.000000 0.000000
# 5 0.000000 0.000000 0.000000 0.000000 0.181764 0.000000
# 6 0.000000 0.000000 0.000000 0.000000 0.000000 0.057891
#
#
# Mechanical properties :
#
#
# Convention : Reuss Voigt Hill
#
# Bulk Modulus (GPa) = 25.96689 51.59826 38.78258
# Shear Modulus (GPa) = 14.93337 -5.05637 4.93850
#
# Velocity S-wave (km/s) = 2.60558 -1.51616 1.49838
# Velocity P-wave (km/s) = 4.56697 4.51583 4.54147
#
# Compressibility (1/GPa) = 0.03851058
#
# Stress axis : x y z
#
# Youngs Moduli (GPa) = 27.79785 54.36358 94.28749
#
# Poissons Ratio (x) = 0.34528 -0.16877
# Poissons Ratio (y) = 0.17655 0.81754
# Poissons Ratio (z) = -0.04976 0.47137
#
# Static dielectric constant tensor:
#      x y z
#    x 1.820290 0.000000 0.000000 
#    y 0.000000 1.821500 0.000000 
#    z 0.000000 0.000000 1.840680 
# 
# From -- ./inp_files/56151.got.cif
#   From: 2010.05.17/outbox.cif.g08.bks.cpg/sg71_29_cif.got.tgz:56151.got - 2010.06.03 16:22:01.
