data_PCOD9519821
_publ_section_title
;
Structure prediction by ZEFSAII (Michael W. Deem and Ramdas Pophale) SiO2 
 PCOD9519821
Probable space group: I M M M
;
_chemical_formula_sum "Si O2"
_cell_formula_units_Z 104
_cell_length_a 21.673479
_cell_length_b 7.482229
_cell_length_c 29.921249
_cell_angle_alpha 90.000000
_cell_angle_beta 90.000000
_cell_angle_gamma 90.000000
_cell_volume 4852.207264
_symmetry_space_group_name_H-M "I M M M"
_symmetry_group_IT_number 71
_symmetry_cell_setting 'orthorhombic'
loop_
_space_group_symop_operation_xyz
x,y,z
-x,-y,z
x,-y,-z
-x,y,-z
-x,-y,-z
x,y,-z
-x,y,z
x,-y,z
1/2+x,1/2+y,1/2+z
1/2-x,1/2-y,1/2+z
1/2+x,1/2-y,1/2-z
1/2-x,1/2+y,1/2-z
1/2-x,1/2-y,1/2-z
1/2+x,1/2+y,1/2-z
1/2-x,1/2+y,1/2+z
1/2+x,1/2-y,1/2+z
loop_
_atom_site_type_symbol
_atom_site_label
_atom_site_fract_x
_atom_site_fract_y
_atom_site_fract_z
Si Si1 0.182618 0.214893 0.695152
Si Si2 0.271105 0.786963 0.051375
Si Si3 0.870045 0.713043 0.949902
Si Si4 0.500000 0.280626 0.948127
Si Si5 0.114186 0.204216 0.611058
Si Si6 0.178946 0.713608 0.799058
Si Si7 0.431545 0.219090 0.638802
O O1 0.134070 0.285317 0.658727
O O2 0.167817 0.251898 0.746695
O O3 0.252839 0.282767 0.688131
O O4 0.184307 0.000000 0.689572
O O5 0.200886 0.744124 0.064346
O O6 0.322667 0.705210 0.082791
O O7 0.278824 0.000000 0.052535
O O8 0.278997 0.725972 0.000000
O O9 0.878547 0.500000 0.952676
O O10 0.915072 0.778274 0.911396
O O11 0.877970 0.786768 0.000000
O O12 0.500000 0.500000 0.949966
O O13 0.560223 0.220227 0.920295
O O14 0.500000 0.222096 0.000000
O O15 0.094646 0.000000 0.619856
O O16 0.181408 0.500000 0.805111
O O17 0.122940 0.781460 0.828859
O O18 0.500000 0.274988 0.652108
O O19 0.430729 0.000000 0.639138
#
# Coordination Sequence:
#
# PCOD9519821 Si02
#       7
#    16  16  16   8  16  16  16
#     4   9  18  32  51  74  98 124 160 209 256 292
#     4  10  20  32  48  73 103 132 164 206 254 298
#     4   9  17  30  50  75 101 131 168 208 248 292
#     4   9  18  32  51  75 101 131 167 205 248 303
#     4  10  19  33  53  75  99 130 169 210 253 303
#     4   9  17  31  50  71  97 130 165 201 247 301
#     4   9  17  30  49  74 103 133 166 205 248 294
#
# _framework density 21.433544999999999
#
# number of rings (size 3 to 8) (size 9 to 14) (size 15 to 20)
#    0.000    2.692    0.000    1.846    0.000    4.923 
#    1.385    5.769    0.000    2.769    0.000    2.154 
#    0.000    0.000    0.000    0.000    0.000    0.000 
#
# Total GULP energy -290264.352018 kJ/mol
# GULP energy per Si atom -5582.006770 kJ/mol
# Density = 2.138476 g / cm^3
# Si number density = 21.433545 Si / 1000 Ang^3
#
#
#
# Elastic Constant Matrix: (Units=GPa)
#
#
# Indices 1 2 3 4 5 6 
#
# 1 117.7380 2.3860 95.6102 0.0000 0.0000 0.0000
# 2 2.3860 64.1236 2.4948 0.0000 0.0000 0.0000
# 3 95.6102 2.4948 117.2113 0.0000 0.0000 0.0000
# 4 0.0000 0.0000 0.0000 11.1467 0.0000 0.0000
# 5 0.0000 0.0000 0.0000 0.0000 38.0257 0.0000
# 6 0.0000 0.0000 0.0000 0.0000 0.0000 -58.8591
#
#
#
# Elastic Compliance Matrix: (Units=1/GPa)
#
#
# Indices 1 2 3 4 5 6 
#
# 1 0.025160 -0.000138 -0.020520 0.000000 0.000000 0.000000
# 2 -0.000138 0.015609 -0.000220 0.000000 0.000000 0.000000
# 3 -0.020520 -0.000220 0.025275 0.000000 0.000000 0.000000
# 4 0.000000 0.000000 0.000000 0.089713 0.000000 0.000000
# 5 0.000000 0.000000 0.000000 0.000000 0.026298 0.000000
# 6 0.000000 0.000000 0.000000 0.000000 0.000000 -0.016990
#
#
# Mechanical properties :
#
#
# Convention : Reuss Voigt Hill
#
# Bulk Modulus (GPa) = 41.17331 55.56166 48.36749
# Shear Modulus (GPa) = 23.26502 11.30146 17.28324
#
# Velocity S-wave (km/s) = 3.29819 2.29875 2.84274
# Velocity P-wave (km/s) = 5.80995 5.74671 5.77842
#
# Compressibility (1/GPa) = 0.02428758
#
# Stress axis : x y z
#
# Youngs Moduli (GPa) = 39.74607 64.06741 39.56532
#
# Poissons Ratio (x) = 0.00883 0.81188
# Poissons Ratio (y) = 0.00548 0.00870
# Poissons Ratio (z) = 0.81559 0.01408
#
# Static dielectric constant tensor:
#      x y z
#    x 1.747480 0.000000 0.000000 
#    y 0.000000 1.860160 0.000000 
#    z 0.000000 0.000000 1.768650 
# 
# From -- ./inp_files/66443.got.cif
#   From: 2010.05.17/outbox.cif.g08.bks.cpg/sg71_34_cif.got.tgz:66443.got - 2010.06.03 16:22:01.
