data_PCOD9519890
_publ_section_title
;
Structure prediction by ZEFSAII (Michael W. Deem and Ramdas Pophale) SiO2 
 PCOD9519890
Probable space group: I M M M
;
_chemical_formula_sum "Si O2"
_cell_formula_units_Z 104
_cell_length_a 22.062040
_cell_length_b 7.895950
_cell_length_c 28.849513
_cell_angle_alpha 90.000000
_cell_angle_beta 90.000000
_cell_angle_gamma 90.000000
_cell_volume 5025.607227
_symmetry_space_group_name_H-M "I M M M"
_symmetry_group_IT_number 71
_symmetry_cell_setting 'orthorhombic'
loop_
_space_group_symop_operation_xyz
x,y,z
-x,-y,z
x,-y,-z
-x,y,-z
-x,-y,-z
x,y,-z
-x,y,z
x,-y,z
1/2+x,1/2+y,1/2+z
1/2-x,1/2-y,1/2+z
1/2+x,1/2-y,1/2-z
1/2-x,1/2+y,1/2-z
1/2-x,1/2-y,1/2-z
1/2+x,1/2+y,1/2-z
1/2-x,1/2+y,1/2+z
1/2+x,1/2-y,1/2+z
loop_
_atom_site_type_symbol
_atom_site_label
_atom_site_fract_x
_atom_site_fract_y
_atom_site_fract_z
Si Si1 0.430694 0.206457 0.450315
Si Si2 0.627004 0.697085 0.095179
Si Si3 0.752198 0.695509 0.552079
Si Si4 0.500000 0.802305 0.055219
Si Si5 0.931218 0.204640 0.685969
Si Si6 0.569602 0.203478 0.707473
Si Si7 0.157401 0.296658 0.128276
O O1 0.405717 0.260133 0.500000
O O2 0.500000 0.258456 0.447182
O O3 0.392460 0.267268 0.408094
O O4 0.429837 0.000000 0.449308
O O5 0.644802 0.500000 0.097021
O O6 0.676886 0.787422 0.064066
O O7 0.560571 0.714976 0.073489
O O8 0.616966 0.763864 0.147681
O O9 0.740554 0.772326 0.500000
O O10 0.735525 0.500000 0.548802
O O11 0.718249 0.759593 0.598821
O O12 0.500000 0.000000 0.069389
O O13 0.500000 0.795496 0.000000
O O14 0.919505 0.256060 0.738702
O O15 0.000000 0.263006 0.674548
O O16 0.931590 0.000000 0.683521
O O17 0.500000 0.264795 0.695656
O O18 0.627053 0.264718 0.676632
O O19 0.566770 0.000000 0.701944
O O20 0.157303 0.500000 0.131900
#
# Coordination Sequence:
#
# PCOD9519890 Si02
#       7
#    16  16  16   8  16  16  16
#     4   8  13  22  41  71 102 131 169 222 279 327
#     4  11  22  39  62  87 113 146 192 237 278 331
#     4  11  25  42  57  78 112 151 191 235 286 344
#     4  11  23  37  57  89 125 153 179 221 282 345
#     4   9  18  35  57  84 116 146 180 226 281 337
#     4   9  18  32  54  87 120 148 185 235 287 337
#     4  10  19  33  54  79 108 145 191 235 276 331
#
# _framework density 20.694016999999999
#
# number of rings (size 3 to 8) (size 9 to 14) (size 15 to 20)
#    0.000    2.231    0.769    3.000    0.000    8.000 
#    0.000    0.769    0.000    1.385    0.000    5.385 
#    0.000    0.000    0.000    0.000    0.000    0.000 
#
# Total GULP energy -289624.624686 kJ/mol
# GULP energy per Si atom -5569.704321 kJ/mol
# Density = 2.064692 g / cm^3
# Si number density = 20.694017 Si / 1000 Ang^3
#
#
#
# Elastic Constant Matrix: (Units=GPa)
#
#
# Indices 1 2 3 4 5 6 
#
# 1 80.8032 -3.0595 38.8114 0.0000 0.0000 0.0000
# 2 -3.0595 27.4881 8.0186 0.0000 0.0000 0.0000
# 3 38.8114 8.0186 95.2097 0.0000 0.0000 0.0000
# 4 0.0000 0.0000 0.0000 19.9016 0.0000 0.0000
# 5 0.0000 0.0000 0.0000 0.0000 37.6365 0.0000
# 6 0.0000 0.0000 0.0000 0.0000 0.0000 -3.8013
#
#
#
# Elastic Compliance Matrix: (Units=1/GPa)
#
#
# Indices 1 2 3 4 5 6 
#
# 1 0.015751 0.003717 -0.006734 0.000000 0.000000 0.000000
# 2 0.003717 0.038173 -0.004730 0.000000 0.000000 0.000000
# 3 -0.006734 -0.004730 0.013646 0.000000 0.000000 0.000000
# 4 0.000000 0.000000 0.000000 0.050247 0.000000 0.000000
# 5 0.000000 0.000000 0.000000 0.000000 0.026570 0.000000
# 6 0.000000 0.000000 0.000000 0.000000 0.000000 -0.263066
#
#
# Mechanical properties :
#
#
# Convention : Reuss Voigt Hill
#
# Bulk Modulus (GPa) = 19.20234 32.33801 25.77017
# Shear Modulus (GPa) = -58.25761 21.39605 -18.43078
#
# Velocity S-wave (km/s) = -5.31159 3.21896 -2.98759
# Velocity P-wave (km/s) = 5.32147 5.42920 0.76099
#
# Compressibility (1/GPa) = 0.05207700
#
# Stress axis : x y z
#
# Youngs Moduli (GPa) = 63.48859 26.19651 73.27897
#
# Poissons Ratio (x) = -0.09738 0.49344
# Poissons Ratio (y) = -0.23601 0.34663
# Poissons Ratio (z) = 0.42752 0.12392
#
# Static dielectric constant tensor:
#      x y z
#    x 1.762010 0.000000 0.000000 
#    y 0.000000 1.782130 0.000000 
#    z 0.000000 0.000000 1.778860 
# 
# From -- ./inp_files/66446.got.cif
#   From: 2010.05.17/outbox.cif.g08.bks.cpg/sg71_34_cif.got.tgz:66446.got - 2010.06.03 16:22:01.
