data_PCOD9519361
_publ_section_title
;
Structure prediction by ZEFSAII (Michael W. Deem and Ramdas Pophale) SiO2 
 PCOD9519361
Probable space group: I M M M
;
_chemical_formula_sum "Si O2"
_cell_formula_units_Z 120
_cell_length_a 28.159569
_cell_length_b 8.473979
_cell_length_c 29.113838
_cell_angle_alpha 90.000000
_cell_angle_beta 90.000000
_cell_angle_gamma 90.000000
_cell_volume 6947.248727
_symmetry_space_group_name_H-M "I M M M"
_symmetry_group_IT_number 71
_symmetry_cell_setting 'orthorhombic'
loop_
_space_group_symop_operation_xyz
x,y,z
-x,-y,z
x,-y,-z
-x,y,-z
-x,-y,-z
x,y,-z
-x,y,z
x,-y,z
1/2+x,1/2+y,1/2+z
1/2-x,1/2-y,1/2+z
1/2+x,1/2-y,1/2-z
1/2-x,1/2+y,1/2-z
1/2-x,1/2-y,1/2-z
1/2+x,1/2+y,1/2-z
1/2-x,1/2+y,1/2+z
1/2+x,1/2-y,1/2+z
loop_
_atom_site_type_symbol
_atom_site_label
_atom_site_fract_x
_atom_site_fract_y
_atom_site_fract_z
Si Si1 0.814243 0.313282 0.710820
Si Si2 0.051891 0.312370 0.791946
Si Si3 0.944099 0.500000 0.445418
Si Si4 0.944498 0.176024 0.594921
Si Si5 0.946266 0.190338 0.946354
Si Si6 0.414938 0.680610 0.198122
Si Si7 0.785806 0.690079 0.184245
Si Si8 0.376206 0.808983 0.369251
O O1 0.822634 0.500000 0.707758
O O2 0.859736 0.222272 0.692261
O O3 0.807514 0.274103 0.765076
O O4 0.765873 0.267790 0.684950
O O5 0.050254 0.500000 0.799215
O O6 0.064859 0.284064 0.739248
O O7 0.091468 0.251356 0.826615
O O8 0.000000 0.244544 0.801938
O O9 0.942524 0.500000 0.500000
O O10 0.923315 0.665851 0.427455
O O11 0.000000 0.500000 0.430872
O O12 0.940624 0.198987 0.649610
O O13 0.000000 0.169858 0.581397
O O14 0.924439 0.000000 0.584371
O O15 0.903991 0.253393 0.914467
O O16 0.000000 0.242605 0.931939
O O17 0.945848 0.000000 0.944147
O O18 0.940330 0.235036 0.000000
O O19 0.420312 0.500000 0.212826
O O20 0.780361 0.500000 0.182343
O O21 0.822628 0.740214 0.144507
O O22 0.375466 0.000000 0.369808
#
# Coordination Sequence:
#
# PCOD9519361 Si02
#       8
#    16  16   8  16  16  16  16  16
#     4  10  19  32  50  70  96 131 170 206 248 294
#     4  10  20  32  46  67  98 136 172 207 246 290
#     4   9  18  32  52  76  98 130 172 210 255 301
#     4   9  19  33  48  72 105 137 171 213 254 301
#     4   9  19  35  52  72 101 135 171 215 265 313
#     4  11  21  32  47  69 100 137 173 205 244 299
#     4   9  18  33  49  69  99 128 161 208 254 296
#     4  10  19  33  51  73 100 130 168 212 258 309
#
# _framework density 17.273025000000001
#
# number of rings (size 3 to 8) (size 9 to 14) (size 15 to 20)
#    0.000    2.333    1.333    2.000    1.867    3.733 
#    0.000    2.000    0.000    0.000    0.000    0.933 
#    0.000    4.267    0.000    0.000    0.000    0.000 
#
# Total GULP energy -334331.562815 kJ/mol
# GULP energy per Si atom -5572.192714 kJ/mol
# Density = 1.723371 g / cm^3
# Si number density = 17.273025 Si / 1000 Ang^3
#
#
#
# Elastic Constant Matrix: (Units=GPa)
#
#
# Indices 1 2 3 4 5 6 
#
# 1 43.5829 -6.3106 8.1743 0.0000 0.0000 0.0000
# 2 -6.3106 32.2103 16.9736 0.0000 0.0000 0.0000
# 3 8.1743 16.9736 38.5791 0.0000 0.0000 0.0000
# 4 0.0000 0.0000 0.0000 -7.7655 0.0000 0.0000
# 5 0.0000 0.0000 0.0000 0.0000 17.9071 0.0000
# 6 0.0000 0.0000 0.0000 0.0000 0.0000 17.1001
#
#
#
# Elastic Compliance Matrix: (Units=1/GPa)
#
#
# Indices 1 2 3 4 5 6 
#
# 1 0.026396 0.010569 -0.010243 0.000000 0.000000 0.000000
# 2 0.010569 0.044648 -0.021883 0.000000 0.000000 0.000000
# 3 -0.010243 -0.021883 0.037719 0.000000 0.000000 0.000000
# 4 0.000000 0.000000 0.000000 -0.128774 0.000000 0.000000
# 5 0.000000 0.000000 0.000000 0.000000 0.055844 0.000000
# 6 0.000000 0.000000 0.000000 0.000000 0.000000 0.058479
#
#
# Mechanical properties :
#
#
# Convention : Reuss Voigt Hill
#
# Bulk Modulus (GPa) = 15.23240 16.89409 16.06324
# Shear Modulus (GPa) = 31.38544 11.81735 21.60140
#
# Velocity S-wave (km/s) = 4.26728 2.61846 3.54020
# Velocity P-wave (km/s) = 5.75476 4.35243 5.10201
#
# Compressibility (1/GPa) = 0.06564952
#
# Stress axis : x y z
#
# Youngs Moduli (GPa) = 37.88407 22.39724 26.51183
#
# Poissons Ratio (x) = -0.23672 0.27156
# Poissons Ratio (y) = -0.40041 0.58017
# Poissons Ratio (z) = 0.38805 0.49012
#
# Static dielectric constant tensor:
#      x y z
#    x 1.600600 0.000000 0.000000 
#    y 0.000000 1.620200 0.000000 
#    z 0.000000 0.000000 1.567790 
# 
# From -- ./inp_files/63781.got.cif
#   From: 2010.05.17/outbox.cif.g08.bks.cpg/sg71_32_cif.got.tgz:63781.got - 2010.06.03 16:22:01.
