data_PCOD9519814
_publ_section_title
;
Structure prediction by ZEFSAII (Michael W. Deem and Ramdas Pophale) SiO2 
 PCOD9519814
Probable space group: I M M M
;
_chemical_formula_sum "Si O2"
_cell_formula_units_Z 112
_cell_length_a 14.598700
_cell_length_b 24.849374
_cell_length_c 18.246603
_cell_angle_alpha 90.000000
_cell_angle_beta 90.000000
_cell_angle_gamma 90.000000
_cell_volume 6619.293826
_symmetry_space_group_name_H-M "I M M M"
_symmetry_group_IT_number 71
_symmetry_cell_setting 'orthorhombic'
loop_
_space_group_symop_operation_xyz
x,y,z
-x,-y,z
x,-y,-z
-x,y,-z
-x,-y,-z
x,y,-z
-x,y,z
x,-y,z
1/2+x,1/2+y,1/2+z
1/2-x,1/2-y,1/2+z
1/2+x,1/2-y,1/2-z
1/2-x,1/2+y,1/2-z
1/2-x,1/2-y,1/2-z
1/2+x,1/2+y,1/2-z
1/2-x,1/2+y,1/2+z
1/2+x,1/2-y,1/2+z
loop_
_atom_site_type_symbol
_atom_site_label
_atom_site_fract_x
_atom_site_fract_y
_atom_site_fract_z
Si Si1 0.603836 0.600640 0.419956
Si Si2 0.392877 0.837391 0.799550
Si Si3 0.392604 0.088997 0.418213
Si Si4 0.900470 0.938076 0.760255
Si Si5 0.255675 0.699470 0.415337
Si Si6 0.298176 0.062141 0.269656
Si Si7 0.604701 0.790123 0.363124
O O1 0.615675 0.574254 0.500000
O O2 0.500000 0.623314 0.418943
O O3 0.609635 0.564132 0.348323
O O4 0.678140 0.647334 0.412793
O O5 0.500000 0.838402 0.819408
O O6 0.329019 0.811597 0.861514
O O7 0.357755 0.897625 0.779950
O O8 0.384382 0.805003 0.722714
O O9 0.361943 0.074553 0.500000
O O10 0.500000 0.074720 0.411084
O O11 0.337825 0.063631 0.351458
O O12 0.386845 0.153456 0.406320
O O13 0.805939 0.915309 0.729513
O O14 0.000000 0.913025 0.742197
O O15 0.903743 0.000000 0.736341
O O16 0.227771 0.707437 0.500000
O O17 0.318989 0.748635 0.388856
O O18 0.297704 0.000000 0.243542
O O19 0.500000 0.770180 0.374460
#
# Coordination Sequence:
#
# PCOD9519814 Si02
#       7
#    16  16  16  16  16  16  16
#     4   9  17  28  44  70  98 121 155 204 251 291
#     4  10  21  36  51  72 102 134 173 213 249 293
#     4   9  18  32  51  78 107 130 159 207 263 308
#     4   9  17  30  48  69  95 127 162 203 253 303
#     4  11  20  31  50  74 100 133 168 202 244 296
#     4  10  19  33  53  74  98 133 172 208 252 305
#     4   9  18  33  54  77 101 129 162 205 256 307
#
# _framework density 16.920235000000002
#
# number of rings (size 3 to 8) (size 9 to 14) (size 15 to 20)
#    0.000    2.429    1.429    2.571    0.000    3.429 
#    0.000    2.143    0.000    0.857    0.000    3.000 
#    0.000    0.000    0.000    0.000    0.000    0.000 
#
# Total GULP energy -311944.362582 kJ/mol
# GULP energy per Si atom -5570.435046 kJ/mol
# Density = 1.688172 g / cm^3
# Si number density = 16.920235 Si / 1000 Ang^3
#
#
#
# Elastic Constant Matrix: (Units=GPa)
#
#
# Indices 1 2 3 4 5 6 
#
# 1 107.5676 26.3355 47.9820 0.0000 0.0000 0.0000
# 2 26.3355 43.0217 15.4935 0.0000 0.0000 0.0000
# 3 47.9820 15.4935 76.8934 0.0000 0.0000 0.0000
# 4 0.0000 0.0000 0.0000 8.3799 0.0000 0.0000
# 5 0.0000 0.0000 0.0000 0.0000 28.4183 0.0000
# 6 0.0000 0.0000 0.0000 0.0000 0.0000 20.5457
#
#
#
# Elastic Compliance Matrix: (Units=1/GPa)
#
#
# Indices 1 2 3 4 5 6 
#
# 1 0.014152 -0.005912 -0.007640 0.000000 0.000000 0.000000
# 2 -0.005912 0.027532 -0.001859 0.000000 0.000000 0.000000
# 3 -0.007640 -0.001859 0.018147 0.000000 0.000000 0.000000
# 4 0.000000 0.000000 0.000000 0.119333 0.000000 0.000000
# 5 0.000000 0.000000 0.000000 0.000000 0.035189 0.000000
# 6 0.000000 0.000000 0.000000 0.000000 0.000000 0.048672
#
#
# Mechanical properties :
#
#
# Convention : Reuss Voigt Hill
#
# Bulk Modulus (GPa) = 34.46989 45.23387 39.85188
# Shear Modulus (GPa) = 16.47372 20.64689 18.56031
#
# Velocity S-wave (km/s) = 3.12366 3.49700 3.31559
# Velocity P-wave (km/s) = 5.78151 6.56483 6.18558
#
# Compressibility (1/GPa) = 0.02901083
#
# Stress axis : x y z
#
# Youngs Moduli (GPa) = 70.66387 36.32114 55.10668
#
# Poissons Ratio (x) = 0.21471 0.42099
# Poissons Ratio (y) = 0.41773 0.10243
# Poissons Ratio (z) = 0.53984 0.06751
#
# Static dielectric constant tensor:
#      x y z
#    x 1.585140 0.000000 0.000000 
#    y 0.000000 1.579370 0.000000 
#    z 0.000000 0.000000 1.567230 
# 
# From -- ./inp_files/35128.got.cif
#   From: 2010.05.17/outbox.cif.g08.bks.cpg/sg71_18_cif.got.tgz:35128.got - 2010.06.03 16:22:01.
