data_PCOD9519644
_publ_section_title
;
Structure prediction by ZEFSAII (Michael W. Deem and Ramdas Pophale) SiO2 
 PCOD9519644
Probable space group: I M M M
;
_chemical_formula_sum "Si O2"
_cell_formula_units_Z 120
_cell_length_a 27.672549
_cell_length_b 28.162638
_cell_length_c 8.861902
_cell_angle_alpha 90.000000
_cell_angle_beta 90.000000
_cell_angle_gamma 90.000000
_cell_volume 6906.363632
_symmetry_space_group_name_H-M "I M M M"
_symmetry_group_IT_number 71
_symmetry_cell_setting 'orthorhombic'
loop_
_space_group_symop_operation_xyz
x,y,z
-x,-y,z
x,-y,-z
-x,y,-z
-x,-y,-z
x,y,-z
-x,y,z
x,-y,z
1/2+x,1/2+y,1/2+z
1/2-x,1/2-y,1/2+z
1/2+x,1/2-y,1/2-z
1/2-x,1/2+y,1/2-z
1/2-x,1/2-y,1/2-z
1/2+x,1/2+y,1/2-z
1/2-x,1/2+y,1/2+z
1/2+x,1/2-y,1/2+z
loop_
_atom_site_type_symbol
_atom_site_label
_atom_site_fract_x
_atom_site_fract_y
_atom_site_fract_z
Si Si1 0.555333 0.812520 0.818334
Si Si2 0.409468 0.389754 0.678882
Si Si3 0.790611 0.446262 0.816367
Si Si4 0.820062 0.056342 0.680171
Si Si5 0.500000 0.444471 0.819147
Si Si6 0.852033 0.643262 0.181340
Si Si7 0.300413 0.765675 0.179950
Si Si8 0.601676 0.288260 0.820567
O O1 0.500000 0.821764 0.776436
O O2 0.594311 0.846718 0.741901
O O3 0.570246 0.758231 0.780287
O O4 0.560139 0.816433 0.000000
O O5 0.413319 0.393003 0.500000
O O6 0.359101 0.412356 0.734654
O O7 0.452701 0.419009 0.754863
O O8 0.411794 0.335260 0.731800
O O9 0.801145 0.500000 0.765103
O O10 0.735395 0.433787 0.773626
O O11 0.828663 0.406564 0.769015
O O12 0.790639 0.447155 0.000000
O O13 0.824317 0.064941 0.500000
O O14 0.828737 0.000000 0.704469
O O15 0.500000 0.500000 0.777755
O O16 0.500000 0.440967 0.000000
O O17 0.819189 0.685704 0.246351
O O18 0.851765 0.645335 0.000000
O O19 0.250000 0.750000 0.250000
O O20 0.342764 0.727069 0.207134
O O21 0.296403 0.771660 0.000000
O O22 0.595851 0.296820 0.000000
#
# Coordination Sequence:
#
# PCOD9519644 Si02
#       8
#    16  16  16  16   8  16  16  16
#     4   9  19  37  59  80 105 142 183 224 271 326
#     4  12  25  37  54  83 112 136 169 228 290 325
#     4   8  16  32  55  82 111 145 185 223 259 312
#     4   9  18  35  57  77 101 141 187 221 258 321
#     4  11  25  45  65  79  97 139 191 229 272 339
#     4  10  19  32  54  84 112 142 181 225 277 325
#     4  10  21  36  54  77 110 148 184 222 266 319
#     4   9  20  37  55  76 103 143 185 217 259 323
#
# _framework density 17.37528
#
# number of rings (size 3 to 8) (size 9 to 14) (size 15 to 20)
#    0.000    2.333    0.000    4.200    2.800    5.333 
#    0.000    0.667    0.000    3.600    0.000    2.800 
#    0.000    0.000    0.000    0.000    0.000    0.000 
#
# Total GULP energy -334929.480493 kJ/mol
# GULP energy per Si atom -5582.158008 kJ/mol
# Density = 1.733573 g / cm^3
# Si number density = 17.375280 Si / 1000 Ang^3
#
#
#
# Elastic Constant Matrix: (Units=GPa)
#
#
# Indices 1 2 3 4 5 6 
#
# 1 144.9155 87.7501 47.4216 0.0000 0.0000 0.0000
# 2 87.7501 121.4196 51.4670 0.0000 0.0000 0.0000
# 3 47.4216 51.4670 48.2754 0.0000 0.0000 0.0000
# 4 0.0000 0.0000 0.0000 21.5296 0.0000 0.0000
# 5 0.0000 0.0000 0.0000 0.0000 18.8976 0.0000
# 6 0.0000 0.0000 0.0000 0.0000 0.0000 14.3856
#
#
#
# Elastic Compliance Matrix: (Units=1/GPa)
#
#
# Indices 1 2 3 4 5 6 
#
# 1 0.012896 -0.007207 -0.004984 0.000000 0.000000 0.000000
# 2 -0.007207 0.019054 -0.013234 0.000000 0.000000 0.000000
# 3 -0.004984 -0.013234 0.039720 0.000000 0.000000 0.000000
# 4 0.000000 0.000000 0.000000 0.046448 0.000000 0.000000
# 5 0.000000 0.000000 0.000000 0.000000 0.052917 0.000000
# 6 0.000000 0.000000 0.000000 0.000000 0.000000 0.069514
#
#
# Mechanical properties :
#
#
# Convention : Reuss Voigt Hill
#
# Bulk Modulus (GPa) = 48.03384 76.43197 62.23290
# Shear Modulus (GPa) = 16.75952 19.49401 18.12677
#
# Velocity S-wave (km/s) = 3.10911 3.35317 3.23344
# Velocity P-wave (km/s) = 6.37132 7.68610 7.05938
#
# Compressibility (1/GPa) = 0.02081866
#
# Stress axis : x y z
#
# Youngs Moduli (GPa) = 77.54609 52.48203 25.17654
#
# Poissons Ratio (x) = 0.37824 0.12548
# Poissons Ratio (y) = 0.55888 0.33319
# Poissons Ratio (z) = 0.38649 0.69456
#
# Static dielectric constant tensor:
#      x y z
#    x 1.579830 0.000000 0.000000 
#    y 0.000000 1.575870 0.000000 
#    z 0.000000 0.000000 1.583020 
# 
# From -- ./inp_files/15676.got.cif
#   From: 2010.05.17/outbox.cif.g08.bks.cpg/sg71_8_cif.got.tgz:15676.got - 2010.06.03 16:22:01.
