data_PCOD9519457
_publ_section_title
;
Structure prediction by ZEFSAII (Michael W. Deem and Ramdas Pophale) SiO2 
 PCOD9519457
Probable space group: I M M M
;
_chemical_formula_sum "Si O2"
_cell_formula_units_Z 96
_cell_length_a 14.834830
_cell_length_b 26.378427
_cell_length_c 13.912515
_cell_angle_alpha 90.000000
_cell_angle_beta 90.000000
_cell_angle_gamma 90.000000
_cell_volume 5444.238138
_symmetry_space_group_name_H-M "I M M M"
_symmetry_group_IT_number 71
_symmetry_cell_setting 'orthorhombic'
loop_
_space_group_symop_operation_xyz
x,y,z
-x,-y,z
x,-y,-z
-x,y,-z
-x,-y,-z
x,y,-z
-x,y,z
x,-y,z
1/2+x,1/2+y,1/2+z
1/2-x,1/2-y,1/2+z
1/2+x,1/2-y,1/2-z
1/2-x,1/2+y,1/2-z
1/2-x,1/2-y,1/2-z
1/2+x,1/2+y,1/2-z
1/2-x,1/2+y,1/2+z
1/2+x,1/2-y,1/2+z
loop_
_atom_site_type_symbol
_atom_site_label
_atom_site_fract_x
_atom_site_fract_y
_atom_site_fract_z
Si Si1 0.898473 0.289242 0.887085
Si Si2 0.279832 0.402571 0.386995
Si Si3 0.100225 0.000000 0.115853
Si Si4 0.105441 0.818091 0.213187
Si Si5 0.500000 0.061221 0.391792
Si Si6 0.281480 0.644873 0.887505
Si Si7 0.814632 0.560843 0.785921
O O1 0.887471 0.239957 0.820498
O O2 0.814078 0.326160 0.872524
O O3 0.000000 0.310361 0.869993
O O4 0.896088 0.273875 0.000000
O O5 0.260286 0.403570 0.500000
O O6 0.345518 0.449465 0.360595
O O7 0.332753 0.352173 0.356841
O O8 0.195035 0.413316 0.318526
O O9 0.000000 0.000000 0.156802
O O10 0.093697 0.000000 0.000000
O O11 0.144981 0.829045 0.318945
O O12 0.000000 0.832553 0.206197
O O13 0.500000 0.082793 0.500000
O O14 0.409548 0.073238 0.335100
O O15 0.500000 0.000000 0.400483
O O16 0.262114 0.587941 0.850102
O O17 0.303558 0.646256 0.000000
O O18 0.805627 0.500000 0.780491
#
# Coordination Sequence:
#
# PCOD9519457 Si02
#       7
#    16  16   8  16   8  16  16
#     4   9  18  33  54  80 106 130 165 216 270 318
#     4  10  19  32  51  76 106 136 170 212 259 313
#     4   9  16  26  44  69  95 126 164 205 245 292
#     4  10  20  34  53  77 106 141 177 215 261 313
#     4   9  18  32  51  73  97 129 174 218 253 296
#     4  10  21  34  52  77 105 139 177 219 264 310
#     4  10  20  34  52  77 106 137 173 216 263 313
#
# _framework density 17.633322
#
# number of rings (size 3 to 8) (size 9 to 14) (size 15 to 20)
#    0.000    2.333    0.833    2.000    1.167    3.000 
#    0.000    0.417    0.000    1.500    0.000    2.333 
#    0.000    0.000    0.000    0.000    0.000    0.000 
#
# Total GULP energy -267625.310566 kJ/mol
# GULP energy per Si atom -5575.527303 kJ/mol
# Density = 1.759319 g / cm^3
# Si number density = 17.633322 Si / 1000 Ang^3
#
#
#
# Elastic Constant Matrix: (Units=GPa)
#
#
# Indices 1 2 3 4 5 6 
#
# 1 67.9623 18.9875 50.8997 0.0000 0.0000 0.0000
# 2 18.9875 59.7375 32.4691 0.0000 0.0000 0.0000
# 3 50.8997 32.4691 126.4747 0.0000 0.0000 0.0000
# 4 0.0000 0.0000 0.0000 18.6865 0.0000 0.0000
# 5 0.0000 0.0000 0.0000 0.0000 25.2404 0.0000
# 6 0.0000 0.0000 0.0000 0.0000 0.0000 21.3986
#
#
#
# Elastic Compliance Matrix: (Units=1/GPa)
#
#
# Indices 1 2 3 4 5 6 
#
# 1 0.021369 -0.002461 -0.007968 0.000000 0.000000 0.000000
# 2 -0.002461 0.019738 -0.004077 0.000000 0.000000 0.000000
# 3 -0.007968 -0.004077 0.012160 0.000000 0.000000 0.000000
# 4 0.000000 0.000000 0.000000 0.053515 0.000000 0.000000
# 5 0.000000 0.000000 0.000000 0.000000 0.039619 0.000000
# 6 0.000000 0.000000 0.000000 0.000000 0.000000 0.046732
#
#
# Mechanical properties :
#
#
# Convention : Reuss Voigt Hill
#
# Bulk Modulus (GPa) = 41.22837 50.98745 46.10791
# Shear Modulus (GPa) = 21.71733 23.18630 22.45182
#
# Velocity S-wave (km/s) = 3.51323 3.63011 3.57215
# Velocity P-wave (km/s) = 6.31576 6.82264 6.57409
#
# Compressibility (1/GPa) = 0.02425514
#
# Stress axis : x y z
#
# Youngs Moduli (GPa) = 46.79579 50.66369 82.23600
#
# Poissons Ratio (x) = 0.12470 0.65528
# Poissons Ratio (y) = 0.11518 0.33525
# Poissons Ratio (z) = 0.37288 0.20654
#
# Static dielectric constant tensor:
#      x y z
#    x 1.605290 0.000000 0.000000 
#    y 0.000000 1.616650 0.000000 
#    z 0.000000 0.000000 1.595440 
# 
# From -- ./inp_files/22591.got.cif
#   From: 2010.05.17/outbox.cif.g08.bks.cpg/sg71_12_cif.got.tgz:22591.got - 2010.06.03 16:22:01.
