data_PCOD9519376
_publ_section_title
;
Structure prediction by ZEFSAII (Michael W. Deem and Ramdas Pophale) SiO2 
 PCOD9519376
Probable space group: I M M M
;
_chemical_formula_sum "Si O2"
_cell_formula_units_Z 72
_cell_length_a 21.914923
_cell_length_b 9.446785
_cell_length_c 16.013451
_cell_angle_alpha 90.000000
_cell_angle_beta 90.000000
_cell_angle_gamma 90.000000
_cell_volume 3315.193755
_symmetry_space_group_name_H-M "I M M M"
_symmetry_group_IT_number 71
_symmetry_cell_setting 'orthorhombic'
loop_
_space_group_symop_operation_xyz
x,y,z
-x,-y,z
x,-y,-z
-x,y,-z
-x,-y,-z
x,y,-z
-x,y,z
x,-y,z
1/2+x,1/2+y,1/2+z
1/2-x,1/2-y,1/2+z
1/2+x,1/2-y,1/2-z
1/2-x,1/2+y,1/2-z
1/2-x,1/2-y,1/2-z
1/2+x,1/2+y,1/2-z
1/2-x,1/2+y,1/2+z
1/2+x,1/2-y,1/2+z
loop_
_atom_site_type_symbol
_atom_site_label
_atom_site_fract_x
_atom_site_fract_y
_atom_site_fract_z
Si Si1 0.096990 0.339518 0.657983
Si Si2 0.927194 0.659740 0.842721
Si Si3 0.242591 0.337569 0.664106
Si Si4 0.925176 0.160006 0.000000
Si Si5 0.754285 0.835652 0.500000
Si Si6 0.596156 0.661433 0.000000
O O1 0.072349 0.500000 0.653533
O O2 0.084001 0.282005 0.750336
O O3 0.169884 0.349271 0.651030
O O4 0.075353 0.243499 0.582496
O O5 0.901188 0.500000 0.846716
O O6 0.000000 0.648225 0.852813
O O7 0.905487 0.756849 0.917586
O O8 0.266548 0.500000 0.669272
O O9 0.250000 0.250000 0.750000
O O10 0.264811 0.248704 0.583670
O O11 0.000000 0.156748 0.000000
O O12 0.903207 0.000000 0.000000
O O13 0.829067 0.838577 0.500000
O O14 0.734138 0.000000 0.500000
O O15 0.576337 0.500000 0.000000
#
# Coordination Sequence:
#
# PCOD9519376 Si02
#       6
#    16  16  16   8   8   8
#     4   9  18  32  50  71  95 124 157 194 234 276
#     4   9  17  31  51  72  93 121 158 195 230 273
#     4  10  19  32  50  72  97 125 158 195 236 281
#     4   9  17  29  46  69  96 125 155 189 232 279
#     4   9  17  31  50  71  94 123 160 197 234 279
#     4   9  17  29  48  71  94 124 159 193 230 277
#
# _framework density 21.718188999999999
#
# number of rings (size 3 to 8) (size 9 to 14) (size 15 to 20)
#    0.000    2.778    0.000    1.667    0.000    5.778 
#    0.000    1.667    0.000    6.000    0.000    0.000 
#    0.000    0.000    0.000    0.000    0.000    0.000 
#
# Total GULP energy -201038.418537 kJ/mol
# GULP energy per Si atom -5584.400515 kJ/mol
# Density = 2.166876 g / cm^3
# Si number density = 21.718189 Si / 1000 Ang^3
#
#
#
# Elastic Constant Matrix: (Units=GPa)
#
#
# Indices 1 2 3 4 5 6 
#
# 1 54.9397 5.9660 -3.0245 0.0000 0.0000 0.0000
# 2 5.9660 173.5734 152.5793 0.0000 0.0000 0.0000
# 3 -3.0245 152.5793 266.3605 0.0000 0.0000 0.0000
# 4 0.0000 0.0000 0.0000 -3.5215 0.0000 0.0000
# 5 0.0000 0.0000 0.0000 0.0000 21.1031 0.0000
# 6 0.0000 0.0000 0.0000 0.0000 0.0000 5.6374
#
#
#
# Elastic Compliance Matrix: (Units=1/GPa)
#
#
# Indices 1 2 3 4 5 6 
#
# 1 0.018444 -0.001648 0.001153 0.000000 0.000000 0.000000
# 2 -0.001648 0.011752 -0.006751 0.000000 0.000000 0.000000
# 3 0.001153 -0.006751 0.007634 0.000000 0.000000 0.000000
# 4 0.000000 0.000000 0.000000 -0.283971 0.000000 0.000000
# 5 0.000000 0.000000 0.000000 0.000000 0.047386 0.000000
# 6 0.000000 0.000000 0.000000 0.000000 0.000000 0.177385
#
#
# Mechanical properties :
#
#
# Convention : Reuss Voigt Hill
#
# Bulk Modulus (GPa) = 42.84413 89.54613 66.19513
# Shear Modulus (GPa) = 5546.53794 27.26733 2786.90263
#
# Velocity S-wave (km/s) = 50.59063 3.54716 35.86080
# Velocity P-wave (km/s) = 58.58600 7.62213 41.77569
#
# Compressibility (1/GPa) = 0.02334042
#
# Stress axis : x y z
#
# Youngs Moduli (GPa) = 54.21756 85.09188 130.98673
#
# Poissons Ratio (x) = 0.14022 -0.15107
# Poissons Ratio (y) = 0.08934 0.88424
# Poissons Ratio (z) = -0.06253 0.57442
#
# Static dielectric constant tensor:
#      x y z
#    x 1.842840 0.000000 0.000000 
#    y 0.000000 1.766480 0.000000 
#    z 0.000000 0.000000 1.767690 
# 
# From -- ./inp_files/6142.got.cif
#   From: 2010.05.17/outbox.cif.g08.bks.cpg/sg71_4_cif.got.tgz:6142.got - 2010.06.03 16:22:01.
