data_PCOD9519675
_publ_section_title
;
Structure prediction by ZEFSAII (Michael W. Deem and Ramdas Pophale) SiO2 
 PCOD9519675
Probable space group: I M M M
;
_chemical_formula_sum "Si O2"
_cell_formula_units_Z 88
_cell_length_a 27.934911
_cell_length_b 19.672011
_cell_length_c 8.890372
_cell_angle_alpha 90.000000
_cell_angle_beta 90.000000
_cell_angle_gamma 90.000000
_cell_volume 4885.578369
_symmetry_space_group_name_H-M "I M M M"
_symmetry_group_IT_number 71
_symmetry_cell_setting 'orthorhombic'
loop_
_space_group_symop_operation_xyz
x,y,z
-x,-y,z
x,-y,-z
-x,y,-z
-x,-y,-z
x,y,-z
-x,y,z
x,-y,z
1/2+x,1/2+y,1/2+z
1/2-x,1/2-y,1/2+z
1/2+x,1/2-y,1/2-z
1/2-x,1/2+y,1/2-z
1/2-x,1/2-y,1/2-z
1/2+x,1/2+y,1/2-z
1/2-x,1/2+y,1/2+z
1/2+x,1/2-y,1/2+z
loop_
_atom_site_type_symbol
_atom_site_label
_atom_site_fract_x
_atom_site_fract_y
_atom_site_fract_z
Si Si1 0.706409 0.830734 0.679233
Si Si2 0.685597 0.685255 0.821047
Si Si3 0.087557 0.162531 0.821322
Si Si4 0.382665 0.921735 0.319752
Si Si5 0.000000 0.080935 0.321897
Si Si6 0.557199 0.196501 0.825216
O O1 0.704123 0.815256 0.500000
O O2 0.689148 0.763710 0.766986
O O3 0.761870 0.844505 0.715840
O O4 0.670379 0.892123 0.709504
O O5 0.640908 0.650099 0.740751
O O6 0.678682 0.682812 0.000000
O O7 0.047146 0.114510 0.749971
O O8 0.074788 0.239265 0.770528
O O9 0.086465 0.157146 0.000000
O O10 0.390646 0.917230 0.500000
O O11 0.418914 0.871753 0.236344
O O12 0.387254 0.000000 0.274516
O O13 0.000000 0.095837 0.500000
O O14 0.000000 0.000000 0.299959
O O15 0.500000 0.192560 0.814802
O O16 0.570281 0.207451 0.000000
#
# Coordination Sequence:
#
# PCOD9519675 Si02
#       6
#    16  16  16  16   8  16
#     4   9  18  33  53  81 115 151 194 242 295 349
#     4  10  19  32  55  85 116 150 193 244 291 342
#     4  12  23  37  61  90 121 155 193 239 290 348
#     4  10  21  37  57  82 116 156 198 245 298 356
#     4  11  25  45  67  91 120 153 190 235 293 357
#     4  11  23  38  58  84 115 151 198 249 291 343
#
# _framework density 18.012198000000001
#
# number of rings (size 3 to 8) (size 9 to 14) (size 15 to 20)
#    0.000    1.545    2.727    3.000    0.000    3.273 
#    0.000    2.727    0.000    3.273    0.000    0.000 
#    0.000    0.000    0.000    0.000    0.000    0.000 
#
# Total GULP energy -245794.478927 kJ/mol
# GULP energy per Si atom -5586.238157 kJ/mol
# Density = 1.797120 g / cm^3
# Si number density = 18.012198 Si / 1000 Ang^3
#
#
#
# Elastic Constant Matrix: (Units=GPa)
#
#
# Indices 1 2 3 4 5 6 
#
# 1 113.3174 16.8803 56.9599 0.0000 0.0000 0.0000
# 2 16.8803 36.5638 33.5565 0.0000 0.0000 0.0000
# 3 56.9599 33.5565 90.9087 0.0000 0.0000 0.0000
# 4 0.0000 0.0000 0.0000 23.7916 0.0000 0.0000
# 5 0.0000 0.0000 0.0000 0.0000 32.2571 0.0000
# 6 0.0000 0.0000 0.0000 0.0000 0.0000 25.6451
#
#
#
# Elastic Compliance Matrix: (Units=1/GPa)
#
#
# Indices 1 2 3 4 5 6 
#
# 1 0.013001 0.002229 -0.008969 0.000000 0.000000 0.000000
# 2 0.002229 0.041743 -0.016805 0.000000 0.000000 0.000000
# 3 -0.008969 -0.016805 0.022822 0.000000 0.000000 0.000000
# 4 0.000000 0.000000 0.000000 0.042032 0.000000 0.000000
# 5 0.000000 0.000000 0.000000 0.000000 0.031001 0.000000
# 6 0.000000 0.000000 0.000000 0.000000 0.000000 0.038994
#
#
# Mechanical properties :
#
#
# Convention : Reuss Voigt Hill
#
# Bulk Modulus (GPa) = 32.81131 50.62037 41.71584
# Shear Modulus (GPa) = 20.25596 25.23164 22.74380
#
# Velocity S-wave (km/s) = 3.35710 3.74680 3.55729
# Velocity P-wave (km/s) = 5.76910 6.84707 6.33107
#
# Compressibility (1/GPa) = 0.03047730
#
# Stress axis : x y z
#
# Youngs Moduli (GPa) = 76.91802 23.95608 43.81659
#
# Poissons Ratio (x) = -0.05339 0.39297
# Poissons Ratio (y) = -0.17144 0.73633
# Poissons Ratio (z) = 0.68984 0.40258
#
# Static dielectric constant tensor:
#      x y z
#    x 1.632410 0.000000 0.000000 
#    y 0.000000 1.578850 0.000000 
#    z 0.000000 0.000000 1.607480 
# 
# From -- ./inp_files/16648.got.cif
#   From: 2010.05.17/outbox.cif.g08.bks.cpg/sg71_9_cif.got.tgz:16648.got - 2010.06.03 16:22:01.
