data_PCOD9519332
_publ_section_title
;
Structure prediction by ZEFSAII (Michael W. Deem and Ramdas Pophale) SiO2 
 PCOD9519332
Probable space group: I M M M
;
_chemical_formula_sum "Si O2"
_cell_formula_units_Z 104
_cell_length_a 7.535515
_cell_length_b 26.047240
_cell_length_c 24.808978
_cell_angle_alpha 90.000000
_cell_angle_beta 90.000000
_cell_angle_gamma 90.000000
_cell_volume 4869.490516
_symmetry_space_group_name_H-M "I M M M"
_symmetry_group_IT_number 71
_symmetry_cell_setting 'orthorhombic'
loop_
_space_group_symop_operation_xyz
x,y,z
-x,-y,z
x,-y,-z
-x,y,-z
-x,-y,-z
x,y,-z
-x,y,z
x,-y,z
1/2+x,1/2+y,1/2+z
1/2-x,1/2-y,1/2+z
1/2+x,1/2-y,1/2-z
1/2-x,1/2+y,1/2-z
1/2-x,1/2-y,1/2-z
1/2+x,1/2+y,1/2-z
1/2-x,1/2+y,1/2+z
1/2+x,1/2-y,1/2+z
loop_
_atom_site_type_symbol
_atom_site_label
_atom_site_fract_x
_atom_site_fract_y
_atom_site_fract_z
Si Si1 0.714963 0.782728 0.335546
Si Si2 0.788099 0.500000 0.438011
Si Si3 0.291252 0.387283 0.439008
Si Si4 0.781645 0.832968 0.834390
Si Si5 0.797057 0.116466 0.270268
Si Si6 0.706792 0.057074 0.374792
Si Si7 0.716677 0.843731 0.438806
O O1 0.500000 0.785350 0.331430
O O2 0.772463 0.725313 0.322131
O O3 0.789705 0.827170 0.297673
O O4 0.763868 0.799147 0.396567
O O5 0.722191 0.500000 0.500000
O O6 0.727276 0.554718 0.416424
O O7 0.000000 0.500000 0.437950
O O8 0.215660 0.384961 0.500000
O O9 0.500000 0.376542 0.443792
O O10 0.220511 0.349287 0.393725
O O11 0.720817 0.873078 0.788904
O O12 0.000000 0.833670 0.833530
O O13 0.713854 0.078015 0.313528
O O14 0.000000 0.099842 0.264603
O O15 0.500000 0.053396 0.389427
O O16 0.780561 0.102468 0.412583
O O17 0.784443 0.000000 0.379658
O O18 0.776478 0.836820 0.500000
O O19 0.500000 0.845108 0.439447
#
# Coordination Sequence:
#
# PCOD9519332 Si02
#       7
#    16   8  16  16  16  16  16
#     4   9  17  31  50  70  97 128 157 194 236 279
#     4   9  17  31  49  67  91 123 155 187 228 279
#     4   9  17  31  51  72  94 122 156 195 240 288
#     4   9  18  31  48  73  98 122 157 198 238 282
#     4  10  19  32  49  69  95 127 162 197 236 283
#     4   9  18  33  51  70  96 128 160 200 243 284
#     4   8  14  25  45  74 100 122 152 190 235 282
#
# _framework density 21.357471
#
# number of rings (size 3 to 8) (size 9 to 14) (size 15 to 20)
#    0.000    3.000    0.000    2.077    0.000    2.154 
#    1.385    7.692    0.000    7.385    0.000    4.308 
#    0.000    0.000    0.000    0.000    0.000    0.000 
#
# Total GULP energy -289899.543279 kJ/mol
# GULP energy per Si atom -5574.991217 kJ/mol
# Density = 2.130886 g / cm^3
# Si number density = 21.357471 Si / 1000 Ang^3
#
#
#
# Elastic Constant Matrix: (Units=GPa)
#
#
# Indices 1 2 3 4 5 6 
#
# 1 51.3570 -12.5797 -4.9558 0.0000 0.0000 0.0000
# 2 -12.5797 15.4403 -14.8674 0.0000 0.0000 0.0000
# 3 -4.9558 -14.8674 86.3818 0.0000 0.0000 0.0000
# 4 0.0000 0.0000 0.0000 11.9394 0.0000 0.0000
# 5 0.0000 0.0000 0.0000 0.0000 9.3012 0.0000
# 6 0.0000 0.0000 0.0000 0.0000 0.0000 -33.6479
#
#
#
# Elastic Compliance Matrix: (Units=1/GPa)
#
#
# Indices 1 2 3 4 5 6 
#
# 1 0.026979 0.028134 0.006390 0.000000 0.000000 0.000000
# 2 0.028134 0.106969 0.020025 0.000000 0.000000 0.000000
# 3 0.006390 0.020025 0.015390 0.000000 0.000000 0.000000
# 4 0.000000 0.000000 0.000000 0.083756 0.000000 0.000000
# 5 0.000000 0.000000 0.000000 0.000000 0.107513 0.000000
# 6 0.000000 0.000000 0.000000 0.000000 0.000000 -0.029720
#
#
# Mechanical properties :
#
#
# Convention : Reuss Voigt Hill
#
# Bulk Modulus (GPa) = 3.86943 9.81926 6.84435
# Shear Modulus (GPa) = 17.36499 9.89067 13.62783
#
# Velocity S-wave (km/s) = 2.85452 2.15431 2.52877
# Velocity P-wave (km/s) = 3.56091 3.28567 3.42606
#
# Compressibility (1/GPa) = 0.25843587
#
# Stress axis : x y z
#
# Youngs Moduli (GPa) = 37.06522 9.34849 64.97883
#
# Poissons Ratio (x) = -0.26301 -0.41522
# Poissons Ratio (y) = -1.04279 -1.30119
# Poissons Ratio (z) = -0.23685 -0.18720
#
# Static dielectric constant tensor:
#      x y z
#    x 1.815530 0.000000 0.000000 
#    y 0.000000 1.760150 0.000000 
#    z 0.000000 0.000000 1.782340 
# 
# From -- ./inp_files/13287.got.cif
#   From: 2010.05.17/outbox.cif.g08.bks.cpg/sg71_7_cif.got.tgz:13287.got - 2010.06.03 16:22:01.
