data_PCOD9519119
_publ_section_title
;
Structure prediction by ZEFSAII (Michael W. Deem and Ramdas Pophale) SiO2 
 PCOD9519119
Probable space group: I M M M
;
_chemical_formula_sum "Si O2"
_cell_formula_units_Z 88
_cell_length_a 18.639677
_cell_length_b 7.697057
_cell_length_c 28.666394
_cell_angle_alpha 90.000000
_cell_angle_beta 90.000000
_cell_angle_gamma 90.000000
_cell_volume 4112.786362
_symmetry_space_group_name_H-M "I M M M"
_symmetry_group_IT_number 71
_symmetry_cell_setting 'orthorhombic'
loop_
_space_group_symop_operation_xyz
x,y,z
-x,-y,z
x,-y,-z
-x,y,-z
-x,-y,-z
x,y,-z
-x,y,z
x,-y,z
1/2+x,1/2+y,1/2+z
1/2-x,1/2-y,1/2+z
1/2+x,1/2-y,1/2-z
1/2-x,1/2+y,1/2-z
1/2-x,1/2-y,1/2-z
1/2+x,1/2+y,1/2-z
1/2-x,1/2+y,1/2+z
1/2+x,1/2-y,1/2+z
loop_
_atom_site_type_symbol
_atom_site_label
_atom_site_fract_x
_atom_site_fract_y
_atom_site_fract_z
Si Si1 0.079538 0.786238 0.755980
Si Si2 0.856401 0.802646 0.848215
Si Si3 0.151830 0.796375 0.419033
Si Si4 0.805877 0.707794 0.050735
Si Si5 0.000000 0.198937 0.444680
Si Si6 0.202117 0.202420 0.313935
O O1 0.092032 0.723642 0.809008
O O2 0.146431 0.728492 0.724175
O O3 0.000000 0.736640 0.739281
O O4 0.082015 0.000000 0.755272
O O5 0.848257 0.737431 0.901046
O O6 0.777876 0.793201 0.823560
O O7 0.879158 0.000000 0.853345
O O8 0.224699 0.722785 0.441279
O O9 0.075217 0.717131 0.430736
O O10 0.162871 0.793329 0.363762
O O11 0.148665 0.000000 0.434336
O O12 0.800359 0.500000 0.048211
O O13 0.833292 0.769426 0.000000
O O14 0.000000 0.186181 0.500000
O O15 0.000000 0.000000 0.424509
O O16 0.218452 0.000000 0.303197
#
# Coordination Sequence:
#
# PCOD9519119 Si02
#       6
#    16  16  16  16   8  16
#     4   9  18  31  49  73  99 127 162 206 248 284
#     4  10  19  31  49  73 100 128 159 198 244 295
#     4   8  14  22  36  61  89 115 146 188 232 270
#     4   9  17  31  50  70  93 122 159 202 245 288
#     4   9  14  18  28  52  87 117 141 181 232 269
#     4   9  17  30  49  70  94 127 165 201 236 281
#
# _framework density 21.396687
#
# number of rings (size 3 to 8) (size 9 to 14) (size 15 to 20)
#    0.000    3.000    0.000    2.727    1.273    2.545 
#    0.000    0.909    0.000    5.455    0.000    3.818 
#    0.000    6.909    0.000    0.000    0.000    0.000 
#
# Total GULP energy -245095.161262 kJ/mol
# GULP energy per Si atom -5570.344574 kJ/mol
# Density = 2.134799 g / cm^3
# Si number density = 21.396687 Si / 1000 Ang^3
#
#
#
# Elastic Constant Matrix: (Units=GPa)
#
#
# Indices 1 2 3 4 5 6 
#
# 1 15.2858 -7.8636 7.3950 0.0000 0.0000 0.0000
# 2 -7.8636 32.0962 7.2089 0.0000 0.0000 0.0000
# 3 7.3950 7.2089 105.2301 0.0000 0.0000 0.0000
# 4 0.0000 0.0000 0.0000 13.7336 0.0000 0.0000
# 5 0.0000 0.0000 0.0000 0.0000 10.1194 0.0000
# 6 0.0000 0.0000 0.0000 0.0000 0.0000 3.8212
#
#
#
# Elastic Compliance Matrix: (Units=1/GPa)
#
#
# Indices 1 2 3 4 5 6 
#
# 1 0.079687 0.021106 -0.007046 0.000000 0.000000 0.000000
# 2 0.021106 0.037233 -0.004034 0.000000 0.000000 0.000000
# 3 -0.007046 -0.004034 0.010274 0.000000 0.000000 0.000000
# 4 0.000000 0.000000 0.000000 0.072814 0.000000 0.000000
# 5 0.000000 0.000000 0.000000 0.000000 0.098820 0.000000
# 6 0.000000 0.000000 0.000000 0.000000 0.000000 0.261696
#
#
# Mechanical properties :
#
#
# Convention : Reuss Voigt Hill
#
# Bulk Modulus (GPa) = 6.79134 18.45475 12.62305
# Shear Modulus (GPa) = 8.48097 15.25961 11.87029
#
# Velocity S-wave (km/s) = 1.99306 2.67343 2.35792
# Velocity P-wave (km/s) = 2.91158 4.26303 3.65039
#
# Compressibility (1/GPa) = 0.14724632
#
# Stress axis : x y z
#
# Youngs Moduli (GPa) = 12.54917 26.85771 97.32856
#
# Poissons Ratio (x) = -0.56685 0.68576
# Poissons Ratio (y) = -0.26486 0.39262
# Poissons Ratio (z) = 0.08842 0.10834
#
# Static dielectric constant tensor:
#      x y z
#    x 1.776420 0.000000 0.000000 
#    y 0.000000 1.816840 0.000000 
#    z 0.000000 0.000000 1.796190 
# 
# From -- ./inp_files/16847.got.cif
#   From: 2010.05.17/outbox.cif.g08.bks.cpg/sg71_9_cif.got.tgz:16847.got - 2010.06.03 16:22:01.
