data_PCOD9519613
_publ_section_title
;
Structure prediction by ZEFSAII (Michael W. Deem and Ramdas Pophale) SiO2 
 PCOD9519613
Probable space group: I M M M
;
_chemical_formula_sum "Si O2"
_cell_formula_units_Z 96
_cell_length_a 23.518827
_cell_length_b 10.777941
_cell_length_c 20.078610
_cell_angle_alpha 90.000000
_cell_angle_beta 90.000000
_cell_angle_gamma 90.000000
_cell_volume 5089.617015
_symmetry_space_group_name_H-M "I M M M"
_symmetry_group_IT_number 71
_symmetry_cell_setting 'orthorhombic'
loop_
_space_group_symop_operation_xyz
x,y,z
-x,-y,z
x,-y,-z
-x,y,-z
-x,-y,-z
x,y,-z
-x,y,z
x,-y,z
1/2+x,1/2+y,1/2+z
1/2-x,1/2-y,1/2+z
1/2+x,1/2-y,1/2-z
1/2-x,1/2+y,1/2-z
1/2-x,1/2-y,1/2-z
1/2+x,1/2+y,1/2-z
1/2-x,1/2+y,1/2+z
1/2+x,1/2-y,1/2+z
loop_
_atom_site_type_symbol
_atom_site_label
_atom_site_fract_x
_atom_site_fract_y
_atom_site_fract_z
Si Si1 0.362489 0.642693 0.579276
Si Si2 0.747709 0.138041 0.844652
Si Si3 0.434798 0.729812 0.211761
Si Si4 0.931457 0.358909 0.427979
Si Si5 0.066686 0.640790 0.151068
Si Si6 0.815931 0.867185 0.705018
O O1 0.369012 0.653437 0.500000
O O2 0.378793 0.500000 0.598487
O O3 0.296643 0.657071 0.600620
O O4 0.398474 0.750086 0.615328
O O5 0.781260 0.138004 0.774114
O O6 0.703896 0.250489 0.838706
O O7 0.722461 0.000000 0.853095
O O8 0.500000 0.682023 0.214206
O O9 0.422436 0.782794 0.138599
O O10 0.430441 0.833381 0.269561
O O11 0.382195 0.639768 0.223807
O O12 0.911147 0.309293 0.500000
O O13 0.910535 0.500000 0.421050
O O14 0.000000 0.365585 0.431913
O O15 0.086410 0.500000 0.136701
O O16 0.000000 0.649539 0.132374
O O17 0.803486 0.000000 0.672528
#
# Coordination Sequence:
#
# PCOD9519613 Si02
#       6
#    16  16  16  16  16  16
#     4  10  21  39  61  83 111 148 192 241 290 341
#     4   9  19  37  57  80 106 138 183 234 285 334
#     4  10  19  32  53  82 116 152 188 231 279 331
#     4   8  14  26  45  70 102 140 181 223 267 318
#     4  10  21  35  53  82 119 155 193 237 285 340
#     4  10  20  35  56  83 110 141 182 230 281 334
#
# _framework density 18.861930000000001
#
# number of rings (size 3 to 8) (size 9 to 14) (size 15 to 20)
#    0.000    2.500    1.667    1.000    0.000    5.333 
#    0.000    4.167    0.000    3.500    0.000    2.333 
#    0.000    0.000    0.000    0.000    0.000    0.000 
#
# Total GULP energy -267305.408922 kJ/mol
# GULP energy per Si atom -5568.862686 kJ/mol
# Density = 1.881900 g / cm^3
# Si number density = 18.861930 Si / 1000 Ang^3
#
#
#
# Elastic Constant Matrix: (Units=GPa)
#
#
# Indices 1 2 3 4 5 6 
#
# 1 82.2493 67.3852 19.6019 0.0000 0.0000 0.0000
# 2 67.3852 135.4581 39.2777 0.0000 0.0000 0.0000
# 3 19.6019 39.2777 63.4796 0.0000 0.0000 0.0000
# 4 0.0000 0.0000 0.0000 3.5972 0.0000 0.0000
# 5 0.0000 0.0000 0.0000 0.0000 21.0989 0.0000
# 6 0.0000 0.0000 0.0000 0.0000 0.0000 16.9021
#
#
#
# Elastic Compliance Matrix: (Units=1/GPa)
#
#
# Indices 1 2 3 4 5 6 
#
# 1 0.020522 -0.010202 -0.000025 0.000000 0.000000 0.000000
# 2 -0.010202 0.014068 -0.005554 0.000000 0.000000 0.000000
# 3 -0.000025 -0.005554 0.019197 0.000000 0.000000 0.000000
# 4 0.000000 0.000000 0.000000 0.277992 0.000000 0.000000
# 5 0.000000 0.000000 0.000000 0.000000 0.047396 0.000000
# 6 0.000000 0.000000 0.000000 0.000000 0.000000 0.059164
#
#
# Mechanical properties :
#
#
# Convention : Reuss Voigt Hill
#
# Bulk Modulus (GPa) = 44.99248 59.30182 52.14715
# Shear Modulus (GPa) = 10.47538 18.64779 14.56158
#
# Velocity S-wave (km/s) = 2.35919 3.14769 2.78152
# Velocity P-wave (km/s) = 5.59700 6.68721 6.16625
#
# Compressibility (1/GPa) = 0.02222594
#
# Stress axis : x y z
#
# Youngs Moduli (GPa) = 48.72771 71.08395 52.09046
#
# Poissons Ratio (x) = 0.72519 0.00129
# Poissons Ratio (y) = 0.49711 0.28932
# Poissons Ratio (z) = 0.00120 0.39481
#
# Static dielectric constant tensor:
#      x y z
#    x 1.675820 0.000000 0.000000 
#    y 0.000000 1.673440 0.000000 
#    z 0.000000 0.000000 1.669240 
# 
# From -- ./inp_files/50816.got.cif
#   From: 2010.05.17/outbox.cif.g08.bks.cpg/sg71_26_cif.got.tgz:50816.got - 2010.06.03 16:22:01.
