data_PCOD9519256
_publ_section_title
;
Structure prediction by ZEFSAII (Michael W. Deem and Ramdas Pophale) SiO2 
 PCOD9519256
Probable space group: I M M M
;
_chemical_formula_sum "Si O2"
_cell_formula_units_Z 116
_cell_length_a 27.445211
_cell_length_b 7.806236
_cell_length_c 24.039880
_cell_angle_alpha 90.000000
_cell_angle_beta 90.000000
_cell_angle_gamma 90.000000
_cell_volume 5150.395102
_symmetry_space_group_name_H-M "I M M M"
_symmetry_group_IT_number 71
_symmetry_cell_setting 'orthorhombic'
loop_
_space_group_symop_operation_xyz
x,y,z
-x,-y,z
x,-y,-z
-x,y,-z
-x,-y,-z
x,y,-z
-x,y,z
x,-y,z
1/2+x,1/2+y,1/2+z
1/2-x,1/2-y,1/2+z
1/2+x,1/2-y,1/2-z
1/2-x,1/2+y,1/2-z
1/2-x,1/2-y,1/2-z
1/2+x,1/2+y,1/2-z
1/2-x,1/2+y,1/2+z
1/2+x,1/2-y,1/2+z
loop_
_atom_site_type_symbol
_atom_site_label
_atom_site_fract_x
_atom_site_fract_y
_atom_site_fract_z
Si Si1 0.706674 0.295709 0.060563
Si Si2 0.594208 0.707944 0.938400
Si Si3 0.708520 0.299595 0.637919
Si Si4 0.881049 0.792582 0.063381
Si Si5 0.645894 0.796680 0.267168
Si Si6 0.000000 0.000000 0.288726
Si Si7 0.073840 0.697541 0.681080
Si Si8 0.946141 0.704279 0.840320
O O1 0.704254 0.500000 0.057168
O O2 0.650891 0.237293 0.064859
O O3 0.740436 0.256611 0.112736
O O4 0.726460 0.232645 0.000000
O O5 0.591558 0.500000 0.933627
O O6 0.568964 0.786783 0.885018
O O7 0.575756 0.753140 0.000000
O O8 0.707012 0.500000 0.629267
O O9 0.665161 0.224750 0.598956
O O10 0.693772 0.269757 0.701972
O O11 0.929237 0.739833 0.096896
O O12 0.879565 0.000000 0.063126
O O13 0.879566 0.732819 0.000000
O O14 0.628913 0.766802 0.203977
O O15 0.599033 0.731550 0.303033
O O16 0.648928 0.000000 0.274175
O O17 0.958615 0.152935 0.293869
O O18 0.062050 0.500000 0.697868
O O19 0.948462 0.500000 0.832172
O O20 0.000000 0.777205 0.828327
#
# Coordination Sequence:
#
# PCOD9519256 Si02
#       8
#    16  16  16  16  16   4  16  16
#     4   9  18  33  57  87 120 162 208 254 309 372
#     4   9  19  40  67  94 128 166 202 250 310 373
#     4  10  19  31  51  80 113 151 199 251 306 363
#     4   9  18  31  43  61  95 135 175 229 291 345
#     4   9  20  37  56  79 113 151 195 252 305 363
#     4  12  26  44  69 100 132 166 207 266 310 374
#     4  11  24  43  68  98 128 165 211 256 312 376
#     4   9  18  32  48  67  92 127 173 230 290 346
#
# _framework density 22.522545000000001
#
# number of rings (size 3 to 8) (size 9 to 14) (size 15 to 20)
#    0.000    2.483    0.690    1.862    1.931    3.034 
#    0.000    4.138    0.000    0.828    0.000    0.000 
#    0.000    0.000    0.000    0.000    0.000    0.000 
#
# Total GULP energy -322990.933143 kJ/mol
# GULP energy per Si atom -5568.809192 kJ/mol
# Density = 2.247128 g / cm^3
# Si number density = 22.522545 Si / 1000 Ang^3
#
#
#
# Elastic Constant Matrix: (Units=GPa)
#
#
# Indices 1 2 3 4 5 6 
#
# 1 15.2089 14.4725 -7.4356 0.0000 0.0000 0.0000
# 2 14.4725 65.8476 14.0584 0.0000 0.0000 0.0000
# 3 -7.4356 14.0584 86.5233 0.0000 0.0000 0.0000
# 4 0.0000 0.0000 0.0000 14.9795 0.0000 0.0000
# 5 0.0000 0.0000 0.0000 0.0000 -0.0409 0.0000
# 6 0.0000 0.0000 0.0000 0.0000 0.0000 21.0509
#
#
#
# Elastic Compliance Matrix: (Units=1/GPa)
#
#
# Indices 1 2 3 4 5 6 
#
# 1 0.093444 -0.023052 0.011776 0.000000 0.000000 0.000000
# 2 -0.023052 0.021419 -0.005461 0.000000 0.000000 0.000000
# 3 0.011776 -0.005461 0.013457 0.000000 0.000000 0.000000
# 4 0.000000 0.000000 0.000000 0.066758 0.000000 0.000000
# 5 0.000000 0.000000 0.000000 0.000000-24.456687 0.000000
# 6 0.000000 0.000000 0.000000 0.000000 0.000000 0.047504
#
#
# Mechanical properties :
#
#
# Convention : Reuss Voigt Hill
#
# Bulk Modulus (GPa) = 10.54345 23.30782 16.92563
# Shear Modulus (GPa) = -0.20705 16.96351 8.37823
#
# Velocity S-wave (km/s) = -0.30353 2.74739 1.93080
# Velocity P-wave (km/s) = 2.13743 4.52054 3.53581
#
# Compressibility (1/GPa) = 0.09484560
#
# Stress axis : x y z
#
# Youngs Moduli (GPa) = 10.70154 46.68722 74.31120
#
# Poissons Ratio (x) = 1.07624 -0.87508
# Poissons Ratio (y) = 0.24669 0.40583
# Poissons Ratio (z) = -0.12602 0.25497
#
# Static dielectric constant tensor:
#      x y z
#    x 1.885990 0.000000 0.000000 
#    y 0.000000 1.815230 0.000000 
#    z 0.000000 0.000000 1.888000 
# 
# From -- ./inp_files/62072.got.cif
#   From: 2010.05.17/outbox.cif.g08.bks.cpg/sg71_32_cif.got.tgz:62072.got - 2010.06.03 16:22:01.
