data_PCOD9519627
_publ_section_title
;
Structure prediction by ZEFSAII (Michael W. Deem and Ramdas Pophale) SiO2 
 PCOD9519627
Probable space group: I M M M
;
_chemical_formula_sum "Si O2"
_cell_formula_units_Z 96
_cell_length_a 23.328875
_cell_length_b 26.487523
_cell_length_c 8.827351
_cell_angle_alpha 90.000000
_cell_angle_beta 90.000000
_cell_angle_gamma 90.000000
_cell_volume 5454.633038
_symmetry_space_group_name_H-M "I M M M"
_symmetry_group_IT_number 71
_symmetry_cell_setting 'orthorhombic'
loop_
_space_group_symop_operation_xyz
x,y,z
-x,-y,z
x,-y,-z
-x,y,-z
-x,-y,-z
x,y,-z
-x,y,z
x,-y,z
1/2+x,1/2+y,1/2+z
1/2-x,1/2-y,1/2+z
1/2+x,1/2-y,1/2-z
1/2-x,1/2+y,1/2-z
1/2-x,1/2-y,1/2-z
1/2+x,1/2+y,1/2-z
1/2-x,1/2+y,1/2+z
1/2+x,1/2-y,1/2+z
loop_
_atom_site_type_symbol
_atom_site_label
_atom_site_fract_x
_atom_site_fract_y
_atom_site_fract_z
Si Si1 0.567283 0.250343 0.180509
Si Si2 0.312112 0.057592 0.684991
Si Si3 0.260024 0.696973 0.827389
Si Si4 0.369581 0.653049 0.321722
Si Si5 0.631948 0.844661 0.327353
Si Si6 0.678270 0.441050 0.181122
O O1 0.500000 0.246558 0.215972
O O2 0.591913 0.302484 0.249872
O O3 0.599039 0.200063 0.241822
O O4 0.574744 0.252418 0.000000
O O5 0.312252 0.060174 0.500000
O O6 0.358931 0.098801 0.737846
O O7 0.245273 0.067113 0.729703
O O8 0.325704 0.000000 0.728156
O O9 0.250000 0.750000 0.750000
O O10 0.305414 0.669633 0.722567
O O11 0.198416 0.671579 0.835376
O O12 0.282458 0.700756 0.000000
O O13 0.379161 0.652332 0.500000
O O14 0.367970 0.596435 0.254969
O O15 0.609255 0.847112 0.500000
O O16 0.665905 0.500000 0.209286
O O17 0.677644 0.432224 0.000000
#
# Coordination Sequence:
#
# PCOD9519627 Si02
#       6
#    16  16  16  16  16  16
#     4  11  25  42  58  75  99 137 185 234 280 328
#     4   8  14  27  49  78 111 144 176 209 250 305
#     4  11  20  31  49  78 111 143 178 214 265 326
#     4  12  23  34  53  80 113 147 176 219 271 324
#     4  10  19  32  54  81 109 140 176 220 268 318
#     4   9  17  32  54  79 112 151 184 215 254 311
#
# _framework density 17.599717999999999
#
# number of rings (size 3 to 8) (size 9 to 14) (size 15 to 20)
#    0.000    1.833    3.333    3.500    0.000    2.333 
#    0.000    0.000    0.000    1.500    0.000    7.000 
#    0.000    0.000    0.000    0.000    0.000    0.000 
#
# Total GULP energy -267359.001326 kJ/mol
# GULP energy per Si atom -5569.979194 kJ/mol
# Density = 1.755966 g / cm^3
# Si number density = 17.599718 Si / 1000 Ang^3
#
#
#
# Elastic Constant Matrix: (Units=GPa)
#
#
# Indices 1 2 3 4 5 6 
#
# 1 71.3430 49.5966 28.2981 0.0000 0.0000 0.0000
# 2 49.5966 154.0064 51.5850 0.0000 0.0000 0.0000
# 3 28.2981 51.5850 46.8208 0.0000 0.0000 0.0000
# 4 0.0000 0.0000 0.0000 23.2334 0.0000 0.0000
# 5 0.0000 0.0000 0.0000 0.0000 18.5367 0.0000
# 6 0.0000 0.0000 0.0000 0.0000 0.0000 8.3125
#
#
#
# Elastic Compliance Matrix: (Units=1/GPa)
#
#
# Indices 1 2 3 4 5 6 
#
# 1 0.019705 -0.003735 -0.007794 0.000000 0.000000 0.000000
# 2 -0.003735 0.010999 -0.009861 0.000000 0.000000 0.000000
# 3 -0.007794 -0.009861 0.036933 0.000000 0.000000 0.000000
# 4 0.000000 0.000000 0.000000 0.043042 0.000000 0.000000
# 5 0.000000 0.000000 0.000000 0.000000 0.053947 0.000000
# 6 0.000000 0.000000 0.000000 0.000000 0.000000 0.120301
#
#
# Mechanical properties :
#
#
# Convention : Reuss Voigt Hill
#
# Bulk Modulus (GPa) = 40.23082 59.01440 49.62261
# Shear Modulus (GPa) = 14.88128 19.52920 17.20524
#
# Velocity S-wave (km/s) = 2.91097 3.33473 3.13003
# Velocity P-wave (km/s) = 5.84865 6.95927 6.42799
#
# Compressibility (1/GPa) = 0.02485656
#
# Stress axis : x y z
#
# Youngs Moduli (GPa) = 50.74850 90.91758 27.07605
#
# Poissons Ratio (x) = 0.33958 0.21104
# Poissons Ratio (y) = 0.18955 0.26699
# Poissons Ratio (z) = 0.39556 0.89651
#
# Static dielectric constant tensor:
#      x y z
#    x 1.600460 0.000000 0.000000 
#    y 0.000000 1.675760 0.000000 
#    z 0.000000 0.000000 1.617420 
# 
# From -- ./inp_files/13134.got.cif
#   From: 2010.05.17/outbox.cif.g08.bks.cpg/sg71_7_cif.got.tgz:13134.got - 2010.06.03 16:22:01.
