data_PCOD9519656
_publ_section_title
;
Structure prediction by ZEFSAII (Michael W. Deem and Ramdas Pophale) SiO2 
 PCOD9519656
Probable space group: I M M M
;
_chemical_formula_sum "Si O2"
_cell_formula_units_Z 56
_cell_length_a 25.395729
_cell_length_b 20.432304
_cell_length_c 5.488951
_cell_angle_alpha 90.000000
_cell_angle_beta 90.000000
_cell_angle_gamma 90.000000
_cell_volume 2848.179652
_symmetry_space_group_name_H-M "I M M M"
_symmetry_group_IT_number 71
_symmetry_cell_setting 'orthorhombic'
loop_
_space_group_symop_operation_xyz
x,y,z
-x,-y,z
x,-y,-z
-x,y,-z
-x,-y,-z
x,y,-z
-x,y,z
x,-y,z
1/2+x,1/2+y,1/2+z
1/2-x,1/2-y,1/2+z
1/2+x,1/2-y,1/2-z
1/2-x,1/2+y,1/2-z
1/2-x,1/2-y,1/2-z
1/2+x,1/2+y,1/2-z
1/2-x,1/2+y,1/2+z
1/2+x,1/2-y,1/2+z
loop_
_atom_site_type_symbol
_atom_site_label
_atom_site_fract_x
_atom_site_fract_y
_atom_site_fract_z
Si Si1 0.060465 0.374171 0.500000
Si Si2 0.263405 0.920558 0.500000
Si Si3 0.296132 0.578834 0.500000
Si Si4 0.500000 0.618026 0.500000
Si Si5 0.385847 0.319329 0.500000
Si Si6 0.907490 0.773462 0.500000
Si Si7 0.115219 0.421260 0.000000
Si Si8 0.500000 0.618752 0.000000
O O1 0.063452 0.295506 0.500000
O O2 0.087882 0.397879 0.250206
O O3 0.000000 0.396157 0.500000
O O4 0.234356 0.901733 0.248546
O O5 0.323963 0.898877 0.500000
O O6 0.263839 0.000000 0.500000
O O7 0.301583 0.500000 0.500000
O O8 0.352073 0.614736 0.500000
O O9 0.551908 0.663419 0.500000
O O10 0.500000 0.579877 0.249105
O O11 0.375461 0.280782 0.749568
O O12 0.949353 0.833340 0.500000
O O13 0.114234 0.500000 0.000000
#
# Coordination Sequence:
#
# PCOD9519656 Si02
#       8
#     8   8   8   4   8   8   8   4
#     4  12  24  38  61  88 117 150 190 232 270 341
#     4   9  19  37  60  81 107 146 194 239 274 334
#     4  10  19  34  59  88 110 142 196 243 283 330
#     4   8  16  26  45  72 102 142 173 214 268 318
#     4  10  19  32  55  81 115 150 187 235 280 329
#     4  10  19  34  52  78 112 146 192 226 267 321
#     4  11  24  41  61  86 116 150 183 229 297 342
#     4   8  14  28  46  66  94 134 182 222 234 302
#
# _framework density 19.661681000000002
#
# number of rings (size 3 to 8) (size 9 to 14) (size 15 to 20)
#    0.000    2.000    0.714    3.429    0.000    4.000 
#    0.000    0.357    0.000   17.143    0.000    9.000 
#    0.000    0.000    0.000    0.000    0.000    0.000 
#
# Total GULP energy -156067.788348 kJ/mol
# GULP energy per Si atom -5573.849584 kJ/mol
# Density = 1.961693 g / cm^3
# Si number density = 19.661681 Si / 1000 Ang^3
#
#
#
# Elastic Constant Matrix: (Units=GPa)
#
#
# Indices 1 2 3 4 5 6 
#
# 1 104.2463 25.0339 52.8822 0.0000 0.0000 0.0000
# 2 25.0339 45.5812 30.5503 0.0000 0.0000 0.0000
# 3 52.8822 30.5503 235.8171 0.0000 0.0000 0.0000
# 4 0.0000 0.0000 0.0000 24.5018 0.0000 0.0000
# 5 0.0000 0.0000 0.0000 0.0000 7.4917 0.0000
# 6 0.0000 0.0000 0.0000 0.0000 0.0000 28.0115
#
#
#
# Elastic Compliance Matrix: (Units=1/GPa)
#
#
# Indices 1 2 3 4 5 6 
#
# 1 0.011842 -0.005173 -0.001985 0.000000 0.000000 0.000000
# 2 -0.005173 0.026285 -0.002245 0.000000 0.000000 0.000000
# 3 -0.001985 -0.002245 0.004977 0.000000 0.000000 0.000000
# 4 0.000000 0.000000 0.000000 0.040813 0.000000 0.000000
# 5 0.000000 0.000000 0.000000 0.000000 0.133481 0.000000
# 6 0.000000 0.000000 0.000000 0.000000 0.000000 0.035700
#
#
# Mechanical properties :
#
#
# Convention : Reuss Voigt Hill
#
# Bulk Modulus (GPa) = 41.15877 66.95304 54.05591
# Shear Modulus (GPa) = 17.85693 30.47955 24.16824
#
# Velocity S-wave (km/s) = 3.01692 3.94153 3.50981
# Velocity P-wave (km/s) = 5.75454 7.40545 6.63157
#
# Compressibility (1/GPa) = 0.02429616
#
# Stress axis : x y z
#
# Youngs Moduli (GPa) = 84.44429 38.04478 200.93788
#
# Poissons Ratio (x) = 0.19681 0.39895
# Poissons Ratio (y) = 0.43685 0.45113
# Poissons Ratio (z) = 0.16766 0.08542
#
# Static dielectric constant tensor:
#      x y z
#    x 1.669700 0.000000 0.000000 
#    y 0.000000 1.644430 0.000000 
#    z 0.000000 0.000000 1.617940 
# 
# From -- ./inp_files/1154.got.cif
#   From: 2010.05.17/outbox.cif.g08.bks.cpg/sg71_1_cif.got.tgz:1154.got - 2010.06.03 16:22:01.
