data_PCOD9519752
_publ_section_title
;
Structure prediction by ZEFSAII (Michael W. Deem and Ramdas Pophale) SiO2 
 PCOD9519752
Probable space group: I M M M
;
_chemical_formula_sum "Si O2"
_cell_formula_units_Z 84
_cell_length_a 14.506859
_cell_length_b 12.276933
_cell_length_c 25.818187
_cell_angle_alpha 90.000000
_cell_angle_beta 90.000000
_cell_angle_gamma 90.000000
_cell_volume 4598.212288
_symmetry_space_group_name_H-M "I M M M"
_symmetry_group_IT_number 71
_symmetry_cell_setting 'orthorhombic'
loop_
_space_group_symop_operation_xyz
x,y,z
-x,-y,z
x,-y,-z
-x,y,-z
-x,-y,-z
x,y,-z
-x,y,z
x,-y,z
1/2+x,1/2+y,1/2+z
1/2-x,1/2-y,1/2+z
1/2+x,1/2-y,1/2-z
1/2-x,1/2+y,1/2-z
1/2-x,1/2-y,1/2-z
1/2+x,1/2+y,1/2-z
1/2-x,1/2+y,1/2+z
1/2+x,1/2-y,1/2+z
loop_
_atom_site_type_symbol
_atom_site_label
_atom_site_fract_x
_atom_site_fract_y
_atom_site_fract_z
Si Si1 0.338524 0.374551 0.743391
Si Si2 0.500000 0.000000 0.363412
Si Si3 0.667301 0.000000 0.442958
Si Si4 0.000000 0.294766 0.786264
Si Si5 0.500000 0.620808 0.938066
Si Si6 0.203468 0.788842 0.559119
Si Si7 0.302680 0.216801 0.833437
Si Si8 0.500000 0.879009 0.825709
O O1 0.370026 0.500000 0.746150
O O2 0.413084 0.287897 0.720528
O O3 0.308343 0.329178 0.800043
O O4 0.252270 0.363357 0.704628
O O5 0.408728 0.000000 0.398712
O O6 0.500000 0.884100 0.332010
O O7 0.734450 0.103442 0.440594
O O8 0.622275 0.000000 0.500000
O O9 0.000000 0.371861 0.736204
O O10 0.500000 0.500000 0.913868
O O11 0.597416 0.678649 0.928219
O O12 0.500000 0.608907 0.000000
O O13 0.206595 0.743582 0.500000
O O14 0.238371 0.722491 0.609014
O O15 0.406625 0.178564 0.840848
O O16 0.500000 0.000000 0.846139
#
# Coordination Sequence:
#
# PCOD9519752 Si02
#       8
#    16   4   8   8   8  16  16   8
#     4  10  21  37  55  79 111 143 187 231 270 326
#     4  12  21  36  58  80 114 140 185 230 278 352
#     4  10  21  33  50  77 109 146 177 220 285 340
#     4  10  21  36  56  82 103 143 182 225 286 324
#     4   9  15  26  45  70 103 143 177 207 262 323
#     4  10  19  33  51  77 112 143 180 225 269 330
#     4  10  21  34  53  84 105 146 186 216 280 323
#     4  10  19  36  54  75 110 141 177 224 269 319
#
# _framework density 18.267969000000001
#
# number of rings (size 3 to 8) (size 9 to 14) (size 15 to 20)
#    0.000    2.000    1.429    2.714    1.333    0.000 
#    1.714    0.000    0.000    2.857    0.000    0.000 
#    0.000    7.619    0.000    0.000    0.000    0.000 
#
# Total GULP energy -233843.046354 kJ/mol
# GULP energy per Si atom -5567.691580 kJ/mol
# Density = 1.822639 g / cm^3
# Si number density = 18.267969 Si / 1000 Ang^3
#
#
#
# Elastic Constant Matrix: (Units=GPa)
#
#
# Indices 1 2 3 4 5 6 
#
# 1 63.0160 12.2485 25.6524 0.0000 0.0000 0.0000
# 2 12.2485 77.8350 42.7181 0.0000 0.0000 0.0000
# 3 25.6524 42.7181 126.5494 0.0000 0.0000 0.0000
# 4 0.0000 0.0000 0.0000 17.8648 0.0000 0.0000
# 5 0.0000 0.0000 0.0000 0.0000 -41.8432 0.0000
# 6 0.0000 0.0000 0.0000 0.0000 0.0000 11.4945
#
#
#
# Elastic Compliance Matrix: (Units=1/GPa)
#
#
# Indices 1 2 3 4 5 6 
#
# 1 0.017357 -0.000982 -0.003187 0.000000 0.000000 0.000000
# 2 -0.000982 0.015825 -0.005143 0.000000 0.000000 0.000000
# 3 -0.003187 -0.005143 0.010284 0.000000 0.000000 0.000000
# 4 0.000000 0.000000 0.000000 0.055976 0.000000 0.000000
# 5 0.000000 0.000000 0.000000 0.000000 -0.023899 0.000000
# 6 0.000000 0.000000 0.000000 0.000000 0.000000 0.086998
#
#
# Mechanical properties :
#
#
# Convention : Reuss Voigt Hill
#
# Bulk Modulus (GPa) = 40.25408 47.62648 43.94028
# Shear Modulus (GPa) = 26.39273 9.95531 18.17402
#
# Velocity S-wave (km/s) = 3.80512 2.33697 3.15756
# Velocity P-wave (km/s) = 6.43338 5.78010 6.11547
#
# Compressibility (1/GPa) = 0.02484220
#
# Stress axis : x y z
#
# Youngs Moduli (GPa) = 57.61294 63.19222 97.23847
#
# Poissons Ratio (x) = 0.06208 0.30988
# Poissons Ratio (y) = 0.05660 0.50006
# Poissons Ratio (z) = 0.18360 0.32498
#
# Static dielectric constant tensor:
#      x y z
#    x 1.628320 0.000000 0.000000 
#    y 0.000000 1.635710 0.000000 
#    z 0.000000 0.000000 1.649050 
# 
# From -- ./inp_files/32810.got.cif
#   From: 2010.05.17/outbox.cif.g08.bks.cpg/sg71_17_cif.got.tgz:32810.got - 2010.06.03 16:22:01.
