data_PCOD9519363
_publ_section_title
;
Structure prediction by ZEFSAII (Michael W. Deem and Ramdas Pophale) SiO2 
 PCOD9519363
Probable space group: I M M M
;
_chemical_formula_sum "Si O2"
_cell_formula_units_Z 120
_cell_length_a 22.162575
_cell_length_b 23.742483
_cell_length_c 13.517300
_cell_angle_alpha 90.000000
_cell_angle_beta 90.000000
_cell_angle_gamma 90.000000
_cell_volume 7112.729728
_symmetry_space_group_name_H-M "I M M M"
_symmetry_group_IT_number 71
_symmetry_cell_setting 'orthorhombic'
loop_
_space_group_symop_operation_xyz
x,y,z
-x,-y,z
x,-y,-z
-x,y,-z
-x,-y,-z
x,y,-z
-x,y,z
x,-y,z
1/2+x,1/2+y,1/2+z
1/2-x,1/2-y,1/2+z
1/2+x,1/2-y,1/2-z
1/2-x,1/2+y,1/2-z
1/2-x,1/2-y,1/2-z
1/2+x,1/2+y,1/2-z
1/2-x,1/2+y,1/2+z
1/2+x,1/2-y,1/2+z
loop_
_atom_site_type_symbol
_atom_site_label
_atom_site_fract_x
_atom_site_fract_y
_atom_site_fract_z
Si Si1 0.354071 0.662708 0.384148
Si Si2 0.744780 0.144574 0.263945
Si Si3 0.669909 0.435538 0.115290
Si Si4 0.139412 0.564273 0.696401
Si Si5 0.571628 0.564958 0.717462
Si Si6 0.068415 0.431583 0.500000
Si Si7 0.427989 0.899524 0.388325
Si Si8 0.349006 0.788522 0.386123
O O1 0.340745 0.655767 0.500000
O O2 0.294018 0.660062 0.317768
O O3 0.399398 0.613264 0.351022
O O4 0.376355 0.726817 0.367696
O O5 0.780925 0.108689 0.346328
O O6 0.696425 0.103259 0.214511
O O7 0.706099 0.194229 0.314563
O O8 0.692263 0.500000 0.129925
O O9 0.609451 0.430079 0.180709
O O10 0.657536 0.427600 0.000000
O O11 0.157952 0.500000 0.678259
O O12 0.102140 0.584585 0.600821
O O13 0.099682 0.566820 0.796511
O O14 0.500000 0.572757 0.729679
O O15 0.581173 0.500000 0.681652
O O16 0.066230 0.500000 0.500000
O O17 0.000000 0.410592 0.500000
O O18 0.412023 0.920043 0.500000
O O19 0.500000 0.898395 0.381478
O O20 0.399008 0.837370 0.378371
O O21 0.326942 0.788995 0.500000
#
# Coordination Sequence:
#
# PCOD9519363 Si02
#       8
#    16  16  16  16  16   8  16  16
#     4  10  21  34  51  73  98 130 166 204 248 298
#     4  10  19  32  50  71 103 130 166 203 252 293
#     4   9  17  30  50  76 104 134 165 199 246 301
#     4  10  20  32  48  71 100 135 172 209 250 296
#     4   9  19  35  52  74 102 129 163 205 249 301
#     4   9  18  32  48  66  92 130 177 219 250 288
#     4   9  18  32  50  73 100 128 161 205 253 298
#     4   9  18  33  51  73  97 126 164 205 249 299
#
# _framework density 16.87116
#
# number of rings (size 3 to 8) (size 9 to 14) (size 15 to 20)
#    0.000    2.600    0.000    1.600    0.933    3.467 
#    0.000    4.000    0.000    0.000    0.000    0.000 
#    0.000    0.000    0.000    0.000    0.000    0.000 
#
# Total GULP energy -334264.621642 kJ/mol
# GULP energy per Si atom -5571.077027 kJ/mol
# Density = 1.683276 g / cm^3
# Si number density = 16.871160 Si / 1000 Ang^3
#
#
#
# Elastic Constant Matrix: (Units=GPa)
#
#
# Indices 1 2 3 4 5 6 
#
# 1 43.9922 18.3982 2.6584 0.0000 0.0000 0.0000
# 2 18.3982 79.8576 26.7283 0.0000 0.0000 0.0000
# 3 2.6584 26.7283 68.7604 0.0000 0.0000 0.0000
# 4 0.0000 0.0000 0.0000 15.6290 0.0000 0.0000
# 5 0.0000 0.0000 0.0000 0.0000 13.0972 0.0000
# 6 0.0000 0.0000 0.0000 0.0000 0.0000 11.0346
#
#
#
# Elastic Compliance Matrix: (Units=1/GPa)
#
#
# Indices 1 2 3 4 5 6 
#
# 1 0.025285 -0.006321 0.001479 0.000000 0.000000 0.000000
# 2 -0.006321 0.015975 -0.005965 0.000000 0.000000 0.000000
# 3 0.001479 -0.005965 0.016805 0.000000 0.000000 0.000000
# 4 0.000000 0.000000 0.000000 0.063983 0.000000 0.000000
# 5 0.000000 0.000000 0.000000 0.000000 0.076352 0.000000
# 6 0.000000 0.000000 0.000000 0.000000 0.000000 0.090624
#
#
# Mechanical properties :
#
#
# Convention : Reuss Voigt Hill
#
# Bulk Modulus (GPa) = 27.43334 32.01999 29.72667
# Shear Modulus (GPa) = 15.49002 17.60719 16.54861
#
# Velocity S-wave (km/s) = 3.03336 3.23403 3.13530
# Velocity P-wave (km/s) = 5.34455 5.74156 5.54661
#
# Compressibility (1/GPa) = 0.03645199
#
# Stress axis : x y z
#
# Youngs Moduli (GPa) = 39.54875 62.59749 59.50640
#
# Poissons Ratio (x) = 0.39565 -0.08803
# Poissons Ratio (y) = 0.24997 0.35498
# Poissons Ratio (z) = -0.05850 0.37342
#
# Static dielectric constant tensor:
#      x y z
#    x 1.539270 0.000000 0.000000 
#    y 0.000000 1.578240 0.000000 
#    z 0.000000 0.000000 1.569680 
# 
# From -- ./inp_files/26316.got.cif
#   From: 2010.05.17/outbox.cif.g08.bks.cpg/sg71_14_cif.got.tgz:26316.got - 2010.06.03 16:22:01.
