data_PCOD9519822
_publ_section_title
;
Structure prediction by ZEFSAII (Michael W. Deem and Ramdas Pophale) SiO2 
 PCOD9519822
Probable space group: I M M M
;
_chemical_formula_sum "Si O2"
_cell_formula_units_Z 104
_cell_length_a 30.499780
_cell_length_b 7.664053
_cell_length_c 20.745727
_cell_angle_alpha 90.000000
_cell_angle_beta 90.000000
_cell_angle_gamma 90.000000
_cell_volume 4849.353734
_symmetry_space_group_name_H-M "I M M M"
_symmetry_group_IT_number 71
_symmetry_cell_setting 'orthorhombic'
loop_
_space_group_symop_operation_xyz
x,y,z
-x,-y,z
x,-y,-z
-x,y,-z
-x,-y,-z
x,y,-z
-x,y,z
x,-y,z
1/2+x,1/2+y,1/2+z
1/2-x,1/2-y,1/2+z
1/2+x,1/2-y,1/2-z
1/2-x,1/2+y,1/2-z
1/2-x,1/2-y,1/2-z
1/2+x,1/2+y,1/2-z
1/2-x,1/2+y,1/2+z
1/2+x,1/2-y,1/2+z
loop_
_atom_site_type_symbol
_atom_site_label
_atom_site_fract_x
_atom_site_fract_y
_atom_site_fract_z
Si Si1 0.198923 0.797465 0.830144
Si Si2 0.796107 0.705216 0.313076
Si Si3 0.951804 0.204303 0.610753
Si Si4 0.950563 0.709011 0.240704
Si Si5 0.449026 0.285896 0.500000
Si Si6 0.391023 0.293116 0.379398
Si Si7 0.141301 0.211560 0.570053
O O1 0.188288 0.789103 0.753767
O O2 0.248176 0.722892 0.833502
O O3 0.158203 0.720140 0.869861
O O4 0.202515 0.000000 0.849528
O O5 0.790937 0.500000 0.298650
O O6 0.829787 0.727228 0.370654
O O7 0.944185 0.217668 0.687678
O O8 0.908588 0.276796 0.577598
O O9 0.000000 0.281144 0.597099
O O10 0.953970 0.000000 0.593351
O O11 0.948299 0.500000 0.245742
O O12 0.916266 0.768988 0.187839
O O13 0.000000 0.758297 0.219896
O O14 0.450026 0.500000 0.500000
O O15 0.500000 0.229705 0.500000
O O16 0.421763 0.226565 0.437104
O O17 0.386403 0.500000 0.390822
O O18 0.158817 0.263605 0.500000
O O19 0.140415 0.000000 0.572749
#
# Coordination Sequence:
#
# PCOD9519822 Si02
#       7
#    16  16  16  16   8  16  16
#     4   9  19  35  55  80 105 132 168 215 267 310
#     4  10  20  35  55  80 106 136 172 213 261 314
#     4   9  18  33  53  76 101 132 172 216 257 300
#     4  10  20  32  48  74 106 136 167 208 259 309
#     4   9  18  32  51  75 101 131 169 213 258 305
#     4  10  19  33  53  76 100 131 173 216 258 307
#     4  10  21  36  53  75 105 140 174 210 255 305
#
# _framework density 21.446155999999998
#
# number of rings (size 3 to 8) (size 9 to 14) (size 15 to 20)
#    0.000    2.385    0.000    2.308    0.000    7.692 
#    1.385    1.923    0.000    1.385    0.000    3.231 
#    0.000    0.000    0.000    0.000    0.000    0.000 
#
# Total GULP energy -290248.956152 kJ/mol
# GULP energy per Si atom -5581.710695 kJ/mol
# Density = 2.139734 g / cm^3
# Si number density = 21.446156 Si / 1000 Ang^3
#
#
#
# Elastic Constant Matrix: (Units=GPa)
#
#
# Indices 1 2 3 4 5 6 
#
# 1 133.7326 4.8269 55.1543 0.0000 0.0000 0.0000
# 2 4.8269 43.1545 -6.3833 0.0000 0.0000 0.0000
# 3 55.1543 -6.3833 46.7935 0.0000 0.0000 0.0000
# 4 0.0000 0.0000 0.0000 -5.5193 0.0000 0.0000
# 5 0.0000 0.0000 0.0000 0.0000 24.9558 0.0000
# 6 0.0000 0.0000 0.0000 0.0000 0.0000 12.2480
#
#
#
# Elastic Compliance Matrix: (Units=1/GPa)
#
#
# Indices 1 2 3 4 5 6 
#
# 1 0.015357 -0.004486 -0.018713 0.000000 0.000000 0.000000
# 2 -0.004486 0.024960 0.008692 0.000000 0.000000 0.000000
# 3 -0.018713 0.008692 0.044613 0.000000 0.000000 0.000000
# 4 0.000000 0.000000 0.000000 -0.181183 0.000000 0.000000
# 5 0.000000 0.000000 0.000000 0.000000 0.040071 0.000000
# 6 0.000000 0.000000 0.000000 0.000000 0.000000 0.081646
#
#
# Mechanical properties :
#
#
# Convention : Reuss Voigt Hill
#
# Bulk Modulus (GPa) = 17.88378 36.76405 27.32391
# Shear Modulus (GPa) = 68.38434 17.67575 43.03004
#
# Velocity S-wave (km/s) = 5.65294 2.87399 4.48417
# Velocity P-wave (km/s) = 7.13896 5.30969 6.29116
#
# Compressibility (1/GPa) = 0.05591659
#
# Stress axis : x y z
#
# Youngs Moduli (GPa) = 65.11618 40.06414 22.41511
#
# Poissons Ratio (x) = 0.17971 0.41945
# Poissons Ratio (y) = 0.29209 -0.19483
# Poissons Ratio (z) = 1.21852 -0.34824
#
# Static dielectric constant tensor:
#      x y z
#    x 1.805920 0.000000 0.000000 
#    y 0.000000 1.822890 0.000000 
#    z 0.000000 0.000000 1.735340 
# 
# From -- ./inp_files/16985.got.cif
#   From: 2010.05.17/outbox.cif.g08.bks.cpg/sg71_9_cif.got.tgz:16985.got - 2010.06.03 16:22:01.
