data_PCOD9519935
_publ_section_title
;
Structure prediction by ZEFSAII (Michael W. Deem and Ramdas Pophale) SiO2 
 PCOD9519935
Probable space group: I M M M
;
_chemical_formula_sum "Si O2"
_cell_formula_units_Z 88
_cell_length_a 20.935537
_cell_length_b 8.046140
_cell_length_c 26.283372
_cell_angle_alpha 90.000000
_cell_angle_beta 90.000000
_cell_angle_gamma 90.000000
_cell_volume 4427.440891
_symmetry_space_group_name_H-M "I M M M"
_symmetry_group_IT_number 71
_symmetry_cell_setting 'orthorhombic'
loop_
_space_group_symop_operation_xyz
x,y,z
-x,-y,z
x,-y,-z
-x,y,-z
-x,-y,-z
x,y,-z
-x,y,z
x,-y,z
1/2+x,1/2+y,1/2+z
1/2-x,1/2-y,1/2+z
1/2+x,1/2-y,1/2-z
1/2-x,1/2+y,1/2-z
1/2-x,1/2-y,1/2-z
1/2+x,1/2+y,1/2-z
1/2-x,1/2+y,1/2+z
1/2+x,1/2-y,1/2+z
loop_
_atom_site_type_symbol
_atom_site_label
_atom_site_fract_x
_atom_site_fract_y
_atom_site_fract_z
Si Si1 0.839265 0.308226 0.707643
Si Si2 0.578577 0.500000 0.941946
Si Si3 0.293277 0.500000 0.438906
Si Si4 0.070253 0.000000 0.878618
Si Si5 0.253392 0.181835 0.620756
Si Si6 0.424154 0.821030 0.883162
Si Si7 0.616314 0.189988 0.681566
O O1 0.816839 0.500000 0.711450
O O2 0.790774 0.214734 0.670387
O O3 0.904504 0.305087 0.675292
O O4 0.854547 0.251256 0.764245
O O5 0.500000 0.500000 0.940092
O O6 0.601073 0.334511 0.914041
O O7 0.597472 0.500000 0.000000
O O8 0.296419 0.500000 0.500000
O O9 0.366053 0.500000 0.414741
O O10 0.256038 0.662157 0.417191
O O11 0.074487 0.164676 0.843103
O O12 0.000000 0.000000 0.904284
O O13 0.324336 0.174813 0.643580
O O14 0.238389 0.000000 0.598523
O O15 0.500000 0.821863 0.888229
O O16 0.399318 0.000000 0.901281
O O17 0.589838 0.000000 0.688297
#
# Coordination Sequence:
#
# PCOD9519935 Si02
#       7
#    16   8   8   8  16  16  16
#     4  10  19  33  55  80 114 151 189 223 281 345
#     4   9  18  33  51  66  84 119 167 215 262 305
#     4  10  22  43  63  83 118 155 196 255 306 348
#     4  10  22  38  60  91 121 155 201 242 290 355
#     4  10  20  35  58  84 113 146 191 241 290 349
#     4   9  19  33  48  69  99 133 172 216 263 323
#     4   9  20  35  54  85 118 154 185 228 283 344
#
# _framework density 19.876042000000002
#
# number of rings (size 3 to 8) (size 9 to 14) (size 15 to 20)
#    0.000    2.455    0.909    0.545    2.545    2.000 
#    0.000    5.455    0.000    0.000    0.000    5.091 
#    0.000    0.000    0.000    0.000    0.000    0.000 
#
# Total GULP energy -245180.410421 kJ/mol
# GULP energy per Si atom -5572.282055 kJ/mol
# Density = 1.983080 g / cm^3
# Si number density = 19.876042 Si / 1000 Ang^3
#
#
#
# Elastic Constant Matrix: (Units=GPa)
#
#
# Indices 1 2 3 4 5 6 
#
# 1 42.6138 30.5612 12.4636 0.0000 0.0000 0.0000
# 2 30.5612 141.7369 64.9705 0.0000 0.0000 0.0000
# 3 12.4636 64.9705 83.9491 0.0000 0.0000 0.0000
# 4 0.0000 0.0000 0.0000 18.2296 0.0000 0.0000
# 5 0.0000 0.0000 0.0000 0.0000 12.5558 0.0000
# 6 0.0000 0.0000 0.0000 0.0000 0.0000 0.3362
#
#
#
# Elastic Compliance Matrix: (Units=1/GPa)
#
#
# Indices 1 2 3 4 5 6 
#
# 1 0.027793 -0.006356 0.000793 0.000000 0.000000 0.000000
# 2 -0.006356 0.012388 -0.008644 0.000000 0.000000 0.000000
# 3 0.000793 -0.008644 0.018484 0.000000 0.000000 0.000000
# 4 0.000000 0.000000 0.000000 0.054856 0.000000 0.000000
# 5 0.000000 0.000000 0.000000 0.000000 0.079644 0.000000
# 6 0.000000 0.000000 0.000000 0.000000 0.000000 2.974280
#
#
# Mechanical properties :
#
#
# Convention : Reuss Voigt Hill
#
# Bulk Modulus (GPa) = 33.05682 53.81005 43.43343
# Shear Modulus (GPa) = 1.55960 16.91130 9.23545
#
# Velocity S-wave (km/s) = 0.88677 2.92008 2.15792
# Velocity P-wave (km/s) = 4.20905 6.20490 5.30174
#
# Compressibility (1/GPa) = 0.03025095
#
# Stress axis : x y z
#
# Youngs Moduli (GPa) = 35.98010 80.72308 54.10113
#
# Poissons Ratio (x) = 0.51309 -0.04289
# Poissons Ratio (y) = 0.22870 0.46764
# Poissons Ratio (z) = -0.02853 0.69775
#
# Static dielectric constant tensor:
#      x y z
#    x 1.731420 0.000000 0.000000 
#    y 0.000000 1.752200 0.000000 
#    z 0.000000 0.000000 1.651470 
# 
# From -- ./inp_files/61177.got.cif
#   From: 2010.05.17/outbox.cif.g08.bks.cpg/sg71_31_cif.got.tgz:61177.got - 2010.06.03 16:22:01.
