data_PCOD9519295
_publ_section_title
;
Structure prediction by ZEFSAII (Michael W. Deem and Ramdas Pophale) SiO2 
 PCOD9519295
Probable space group: I M M M
;
_chemical_formula_sum "Si O2"
_cell_formula_units_Z 66
_cell_length_a 24.302954
_cell_length_b 16.761405
_cell_length_c 7.351954
_cell_angle_alpha 90.000000
_cell_angle_beta 90.000000
_cell_angle_gamma 90.000000
_cell_volume 2994.830627
_symmetry_space_group_name_H-M "I M M M"
_symmetry_group_IT_number 71
_symmetry_cell_setting 'orthorhombic'
loop_
_space_group_symop_operation_xyz
x,y,z
-x,-y,z
x,-y,-z
-x,y,-z
-x,-y,-z
x,y,-z
-x,y,z
x,-y,z
1/2+x,1/2+y,1/2+z
1/2-x,1/2-y,1/2+z
1/2+x,1/2-y,1/2-z
1/2-x,1/2+y,1/2-z
1/2-x,1/2-y,1/2-z
1/2+x,1/2+y,1/2-z
1/2-x,1/2+y,1/2+z
1/2+x,1/2-y,1/2+z
loop_
_atom_site_type_symbol
_atom_site_label
_atom_site_fract_x
_atom_site_fract_y
_atom_site_fract_z
Si Si1 0.615162 0.330003 0.277364
Si Si2 0.726338 0.411548 0.717852
Si Si3 0.102122 0.500000 0.777278
Si Si4 0.500000 0.000000 0.000000
Si Si5 0.838349 0.337632 0.785712
Si Si6 0.500000 0.407160 0.278106
O O1 0.614359 0.330018 0.500000
O O2 0.665732 0.386342 0.220734
O O3 0.632238 0.241522 0.213416
O O4 0.555731 0.362268 0.219776
O O5 0.724283 0.415483 0.500000
O O6 0.741299 0.500000 0.786899
O O7 0.773054 0.346903 0.760237
O O8 0.135374 0.579508 0.723562
O O9 0.047338 0.500000 0.660738
O O10 0.094565 0.500000 0.000000
O O11 0.847807 0.334360 0.000000
O O12 0.500000 0.500000 0.222603
O O13 0.500000 0.406901 0.500000
#
# Coordination Sequence:
#
# PCOD9519295 Si02
#       6
#    16  16   8   2  16   8
#     4   9  18  31  50  79 109 147 188 236 295 355
#     4  10  19  31  53  82 114 145 188 243 299 359
#     4  10  23  41  61  90 121 164 209 250 294 362
#     4  12  26  40  68  86 120 164 212 242 308 346
#     4  10  20  35  55  79 114 150 192 238 292 351
#     4   9  16  29  50  74 107 139 177 228 289 357
#
# _framework density 22.037976
#
# number of rings (size 3 to 8) (size 9 to 14) (size 15 to 20)
#    0.000    2.303    1.212    1.636    1.697    3.879 
#    0.000    3.636    0.000    0.000    0.000    0.000 
#    0.000    3.879    0.000    0.000    0.000    0.000 
#
# Total GULP energy -184034.135331 kJ/mol
# GULP energy per Si atom -5576.791980 kJ/mol
# Density = 2.198782 g / cm^3
# Si number density = 22.037976 Si / 1000 Ang^3
#
#
#
# Elastic Constant Matrix: (Units=GPa)
#
#
# Indices 1 2 3 4 5 6 
#
# 1 208.1532 97.3625 -4.5404 0.0000 0.0000 0.0000
# 2 97.3625 173.1190 2.6277 0.0000 0.0000 0.0000
# 3 -4.5404 2.6277 78.9344 0.0000 0.0000 0.0000
# 4 0.0000 0.0000 0.0000 -3.3299 0.0000 0.0000
# 5 0.0000 0.0000 0.0000 0.0000 16.3114 0.0000
# 6 0.0000 0.0000 0.0000 0.0000 0.0000 58.8240
#
#
#
# Elastic Compliance Matrix: (Units=1/GPa)
#
#
# Indices 1 2 3 4 5 6 
#
# 1 0.006539 -0.003685 0.000499 0.000000 0.000000 0.000000
# 2 -0.003685 0.007856 -0.000473 0.000000 0.000000 0.000000
# 3 0.000499 -0.000473 0.012713 0.000000 0.000000 0.000000
# 4 0.000000 0.000000 0.000000 -0.300306 0.000000 0.000000
# 5 0.000000 0.000000 0.000000 0.000000 0.061307 0.000000
# 6 0.000000 0.000000 0.000000 0.000000 0.000000 0.017000
#
#
# Mechanical properties :
#
#
# Convention : Reuss Voigt Hill
#
# Bulk Modulus (GPa) = 50.53420 72.34511 61.43965
# Shear Modulus (GPa) = -27.62794 38.67823 5.52515
#
# Velocity S-wave (km/s) = -3.54453 4.19390 1.58510
# Velocity P-wave (km/s) = 2.49573 7.50670 5.59371
#
# Compressibility (1/GPa) = 0.01978858
#
# Stress axis : x y z
#
# Youngs Moduli (GPa) = 152.93725 127.29193 78.65836
#
# Poissons Ratio (x) = 0.46906 -0.03923
# Poissons Ratio (y) = 0.56356 0.03724
# Poissons Ratio (z) = -0.07628 0.06027
#
# Static dielectric constant tensor:
#      x y z
#    x 1.761750 0.000000 0.000000 
#    y 0.000000 1.821380 0.000000 
#    z 0.000000 0.000000 1.868250 
# 
# From -- ./inp_files/9667.got.cif
#   From: 2010.05.17/outbox.cif.g08.bks.cpg/sg71_5_cif.got.tgz:9667.got - 2010.06.03 16:22:01.
