data_PCOD9519703
_publ_section_title
;
Structure prediction by ZEFSAII (Michael W. Deem and Ramdas Pophale) SiO2 
 PCOD9519703
Probable space group: I M M M
;
_chemical_formula_sum "Si O2"
_cell_formula_units_Z 112
_cell_length_a 30.875348
_cell_length_b 23.566242
_cell_length_c 7.497119
_cell_angle_alpha 90.000000
_cell_angle_beta 90.000000
_cell_angle_gamma 90.000000
_cell_volume 5455.023160
_symmetry_space_group_name_H-M "I M M M"
_symmetry_group_IT_number 71
_symmetry_cell_setting 'orthorhombic'
loop_
_space_group_symop_operation_xyz
x,y,z
-x,-y,z
x,-y,-z
-x,y,-z
-x,-y,-z
x,y,-z
-x,y,z
x,-y,z
1/2+x,1/2+y,1/2+z
1/2-x,1/2-y,1/2+z
1/2+x,1/2-y,1/2-z
1/2-x,1/2+y,1/2-z
1/2-x,1/2-y,1/2-z
1/2+x,1/2+y,1/2-z
1/2-x,1/2+y,1/2+z
1/2+x,1/2-y,1/2+z
loop_
_atom_site_type_symbol
_atom_site_label
_atom_site_fract_x
_atom_site_fract_y
_atom_site_fract_z
Si Si1 0.799812 0.935316 0.218222
Si Si2 0.640250 0.668120 0.281878
Si Si3 0.795271 0.598381 0.294306
Si Si4 0.886532 0.438904 0.713912
Si Si5 0.701499 0.771414 0.712182
Si Si6 0.048894 0.790794 0.782318
Si Si7 0.047890 0.661505 0.213054
O O1 0.834347 0.888127 0.276320
O O2 0.751691 0.917304 0.280906
O O3 0.809095 0.000000 0.270932
O O4 0.799765 0.933588 0.000000
O O5 0.640934 0.668509 0.500000
O O6 0.667352 0.723989 0.225477
O O7 0.590312 0.672881 0.225164
O O8 0.793142 0.579381 0.500000
O O9 0.838089 0.570650 0.213859
O O10 0.802604 0.665938 0.290556
O O11 0.883276 0.440957 0.500000
O O12 0.903769 0.500000 0.775984
O O13 0.916700 0.385556 0.750329
O O14 0.695891 0.777127 0.500000
O O15 0.750000 0.750000 0.750000
O O16 0.057125 0.725534 0.724604
O O17 0.000000 0.806722 0.725788
O O18 0.048584 0.791719 0.000000
O O19 0.000000 0.644902 0.279307
O O20 0.045578 0.666024 0.000000
#
# Coordination Sequence:
#
# PCOD9519703 Si02
#       7
#    16  16  16  16  16  16  16
#     4   9  16  27  44  64  89 124 162 193 221 270
#     4   9  16  26  43  68  92 118 156 193 229 278
#     4  10  19  33  49  68  95 127 163 199 236 282
#     4  10  21  34  48  68  95 129 166 202 244 292
#     4  11  20  31  48  72  99 126 157 198 244 289
#     4   8  14  26  45  68  93 118 148 192 244 291
#     4   9  18  33  51  69  90 121 161 203 250 301
#
# _framework density 20.531534000000001
#
# number of rings (size 3 to 8) (size 9 to 14) (size 15 to 20)
#    0.000    2.571    1.429    2.571    0.000    4.286 
#    0.000    1.429    0.000    1.714    0.000    3.000 
#    0.000    0.000    0.000    0.000    0.000    1.429 
#
# Total GULP energy -312547.786647 kJ/mol
# GULP energy per Si atom -5581.210476 kJ/mol
# Density = 2.048480 g / cm^3
# Si number density = 20.531534 Si / 1000 Ang^3
#
#
#
# Elastic Constant Matrix: (Units=GPa)
#
#
# Indices 1 2 3 4 5 6 
#
# 1 178.4419 82.6809 4.2185 0.0000 0.0000 0.0000
# 2 82.6809 112.3367 -1.3144 0.0000 0.0000 0.0000
# 3 4.2185 -1.3144 55.4501 0.0000 0.0000 0.0000
# 4 0.0000 0.0000 0.0000 3.2032 0.0000 0.0000
# 5 0.0000 0.0000 0.0000 0.0000 -3.4897 0.0000
# 6 0.0000 0.0000 0.0000 0.0000 0.0000 12.7348
#
#
#
# Elastic Compliance Matrix: (Units=1/GPa)
#
#
# Indices 1 2 3 4 5 6 
#
# 1 0.008540 -0.006295 -0.000799 0.000000 0.000000 0.000000
# 2 -0.006295 0.013544 0.000800 0.000000 0.000000 0.000000
# 3 -0.000799 0.000800 0.018114 0.000000 0.000000 0.000000
# 4 0.000000 0.000000 0.000000 0.312186 0.000000 0.000000
# 5 0.000000 0.000000 0.000000 0.000000 -0.286558 0.000000
# 6 0.000000 0.000000 0.000000 0.000000 0.000000 0.078525
#
#
# Mechanical properties :
#
#
# Convention : Reuss Voigt Hill
#
# Bulk Modulus (GPa) = 36.21802 57.48875 46.85339
# Shear Modulus (GPa) = 30.09502 19.86591 24.98047
#
# Velocity S-wave (km/s) = 3.83272 3.11397 3.49189
# Velocity P-wave (km/s) = 6.10449 6.40235 6.25520
#
# Compressibility (1/GPa) = 0.02761056
#
# Stress axis : x y z
#
# Youngs Moduli (GPa) = 117.10277 73.83348 55.20599
#
# Poissons Ratio (x) = 0.46475 0.04410
# Poissons Ratio (y) = 0.73710 -0.04416
# Poissons Ratio (z) = 0.09355 -0.05906
#
# Static dielectric constant tensor:
#      x y z
#    x 1.735280 0.000000 0.000000 
#    y 0.000000 1.709780 0.000000 
#    z 0.000000 0.000000 1.897990 
# 
# From -- ./inp_files/29089.got.cif
#   From: 2010.05.17/outbox.cif.g08.bks.cpg/sg71_15_cif.got.tgz:29089.got - 2010.06.03 16:22:01.
