data_PCOD9519665
_publ_section_title
;
Structure prediction by ZEFSAII (Michael W. Deem and Ramdas Pophale) SiO2 
 PCOD9519665
Probable space group: I M M M
;
_chemical_formula_sum "Si O2"
_cell_formula_units_Z 72
_cell_length_a 7.747086
_cell_length_b 19.438525
_cell_length_c 23.574608
_cell_angle_alpha 90.000000
_cell_angle_beta 90.000000
_cell_angle_gamma 90.000000
_cell_volume 3550.145597
_symmetry_space_group_name_H-M "I M M M"
_symmetry_group_IT_number 71
_symmetry_cell_setting 'orthorhombic'
loop_
_space_group_symop_operation_xyz
x,y,z
-x,-y,z
x,-y,-z
-x,y,-z
-x,-y,-z
x,y,-z
-x,y,z
x,-y,z
1/2+x,1/2+y,1/2+z
1/2-x,1/2-y,1/2+z
1/2+x,1/2-y,1/2-z
1/2-x,1/2+y,1/2-z
1/2-x,1/2-y,1/2-z
1/2+x,1/2+y,1/2-z
1/2-x,1/2+y,1/2+z
1/2+x,1/2-y,1/2+z
loop_
_atom_site_type_symbol
_atom_site_label
_atom_site_fract_x
_atom_site_fract_y
_atom_site_fract_z
Si Si1 0.706382 0.578113 0.500000
Si Si2 0.205096 0.318558 0.599726
Si Si3 0.207546 0.325969 0.727451
Si Si4 0.796167 0.334001 0.937333
Si Si5 0.211823 0.420671 0.170090
O O1 0.773629 0.500000 0.500000
O O2 0.500000 0.575583 0.500000
O O3 0.760611 0.620982 0.555324
O O4 0.272048 0.333792 0.663093
O O5 0.278648 0.246501 0.577232
O O6 0.000000 0.308498 0.603339
O O7 0.250000 0.250000 0.750000
O O8 0.270753 0.381192 0.773315
O O9 0.000000 0.332482 0.725693
O O10 0.726828 0.379158 0.885384
O O11 0.000000 0.349371 0.940167
O O12 0.721700 0.347091 0.000000
O O13 0.263692 0.500000 0.168952
O O14 0.000000 0.418800 0.170121
#
# Coordination Sequence:
#
# PCOD9519665 Si02
#       5
#     8  16  16  16  16
#     4  11  25  43  61  83 114 151 190 235 289 348
#     4  11  22  35  57  87 114 147 190 237 285 336
#     4  10  20  34  56  84 112 149 191 235 280 333
#     4  10  19  32  55  83 110 146 188 233 279 332
#     4   9  18  33  53  80 114 148 185 231 280 330
#
# _framework density 20.280857999999998
#
# number of rings (size 3 to 8) (size 9 to 14) (size 15 to 20)
#    0.000    1.889    3.333    1.000    0.000    3.111 
#    0.000    4.444    0.000    2.667    0.000    1.556 
#    0.000    0.000    0.000    0.000    0.000    0.000 
#
# Total GULP energy -201070.554646 kJ/mol
# GULP energy per Si atom -5585.293185 kJ/mol
# Density = 2.023470 g / cm^3
# Si number density = 20.280858 Si / 1000 Ang^3
#
#
#
# Elastic Constant Matrix: (Units=GPa)
#
#
# Indices 1 2 3 4 5 6 
#
# 1 27.3216 -19.6201 -1.5392 0.0000 0.0000 0.0000
# 2 -19.6201 150.4688 95.6239 0.0000 0.0000 0.0000
# 3 -1.5392 95.6239 227.3664 0.0000 0.0000 0.0000
# 4 0.0000 0.0000 0.0000 36.7888 0.0000 0.0000
# 5 0.0000 0.0000 0.0000 0.0000 14.2144 0.0000
# 6 0.0000 0.0000 0.0000 0.0000 0.0000 11.2452
#
#
#
# Elastic Compliance Matrix: (Units=1/GPa)
#
#
# Indices 1 2 3 4 5 6 
#
# 1 0.041587 0.007156 -0.002728 0.000000 0.000000 0.000000
# 2 0.007156 0.010302 -0.004284 0.000000 0.000000 0.000000
# 3 -0.002728 -0.004284 0.006182 0.000000 0.000000 0.000000
# 4 0.000000 0.000000 0.000000 0.027182 0.000000 0.000000
# 5 0.000000 0.000000 0.000000 0.000000 0.070351 0.000000
# 6 0.000000 0.000000 0.000000 0.000000 0.000000 0.088927
#
#
# Mechanical properties :
#
#
# Convention : Reuss Voigt Hill
#
# Bulk Modulus (GPa) = 17.13569 61.56512 39.35040
# Shear Modulus (GPa) = 18.96135 34.49582 26.72859
#
# Velocity S-wave (km/s) = 3.06099 4.12868 3.63426
# Velocity P-wave (km/s) = 4.57826 7.29041 6.08731
#
# Compressibility (1/GPa) = 0.05835774
#
# Stress axis : x y z
#
# Youngs Moduli (GPa) = 24.04624 97.07198 161.77301
#
# Poissons Ratio (x) = -0.69469 0.44136
# Poissons Ratio (y) = -0.17209 0.69306
# Poissons Ratio (z) = 0.06560 0.41587
#
# Static dielectric constant tensor:
#      x y z
#    x 1.762630 0.000000 0.000000 
#    y 0.000000 1.661500 0.000000 
#    z 0.000000 0.000000 1.731860 
# 
# From -- ./inp_files/7896.got.cif
#   From: 2010.05.17/outbox.cif.g08.bks.cpg/sg71_4_cif.got.tgz:7896.got - 2010.06.03 16:22:01.
