data_PCOD9519075
_publ_section_title
;
Structure prediction by ZEFSAII (Michael W. Deem and Ramdas Pophale) SiO2 
 PCOD9519075
Probable space group: I M M M
;
_chemical_formula_sum "Si O2"
_cell_formula_units_Z 88
_cell_length_a 14.254062
_cell_length_b 23.555715
_cell_length_c 15.509478
_cell_angle_alpha 90.000000
_cell_angle_beta 90.000000
_cell_angle_gamma 90.000000
_cell_volume 5207.534019
_symmetry_space_group_name_H-M "I M M M"
_symmetry_group_IT_number 71
_symmetry_cell_setting 'orthorhombic'
loop_
_space_group_symop_operation_xyz
x,y,z
-x,-y,z
x,-y,-z
-x,y,-z
-x,-y,-z
x,y,-z
-x,y,z
x,-y,z
1/2+x,1/2+y,1/2+z
1/2-x,1/2-y,1/2+z
1/2+x,1/2-y,1/2-z
1/2-x,1/2+y,1/2-z
1/2-x,1/2-y,1/2-z
1/2+x,1/2+y,1/2-z
1/2-x,1/2+y,1/2+z
1/2+x,1/2-y,1/2+z
loop_
_atom_site_type_symbol
_atom_site_label
_atom_site_fract_x
_atom_site_fract_y
_atom_site_fract_z
Si Si1 0.386163 0.749669 0.098709
Si Si2 0.235101 0.433087 0.742407
Si Si3 0.608641 0.931148 0.404234
Si Si4 0.613268 0.564204 0.000000
Si Si5 0.610418 0.120984 0.896946
Si Si6 0.387483 0.632610 0.824889
O O1 0.500000 0.748125 0.095691
O O2 0.362107 0.813748 0.124467
O O3 0.357742 0.697643 0.158832
O O4 0.354236 0.739699 0.000000
O O5 0.253881 0.500000 0.750794
O O6 0.171559 0.413618 0.824010
O O7 0.175376 0.420196 0.657565
O O8 0.330471 0.397707 0.749649
O O9 0.640944 0.912977 0.500000
O O10 0.500000 0.913517 0.393481
O O11 0.608828 0.000000 0.404118
O O12 0.635688 0.597909 0.912938
O O13 0.652595 0.500000 0.000000
O O14 0.500000 0.560017 0.000000
O O15 0.500000 0.112928 0.876071
O O16 0.619750 0.114263 0.000000
O O17 0.500000 0.630265 0.813121
#
# Coordination Sequence:
#
# PCOD9519075 Si02
#       6
#    16  16  16   8  16  16
#     4   8  14  29  52  75  98 127 167 212 257 300
#     4  11  22  31  46  73 103 134 170 208 248 305
#     4   8  15  28  43  60  89 128 162 192 234 295
#     4   9  16  26  42  66  97 133 166 192 227 278
#     4   9  19  36  57  77  96 122 164 223 276 307
#     4  10  19  31  48  71 102 138 169 203 244 291
#
# _framework density 16.898593999999999
#
# number of rings (size 3 to 8) (size 9 to 14) (size 15 to 20)
#    0.000    2.818    0.909    2.727    1.273    3.273 
#    0.000    0.909    0.000    0.545    0.000    1.273 
#    0.000    1.455    0.000    0.000    0.000    0.000 
#
# Total GULP energy -245200.424462 kJ/mol
# GULP energy per Si atom -5572.736920 kJ/mol
# Density = 1.686013 g / cm^3
# Si number density = 16.898594 Si / 1000 Ang^3
#
#
#
# Elastic Constant Matrix: (Units=GPa)
#
#
# Indices 1 2 3 4 5 6 
#
# 1 48.0145 8.7863 19.4898 -0.0001 0.0000 0.0000
# 2 8.7863 19.1335 3.1105 0.0000 0.0000 0.0000
# 3 19.4898 3.1105 29.6651 -0.0001 0.0000 0.0000
# 4 -0.0001 0.0000 -0.0001 22.4412 0.0000 0.0000
# 5 0.0000 0.0000 0.0000 0.0000 18.6071 0.0000
# 6 0.0000 0.0000 0.0000 0.0000 0.0000 19.6547
#
#
#
# Elastic Compliance Matrix: (Units=1/GPa)
#
#
# Indices 1 2 3 4 5 6 
#
# 1 0.030495 -0.010933 -0.018889 0.000000 0.000000 0.000000
# 2 -0.010933 0.057090 0.001197 0.000000 0.000000 0.000000
# 3 -0.018889 0.001197 0.045994 0.000000 0.000000 0.000000
# 4 0.000000 0.000000 0.000000 0.044561 0.000000 0.000000
# 5 0.000000 0.000000 0.000000 0.000000 0.053743 0.000000
# 6 0.000000 0.000000 0.000000 0.000000 0.000000 0.050878
#
#
# Mechanical properties :
#
#
# Convention : Reuss Voigt Hill
#
# Bulk Modulus (GPa) = 13.10107 17.73180 15.41643
# Shear Modulus (GPa) = 13.68161 16.50237 15.09199
#
# Velocity S-wave (km/s) = 2.84849 3.12838 2.99171
# Velocity P-wave (km/s) = 4.31139 4.85436 4.59091
#
# Compressibility (1/GPa) = 0.07632966
#
# Stress axis : x y z
#
# Youngs Moduli (GPa) = 32.79240 17.51607 21.74199
#
# Poissons Ratio (x) = 0.19150 0.41068
# Poissons Ratio (y) = 0.35852 -0.02602
# Poissons Ratio (z) = 0.61940 -0.02096
#
# Static dielectric constant tensor:
#      x y z
#    x 1.591510 0.000000 0.000000 
#    y 0.000000 1.582370 0.000000 
#    z 0.000000 0.000000 1.567100 
# 
# From -- ./inp_files/22268.got.cif
#   From: 2010.05.17/outbox.cif.g08.bks.cpg/sg71_12_cif.got.tgz:22268.got - 2010.06.03 16:22:01.
