data_PCOD9519844
_publ_section_title
;
Structure prediction by ZEFSAII (Michael W. Deem and Ramdas Pophale) SiO2 
 PCOD9519844
Probable space group: I M M M
;
_chemical_formula_sum "Si O2"
_cell_formula_units_Z 80
_cell_length_a 7.535164
_cell_length_b 22.568828
_cell_length_c 22.520001
_cell_angle_alpha 90.000000
_cell_angle_beta 90.000000
_cell_angle_gamma 90.000000
_cell_volume 3829.747322
_symmetry_space_group_name_H-M "I M M M"
_symmetry_group_IT_number 71
_symmetry_cell_setting 'orthorhombic'
loop_
_space_group_symop_operation_xyz
x,y,z
-x,-y,z
x,-y,-z
-x,y,-z
-x,-y,-z
x,y,-z
-x,y,z
x,-y,z
1/2+x,1/2+y,1/2+z
1/2-x,1/2-y,1/2+z
1/2+x,1/2-y,1/2-z
1/2-x,1/2+y,1/2-z
1/2-x,1/2-y,1/2-z
1/2+x,1/2+y,1/2-z
1/2-x,1/2+y,1/2+z
1/2+x,1/2-y,1/2+z
loop_
_atom_site_type_symbol
_atom_site_label
_atom_site_fract_x
_atom_site_fract_y
_atom_site_fract_z
Si Si1 0.290350 0.265235 0.180230
Si Si2 0.216064 0.064162 0.216415
Si Si3 0.282758 0.500000 0.932320
Si Si4 0.217431 0.929582 0.000000
Si Si5 0.717095 0.396769 0.154199
Si Si6 0.212321 0.147110 0.114474
O O1 0.500000 0.270671 0.179957
O O2 0.250000 0.250000 0.250000
O O3 0.218743 0.329160 0.159333
O O4 0.244451 0.215425 0.131255
O O5 0.269822 0.073450 0.283689
O O6 0.282354 0.114010 0.172808
O O7 0.000000 0.066669 0.216364
O O8 0.268402 0.000000 0.193691
O O9 0.500000 0.500000 0.931197
O O10 0.225497 0.440447 0.898070
O O11 0.225292 0.500000 0.000000
O O12 0.275032 0.889965 0.057040
O O13 0.000000 0.931346 0.000000
O O14 0.271381 0.000000 0.000000
O O15 0.500000 0.395675 0.152074
O O16 0.000000 0.141007 0.112056
#
# Coordination Sequence:
#
# PCOD9519844 Si02
#       6
#    16  16   8   8  16  16
#     4  11  21  34  52  78 110 142 177 219 271 329
#     4   9  14  23  45  73  96 123 168 221 266 304
#     4   9  16  28  46  70 101 130 164 215 266 309
#     4   9  18  34  57  85 111 140 189 238 272 317
#     4   9  16  27  44  69  98 129 165 210 263 311
#     4  10  19  33  53  78 108 143 180 222 271 320
#
# _framework density 20.889106000000002
#
# number of rings (size 3 to 8) (size 9 to 14) (size 15 to 20)
#    0.000    2.400    3.000    1.200    0.000    2.400 
#    1.800    0.500    0.000    3.000    0.000    2.100 
#    0.000    3.200    0.000    0.000    0.000    0.000 
#
# Total GULP energy -222910.257102 kJ/mol
# GULP energy per Si atom -5572.756428 kJ/mol
# Density = 2.084156 g / cm^3
# Si number density = 20.889106 Si / 1000 Ang^3
#
#
#
# Elastic Constant Matrix: (Units=GPa)
#
#
# Indices 1 2 3 4 5 6 
#
# 1 52.0065 1.2636 8.7270 0.0000 0.0000 0.0000
# 2 1.2636 186.2490 83.9760 0.0000 0.0000 0.0000
# 3 8.7270 83.9760 150.8831 0.0000 0.0000 0.0000
# 4 0.0000 0.0000 0.0000 32.3175 0.0000 0.0000
# 5 0.0000 0.0000 0.0000 0.0000 -0.0655 0.0000
# 6 0.0000 0.0000 0.0000 0.0000 0.0000 16.3300
#
#
#
# Elastic Compliance Matrix: (Units=1/GPa)
#
#
# Indices 1 2 3 4 5 6 
#
# 1 0.019452 0.000501 -0.001404 0.000000 0.000000 0.000000
# 2 0.000501 0.007181 -0.004026 0.000000 0.000000 0.000000
# 3 -0.001404 -0.004026 0.008949 0.000000 0.000000 0.000000
# 4 0.000000 0.000000 0.000000 0.030943 0.000000 0.000000
# 5 0.000000 0.000000 0.000000 0.000000-15.264021 0.000000
# 6 0.000000 0.000000 0.000000 0.000000 0.000000 0.061237
#
#
# Mechanical properties :
#
#
# Convention : Reuss Voigt Hill
#
# Bulk Modulus (GPa) = 38.87269 64.11910 51.49590
# Shear Modulus (GPa) = -0.33074 29.39452 14.53189
#
# Velocity S-wave (km/s) = -0.39834 3.75530 2.64041
# Velocity P-wave (km/s) = 4.29394 7.04021 5.83106
#
# Compressibility (1/GPa) = 0.02572500
#
# Stress axis : x y z
#
# Youngs Moduli (GPa) = 51.40916 139.26020 111.74024
#
# Poissons Ratio (x) = -0.06978 0.15688
# Poissons Ratio (y) = -0.02576 0.44982
# Poissons Ratio (z) = 0.07218 0.56060
#
# Static dielectric constant tensor:
#      x y z
#    x 1.813360 0.000000 0.000000 
#    y 0.000000 1.867910 0.000000 
#    z 0.000000 0.000000 1.799420 
# 
# From -- ./inp_files/57446.got.cif
#   From: 2010.05.17/outbox.cif.g08.bks.cpg/sg71_29_cif.got.tgz:57446.got - 2010.06.03 16:22:01.
