data_PCOD9519710
_publ_section_title
;
Structure prediction by ZEFSAII (Michael W. Deem and Ramdas Pophale) SiO2 
 PCOD9519710
Probable space group: I M M M
;
_chemical_formula_sum "Si O2"
_cell_formula_units_Z 88
_cell_length_a 7.477723
_cell_length_b 29.086396
_cell_length_c 19.683086
_cell_angle_alpha 90.000000
_cell_angle_beta 90.000000
_cell_angle_gamma 90.000000
_cell_volume 4281.071448
_symmetry_space_group_name_H-M "I M M M"
_symmetry_group_IT_number 71
_symmetry_cell_setting 'orthorhombic'
loop_
_space_group_symop_operation_xyz
x,y,z
-x,-y,z
x,-y,-z
-x,y,-z
-x,-y,-z
x,y,-z
-x,y,z
x,-y,z
1/2+x,1/2+y,1/2+z
1/2-x,1/2-y,1/2+z
1/2+x,1/2-y,1/2-z
1/2-x,1/2+y,1/2-z
1/2-x,1/2-y,1/2-z
1/2+x,1/2+y,1/2-z
1/2-x,1/2+y,1/2+z
1/2+x,1/2-y,1/2+z
loop_
_atom_site_type_symbol
_atom_site_label
_atom_site_fract_x
_atom_site_fract_y
_atom_site_fract_z
Si Si1 0.281782 0.125497 0.078734
Si Si2 0.788597 0.326971 0.922331
Si Si3 0.214757 0.273893 0.421164
Si Si4 0.785065 0.000000 0.422079
Si Si5 0.209341 0.410402 0.834364
Si Si6 0.219246 0.552992 0.309809
O O1 0.500000 0.125261 0.078417
O O2 0.226100 0.176254 0.105271
O O3 0.223662 0.084559 0.127374
O O4 0.226636 0.120437 0.000000
O O5 0.769166 0.275513 0.892822
O O6 0.713057 0.366484 0.873779
O O7 0.000000 0.335749 0.928494
O O8 0.715215 0.328375 0.000000
O O9 0.274379 0.273016 0.500000
O O10 0.000000 0.274253 0.420481
O O11 0.723102 0.045340 0.382816
O O12 0.723541 0.000000 0.500000
O O13 0.000000 0.000000 0.421713
O O14 0.282197 0.424714 0.760967
O O15 0.000000 0.400333 0.822522
O O16 0.275728 0.500000 0.314606
O O17 0.000000 0.552555 0.309033
#
# Coordination Sequence:
#
# PCOD9519710 Si02
#       6
#    16  16  16   8  16  16
#     4   8  14  25  43  69  98 124 153 193 240 286
#     4   9  17  28  44  66  90 119 156 196 234 273
#     4   8  14  26  44  65  91 123 154 188 234 281
#     4  11  23  35  49  71  96 123 160 202 237 273
#     4  10  19  33  50  69  95 127 161 195 236 283
#     4   9  16  27  45  68  93 124 160 195 237 284
#
# _framework density 20.555600999999999
#
# number of rings (size 3 to 8) (size 9 to 14) (size 15 to 20)
#    0.000    3.000    0.909    1.909    0.000    2.545 
#    0.000    4.545    0.000    1.091    0.000    0.000 
#    0.000    0.727    0.000    0.000    0.000    0.000 
#
# Total GULP energy -245293.154006 kJ/mol
# GULP energy per Si atom -5574.844409 kJ/mol
# Density = 2.050882 g / cm^3
# Si number density = 20.555601 Si / 1000 Ang^3
#
#
#
# Elastic Constant Matrix: (Units=GPa)
#
#
# Indices 1 2 3 4 5 6 
#
# 1 54.4274 2.5224 -0.8212 0.0000 0.0000 0.0000
# 2 2.5224 216.0973 108.4292 0.0001 0.0000 0.0000
# 3 -0.8212 108.4292 120.0797 -0.0005 0.0000 0.0000
# 4 0.0000 0.0001 -0.0005 -243.4816 0.0002 0.0000
# 5 0.0000 0.0000 0.0000 0.0002 29.5662 0.0000
# 6 0.0000 0.0000 0.0000 0.0000 0.0000 25.6580
#
#
#
# Elastic Compliance Matrix: (Units=1/GPa)
#
#
# Indices 1 2 3 4 5 6 
#
# 1 0.018405 -0.000508 0.000585 0.000000 0.000000 0.000000
# 2 -0.000508 0.008475 -0.007656 0.000000 0.000000 0.000000
# 3 0.000585 -0.007656 0.015245 0.000000 0.000000 0.000000
# 4 0.000000 0.000000 0.000000 -0.004107 0.000000 0.000000
# 5 0.000000 0.000000 0.000000 0.000000 0.033822 0.000000
# 6 0.000000 0.000000 0.000000 0.000000 0.000000 0.038974
#
#
# Mechanical properties :
#
#
# Convention : Reuss Voigt Hill
#
# Bulk Modulus (GPa) = 37.08326 67.87393 52.47860
# Shear Modulus (GPa) = 37.04702 -18.95320 9.04691
#
# Velocity S-wave (km/s) = 4.24994 -3.03981 2.10018
# Velocity P-wave (km/s) = 6.49325 4.55749 5.60950
#
# Compressibility (1/GPa) = 0.02696634
#
# Stress axis : x y z
#
# Youngs Moduli (GPa) = 54.33165 117.99261 65.59419
#
# Poissons Ratio (x) = 0.05997 -0.03836
# Poissons Ratio (y) = 0.02762 0.50221
# Poissons Ratio (z) = -0.03178 0.90339
#
# Static dielectric constant tensor:
#      x y z
#    x 1.792580 0.000000 0.000000 
#    y 0.000000 1.734160 0.000000 
#    z 0.000000 0.000000 1.709640 
# 
# From -- ./inp_files/42461.got.cif
#   From: 2010.05.17/outbox.cif.g08.bks.cpg/sg71_22_cif.got.tgz:42461.got - 2010.06.03 16:22:01.
