data_PCOD9519944
_publ_section_title
;
Structure prediction by ZEFSAII (Michael W. Deem and Ramdas Pophale) SiO2 
 PCOD9519944
Probable space group: I M M M
;
_chemical_formula_sum "Si O2"
_cell_formula_units_Z 88
_cell_length_a 28.437599
_cell_length_b 13.498984
_cell_length_c 12.183175
_cell_angle_alpha 90.000000
_cell_angle_beta 90.000000
_cell_angle_gamma 90.000000
_cell_volume 4676.861307
_symmetry_space_group_name_H-M "I M M M"
_symmetry_group_IT_number 71
_symmetry_cell_setting 'orthorhombic'
loop_
_space_group_symop_operation_xyz
x,y,z
-x,-y,z
x,-y,-z
-x,y,-z
-x,-y,-z
x,y,-z
-x,y,z
x,-y,z
1/2+x,1/2+y,1/2+z
1/2-x,1/2-y,1/2+z
1/2+x,1/2-y,1/2-z
1/2-x,1/2+y,1/2-z
1/2-x,1/2-y,1/2-z
1/2+x,1/2+y,1/2-z
1/2-x,1/2+y,1/2+z
1/2+x,1/2-y,1/2+z
loop_
_atom_site_type_symbol
_atom_site_label
_atom_site_fract_x
_atom_site_fract_y
_atom_site_fract_z
Si Si1 0.181119 0.179760 0.375509
Si Si2 0.052658 0.702312 0.368850
Si Si3 0.216457 0.617364 0.877724
Si Si4 0.851885 0.387775 0.682616
Si Si5 0.054926 0.880324 0.000000
Si Si6 0.908564 0.116468 0.759199
O O1 0.176011 0.137671 0.500000
O O2 0.234564 0.163758 0.338440
O O3 0.169918 0.296280 0.383010
O O4 0.143898 0.134379 0.289464
O O5 0.059701 0.708796 0.500000
O O6 0.092607 0.631292 0.320537
O O7 0.060444 0.810201 0.315433
O O8 0.000000 0.667420 0.347658
O O9 0.225637 0.500000 0.882379
O O10 0.171725 0.628881 0.800842
O O11 0.207224 0.655263 0.000000
O O12 0.841283 0.500000 0.646655
O O13 0.081669 0.854071 0.886383
O O14 0.000000 0.845676 0.000000
O O15 0.053039 0.000000 0.000000
O O16 0.920041 0.000000 0.747869
#
# Coordination Sequence:
#
# PCOD9519944 Si02
#       6
#    16  16  16  16   8  16
#     4  10  20  34  54  84 117 144 178 222 269 323
#     4  10  22  38  55  79 108 137 179 231 278 326
#     4   9  18  34  57  82 109 143 178 216 269 329
#     4  10  20  35  55  77 107 144 183 224 266 318
#     4   9  18  32  50  72 103 147 189 219 255 315
#     4  10  19  33  55  81 112 146 180 218 267 325
#
# _framework density 18.816037000000001
#
# number of rings (size 3 to 8) (size 9 to 14) (size 15 to 20)
#    0.000    2.273    0.000    3.818    0.000    5.091 
#    6.545    1.818    4.000    0.000    0.000    2.545 
#    0.000    0.000    0.000    0.000    0.000    0.000 
#
# Total GULP energy -245138.706564 kJ/mol
# GULP energy per Si atom -5571.334240 kJ/mol
# Density = 1.877321 g / cm^3
# Si number density = 18.816037 Si / 1000 Ang^3
#
#
#
# Elastic Constant Matrix: (Units=GPa)
#
#
# Indices 1 2 3 4 5 6 
#
# 1 136.2543 23.3356 87.4836 0.0000 0.0000 0.0000
# 2 23.3356 43.4411 10.3989 0.0000 0.0000 0.0000
# 3 87.4836 10.3989 98.9161 0.0000 0.0000 0.0000
# 4 0.0000 0.0000 0.0000 15.5513 0.0000 0.0000
# 5 0.0000 0.0000 0.0000 0.0000 35.6738 0.0000
# 6 0.0000 0.0000 0.0000 0.0000 0.0000 13.6411
#
#
#
# Elastic Compliance Matrix: (Units=1/GPa)
#
#
# Indices 1 2 3 4 5 6 
#
# 1 0.018463 -0.006164 -0.015681 0.000000 0.000000 0.000000
# 2 -0.006164 0.025672 0.002753 0.000000 0.000000 0.000000
# 3 -0.015681 0.002753 0.023689 0.000000 0.000000 0.000000
# 4 0.000000 0.000000 0.000000 0.064303 0.000000 0.000000
# 5 0.000000 0.000000 0.000000 0.000000 0.028032 0.000000
# 6 0.000000 0.000000 0.000000 0.000000 0.000000 0.073308
#
#
# Mechanical properties :
#
#
# Convention : Reuss Voigt Hill
#
# Bulk Modulus (GPa) = 33.73920 57.89420 45.81670
# Shear Modulus (GPa) = 17.75995 23.46614 20.61304
#
# Velocity S-wave (km/s) = 3.07558 3.53531 3.31343
# Velocity P-wave (km/s) = 5.53013 6.89202 6.24829
#
# Compressibility (1/GPa) = 0.02963911
#
# Stress axis : x y z
#
# Youngs Moduli (GPa) = 54.16140 38.95294 42.21355
#
# Poissons Ratio (x) = 0.24012 0.66196
# Poissons Ratio (y) = 0.33387 -0.11621
# Poissons Ratio (z) = 0.84932 -0.10724
#
# Static dielectric constant tensor:
#      x y z
#    x 1.660520 0.000000 0.000000 
#    y 0.000000 1.658190 0.000000 
#    z 0.000000 0.000000 1.679540 
# 
# From -- ./inp_files/29887.got.cif
#   From: 2010.05.17/outbox.cif.g08.bks.cpg/sg71_15_cif.got.tgz:29887.got - 2010.06.03 16:22:01.
