data_PCOD9519762
_publ_section_title
;
Structure prediction by ZEFSAII (Michael W. Deem and Ramdas Pophale) SiO2 
 PCOD9519762
Probable space group: I M M M
;
_chemical_formula_sum "Si O2"
_cell_formula_units_Z 56
_cell_length_a 7.431900
_cell_length_b 10.237389
_cell_length_c 29.448238
_cell_angle_alpha 90.000000
_cell_angle_beta 90.000000
_cell_angle_gamma 90.000000
_cell_volume 2240.517692
_symmetry_space_group_name_H-M "I M M M"
_symmetry_group_IT_number 71
_symmetry_cell_setting 'orthorhombic'
loop_
_space_group_symop_operation_xyz
x,y,z
-x,-y,z
x,-y,-z
-x,y,-z
-x,-y,-z
x,y,-z
-x,y,z
x,-y,z
1/2+x,1/2+y,1/2+z
1/2-x,1/2-y,1/2+z
1/2+x,1/2-y,1/2-z
1/2-x,1/2+y,1/2-z
1/2-x,1/2-y,1/2-z
1/2+x,1/2+y,1/2-z
1/2-x,1/2+y,1/2+z
1/2+x,1/2-y,1/2+z
loop_
_atom_site_type_symbol
_atom_site_label
_atom_site_fract_x
_atom_site_fract_y
_atom_site_fract_z
Si Si1 0.221206 0.215504 0.852230
Si Si2 0.707779 0.000000 0.324650
Si Si3 0.717322 0.500000 0.719280
Si Si4 0.704958 0.706211 0.449076
Si Si5 0.299459 0.500000 0.946284
O O1 0.283648 0.363292 0.842645
O O2 0.273526 0.125198 0.810149
O O3 0.283870 0.159867 0.901148
O O4 0.000000 0.214104 0.853595
O O5 0.714174 0.000000 0.270309
O O6 0.500000 0.000000 0.339516
O O7 0.500000 0.500000 0.721977
O O8 0.784034 0.684942 0.500000
O O9 0.500000 0.659423 0.451773
O O10 0.702913 0.862646 0.439261
O O11 0.500000 0.500000 0.926111
O O12 0.321789 0.500000 0.000000
#
# Coordination Sequence:
#
# PCOD9519762 Si02
#       5
#    16   8   8  16   8
#     4   9  18  32  51  74  99 127 159 199 244 285
#     4  10  19  33  52  72  96 126 161 200 243 291
#     4  10  20  35  52  71  98 128 160 202 248 286
#     4   9  16  28  47  69  94 128 165 193 227 287
#     4   9  16  25  39  64  97 127 156 197 242 272
#
# _framework density 24.994222000000001
#
# number of rings (size 3 to 8) (size 9 to 14) (size 15 to 20)
#    0.000    2.714    0.000    2.143    0.000    4.000 
#    0.000    5.000    0.000    4.286    0.000    0.000 
#    0.000    5.714    0.000    0.000    0.000    0.000 
#
# Total GULP energy -156240.342199 kJ/mol
# GULP energy per Si atom -5580.012221 kJ/mol
# Density = 2.493733 g / cm^3
# Si number density = 24.994222 Si / 1000 Ang^3
#
#
#
# Elastic Constant Matrix: (Units=GPa)
#
#
# Indices 1 2 3 4 5 6 
#
# 1 84.5406 8.3081 -5.3986 0.0000 0.0000 0.0000
# 2 8.3081 116.2834 44.9322 0.0000 0.0000 0.0000
# 3 -5.3986 44.9322 243.9111 0.0000 0.0000 0.0000
# 4 0.0000 0.0000 0.0000 65.6625 0.0000 0.0000
# 5 0.0000 0.0000 0.0000 0.0000 15.5515 0.0000
# 6 0.0000 0.0000 0.0000 0.0000 0.0000 -8.7313
#
#
#
# Elastic Compliance Matrix: (Units=1/GPa)
#
#
# Indices 1 2 3 4 5 6 
#
# 1 0.011959 -0.001030 0.000454 0.000000 0.000000 0.000000
# 2 -0.001030 0.009347 -0.001745 0.000000 0.000000 0.000000
# 3 0.000454 -0.001745 0.004431 0.000000 0.000000 0.000000
# 4 0.000000 0.000000 0.000000 0.015229 0.000000 0.000000
# 5 0.000000 0.000000 0.000000 0.000000 0.064303 0.000000
# 6 0.000000 0.000000 0.000000 0.000000 0.000000 -0.114531
#
#
# Mechanical properties :
#
#
# Convention : Reuss Voigt Hill
#
# Bulk Modulus (GPa) = 47.40011 60.04650 53.72330
# Shear Modulus (GPa) = 2073.22793 40.95609 1057.09201
#
# Velocity S-wave (km/s) = 28.83199 4.05238 20.58768
# Velocity P-wave (km/s) = 33.57654 6.78027 24.22143
#
# Compressibility (1/GPa) = 0.02109700
#
# Stress axis : x y z
#
# Youngs Moduli (GPa) = 83.61985 106.98116 225.66635
#
# Poissons Ratio (x) = 0.11019 -0.10255
# Poissons Ratio (y) = 0.08613 0.39373
# Poissons Ratio (z) = -0.03800 0.18665
#
# Static dielectric constant tensor:
#      x y z
#    x 2.035180 0.000000 0.000000 
#    y 0.000000 2.062100 0.000000 
#    z 0.000000 0.000000 1.973590 
# 
# From -- ./inp_files/3405.got.cif
#   From: 2010.05.17/outbox.cif.g08.bks.cpg/sg71_2_cif.got.tgz:3405.got - 2010.06.03 16:22:01.
