data_PCOD9519148
_publ_section_title
;
Structure prediction by ZEFSAII (Michael W. Deem and Ramdas Pophale) SiO2 
 PCOD9519148
Probable space group: I M M M
;
_chemical_formula_sum "Si O2"
_cell_formula_units_Z 104
_cell_length_a 27.918845
_cell_length_b 18.152802
_cell_length_c 11.528537
_cell_angle_alpha 90.000000
_cell_angle_beta 90.000000
_cell_angle_gamma 90.000000
_cell_volume 5842.723253
_symmetry_space_group_name_H-M "I M M M"
_symmetry_group_IT_number 71
_symmetry_cell_setting 'orthorhombic'
loop_
_space_group_symop_operation_xyz
x,y,z
-x,-y,z
x,-y,-z
-x,y,-z
-x,-y,-z
x,y,-z
-x,y,z
x,-y,z
1/2+x,1/2+y,1/2+z
1/2-x,1/2-y,1/2+z
1/2+x,1/2-y,1/2-z
1/2-x,1/2+y,1/2-z
1/2-x,1/2-y,1/2-z
1/2+x,1/2+y,1/2-z
1/2-x,1/2+y,1/2+z
1/2+x,1/2-y,1/2+z
loop_
_atom_site_type_symbol
_atom_site_label
_atom_site_fract_x
_atom_site_fract_y
_atom_site_fract_z
Si Si1 0.396636 0.084526 0.862607
Si Si2 0.200257 0.369947 0.233081
Si Si3 0.845035 0.176553 0.500000
Si Si4 0.051248 0.832978 0.500000
Si Si5 0.652378 0.278257 0.258533
Si Si6 0.248804 0.418008 0.000000
Si Si7 0.947405 0.273069 0.275328
Si Si8 0.795403 0.085985 0.861573
O O1 0.347956 0.098484 0.790461
O O2 0.434341 0.145198 0.819405
O O3 0.412136 0.000000 0.846315
O O4 0.387679 0.095690 0.000000
O O5 0.189870 0.284312 0.205215
O O6 0.216847 0.406043 0.113457
O O7 0.243582 0.385016 0.321158
O O8 0.895618 0.131287 0.500000
O O9 0.846181 0.222986 0.618165
O O10 0.795247 0.133685 0.500000
O O11 0.050647 0.780512 0.387316
O O12 0.000000 0.874893 0.500000
O O13 0.598817 0.255199 0.295440
O O14 0.667249 0.358616 0.301573
O O15 0.268146 0.500000 0.000000
O O16 0.000000 0.271249 0.219861
O O17 0.800596 0.000000 0.827130
O O18 0.799847 0.090489 0.000000
#
# Coordination Sequence:
#
# PCOD9519148 Si02
#       8
#    16  16   8   8  16   8  16  16
#     4  10  19  31  49  76 113 150 182 220 268 324
#     4  11  23  35  54  76 110 150 187 224 259 320
#     4  10  20  32  54  80 105 143 177 221 267 316
#     4   8  14  28  47  71 102 130 169 216 266 323
#     4  10  22  35  56  81 109 142 183 220 264 326
#     4  12  24  36  52  75 108 147 188 228 274 316
#     4   9  17  31  51  77 105 138 175 220 270 321
#     4  11  23  37  56  80 111 144 177 223 275 324
#
# _framework density 17.799918999999999
#
# number of rings (size 3 to 8) (size 9 to 14) (size 15 to 20)
#    0.000    1.846    2.308    2.308    5.385    1.538 
#    0.000    0.769    0.000    1.154    0.000    5.385 
#    0.000    5.846    0.000    0.000    0.000    0.000 
#
# Total GULP energy -289852.924890 kJ/mol
# GULP energy per Si atom -5574.094709 kJ/mol
# Density = 1.775941 g / cm^3
# Si number density = 17.799919 Si / 1000 Ang^3
#
#
#
# Elastic Constant Matrix: (Units=GPa)
#
#
# Indices 1 2 3 4 5 6 
#
# 1 88.3691 40.1318 11.1463 0.0000 0.0000 0.0000
# 2 40.1318 80.0533 5.3563 0.0000 0.0000 0.0000
# 3 11.1463 5.3563 31.3210 0.0000 0.0000 0.0000
# 4 0.0000 0.0000 0.0000 17.0141 0.0000 0.0000
# 5 0.0000 0.0000 0.0000 0.0000 5.4681 0.0000
# 6 0.0000 0.0000 0.0000 0.0000 0.0000 2.9607
#
#
#
# Elastic Compliance Matrix: (Units=1/GPa)
#
#
# Indices 1 2 3 4 5 6 
#
# 1 0.015166 -0.007325 -0.004144 0.000000 0.000000 0.000000
# 2 -0.007325 0.016175 -0.000159 0.000000 0.000000 0.000000
# 3 -0.004144 -0.000159 0.033430 0.000000 0.000000 0.000000
# 4 0.000000 0.000000 0.000000 0.058775 0.000000 0.000000
# 5 0.000000 0.000000 0.000000 0.000000 0.182879 0.000000
# 6 0.000000 0.000000 0.000000 0.000000 0.000000 0.337754
#
#
# Mechanical properties :
#
#
# Convention : Reuss Voigt Hill
#
# Bulk Modulus (GPa) = 24.08939 34.77913 29.43426
# Shear Modulus (GPa) = 7.33920 14.62919 10.98420
#
# Velocity S-wave (km/s) = 2.03276 2.86994 2.48683
# Velocity P-wave (km/s) = 4.36718 5.52842 4.98175
#
# Compressibility (1/GPa) = 0.04151205
#
# Stress axis : x y z
#
# Youngs Moduli (GPa) = 65.93844 61.82510 29.91366
#
# Poissons Ratio (x) = 0.45290 0.12397
# Poissons Ratio (y) = 0.48303 0.00476
# Poissons Ratio (z) = 0.27327 0.00984
#
# Static dielectric constant tensor:
#      x y z
#    x 1.639940 0.000000 0.000000 
#    y 0.000000 1.617960 0.000000 
#    z 0.000000 0.000000 1.596690 
# 
# From -- ./inp_files/24837.got.cif
#   From: 2010.05.17/outbox.cif.g08.bks.cpg/sg71_13_cif.got.tgz:24837.got - 2010.06.03 16:22:01.
