data_PCOD9519691
_publ_section_title
;
Structure prediction by ZEFSAII (Michael W. Deem and Ramdas Pophale) SiO2 
 PCOD9519691
Probable space group: I M M M
;
_chemical_formula_sum "Si O2"
_cell_formula_units_Z 66
_cell_length_a 7.584464
_cell_length_b 15.904065
_cell_length_c 26.362981
_cell_angle_alpha 90.000000
_cell_angle_beta 90.000000
_cell_angle_gamma 90.000000
_cell_volume 3180.003170
_symmetry_space_group_name_H-M "I M M M"
_symmetry_group_IT_number 71
_symmetry_cell_setting 'orthorhombic'
loop_
_space_group_symop_operation_xyz
x,y,z
-x,-y,z
x,-y,-z
-x,y,-z
-x,-y,-z
x,y,-z
-x,y,z
x,-y,z
1/2+x,1/2+y,1/2+z
1/2-x,1/2-y,1/2+z
1/2+x,1/2-y,1/2-z
1/2-x,1/2+y,1/2-z
1/2-x,1/2-y,1/2-z
1/2+x,1/2+y,1/2-z
1/2-x,1/2+y,1/2+z
1/2+x,1/2-y,1/2+z
loop_
_atom_site_type_symbol
_atom_site_label
_atom_site_fract_x
_atom_site_fract_y
_atom_site_fract_z
Si Si1 0.212811 0.594216 0.253237
Si Si2 0.211744 0.352426 0.635250
Si Si3 0.291399 0.500000 0.442735
Si Si4 0.292514 0.330709 0.149707
Si Si5 0.718233 0.500000 0.907721
Si Si6 0.000000 0.500000 0.000000
O O1 0.273842 0.500000 0.239285
O O2 0.275471 0.614492 0.309992
O O3 0.267458 0.659295 0.210001
O O4 0.000000 0.593535 0.254011
O O5 0.246244 0.417785 0.590400
O O6 0.281150 0.257420 0.629148
O O7 0.000000 0.348011 0.639481
O O8 0.500000 0.500000 0.447446
O O9 0.215779 0.500000 0.500000
O O10 0.500000 0.328377 0.139758
O O11 0.231246 0.416193 0.123596
O O12 0.500000 0.500000 0.915757
O O13 0.842042 0.500000 0.956447
#
# Coordination Sequence:
#
# PCOD9519691 Si02
#       6
#    16  16   8  16   8   2
#     4  10  19  32  57  88 126 163 201 247 299 374
#     4  10  21  40  62  88 121 164 209 246 305 374
#     4  11  25  44  61  87 119 154 201 268 316 354
#     4  10  21  37  61  91 126 164 201 254 309 370
#     4  10  23  44  64  94 129 160 218 272 308 390
#     4  12  26  44  72  90 116 182 210 260 358 362
#
# _framework density 20.754695999999999
#
# number of rings (size 3 to 8) (size 9 to 14) (size 15 to 20)
#    0.000    1.818    2.424    1.273    1.697    2.909 
#    2.182    0.000    0.000    0.000    0.000    0.000 
#    0.000    0.000    0.000    0.000    0.000    0.000 
#
# Total GULP energy -183907.880669 kJ/mol
# GULP energy per Si atom -5572.966081 kJ/mol
# Density = 2.070746 g / cm^3
# Si number density = 20.754696 Si / 1000 Ang^3
#
#
#
# Elastic Constant Matrix: (Units=GPa)
#
#
# Indices 1 2 3 4 5 6 
#
# 1 45.7071 9.2227 1.1134 0.0000 0.0000 0.0000
# 2 9.2227 191.5328 92.3313 0.0000 0.0000 0.0000
# 3 1.1134 92.3313 164.4379 0.0000 0.0000 0.0000
# 4 0.0000 0.0000 0.0000 11.3544 0.0000 0.0000
# 5 0.0000 0.0000 0.0000 0.0000 27.3182 0.0000
# 6 0.0000 0.0000 0.0000 0.0000 0.0000 -0.0072
#
#
#
# Elastic Compliance Matrix: (Units=1/GPa)
#
#
# Indices 1 2 3 4 5 6 
#
# 1 0.022138 -0.001363 0.000615 0.000000 0.000000 0.000000
# 2 -0.001363 0.007243 -0.004057 0.000000 0.000000 0.000000
# 3 0.000615 -0.004057 0.008355 0.000000 0.000000 0.000000
# 4 0.000000 0.000000 0.000000 0.088071 0.000000 -0.000010
# 5 0.000000 0.000000 0.000000 0.000000 0.036606 0.000000
# 6 0.000000 0.000000 0.000000 -0.000010 0.000000**********
#
#
# Mechanical properties :
#
#
# Convention : Reuss Voigt Hill
#
# Bulk Modulus (GPa) = 35.55340 67.44583 51.49962
# Shear Modulus (GPa) = -0.03623 27.66712 13.81544
#
# Velocity S-wave (km/s) = -0.13227 3.65506 2.58283
# Velocity P-wave (km/s) = 4.14055 7.09788 5.81051
#
# Compressibility (1/GPa) = 0.02812671
#
# Stress axis : x y z
#
# Youngs Moduli (GPa) = 45.17040 138.07163 119.68280
#
# Poissons Ratio (x) = 0.18813 -0.07363
# Poissons Ratio (y) = 0.06155 0.48561
# Poissons Ratio (z) = -0.02779 0.56022
#
# Static dielectric constant tensor:
#      x y z
#    x 1.764740 0.000000 0.000000 
#    y 0.000000 1.798820 0.000000 
#    z 0.000000 0.000000 1.721150 
# 
# From -- ./inp_files/62829.got.cif
#   From: 2010.05.17/outbox.cif.g08.bks.cpg/sg71_32_cif.got.tgz:62829.got - 2010.06.03 16:22:01.
