data_PCOD9519424
_publ_section_title
;
Structure prediction by ZEFSAII (Michael W. Deem and Ramdas Pophale) SiO2 
 PCOD9519424
Probable space group: I M M M
;
_chemical_formula_sum "Si O2"
_cell_formula_units_Z 88
_cell_length_a 22.607438
_cell_length_b 25.356396
_cell_length_c 9.045008
_cell_angle_alpha 90.000000
_cell_angle_beta 90.000000
_cell_angle_gamma 90.000000
_cell_volume 5184.988882
_symmetry_space_group_name_H-M "I M M M"
_symmetry_group_IT_number 71
_symmetry_cell_setting 'orthorhombic'
loop_
_space_group_symop_operation_xyz
x,y,z
-x,-y,z
x,-y,-z
-x,y,-z
-x,-y,-z
x,y,-z
-x,y,z
x,-y,z
1/2+x,1/2+y,1/2+z
1/2-x,1/2-y,1/2+z
1/2+x,1/2-y,1/2-z
1/2-x,1/2+y,1/2-z
1/2-x,1/2-y,1/2-z
1/2+x,1/2+y,1/2-z
1/2-x,1/2+y,1/2+z
1/2+x,1/2-y,1/2+z
loop_
_atom_site_type_symbol
_atom_site_label
_atom_site_fract_x
_atom_site_fract_y
_atom_site_fract_z
Si Si1 0.813885 0.757330 0.823403
Si Si2 0.119283 0.936793 0.668207
Si Si3 0.212840 0.870990 0.176398
Si Si4 0.341493 0.144064 0.677910
Si Si5 0.930446 0.560942 0.677829
Si Si6 0.500000 0.435668 0.669959
O O1 0.750000 0.750000 0.750000
O O2 0.826503 0.818366 0.788979
O O3 0.852528 0.706156 0.781809
O O4 0.807291 0.754299 0.000000
O O5 0.123893 0.917246 0.500000
O O6 0.175173 0.919030 0.762669
O O7 0.058924 0.918421 0.745698
O O8 0.116821 0.000000 0.663602
O O9 0.276291 0.867820 0.256245
O O10 0.221768 0.873487 0.000000
O O11 0.340607 0.139253 0.500000
O O12 0.388692 0.103591 0.744818
O O13 0.924085 0.565173 0.500000
O O14 0.915672 0.500000 0.718244
O O15 0.000000 0.569210 0.712762
O O16 0.500000 0.500000 0.669335
O O17 0.500000 0.418279 0.500000
#
# Coordination Sequence:
#
# PCOD9519424 Si02
#       6
#    16  16  16  16  16   8
#     4   8  16  30  48  71  97 126 161 198 241 291
#     4  10  20  33  49  71 100 131 164 206 252 293
#     4  10  19  32  51  74 101 133 170 207 248 299
#     4  10  19  32  52  77 103 129 162 205 255 304
#     4   9  19  36  55  74  99 133 172 211 251 300
#     4   9  17  31  51  71  91 123 165 199 234 289
#
# _framework density 16.972071
#
# number of rings (size 3 to 8) (size 9 to 14) (size 15 to 20)
#    0.000    2.636    0.000    2.455    0.000    5.091 
#    0.000    0.909    2.000    0.000    0.000    0.000 
#    0.000    0.000    0.000    0.000    0.000    0.000 
#
# Total GULP energy -244936.854327 kJ/mol
# GULP energy per Si atom -5566.746689 kJ/mol
# Density = 1.693344 g / cm^3
# Si number density = 16.972071 Si / 1000 Ang^3
#
#
#
# Elastic Constant Matrix: (Units=GPa)
#
#
# Indices 1 2 3 4 5 6 
#
# 1 72.7243 46.4553 35.8053 0.0000 0.0000 0.0000
# 2 46.4553 75.6386 40.2970 0.0000 0.0000 0.0000
# 3 35.8053 40.2970 59.9998 0.0000 0.0000 0.0000
# 4 0.0000 0.0000 0.0000 22.1931 0.0000 0.0000
# 5 0.0000 0.0000 0.0000 0.0000 28.4456 0.0000
# 6 0.0000 0.0000 0.0000 0.0000 0.0000 19.8304
#
#
#
# Elastic Compliance Matrix: (Units=1/GPa)
#
#
# Indices 1 2 3 4 5 6 
#
# 1 0.024378 -0.011246 -0.006995 0.000000 0.000000 0.000000
# 2 -0.011246 0.025775 -0.010600 0.000000 0.000000 0.000000
# 3 -0.006995 -0.010600 0.027960 0.000000 0.000000 0.000000
# 4 0.000000 0.000000 0.000000 0.045059 0.000000 0.000000
# 5 0.000000 0.000000 0.000000 0.000000 0.035155 0.000000
# 6 0.000000 0.000000 0.000000 0.000000 0.000000 0.050428
#
#
# Mechanical properties :
#
#
# Convention : Reuss Voigt Hill
#
# Bulk Modulus (GPa) = 48.94323 50.38645 49.66484
# Shear Modulus (GPa) = 18.29850 19.81415 19.05633
#
# Velocity S-wave (km/s) = 3.28709 3.42051 3.35446
# Velocity P-wave (km/s) = 6.58078 6.73440 6.65804
#
# Compressibility (1/GPa) = 0.02043184
#
# Stress axis : x y z
#
# Youngs Moduli (GPa) = 41.02033 38.79751 35.76530
#
# Poissons Ratio (x) = 0.43631 0.25017
# Poissons Ratio (y) = 0.46131 0.37911
# Poissons Ratio (z) = 0.28693 0.41125
#
# Static dielectric constant tensor:
#      x y z
#    x 1.533620 0.000000 0.000000 
#    y 0.000000 1.627570 0.000000 
#    z 0.000000 0.000000 1.570910 
# 
# From -- ./inp_files/10446.got.cif
#   From: 2010.05.17/outbox.cif.g08.bks.cpg/sg71_6_cif.got.tgz:10446.got - 2010.06.03 16:22:01.
