data_PCOD9519617
_publ_section_title
;
Structure prediction by ZEFSAII (Michael W. Deem and Ramdas Pophale) SiO2 
 PCOD9519617
Probable space group: I M M M
;
_chemical_formula_sum "Si O2"
_cell_formula_units_Z 112
_cell_length_a 15.008248
_cell_length_b 14.811863
_cell_length_c 26.028944
_cell_angle_alpha 90.000000
_cell_angle_beta 90.000000
_cell_angle_gamma 90.000000
_cell_volume 5786.237199
_symmetry_space_group_name_H-M "I M M M"
_symmetry_group_IT_number 71
_symmetry_cell_setting 'orthorhombic'
loop_
_space_group_symop_operation_xyz
x,y,z
-x,-y,z
x,-y,-z
-x,y,-z
-x,-y,-z
x,y,-z
-x,y,z
x,-y,z
1/2+x,1/2+y,1/2+z
1/2-x,1/2-y,1/2+z
1/2+x,1/2-y,1/2-z
1/2-x,1/2+y,1/2-z
1/2-x,1/2-y,1/2-z
1/2+x,1/2+y,1/2-z
1/2-x,1/2+y,1/2+z
1/2+x,1/2-y,1/2+z
loop_
_atom_site_type_symbol
_atom_site_label
_atom_site_fract_x
_atom_site_fract_y
_atom_site_fract_z
Si Si1 0.901374 0.863324 0.826208
Si Si2 0.904247 0.658485 0.134907
Si Si3 0.898693 0.227529 0.607147
Si Si4 0.805015 0.396367 0.347330
Si Si5 0.866613 0.890419 0.706543
Si Si6 0.326746 0.103843 0.734606
Si Si7 0.754316 0.895213 0.558893
O O1 0.899258 0.762738 0.848728
O O2 0.803477 0.899297 0.842897
O O3 0.900894 0.869254 0.763997
O O4 0.000000 0.900127 0.841936
O O5 0.898146 0.610859 0.190385
O O6 0.824120 0.631010 0.098136
O O7 0.000000 0.639004 0.110598
O O8 0.844499 0.320982 0.615198
O O9 0.903296 0.167967 0.659838
O O10 0.839862 0.165948 0.569687
O O11 0.000000 0.244772 0.590637
O O12 0.834390 0.500000 0.357395
O O13 0.841971 0.361670 0.291609
O O14 0.763421 0.859297 0.709912
O O15 0.875046 0.000000 0.698201
O O16 0.305357 0.000000 0.744708
O O17 0.724808 0.884958 0.500000
O O18 0.776805 0.000000 0.568163
#
# Coordination Sequence:
#
# PCOD9519617 Si02
#       7
#    16  16  16  16  16  16  16
#     4  10  19  32  54  87 124 160 200 242 283 338
#     4  11  21  35  59  89 121 160 200 238 288 352
#     4  12  24  39  61  87 117 156 201 249 299 353
#     4  10  21  37  58  87 125 165 200 239 289 347
#     4  10  19  32  53  85 126 166 201 240 285 339
#     4   9  17  30  50  79 120 162 197 231 270 331
#     4  11  25  45  66  88 117 151 192 247 305 358
#
# _framework density 19.356276000000001
#
# number of rings (size 3 to 8) (size 9 to 14) (size 15 to 20)
#    0.000    1.571    2.857    3.429    0.000    8.857 
#    0.000    2.857    0.000    0.429    0.000    1.000 
#    0.000    2.286    0.000    0.000    0.000    0.000 
#
# Total GULP energy -312087.835014 kJ/mol
# GULP energy per Si atom -5572.997054 kJ/mol
# Density = 1.931222 g / cm^3
# Si number density = 19.356276 Si / 1000 Ang^3
#
#
#
# Elastic Constant Matrix: (Units=GPa)
#
#
# Indices 1 2 3 4 5 6 
#
# 1 103.4996 26.2545 27.6890 0.0000 0.0000 0.0000
# 2 26.2545 97.3228 34.3233 0.0000 0.0000 0.0000
# 3 27.6890 34.3233 48.6881 0.0000 0.0000 0.0000
# 4 0.0000 0.0000 0.0000 21.3001 0.0000 0.0000
# 5 0.0000 0.0000 0.0000 0.0000 -10.6468 0.0000
# 6 0.0000 0.0000 0.0000 0.0000 0.0000 -2.8638
#
#
#
# Elastic Compliance Matrix: (Units=1/GPa)
#
#
# Indices 1 2 3 4 5 6 
#
# 1 0.011477 -0.001057 -0.005782 0.000000 0.000000 0.000000
# 2 -0.001057 0.013772 -0.009108 0.000000 0.000000 0.000000
# 3 -0.005782 -0.009108 0.030248 0.000000 0.000000 0.000000
# 4 0.000000 0.000000 0.000000 0.046948 0.000000 0.000000
# 5 0.000000 0.000000 0.000000 0.000000 -0.093925 0.000000
# 6 0.000000 0.000000 0.000000 0.000000 0.000000 -0.349181
#
#
# Mechanical properties :
#
#
# Convention : Reuss Voigt Hill
#
# Bulk Modulus (GPa) = 42.36636 47.33822 44.85229
# Shear Modulus (GPa) = -16.61680 12.30748 -2.15466
#
# Velocity S-wave (km/s) = -2.93315 2.52432 -1.05621
# Velocity P-wave (km/s) = 3.23482 5.74505 4.66206
#
# Compressibility (1/GPa) = 0.02360363
#
# Stress axis : x y z
#
# Youngs Moduli (GPa) = 87.13249 72.60935 33.06038
#
# Poissons Ratio (x) = 0.07675 0.19115
# Poissons Ratio (y) = 0.09210 0.30111
# Poissons Ratio (z) = 0.50378 0.66132
#
# Static dielectric constant tensor:
#      x y z
#    x 1.725370 0.000000 0.000000 
#    y 0.000000 1.724860 0.000000 
#    z 0.000000 0.000000 1.657500 
# 
# From -- ./inp_files/34896.got.cif
#   From: 2010.05.17/outbox.cif.g08.bks.cpg/sg71_18_cif.got.tgz:34896.got - 2010.06.03 16:22:01.
