data_PCOD9519262
_publ_section_title
;
Structure prediction by ZEFSAII (Michael W. Deem and Ramdas Pophale) SiO2 
 PCOD9519262
Probable space group: I M M M
;
_chemical_formula_sum "Si O2"
_cell_formula_units_Z 104
_cell_length_a 31.312999
_cell_length_b 8.446171
_cell_length_c 20.958061
_cell_angle_alpha 90.000000
_cell_angle_beta 90.000000
_cell_angle_gamma 90.000000
_cell_volume 5542.882011
_symmetry_space_group_name_H-M "I M M M"
_symmetry_group_IT_number 71
_symmetry_cell_setting 'orthorhombic'
loop_
_space_group_symop_operation_xyz
x,y,z
-x,-y,z
x,-y,-z
-x,y,-z
-x,-y,-z
x,y,-z
-x,y,z
x,-y,z
1/2+x,1/2+y,1/2+z
1/2-x,1/2-y,1/2+z
1/2+x,1/2-y,1/2-z
1/2-x,1/2+y,1/2-z
1/2-x,1/2-y,1/2-z
1/2+x,1/2+y,1/2-z
1/2-x,1/2+y,1/2+z
1/2+x,1/2-y,1/2+z
loop_
_atom_site_type_symbol
_atom_site_label
_atom_site_fract_x
_atom_site_fract_y
_atom_site_fract_z
Si Si1 0.177647 0.688782 0.000000
Si Si2 0.500000 0.817569 0.077779
Si Si3 0.089019 0.821558 0.576919
Si Si4 0.826903 0.684184 0.378796
Si Si5 0.951011 0.807239 0.925495
Si Si6 0.726271 0.194299 0.000000
Si Si7 0.798992 0.309050 0.242601
Si Si8 0.637518 0.310962 0.630841
O O1 0.157594 0.764236 0.936962
O O2 0.171741 0.500000 0.000000
O O3 0.227187 0.734250 0.000000
O O4 0.457677 0.728456 0.098831
O O5 0.500000 0.000000 0.097538
O O6 0.500000 0.816007 0.000000
O O7 0.089403 0.816150 0.500000
O O8 0.124356 0.703843 0.601986
O O9 0.099557 0.000000 0.596591
O O10 0.815396 0.500000 0.374944
O O11 0.798767 0.749744 0.436806
O O12 0.819427 0.750501 0.308960
O O13 0.912356 0.756460 0.878289
O O14 0.000000 0.758469 0.909517
O O15 0.950596 0.000000 0.925355
O O16 0.942750 0.759667 0.000000
O O17 0.727783 0.000000 0.000000
O O18 0.797845 0.500000 0.239046
O O19 0.750000 0.250000 0.250000
O O20 0.830114 0.254117 0.185078
O O21 0.636842 0.500000 0.638438
#
# Coordination Sequence:
#
# PCOD9519262 Si02
#       8
#     8   8  16  16  16   8  16  16
#     4  12  24  36  55  85 119 150 188 240 292 345
#     4   9  17  29  49  75 107 145 181 218 271 334
#     4  10  19  31  51  81 112 139 175 227 278 327
#     4  10  21  37  58  80 107 145 188 233 287 348
#     4   8  14  28  55  90 120 148 190 241 290 344
#     4  10  20  36  58  82 108 142 192 245 293 347
#     4  11  24  41  60  85 116 155 199 245 297 358
#     4  11  21  37  61  87 117 156 198 244 296 355
#
# _framework density 18.762802000000001
#
# number of rings (size 3 to 8) (size 9 to 14) (size 15 to 20)
#    0.000    1.923    1.538    3.692    0.000    4.615 
#    0.000    0.000    1.692    2.308    0.000    0.000 
#    0.000    0.000    0.000    0.000    0.000    0.000 
#
# Total GULP energy -289797.372467 kJ/mol
# GULP energy per Si atom -5573.026394 kJ/mol
# Density = 1.872010 g / cm^3
# Si number density = 18.762802 Si / 1000 Ang^3
#
#
#
# Elastic Constant Matrix: (Units=GPa)
#
#
# Indices 1 2 3 4 5 6 
#
# 1 151.4591 10.5832 61.8774 0.0000 0.0000 0.0000
# 2 10.5832 30.8864 25.3324 0.0000 0.0000 0.0000
# 3 61.8774 25.3324 104.0777 0.0000 0.0000 0.0000
# 4 0.0000 0.0000 0.0000 13.6211 0.0000 0.0000
# 5 0.0000 0.0000 0.0000 0.0000 3.2793 0.0000
# 6 0.0000 0.0000 0.0000 0.0000 0.0000 15.0781
#
#
#
# Elastic Compliance Matrix: (Units=1/GPa)
#
#
# Indices 1 2 3 4 5 6 
#
# 1 0.008783 0.001591 -0.005609 0.000000 0.000000 0.000000
# 2 0.001591 0.040740 -0.010862 0.000000 0.000000 0.000000
# 3 -0.005609 -0.010862 0.015587 0.000000 0.000000 0.000000
# 4 0.000000 0.000000 0.000000 0.073415 0.000000 0.000000
# 5 0.000000 0.000000 0.000000 0.000000 0.304948 0.000000
# 6 0.000000 0.000000 0.000000 0.000000 0.000000 0.066322
#
#
# Mechanical properties :
#
#
# Convention : Reuss Voigt Hill
#
# Bulk Modulus (GPa) = 28.28871 53.55658 40.92264
# Shear Modulus (GPa) = 9.06886 18.97103 14.01994
#
# Velocity S-wave (km/s) = 2.20089 3.18323 2.73650
# Velocity P-wave (km/s) = 4.64417 6.48973 5.64291
#
# Compressibility (1/GPa) = 0.03534979
#
# Stress axis : x y z
#
# Youngs Moduli (GPa) = 113.86003 24.54570 64.15765
#
# Poissons Ratio (x) = -0.03905 0.35985
# Poissons Ratio (y) = -0.18113 0.69688
# Poissons Ratio (z) = 0.63862 0.26661
#
# Static dielectric constant tensor:
#      x y z
#    x 1.670990 0.000000 0.000000 
#    y 0.000000 1.663510 0.000000 
#    z 0.000000 0.000000 1.569950 
# 
# From -- ./inp_files/56752.got.cif
#   From: 2010.05.17/outbox.cif.g08.bks.cpg/sg71_29_cif.got.tgz:56752.got - 2010.06.03 16:22:01.
