data_PCOD9519825
_publ_section_title
;
Structure prediction by ZEFSAII (Michael W. Deem and Ramdas Pophale) SiO2 
 PCOD9519825
Probable space group: I M M M
;
_chemical_formula_sum "Si O2"
_cell_formula_units_Z 104
_cell_length_a 14.522293
_cell_length_b 33.565249
_cell_length_c 12.880335
_cell_angle_alpha 90.000000
_cell_angle_beta 90.000000
_cell_angle_gamma 90.000000
_cell_volume 6278.446916
_symmetry_space_group_name_H-M "I M M M"
_symmetry_group_IT_number 71
_symmetry_cell_setting 'orthorhombic'
loop_
_space_group_symop_operation_xyz
x,y,z
-x,-y,z
x,-y,-z
-x,y,-z
-x,-y,-z
x,y,-z
-x,y,z
x,-y,z
1/2+x,1/2+y,1/2+z
1/2-x,1/2-y,1/2+z
1/2+x,1/2-y,1/2-z
1/2-x,1/2+y,1/2-z
1/2-x,1/2-y,1/2-z
1/2+x,1/2+y,1/2-z
1/2-x,1/2+y,1/2+z
1/2+x,1/2-y,1/2+z
loop_
_atom_site_type_symbol
_atom_site_label
_atom_site_fract_x
_atom_site_fract_y
_atom_site_fract_z
Si Si1 0.605949 0.669035 0.734908
Si Si2 0.708658 0.172737 0.877824
Si Si3 0.209343 0.546441 0.877330
Si Si4 0.604035 0.408665 0.121373
Si Si5 0.892244 0.754105 0.378983
Si Si6 0.111692 0.454442 0.500000
Si Si7 0.389701 0.095986 0.796762
O O1 0.500000 0.670226 0.697698
O O2 0.683615 0.669396 0.647555
O O3 0.616531 0.629618 0.805606
O O4 0.621675 0.707543 0.807611
O O5 0.670369 0.216474 0.850726
O O6 0.655601 0.139005 0.813295
O O7 0.690036 0.166493 0.000000
O O8 0.196318 0.500000 0.851724
O O9 0.315147 0.559837 0.859885
O O10 0.146596 0.574093 0.805637
O O11 0.189862 0.551730 0.000000
O O12 0.500000 0.424256 0.137595
O O13 0.610359 0.396407 0.000000
O O14 0.875222 0.764288 0.500000
O O15 0.000000 0.742309 0.370654
O O16 0.144825 0.500000 0.500000
O O17 0.138766 0.430805 0.396405
O O18 0.000000 0.455542 0.500000
O O19 0.500000 0.099181 0.795915
#
# Coordination Sequence:
#
# PCOD9519825 Si02
#       7
#    16  16  16  16  16   8  16
#     4  10  19  33  53  76 104 137 173 211 257 311
#     4  11  21  34  52  77 107 139 176 217 262 308
#     4  10  21  36  54  78 107 139 174 214 267 326
#     4   9  17  31  53  78 102 130 168 215 260 303
#     4   9  18  32  53  80 106 132 168 215 261 307
#     4   9  18  32  52  76  97 127 175 223 262 300
#     4  11  21  35  54  76 105 139 177 220 265 313
#
# _framework density 16.564605
#
# number of rings (size 3 to 8) (size 9 to 14) (size 15 to 20)
#    0.000    2.077    2.308    1.846    0.000    4.308 
#    0.000    2.308    0.000    0.000    0.000    2.154 
#    0.000    4.923    0.000    0.000    0.000    0.000 
#
# Total GULP energy -290012.714269 kJ/mol
# GULP energy per Si atom -5577.167582 kJ/mol
# Density = 1.652690 g / cm^3
# Si number density = 16.564605 Si / 1000 Ang^3
#
#
#
# Elastic Constant Matrix: (Units=GPa)
#
#
# Indices 1 2 3 4 5 6 
#
# 1 68.2420 24.8705 24.8331 0.0000 0.0000 0.0000
# 2 24.8705 62.2596 24.4781 0.0001 0.0000 0.0000
# 3 24.8331 24.4781 39.1210 0.0007 0.0001 -0.0002
# 4 0.0000 0.0001 0.0007 23.4399 -0.0001 -0.0001
# 5 0.0000 0.0000 0.0001 -0.0001 28.3748 0.0000
# 6 0.0000 0.0000 -0.0002 -0.0001 0.0000 22.0875
#
#
#
# Elastic Compliance Matrix: (Units=1/GPa)
#
#
# Indices 1 2 3 4 5 6 
#
# 1 0.019754 -0.003927 -0.010082 0.000000 0.000000 0.000000
# 2 -0.003927 0.022083 -0.011325 0.000000 0.000000 0.000000
# 3 -0.010082 -0.011325 0.039047 -0.000001 0.000000 0.000000
# 4 0.000000 0.000000 -0.000001 0.042662 0.000000 0.000000
# 5 0.000000 0.000000 0.000000 0.000000 0.035242 0.000000
# 6 0.000000 0.000000 0.000000 0.000000 0.000000 0.045274
#
#
# Mechanical properties :
#
#
# Convention : Reuss Voigt Hill
#
# Bulk Modulus (GPa) = 33.09424 35.33179 34.21301
# Shear Modulus (GPa) = 18.88199 21.14319 20.01259
#
# Velocity S-wave (km/s) = 3.37990 3.57656 3.47962
# Velocity P-wave (km/s) = 5.93750 6.19933 6.06983
#
# Compressibility (1/GPa) = 0.03021674
#
# Stress axis : x y z
#
# Youngs Moduli (GPa) = 50.62328 45.28403 25.60993
#
# Poissons Ratio (x) = 0.17783 0.25820
# Poissons Ratio (y) = 0.19880 0.29002
# Poissons Ratio (z) = 0.51039 0.51282
#
# Static dielectric constant tensor:
#      x y z
#    x 1.550190 0.000000 0.000000 
#    y 0.000000 1.537200 0.000000 
#    z 0.000000 0.000000 1.537500 
# 
# From -- ./inp_files/22673.got.cif
#   From: 2010.05.17/outbox.cif.g08.bks.cpg/sg71_12_cif.got.tgz:22673.got - 2010.06.03 16:22:01.
