data_PCOD9519338
_publ_section_title
;
Structure prediction by ZEFSAII (Michael W. Deem and Ramdas Pophale) SiO2 
 PCOD9519338
Probable space group: I M M M
;
_chemical_formula_sum "Si O2"
_cell_formula_units_Z 120
_cell_length_a 8.259936
_cell_length_b 26.818835
_cell_length_c 28.549990
_cell_angle_alpha 90.000000
_cell_angle_beta 90.000000
_cell_angle_gamma 90.000000
_cell_volume 6324.446908
_symmetry_space_group_name_H-M "I M M M"
_symmetry_group_IT_number 71
_symmetry_cell_setting 'orthorhombic'
loop_
_space_group_symop_operation_xyz
x,y,z
-x,-y,z
x,-y,-z
-x,y,-z
-x,-y,-z
x,y,-z
-x,y,z
x,-y,z
1/2+x,1/2+y,1/2+z
1/2-x,1/2-y,1/2+z
1/2+x,1/2-y,1/2-z
1/2-x,1/2+y,1/2-z
1/2-x,1/2-y,1/2-z
1/2+x,1/2+y,1/2-z
1/2-x,1/2+y,1/2+z
1/2+x,1/2-y,1/2+z
loop_
_atom_site_type_symbol
_atom_site_label
_atom_site_fract_x
_atom_site_fract_y
_atom_site_fract_z
Si Si1 0.692477 0.443308 0.000000
Si Si2 0.692185 0.133347 0.577155
Si Si3 0.807818 0.439370 0.549972
Si Si4 0.695421 0.753979 0.448013
Si Si5 0.304002 0.141192 0.220964
Si Si6 0.693121 0.339248 0.174857
Si Si7 0.198202 0.442811 0.348798
Si Si8 0.305054 0.227663 0.849492
O O1 0.742893 0.410786 0.955000
O O2 0.758612 0.500000 0.000000
O O3 0.500000 0.446545 0.000000
O O4 0.500000 0.133995 0.571842
O O5 0.751335 0.188406 0.560315
O O6 0.737087 0.129242 0.631699
O O7 0.737396 0.422277 0.500000
O O8 0.796155 0.500000 0.550882
O O9 0.744281 0.422653 0.600446
O O10 0.000000 0.427976 0.549092
O O11 0.748702 0.737879 0.500000
O O12 0.500000 0.754213 0.447314
O O13 0.753589 0.722249 0.403566
O O14 0.500000 0.142516 0.222513
O O15 0.241762 0.144350 0.273511
O O16 0.252103 0.091482 0.193905
O O17 0.248481 0.186695 0.187666
O O18 0.500000 0.339392 0.170707
O O19 0.751975 0.282343 0.166824
O O20 0.248803 0.500000 0.343437
O O21 0.000000 0.442450 0.350538
O O22 0.500000 0.226852 0.848628
#
# Coordination Sequence:
#
# PCOD9519338 Si02
#       8
#     8  16  16  16  16  16  16  16
#     4  11  23  37  55  83 119 151 177 213 262 313
#     4  10  19  35  57  80 104 134 177 220 258 304
#     4   7   9  15  30  53  80 109 142 179 220 268
#     4   9  17  31  51  76 103 133 171 212 254 309
#     4  10  19  32  49  71 100 131 168 215 259 307
#     4  10  20  34  52  74  99 131 172 213 263 321
#     4   8  14  25  42  64  90 122 159 198 243 297
#     4   9  19  32  47  72 102 132 167 209 261 314
#
# _framework density 18.973991999999999
#
# number of rings (size 3 to 8) (size 9 to 14) (size 15 to 20)
#    0.000    2.867    0.667    2.600    0.000    2.400 
#    0.000    1.333    0.000    5.200    0.000    0.000 
#    0.000    0.000    0.000    4.800    0.000    3.733 
#
# Total GULP energy -334412.238542 kJ/mol
# GULP energy per Si atom -5573.537309 kJ/mol
# Density = 1.893081 g / cm^3
# Si number density = 18.973992 Si / 1000 Ang^3
#
#
#
# Elastic Constant Matrix: (Units=GPa)
#
#
# Indices 1 2 3 4 5 6 
#
# 1 13.1123 10.4663 11.7607 0.0000 0.0000 0.0000
# 2 10.4663 62.2707 57.9603 0.0000 0.0000 0.0000
# 3 11.7607 57.9603 183.9236 0.0000 0.0000 0.0000
# 4 0.0000 0.0000 0.0000 -4.8778 0.0000 0.0000
# 5 0.0000 0.0000 0.0000 0.0000 27.2253 0.0000
# 6 0.0000 0.0000 0.0000 0.0000 0.0000 8.3639
#
#
#
# Elastic Compliance Matrix: (Units=1/GPa)
#
#
# Indices 1 2 3 4 5 6 
#
# 1 0.088325 -0.013568 -0.001372 0.000000 0.000000 0.000000
# 2 -0.013568 0.024809 -0.006950 0.000000 0.000000 0.000000
# 3 -0.001372 -0.006950 0.007715 0.000000 0.000000 0.000000
# 4 0.000000 0.000000 0.000000 -0.205013 0.000000 0.000000
# 5 0.000000 0.000000 0.000000 0.000000 0.036731 0.000000
# 6 0.000000 0.000000 0.000000 0.000000 0.000000 0.119561
#
#
# Mechanical properties :
#
#
# Convention : Reuss Voigt Hill
#
# Bulk Modulus (GPa) = 12.97567 46.63123 29.80345
# Shear Modulus (GPa) = 35.31105 18.08358 26.69732
#
# Velocity S-wave (km/s) = 4.31864 3.09054 3.75513
# Velocity P-wave (km/s) = 5.63214 6.11269 5.87733
#
# Compressibility (1/GPa) = 0.07706734
#
# Stress axis : x y z
#
# Youngs Moduli (GPa) = 11.32180 40.30824 129.61623
#
# Poissons Ratio (x) = 0.54692 0.17782
# Poissons Ratio (y) = 0.15362 0.90089
# Poissons Ratio (z) = 0.01553 0.28016
#
# Static dielectric constant tensor:
#      x y z
#    x 1.661750 0.000000 0.000000 
#    y 0.000000 1.665210 0.000000 
#    z 0.000000 0.000000 1.671270 
# 
# From -- ./inp_files/63833.got.cif
#   From: 2010.05.17/outbox.cif.g08.bks.cpg/sg71_32_cif.got.tgz:63833.got - 2010.06.03 16:22:01.
