data_PCOD9519929
_publ_section_title
;
Structure prediction by ZEFSAII (Michael W. Deem and Ramdas Pophale) SiO2 
 PCOD9519929
Probable space group: I M M M
;
_chemical_formula_sum "Si O2"
_cell_formula_units_Z 88
_cell_length_a 7.484883
_cell_length_b 17.953621
_cell_length_c 28.768131
_cell_angle_alpha 90.000000
_cell_angle_beta 90.000000
_cell_angle_gamma 90.000000
_cell_volume 3865.883095
_symmetry_space_group_name_H-M "I M M M"
_symmetry_group_IT_number 71
_symmetry_cell_setting 'orthorhombic'
loop_
_space_group_symop_operation_xyz
x,y,z
-x,-y,z
x,-y,-z
-x,y,-z
-x,-y,-z
x,y,-z
-x,y,z
x,-y,z
1/2+x,1/2+y,1/2+z
1/2-x,1/2-y,1/2+z
1/2+x,1/2-y,1/2-z
1/2-x,1/2+y,1/2-z
1/2-x,1/2-y,1/2-z
1/2+x,1/2+y,1/2-z
1/2-x,1/2+y,1/2+z
1/2+x,1/2-y,1/2+z
loop_
_atom_site_type_symbol
_atom_site_label
_atom_site_fract_x
_atom_site_fract_y
_atom_site_fract_z
Si Si1 0.215293 0.414316 0.500000
Si Si2 0.206034 0.813566 0.912727
Si Si3 0.206084 0.152467 0.448043
Si Si4 0.218476 0.915471 0.354243
Si Si5 0.786485 0.165083 0.736670
Si Si6 0.781194 0.915239 0.170863
O O1 0.270271 0.500000 0.500000
O O2 0.282841 0.372324 0.545486
O O3 0.000000 0.410488 0.500000
O O4 0.293537 0.737847 0.930506
O O5 0.279767 0.855076 0.867290
O O6 0.000000 0.794479 0.903457
O O7 0.285102 0.147979 0.500000
O O8 0.285267 0.105931 0.405455
O O9 0.000000 0.128596 0.452135
O O10 0.280784 0.859746 0.313842
O O11 0.000000 0.911061 0.355740
O O12 0.264863 0.000000 0.342021
O O13 0.750000 0.250000 0.750000
O O14 0.723258 0.111674 0.778261
O O15 0.000000 0.156256 0.735236
O O16 0.000000 0.914950 0.169465
O O17 0.725284 0.000000 0.160692
#
# Coordination Sequence:
#
# PCOD9519929 Si02
#       6
#     8  16  16  16  16  16
#     4  11  23  37  53  75 106 141 178 223 273 318
#     4  11  21  34  54  78 105 140 181 221 262 320
#     4  10  20  34  53  77 108 143 179 225 276 322
#     4   9  18  33  55  82 108 140 186 232 272 320
#     4  10  19  33  55  80 107 139 175 219 268 319
#     4   9  18  32  51  76 104 135 174 218 261 307
#
# _framework density 22.763235000000002
#
# number of rings (size 3 to 8) (size 9 to 14) (size 15 to 20)
#    0.000    2.091    0.909    3.000    0.000    4.000 
#    0.000    2.727    0.000    6.000    0.000    1.273 
#    0.000    0.000    0.000    0.000    0.000    0.000 
#
# Total GULP energy -245919.536085 kJ/mol
# GULP energy per Si atom -5589.080366 kJ/mol
# Density = 2.271142 g / cm^3
# Si number density = 22.763235 Si / 1000 Ang^3
#
#
#
# Elastic Constant Matrix: (Units=GPa)
#
#
# Indices 1 2 3 4 5 6 
#
# 1 65.6428 -9.7350 6.9191 0.0000 0.0000 0.0000
# 2 -9.7350 86.3482 53.0519 0.0000 0.0000 0.0000
# 3 6.9191 53.0519 187.9490 0.0000 0.0000 0.0000
# 4 0.0000 0.0000 0.0000 42.9697 0.0000 0.0000
# 5 0.0000 0.0000 0.0000 0.0000 -0.6543 0.0000
# 6 0.0000 0.0000 0.0000 0.0000 0.0000 9.4553
#
#
#
# Elastic Compliance Matrix: (Units=1/GPa)
#
#
# Indices 1 2 3 4 5 6 
#
# 1 0.015754 0.002580 -0.001308 0.000000 0.000000 0.000000
# 2 0.002580 0.014433 -0.004169 0.000000 0.000000 0.000000
# 3 -0.001308 -0.004169 0.006546 0.000000 0.000000 0.000000
# 4 0.000000 0.000000 0.000000 0.023272 0.000000 0.000000
# 5 0.000000 0.000000 0.000000 0.000000 -1.528446 0.000000
# 6 0.000000 0.000000 0.000000 0.000000 0.000000 0.105761
#
#
# Mechanical properties :
#
#
# Convention : Reuss Voigt Hill
#
# Bulk Modulus (GPa) = 32.32198 48.93465 40.62831
# Shear Modulus (GPa) = -3.71313 29.66775 12.97731
#
# Velocity S-wave (km/s) = -1.27857 3.61407 2.39027
# Velocity P-wave (km/s) = 3.47137 6.24173 5.05023
#
# Compressibility (1/GPa) = 0.03093870
#
# Stress axis : x y z
#
# Youngs Moduli (GPa) = 63.47409 69.28412 152.77586
#
# Poissons Ratio (x) = -0.17875 0.19986
# Poissons Ratio (y) = -0.16376 0.63693
# Poissons Ratio (z) = 0.08304 0.28885
#
# Static dielectric constant tensor:
#      x y z
#    x 1.888530 0.000000 0.000000 
#    y 0.000000 1.792260 0.000000 
#    z 0.000000 0.000000 1.837070 
# 
# From -- ./inp_files/57555.got.cif
#   From: 2010.05.17/outbox.cif.g08.bks.cpg/sg71_29_cif.got.tgz:57555.got - 2010.06.03 16:22:01.
