data_PCOD9519391
_publ_section_title
;
Structure prediction by ZEFSAII (Michael W. Deem and Ramdas Pophale) SiO2 
 PCOD9519391
Probable space group: I M M M
;
_chemical_formula_sum "Si O2"
_cell_formula_units_Z 120
_cell_length_a 34.199893
_cell_length_b 13.915106
_cell_length_c 15.716817
_cell_angle_alpha 90.000000
_cell_angle_beta 90.000000
_cell_angle_gamma 90.000000
_cell_volume 7479.556768
_symmetry_space_group_name_H-M "I M M M"
_symmetry_group_IT_number 71
_symmetry_cell_setting 'orthorhombic'
loop_
_space_group_symop_operation_xyz
x,y,z
-x,-y,z
x,-y,-z
-x,y,-z
-x,-y,-z
x,y,-z
-x,y,z
x,-y,z
1/2+x,1/2+y,1/2+z
1/2-x,1/2-y,1/2+z
1/2+x,1/2-y,1/2-z
1/2-x,1/2+y,1/2-z
1/2-x,1/2-y,1/2-z
1/2+x,1/2+y,1/2-z
1/2-x,1/2+y,1/2+z
1/2+x,1/2-y,1/2+z
loop_
_atom_site_type_symbol
_atom_site_label
_atom_site_fract_x
_atom_site_fract_y
_atom_site_fract_z
Si Si1 0.953567 0.390407 0.500000
Si Si2 0.545100 0.256765 0.402917
Si Si3 0.104470 0.385712 0.821922
Si Si4 0.821858 0.721990 0.402915
Si Si5 0.691367 0.884764 0.273300
Si Si6 0.046338 0.111492 0.258179
Si Si7 0.259708 0.386837 0.097313
Si Si8 0.588628 0.220361 0.147771
O O1 0.938188 0.500000 0.500000
O O2 0.938306 0.332505 0.580520
O O3 0.000000 0.394040 0.500000
O O4 0.548248 0.289723 0.500000
O O5 0.500000 0.222537 0.389549
O O6 0.576713 0.173789 0.384823
O O7 0.551800 0.341742 0.335248
O O8 0.100466 0.500000 0.832944
O O9 0.150630 0.359845 0.821338
O O10 0.091296 0.350448 0.728664
O O11 0.815084 0.684381 0.500000
O O12 0.808442 0.658532 0.321800
O O13 0.797953 0.821168 0.395989
O O14 0.868159 0.734608 0.389930
O O15 0.727736 0.856552 0.332725
O O16 0.691641 0.000000 0.265419
O O17 0.070445 0.179445 0.321196
O O18 0.000000 0.117964 0.277684
O O19 0.057735 0.000000 0.260627
O O20 0.268189 0.500000 0.109387
O O21 0.244496 0.375823 0.000000
#
# Coordination Sequence:
#
# PCOD9519391 Si02
#       8
#     8  16  16  16  16  16  16  16
#     4  11  22  34  51  73  99 135 172 206 249 297
#     4   9  18  31  47  70  98 126 161 207 251 298
#     4   9  18  31  47  68  97 131 166 202 247 299
#     4  10  19  32  50  74  99 130 163 202 253 297
#     4   9  18  32  50  73  98 129 165 203 247 296
#     4   9  18  33  52  70  92 126 164 206 254 298
#     4   9  18  32  50  72  99 127 161 202 246 301
#     4  10  19  34  49  71  99 128 167 209 247 295
#
# _framework density 16.043731999999999
#
# number of rings (size 3 to 8) (size 9 to 14) (size 15 to 20)
#    0.000    2.600    0.667    1.200    0.000    3.200 
#    0.000    3.667    0.000    1.200    0.000    0.000 
#    0.000    6.400    0.000    0.000    0.000    0.000 
#
# Total GULP energy -334150.244328 kJ/mol
# GULP energy per Si atom -5569.170739 kJ/mol
# Density = 1.600722 g / cm^3
# Si number density = 16.043732 Si / 1000 Ang^3
#
#
#
# Elastic Constant Matrix: (Units=GPa)
#
#
# Indices 1 2 3 4 5 6 
#
# 1 69.0946 39.1114 46.1922 0.0000 0.0000 0.0000
# 2 39.1114 74.0104 36.8663 0.0000 0.0000 0.0000
# 3 46.1922 36.8663 89.5181 0.0000 0.0000 0.0000
# 4 0.0000 0.0000 0.0000 14.1290 0.0000 0.0000
# 5 0.0000 0.0000 0.0000 0.0000 30.7880 0.0000
# 6 0.0000 0.0000 0.0000 0.0000 0.0000 22.5503
#
#
#
# Elastic Compliance Matrix: (Units=1/GPa)
#
#
# Indices 1 2 3 4 5 6 
#
# 1 0.026042 -0.008893 -0.009776 0.000000 0.000000 0.000000
# 2 -0.008893 0.020035 -0.003663 0.000000 0.000000 0.000000
# 3 -0.009776 -0.003663 0.017724 0.000000 0.000000 0.000000
# 4 0.000000 0.000000 0.000000 0.070777 0.000000 0.000000
# 5 0.000000 0.000000 0.000000 0.000000 0.032480 0.000000
# 6 0.000000 0.000000 0.000000 0.000000 0.000000 0.044345
#
#
# Mechanical properties :
#
#
# Convention : Reuss Voigt Hill
#
# Bulk Modulus (GPa) = 52.24828 52.99588 52.62208
# Shear Modulus (GPa) = 19.05164 20.85699 19.95432
#
# Velocity S-wave (km/s) = 3.44972 3.60948 3.53050
# Velocity P-wave (km/s) = 6.96450 7.10457 7.03489
#
# Compressibility (1/GPa) = 0.01913939
#
# Stress axis : x y z
#
# Youngs Moduli (GPa) = 38.39945 49.91170 56.42190
#
# Poissons Ratio (x) = 0.44385 0.55156
# Poissons Ratio (y) = 0.34147 0.20665
# Poissons Ratio (z) = 0.37538 0.18280
#
# Static dielectric constant tensor:
#      x y z
#    x 1.534660 0.000000 0.000000 
#    y 0.000000 1.508500 0.000000 
#    z 0.000000 0.000000 1.546980 
# 
# From -- ./inp_files/41141.got.cif
#   From: 2010.05.17/outbox.cif.g08.bks.cpg/sg71_21_cif.got.tgz:41141.got - 2010.06.03 16:22:01.
