data_PCOD9519337
_publ_section_title
;
Structure prediction by ZEFSAII (Michael W. Deem and Ramdas Pophale) SiO2 
 PCOD9519337
Probable space group: I M M M
;
_chemical_formula_sum "Si O2"
_cell_formula_units_Z 88
_cell_length_a 26.738905
_cell_length_b 9.061678
_cell_length_c 20.693168
_cell_angle_alpha 90.000000
_cell_angle_beta 90.000000
_cell_angle_gamma 90.000000
_cell_volume 5013.941098
_symmetry_space_group_name_H-M "I M M M"
_symmetry_group_IT_number 71
_symmetry_cell_setting 'orthorhombic'
loop_
_space_group_symop_operation_xyz
x,y,z
-x,-y,z
x,-y,-z
-x,y,-z
-x,-y,-z
x,y,-z
-x,y,z
x,-y,z
1/2+x,1/2+y,1/2+z
1/2-x,1/2-y,1/2+z
1/2+x,1/2-y,1/2-z
1/2-x,1/2+y,1/2-z
1/2-x,1/2-y,1/2-z
1/2+x,1/2+y,1/2-z
1/2-x,1/2+y,1/2+z
1/2+x,1/2-y,1/2+z
loop_
_atom_site_type_symbol
_atom_site_label
_atom_site_fract_x
_atom_site_fract_y
_atom_site_fract_z
Si Si1 0.835700 0.831069 0.500000
Si Si2 0.333348 0.824434 0.131688
Si Si3 0.439240 0.169631 0.500000
Si Si4 0.785901 0.671314 0.000000
Si Si5 0.864149 0.322530 0.773017
Si Si6 0.440001 0.326681 0.633203
Si Si7 0.714794 0.323604 0.633863
O O1 0.851213 0.753284 0.433591
O O2 0.774865 0.825810 0.500000
O O3 0.851448 0.000000 0.500000
O O4 0.361117 0.781992 0.197544
O O5 0.274063 0.793549 0.141219
O O6 0.337777 0.000000 0.122838
O O7 0.500000 0.168088 0.500000
O O8 0.424415 0.253870 0.565081
O O9 0.422254 0.000000 0.500000
O O10 0.801407 0.755091 0.065047
O O11 0.801333 0.500000 0.000000
O O12 0.862777 0.500000 0.778216
O O13 0.911935 0.256952 0.809548
O O14 0.816709 0.253605 0.810172
O O15 0.500000 0.312894 0.638801
O O16 0.427336 0.500000 0.633420
O O17 0.707484 0.500000 0.634356
#
# Coordination Sequence:
#
# PCOD9519337 Si02
#       7
#     8  16   8   8  16  16  16
#     4   9  17  29  50  74  96 127 166 205 241 285
#     4   9  19  34  51  72 101 134 165 200 243 292
#     4   9  17  32  55  78  99 127 164 206 249 292
#     4   9  17  30  46  67  96 131 171 210 245 283
#     4  11  22  34  50  74 101 131 166 203 247 295
#     4  10  21  37  55  75 100 130 165 206 250 294
#     4  10  19  32  49  70  99 134 169 205 245 288
#
# _framework density 17.551062999999999
#
# number of rings (size 3 to 8) (size 9 to 14) (size 15 to 20)
#    0.000    2.273    0.000    3.000    0.000    7.273 
#    0.000    3.636    0.000    0.000    0.000    0.636 
#    0.000    5.091    0.000    0.000    0.000    0.000 
#
# Total GULP energy -245686.817700 kJ/mol
# GULP energy per Si atom -5583.791311 kJ/mol
# Density = 1.751112 g / cm^3
# Si number density = 17.551063 Si / 1000 Ang^3
#
#
#
# Elastic Constant Matrix: (Units=GPa)
#
#
# Indices 1 2 3 4 5 6 
#
# 1 39.9536 29.5882 41.5319 0.0000 0.0000 0.0000
# 2 29.5882 102.3188 82.7422 0.0000 0.0000 0.0000
# 3 41.5319 82.7422 185.1886 0.0000 0.0000 0.0000
# 4 0.0000 0.0000 0.0000 28.2097 0.0000 0.0000
# 5 0.0000 0.0000 0.0000 0.0000 65.3021 0.0000
# 6 0.0000 0.0000 0.0000 0.0000 0.0000 20.4591
#
#
#
# Elastic Compliance Matrix: (Units=1/GPa)
#
#
# Indices 1 2 3 4 5 6 
#
# 1 0.034750 -0.005866 -0.005172 0.000000 0.000000 0.000000
# 2 -0.005866 0.016293 -0.005964 0.000000 0.000000 0.000000
# 3 -0.005172 -0.005964 0.009225 0.000000 0.000000 0.000000
# 4 0.000000 0.000000 0.000000 0.035449 0.000000 0.000000
# 5 0.000000 0.000000 0.000000 0.000000 0.015313 0.000000
# 6 0.000000 0.000000 0.000000 0.000000 0.000000 0.048878
#
#
# Mechanical properties :
#
#
# Convention : Reuss Voigt Hill
#
# Bulk Modulus (GPa) = 38.07742 70.57617 54.32680
# Shear Modulus (GPa) = 24.67110 34.36743 29.51926
#
# Velocity S-wave (km/s) = 3.75330 4.42989 4.10556
# Velocity P-wave (km/s) = 6.36595 8.15257 7.31402
#
# Compressibility (1/GPa) = 0.02626229
#
# Stress axis : x y z
#
# Youngs Moduli (GPa) = 28.77702 61.37765 108.40633
#
# Poissons Ratio (x) = 0.36005 0.56071
# Poissons Ratio (y) = 0.16881 0.64653
# Poissons Ratio (z) = 0.14884 0.36605
#
# Static dielectric constant tensor:
#      x y z
#    x 1.608690 0.000000 0.000000 
#    y 0.000000 1.583200 0.000000 
#    z 0.000000 0.000000 1.581730 
# 
# From -- ./inp_files/42536.got.cif
#   From: 2010.05.17/outbox.cif.g08.bks.cpg/sg71_22_cif.got.tgz:42536.got - 2010.06.03 16:22:01.
