data_PCOD9519521
_publ_section_title
;
Structure prediction by ZEFSAII (Michael W. Deem and Ramdas Pophale) SiO2 
 PCOD9519521
Probable space group: I M M M
;
_chemical_formula_sum "Si O2"
_cell_formula_units_Z 112
_cell_length_a 28.843981
_cell_length_b 15.038118
_cell_length_c 13.793480
_cell_angle_alpha 90.000000
_cell_angle_beta 90.000000
_cell_angle_gamma 90.000000
_cell_volume 5983.048710
_symmetry_space_group_name_H-M "I M M M"
_symmetry_group_IT_number 71
_symmetry_cell_setting 'orthorhombic'
loop_
_space_group_symop_operation_xyz
x,y,z
-x,-y,z
x,-y,-z
-x,y,-z
-x,-y,-z
x,y,-z
-x,y,z
x,-y,z
1/2+x,1/2+y,1/2+z
1/2-x,1/2-y,1/2+z
1/2+x,1/2-y,1/2-z
1/2-x,1/2+y,1/2-z
1/2-x,1/2-y,1/2-z
1/2+x,1/2+y,1/2-z
1/2-x,1/2+y,1/2+z
1/2+x,1/2-y,1/2+z
loop_
_atom_site_type_symbol
_atom_site_label
_atom_site_fract_x
_atom_site_fract_y
_atom_site_fract_z
Si Si1 0.886636 0.607059 0.615754
Si Si2 0.216130 0.598908 0.308555
Si Si3 0.448356 0.754768 0.244012
Si Si4 0.591816 0.397726 0.384084
Si Si5 0.692453 0.663694 0.390463
Si Si6 0.175193 0.629145 0.892711
Si Si7 0.433176 0.905625 0.387455
O O1 0.893343 0.613243 0.500000
O O2 0.894826 0.500000 0.641688
O O3 0.832764 0.626029 0.643078
O O4 0.916944 0.684005 0.670267
O O5 0.226735 0.500000 0.345466
O O6 0.261612 0.655610 0.327751
O O7 0.205993 0.596587 0.194642
O O8 0.500000 0.737156 0.203382
O O9 0.428806 0.667020 0.300313
O O10 0.452191 0.823045 0.332298
O O11 0.584594 0.370445 0.500000
O O12 0.575494 0.500000 0.375628
O O13 0.647423 0.394370 0.367860
O O14 0.707126 0.642582 0.500000
O O15 0.674344 0.764373 0.387349
O O16 0.122626 0.597850 0.879810
O O17 0.191228 0.603815 0.000000
O O18 0.444502 0.901805 0.500000
O O19 0.448693 0.000000 0.347075
#
# Coordination Sequence:
#
# PCOD9519521 Si02
#       7
#    16  16  16  16  16  16  16
#     4  10  22  40  60  85 119 156 194 240 297 355
#     4  11  20  32  54  83 114 148 189 235 281 338
#     4  12  24  38  58  84 113 148 197 245 288 345
#     4  10  21  39  62  88 121 157 193 239 296 353
#     4  10  19  33  55  82 111 147 192 237 281 333
#     4  10  19  32  52  77 110 152 191 227 276 343
#     4  10  19  33  53  78 110 145 181 222 277 347
#
# _framework density 18.719553000000001
#
# number of rings (size 3 to 8) (size 9 to 14) (size 15 to 20)
#    0.000    1.571    2.857    2.571    0.000    5.143 
#    0.000    2.143    0.000    0.429    0.000    1.000 
#    0.000    0.000    0.000    0.000    0.000    0.000 
#
# Total GULP energy -312004.651156 kJ/mol
# GULP energy per Si atom -5571.511628 kJ/mol
# Density = 1.867695 g / cm^3
# Si number density = 18.719553 Si / 1000 Ang^3
#
#
#
# Elastic Constant Matrix: (Units=GPa)
#
#
# Indices 1 2 3 4 5 6 
#
# 1 97.7511 39.5495 41.2679 0.0000 0.0000 0.0000
# 2 39.5495 106.8936 35.0051 0.0000 0.0000 0.0000
# 3 41.2679 35.0051 86.1388 0.0000 0.0000 0.0000
# 4 0.0000 0.0000 0.0000 27.8431 0.0000 0.0000
# 5 0.0000 0.0000 0.0000 0.0000 2.9506 0.0000
# 6 0.0000 0.0000 0.0000 0.0000 0.0000 4.2835
#
#
#
# Elastic Compliance Matrix: (Units=1/GPa)
#
#
# Indices 1 2 3 4 5 6 
#
# 1 0.013816 -0.003396 -0.005239 0.000000 0.000000 0.000000
# 2 -0.003396 0.011626 -0.003098 0.000000 0.000000 0.000000
# 3 -0.005239 -0.003098 0.015378 0.000000 0.000000 0.000000
# 4 0.000000 0.000000 0.000000 0.035915 0.000000 0.000000
# 5 0.000000 0.000000 0.000000 0.000000 0.338911 0.000000
# 6 0.000000 0.000000 0.000000 0.000000 0.000000 0.233455
#
#
# Mechanical properties :
#
#
# Convention : Reuss Voigt Hill
#
# Bulk Modulus (GPa) = 57.62161 58.04763 57.83462
# Shear Modulus (GPa) = 7.37081 18.67951 13.02516
#
# Velocity S-wave (km/s) = 1.98646 3.16232 2.64067
# Velocity P-wave (km/s) = 6.00914 6.66409 6.34507
#
# Compressibility (1/GPa) = 0.01735460
#
# Stress axis : x y z
#
# Youngs Moduli (GPa) = 72.38076 86.01412 65.02876
#
# Poissons Ratio (x) = 0.29211 0.34068
# Poissons Ratio (y) = 0.24581 0.20143
# Poissons Ratio (z) = 0.37919 0.26643
#
# Static dielectric constant tensor:
#      x y z
#    x 1.677220 0.000000 0.000000 
#    y 0.000000 1.681480 0.000000 
#    z 0.000000 0.000000 1.662600 
# 
# From -- ./inp_files/35163.got.cif
#   From: 2010.05.17/outbox.cif.g08.bks.cpg/sg71_18_cif.got.tgz:35163.got - 2010.06.03 16:22:01.
