data_PCOD9519472
_publ_section_title
;
Structure prediction by ZEFSAII (Michael W. Deem and Ramdas Pophale) SiO2 
 PCOD9519472
Probable space group: I M M M
;
_chemical_formula_sum "Si O2"
_cell_formula_units_Z 88
_cell_length_a 7.920647
_cell_length_b 21.388753
_cell_length_c 25.207171
_cell_angle_alpha 90.000000
_cell_angle_beta 90.000000
_cell_angle_gamma 90.000000
_cell_volume 4270.416468
_symmetry_space_group_name_H-M "I M M M"
_symmetry_group_IT_number 71
_symmetry_cell_setting 'orthorhombic'
loop_
_space_group_symop_operation_xyz
x,y,z
-x,-y,z
x,-y,-z
-x,y,-z
-x,-y,-z
x,y,-z
-x,y,z
x,-y,z
1/2+x,1/2+y,1/2+z
1/2-x,1/2-y,1/2+z
1/2+x,1/2-y,1/2-z
1/2-x,1/2+y,1/2-z
1/2-x,1/2-y,1/2-z
1/2+x,1/2+y,1/2-z
1/2-x,1/2+y,1/2+z
1/2+x,1/2-y,1/2+z
loop_
_atom_site_type_symbol
_atom_site_label
_atom_site_fract_x
_atom_site_fract_y
_atom_site_fract_z
Si Si1 0.706312 0.073259 0.000000
Si Si2 0.799669 0.251741 0.886449
Si Si3 0.293305 0.608303 0.000000
Si Si4 0.292252 0.500000 0.802575
Si Si5 0.200030 0.621264 0.385564
Si Si6 0.202197 0.000000 0.181305
Si Si7 0.306473 0.750430 0.500000
Si Si8 0.201311 0.105594 0.381729
O O1 0.767088 0.104986 0.945217
O O2 0.500000 0.075758 0.000000
O O3 0.752660 0.000000 0.000000
O O4 0.765908 0.185654 0.858771
O O5 0.721078 0.235944 0.944507
O O6 0.738409 0.320873 0.871625
O O7 0.000000 0.258622 0.891955
O O8 0.246804 0.583347 0.058582
O O9 0.500000 0.615050 0.000000
O O10 0.200362 0.674685 0.000000
O O11 0.500000 0.500000 0.801940
O O12 0.235927 0.500000 0.741960
O O13 0.234108 0.439524 0.835815
O O14 0.240226 0.561540 0.349718
O O15 0.000000 0.627009 0.389687
O O16 0.000000 0.000000 0.182075
O O17 0.500000 0.727730 0.500000
O O18 0.000000 0.099837 0.381752
#
# Coordination Sequence:
#
# PCOD9519472 Si02
#       8
#     8  16   8   8  16   8   8  16
#     4   9  17  32  54  82 113 141 177 222 264 313
#     4  10  19  32  51  80 114 146 179 219 265 318
#     4   8  14  24  47  79 109 134 168 213 257 308
#     4   9  20  38  60  79 104 141 182 229 276 322
#     4  11  21  36  58  82 110 145 181 221 267 320
#     4  11  23  40  57  77 105 141 182 227 276 322
#     4   8  15  27  44  69 109 149 173 198 250 316
#     4   9  17  33  55  82 111 143 180 219 268 324
#
# _framework density 20.60689
#
# number of rings (size 3 to 8) (size 9 to 14) (size 15 to 20)
#    0.000    2.455    0.909    1.909    0.000    1.091 
#    0.000    9.545    0.000    0.000    0.000    6.364 
#    0.000    0.000    0.000    0.000    0.000    0.000 
#
# Total GULP energy -244996.373463 kJ/mol
# GULP energy per Si atom -5568.099397 kJ/mol
# Density = 2.055999 g / cm^3
# Si number density = 20.606890 Si / 1000 Ang^3
#
#
#
# Elastic Constant Matrix: (Units=GPa)
#
#
# Indices 1 2 3 4 5 6 
#
# 1 26.3644 -5.4936 9.8405 0.0000 0.0000 0.0000
# 2 -5.4936 156.9776 75.7320 0.0000 0.0000 0.0000
# 3 9.8405 75.7320 124.7708 0.0000 0.0000 0.0000
# 4 0.0000 0.0000 0.0000 -11.4993 0.0000 0.0000
# 5 0.0000 0.0000 0.0000 0.0000 10.7593 0.0000
# 6 0.0000 0.0000 0.0000 0.0000 0.0000 9.7339
#
#
#
# Elastic Compliance Matrix: (Units=1/GPa)
#
#
# Indices 1 2 3 4 5 6 
#
# 1 0.040977 0.004233 -0.005801 0.000000 0.000000 0.000000
# 2 0.004233 0.009445 -0.006067 0.000000 0.000000 0.000000
# 3 -0.005801 -0.006067 0.012155 0.000000 0.000000 0.000000
# 4 0.000000 0.000000 0.000000 -0.086962 0.000000 0.000000
# 5 0.000000 0.000000 0.000000 0.000000 0.092943 0.000000
# 6 0.000000 0.000000 0.000000 0.000000 0.000000 0.102733
#
#
# Mechanical properties :
#
#
# Convention : Reuss Voigt Hill
#
# Bulk Modulus (GPa) = 21.13864 52.03007 36.58435
# Shear Modulus (GPa) = 24.71208 17.00106 20.85657
#
# Velocity S-wave (km/s) = 3.46672 2.87543 3.18483
# Velocity P-wave (km/s) = 5.12880 6.02725 5.59609
#
# Compressibility (1/GPa) = 0.04730673
#
# Stress axis : x y z
#
# Youngs Moduli (GPa) = 24.40392 105.87225 82.27339
#
# Poissons Ratio (x) = -0.44812 0.47726
# Poissons Ratio (y) = -0.10329 0.49914
# Poissons Ratio (z) = 0.14156 0.64231
#
# Static dielectric constant tensor:
#      x y z
#    x 1.743800 0.000000 0.000000 
#    y 0.000000 1.777690 0.000000 
#    z 0.000000 0.000000 1.782900 
# 
# From -- ./inp_files/57667.got.cif
#   From: 2010.05.17/outbox.cif.g08.bks.cpg/sg71_29_cif.got.tgz:57667.got - 2010.06.03 16:22:01.
