data_PCOD9519006
_publ_section_title
;
Structure prediction by ZEFSAII (Michael W. Deem and Ramdas Pophale) SiO2 
 PCOD9519006
Probable space group: I M M M
;
_chemical_formula_sum "Si O2"
_cell_formula_units_Z 88
_cell_length_a 7.527755
_cell_length_b 30.340121
_cell_length_c 19.255598
_cell_angle_alpha 90.000000
_cell_angle_beta 90.000000
_cell_angle_gamma 90.000000
_cell_volume 4397.843747
_symmetry_space_group_name_H-M "I M M M"
_symmetry_group_IT_number 71
_symmetry_cell_setting 'orthorhombic'
loop_
_space_group_symop_operation_xyz
x,y,z
-x,-y,z
x,-y,-z
-x,y,-z
-x,-y,-z
x,y,-z
-x,y,z
x,-y,z
1/2+x,1/2+y,1/2+z
1/2-x,1/2-y,1/2+z
1/2+x,1/2-y,1/2-z
1/2-x,1/2+y,1/2-z
1/2-x,1/2-y,1/2-z
1/2+x,1/2+y,1/2-z
1/2-x,1/2+y,1/2+z
1/2+x,1/2-y,1/2+z
loop_
_atom_site_type_symbol
_atom_site_label
_atom_site_fract_x
_atom_site_fract_y
_atom_site_fract_z
Si Si1 0.212424 0.793081 0.795227
Si Si2 0.785983 0.449624 0.348401
Si Si3 0.212869 0.882178 0.725986
Si Si4 0.208528 0.861178 0.578305
Si Si5 0.215218 0.740627 0.921909
Si Si6 0.708301 0.946272 0.000000
O O1 0.250000 0.750000 0.750000
O O2 0.284530 0.837164 0.760588
O O3 0.279212 0.778458 0.870509
O O4 0.000000 0.798774 0.799983
O O5 0.723650 0.500000 0.339551
O O6 0.743530 0.420594 0.281436
O O7 0.719067 0.432529 0.424167
O O8 0.000000 0.450940 0.353937
O O9 0.281327 0.886007 0.646571
O O10 0.000000 0.877583 0.718938
O O11 0.284640 0.867525 0.500000
O O12 0.223733 0.808960 0.595617
O O13 0.000000 0.871836 0.572860
O O14 0.000000 0.739340 0.919248
O O15 0.271883 0.749415 0.000000
O O16 0.500000 0.934080 0.000000
O O17 0.717802 0.000000 0.000000
#
# Coordination Sequence:
#
# PCOD9519006 Si02
#       6
#    16  16  16  16  16   8
#     4  10  19  31  46  67  96 128 161 197 237 280
#     4   9  18  34  56  77  96 123 160 198 237 284
#     4  10  20  32  47  73 102 127 159 199 246 291
#     4   9  17  30  48  68  93 126 164 203 238 279
#     4   9  17  29  45  64  89 125 165 200 236 278
#     4   7  12  28  53  75  95 121 155 195 233 275
#
# _framework density 20.009806999999999
#
# number of rings (size 3 to 8) (size 9 to 14) (size 15 to 20)
#    0.000    2.818    1.818    1.091    0.000    1.818 
#    1.636    0.455    0.000    2.182    0.000    3.818 
#    0.000    0.000    0.000    0.000    0.000    0.000 
#
# Total GULP energy -245102.201872 kJ/mol
# GULP energy per Si atom -5570.504588 kJ/mol
# Density = 1.996426 g / cm^3
# Si number density = 20.009807 Si / 1000 Ang^3
#
#
#
# Elastic Constant Matrix: (Units=GPa)
#
#
# Indices 1 2 3 4 5 6 
#
# 1 49.8179 -2.8809 7.7160 0.0000 0.0000 0.0000
# 2 -2.8809 67.2612 75.3413 0.0000 0.0000 0.0000
# 3 7.7160 75.3413 214.3538 0.0000 0.0000 0.0000
# 4 0.0000 0.0000 0.0000 35.5157 0.0000 0.0000
# 5 0.0000 0.0000 0.0000 0.0000 13.5644 0.0000
# 6 0.0000 0.0000 0.0000 0.0000 0.0000 11.8907
#
#
#
# Elastic Compliance Matrix: (Units=1/GPa)
#
#
# Indices 1 2 3 4 5 6 
#
# 1 0.020503 0.002812 -0.001726 0.000000 0.000000 0.000000
# 2 0.002812 0.024907 -0.008856 0.000000 0.000000 0.000000
# 3 -0.001726 -0.008856 0.007840 0.000000 0.000000 0.000000
# 4 0.000000 0.000000 0.000000 0.028157 0.000000 0.000000
# 5 0.000000 0.000000 0.000000 0.000000 0.073723 0.000000
# 6 0.000000 0.000000 0.000000 0.000000 0.000000 0.084099
#
#
# Mechanical properties :
#
#
# Convention : Reuss Voigt Hill
#
# Bulk Modulus (GPa) = 26.51805 54.64286 40.58046
# Shear Modulus (GPa) = 18.70285 28.94458 23.82372
#
# Velocity S-wave (km/s) = 3.06058 3.80744 3.45425
# Velocity P-wave (km/s) = 5.07650 6.83346 6.01942
#
# Compressibility (1/GPa) = 0.03771016
#
# Stress axis : x y z
#
# Youngs Moduli (GPa) = 48.77305 40.14878 127.55214
#
# Poissons Ratio (x) = -0.11290 0.22021
# Poissons Ratio (y) = -0.13715 1.12956
# Poissons Ratio (z) = 0.08420 0.35554
#
# Static dielectric constant tensor:
#      x y z
#    x 1.738600 0.000000 0.000000 
#    y 0.000000 1.664630 0.000000 
#    z 0.000000 0.000000 1.800110 
# 
# From -- ./inp_files/16616.got.cif
#   From: 2010.05.17/outbox.cif.g08.bks.cpg/sg71_9_cif.got.tgz:16616.got - 2010.06.03 16:22:01.
