data_PCOD9519784
_publ_section_title
;
Structure prediction by ZEFSAII (Michael W. Deem and Ramdas Pophale) SiO2 
 PCOD9519784
Probable space group: I M M M
;
_chemical_formula_sum "Si O2"
_cell_formula_units_Z 120
_cell_length_a 14.775598
_cell_length_b 15.596146
_cell_length_c 27.223535
_cell_angle_alpha 90.000000
_cell_angle_beta 90.000000
_cell_angle_gamma 90.000000
_cell_volume 6273.456297
_symmetry_space_group_name_H-M "I M M M"
_symmetry_group_IT_number 71
_symmetry_cell_setting 'orthorhombic'
loop_
_space_group_symop_operation_xyz
x,y,z
-x,-y,z
x,-y,-z
-x,y,-z
-x,-y,-z
x,y,-z
-x,y,z
x,-y,z
1/2+x,1/2+y,1/2+z
1/2-x,1/2-y,1/2+z
1/2+x,1/2-y,1/2-z
1/2-x,1/2+y,1/2-z
1/2-x,1/2-y,1/2-z
1/2+x,1/2+y,1/2-z
1/2-x,1/2+y,1/2+z
1/2+x,1/2-y,1/2+z
loop_
_atom_site_type_symbol
_atom_site_label
_atom_site_fract_x
_atom_site_fract_y
_atom_site_fract_z
Si Si1 0.867825 0.090889 0.766823
Si Si2 0.902283 0.248699 0.697452
Si Si3 0.339575 0.095596 0.740105
Si Si4 0.500000 0.400627 0.059507
Si Si5 0.728279 0.095393 0.941464
Si Si6 0.898499 0.140224 0.124805
Si Si7 0.174704 0.788001 0.441519
Si Si8 0.214213 0.695402 0.145602
O O1 0.901969 0.169910 0.735519
O O2 0.759168 0.095698 0.765545
O O3 0.897595 0.093468 0.822888
O O4 0.893821 0.000000 0.743791
O O5 0.894421 0.334105 0.729974
O O6 0.808623 0.235392 0.667527
O O7 0.000000 0.249107 0.671075
O O8 0.319275 0.125571 0.684393
O O9 0.377193 0.000000 0.741703
O O10 0.500000 0.500000 0.077655
O O11 0.412690 0.343804 0.072759
O O12 0.500000 0.405691 0.000000
O O13 0.822134 0.104798 0.911829
O O14 0.672867 0.184151 0.931425
O O15 0.689143 0.000000 0.929322
O O16 0.744477 0.096042 0.000000
O O17 0.863699 0.234450 0.139925
O O18 0.000000 0.138880 0.104416
O O19 0.187727 0.796337 0.500000
O O20 0.256071 0.827351 0.409450
#
# Coordination Sequence:
#
# PCOD9519784 Si02
#       8
#    16  16  16   8  16  16  16  16
#     4  10  19  33  52  75 105 136 173 220 268 323
#     4  11  21  35  54  77 109 145 182 226 279 333
#     4  10  20  36  55  75 104 144 185 228 278 329
#     4   9  18  34  57  85 115 145 186 238 287 335
#     4   9  19  35  52  76 113 150 184 226 275 333
#     4  11  20  32  54  78 104 142 187 230 279 331
#     4   9  19  35  57  82 113 151 187 228 284 340
#     4  10  20  37  55  79 113 146 186 233 283 339
#
# _framework density 19.128212000000001
#
# number of rings (size 3 to 8) (size 9 to 14) (size 15 to 20)
#    0.000    2.067    2.667    1.600    0.933    2.933 
#    0.000    1.000    0.000    2.000    0.000    0.000 
#    0.000    0.000    0.000   30.000    0.000    0.133 
#
# Total GULP energy -334266.946316 kJ/mol
# GULP energy per Si atom -5571.115772 kJ/mol
# Density = 1.908468 g / cm^3
# Si number density = 19.128212 Si / 1000 Ang^3
#
#
#
# Elastic Constant Matrix: (Units=GPa)
#
#
# Indices 1 2 3 4 5 6 
#
# 1 55.7043 39.5990 4.1956 0.0000 0.0000 0.0000
# 2 39.5990 131.0596 29.6306 0.0000 0.0000 0.0000
# 3 4.1956 29.6306 49.5845 0.0000 0.0000 0.0000
# 4 0.0000 0.0000 0.0000 8.4042 0.0000 0.0000
# 5 0.0000 0.0000 0.0000 0.0000 11.0071 0.0000
# 6 0.0000 0.0000 0.0000 0.0000 0.0000 -30.3909
#
#
#
# Elastic Compliance Matrix: (Units=1/GPa)
#
#
# Indices 1 2 3 4 5 6 
#
# 1 0.023142 -0.007572 0.002567 0.000000 0.000000 0.000000
# 2 -0.007572 0.011300 -0.006112 0.000000 0.000000 0.000000
# 3 0.002567 -0.006112 0.023603 0.000000 0.000000 0.000000
# 4 0.000000 0.000000 0.000000 0.118988 0.000000 0.000000
# 5 0.000000 0.000000 0.000000 0.000000 0.090851 0.000000
# 6 0.000000 0.000000 0.000000 0.000000 0.000000 -0.032905
#
#
# Mechanical properties :
#
#
# Convention : Reuss Voigt Hill
#
# Bulk Modulus (GPa) = 27.92544 42.57765 35.25154
# Shear Modulus (GPa) = 18.57704 8.66563 13.62133
#
# Velocity S-wave (km/s) = 3.11977 2.13076 2.67143
# Velocity P-wave (km/s) = 5.25433 5.32550 5.29003
#
# Compressibility (1/GPa) = 0.03580964
#
# Stress axis : x y z
#
# Youngs Moduli (GPa) = 43.21205 88.49639 42.36805
#
# Poissons Ratio (x) = 0.67014 -0.10876
# Poissons Ratio (y) = 0.32722 0.25895
# Poissons Ratio (z) = -0.11093 0.54087
#
# Static dielectric constant tensor:
#      x y z
#    x 1.676000 0.000000 0.000000 
#    y 0.000000 1.704090 0.000000 
#    z 0.000000 0.000000 1.669840 
# 
# From -- ./inp_files/70156.got.cif
#   From: 2010.05.17/outbox.cif.g08.bks.cpg/sg71_36_cif.got.tgz:70156.got - 2010.06.03 16:22:01.
