data_PCOD9519972
_publ_section_title
;
Structure prediction by ZEFSAII (Michael W. Deem and Ramdas Pophale) SiO2 
 PCOD9519972
Probable space group: I M M M
;
_chemical_formula_sum "Si O2"
_cell_formula_units_Z 72
_cell_length_a 14.950417
_cell_length_b 9.130708
_cell_length_c 27.805004
_cell_angle_alpha 90.000000
_cell_angle_beta 90.000000
_cell_angle_gamma 90.000000
_cell_volume 3795.602486
_symmetry_space_group_name_H-M "I M M M"
_symmetry_group_IT_number 71
_symmetry_cell_setting 'orthorhombic'
loop_
_space_group_symop_operation_xyz
x,y,z
-x,-y,z
x,-y,-z
-x,y,-z
-x,-y,-z
x,y,-z
-x,y,z
x,-y,z
1/2+x,1/2+y,1/2+z
1/2-x,1/2-y,1/2+z
1/2+x,1/2-y,1/2-z
1/2-x,1/2+y,1/2-z
1/2-x,1/2-y,1/2-z
1/2+x,1/2+y,1/2-z
1/2-x,1/2+y,1/2+z
1/2+x,1/2-y,1/2+z
loop_
_atom_site_type_symbol
_atom_site_label
_atom_site_fract_x
_atom_site_fract_y
_atom_site_fract_z
Si Si1 0.129467 0.334056 0.218498
Si Si2 0.897859 0.677853 0.500000
Si Si3 0.901823 0.322962 0.889677
Si Si4 0.661100 0.665485 0.190323
Si Si5 0.714281 0.176198 0.906018
O O1 0.099655 0.500000 0.226965
O O2 0.094813 0.281973 0.166927
O O3 0.236228 0.340808 0.209070
O O4 0.109952 0.237649 0.265011
O O5 0.900840 0.500000 0.500000
O O6 0.843823 0.719717 0.547727
O O7 0.000000 0.731115 0.500000
O O8 0.888938 0.500000 0.891565
O O9 0.814179 0.243694 0.909871
O O10 0.000000 0.289584 0.911001
O O11 0.631596 0.500000 0.180127
O O12 0.667391 0.760942 0.142066
O O13 0.720034 0.000000 0.902962
#
# Coordination Sequence:
#
# PCOD9519972 Si02
#       5
#    16   8  16  16  16
#     4   8  14  25  43  68  98 136 179 212 239 282
#     4   9  20  40  62  81 100 126 167 219 272 323
#     4   9  18  33  52  76 110 148 179 208 249 306
#     4   9  16  27  45  70 102 137 171 210 256 304
#     4  10  19  33  56  80 101 131 174 223 269 312
#
# _framework density 18.96932
#
# number of rings (size 3 to 8) (size 9 to 14) (size 15 to 20)
#    0.000    3.000    0.000    2.667    0.000    5.778 
#    0.000    3.889    0.000   15.333    0.000    0.000 
#    0.000    0.000    0.000    0.000    0.000    0.000 
#
# Total GULP energy -200555.994271 kJ/mol
# GULP energy per Si atom -5570.999841 kJ/mol
# Density = 1.892614 g / cm^3
# Si number density = 18.969320 Si / 1000 Ang^3
#
#
#
# Elastic Constant Matrix: (Units=GPa)
#
#
# Indices 1 2 3 4 5 6 
#
# 1 119.3372 40.6387 64.7955 0.0000 0.0000 0.0000
# 2 40.6387 69.4308 55.5677 0.0000 0.0000 0.0000
# 3 64.7955 55.5677 113.4764 0.0000 0.0000 0.0000
# 4 0.0000 0.0000 0.0000 21.0225 0.0000 0.0000
# 5 0.0000 0.0000 0.0000 0.0000 -0.4172 0.0000
# 6 0.0000 0.0000 0.0000 0.0000 0.0000 1.7953
#
#
#
# Elastic Compliance Matrix: (Units=1/GPa)
#
#
# Indices 1 2 3 4 5 6 
#
# 1 0.012429 -0.002623 -0.005813 0.000000 0.000000 0.000000
# 2 -0.002623 0.024239 -0.010372 0.000000 0.000000 0.000000
# 3 -0.005813 -0.010372 0.017210 0.000000 0.000000 0.000000
# 4 0.000000 0.000000 0.000000 0.047568 0.000000 0.000000
# 5 0.000000 0.000000 0.000000 0.000000 -2.397191 0.000000
# 6 0.000000 0.000000 0.000000 0.000000 0.000000 0.557005
#
#
# Mechanical properties :
#
#
# Convention : Reuss Voigt Hill
#
# Bulk Modulus (GPa) = 61.48654 69.36090 65.42372
# Shear Modulus (GPa) = -2.94863 13.89630 5.47384
#
# Velocity S-wave (km/s) = -1.24812 2.70953 1.70056
# Velocity P-wave (km/s) = 5.51425 6.81417 6.19838
#
# Compressibility (1/GPa) = 0.01626372
#
# Stress axis : x y z
#
# Youngs Moduli (GPa) = 80.45875 41.25617 58.10477
#
# Poissons Ratio (x) = 0.10820 0.33774
# Poissons Ratio (y) = 0.21102 0.60265
# Poissons Ratio (z) = 0.46767 0.42790
#
# Static dielectric constant tensor:
#      x y z
#    x 1.727040 0.000000 0.000000 
#    y 0.000000 1.651890 0.000000 
#    z 0.000000 0.000000 1.641020 
# 
# From -- ./inp_files/39962.got.cif
#   From: 2010.05.17/outbox.cif.g08.bks.cpg/sg71_20_cif.got.tgz:39962.got - 2010.06.03 16:22:01.
