data_PCOD9519517
_publ_section_title
;
Structure prediction by ZEFSAII (Michael W. Deem and Ramdas Pophale) SiO2 
 PCOD9519517
Probable space group: I M M M
;
_chemical_formula_sum "Si O2"
_cell_formula_units_Z 104
_cell_length_a 18.705939
_cell_length_b 27.895723
_cell_length_c 11.871107
_cell_angle_alpha 90.000000
_cell_angle_beta 90.000000
_cell_angle_gamma 90.000000
_cell_volume 6194.529923
_symmetry_space_group_name_H-M "I M M M"
_symmetry_group_IT_number 71
_symmetry_cell_setting 'orthorhombic'
loop_
_space_group_symop_operation_xyz
x,y,z
-x,-y,z
x,-y,-z
-x,y,-z
-x,-y,-z
x,y,-z
-x,y,z
x,-y,z
1/2+x,1/2+y,1/2+z
1/2-x,1/2-y,1/2+z
1/2+x,1/2-y,1/2-z
1/2-x,1/2+y,1/2-z
1/2-x,1/2-y,1/2-z
1/2+x,1/2+y,1/2-z
1/2-x,1/2+y,1/2+z
1/2+x,1/2-y,1/2+z
loop_
_atom_site_type_symbol
_atom_site_label
_atom_site_fract_x
_atom_site_fract_y
_atom_site_fract_z
Si Si1 0.666782 0.595507 0.634726
Si Si2 0.084076 0.857576 0.500000
Si Si3 0.586746 0.777105 0.371284
Si Si4 0.081501 0.000000 0.136925
Si Si5 0.585681 0.681833 0.244831
Si Si6 0.288060 0.944081 0.724863
Si Si7 0.583725 0.885771 0.364412
Si Si8 0.191908 0.945692 0.500000
O O1 0.665909 0.598167 0.500000
O O2 0.622489 0.547986 0.671693
O O3 0.628303 0.641451 0.686994
O O4 0.745624 0.586534 0.682645
O O5 0.098374 0.827418 0.386999
O O6 0.131945 0.905100 0.500000
O O7 0.000000 0.870298 0.500000
O O8 0.610167 0.767111 0.500000
O O9 0.500000 0.778296 0.373445
O O10 0.607590 0.734296 0.288727
O O11 0.608297 0.831096 0.339769
O O12 0.000000 0.000000 0.176969
O O13 0.080435 0.000000 0.000000
O O14 0.500000 0.676411 0.265461
O O15 0.365403 0.922857 0.697573
O O16 0.241496 0.940367 0.610110
O O17 0.291057 0.000000 0.757164
O O18 0.589439 0.891851 0.500000
O O19 0.500000 0.890805 0.335463
O O20 0.162420 0.000000 0.500000
#
# Coordination Sequence:
#
# PCOD9519517 Si02
#       8
#    16   8  16   8  16  16  16   8
#     4  11  21  33  51  74 104 144 183 221 259 306
#     4  10  20  33  50  75 109 150 185 215 251 300
#     4   8  15  30  53  79 105 133 168 215 269 315
#     4   9  18  32  48  71 100 133 178 225 259 286
#     4  10  19  32  52  77 107 142 180 220 259 307
#     4  11  21  35  55  77 107 143 172 214 269 324
#     4   9  18  34  58  86 108 129 167 219 273 327
#     4  10  20  35  51  72 102 145 183 209 259 320
#
# _framework density 16.789006000000001
#
# number of rings (size 3 to 8) (size 9 to 14) (size 15 to 20)
#    0.000    2.231    3.077    1.846    0.000    2.000 
#    0.000    1.538    1.692    0.462    0.000    1.077 
#    0.000    0.000    0.000    0.000    0.000    0.000 
#
# Total GULP energy -290007.106813 kJ/mol
# GULP energy per Si atom -5577.059746 kJ/mol
# Density = 1.675079 g / cm^3
# Si number density = 16.789006 Si / 1000 Ang^3
#
#
#
# Elastic Constant Matrix: (Units=GPa)
#
#
# Indices 1 2 3 4 5 6 
#
# 1 61.1520 30.0347 27.1357 0.0000 0.0000 0.0000
# 2 30.0347 56.0287 28.1142 0.0000 0.0000 0.0000
# 3 27.1357 28.1142 69.3198 0.0000 0.0000 0.0000
# 4 0.0000 0.0000 0.0000 14.5926 0.0000 0.0000
# 5 0.0000 0.0000 0.0000 0.0000 20.0245 0.0000
# 6 0.0000 0.0000 0.0000 0.0000 0.0000 4.6798
#
#
#
# Elastic Compliance Matrix: (Units=1/GPa)
#
#
# Indices 1 2 3 4 5 6 
#
# 1 0.023576 -0.010053 -0.005152 0.000000 0.000000 0.000000
# 2 -0.010053 0.026695 -0.006891 0.000000 0.000000 0.000000
# 3 -0.005152 -0.006891 0.019238 0.000000 0.000000 0.000000
# 4 0.000000 0.000000 0.000000 0.068528 0.000000 0.000000
# 5 0.000000 0.000000 0.000000 0.000000 0.049939 0.000000
# 6 0.000000 0.000000 0.000000 0.000000 0.000000 0.213684
#
#
# Mechanical properties :
#
#
# Convention : Reuss Voigt Hill
#
# Bulk Modulus (GPa) = 39.50050 39.67444 39.58747
# Shear Modulus (GPa) = 11.00614 14.60711 12.80662
#
# Velocity S-wave (km/s) = 2.56316 2.95284 2.76488
# Velocity P-wave (km/s) = 5.68669 5.94207 5.81578
#
# Compressibility (1/GPa) = 0.02531614
#
# Stress axis : x y z
#
# Youngs Moduli (GPa) = 42.41523 37.46000 51.98157
#
# Poissons Ratio (x) = 0.37660 0.26780
# Poissons Ratio (y) = 0.42641 0.35823
# Poissons Ratio (z) = 0.21852 0.25815
#
# Static dielectric constant tensor:
#      x y z
#    x 1.559760 0.000000 0.000000 
#    y 0.000000 1.557570 0.000000 
#    z 0.000000 0.000000 1.561170 
# 
# From -- ./inp_files/24591.got.cif
#   From: 2010.05.17/outbox.cif.g08.bks.cpg/sg71_13_cif.got.tgz:24591.got - 2010.06.03 16:22:01.
