data_PCOD9519740
_publ_section_title
;
Structure prediction by ZEFSAII (Michael W. Deem and Ramdas Pophale) SiO2 
 PCOD9519740
Probable space group: I M M M
;
_chemical_formula_sum "Si O2"
_cell_formula_units_Z 120
_cell_length_a 16.528188
_cell_length_b 14.148104
_cell_length_c 27.791030
_cell_angle_alpha 90.000000
_cell_angle_beta 90.000000
_cell_angle_gamma 90.000000
_cell_volume 6498.724565
_symmetry_space_group_name_H-M "I M M M"
_symmetry_group_IT_number 71
_symmetry_cell_setting 'orthorhombic'
loop_
_space_group_symop_operation_xyz
x,y,z
-x,-y,z
x,-y,-z
-x,y,-z
-x,-y,-z
x,y,-z
-x,y,z
x,-y,z
1/2+x,1/2+y,1/2+z
1/2-x,1/2-y,1/2+z
1/2+x,1/2-y,1/2-z
1/2-x,1/2+y,1/2-z
1/2-x,1/2-y,1/2-z
1/2+x,1/2+y,1/2-z
1/2-x,1/2+y,1/2+z
1/2+x,1/2-y,1/2+z
loop_
_atom_site_type_symbol
_atom_site_label
_atom_site_fract_x
_atom_site_fract_y
_atom_site_fract_z
Si Si1 0.700416 0.387407 0.397799
Si Si2 0.856084 0.897423 0.713496
Si Si3 0.500000 0.110969 0.058759
Si Si4 0.162757 0.721474 0.555933
Si Si5 0.085275 0.717699 0.754570
Si Si6 0.274913 0.105167 0.203850
Si Si7 0.093082 0.724415 0.130339
Si Si8 0.256340 0.611464 0.115865
O O1 0.686407 0.500000 0.398757
O O2 0.762214 0.351386 0.438149
O O3 0.748013 0.360880 0.348337
O O4 0.620678 0.322803 0.394490
O O5 0.915827 0.813277 0.723824
O O6 0.802630 0.899220 0.761908
O O7 0.795144 0.881219 0.669190
O O8 0.894149 0.000000 0.706347
O O9 0.581084 0.168254 0.073834
O O10 0.500000 0.000000 0.074253
O O11 0.500000 0.108917 0.000000
O O12 0.150220 0.743756 0.500000
O O13 0.190681 0.816727 0.583383
O O14 0.160389 0.664452 0.732383
O O15 0.095519 0.735051 0.811515
O O16 0.000000 0.665688 0.748576
O O17 0.307677 0.000000 0.197210
O O18 0.163715 0.649597 0.116850
O O19 0.000000 0.699577 0.117913
O O20 0.259316 0.500000 0.102234
#
# Coordination Sequence:
#
# PCOD9519740 Si02
#       8
#    16  16   8  16  16  16  16  16
#     4  10  20  35  55  79 108 144 181 217 269 334
#     4  10  19  34  53  72 101 144 183 215 261 322
#     4   9  18  36  63  91 117 143 172 216 275 331
#     4  10  21  38  61  87 111 139 181 227 271 324
#     4  11  20  30  48  72 104 143 179 222 267 307
#     4  10  19  33  51  72 103 143 180 214 259 318
#     4  10  20  32  51  81 110 140 183 230 273 321
#     4  10  21  38  58  79 107 147 190 229 273 324
#
# _framework density 18.465161999999999
#
# number of rings (size 3 to 8) (size 9 to 14) (size 15 to 20)
#    0.000    1.933    2.667    2.400    0.000    2.133 
#    4.800    3.000    0.000    7.600    0.000    7.467 
#    0.000    0.000    0.000    0.000    0.000    0.000 
#
# Total GULP energy -334306.914584 kJ/mol
# GULP energy per Si atom -5571.781910 kJ/mol
# Density = 1.842313 g / cm^3
# Si number density = 18.465162 Si / 1000 Ang^3
#
#
#
# Elastic Constant Matrix: (Units=GPa)
#
#
# Indices 1 2 3 4 5 6 
#
# 1 109.5493 51.8584 14.0418 0.0000 0.0000 0.0000
# 2 51.8584 99.7468 17.9793 0.0000 0.0000 0.0000
# 3 14.0418 17.9793 37.9859 0.0000 0.0000 0.0000
# 4 0.0000 0.0000 0.0000 17.1095 0.0000 0.0000
# 5 0.0000 0.0000 0.0000 0.0000 13.1828 0.0000
# 6 0.0000 0.0000 0.0000 0.0000 0.0000 -109.4334
#
#
#
# Elastic Compliance Matrix: (Units=1/GPa)
#
#
# Indices 1 2 3 4 5 6 
#
# 1 0.012202 -0.006047 -0.001649 0.000000 0.000000 0.000000
# 2 -0.006047 0.013957 -0.004371 0.000000 0.000000 0.000000
# 3 -0.001649 -0.004371 0.029004 0.000000 0.000000 0.000000
# 4 0.000000 0.000000 0.000000 0.058447 0.000000 0.000000
# 5 0.000000 0.000000 0.000000 0.000000 0.075856 0.000000
# 6 0.000000 0.000000 0.000000 0.000000 0.000000 -0.009138
#
#
# Mechanical properties :
#
#
# Convention : Reuss Voigt Hill
#
# Bulk Modulus (GPa) = 32.22635 46.11567 39.17101
# Shear Modulus (GPa) = 23.27706 -4.93473 9.17117
#
# Velocity S-wave (km/s) = 3.55434 -1.63654 2.23104
# Velocity P-wave (km/s) = 5.85959 4.63224 5.28169
#
# Compressibility (1/GPa) = 0.03103051
#
# Stress axis : x y z
#
# Youngs Moduli (GPa) = 81.95381 71.64920 34.47828
#
# Poissons Ratio (x) = 0.43324 0.05684
# Poissons Ratio (y) = 0.49555 0.15070
# Poissons Ratio (z) = 0.13511 0.31316
#
# Static dielectric constant tensor:
#      x y z
#    x 1.587450 0.000000 0.000000 
#    y 0.000000 1.706440 0.000000 
#    z 0.000000 0.000000 1.617780 
# 
# From -- ./inp_files/70150.got.cif
#   From: 2010.05.17/outbox.cif.g08.bks.cpg/sg71_36_cif.got.tgz:70150.got - 2010.06.03 16:22:01.
