data_PCOD9519235
_publ_section_title
;
Structure prediction by ZEFSAII (Michael W. Deem and Ramdas Pophale) SiO2 
 PCOD9519235
Probable space group: I M M M
;
_chemical_formula_sum "Si O2"
_cell_formula_units_Z 104
_cell_length_a 18.247834
_cell_length_b 7.409465
_cell_length_c 35.451696
_cell_angle_alpha 90.000000
_cell_angle_beta 90.000000
_cell_angle_gamma 90.000000
_cell_volume 4793.306377
_symmetry_space_group_name_H-M "I M M M"
_symmetry_group_IT_number 71
_symmetry_cell_setting 'orthorhombic'
loop_
_space_group_symop_operation_xyz
x,y,z
-x,-y,z
x,-y,-z
-x,y,-z
-x,-y,-z
x,y,-z
-x,y,z
x,-y,z
1/2+x,1/2+y,1/2+z
1/2-x,1/2-y,1/2+z
1/2+x,1/2-y,1/2-z
1/2-x,1/2+y,1/2-z
1/2-x,1/2-y,1/2-z
1/2+x,1/2+y,1/2-z
1/2-x,1/2+y,1/2+z
1/2+x,1/2-y,1/2+z
loop_
_atom_site_type_symbol
_atom_site_label
_atom_site_fract_x
_atom_site_fract_y
_atom_site_fract_z
Si Si1 0.415314 0.779375 0.253138
Si Si2 0.663394 0.789445 0.671673
Si Si3 0.000000 0.279973 0.043269
Si Si4 0.583056 0.783918 0.898637
Si Si5 0.145731 0.721281 0.912614
Si Si6 0.165157 0.718584 0.676905
Si Si7 0.290168 0.284508 0.957177
O O1 0.500000 0.726334 0.252287
O O2 0.376032 0.714706 0.291270
O O3 0.373662 0.721146 0.215346
O O4 0.413017 0.000000 0.252945
O O5 0.643551 0.714851 0.630578
O O6 0.750674 0.776153 0.675922
O O7 0.642438 0.000000 0.670467
O O8 0.926353 0.224100 0.064650
O O9 0.000000 0.500000 0.043147
O O10 0.000000 0.220915 0.000000
O O11 0.500000 0.715756 0.902729
O O12 0.622299 0.717656 0.860382
O O13 0.635836 0.747897 0.933881
O O14 0.578578 0.000000 0.894971
O O15 0.147514 0.500000 0.912007
O O16 0.220051 0.781970 0.933413
O O17 0.164340 0.500000 0.676457
O O18 0.281252 0.500000 0.959590
O O19 0.292139 0.214602 0.000000
#
# Coordination Sequence:
#
# PCOD9519235 Si02
#       7
#    16  16   8  16  16  16  16
#     4   9  18  31  50  77 105 132 166 209 254 300
#     4  10  19  31  51  77 104 132 165 209 256 301
#     4   9  16  26  44  72 105 139 173 209 251 301
#     4  10  21  36  54  75 100 133 175 218 256 300
#     4   9  17  29  47  74 106 136 167 207 253 301
#     4  10  19  34  54  74  99 135 173 208 250 303
#     4  10  20  35  54  76 105 137 167 206 261 317
#
# _framework density 21.696923999999999
#
# number of rings (size 3 to 8) (size 9 to 14) (size 15 to 20)
#    0.000    2.385    1.538    1.385    1.077    4.615 
#    0.000    1.538    0.000    2.769    0.000    1.615 
#    0.000    3.692    0.000    0.000    0.000    0.000 
#
# Total GULP energy -290617.383786 kJ/mol
# GULP energy per Si atom -5588.795842 kJ/mol
# Density = 2.164754 g / cm^3
# Si number density = 21.696924 Si / 1000 Ang^3
#
#
#
# Elastic Constant Matrix: (Units=GPa)
#
#
# Indices 1 2 3 4 5 6 
#
# 1 112.2384 -19.2829 76.2190 0.0000 0.0000 0.0000
# 2 -19.2829 69.3857 -1.2216 0.0000 0.0000 0.0000
# 3 76.2190 -1.2216 210.7484 0.0000 0.0000 0.0000
# 4 0.0000 0.0000 0.0000 4.7984 0.0000 0.0000
# 5 0.0000 0.0000 0.0000 0.0000 19.4562 0.0000
# 6 0.0000 0.0000 0.0000 0.0000 0.0000 206.1670
#
#
#
# Elastic Compliance Matrix: (Units=1/GPa)
#
#
# Indices 1 2 3 4 5 6 
#
# 1 0.012570 0.003414 -0.004526 0.000000 0.000000 0.000000
# 2 0.003414 0.015341 -0.001146 0.000000 0.000000 0.000000
# 3 -0.004526 -0.001146 0.006375 0.000000 0.000000 0.000000
# 4 0.000000 0.000000 0.000000 0.208402 0.000000 0.000000
# 5 0.000000 0.000000 0.000000 0.000000 0.051397 0.000000
# 6 0.000000 0.000000 0.000000 0.000000 0.000000 0.004850
#
#
# Mechanical properties :
#
#
# Convention : Reuss Voigt Hill
#
# Bulk Modulus (GPa) = 33.59181 55.97795 44.78488
# Shear Modulus (GPa) = 15.95532 68.52819 42.24175
#
# Velocity S-wave (km/s) = 2.71472 5.62609 4.41716
# Velocity P-wave (km/s) = 5.03410 8.24983 6.83381
#
# Compressibility (1/GPa) = 0.02976917
#
# Stress axis : x y z
#
# Youngs Moduli (GPa) = 79.55644 65.18624 156.85589
#
# Poissons Ratio (x) = -0.22252 0.70995
# Poissons Ratio (y) = -0.27157 0.17970
# Poissons Ratio (z) = 0.36008 0.07468
#
# Static dielectric constant tensor:
#      x y z
#    x 1.723260 0.000000 0.000000 
#    y 0.000000 1.899570 0.000000 
#    z 0.000000 0.000000 1.759150 
# 
# From -- ./inp_files/70497.got.cif
#   From: 2010.05.17/outbox.cif.g08.bks.cpg/sg71_36_cif.got.tgz:70497.got - 2010.06.03 16:22:01.
