data_PCOD9519046
_publ_section_title
;
Structure prediction by ZEFSAII (Michael W. Deem and Ramdas Pophale) SiO2 
 PCOD9519046
Probable space group: I M M M
;
_chemical_formula_sum "Si O2"
_cell_formula_units_Z 88
_cell_length_a 19.559220
_cell_length_b 18.563521
_cell_length_c 14.161276
_cell_angle_alpha 90.000000
_cell_angle_beta 90.000000
_cell_angle_gamma 90.000000
_cell_volume 5141.789256
_symmetry_space_group_name_H-M "I M M M"
_symmetry_group_IT_number 71
_symmetry_cell_setting 'orthorhombic'
loop_
_space_group_symop_operation_xyz
x,y,z
-x,-y,z
x,-y,-z
-x,y,-z
-x,-y,-z
x,y,-z
-x,y,z
x,-y,z
1/2+x,1/2+y,1/2+z
1/2-x,1/2-y,1/2+z
1/2+x,1/2-y,1/2-z
1/2-x,1/2+y,1/2-z
1/2-x,1/2-y,1/2-z
1/2+x,1/2+y,1/2-z
1/2-x,1/2+y,1/2+z
1/2+x,1/2-y,1/2+z
loop_
_atom_site_type_symbol
_atom_site_label
_atom_site_fract_x
_atom_site_fract_y
_atom_site_fract_z
Si Si1 0.183312 0.812123 0.109810
Si Si2 0.921981 0.586522 0.500000
Si Si3 0.877932 0.582518 0.291598
Si Si4 0.078195 0.730411 0.230527
Si Si5 0.719616 0.582534 0.768207
Si Si6 0.180999 0.215733 0.610674
O O1 0.121248 0.761703 0.143409
O O2 0.184367 0.881779 0.176608
O O3 0.253661 0.767807 0.127711
O O4 0.179957 0.829745 0.000000
O O5 0.927022 0.500000 0.500000
O O6 0.883709 0.603752 0.402715
O O7 0.000000 0.615507 0.500000
O O8 0.903448 0.500000 0.282747
O O9 0.917833 0.643831 0.235595
O O10 0.800248 0.583953 0.255927
O O11 0.119372 0.758790 0.322490
O O12 0.000000 0.753961 0.230267
O O13 0.699473 0.500000 0.784631
O O14 0.702949 0.636418 0.853788
O O15 0.164465 0.217476 0.500000
#
# Coordination Sequence:
#
# PCOD9519046 Si02
#       6
#    16   8  16  16  16  16
#     4  10  20  37  56  76 107 144 183 226 267 309
#     4   9  18  28  38  62 106 152 178 200 248 307
#     4  10  19  31  47  75 114 146 177 214 256 314
#     4  11  21  34  54  80 109 144 185 219 263 321
#     4  10  19  33  56  83 107 135 178 223 270 321
#     4  10  20  37  56  77 108 143 181 224 268 314
#
# _framework density 17.114664999999999
#
# number of rings (size 3 to 8) (size 9 to 14) (size 15 to 20)
#    0.000    1.909    3.636    1.636    2.545    2.545 
#    0.000    0.000    0.000    9.273    0.000   11.455 
#    0.000    0.000    0.000    0.000    0.000    0.000 
#
# Total GULP energy -245443.113173 kJ/mol
# GULP energy per Si atom -5578.252572 kJ/mol
# Density = 1.707571 g / cm^3
# Si number density = 17.114665 Si / 1000 Ang^3
#
#
#
# Elastic Constant Matrix: (Units=GPa)
#
#
# Indices 1 2 3 4 5 6 
#
# 1 78.3178 4.2183 3.5100 0.0000 0.0000 0.0000
# 2 4.2183 82.1742 -1.4075 0.0000 0.0000 0.0000
# 3 3.5100 -1.4075 39.7051 0.0000 0.0000 0.0000
# 4 0.0000 0.0000 0.0000 17.2707 0.0000 0.0000
# 5 0.0000 0.0000 0.0000 0.0000 -5.8219 0.0000
# 6 0.0000 0.0000 0.0000 0.0000 0.0000 10.5071
#
#
#
# Elastic Compliance Matrix: (Units=1/GPa)
#
#
# Indices 1 2 3 4 5 6 
#
# 1 0.012857 -0.000680 -0.001161 0.000000 0.000000 0.000000
# 2 -0.000680 0.012213 0.000493 0.000000 0.000000 0.000000
# 3 -0.001161 0.000493 0.025306 0.000000 0.000000 0.000000
# 4 0.000000 0.000000 0.000000 0.057901 0.000000 0.000000
# 5 0.000000 0.000000 0.000000 0.000000 -0.171766 0.000000
# 6 0.000000 0.000000 0.000000 0.000000 0.000000 0.095174
#
#
# Mechanical properties :
#
#
# Convention : Reuss Voigt Hill
#
# Bulk Modulus (GPa) = 20.97295 23.64873 22.31084
# Shear Modulus (GPa) = 99.45735 17.31628 58.38681
#
# Velocity S-wave (km/s) = 7.63142 3.18430 5.84715
# Velocity P-wave (km/s) = 9.48327 5.23140 7.65832
#
# Compressibility (1/GPa) = 0.04768046
#
# Stress axis : x y z
#
# Youngs Moduli (GPa) = 77.77788 81.88253 39.51663
#
# Poissons Ratio (x) = 0.05567 0.04587
# Poissons Ratio (y) = 0.05288 -0.01948
# Poissons Ratio (z) = 0.09028 -0.04037
#
# Static dielectric constant tensor:
#      x y z
#    x 1.584580 0.000000 0.000000 
#    y 0.000000 1.601680 0.000000 
#    z 0.000000 0.000000 1.573220 
# 
# From -- ./inp_files/36361.got.cif
#   From: 2010.05.17/outbox.cif.g08.bks.cpg/sg71_19_cif.got.tgz:36361.got - 2010.06.03 16:22:01.
