data_PCOD9519082
_publ_section_title
;
Structure prediction by ZEFSAII (Michael W. Deem and Ramdas Pophale) SiO2 
 PCOD9519082
Probable space group: I M M M
;
_chemical_formula_sum "Si O2"
_cell_formula_units_Z 64
_cell_length_a 38.496731
_cell_length_b 18.808694
_cell_length_c 5.254759
_cell_angle_alpha 90.000000
_cell_angle_beta 90.000000
_cell_angle_gamma 90.000000
_cell_volume 3804.830340
_symmetry_space_group_name_H-M "I M M M"
_symmetry_group_IT_number 71
_symmetry_cell_setting 'orthorhombic'
loop_
_space_group_symop_operation_xyz
x,y,z
-x,-y,z
x,-y,-z
-x,y,-z
-x,-y,-z
x,y,-z
-x,y,z
x,-y,z
1/2+x,1/2+y,1/2+z
1/2-x,1/2-y,1/2+z
1/2+x,1/2-y,1/2-z
1/2-x,1/2+y,1/2-z
1/2-x,1/2-y,1/2-z
1/2+x,1/2+y,1/2-z
1/2-x,1/2+y,1/2+z
1/2+x,1/2-y,1/2+z
loop_
_atom_site_type_symbol
_atom_site_label
_atom_site_fract_x
_atom_site_fract_y
_atom_site_fract_z
Si Si1 0.153790 0.581967 0.000000
Si Si2 0.541083 0.299396 0.500000
Si Si3 0.285172 0.193338 0.500000
Si Si4 0.131465 0.153193 0.500000
Si Si5 0.573354 0.770118 0.000000
Si Si6 0.707815 0.709917 0.000000
Si Si7 0.393042 0.917105 0.000000
Si Si8 0.401343 0.415520 0.500000
O O1 0.130419 0.593864 0.249589
O O2 0.164580 0.500000 0.000000
O O3 0.187210 0.630968 0.000000
O O4 0.500000 0.309352 0.500000
O O5 0.553490 0.256804 0.250303
O O6 0.562009 0.373767 0.500000
O O7 0.291526 0.241044 0.749417
O O8 0.244848 0.169615 0.500000
O O9 0.110691 0.228814 0.500000
O O10 0.172572 0.165349 0.500000
O O11 0.118985 0.111373 0.249906
O O12 0.578760 0.854597 0.000000
O O13 0.405028 0.000000 0.000000
O O14 0.405265 0.500000 0.500000
#
# Coordination Sequence:
#
# PCOD9519082 Si02
#       8
#     8   8   8   8   8   8   8   8
#     4  10  19  31  48  72 102 132 166 208 256 301
#     4  10  21  36  56  80 104 133 166 202 248 298
#     4  10  19  32  49  72  99 131 171 215 257 297
#     4  10  19  33  53  76 101 133 173 211 256 299
#     4  10  19  33  55  78 103 133 166 208 247 295
#     4  10  20  32  51  73  98 131 172 215 252 300
#     4  10  20  33  53  79 104 133 167 208 254 297
#     4  10  21  36  54  77 104 133 168 210 252 299
#
# _framework density 16.820723999999998
#
# number of rings (size 3 to 8) (size 9 to 14) (size 15 to 20)
#    0.000    2.000    0.000    4.500    0.000    2.250 
#    0.000    1.250    0.000    8.250    0.000    0.000 
#    0.000    0.000    0.000    0.000    0.000    0.000 
#
# Total GULP energy -178597.784662 kJ/mol
# GULP energy per Si atom -5581.180771 kJ/mol
# Density = 1.678244 g / cm^3
# Si number density = 16.820724 Si / 1000 Ang^3
#
#
#
# Elastic Constant Matrix: (Units=GPa)
#
#
# Indices 1 2 3 4 5 6 
#
# 1 131.4897 82.0682 50.8883 0.0005 0.0002 0.0006
# 2 82.0682 111.4648 50.9221 -0.0003 0.0011 0.0001
# 3 50.8883 50.9221 153.9100 0.0095 0.0318 0.0004
# 4 0.0005 -0.0003 0.0095 25.5496 0.0014 -0.0007
# 5 0.0002 0.0011 0.0318 0.0014 4.7683 -0.0005
# 6 0.0006 0.0001 0.0004 -0.0007 -0.0005 17.7434
#
#
#
# Elastic Compliance Matrix: (Units=1/GPa)
#
#
# Indices 1 2 3 4 5 6 
#
# 1 0.014349 -0.009893 -0.001471 0.000000 0.000012 0.000000
# 2 -0.009893 0.017389 -0.002482 0.000001 0.000013 0.000000
# 3 -0.001471 -0.002482 0.007805 -0.000003 -0.000051 0.000000
# 4 0.000000 0.000001 -0.000003 0.039140 -0.000012 0.000002
# 5 0.000012 0.000013 -0.000051 -0.000012 0.209720 0.000006
# 6 0.000000 0.000000 0.000000 0.000002 0.000006 0.056359
#
#
# Mechanical properties :
#
#
# Convention : Reuss Voigt Hill
#
# Bulk Modulus (GPa) = 84.38394 84.95797 84.67096
# Shear Modulus (GPa) = 13.28358 23.81132 18.54745
#
# Velocity S-wave (km/s) = 2.81324 3.76652 3.32423
# Velocity P-wave (km/s) = 7.79923 8.33865 8.07345
#
# Compressibility (1/GPa) = 0.01185060
#
# Stress axis : x y z
#
# Youngs Moduli (GPa) = 69.69174 57.50727 128.12117
#
# Poissons Ratio (x) = 0.56889 0.18850
# Poissons Ratio (y) = 0.68943 0.31806
# Poissons Ratio (z) = 0.10254 0.14276
#
# Static dielectric constant tensor:
#      x y z
#    x 1.548060 0.000000 0.000000 
#    y 0.000000 1.550990 0.000000 
#    z 0.000000 0.000000 1.553070 
# 
# From -- ./inp_files/1395.got.cif
#   From: 2010.05.17/outbox.cif.g08.bks.cpg/sg71_1_cif.got.tgz:1395.got - 2010.06.03 16:22:01.
