data_PCOD9519016
_publ_section_title
;
Structure prediction by ZEFSAII (Michael W. Deem and Ramdas Pophale) SiO2 
 PCOD9519016
Probable space group: I M M M
;
_chemical_formula_sum "Si O2"
_cell_formula_units_Z 96
_cell_length_a 26.717749
_cell_length_b 13.664626
_cell_length_c 14.888014
_cell_angle_alpha 90.000000
_cell_angle_beta 90.000000
_cell_angle_gamma 90.000000
_cell_volume 5435.435965
_symmetry_space_group_name_H-M "I M M M"
_symmetry_group_IT_number 71
_symmetry_cell_setting 'orthorhombic'
loop_
_space_group_symop_operation_xyz
x,y,z
-x,-y,z
x,-y,-z
-x,y,-z
-x,-y,-z
x,y,-z
-x,y,z
x,-y,z
1/2+x,1/2+y,1/2+z
1/2-x,1/2-y,1/2+z
1/2+x,1/2-y,1/2-z
1/2-x,1/2+y,1/2-z
1/2-x,1/2-y,1/2-z
1/2+x,1/2+y,1/2-z
1/2-x,1/2+y,1/2+z
1/2+x,1/2-y,1/2+z
loop_
_atom_site_type_symbol
_atom_site_label
_atom_site_fract_x
_atom_site_fract_y
_atom_site_fract_z
Si Si1 0.788948 0.381854 0.901061
Si Si2 0.944901 0.382113 0.282963
Si Si3 0.650782 0.387104 0.394899
Si Si4 0.848965 0.619378 0.603285
Si Si5 0.097129 0.305821 0.102185
Si Si6 0.249981 0.619111 0.711774
O O1 0.787026 0.500000 0.901817
O O2 0.847088 0.352417 0.890047
O O3 0.757599 0.348803 0.814628
O O4 0.772562 0.346280 0.000000
O O5 0.943658 0.500000 0.284964
O O6 0.898384 0.347339 0.343354
O O7 0.936007 0.348862 0.180927
O O8 0.000000 0.350566 0.314546
O O9 0.666242 0.382100 0.500000
O O10 0.637907 0.500000 0.375447
O O11 0.606361 0.309912 0.384164
O O12 0.697791 0.355485 0.334685
O O13 0.848983 0.651278 0.500000
O O14 0.849615 0.500000 0.603327
O O15 0.798590 0.649062 0.654710
O O16 0.079707 0.323712 0.000000
O O17 0.249362 0.500000 0.711650
#
# Coordination Sequence:
#
# PCOD9519016 Si02
#       6
#    16  16  16  16  16  16
#     4   9  16  26  41  62  91 125 157 186 219 264
#     4  10  20  33  48  68  94 122 153 188 227 273
#     4   9  18  31  47  68  92 120 154 191 231 273
#     4   9  16  27  44  66  93 125 156 184 217 259
#     4  10  19  31  47  66  90 121 155 191 230 273
#     4   9  15  26  45  66  90 123 158 188 219 259
#
# _framework density 17.661875999999999
#
# number of rings (size 3 to 8) (size 9 to 14) (size 15 to 20)
#    0.000    2.667    1.667    1.000    0.000    4.333 
#    0.000    2.500    0.000    0.500    0.000    2.333 
#    0.000    0.000    0.000    1.500    0.000    0.167 
#
# Total GULP energy -267711.709330 kJ/mol
# GULP energy per Si atom -5577.327278 kJ/mol
# Density = 1.762168 g / cm^3
# Si number density = 17.661876 Si / 1000 Ang^3
#
#
#
# Elastic Constant Matrix: (Units=GPa)
#
#
# Indices 1 2 3 4 5 6 
#
# 1 30.1549 0.3752 18.2482 0.0000 0.0000 0.0000
# 2 0.3752 23.6597 1.8695 0.0000 0.0000 0.0000
# 3 18.2482 1.8695 86.1312 0.0000 0.0000 0.0000
# 4 0.0000 0.0000 0.0000 12.2752 0.0000 0.0000
# 5 0.0000 0.0000 0.0000 0.0000 11.0963 0.0000
# 6 0.0000 0.0000 0.0000 0.0000 0.0000 14.3063
#
#
#
# Elastic Compliance Matrix: (Units=1/GPa)
#
#
# Indices 1 2 3 4 5 6 
#
# 1 0.038039 0.000034 -0.008060 0.000000 0.000000 0.000000
# 2 0.000034 0.042339 -0.000926 0.000000 0.000000 0.000000
# 3 -0.008060 -0.000926 0.013338 0.000000 0.000000 0.000000
# 4 0.000000 0.000000 0.000000 0.081465 0.000000 0.000000
# 5 0.000000 0.000000 0.000000 0.000000 0.090120 0.000000
# 6 0.000000 0.000000 0.000000 0.000000 0.000000 0.069899
#
#
# Mechanical properties :
#
#
# Convention : Reuss Voigt Hill
#
# Bulk Modulus (GPa) = 13.19071 20.10350 16.64711
# Shear Modulus (GPa) = 13.21438 15.49907 14.35673
#
# Velocity S-wave (km/s) = 2.73827 2.96555 2.85417
# Velocity P-wave (km/s) = 4.18117 4.80969 4.50640
#
# Compressibility (1/GPa) = 0.07581091
#
# Stress axis : x y z
#
# Youngs Moduli (GPa) = 26.28872 23.61906 74.97433
#
# Poissons Ratio (x) = -0.00079 0.60428
# Poissons Ratio (y) = -0.00088 0.06943
# Poissons Ratio (z) = 0.21188 0.02187
#
# Static dielectric constant tensor:
#      x y z
#    x 1.583070 0.000000 0.000000 
#    y 0.000000 1.641690 0.000000 
#    z 0.000000 0.000000 1.619210 
# 
# From -- ./inp_files/35240.got.cif
#   From: 2010.05.17/outbox.cif.g08.bks.cpg/sg71_18_cif.got.tgz:35240.got - 2010.06.03 16:22:01.
