data_PCOD9519413
_publ_section_title
;
Structure prediction by ZEFSAII (Michael W. Deem and Ramdas Pophale) SiO2 
 PCOD9519413
Probable space group: I M M M
;
_chemical_formula_sum "Si O2"
_cell_formula_units_Z 88
_cell_length_a 25.869052
_cell_length_b 8.531962
_cell_length_c 25.464807
_cell_angle_alpha 90.000000
_cell_angle_beta 90.000000
_cell_angle_gamma 90.000000
_cell_volume 5620.433521
_symmetry_space_group_name_H-M "I M M M"
_symmetry_group_IT_number 71
_symmetry_cell_setting 'orthorhombic'
loop_
_space_group_symop_operation_xyz
x,y,z
-x,-y,z
x,-y,-z
-x,y,-z
-x,-y,-z
x,y,-z
-x,y,z
x,-y,z
1/2+x,1/2+y,1/2+z
1/2-x,1/2-y,1/2+z
1/2+x,1/2-y,1/2-z
1/2-x,1/2+y,1/2-z
1/2-x,1/2-y,1/2-z
1/2+x,1/2+y,1/2-z
1/2-x,1/2+y,1/2+z
1/2+x,1/2-y,1/2+z
loop_
_atom_site_type_symbol
_atom_site_label
_atom_site_fract_x
_atom_site_fract_y
_atom_site_fract_z
Si Si1 0.204058 0.813536 0.439686
Si Si2 0.440797 0.809284 0.224940
Si Si3 0.900452 0.684682 0.609294
Si Si4 0.754341 0.687113 0.665497
Si Si5 0.331962 0.810566 0.742181
Si Si6 0.500000 0.676288 0.938788
O O1 0.210426 0.754995 0.500000
O O2 0.147571 0.770449 0.417198
O O3 0.240797 0.747544 0.393805
O O4 0.209554 0.000000 0.441106
O O5 0.500000 0.753588 0.233587
O O6 0.419413 0.766675 0.167275
O O7 0.391998 0.760350 0.260734
O O8 0.443285 0.000000 0.226610
O O9 0.888098 0.500000 0.611520
O O10 0.950276 0.724170 0.575693
O O11 0.754735 0.500000 0.664652
O O12 0.703767 0.746865 0.695771
O O13 0.803069 0.736742 0.703005
O O14 0.330874 0.000000 0.741199
O O15 0.500000 0.500000 0.914245
O O16 0.500000 0.654762 0.000000
#
# Coordination Sequence:
#
# PCOD9519413 Si02
#       6
#    16  16  16  16  16   8
#     4  11  23  36  49  68  97 129 161 203 252 296
#     4   9  16  29  49  71  95 123 159 202 242 282
#     4  11  20  33  50  67  88 121 167 209 244 285
#     4  10  19  32  51  73  95 124 163 203 243 293
#     4   9  17  31  50  72  97 125 158 200 248 292
#     4  11  23  35  43  57  85 121 163 209 254 291
#
# _framework density 15.657154999999999
#
# number of rings (size 3 to 8) (size 9 to 14) (size 15 to 20)
#    0.000    1.909    2.727    2.455    0.000    5.091 
#    0.000    0.000    0.000    0.000    0.000    0.000 
#    0.000    0.727    0.000    8.364    0.000    2.364 
#
# Total GULP energy -245122.413524 kJ/mol
# GULP energy per Si atom -5570.963944 kJ/mol
# Density = 1.562152 g / cm^3
# Si number density = 15.657155 Si / 1000 Ang^3
#
#
#
# Elastic Constant Matrix: (Units=GPa)
#
#
# Indices 1 2 3 4 5 6 
#
# 1 123.2555 18.1311 67.9184 0.0000 0.0000 0.0000
# 2 18.1311 17.3467 18.8132 0.0000 0.0000 0.0000
# 3 67.9184 18.8132 91.2983 0.0000 0.0000 0.0000
# 4 0.0000 0.0000 0.0000 17.7165 0.0000 0.0000
# 5 0.0000 0.0000 0.0000 0.0000 12.8678 0.0000
# 6 0.0000 0.0000 0.0000 0.0000 0.0000 26.4592
#
#
#
# Elastic Compliance Matrix: (Units=1/GPa)
#
#
# Indices 1 2 3 4 5 6 
#
# 1 0.013994 -0.004297 -0.009525 0.000000 0.000000 0.000000
# 2 -0.004297 0.075558 -0.012373 0.000000 0.000000 0.000000
# 3 -0.009525 -0.012373 0.020589 0.000000 0.000000 0.000000
# 4 0.000000 0.000000 0.000000 0.056444 0.000000 0.000000
# 5 0.000000 0.000000 0.000000 0.000000 0.077713 0.000000
# 6 0.000000 0.000000 0.000000 0.000000 0.000000 0.037794
#
#
# Mechanical properties :
#
#
# Convention : Reuss Voigt Hill
#
# Bulk Modulus (GPa) = 17.31582 49.06955 33.19269
# Shear Modulus (GPa) = 14.13498 19.87789 17.00644
#
# Velocity S-wave (km/s) = 3.00789 3.56697 3.29929
# Velocity P-wave (km/s) = 4.81109 6.95503 5.97993
#
# Compressibility (1/GPa) = 0.05775066
#
# Stress axis : x y z
#
# Youngs Moduli (GPa) = 71.46013 13.23487 48.57073
#
# Poissons Ratio (x) = 0.05686 0.46263
# Poissons Ratio (y) = 0.30703 0.60099
# Poissons Ratio (z) = 0.68065 0.16376
#
# Static dielectric constant tensor:
#      x y z
#    x 1.556930 0.000000 0.000000 
#    y 0.000000 1.552360 0.000000 
#    z 0.000000 0.000000 1.534630 
# 
# From -- ./inp_files/56141.got.cif
#   From: 2010.05.17/outbox.cif.g08.bks.cpg/sg71_29_cif.got.tgz:56141.got - 2010.06.03 16:22:01.
