data_PCOD9519651
_publ_section_title
;
Structure prediction by ZEFSAII (Michael W. Deem and Ramdas Pophale) SiO2 
 PCOD9519651
Probable space group: I M M M
;
_chemical_formula_sum "Si O2"
_cell_formula_units_Z 88
_cell_length_a 17.589394
_cell_length_b 14.306288
_cell_length_c 21.604560
_cell_angle_alpha 90.000000
_cell_angle_beta 90.000000
_cell_angle_gamma 90.000000
_cell_volume 5436.548498
_symmetry_space_group_name_H-M "I M M M"
_symmetry_group_IT_number 71
_symmetry_cell_setting 'orthorhombic'
loop_
_space_group_symop_operation_xyz
x,y,z
-x,-y,z
x,-y,-z
-x,y,-z
-x,-y,-z
x,y,-z
-x,y,z
x,-y,z
1/2+x,1/2+y,1/2+z
1/2-x,1/2-y,1/2+z
1/2+x,1/2-y,1/2-z
1/2-x,1/2+y,1/2-z
1/2-x,1/2-y,1/2-z
1/2+x,1/2+y,1/2-z
1/2-x,1/2+y,1/2+z
1/2+x,1/2-y,1/2+z
loop_
_atom_site_type_symbol
_atom_site_label
_atom_site_fract_x
_atom_site_fract_y
_atom_site_fract_z
Si Si1 0.237837 0.109095 0.701816
Si Si2 0.000000 0.389541 0.925842
Si Si3 0.788113 0.107444 0.926845
Si Si4 0.663337 0.106640 0.173969
Si Si5 0.868503 0.273480 0.139878
Si Si6 0.415054 0.718103 0.777702
O O1 0.274774 0.118973 0.770509
O O2 0.292128 0.169540 0.657576
O O3 0.152995 0.148979 0.703743
O O4 0.239729 0.000000 0.685642
O O5 0.073297 0.339676 0.896227
O O6 0.000000 0.500000 0.911380
O O7 0.000000 0.378587 0.000000
O O8 0.709382 0.119301 0.889416
O O9 0.846013 0.183070 0.899776
O O10 0.812983 0.000000 0.915006
O O11 0.778428 0.119493 0.000000
O O12 0.600970 0.184888 0.186344
O O13 0.634923 0.000000 0.178031
O O14 0.904595 0.241390 0.205010
O O15 0.500000 0.683443 0.789271
#
# Coordination Sequence:
#
# PCOD9519651 Si02
#       6
#    16   8  16  16  16  16
#     4  10  19  33  54  76 103 141 178 220 270 317
#     4  11  24  38  53  79 113 145 181 225 265 308
#     4  10  19  32  55  81 104 138 179 214 255 315
#     4   9  17  32  51  74 105 134 170 218 267 321
#     4  11  19  37  54  77 109 142 177 217 263 322
#     4  11  20  32  51  78 108 135 175 222 269 315
#
# _framework density 16.186741000000001
#
# number of rings (size 3 to 8) (size 9 to 14) (size 15 to 20)
#    0.000    1.727    4.545    2.182    0.000    1.455 
#    0.000    0.455    0.000    2.182    0.000    2.545 
#    0.000    1.455    0.000    0.000    0.000    0.000 
#
# Total GULP energy -245491.182980 kJ/mol
# GULP energy per Si atom -5579.345068 kJ/mol
# Density = 1.614990 g / cm^3
# Si number density = 16.186741 Si / 1000 Ang^3
#
#
#
# Elastic Constant Matrix: (Units=GPa)
#
#
# Indices 1 2 3 4 5 6 
#
# 1 103.1150 42.9698 36.0222 0.0000 0.0000 0.0000
# 2 42.9698 91.9405 58.1221 0.0000 0.0000 0.0000
# 3 36.0222 58.1221 83.2818 0.0000 0.0000 0.0000
# 4 0.0000 0.0000 0.0000 25.4959 0.0000 0.0000
# 5 0.0000 0.0000 0.0000 0.0000 5.2603 0.0000
# 6 0.0000 0.0000 0.0000 0.0000 0.0000 19.4005
#
#
#
# Elastic Compliance Matrix: (Units=1/GPa)
#
#
# Indices 1 2 3 4 5 6 
#
# 1 0.012293 -0.004266 -0.002340 0.000000 0.000000 0.000000
# 2 -0.004266 0.020944 -0.012772 0.000000 0.000000 0.000000
# 3 -0.002340 -0.012772 0.021933 0.000000 0.000000 0.000000
# 4 0.000000 0.000000 0.000000 0.039222 0.000000 0.000000
# 5 0.000000 0.000000 0.000000 0.000000 0.190102 0.000000
# 6 0.000000 0.000000 0.000000 0.000000 0.000000 0.051545
#
#
# Mechanical properties :
#
#
# Convention : Reuss Voigt Hill
#
# Bulk Modulus (GPa) = 60.92063 61.39618 61.15841
# Shear Modulus (GPa) = 13.14869 19.44624 16.29747
#
# Velocity S-wave (km/s) = 2.85320 3.46984 3.17652
# Velocity P-wave (km/s) = 6.96937 7.35291 7.16371
#
# Compressibility (1/GPa) = 0.01641480
#
# Stress axis : x y z
#
# Youngs Moduli (GPa) = 81.34641 47.74542 45.59376
#
# Poissons Ratio (x) = 0.20369 0.10668
# Poissons Ratio (y) = 0.34704 0.58231
# Poissons Ratio (z) = 0.19033 0.60979
#
# Static dielectric constant tensor:
#      x y z
#    x 1.529730 0.000000 0.000000 
#    y 0.000000 1.553970 0.000000 
#    z 0.000000 0.000000 1.525050 
# 
# From -- ./inp_files/36578.got.cif
#   From: 2010.05.17/outbox.cif.g08.bks.cpg/sg71_19_cif.got.tgz:36578.got - 2010.06.03 16:22:01.
