data_PCOD9519011
_publ_section_title
;
Structure prediction by ZEFSAII (Michael W. Deem and Ramdas Pophale) SiO2 
 PCOD9519011
Probable space group: I M M M
;
_chemical_formula_sum "Si O2"
_cell_formula_units_Z 88
_cell_length_a 8.683308
_cell_length_b 31.163064
_cell_length_c 24.421480
_cell_angle_alpha 90.000000
_cell_angle_beta 90.000000
_cell_angle_gamma 90.000000
_cell_volume 6608.415439
_symmetry_space_group_name_H-M "I M M M"
_symmetry_group_IT_number 71
_symmetry_cell_setting 'orthorhombic'
loop_
_space_group_symop_operation_xyz
x,y,z
-x,-y,z
x,-y,-z
-x,y,-z
-x,-y,-z
x,y,-z
-x,y,z
x,-y,z
1/2+x,1/2+y,1/2+z
1/2-x,1/2-y,1/2+z
1/2+x,1/2-y,1/2-z
1/2-x,1/2+y,1/2-z
1/2-x,1/2-y,1/2-z
1/2+x,1/2+y,1/2-z
1/2-x,1/2+y,1/2+z
1/2+x,1/2-y,1/2+z
loop_
_atom_site_type_symbol
_atom_site_label
_atom_site_fract_x
_atom_site_fract_y
_atom_site_fract_z
Si Si1 0.685028 0.500000 0.064849
Si Si2 0.184279 0.707126 0.721969
Si Si3 0.814928 0.752488 0.385969
Si Si4 0.681738 0.231506 0.500000
Si Si5 0.816425 0.589262 0.104779
Si Si6 0.184369 0.840163 0.680555
Si Si7 0.182846 0.137585 0.500000
O O1 0.500000 0.500000 0.065495
O O2 0.747607 0.542148 0.095087
O O3 0.732428 0.500000 0.000000
O O4 0.250000 0.750000 0.750000
O O5 0.219605 0.715115 0.658126
O O6 0.257849 0.669658 0.758094
O O7 0.000000 0.706000 0.727729
O O8 0.730061 0.746311 0.443289
O O9 0.771976 0.798640 0.357763
O O10 0.000000 0.753869 0.394217
O O11 0.500000 0.222530 0.500000
O O12 0.778303 0.187472 0.500000
O O13 0.755241 0.616622 0.156045
O O14 0.757708 0.616242 0.052775
O O15 0.000000 0.587158 0.105753
O O16 0.000000 0.842297 0.679345
O O17 0.000000 0.130404 0.500000
#
# Coordination Sequence:
#
# PCOD9519011 Si02
#       7
#     8  16  16   8  16  16   8
#     4  11  23  37  51  63  84 112 136 171 222 269
#     4   9  17  29  44  61  81 105 136 172 211 251
#     4   9  18  30  43  58  83 112 137 169 213 254
#     4  12  22  28  41  63  84 110 144 179 212 250
#     4  12  23  34  49  66  82 104 141 180 215 258
#     4  10  19  31  47  63  82 108 136 171 216 257
#     4  12  22  33  45  58  82 110 139 174 219 263
#
# _framework density 13.316355
#
# number of rings (size 3 to 8) (size 9 to 14) (size 15 to 20)
#    0.000    1.545    2.727    5.727    0.000    4.000 
#    0.000    0.000    0.000    0.000    0.000    0.000 
#    0.000    0.000    0.000    0.000    0.000    0.909 
#
# Total GULP energy -245421.636844 kJ/mol
# GULP energy per Si atom -5577.764474 kJ/mol
# Density = 1.328605 g / cm^3
# Si number density = 13.316355 Si / 1000 Ang^3
#
#
#
# Elastic Constant Matrix: (Units=GPa)
#
#
# Indices 1 2 3 4 5 6 
#
# 1 71.8009 31.2063 38.6341 0.0000 0.0000 0.0000
# 2 31.2063 68.6437 48.1598 0.0000 0.0000 0.0000
# 3 38.6341 48.1598 89.7746 0.0000 0.0000 0.0000
# 4 0.0000 0.0000 0.0000 -16.1804 0.0000 0.0000
# 5 0.0000 0.0000 0.0000 0.0000 22.0134 0.0000
# 6 0.0000 0.0000 0.0000 0.0000 0.0000 19.3879
#
#
#
# Elastic Compliance Matrix: (Units=1/GPa)
#
#
# Indices 1 2 3 4 5 6 
#
# 1 0.019008 -0.004654 -0.005684 0.000000 0.000000 0.000000
# 2 -0.004654 0.024499 -0.011140 0.000000 0.000000 0.000000
# 3 -0.005684 -0.011140 0.019561 0.000000 0.000000 0.000000
# 4 0.000000 0.000000 0.000000 -0.061803 0.000000 0.000000
# 5 0.000000 0.000000 0.000000 0.000000 0.045427 0.000000
# 6 0.000000 0.000000 0.000000 0.000000 0.000000 0.051579
#
#
# Mechanical properties :
#
#
# Convention : Reuss Voigt Hill
#
# Bulk Modulus (GPa) = 49.71704 51.80217 50.75960
# Shear Modulus (GPa) = 33.79974 12.52545 23.16259
#
# Velocity S-wave (km/s) = 5.04353 3.07026 4.17515
# Velocity P-wave (km/s) = 8.44587 7.18013 7.83859
#
# Compressibility (1/GPa) = 0.02011383
#
# Stress axis : x y z
#
# Youngs Moduli (GPa) = 52.60879 40.81730 51.12222
#
# Poissons Ratio (x) = 0.18996 0.29055
# Poissons Ratio (y) = 0.24483 0.56950
# Poissons Ratio (z) = 0.29900 0.45471
#
# Static dielectric constant tensor:
#      x y z
#    x 1.440110 0.000000 0.000000 
#    y 0.000000 1.423560 0.000000 
#    z 0.000000 0.000000 1.444720 
# 
# From -- ./inp_files/17215.got.cif
#   From: 2010.05.17/outbox.cif.g08.bks.cpg/sg71_9_cif.got.tgz:17215.got - 2010.06.03 16:22:01.
