data_PCOD9519934
_publ_section_title
;
Structure prediction by ZEFSAII (Michael W. Deem and Ramdas Pophale) SiO2 
 PCOD9519934
Probable space group: I M M M
;
_chemical_formula_sum "Si O2"
_cell_formula_units_Z 88
_cell_length_a 17.914102
_cell_length_b 8.920853
_cell_length_c 29.363100
_cell_angle_alpha 90.000000
_cell_angle_beta 90.000000
_cell_angle_gamma 90.000000
_cell_volume 4692.489720
_symmetry_space_group_name_H-M "I M M M"
_symmetry_group_IT_number 71
_symmetry_cell_setting 'orthorhombic'
loop_
_space_group_symop_operation_xyz
x,y,z
-x,-y,z
x,-y,-z
-x,y,-z
-x,-y,-z
x,y,-z
-x,y,z
x,-y,z
1/2+x,1/2+y,1/2+z
1/2-x,1/2-y,1/2+z
1/2+x,1/2-y,1/2-z
1/2-x,1/2+y,1/2-z
1/2-x,1/2-y,1/2-z
1/2+x,1/2+y,1/2-z
1/2-x,1/2+y,1/2+z
1/2+x,1/2-y,1/2+z
loop_
_atom_site_type_symbol
_atom_site_label
_atom_site_fract_x
_atom_site_fract_y
_atom_site_fract_z
Si Si1 0.299580 0.178145 0.180904
Si Si2 0.913302 0.817461 0.500000
Si Si3 0.185773 0.179544 0.587287
Si Si4 0.836284 0.826019 0.053735
Si Si5 0.000000 0.827933 0.075248
Si Si6 0.000000 0.828329 0.815994
Si Si7 0.349858 0.821803 0.282637
O O1 0.334823 0.253518 0.136433
O O2 0.340899 0.208955 0.228688
O O3 0.217042 0.243136 0.190031
O O4 0.295810 0.000000 0.174266
O O5 0.868001 0.771447 0.545529
O O6 0.000000 0.768628 0.500000
O O7 0.913482 0.000000 0.500000
O O8 0.269701 0.236295 0.577052
O O9 0.184631 0.000000 0.589097
O O10 0.920040 0.763033 0.060670
O O11 0.835814 0.000000 0.070287
O O12 0.821263 0.827033 0.000000
O O13 0.000000 0.831307 0.129486
O O14 0.000000 0.000000 0.057026
O O15 0.072782 0.742907 0.799458
O O16 0.000000 0.000000 0.799618
O O17 0.344515 0.000000 0.289283
#
# Coordination Sequence:
#
# PCOD9519934 Si02
#       7
#    16   8  16  16   8   8  16
#     4  10  21  38  60  85 114 148 190 239 291 349
#     4   9  20  40  61  82 113 148 186 237 293 349
#     4  11  21  36  60  86 114 147 190 238 291 353
#     4  10  19  33  55  80 112 151 193 234 279 329
#     4   9  19  33  50  78 112 152 192 229 266 317
#     4  11  21  34  55  82 118 157 194 235 282 343
#     4  10  21  38  59  83 116 153 193 240 288 340
#
# _framework density 18.753371000000001
#
# number of rings (size 3 to 8) (size 9 to 14) (size 15 to 20)
#    0.000    1.909    0.909    3.273    0.000    4.727 
#    1.636    1.364    0.000    4.909    0.000    0.000 
#    0.000    0.000    0.000    0.000    0.000    0.000 
#
# Total GULP energy -245648.278275 kJ/mol
# GULP energy per Si atom -5582.915415 kJ/mol
# Density = 1.871069 g / cm^3
# Si number density = 18.753371 Si / 1000 Ang^3
#
#
#
# Elastic Constant Matrix: (Units=GPa)
#
#
# Indices 1 2 3 4 5 6 
#
# 1 51.5325 16.8244 33.3259 0.0000 0.0000 0.0000
# 2 16.8244 43.0215 42.9412 0.0000 0.0000 0.0000
# 3 33.3259 42.9412 119.7225 0.0000 0.0000 0.0000
# 4 0.0000 0.0000 0.0000 30.1165 0.0000 0.0000
# 5 0.0000 0.0000 0.0000 0.0000 13.3638 0.0000
# 6 0.0000 0.0000 0.0000 0.0000 0.0000 -11.1898
#
#
#
# Elastic Compliance Matrix: (Units=1/GPa)
#
#
# Indices 1 2 3 4 5 6 
#
# 1 0.024156 -0.004260 -0.005196 0.000000 0.000000 0.000000
# 2 -0.004260 0.036957 -0.012070 0.000000 0.000000 0.000000
# 3 -0.005196 -0.012070 0.014128 0.000000 0.000000 0.000000
# 4 0.000000 0.000000 0.000000 0.033204 0.000000 0.000000
# 5 0.000000 0.000000 0.000000 0.000000 0.074829 0.000000
# 6 0.000000 0.000000 0.000000 0.000000 0.000000 -0.089367
#
#
# Mechanical properties :
#
#
# Convention : Reuss Voigt Hill
#
# Bulk Modulus (GPa) = 31.06596 44.49549 37.78072
# Shear Modulus (GPa) = 33.85462 14.53712 24.19587
#
# Velocity S-wave (km/s) = 4.25344 2.78721 3.59585
# Velocity P-wave (km/s) = 6.38152 5.84262 6.11801
#
# Compressibility (1/GPa) = 0.03218958
#
# Stress axis : x y z
#
# Youngs Moduli (GPa) = 41.39676 27.05815 70.78096
#
# Poissons Ratio (x) = 0.11528 0.36778
# Poissons Ratio (y) = 0.17637 0.85430
# Poissons Ratio (z) = 0.21510 0.32658
#
# Static dielectric constant tensor:
#      x y z
#    x 1.607800 0.000000 0.000000 
#    y 0.000000 1.640190 0.000000 
#    z 0.000000 0.000000 1.656280 
# 
# From -- ./inp_files/70395.got.cif
#   From: 2010.05.17/outbox.cif.g08.bks.cpg/sg71_36_cif.got.tgz:70395.got - 2010.06.03 16:22:01.
