data_PCOD9519170
_publ_section_title
;
Structure prediction by ZEFSAII (Michael W. Deem and Ramdas Pophale) SiO2 
 PCOD9519170
Probable space group: I M M M
;
_chemical_formula_sum "Si O2"
_cell_formula_units_Z 64
_cell_length_a 27.145322
_cell_length_b 7.437641
_cell_length_c 15.176343
_cell_angle_alpha 90.000000
_cell_angle_beta 90.000000
_cell_angle_gamma 90.000000
_cell_volume 3064.060549
_symmetry_space_group_name_H-M "I M M M"
_symmetry_group_IT_number 71
_symmetry_cell_setting 'orthorhombic'
loop_
_space_group_symop_operation_xyz
x,y,z
-x,-y,z
x,-y,-z
-x,y,-z
-x,-y,-z
x,y,-z
-x,y,z
x,-y,z
1/2+x,1/2+y,1/2+z
1/2-x,1/2-y,1/2+z
1/2+x,1/2-y,1/2-z
1/2-x,1/2+y,1/2-z
1/2-x,1/2-y,1/2-z
1/2+x,1/2+y,1/2-z
1/2-x,1/2+y,1/2+z
1/2+x,1/2-y,1/2+z
loop_
_atom_site_type_symbol
_atom_site_label
_atom_site_fract_x
_atom_site_fract_y
_atom_site_fract_z
Si Si1 0.634457 0.284074 0.358718
Si Si2 0.673674 0.779359 0.000000
Si Si3 0.555755 0.719480 0.500000
Si Si4 0.786494 0.780357 0.000000
Si Si5 0.000000 0.719109 0.603736
Si Si6 0.106582 0.712338 0.660570
O O1 0.635183 0.500000 0.362468
O O2 0.586939 0.223756 0.414807
O O3 0.682340 0.223280 0.413776
O O4 0.628514 0.234823 0.257558
O O5 0.643487 0.718494 0.085765
O O6 0.730283 0.720221 0.000000
O O7 0.674891 0.000000 0.000000
O O8 0.554968 0.500000 0.500000
O O9 0.500000 0.782550 0.500000
O O10 0.786310 0.000000 0.000000
O O11 0.050808 0.782957 0.648500
O O12 0.000000 0.500000 0.607848
O O13 0.000000 0.766557 0.500000
O O14 0.102727 0.500000 0.643767
#
# Coordination Sequence:
#
# PCOD9519170 Si02
#       6
#    16   8   8   8   8  16
#     4   9  18  32  50  71  96 125 157 198 241 280
#     4   9  17  31  52  72  92 127 169 196 226 285
#     4   8  15  29  47  65  88 124 164 190 220 280
#     4   8  16  33  52  70  95 127 162 198 234 279
#     4   9  16  30  49  68  95 128 162 197 231 276
#     4  10  19  31  50  74  97 125 161 198 236 282
#
# _framework density 20.887315999999998
#
# number of rings (size 3 to 8) (size 9 to 14) (size 15 to 20)
#    0.000    3.000    1.250    1.500    1.750    1.000 
#    0.000    3.125    0.000    3.000    0.000    0.000 
#    0.000    0.000    0.000    0.000    0.000    0.000 
#
# Total GULP energy -178567.597962 kJ/mol
# GULP energy per Si atom -5580.237436 kJ/mol
# Density = 2.083978 g / cm^3
# Si number density = 20.887316 Si / 1000 Ang^3
#
#
#
# Elastic Constant Matrix: (Units=GPa)
#
#
# Indices 1 2 3 4 5 6 
#
# 1 239.9242 10.9754 126.5526 0.0000 0.0000 0.0000
# 2 10.9754 60.3836 -6.8896 0.0000 0.0000 0.0000
# 3 126.5526 -6.8896 197.2709 0.0000 0.0000 0.0000
# 4 0.0000 0.0000 0.0000 18.3949 0.0000 0.0000
# 5 0.0000 0.0000 0.0000 0.0000 6.7824 0.0000
# 6 0.0000 0.0000 0.0000 0.0000 0.0000 -5.3174
#
#
#
# Elastic Compliance Matrix: (Units=1/GPa)
#
#
# Indices 1 2 3 4 5 6 
#
# 1 0.006460 -0.001654 -0.004202 0.000000 0.000000 0.000000
# 2 -0.001654 0.017050 0.001656 0.000000 0.000000 0.000000
# 3 -0.004202 0.001656 0.007823 0.000000 0.000000 0.000000
# 4 0.000000 0.000000 0.000000 0.054363 0.000000 0.000000
# 5 0.000000 0.000000 0.000000 0.000000 0.147440 0.000000
# 6 0.000000 0.000000 0.000000 0.000000 0.000000 -0.188060
#
#
# Mechanical properties :
#
#
# Convention : Reuss Voigt Hill
#
# Bulk Modulus (GPa) = 43.60253 84.31726 63.95989
# Shear Modulus (GPa) = 81.80709 28.43467 55.12088
#
# Velocity S-wave (km/s) = 6.26506 3.69363 5.14266
# Velocity P-wave (km/s) = 8.55892 7.65806 8.12099
#
# Compressibility (1/GPa) = 0.02293445
#
# Stress axis : x y z
#
# Youngs Moduli (GPa) = 154.79785 58.64986 127.83389
#
# Poissons Ratio (x) = 0.09698 0.53715
# Poissons Ratio (y) = 0.25598 -0.21173
# Poissons Ratio (z) = 0.65046 -0.09714
#
# Static dielectric constant tensor:
#      x y z
#    x 1.732910 0.000000 0.000000 
#    y 0.000000 1.802540 0.000000 
#    z 0.000000 0.000000 1.718500 
# 
# From -- ./inp_files/19815.got.cif
#   From: 2010.05.17/outbox.cif.g08.bks.cpg/sg71_10_cif.got.tgz:19815.got - 2010.06.03 16:22:01.
