data_PCOD9519840
_publ_section_title
;
Structure prediction by ZEFSAII (Michael W. Deem and Ramdas Pophale) SiO2 
 PCOD9519840
Probable space group: I M M M
;
_chemical_formula_sum "Si O2"
_cell_formula_units_Z 80
_cell_length_a 22.825072
_cell_length_b 18.073649
_cell_length_c 11.887390
_cell_angle_alpha 90.000000
_cell_angle_beta 90.000000
_cell_angle_gamma 90.000000
_cell_volume 4903.932810
_symmetry_space_group_name_H-M "I M M M"
_symmetry_group_IT_number 71
_symmetry_cell_setting 'orthorhombic'
loop_
_space_group_symop_operation_xyz
x,y,z
-x,-y,z
x,-y,-z
-x,y,-z
-x,-y,-z
x,y,-z
-x,y,z
x,-y,z
1/2+x,1/2+y,1/2+z
1/2-x,1/2-y,1/2+z
1/2+x,1/2-y,1/2-z
1/2-x,1/2+y,1/2-z
1/2-x,1/2-y,1/2-z
1/2+x,1/2+y,1/2-z
1/2-x,1/2+y,1/2+z
1/2+x,1/2-y,1/2+z
loop_
_atom_site_type_symbol
_atom_site_label
_atom_site_fract_x
_atom_site_fract_y
_atom_site_fract_z
Si Si1 0.428943 0.318692 0.000000
Si Si2 0.068460 0.293230 0.866415
Si Si3 0.070030 0.646827 0.500000
Si Si4 0.874306 0.582642 0.275241
Si Si5 0.771716 0.500000 0.634801
Si Si6 0.929975 0.864256 0.746347
Si Si7 0.633217 0.500000 0.634064
O O1 0.411307 0.357472 0.884049
O O2 0.500000 0.317586 0.000000
O O3 0.410457 0.232746 0.000000
O O4 0.109968 0.356479 0.816446
O O5 0.079478 0.215374 0.804654
O O6 0.000000 0.312869 0.843055
O O7 0.075184 0.284901 0.000000
O O8 0.093407 0.607055 0.610897
O O9 0.000000 0.645860 0.500000
O O10 0.894594 0.500000 0.240912
O O11 0.806415 0.569182 0.309641
O O12 0.782344 0.500000 0.500000
O O13 0.702946 0.500000 0.654272
O O14 0.000000 0.878967 0.750363
O O15 0.896059 0.928064 0.811001
O O16 0.623321 0.500000 0.500000
#
# Coordination Sequence:
#
# PCOD9519840 Si02
#       7
#     8  16   8  16   8  16   8
#     4   9  18  32  56  86 117 139 161 215 281 326
#     4  10  20  33  52  81 118 149 175 214 271 331
#     4  11  17  28  54  88 112 137 175 220 274 321
#     4  10  19  33  53  77 111 147 182 226 260 312
#     4   9  20  39  54  77 104 144 188 233 268 296
#     4  10  20  36  59  87 112 136 172 223 276 328
#     4  11  23  39  61  78 105 144 184 222 268 327
#
# _framework density 16.313435999999999
#
# number of rings (size 3 to 8) (size 9 to 14) (size 15 to 20)
#    0.600    1.400    3.000    1.800    0.000    4.400 
#    0.000    3.500    4.400    0.000    0.000    0.000 
#    0.000    0.000    0.000    0.000    0.000    0.000 
#
# Total GULP energy -222916.926534 kJ/mol
# GULP energy per Si atom -5572.923163 kJ/mol
# Density = 1.627631 g / cm^3
# Si number density = 16.313436 Si / 1000 Ang^3
#
#
#
# Elastic Constant Matrix: (Units=GPa)
#
#
# Indices 1 2 3 4 5 6 
#
# 1 78.3503 64.5922 58.3005 0.0000 0.0000 0.0000
# 2 64.5922 108.4610 68.4577 0.0000 0.0000 0.0000
# 3 58.3005 68.4577 121.2277 0.0000 0.0000 0.0000
# 4 0.0000 0.0000 0.0000 8.8403 0.0000 0.0000
# 5 0.0000 0.0000 0.0000 0.0000 22.3263 0.0000
# 6 0.0000 0.0000 0.0000 0.0000 0.0000 -13.0517
#
#
#
# Elastic Compliance Matrix: (Units=1/GPa)
#
#
# Indices 1 2 3 4 5 6 
#
# 1 0.027821 -0.012623 -0.006252 0.000000 0.000000 0.000000
# 2 -0.012623 0.020053 -0.005254 0.000000 0.000000 0.000000
# 3 -0.006252 -0.005254 0.014222 0.000000 0.000000 0.000000
# 4 0.000000 0.000000 0.000000 0.113118 0.000000 0.000000
# 5 0.000000 0.000000 0.000000 0.000000 0.044790 0.000000
# 6 0.000000 0.000000 0.000000 0.000000 0.000000 -0.076619
#
#
# Mechanical properties :
#
#
# Convention : Reuss Voigt Hill
#
# Bulk Modulus (GPa) = 72.25069 76.74889 74.49979
# Shear Modulus (GPa) = 25.47702 11.40222 18.43962
#
# Velocity S-wave (km/s) = 3.95615 2.64663 3.36569
# Velocity P-wave (km/s) = 8.07795 7.51586 7.80197
#
# Compressibility (1/GPa) = 0.01384070
#
# Stress axis : x y z
#
# Youngs Moduli (GPa) = 35.94390 49.86790 70.31266
#
# Poissons Ratio (x) = 0.62946 0.43957
# Poissons Ratio (y) = 0.45370 0.36939
# Poissons Ratio (z) = 0.22471 0.26198
#
# Static dielectric constant tensor:
#      x y z
#    x 1.529220 0.000000 0.000000 
#    y 0.000000 1.535540 0.000000 
#    z 0.000000 0.000000 1.544820 
# 
# From -- ./inp_files/25595.got.cif
#   From: 2010.05.17/outbox.cif.g08.bks.cpg/sg71_13_cif.got.tgz:25595.got - 2010.06.03 16:22:01.
