data_PCOD9519727
_publ_section_title
;
Structure prediction by ZEFSAII (Michael W. Deem and Ramdas Pophale) SiO2 
 PCOD9519727
Probable space group: I M M M
;
_chemical_formula_sum "Si O2"
_cell_formula_units_Z 120
_cell_length_a 18.445051
_cell_length_b 18.892424
_cell_length_c 22.318262
_cell_angle_alpha 90.000000
_cell_angle_beta 90.000000
_cell_angle_gamma 90.000000
_cell_volume 7777.283240
_symmetry_space_group_name_H-M "I M M M"
_symmetry_group_IT_number 71
_symmetry_cell_setting 'orthorhombic'
loop_
_space_group_symop_operation_xyz
x,y,z
-x,-y,z
x,-y,-z
-x,y,-z
-x,-y,-z
x,y,-z
-x,y,z
x,-y,z
1/2+x,1/2+y,1/2+z
1/2-x,1/2-y,1/2+z
1/2+x,1/2-y,1/2-z
1/2-x,1/2+y,1/2-z
1/2-x,1/2-y,1/2-z
1/2+x,1/2+y,1/2-z
1/2-x,1/2+y,1/2+z
1/2+x,1/2-y,1/2+z
loop_
_atom_site_type_symbol
_atom_site_label
_atom_site_fract_x
_atom_site_fract_y
_atom_site_fract_z
Si Si1 0.085095 0.583105 0.726834
Si Si2 0.791131 0.840212 0.305893
Si Si3 0.085006 0.084179 0.238845
Si Si4 0.207570 0.321839 0.678609
Si Si5 0.343865 0.083160 0.641863
Si Si6 0.413595 0.795151 0.429742
Si Si7 0.148143 0.152839 0.118463
Si Si8 0.083831 0.915383 0.000000
O O1 0.095936 0.500000 0.712234
O O2 0.135144 0.632482 0.685669
O O3 0.112050 0.592188 0.795516
O O4 0.000000 0.599529 0.722653
O O5 0.864207 0.881417 0.289337
O O6 0.805825 0.761532 0.330063
O O7 0.749144 0.830405 0.242403
O O8 0.736023 0.884797 0.346587
O O9 0.108114 0.119072 0.175702
O O10 0.000000 0.096288 0.249273
O O11 0.098114 0.000000 0.235535
O O12 0.266009 0.349300 0.630688
O O13 0.383792 0.129715 0.592159
O O14 0.341079 0.000000 0.628407
O O15 0.397950 0.783024 0.500000
O O16 0.500000 0.791269 0.421516
O O17 0.375941 0.734210 0.390288
O O18 0.122764 0.112846 0.059157
O O19 0.000000 0.889913 0.000000
O O20 0.083285 0.000000 0.000000
#
# Coordination Sequence:
#
# PCOD9519727 Si02
#       8
#    16  16  16  16  16  16  16   8
#     4   9  18  31  48  73 102 129 158 195 240 288
#     4   9  17  31  46  69  94 125 159 200 236 286
#     4  10  20  31  46  70  99 130 160 194 241 290
#     4   9  18  30  48  69  94 123 164 196 237 286
#     4  10  19  33  51  69  94 130 164 198 240 286
#     4  11  22  34  49  69  95 129 165 204 244 278
#     4  11  20  34  49  67  97 130 166 203 237 284
#     4  11  22  34  50  72  98 130 170 207 238 278
#
# _framework density 15.429553
#
# number of rings (size 3 to 8) (size 9 to 14) (size 15 to 20)
#    0.000    2.067    2.000    2.400    1.867    6.400 
#    0.000    0.667    0.000    0.000    0.000    0.467 
#    0.000    3.200    0.000    2.800    0.000    0.000 
#
# Total GULP energy -334675.829176 kJ/mol
# GULP energy per Si atom -5577.930486 kJ/mol
# Density = 1.539443 g / cm^3
# Si number density = 15.429553 Si / 1000 Ang^3
#
#
#
# Elastic Constant Matrix: (Units=GPa)
#
#
# Indices 1 2 3 4 5 6 
#
# 1 118.0250 61.6960 30.3338 0.0000 0.0000 0.0000
# 2 61.6960 90.5040 13.4706 0.0000 0.0000 0.0000
# 3 30.3338 13.4706 25.9874 0.0000 0.0000 0.0000
# 4 0.0000 0.0000 0.0000 20.8349 0.0000 0.0000
# 5 0.0000 0.0000 0.0000 0.0000 23.8578 0.0000
# 6 0.0000 0.0000 0.0000 0.0000 0.0000 30.1930
#
#
#
# Elastic Compliance Matrix: (Units=1/GPa)
#
#
# Indices 1 2 3 4 5 6 
#
# 1 0.017448 -0.009604 -0.015388 0.000000 0.000000 0.000000
# 2 -0.009604 0.017259 0.002264 0.000000 0.000000 0.000000
# 3 -0.015388 0.002264 0.055268 0.000000 0.000000 0.000000
# 4 0.000000 0.000000 0.000000 0.047996 0.000000 0.000000
# 5 0.000000 0.000000 0.000000 0.000000 0.041915 0.000000
# 6 0.000000 0.000000 0.000000 0.000000 0.000000 0.033120
#
#
# Mechanical properties :
#
#
# Convention : Reuss Voigt Hill
#
# Bulk Modulus (GPa) = 22.46211 49.50191 35.98201
# Shear Modulus (GPa) = 18.29471 23.57820 20.93645
#
# Velocity S-wave (km/s) = 3.44712 3.91336 3.68762
# Velocity P-wave (km/s) = 5.51661 7.25061 6.44222
#
# Compressibility (1/GPa) = 0.04451943
#
# Stress axis : x y z
#
# Youngs Moduli (GPa) = 57.31340 57.94031 18.09352
#
# Poissons Ratio (x) = 0.55645 0.27842
# Poissons Ratio (y) = 0.55043 -0.04096
# Poissons Ratio (z) = 0.88194 -0.13116
#
# Static dielectric constant tensor:
#      x y z
#    x 1.503700 0.000000 0.000000 
#    y 0.000000 1.529800 0.000000 
#    z 0.000000 0.000000 1.492900 
# 
# From -- ./inp_files/54320.got.cif
#   From: 2010.05.17/outbox.cif.g08.bks.cpg/sg71_28_cif.got.tgz:54320.got - 2010.06.03 16:22:01.
