data_PCOD9519819
_publ_section_title
;
Structure prediction by ZEFSAII (Michael W. Deem and Ramdas Pophale) SiO2 
 PCOD9519819
Probable space group: I M M M
;
_chemical_formula_sum "Si O2"
_cell_formula_units_Z 80
_cell_length_a 8.761631
_cell_length_b 18.593300
_cell_length_c 28.269516
_cell_angle_alpha 90.000000
_cell_angle_beta 90.000000
_cell_angle_gamma 90.000000
_cell_volume 4605.319957
_symmetry_space_group_name_H-M "I M M M"
_symmetry_group_IT_number 71
_symmetry_cell_setting 'orthorhombic'
loop_
_space_group_symop_operation_xyz
x,y,z
-x,-y,z
x,-y,-z
-x,y,-z
-x,-y,-z
x,y,-z
-x,y,z
x,-y,z
1/2+x,1/2+y,1/2+z
1/2-x,1/2-y,1/2+z
1/2+x,1/2-y,1/2-z
1/2-x,1/2+y,1/2-z
1/2-x,1/2-y,1/2-z
1/2+x,1/2+y,1/2-z
1/2-x,1/2+y,1/2+z
1/2+x,1/2-y,1/2+z
loop_
_atom_site_type_symbol
_atom_site_label
_atom_site_fract_x
_atom_site_fract_y
_atom_site_fract_z
Si Si1 0.316262 0.223262 0.052163
Si Si2 0.316629 0.293623 0.149710
Si Si3 0.817368 0.918732 0.905930
Si Si4 0.817141 0.583665 0.789787
Si Si5 0.681978 0.652385 0.695004
O O1 0.500000 0.223291 0.052609
O O2 0.266675 0.271996 0.096538
O O3 0.259996 0.142635 0.062901
O O4 0.264051 0.246282 0.000000
O O5 0.500000 0.295175 0.151734
O O6 0.249050 0.367901 0.168154
O O7 0.256224 0.229381 0.183292
O O8 0.789067 0.897121 0.851193
O O9 0.000000 0.915648 0.913119
O O10 0.765439 0.000000 0.915337
O O11 0.774356 0.500000 0.793807
O O12 0.751271 0.616361 0.741275
O O13 0.000000 0.589094 0.789091
O O14 0.500000 0.660832 0.700403
#
# Coordination Sequence:
#
# PCOD9519819 Si02
#       5
#    16  16  16  16  16
#     4   9  19  35  53  73  96 125 164 208 252 296
#     4  10  20  35  55  76 100 131 167 206 247 294
#     4   9  18  31  47  71 103 136 169 204 240 282
#     4  11  23  36  51  74 104 134 165 204 248 294
#     4  10  19  33  53  75 103 138 173 204 238 286
#
# _framework density 17.371213999999998
#
# number of rings (size 3 to 8) (size 9 to 14) (size 15 to 20)
#    0.000    2.200    0.000    3.000    0.000    5.200 
#    0.000    2.000    0.000    0.600    0.000    4.200 
#    0.000    0.000    0.000    0.000    0.000    0.000 
#
# Total GULP energy -223313.662297 kJ/mol
# GULP energy per Si atom -5582.841557 kJ/mol
# Density = 1.733168 g / cm^3
# Si number density = 17.371214 Si / 1000 Ang^3
#
#
#
# Elastic Constant Matrix: (Units=GPa)
#
#
# Indices 1 2 3 4 5 6 
#
# 1 37.1548 40.7319 35.7186 0.0000 0.0000 0.0000
# 2 40.7319 120.5430 81.2951 0.0000 0.0000 0.0000
# 3 35.7186 81.2951 122.9365 0.0000 0.0000 0.0000
# 4 0.0000 0.0000 0.0000 5.8016 0.0000 0.0000
# 5 0.0000 0.0000 0.0000 0.0000 21.3039 0.0000
# 6 0.0000 0.0000 0.0000 0.0000 0.0000 26.6434
#
#
#
# Elastic Compliance Matrix: (Units=1/GPa)
#
#
# Indices 1 2 3 4 5 6 
#
# 1 0.044658 -0.011443 -0.005408 0.000000 0.000000 0.000000
# 2 -0.011443 0.017905 -0.008516 0.000000 0.000000 0.000000
# 3 -0.005408 -0.008516 0.015337 0.000000 0.000000 0.000000
# 4 0.000000 0.000000 0.000000 0.172366 0.000000 0.000000
# 5 0.000000 0.000000 0.000000 0.000000 0.046940 0.000000
# 6 0.000000 0.000000 0.000000 0.000000 0.000000 0.037533
#
#
# Mechanical properties :
#
#
# Convention : Reuss Voigt Hill
#
# Bulk Modulus (GPa) = 36.80980 66.23618 51.52299
# Shear Modulus (GPa) = 12.67335 18.94235 15.80785
#
# Velocity S-wave (km/s) = 2.70397 3.30577 3.01990
# Velocity P-wave (km/s) = 5.56639 7.26522 6.47179
#
# Compressibility (1/GPa) = 0.02716668
#
# Stress axis : x y z
#
# Youngs Moduli (GPa) = 22.39237 55.84879 65.20161
#
# Poissons Ratio (x) = 0.63906 0.35264
# Poissons Ratio (y) = 0.25623 0.55525
# Poissons Ratio (z) = 0.12111 0.47560
#
# Static dielectric constant tensor:
#      x y z
#    x 1.582730 0.000000 0.000000 
#    y 0.000000 1.567880 0.000000 
#    z 0.000000 0.000000 1.602540 
# 
# From -- ./inp_files/8291.got.cif
#   From: 2010.05.17/outbox.cif.g08.bks.cpg/sg71_5_cif.got.tgz:8291.got - 2010.06.03 16:22:01.
