data_PCOD9519638
_publ_section_title
;
Structure prediction by ZEFSAII (Michael W. Deem and Ramdas Pophale) SiO2 
 PCOD9519638
Probable space group: I M M M
;
_chemical_formula_sum "Si O2"
_cell_formula_units_Z 90
_cell_length_a 26.838067
_cell_length_b 7.578044
_cell_length_c 20.379309
_cell_angle_alpha 90.000000
_cell_angle_beta 90.000000
_cell_angle_gamma 90.000000
_cell_volume 4144.744936
_symmetry_space_group_name_H-M "I M M M"
_symmetry_group_IT_number 71
_symmetry_cell_setting 'orthorhombic'
loop_
_space_group_symop_operation_xyz
x,y,z
-x,-y,z
x,-y,-z
-x,y,-z
-x,-y,-z
x,y,-z
-x,y,z
x,-y,z
1/2+x,1/2+y,1/2+z
1/2-x,1/2-y,1/2+z
1/2+x,1/2-y,1/2-z
1/2-x,1/2+y,1/2-z
1/2-x,1/2-y,1/2-z
1/2+x,1/2+y,1/2-z
1/2-x,1/2+y,1/2+z
1/2+x,1/2-y,1/2+z
loop_
_atom_site_type_symbol
_atom_site_label
_atom_site_fract_x
_atom_site_fract_y
_atom_site_fract_z
Si Si1 0.649927 0.207756 0.228723
Si Si2 0.000000 0.500000 0.000000
Si Si3 0.147328 0.704287 0.128759
Si Si4 0.763114 0.714096 0.634999
Si Si5 0.553695 0.286122 0.144364
Si Si6 0.316811 0.212673 0.000000
Si Si7 0.586974 0.303800 0.500000
Si Si8 0.929934 0.797869 0.500000
O O1 0.634624 0.282922 0.299536
O O2 0.700175 0.277420 0.193504
O O3 0.602955 0.224329 0.180878
O O4 0.659590 0.000000 0.239265
O O5 0.044390 0.655029 0.000000
O O6 0.131586 0.500000 0.126409
O O7 0.207287 0.715911 0.131216
O O8 0.122184 0.786963 0.064736
O O9 0.760479 0.500000 0.638872
O O10 0.788693 0.761639 0.566230
O O11 0.500000 0.236391 0.174201
O O12 0.556204 0.500000 0.142962
O O13 0.554548 0.219577 0.069407
O O14 0.370662 0.295637 0.000000
O O15 0.322530 0.000000 0.000000
O O16 0.565060 0.500000 0.500000
O O17 0.947288 0.000000 0.500000
#
# Coordination Sequence:
#
# PCOD9519638 Si02
#       8
#    16   2  16  16  16   8   8   8
#     4  10  22  39  60  89 130 171 215 272 337 403
#     4  12  26  56  84 114 144 168 226 294 354 426
#     4  11  23  42  66  98 135 172 217 277 335 410
#     4  10  20  35  58  92 131 176 221 267 333 403
#     4  10  21  37  56  82 117 160 215 271 319 382
#     4  10  19  32  54  82 119 159 203 256 301 368
#     4  12  26  50  81 109 140 180 227 284 353 423
#     4  10  19  33  55  78 111 155 204 257 310 360
#
# _framework density 21.714243
#
# number of rings (size 3 to 8) (size 9 to 14) (size 15 to 20)
#    0.000    1.600    2.667    2.000    0.000    4.978 
#    1.600    0.000    0.000    1.600    0.000    0.000 
#    0.000    0.000    0.000    0.000    0.000    0.000 
#
# Total GULP energy -251050.098576 kJ/mol
# GULP energy per Si atom -5578.891079 kJ/mol
# Density = 2.166482 g / cm^3
# Si number density = 21.714243 Si / 1000 Ang^3
#
#
#
# Elastic Constant Matrix: (Units=GPa)
#
#
# Indices 1 2 3 4 5 6 
#
# 1 134.2764 10.6426 58.8141 0.0000 0.0000 0.0000
# 2 10.6426 79.3141 23.8110 0.0000 0.0000 0.0000
# 3 58.8141 23.8110 155.9742 0.0000 0.0000 0.0000
# 4 0.0000 0.0000 0.0000 9.9152 0.0000 0.0000
# 5 0.0000 0.0000 0.0000 0.0000 16.4869 0.0000
# 6 0.0000 0.0000 0.0000 0.0000 0.0000 -12.7418
#
#
#
# Elastic Compliance Matrix: (Units=1/GPa)
#
#
# Indices 1 2 3 4 5 6 
#
# 1 0.008924 -0.000196 -0.003335 0.000000 0.000000 0.000000
# 2 -0.000196 0.013218 -0.001944 0.000000 0.000000 0.000000
# 3 -0.003335 -0.001944 0.007966 0.000000 0.000000 0.000000
# 4 0.000000 0.000000 0.000000 0.100855 0.000000 0.000000
# 5 0.000000 0.000000 0.000000 0.000000 0.060654 0.000000
# 6 0.000000 0.000000 0.000000 0.000000 0.000000 -0.078482
#
#
# Mechanical properties :
#
#
# Convention : Reuss Voigt Hill
#
# Bulk Modulus (GPa) = 52.19978 61.78891 56.99434
# Shear Modulus (GPa) = 38.32278 21.15186 29.73732
#
# Velocity S-wave (km/s) = 4.20559 3.12444 3.70467
# Velocity P-wave (km/s) = 6.90466 6.44465 6.67861
#
# Compressibility (1/GPa) = 0.01915717
#
# Stress axis : x y z
#
# Youngs Moduli (GPa) = 112.06245 75.65443 125.54003
#
# Poissons Ratio (x) = 0.01484 0.41867
# Poissons Ratio (y) = 0.02199 0.24403
# Poissons Ratio (z) = 0.37372 0.14706
#
# Static dielectric constant tensor:
#      x y z
#    x 1.757280 0.000000 0.000000 
#    y 0.000000 1.805220 0.000000 
#    z 0.000000 0.000000 1.823300 
# 
# From -- ./inp_files/12658.got.cif
#   From: 2010.05.17/outbox.cif.g08.bks.cpg/sg71_7_cif.got.tgz:12658.got - 2010.06.03 16:22:01.
