data_PCOD9519142
_publ_section_title
;
Structure prediction by ZEFSAII (Michael W. Deem and Ramdas Pophale) SiO2 
 PCOD9519142
Probable space group: I M M M
;
_chemical_formula_sum "Si O2"
_cell_formula_units_Z 112
_cell_length_a 15.480006
_cell_length_b 25.957539
_cell_length_c 15.690603
_cell_angle_alpha 90.000000
_cell_angle_beta 90.000000
_cell_angle_gamma 90.000000
_cell_volume 6304.842964
_symmetry_space_group_name_H-M "I M M M"
_symmetry_group_IT_number 71
_symmetry_cell_setting 'orthorhombic'
loop_
_space_group_symop_operation_xyz
x,y,z
-x,-y,z
x,-y,-z
-x,y,-z
-x,-y,-z
x,y,-z
-x,y,z
x,-y,z
1/2+x,1/2+y,1/2+z
1/2-x,1/2-y,1/2+z
1/2+x,1/2-y,1/2-z
1/2-x,1/2+y,1/2-z
1/2-x,1/2-y,1/2-z
1/2+x,1/2+y,1/2-z
1/2-x,1/2+y,1/2+z
1/2+x,1/2-y,1/2+z
loop_
_atom_site_type_symbol
_atom_site_label
_atom_site_fract_x
_atom_site_fract_y
_atom_site_fract_z
Si Si1 0.897237 0.558612 0.219314
Si Si2 0.281267 0.252091 0.407103
Si Si3 0.596612 0.201631 0.122762
Si Si4 0.594871 0.725807 0.738302
Si Si5 0.403525 0.350463 0.098691
Si Si6 0.399083 0.079877 0.907422
Si Si7 0.283506 0.871775 0.402234
O O1 0.888648 0.500000 0.187437
O O2 0.865002 0.559878 0.317568
O O3 0.843817 0.598269 0.162678
O O4 0.000000 0.571648 0.219899
O O5 0.320548 0.262851 0.500000
O O6 0.182674 0.271135 0.409944
O O7 0.330370 0.279860 0.330047
O O8 0.285955 0.190532 0.392939
O O9 0.500000 0.219189 0.094320
O O10 0.598290 0.216522 0.222614
O O11 0.602602 0.141838 0.101425
O O12 0.500000 0.717529 0.700043
O O13 0.600661 0.689876 0.822506
O O14 0.500000 0.373594 0.103721
O O15 0.318314 0.384947 0.109019
O O16 0.396452 0.329774 0.000000
O O17 0.500000 0.064285 0.909868
O O18 0.361070 0.065650 0.000000
O O19 0.308347 0.883304 0.500000
#
# Coordination Sequence:
#
# PCOD9519142 Si02
#       7
#    16  16  16  16  16  16  16
#     4  10  22  39  57  77 102 135 175 219 268 317
#     4  11  22  32  47  74 108 146 178 209 254 306
#     4  10  19  31  49  75 108 144 180 213 249 299
#     4  10  20  32  47  67  98 142 182 214 245 290
#     4   9  18  33  53  76 100 129 167 210 256 304
#     4   9  18  31  49  76 107 138 171 208 251 301
#     4  10  21  35  53  76 101 134 177 220 260 307
#
# _framework density 17.764122
#
# number of rings (size 3 to 8) (size 9 to 14) (size 15 to 20)
#    0.000    2.143    1.429    1.714    2.000    4.286 
#    0.000    6.429    0.000    0.429    0.000    2.000 
#    0.000    0.000    0.000    1.286    0.000    0.143 
#
# Total GULP energy -311758.839577 kJ/mol
# GULP energy per Si atom -5567.122135 kJ/mol
# Density = 1.772369 g / cm^3
# Si number density = 17.764122 Si / 1000 Ang^3
#
#
#
# Elastic Constant Matrix: (Units=GPa)
#
#
# Indices 1 2 3 4 5 6 
#
# 1 97.8097 32.1994 65.4396 0.0000 0.0000 0.0000
# 2 32.1994 56.9720 34.8284 0.0000 0.0000 0.0000
# 3 65.4396 34.8284 109.2822 0.0000 -0.0001 0.0000
# 4 0.0000 0.0000 0.0000 -13.0191 0.0000 0.0000
# 5 0.0000 0.0000 -0.0001 0.0000 2.4670 0.0000
# 6 0.0000 0.0000 0.0000 0.0000 0.0000 13.0024
#
#
#
# Elastic Compliance Matrix: (Units=1/GPa)
#
#
# Indices 1 2 3 4 5 6 
#
# 1 0.017915 -0.004430 -0.009316 0.000000 0.000000 0.000000
# 2 -0.004430 0.022895 -0.004644 0.000000 0.000000 0.000000
# 3 -0.009316 -0.004644 0.016209 0.000000 0.000000 0.000000
# 4 0.000000 0.000000 0.000000 -0.076810 0.000000 0.000000
# 5 0.000000 0.000000 0.000000 0.000000 0.405348 0.000000
# 6 0.000000 0.000000 0.000000 0.000000 0.000000 0.076909
#
#
# Mechanical properties :
#
#
# Convention : Reuss Voigt Hill
#
# Bulk Modulus (GPa) = 49.40830 58.77764 54.09297
# Shear Modulus (GPa) = 9.88155 9.26317 9.57236
#
# Velocity S-wave (km/s) = 2.36108 2.28601 2.32385
# Velocity P-wave (km/s) = 5.94196 6.33463 6.14143
#
# Compressibility (1/GPa) = 0.02023951
#
# Stress axis : x y z
#
# Youngs Moduli (GPa) = 55.81852 43.67717 61.69369
#
# Poissons Ratio (x) = 0.19350 0.57473
# Poissons Ratio (y) = 0.24729 0.28650
# Poissons Ratio (z) = 0.52000 0.20283
#
# Static dielectric constant tensor:
#      x y z
#    x 1.621070 0.000000 0.000000 
#    y 0.000000 1.624190 0.000000 
#    z 0.000000 0.000000 1.649320 
# 
# From -- ./inp_files/35129.got.cif
#   From: 2010.05.17/outbox.cif.g08.bks.cpg/sg71_18_cif.got.tgz:35129.got - 2010.06.03 16:22:01.
