data_PCOD9519645
_publ_section_title
;
Structure prediction by ZEFSAII (Michael W. Deem and Ramdas Pophale) SiO2 
 PCOD9519645
Probable space group: I M M M
;
_chemical_formula_sum "Si O2"
_cell_formula_units_Z 72
_cell_length_a 23.413753
_cell_length_b 10.499600
_cell_length_c 14.712900
_cell_angle_alpha 90.000000
_cell_angle_beta 90.000000
_cell_angle_gamma 90.000000
_cell_volume 3616.946375
_symmetry_space_group_name_H-M "I M M M"
_symmetry_group_IT_number 71
_symmetry_cell_setting 'orthorhombic'
loop_
_space_group_symop_operation_xyz
x,y,z
-x,-y,z
x,-y,-z
-x,y,-z
-x,-y,-z
x,y,-z
-x,y,z
x,-y,z
1/2+x,1/2+y,1/2+z
1/2-x,1/2-y,1/2+z
1/2+x,1/2-y,1/2-z
1/2-x,1/2+y,1/2-z
1/2-x,1/2-y,1/2-z
1/2+x,1/2+y,1/2-z
1/2-x,1/2+y,1/2+z
1/2+x,1/2-y,1/2+z
loop_
_atom_site_type_symbol
_atom_site_label
_atom_site_fract_x
_atom_site_fract_y
_atom_site_fract_z
Si Si1 0.566188 0.000000 0.331272
Si Si2 0.743813 0.500000 0.104587
Si Si3 0.433733 0.647994 0.797276
Si Si4 0.068120 0.220235 0.901739
Si Si5 0.828895 0.741644 0.394242
Si Si6 0.676922 0.000000 0.223929
O O1 0.575287 0.128287 0.388740
O O2 0.609493 0.000000 0.247345
O O3 0.500000 0.000000 0.302144
O O4 0.706267 0.372586 0.118009
O O5 0.793109 0.500000 0.178572
O O6 0.764341 0.500000 0.000000
O O7 0.500000 0.690230 0.798563
O O8 0.432089 0.500000 0.823081
O O9 0.411472 0.660759 0.693033
O O10 0.393129 0.726770 0.862477
O O11 0.000000 0.193074 0.904298
O O12 0.092017 0.179857 0.000000
O O13 0.826719 0.706848 0.500000
O O14 0.807577 0.625911 0.332287
#
# Coordination Sequence:
#
# PCOD9519645 Si02
#       6
#     8   8  16  16  16   8
#     4  10  19  32  54  84 119 154 187 230 291 361
#     4  10  24  45  68  89 115 154 207 254 297 362
#     4  10  20  35  58  88 121 163 208 245 292 359
#     4   9  17  30  49  76 115 158 195 236 289 349
#     4  11  23  42  64  90 122 159 201 251 303 353
#     4  12  23  40  66  92 122 157 196 248 306 360
#
# _framework density 19.906295
#
# number of rings (size 3 to 8) (size 9 to 14) (size 15 to 20)
#    0.000    1.778    3.333    1.333    0.000    3.111 
#    0.000    3.333    0.000    3.333    0.000    0.000 
#    0.000    0.000    0.000    0.000    0.000    0.000 
#
# Total GULP energy -200939.666345 kJ/mol
# GULP energy per Si atom -5581.657398 kJ/mol
# Density = 1.986099 g / cm^3
# Si number density = 19.906295 Si / 1000 Ang^3
#
#
#
# Elastic Constant Matrix: (Units=GPa)
#
#
# Indices 1 2 3 4 5 6 
#
# 1 44.3569 29.3874 44.6072 0.0000 0.0000 0.0000
# 2 29.3874 91.3841 47.2041 0.0000 0.0000 0.0000
# 3 44.6072 47.2041 105.7211 0.0000 0.0000 0.0000
# 4 0.0000 0.0000 0.0000 -3.6729 0.0000 0.0000
# 5 0.0000 0.0000 0.0000 0.0000 26.8644 0.0000
# 6 0.0000 0.0000 0.0000 0.0000 0.0000 9.3641
#
#
#
# Elastic Compliance Matrix: (Units=1/GPa)
#
#
# Indices 1 2 3 4 5 6 
#
# 1 0.041220 -0.005552 -0.014913 0.000000 0.000000 0.000000
# 2 -0.005552 0.014971 -0.004342 0.000000 0.000000 0.000000
# 3 -0.014913 -0.004342 0.017690 0.000000 0.000000 0.000000
# 4 0.000000 0.000000 0.000000 -0.272266 0.000000 0.000000
# 5 0.000000 0.000000 0.000000 0.000000 0.037224 0.000000
# 6 0.000000 0.000000 0.000000 0.000000 0.000000 0.106791
#
#
# Mechanical properties :
#
#
# Convention : Reuss Voigt Hill
#
# Bulk Modulus (GPa) = 41.20892 53.76216 47.48554
# Shear Modulus (GPa) = 1500.41680 14.52868 757.47274
#
# Velocity S-wave (km/s) = 27.48411 2.70451 19.52806
# Velocity P-wave (km/s) = 32.06111 6.06785 23.07307
#
# Compressibility (1/GPa) = 0.02426659
#
# Stress axis : x y z
#
# Youngs Moduli (GPa) = 24.26003 66.79527 56.52995
#
# Poissons Ratio (x) = 0.37087 0.84303
# Poissons Ratio (y) = 0.13470 0.24544
# Poissons Ratio (z) = 0.36179 0.29001
#
# Static dielectric constant tensor:
#      x y z
#    x 1.699160 0.000000 0.000000 
#    y 0.000000 1.709490 0.000000 
#    z 0.000000 0.000000 1.707570 
# 
# From -- ./inp_files/29645.got.cif
#   From: 2010.05.17/outbox.cif.g08.bks.cpg/sg71_15_cif.got.tgz:29645.got - 2010.06.03 16:22:01.
