data_PCOD9519406
_publ_section_title
;
Structure prediction by ZEFSAII (Michael W. Deem and Ramdas Pophale) SiO2 
 PCOD9519406
Probable space group: I M M M
;
_chemical_formula_sum "Si O2"
_cell_formula_units_Z 116
_cell_length_a 28.627873
_cell_length_b 9.607209
_cell_length_c 26.673133
_cell_angle_alpha 90.000000
_cell_angle_beta 90.000000
_cell_angle_gamma 90.000000
_cell_volume 7336.017372
_symmetry_space_group_name_H-M "I M M M"
_symmetry_group_IT_number 71
_symmetry_cell_setting 'orthorhombic'
loop_
_space_group_symop_operation_xyz
x,y,z
-x,-y,z
x,-y,-z
-x,y,-z
-x,-y,-z
x,y,-z
-x,y,z
x,-y,z
1/2+x,1/2+y,1/2+z
1/2-x,1/2-y,1/2+z
1/2+x,1/2-y,1/2-z
1/2-x,1/2+y,1/2-z
1/2-x,1/2-y,1/2-z
1/2+x,1/2+y,1/2-z
1/2-x,1/2+y,1/2+z
1/2+x,1/2-y,1/2+z
loop_
_atom_site_type_symbol
_atom_site_label
_atom_site_fract_x
_atom_site_fract_y
_atom_site_fract_z
Si Si1 0.634306 0.000000 0.000000
Si Si2 0.446713 0.338919 0.859203
Si Si3 0.686140 0.158065 0.805339
Si Si4 0.945672 0.663466 0.257178
Si Si5 0.636363 0.666163 0.720643
Si Si6 0.717085 0.336326 0.355392
Si Si7 0.357611 0.230436 0.088249
Si Si8 0.240603 0.160899 0.443188
O O1 0.635336 0.879911 0.955640
O O2 0.500000 0.320523 0.878401
O O3 0.442131 0.500000 0.842680
O O4 0.441267 0.236823 0.811650
O O5 0.406199 0.305714 0.898694
O O6 0.663972 0.269554 0.768136
O O7 0.740346 0.189035 0.816552
O O8 0.660266 0.165052 0.859085
O O9 0.682107 0.000000 0.785494
O O10 0.933065 0.500000 0.260269
O O11 0.911948 0.749795 0.220961
O O12 0.000000 0.673107 0.242778
O O13 0.630084 0.500000 0.726143
O O14 0.668591 0.692426 0.672252
O O15 0.719382 0.500000 0.367974
O O16 0.729010 0.248005 0.404159
O O17 0.313881 0.325359 0.071848
O O18 0.245735 0.213648 0.500000
O O19 0.253983 0.000000 0.441218
#
# Coordination Sequence:
#
# PCOD9519406 Si02
#       8
#     4  16  16  16  16  16  16  16
#     4  12  24  36  55  78 100 128 182 218 275 318
#     4  10  21  37  56  75  96 126 167 220 278 326
#     4  10  19  32  51  71  99 133 170 207 257 311
#     4  10  21  35  53  77 104 136 173 210 256 318
#     4  11  21  33  51  78 107 135 168 210 258 310
#     4   9  21  35  50  74 105 138 173 209 253 306
#     4  11  21  35  54  75  96 129 171 221 264 316
#     4  10  21  35  54  77 102 134 176 216 256 300
#
# _framework density 15.812393999999999
#
# number of rings (size 3 to 8) (size 9 to 14) (size 15 to 20)
#    0.000    1.793    2.759    1.655    1.931    4.414 
#    0.000    0.690    0.000    0.828    0.000    0.000 
#    0.000    0.552    0.000    6.069    0.000    4.414 
#
# Total GULP energy -322969.033589 kJ/mol
# GULP energy per Si atom -5568.431614 kJ/mol
# Density = 1.577640 g / cm^3
# Si number density = 15.812394 Si / 1000 Ang^3
#
#
#
# Elastic Constant Matrix: (Units=GPa)
#
#
# Indices 1 2 3 4 5 6 
#
# 1 92.9656 54.0514 52.3671 0.0000 0.0000 0.0000
# 2 54.0514 97.9496 47.5861 0.0000 0.0000 0.0000
# 3 52.3671 47.5861 75.0976 0.0000 0.0000 0.0000
# 4 0.0000 0.0000 0.0000 25.7462 0.0000 0.0000
# 5 0.0000 0.0000 0.0000 0.0000 14.2252 0.0000
# 6 0.0000 0.0000 0.0000 0.0000 0.0000 15.9607
#
#
#
# Elastic Compliance Matrix: (Units=1/GPa)
#
#
# Indices 1 2 3 4 5 6 
#
# 1 0.019990 -0.006153 -0.010040 0.000000 0.000000 0.000000
# 2 -0.006153 0.016644 -0.006256 0.000000 0.000000 0.000000
# 3 -0.010040 -0.006256 0.024281 0.000000 0.000000 0.000000
# 4 0.000000 0.000000 0.000000 0.038841 0.000000 0.000000
# 5 0.000000 0.000000 0.000000 0.000000 0.070298 0.000000
# 6 0.000000 0.000000 0.000000 0.000000 0.000000 0.062654
#
#
# Mechanical properties :
#
#
# Convention : Reuss Voigt Hill
#
# Bulk Modulus (GPa) = 62.43539 63.78021 63.10780
# Shear Modulus (GPa) = 17.67125 18.65363 18.16244
#
# Velocity S-wave (km/s) = 3.34661 3.43838 3.39281
# Velocity P-wave (km/s) = 7.38268 7.49576 7.43943
#
# Compressibility (1/GPa) = 0.01601656
#
# Stress axis : x y z
#
# Youngs Moduli (GPa) = 50.02533 60.08134 41.18370
#
# Poissons Ratio (x) = 0.36969 0.41350
# Poissons Ratio (y) = 0.30781 0.25764
# Poissons Ratio (z) = 0.50227 0.37586
#
# Static dielectric constant tensor:
#      x y z
#    x 1.555080 0.000000 0.000000 
#    y 0.000000 1.535460 0.000000 
#    z 0.000000 0.000000 1.504100 
# 
# From -- ./inp_files/15672.got.cif
#   From: 2010.05.17/outbox.cif.g08.bks.cpg/sg71_8_cif.got.tgz:15672.got - 2010.06.03 16:22:01.
