data_PCOD9519933
_publ_section_title
;
Structure prediction by ZEFSAII (Michael W. Deem and Ramdas Pophale) SiO2 
 PCOD9519933
Probable space group: I M M M
;
_chemical_formula_sum "Si O2"
_cell_formula_units_Z 88
_cell_length_a 20.311942
_cell_length_b 10.140397
_cell_length_c 22.602857
_cell_angle_alpha 90.000000
_cell_angle_beta 90.000000
_cell_angle_gamma 90.000000
_cell_volume 4655.536579
_symmetry_space_group_name_H-M "I M M M"
_symmetry_group_IT_number 71
_symmetry_cell_setting 'orthorhombic'
loop_
_space_group_symop_operation_xyz
x,y,z
-x,-y,z
x,-y,-z
-x,y,-z
-x,-y,-z
x,y,-z
-x,y,z
x,-y,z
1/2+x,1/2+y,1/2+z
1/2-x,1/2-y,1/2+z
1/2+x,1/2-y,1/2-z
1/2-x,1/2+y,1/2-z
1/2-x,1/2-y,1/2-z
1/2+x,1/2+y,1/2-z
1/2-x,1/2+y,1/2+z
1/2+x,1/2-y,1/2+z
loop_
_atom_site_type_symbol
_atom_site_label
_atom_site_fract_x
_atom_site_fract_y
_atom_site_fract_z
Si Si1 0.397182 0.716556 0.934022
Si Si2 0.424997 0.000000 0.119553
Si Si3 0.717463 0.000000 0.166815
Si Si4 0.389036 0.147360 0.570609
Si Si5 0.928911 0.000000 0.662887
Si Si6 0.500000 0.651561 0.427575
Si Si7 0.286799 0.500000 0.207004
Si Si8 0.755152 0.220100 0.387818
O O1 0.415377 0.867498 0.919065
O O2 0.423741 0.624435 0.881629
O O3 0.318164 0.699229 0.929722
O O4 0.419423 0.681330 0.000000
O O5 0.362854 0.000000 0.164904
O O6 0.500000 0.000000 0.143438
O O7 0.741465 0.870636 0.132612
O O8 0.749882 0.000000 0.231124
O O9 0.397955 0.142013 0.500000
O O10 0.436983 0.263021 0.592163
O O11 0.313754 0.181610 0.583902
O O12 0.404582 0.000000 0.593855
O O13 0.866493 0.000000 0.706443
O O14 0.000000 0.000000 0.692683
O O15 0.500000 0.500000 0.407570
O O16 0.500000 0.647710 0.500000
O O17 0.266104 0.372764 0.168965
#
# Coordination Sequence:
#
# PCOD9519933 Si02
#       8
#    16   8   8  16   8   8   8  16
#     4  10  20  33  51  81 117 147 179 217 264 327
#     4  10  21  36  54  77 107 147 186 224 276 338
#     4  10  22  37  59  78 103 142 190 240 289 333
#     4  10  19  33  55  80 112 150 183 219 272 340
#     4  10  21  34  54  81 109 145 184 222 270 330
#     4   9  19  33  51  79 111 151 185 213 265 329
#     4  10  20  39  59  76 103 142 190 238 283 333
#     4  10  20  35  55  83 106 141 186 232 279 328
#
# _framework density 18.902225000000001
#
# number of rings (size 3 to 8) (size 9 to 14) (size 15 to 20)
#    0.000    2.091    0.909    2.455    1.273    3.273 
#    0.000    0.909    4.000    0.000    0.000    0.000 
#    0.000    0.000    0.000    0.000    0.000    0.000 
#
# Total GULP energy -245482.992397 kJ/mol
# GULP energy per Si atom -5579.158918 kJ/mol
# Density = 1.885920 g / cm^3
# Si number density = 18.902225 Si / 1000 Ang^3
#
#
#
# Elastic Constant Matrix: (Units=GPa)
#
#
# Indices 1 2 3 4 5 6 
#
# 1 136.5845 38.8398 11.3102 0.0000 0.0000 0.0000
# 2 38.8398 126.3929 -5.1943 0.0000 0.0000 0.0000
# 3 11.3102 -5.1943 40.1220 0.0000 0.0000 0.0000
# 4 0.0000 0.0000 0.0000 8.8131 0.0000 0.0000
# 5 0.0000 0.0000 0.0000 0.0000 5.7592 0.0000
# 6 0.0000 0.0000 0.0000 0.0000 0.0000 110.9512
#
#
#
# Elastic Compliance Matrix: (Units=1/GPa)
#
#
# Indices 1 2 3 4 5 6 
#
# 1 0.008300 -0.002661 -0.002684 0.000000 0.000000 0.000000
# 2 -0.002661 0.008807 0.001890 0.000000 0.000000 0.000000
# 3 -0.002684 0.001890 0.025925 0.000000 0.000000 0.000000
# 4 0.000000 0.000000 0.000000 0.113467 0.000000 0.000000
# 5 0.000000 0.000000 0.000000 0.000000 0.173636 0.000000
# 6 0.000000 0.000000 0.000000 0.000000 0.000000 0.009013
#
#
# Mechanical properties :
#
#
# Convention : Reuss Voigt Hill
#
# Bulk Modulus (GPa) = 27.68314 43.66785 35.67549
# Shear Modulus (GPa) = 13.96255 42.31428 28.13841
#
# Velocity S-wave (km/s) = 2.72080 4.73650 3.86246
# Velocity P-wave (km/s) = 4.95455 7.28455 6.22946
#
# Compressibility (1/GPa) = 0.03612307
#
# Stress axis : x y z
#
# Youngs Moduli (GPa) = 120.47534 113.54300 38.57219
#
# Poissons Ratio (x) = 0.30214 0.10354
# Poissons Ratio (y) = 0.32058 -0.07291
# Poissons Ratio (z) = 0.32340 -0.21463
#
# Static dielectric constant tensor:
#      x y z
#    x 1.674580 0.000000 0.000000 
#    y 0.000000 1.661690 0.000000 
#    z 0.000000 0.000000 1.615920 
# 
# From -- ./inp_files/61203.got.cif
#   From: 2010.05.17/outbox.cif.g08.bks.cpg/sg71_31_cif.got.tgz:61203.got - 2010.06.03 16:22:01.
