data_PCOD9519405
_publ_section_title
;
Structure prediction by ZEFSAII (Michael W. Deem and Ramdas Pophale) SiO2 
 PCOD9519405
Probable space group: I M M M
;
_chemical_formula_sum "Si O2"
_cell_formula_units_Z 96
_cell_length_a 17.268478
_cell_length_b 30.361676
_cell_length_c 7.447822
_cell_angle_alpha 90.000000
_cell_angle_beta 90.000000
_cell_angle_gamma 90.000000
_cell_volume 3904.892583
_symmetry_space_group_name_H-M "I M M M"
_symmetry_group_IT_number 71
_symmetry_cell_setting 'orthorhombic'
loop_
_space_group_symop_operation_xyz
x,y,z
-x,-y,z
x,-y,-z
-x,y,-z
-x,-y,-z
x,y,-z
-x,y,z
x,-y,z
1/2+x,1/2+y,1/2+z
1/2-x,1/2-y,1/2+z
1/2+x,1/2-y,1/2-z
1/2-x,1/2+y,1/2-z
1/2-x,1/2-y,1/2-z
1/2+x,1/2+y,1/2-z
1/2-x,1/2+y,1/2+z
1/2+x,1/2-y,1/2+z
loop_
_atom_site_type_symbol
_atom_site_label
_atom_site_fract_x
_atom_site_fract_y
_atom_site_fract_z
Si Si1 0.915859 0.761337 0.285598
Si Si2 0.801940 0.452301 0.787656
Si Si3 0.861307 0.854747 0.214567
Si Si4 0.584977 0.873205 0.787545
Si Si5 0.707534 0.196404 0.781801
Si Si6 0.875736 0.049122 0.204076
O O1 0.915400 0.753889 0.500000
O O2 0.915648 0.813255 0.248483
O O3 0.829862 0.743866 0.223667
O O4 0.000000 0.743651 0.220205
O O5 0.835292 0.500000 0.742183
O O6 0.861304 0.415068 0.738568
O O7 0.717998 0.448966 0.699531
O O8 0.787098 0.450339 0.000000
O O9 0.778977 0.834353 0.283142
O O10 0.891416 0.902174 0.285031
O O11 0.852957 0.861154 0.000000
O O12 0.500000 0.878608 0.710261
O O13 0.632347 0.831610 0.722823
O O14 0.577940 0.866456 0.000000
O O15 0.715054 0.197111 0.000000
O O16 0.895063 0.000000 0.281703
O O17 0.905906 0.048588 0.000000
#
# Coordination Sequence:
#
# PCOD9519405 Si02
#       6
#    16  16  16  16  16  16
#     4  10  21  36  54  77 108 144 177 211 257 315
#     4  10  20  32  46  67  99 136 171 213 265 313
#     4  10  19  33  56  83 108 134 170 218 264 307
#     4  10  19  32  51  71  95 133 179 221 258 303
#     4   9  17  33  54  78 104 134 175 218 260 303
#     4   9  17  32  55  80 105 133 169 214 262 312
#
# _framework density 24.584543
#
# number of rings (size 3 to 8) (size 9 to 14) (size 15 to 20)
#    0.000    2.333    1.667    1.500    0.000    4.667 
#    0.000    2.500    0.000    2.500    0.000    3.500 
#    0.000    0.000    0.000    0.000    0.000    0.000 
#
# Total GULP energy -267503.491993 kJ/mol
# GULP energy per Si atom -5572.989417 kJ/mol
# Density = 2.452859 g / cm^3
# Si number density = 24.584543 Si / 1000 Ang^3
#
#
#
# Elastic Constant Matrix: (Units=GPa)
#
#
# Indices 1 2 3 4 5 6 
#
# 1 93.3970 -2.7288 5.4989 0.0000 -0.0021 -0.0007
# 2 -2.7288 131.8820 -1.7384 0.0005 -0.0011 -0.0010
# 3 5.4989 -1.7384 69.3915 0.0514 0.0411 -0.0187
# 4 0.0000 0.0005 0.0514 18.9136 0.0079 -0.0075
# 5 -0.0021 -0.0011 0.0411 0.0079 -2.9000 -0.0126
# 6 -0.0007 -0.0010 -0.0187 -0.0075 -0.0126 20.6235
#
#
#
# Elastic Compliance Matrix: (Units=1/GPa)
#
#
# Indices 1 2 3 4 5 6 
#
# 1 0.010763 0.000212 -0.000848 0.000002 -0.000020 0.000000
# 2 0.000212 0.007589 0.000173 -0.000001 -0.000001 0.000001
# 3 -0.000848 0.000173 0.014482 -0.000039 0.000205 0.000013
# 4 0.000002 -0.000001 -0.000039 0.052872 0.000144 0.000019
# 5 -0.000020 -0.000001 0.000205 0.000144 -0.344829 -0.000210
# 6 0.000000 0.000001 0.000013 0.000019 -0.000210 0.048488
#
#
# Mechanical properties :
#
#
# Convention : Reuss Voigt Hill
#
# Bulk Modulus (GPa) = 31.33889 32.97045 32.15467
# Shear Modulus (GPa) = -25.11652 26.90333 0.89341
#
# Velocity S-wave (km/s) = -3.19978 3.31164 0.60348
# Velocity P-wave (km/s) = 0.93614 5.29743 3.68690
#
# Compressibility (1/GPa) = 0.03190924
#
# Stress axis : x y z
#
# Youngs Moduli (GPa) = 92.91034 131.76626 69.04927
#
# Poissons Ratio (x) = -0.02787 0.05853
# Poissons Ratio (y) = -0.01965 -0.01197
# Poissons Ratio (z) = 0.07875 -0.02284
#
# Static dielectric constant tensor:
#      x y z
#    x 1.968090 0.000000 0.000000 
#    y 0.000000 2.062070 -0.000010 
#    z 0.000000 -0.000010 1.963440 
# 
# From -- ./inp_files/10909.got.cif
#   From: 2010.05.17/outbox.cif.g08.bks.cpg/sg71_6_cif.got.tgz:10909.got - 2010.06.03 16:22:01.
