data_PCOD9519206
_publ_section_title
;
Structure prediction by ZEFSAII (Michael W. Deem and Ramdas Pophale) SiO2 
 PCOD9519206
Probable space group: I M M M
;
_chemical_formula_sum "Si O2"
_cell_formula_units_Z 88
_cell_length_a 18.048723
_cell_length_b 18.408112
_cell_length_c 13.507661
_cell_angle_alpha 90.000000
_cell_angle_beta 90.000000
_cell_angle_gamma 90.000000
_cell_volume 4487.824658
_symmetry_space_group_name_H-M "I M M M"
_symmetry_group_IT_number 71
_symmetry_cell_setting 'orthorhombic'
loop_
_space_group_symop_operation_xyz
x,y,z
-x,-y,z
x,-y,-z
-x,y,-z
-x,-y,-z
x,y,-z
-x,y,z
x,-y,z
1/2+x,1/2+y,1/2+z
1/2-x,1/2-y,1/2+z
1/2+x,1/2-y,1/2-z
1/2-x,1/2+y,1/2-z
1/2-x,1/2-y,1/2-z
1/2+x,1/2+y,1/2-z
1/2-x,1/2+y,1/2+z
1/2+x,1/2-y,1/2+z
loop_
_atom_site_type_symbol
_atom_site_label
_atom_site_fract_x
_atom_site_fract_y
_atom_site_fract_z
Si Si1 0.586992 0.777666 0.192001
Si Si2 0.236039 0.919631 0.306183
Si Si3 0.328860 0.917260 0.114312
Si Si4 0.084504 0.879195 0.386059
Si Si5 0.500000 0.080203 0.381748
Si Si6 0.357542 0.819066 0.613783
O O1 0.500000 0.784399 0.212855
O O2 0.616499 0.851651 0.142838
O O3 0.595323 0.707708 0.122966
O O4 0.630570 0.763855 0.295507
O O5 0.262427 0.910890 0.193155
O O6 0.149022 0.913345 0.321437
O O7 0.280287 0.860187 0.369904
O O8 0.260827 0.000000 0.339105
O O9 0.359485 0.000000 0.126003
O O10 0.306507 0.909548 0.000000
O O11 0.093410 0.901778 0.500000
O O12 0.000000 0.895543 0.355425
O O13 0.500000 0.072787 0.500000
O O14 0.424102 0.123583 0.362661
O O15 0.500000 0.000000 0.335835
O O16 0.365197 0.794349 0.500000
#
# Coordination Sequence:
#
# PCOD9519206 Si02
#       6
#    16  16  16  16   8  16
#     4  10  20  35  52  75 108 148 184 222 261 311
#     4  10  21  37  57  81 107 136 176 224 270 324
#     4   9  19  35  55  80 109 141 176 216 262 311
#     4  10  22  39  58  79 105 138 176 222 276 322
#     4   9  16  26  42  68 105 145 176 203 247 303
#     4  10  19  31  50  78 110 146 179 215 261 312
#
# _framework density 19.608609999999999
#
# number of rings (size 3 to 8) (size 9 to 14) (size 15 to 20)
#    0.000    2.273    0.909    1.636    0.000    7.636 
#    0.000    4.545    0.000    1.636    0.000    2.545 
#    0.000    0.000    0.000    0.000    0.000    0.000 
#
# Total GULP energy -245351.754054 kJ/mol
# GULP energy per Si atom -5576.176228 kJ/mol
# Density = 1.956398 g / cm^3
# Si number density = 19.608610 Si / 1000 Ang^3
#
#
#
# Elastic Constant Matrix: (Units=GPa)
#
#
# Indices 1 2 3 4 5 6 
#
# 1 75.6936 10.9422 11.9374 0.0000 0.0000 0.0000
# 2 10.9422 29.0944 9.6816 0.0000 0.0000 0.0000
# 3 11.9374 9.6816 81.3675 0.0000 0.0000 0.0000
# 4 0.0000 0.0000 0.0000 18.5475 0.0000 0.0000
# 5 0.0000 0.0000 0.0000 0.0000 15.8811 0.0000
# 6 0.0000 0.0000 0.0000 0.0000 0.0000 398.2493
#
#
#
# Elastic Compliance Matrix: (Units=1/GPa)
#
#
# Indices 1 2 3 4 5 6 
#
# 1 0.014145 -0.004820 -0.001502 0.000000 0.000000 0.000000
# 2 -0.004820 0.037430 -0.003747 0.000000 0.000000 0.000000
# 3 -0.001502 -0.003747 0.012956 0.000000 0.000000 0.000000
# 4 0.000000 0.000000 0.000000 0.053916 0.000000 0.000000
# 5 0.000000 0.000000 0.000000 0.000000 0.062968 0.000000
# 6 0.000000 0.000000 0.000000 0.000000 0.000000 0.002511
#
#
# Mechanical properties :
#
#
# Convention : Reuss Voigt Hill
#
# Bulk Modulus (GPa) = 22.52523 27.91977 25.22250
# Shear Modulus (GPa) = 22.84561 96.77521 59.81041
#
# Velocity S-wave (km/s) = 3.41703 7.03282 5.52886
# Velocity P-wave (km/s) = 5.20389 8.95639 7.32453
#
# Compressibility (1/GPa) = 0.04439466
#
# Stress axis : x y z
#
# Youngs Moduli (GPa) = 70.69757 26.71629 77.18425
#
# Poissons Ratio (x) = 0.12877 0.11590
# Poissons Ratio (y) = 0.34076 0.28917
# Poissons Ratio (z) = 0.10616 0.10009
#
# Static dielectric constant tensor:
#      x y z
#    x 1.674670 0.000000 0.000000 
#    y 0.000000 1.750770 0.000000 
#    z 0.000000 0.000000 1.696540 
# 
# From -- ./inp_files/36370.got.cif
#   From: 2010.05.17/outbox.cif.g08.bks.cpg/sg71_19_cif.got.tgz:36370.got - 2010.06.03 16:22:01.
