data_PCOD9519210
_publ_section_title
;
Structure prediction by ZEFSAII (Michael W. Deem and Ramdas Pophale) SiO2 
 PCOD9519210
Probable space group: I M M M
;
_chemical_formula_sum "Si O2"
_cell_formula_units_Z 84
_cell_length_a 13.696400
_cell_length_b 15.793803
_cell_length_c 22.779447
_cell_angle_alpha 90.000000
_cell_angle_beta 90.000000
_cell_angle_gamma 90.000000
_cell_volume 4927.609961
_symmetry_space_group_name_H-M "I M M M"
_symmetry_group_IT_number 71
_symmetry_cell_setting 'orthorhombic'
loop_
_space_group_symop_operation_xyz
x,y,z
-x,-y,z
x,-y,-z
-x,y,-z
-x,-y,-z
x,y,-z
-x,y,z
x,-y,z
1/2+x,1/2+y,1/2+z
1/2-x,1/2-y,1/2+z
1/2+x,1/2-y,1/2-z
1/2-x,1/2+y,1/2-z
1/2-x,1/2-y,1/2-z
1/2+x,1/2+y,1/2-z
1/2-x,1/2+y,1/2+z
1/2+x,1/2-y,1/2+z
loop_
_atom_site_type_symbol
_atom_site_label
_atom_site_fract_x
_atom_site_fract_y
_atom_site_fract_z
Si Si1 0.310266 0.128866 0.273591
Si Si2 0.253322 0.000000 0.062981
Si Si3 0.382762 0.809723 0.500000
Si Si4 0.611114 0.000000 0.362777
Si Si5 0.385382 0.000000 0.177778
Si Si6 0.888337 0.818643 0.225375
Si Si7 0.352011 0.000000 0.500000
Si Si8 0.112862 0.843682 0.086340
O O1 0.355123 0.078401 0.218818
O O2 0.194239 0.134009 0.262778
O O3 0.358609 0.220520 0.272479
O O4 0.336896 0.080585 0.333407
O O5 0.325060 0.000000 0.117987
O O6 0.184658 0.082712 0.066077
O O7 0.305219 0.000000 0.000000
O O8 0.500000 0.832629 0.500000
O O9 0.322546 0.897789 0.500000
O O10 0.365381 0.747020 0.555591
O O11 0.608448 0.000000 0.432907
O O12 0.500000 0.000000 0.340732
O O13 0.500000 0.000000 0.166675
O O14 0.880567 0.841598 0.156692
O O15 0.000000 0.832514 0.244252
O O16 0.000000 0.862854 0.070863
#
# Coordination Sequence:
#
# PCOD9519210 Si02
#       8
#    16   8   8   8   8  16   4  16
#     4  10  20  35  56  81 111 145 180 223 283 331
#     4  12  22  36  53  77 110 153 197 230 275 327
#     4  10  19  31  50  79 109 146 180 218 276 344
#     4  11  21  35  53  78 107 142 181 221 272 339
#     4  11  22  38  56  78 107 146 193 237 285 333
#     4  10  19  33  54  83 113 142 180 230 275 327
#     4  12  23  36  58  82 111 144 183 228 286 344
#     4  10  20  33  52  80 115 147 183 225 279 339
#
# _framework density 17.046804000000002
#
# number of rings (size 3 to 8) (size 9 to 14) (size 15 to 20)
#    0.000    1.524    2.857    4.571    0.000    2.095 
#    0.000    1.905    0.000    0.000    0.000    1.333 
#    0.000    1.524    0.000    0.381    0.000    0.000 
#
# Total GULP energy -234048.432160 kJ/mol
# GULP energy per Si atom -5572.581718 kJ/mol
# Density = 1.700800 g / cm^3
# Si number density = 17.046804 Si / 1000 Ang^3
#
#
#
# Elastic Constant Matrix: (Units=GPa)
#
#
# Indices 1 2 3 4 5 6 
#
# 1 110.5616 36.3553 47.0666 0.0000 0.0000 0.0000
# 2 36.3553 75.7968 26.7554 0.0000 0.0000 0.0000
# 3 47.0666 26.7554 107.2319 0.0000 0.0000 0.0000
# 4 0.0000 0.0000 0.0000 11.4467 0.0000 0.0000
# 5 0.0000 0.0000 0.0000 0.0000 -4.9739 0.0000
# 6 0.0000 0.0000 0.0000 0.0000 0.0000 15.6258
#
#
#
# Elastic Compliance Matrix: (Units=1/GPa)
#
#
# Indices 1 2 3 4 5 6 
#
# 1 0.012324 -0.004388 -0.004315 0.000000 0.000000 0.000000
# 2 -0.004388 0.016030 -0.002073 0.000000 0.000000 0.000000
# 3 -0.004315 -0.002073 0.011737 0.000000 0.000000 0.000000
# 4 0.000000 0.000000 0.000000 0.087361 0.000000 0.000000
# 5 0.000000 0.000000 0.000000 0.000000 -0.201049 0.000000
# 6 0.000000 0.000000 0.000000 0.000000 0.000000 0.063997
#
#
# Mechanical properties :
#
#
# Convention : Reuss Voigt Hill
#
# Bulk Modulus (GPa) = 53.94232 57.10500 55.52366
# Shear Modulus (GPa) = 275.75206 16.64727 146.19967
#
# Velocity S-wave (km/s) = 12.73236 3.12839 9.27092
# Velocity P-wave (km/s) = 15.74366 6.82794 12.13432
#
# Compressibility (1/GPa) = 0.01853832
#
# Stress axis : x y z
#
# Youngs Moduli (GPa) = 81.13961 62.38344 85.20287
#
# Poissons Ratio (x) = 0.27376 0.36761
# Poissons Ratio (y) = 0.35607 0.17667
# Poissons Ratio (z) = 0.35008 0.12935
#
# Static dielectric constant tensor:
#      x y z
#    x 1.553700 0.000000 0.000000 
#    y 0.000000 1.622270 0.000000 
#    z 0.000000 0.000000 1.576960 
# 
# From -- ./inp_files/58784.got.cif
#   From: 2010.05.17/outbox.cif.g08.bks.cpg/sg71_30_cif.got.tgz:58784.got - 2010.06.03 16:22:01.
