data_PCOD9519277
_publ_section_title
;
Structure prediction by ZEFSAII (Michael W. Deem and Ramdas Pophale) SiO2 
 PCOD9519277
Probable space group: I M M M
;
_chemical_formula_sum "Si O2"
_cell_formula_units_Z 88
_cell_length_a 9.091013
_cell_length_b 19.084985
_cell_length_c 27.705752
_cell_angle_alpha 90.000000
_cell_angle_beta 90.000000
_cell_angle_gamma 90.000000
_cell_volume 4806.999137
_symmetry_space_group_name_H-M "I M M M"
_symmetry_group_IT_number 71
_symmetry_cell_setting 'orthorhombic'
loop_
_space_group_symop_operation_xyz
x,y,z
-x,-y,z
x,-y,-z
-x,y,-z
-x,-y,-z
x,y,-z
-x,y,z
x,-y,z
1/2+x,1/2+y,1/2+z
1/2-x,1/2-y,1/2+z
1/2+x,1/2-y,1/2-z
1/2-x,1/2+y,1/2-z
1/2-x,1/2-y,1/2-z
1/2+x,1/2+y,1/2-z
1/2-x,1/2+y,1/2+z
1/2+x,1/2-y,1/2+z
loop_
_atom_site_type_symbol
_atom_site_label
_atom_site_fract_x
_atom_site_fract_y
_atom_site_fract_z
Si Si1 0.670559 0.694305 0.315007
Si Si2 0.823670 0.421659 0.249796
Si Si3 0.670944 0.325927 0.426555
Si Si4 0.176393 0.177391 0.554347
Si Si5 0.676724 0.849289 0.347207
Si Si6 0.833369 0.417295 0.500000
O O1 0.500000 0.697986 0.299430
O O2 0.756096 0.641935 0.280313
O O3 0.677899 0.664693 0.369288
O O4 0.723351 0.774610 0.322842
O O5 0.772505 0.500000 0.263610
O O6 0.793826 0.407137 0.193246
O O7 0.000000 0.419153 0.255756
O O8 0.500000 0.318082 0.439876
O O9 0.757011 0.255585 0.441270
O O10 0.746624 0.388882 0.454093
O O11 0.212145 0.150849 0.500000
O O12 0.245665 0.140008 0.601326
O O13 0.000000 0.179248 0.558701
O O14 0.500000 0.843526 0.355353
O O15 0.838231 0.500000 0.500000
O O16 0.000000 0.389214 0.500000
#
# Coordination Sequence:
#
# PCOD9519277 Si02
#       6
#    16  16  16  16  16   8
#     4   9  19  34  53  78 103 133 175 219 263 313
#     4  10  21  36  54  77 106 140 177 219 267 318
#     4  10  20  34  52  73 100 134 174 217 262 314
#     4  10  19  31  52  81 108 130 163 213 265 314
#     4   9  19  35  54  78 107 139 177 218 262 315
#     4  11  23  35  47  67  99 139 180 221 264 309
#
# _framework density 18.306640999999999
#
# number of rings (size 3 to 8) (size 9 to 14) (size 15 to 20)
#    0.000    2.273    0.909    3.000    0.000    7.273 
#    0.000    3.636    0.000    0.545    0.000    3.818 
#    0.000    0.000    0.000    0.000    0.000    0.000 
#
# Total GULP energy -245319.225137 kJ/mol
# GULP energy per Si atom -5575.436935 kJ/mol
# Density = 1.826497 g / cm^3
# Si number density = 18.306641 Si / 1000 Ang^3
#
#
#
# Elastic Constant Matrix: (Units=GPa)
#
#
# Indices 1 2 3 4 5 6 
#
# 1 50.8909 10.5584 31.9912 0.0000 0.0000 0.0000
# 2 10.5584 25.0526 15.5814 0.0000 0.0000 0.0000
# 3 31.9912 15.5814 90.2426 0.0000 0.0000 0.0000
# 4 0.0000 0.0000 0.0000 19.5507 0.0000 0.0000
# 5 0.0000 0.0000 0.0000 0.0000 26.9251 0.0000
# 6 0.0000 0.0000 0.0000 0.0000 0.0000 15.8269
#
#
#
# Elastic Compliance Matrix: (Units=1/GPa)
#
#
# Indices 1 2 3 4 5 6 
#
# 1 0.026031 -0.005861 -0.008216 0.000000 0.000000 0.000000
# 2 -0.005861 0.046038 -0.005871 0.000000 0.000000 0.000000
# 3 -0.008216 -0.005871 0.015008 0.000000 0.000000 0.000000
# 4 0.000000 0.000000 0.000000 0.051149 0.000000 0.000000
# 5 0.000000 0.000000 0.000000 0.000000 0.037140 0.000000
# 6 0.000000 0.000000 0.000000 0.000000 0.000000 0.063184
#
#
# Mechanical properties :
#
#
# Convention : Reuss Voigt Hill
#
# Bulk Modulus (GPa) = 21.19551 31.38313 26.28932
# Shear Modulus (GPa) = 16.99693 19.66422 18.33057
#
# Velocity S-wave (km/s) = 3.05036 3.28099 3.16778
# Velocity P-wave (km/s) = 4.89995 5.61546 5.26986
#
# Compressibility (1/GPa) = 0.04717980
#
# Stress axis : x y z
#
# Youngs Moduli (GPa) = 38.41641 21.72139 66.63309
#
# Poissons Ratio (x) = 0.12730 0.54746
# Poissons Ratio (y) = 0.22515 0.39122
# Poissons Ratio (z) = 0.31563 0.12753
#
# Static dielectric constant tensor:
#      x y z
#    x 1.625840 0.000000 0.000000 
#    y 0.000000 1.617510 0.000000 
#    z 0.000000 0.000000 1.628140 
# 
# From -- ./inp_files/68001.got.cif
#   From: 2010.05.17/outbox.cif.g08.bks.cpg/sg71_35_cif.got.tgz:68001.got - 2010.06.03 16:22:01.
