data_PCOD9519100
_publ_section_title
;
Structure prediction by ZEFSAII (Michael W. Deem and Ramdas Pophale) SiO2 
 PCOD9519100
Probable space group: I M M M
;
_chemical_formula_sum "Si O2"
_cell_formula_units_Z 104
_cell_length_a 7.338276
_cell_length_b 22.632667
_cell_length_c 28.578426
_cell_angle_alpha 90.000000
_cell_angle_beta 90.000000
_cell_angle_gamma 90.000000
_cell_volume 4746.440939
_symmetry_space_group_name_H-M "I M M M"
_symmetry_group_IT_number 71
_symmetry_cell_setting 'orthorhombic'
loop_
_space_group_symop_operation_xyz
x,y,z
-x,-y,z
x,-y,-z
-x,y,-z
-x,-y,-z
x,y,-z
-x,y,z
x,-y,z
1/2+x,1/2+y,1/2+z
1/2-x,1/2-y,1/2+z
1/2+x,1/2-y,1/2-z
1/2-x,1/2+y,1/2-z
1/2-x,1/2-y,1/2-z
1/2+x,1/2+y,1/2-z
1/2-x,1/2+y,1/2+z
1/2+x,1/2-y,1/2+z
loop_
_atom_site_type_symbol
_atom_site_label
_atom_site_fract_x
_atom_site_fract_y
_atom_site_fract_z
Si Si1 0.219571 0.933009 0.613009
Si Si2 0.778098 0.930663 0.720456
Si Si3 0.721303 0.272388 0.377247
Si Si4 0.777927 0.874810 0.947103
Si Si5 0.217667 0.812269 0.223783
Si Si6 0.288987 0.175870 0.552860
Si Si7 0.790027 0.000000 0.057165
O O1 0.276214 0.917693 0.666416
O O2 0.283207 0.890273 0.572081
O O3 0.000000 0.931081 0.613044
O O4 0.277239 0.000000 0.604653
O O5 0.717351 0.874026 0.752030
O O6 0.000000 0.931432 0.721995
O O7 0.724003 0.000000 0.731448
O O8 0.500000 0.267661 0.372059
O O9 0.769389 0.321888 0.414579
O O10 0.788882 0.296325 0.327805
O O11 0.787472 0.213184 0.403100
O O12 0.709705 0.937806 0.928850
O O13 0.000000 0.878223 0.948384
O O14 0.717120 0.865584 0.000000
O O15 0.250000 0.750000 0.250000
O O16 0.000000 0.820425 0.220974
O O17 0.212894 0.182551 0.500000
O O18 0.500000 0.194934 0.548986
O O19 0.000000 0.000000 0.072893
O O20 0.790991 0.000000 0.000000
#
# Coordination Sequence:
#
# PCOD9519100 Si02
#       7
#    16  16  16  16  16  16   8
#     4   9  18  33  52  70  89 118 154 190 231 280
#     4   8  15  30  50  71  96 125 156 192 239 289
#     4   9  17  28  41  62  88 117 153 187 222 265
#     4   8  12  20  34  52  80 116 148 177 212 255
#     4  10  19  31  49  71  94 121 155 195 235 277
#     4  10  20  32  46  66  95 128 156 186 228 276
#     4   7  10  16  28  48  74 108 145 173 201 243
#
# _framework density 21.911155000000001
#
# number of rings (size 3 to 8) (size 9 to 14) (size 15 to 20)
#    0.000    3.154    0.000    3.231    0.000    2.769 
#    1.385    1.538    0.000    1.385    0.000    0.000 
#    0.000    0.000    0.000    0.000    0.000   12.308 
#
# Total GULP energy -289625.836065 kJ/mol
# GULP energy per Si atom -5569.727617 kJ/mol
# Density = 2.186128 g / cm^3
# Si number density = 21.911155 Si / 1000 Ang^3
#
#
#
# Elastic Constant Matrix: (Units=GPa)
#
#
# Indices 1 2 3 4 5 6 
#
# 1 81.9781 -7.7177 -2.5065 0.0000 0.0000 0.0000
# 2 -7.7177 115.6299 60.1567 0.0000 0.0000 0.0000
# 3 -2.5065 60.1567 98.6471 0.0000 0.0000 0.0000
# 4 0.0000 0.0000 0.0000 34.2956 0.0000 0.0000
# 5 0.0000 0.0000 0.0000 0.0000 -2.2271 0.0000
# 6 0.0000 0.0000 0.0000 0.0000 0.0000 -19.6850
#
#
#
# Elastic Compliance Matrix: (Units=1/GPa)
#
#
# Indices 1 2 3 4 5 6 
#
# 1 0.012281 0.000963 -0.000275 0.000000 0.000000 0.000000
# 2 0.000963 0.012742 -0.007746 0.000000 0.000000 0.000000
# 3 -0.000275 -0.007746 0.014854 0.000000 0.000000 0.000000
# 4 0.000000 0.000000 0.000000 0.029158 0.000000 0.000000
# 5 0.000000 0.000000 0.000000 0.000000 -0.449019 0.000000
# 6 0.000000 0.000000 0.000000 0.000000 0.000000 -0.050800
#
#
# Mechanical properties :
#
#
# Convention : Reuss Voigt Hill
#
# Bulk Modulus (GPa) = 38.81969 44.01332 41.41650
# Shear Modulus (GPa) = -12.25249 18.89819 3.32285
#
# Velocity S-wave (km/s) = -2.36728 2.94001 1.23280
# Velocity P-wave (km/s) = 3.20675 5.62633 4.57924
#
# Compressibility (1/GPa) = 0.02576013
#
# Stress axis : x y z
#
# Youngs Moduli (GPa) = 81.42916 78.47762 67.32248
#
# Poissons Ratio (x) = -0.07556 0.01852
# Poissons Ratio (y) = -0.07840 0.52149
# Poissons Ratio (z) = 0.02240 0.60790
#
# Static dielectric constant tensor:
#      x y z
#    x 2.794720 0.000000 0.000000 
#    y 0.000000 1.922260 0.000000 
#    z 0.000000 0.000000 1.727320 
# 
# From -- ./inp_files/63551.got.cif
#   From: 2010.05.17/outbox.cif.g08.bks.cpg/sg71_32_cif.got.tgz:63551.got - 2010.06.03 16:22:01.
