data_PCOD9519894
_publ_section_title
;
Structure prediction by ZEFSAII (Michael W. Deem and Ramdas Pophale) SiO2 
 PCOD9519894
Probable space group: I M M M
;
_chemical_formula_sum "Si O2"
_cell_formula_units_Z 96
_cell_length_a 17.815408
_cell_length_b 14.101531
_cell_length_c 19.033771
_cell_angle_alpha 90.000000
_cell_angle_beta 90.000000
_cell_angle_gamma 90.000000
_cell_volume 4781.750139
_symmetry_space_group_name_H-M "I M M M"
_symmetry_group_IT_number 71
_symmetry_cell_setting 'orthorhombic'
loop_
_space_group_symop_operation_xyz
x,y,z
-x,-y,z
x,-y,-z
-x,y,-z
-x,-y,-z
x,y,-z
-x,y,z
x,-y,z
1/2+x,1/2+y,1/2+z
1/2-x,1/2-y,1/2+z
1/2+x,1/2-y,1/2-z
1/2-x,1/2+y,1/2-z
1/2-x,1/2-y,1/2-z
1/2+x,1/2+y,1/2-z
1/2-x,1/2+y,1/2+z
1/2+x,1/2-y,1/2+z
loop_
_atom_site_type_symbol
_atom_site_label
_atom_site_fract_x
_atom_site_fract_y
_atom_site_fract_z
Si Si1 0.860133 0.113639 0.761848
Si Si2 0.415897 0.885130 0.417957
Si Si3 0.416417 0.786170 0.808126
Si Si4 0.305589 0.886302 0.700881
Si Si5 0.835850 0.605836 0.580875
Si Si6 0.156418 0.887208 0.921657
O O1 0.913546 0.176956 0.714211
O O2 0.777246 0.138409 0.729975
O O3 0.871207 0.142921 0.844012
O O4 0.869212 0.000000 0.757484
O O5 0.408816 0.861277 0.500000
O O6 0.500000 0.851932 0.393737
O O7 0.342069 0.855345 0.373945
O O8 0.418174 0.000000 0.413456
O O9 0.500000 0.823281 0.805234
O O10 0.364180 0.843066 0.754818
O O11 0.380063 0.810957 0.882147
O O12 0.306972 0.000000 0.701641
O O13 0.857099 0.601558 0.500000
O O14 0.849623 0.500000 0.612255
O O15 0.746550 0.622223 0.583913
O O16 0.140427 0.000000 0.923956
O O17 0.133063 0.850569 0.000000
#
# Coordination Sequence:
#
# PCOD9519894 Si02
#       6
#    16  16  16  16  16  16
#     4  10  21  38  58  78 108 148 190 240 283 327
#     4   8  14  26  45  70 104 143 174 205 257 326
#     4  12  24  35  53  81 113 149 186 226 281 345
#     4  10  19  33  54  80 106 136 178 229 283 339
#     4   9  18  34  57  87 119 146 177 224 286 350
#     4   8  14  29  56  85 109 138 178 224 280 338
#
# _framework density 20.076331
#
# number of rings (size 3 to 8) (size 9 to 14) (size 15 to 20)
#    0.000    2.500    1.667    3.000    0.000    2.667 
#    0.000    2.500    0.000    3.000    0.000    3.500 
#    0.000    0.000    0.000    0.000    0.000    0.000 
#
# Total GULP energy -267378.008406 kJ/mol
# GULP energy per Si atom -5570.375175 kJ/mol
# Density = 2.003064 g / cm^3
# Si number density = 20.076331 Si / 1000 Ang^3
#
#
#
# Elastic Constant Matrix: (Units=GPa)
#
#
# Indices 1 2 3 4 5 6 
#
# 1 94.6524 7.1387 -1.3155 0.0000 0.0000 0.0000
# 2 7.1387 53.3694 15.1402 0.0000 0.0000 0.0000
# 3 -1.3155 15.1402 88.8476 0.0000 0.0000 0.0000
# 4 0.0000 0.0000 0.0000 10.5921 0.0000 0.0000
# 5 0.0000 0.0000 0.0000 0.0000 -301.5030 0.0000
# 6 0.0000 0.0000 0.0000 0.0000 0.0000 0.9775
#
#
#
# Elastic Compliance Matrix: (Units=1/GPa)
#
#
# Indices 1 2 3 4 5 6 
#
# 1 0.010688 -0.001549 0.000422 0.000000 0.000000 0.000000
# 2 -0.001549 0.019914 -0.003416 0.000000 0.000000 0.000000
# 3 0.000422 -0.003416 0.011844 0.000000 0.000000 0.000000
# 4 0.000000 0.000000 0.000000 0.094410 0.000000 0.000000
# 5 0.000000 0.000000 0.000000 0.000000 -0.003317 0.000000
# 6 0.000000 0.000000 0.000000 0.000000 0.000000 1.023045
#
#
# Mechanical properties :
#
#
# Convention : Reuss Voigt Hill
#
# Bulk Modulus (GPa) = 29.97770 30.97735 30.47752
# Shear Modulus (GPa) = 4.24885 -43.59295 -19.67205
#
# Velocity S-wave (km/s) = 1.45635 -4.66484 -3.13367
# Velocity P-wave (km/s) = 4.21808 3.68117 1.45622
#
# Compressibility (1/GPa) = 0.03335813
#
# Stress axis : x y z
#
# Youngs Moduli (GPa) = 93.56547 50.21659 84.43344
#
# Poissons Ratio (x) = 0.07781 -0.03565
# Poissons Ratio (y) = 0.14497 0.28846
# Poissons Ratio (z) = -0.03951 0.17156
#
# Static dielectric constant tensor:
#      x y z
#    x 1.702560 0.000000 0.000000 
#    y 0.000000 1.745500 0.000000 
#    z 0.000000 0.000000 1.751760 
# 
# From -- ./inp_files/52987.got.cif
#   From: 2010.05.17/outbox.cif.g08.bks.cpg/sg71_27_cif.got.tgz:52987.got - 2010.06.03 16:22:01.
