data_PCOD9519610
_publ_section_title
;
Structure prediction by ZEFSAII (Michael W. Deem and Ramdas Pophale) SiO2 
 PCOD9519610
Probable space group: I M M M
;
_chemical_formula_sum "Si O2"
_cell_formula_units_Z 88
_cell_length_a 11.042371
_cell_length_b 26.537610
_cell_length_c 15.905370
_cell_angle_alpha 90.000000
_cell_angle_beta 90.000000
_cell_angle_gamma 90.000000
_cell_volume 4660.879962
_symmetry_space_group_name_H-M "I M M M"
_symmetry_group_IT_number 71
_symmetry_cell_setting 'orthorhombic'
loop_
_space_group_symop_operation_xyz
x,y,z
-x,-y,z
x,-y,-z
-x,y,-z
-x,-y,-z
x,y,-z
-x,y,z
x,-y,z
1/2+x,1/2+y,1/2+z
1/2-x,1/2-y,1/2+z
1/2+x,1/2-y,1/2-z
1/2-x,1/2+y,1/2-z
1/2-x,1/2-y,1/2-z
1/2+x,1/2+y,1/2-z
1/2-x,1/2+y,1/2+z
1/2+x,1/2-y,1/2+z
loop_
_atom_site_type_symbol
_atom_site_label
_atom_site_fract_x
_atom_site_fract_y
_atom_site_fract_z
Si Si1 0.143277 0.728727 0.590562
Si Si2 0.866353 0.558586 0.794376
Si Si3 0.135973 0.810275 0.289182
Si Si4 0.145915 0.939845 0.000000
Si Si5 0.635098 0.592436 0.100161
Si Si6 0.769069 0.375163 0.647734
O O1 0.195907 0.743600 0.500000
O O2 0.195568 0.761180 0.667822
O O3 0.159103 0.669128 0.601321
O O4 0.000000 0.739642 0.589277
O O5 0.865005 0.500000 0.772422
O O6 0.751549 0.568161 0.855010
O O7 0.847932 0.590889 0.710237
O O8 0.000000 0.570563 0.831302
O O9 0.134002 0.850384 0.366039
O O10 0.187298 0.842261 0.211920
O O11 0.000000 0.796049 0.263930
O O12 0.198932 0.910695 0.918236
O O13 0.000000 0.935876 0.000000
O O14 0.176256 0.000000 0.000000
O O15 0.500000 0.571526 0.123069
O O16 0.646302 0.589686 0.000000
#
# Coordination Sequence:
#
# PCOD9519610 Si02
#       6
#    16  16  16   8  16  16
#     4  10  19  32  53  82 111 141 181 226 278 342
#     4  10  22  38  55  78 111 151 192 240 297 353
#     4   9  18  32  54  82 112 145 182 228 281 342
#     4  11  24  40  59  83 113 151 199 257 314 357
#     4   9  18  34  57  85 115 149 190 236 285 345
#     4  11  20  37  56  80 108 147 191 238 289 350
#
# _framework density 18.880554
#
# number of rings (size 3 to 8) (size 9 to 14) (size 15 to 20)
#    0.000    2.091    0.909    2.727    0.000    4.000 
#    0.000    1.818    0.000    3.273    0.000    0.000 
#    0.000    0.000    0.000    0.000    0.000    0.000 
#
# Total GULP energy -244941.136904 kJ/mol
# GULP energy per Si atom -5566.844021 kJ/mol
# Density = 1.883758 g / cm^3
# Si number density = 18.880554 Si / 1000 Ang^3
#
#
#
# Elastic Constant Matrix: (Units=GPa)
#
#
# Indices 1 2 3 4 5 6 
#
# 1 89.9448 33.0863 48.0047 0.0000 0.0000 0.0000
# 2 33.0863 101.8772 45.8474 0.0001 0.0000 0.0000
# 3 48.0047 45.8474 118.6796 0.0000 0.0001 0.0000
# 4 0.0000 0.0001 0.0000 20.7000 0.0000 0.0000
# 5 0.0000 0.0000 0.0001 0.0000 12.2163 0.0000
# 6 0.0000 0.0000 0.0000 0.0000 0.0000 27.0347
#
#
#
# Elastic Compliance Matrix: (Units=1/GPa)
#
#
# Indices 1 2 3 4 5 6 
#
# 1 0.014703 -0.002540 -0.004966 0.000000 0.000000 0.000000
# 2 -0.002540 0.012320 -0.003732 0.000000 0.000000 0.000000
# 3 -0.004966 -0.003732 0.011876 0.000000 0.000000 0.000000
# 4 0.000000 0.000000 0.000000 0.048309 0.000000 0.000000
# 5 0.000000 0.000000 0.000000 0.000000 0.081858 0.000000
# 6 0.000000 0.000000 0.000000 0.000000 0.000000 0.036989
#
#
# Mechanical properties :
#
#
# Convention : Reuss Voigt Hill
#
# Bulk Modulus (GPa) = 60.88896 62.70873 61.79884
# Shear Modulus (GPa) = 21.36698 24.22775 22.79737
#
# Velocity S-wave (km/s) = 3.36771 3.58608 3.47861
# Velocity P-wave (km/s) = 6.88778 7.10156 6.99549
#
# Compressibility (1/GPa) = 0.01642334
#
# Stress axis : x y z
#
# Youngs Moduli (GPa) = 68.01501 81.16758 84.20093
#
# Poissons Ratio (x) = 0.20618 0.41812
# Poissons Ratio (y) = 0.17277 0.31423
# Poissons Ratio (z) = 0.33775 0.30291
#
# Static dielectric constant tensor:
#      x y z
#    x 1.682300 0.000000 0.000000 
#    y 0.000000 1.667490 0.000000 
#    z 0.000000 0.000000 1.676260 
# 
# From -- ./inp_files/32996.got.cif
#   From: 2010.05.17/outbox.cif.g08.bks.cpg/sg71_17_cif.got.tgz:32996.got - 2010.06.03 16:22:01.
