data_PCOD9519587
_publ_section_title
;
Structure prediction by ZEFSAII (Michael W. Deem and Ramdas Pophale) SiO2 
 PCOD9519587
Probable space group: I M M M
;
_chemical_formula_sum "Si O2"
_cell_formula_units_Z 104
_cell_length_a 23.532153
_cell_length_b 9.440766
_cell_length_c 27.187377
_cell_angle_alpha 90.000000
_cell_angle_beta 90.000000
_cell_angle_gamma 90.000000
_cell_volume 6039.989813
_symmetry_space_group_name_H-M "I M M M"
_symmetry_group_IT_number 71
_symmetry_cell_setting 'orthorhombic'
loop_
_space_group_symop_operation_xyz
x,y,z
-x,-y,z
x,-y,-z
-x,y,-z
-x,-y,-z
x,y,-z
-x,y,z
x,-y,z
1/2+x,1/2+y,1/2+z
1/2-x,1/2-y,1/2+z
1/2+x,1/2-y,1/2-z
1/2-x,1/2+y,1/2-z
1/2-x,1/2-y,1/2-z
1/2+x,1/2+y,1/2-z
1/2-x,1/2+y,1/2+z
1/2+x,1/2-y,1/2+z
loop_
_atom_site_type_symbol
_atom_site_label
_atom_site_fract_x
_atom_site_fract_y
_atom_site_fract_z
Si Si1 0.781344 0.337775 0.942692
Si Si2 0.615015 0.829969 0.794216
Si Si3 0.500000 0.848057 0.672813
Si Si4 0.680574 0.335559 0.290280
Si Si5 0.500000 0.328867 0.230418
Si Si6 0.282125 0.168527 0.859618
Si Si7 0.109474 0.744142 0.117151
Si Si8 0.932788 0.000000 0.946593
O O1 0.761585 0.500000 0.942620
O O2 0.739723 0.245445 0.908439
O O3 0.842060 0.333298 0.914494
O O4 0.785925 0.291689 0.000000
O O5 0.653161 0.768105 0.749587
O O6 0.556350 0.743175 0.792513
O O7 0.653456 0.805346 0.842671
O O8 0.606744 0.000000 0.788600
O O9 0.500000 0.721846 0.712394
O O10 0.443493 0.839554 0.639891
O O11 0.500000 0.000000 0.699617
O O12 0.682987 0.500000 0.273390
O O13 0.741181 0.290900 0.313382
O O14 0.639839 0.322238 0.337475
O O15 0.500000 0.500000 0.226930
O O16 0.273999 0.000000 0.865668
O O17 0.084796 0.862057 0.081972
O O18 0.000000 0.000000 0.950416
O O19 0.905492 0.000000 0.000000
#
# Coordination Sequence:
#
# PCOD9519587 Si02
#       8
#    16  16   8  16   8  16  16   8
#     4  10  22  39  58  82 110 142 184 235 286 335
#     4  11  22  37  56  82 115 146 185 226 273 333
#     4  12  24  36  54  75 106 151 195 240 288 330
#     4  10  19  32  53  79 109 145 182 225 274 327
#     4  12  26  38  56  80 114 154 191 230 274 331
#     4   9  21  38  57  82 111 146 183 226 276 334
#     4  11  21  35  54  74 108 143 190 236 283 331
#     4  11  22  34  50  74 100 140 194 247 294 334
#
# _framework density 17.218572000000002
#
# number of rings (size 3 to 8) (size 9 to 14) (size 15 to 20)
#    0.000    1.462    3.077    2.538    2.154    4.000 
#    0.000    0.000    0.000    1.846    0.000    0.538 
#    0.000    4.308    0.000    0.000    0.000    0.000 
#
# Total GULP energy -290053.666110 kJ/mol
# GULP energy per Si atom -5577.955118 kJ/mol
# Density = 1.717938 g / cm^3
# Si number density = 17.218572 Si / 1000 Ang^3
#
#
#
# Elastic Constant Matrix: (Units=GPa)
#
#
# Indices 1 2 3 4 5 6 
#
# 1 119.5323 53.4896 58.7418 0.0000 0.0000 0.0000
# 2 53.4896 97.8184 32.7316 0.0000 0.0000 0.0000
# 3 58.7418 32.7316 75.6837 0.0000 0.0000 0.0000
# 4 0.0000 0.0000 0.0000 27.5669 0.0000 0.0000
# 5 0.0000 0.0000 0.0000 0.0000 48.6758 0.0000
# 6 0.0000 0.0000 0.0000 0.0000 0.0000 20.3234
#
#
#
# Elastic Compliance Matrix: (Units=1/GPa)
#
#
# Indices 1 2 3 4 5 6 
#
# 1 0.015501 -0.005204 -0.009781 0.000000 0.000000 0.000000
# 2 -0.005204 0.013700 -0.001886 0.000000 0.000000 0.000000
# 3 -0.009781 -0.001886 0.021620 0.000000 0.000000 0.000000
# 4 0.000000 0.000000 0.000000 0.036275 0.000000 0.000000
# 5 0.000000 0.000000 0.000000 0.000000 0.020544 0.000000
# 6 0.000000 0.000000 0.000000 0.000000 0.000000 0.049204
#
#
# Mechanical properties :
#
#
# Convention : Reuss Voigt Hill
#
# Bulk Modulus (GPa) = 58.54847 64.77336 61.66091
# Shear Modulus (GPa) = 25.47408 29.18464 27.32936
#
# Velocity S-wave (km/s) = 3.85054 4.12145 3.98829
# Velocity P-wave (km/s) = 7.33797 7.76842 7.55626
#
# Compressibility (1/GPa) = 0.01707987
#
# Stress axis : x y z
#
# Youngs Moduli (GPa) = 64.51197 72.99499 46.25397
#
# Poissons Ratio (x) = 0.37984 0.45239
# Poissons Ratio (y) = 0.33569 0.08724
# Poissons Ratio (z) = 0.63097 0.13767
#
# Static dielectric constant tensor:
#      x y z
#    x 1.614190 0.000000 0.000000 
#    y 0.000000 1.586930 0.000000 
#    z 0.000000 0.000000 1.575310 
# 
# From -- ./inp_files/66888.got.cif
#   From: 2010.05.17/outbox.cif.g08.bks.cpg/sg71_34_cif.got.tgz:66888.got - 2010.06.03 16:22:01.
