data_PCOD9519554
_publ_section_title
;
Structure prediction by ZEFSAII (Michael W. Deem and Ramdas Pophale) SiO2 
 PCOD9519554
Probable space group: I M M M
;
_chemical_formula_sum "Si O2"
_cell_formula_units_Z 104
_cell_length_a 29.205860
_cell_length_b 8.959428
_cell_length_c 20.593641
_cell_angle_alpha 90.000000
_cell_angle_beta 90.000000
_cell_angle_gamma 90.000000
_cell_volume 5388.692731
_symmetry_space_group_name_H-M "I M M M"
_symmetry_group_IT_number 71
_symmetry_cell_setting 'orthorhombic'
loop_
_space_group_symop_operation_xyz
x,y,z
-x,-y,z
x,-y,-z
-x,y,-z
-x,-y,-z
x,y,-z
-x,y,z
x,-y,z
1/2+x,1/2+y,1/2+z
1/2-x,1/2-y,1/2+z
1/2+x,1/2-y,1/2-z
1/2-x,1/2+y,1/2-z
1/2-x,1/2-y,1/2-z
1/2+x,1/2+y,1/2-z
1/2-x,1/2+y,1/2+z
1/2+x,1/2-y,1/2+z
loop_
_atom_site_type_symbol
_atom_site_label
_atom_site_fract_x
_atom_site_fract_y
_atom_site_fract_z
Si Si1 0.500000 0.820193 0.578003
Si Si2 0.946678 0.667719 0.292005
Si Si3 0.819058 0.179214 0.802830
Si Si4 0.082989 0.821027 0.161767
Si Si5 0.432261 0.328291 0.927423
Si Si6 0.714761 0.828923 0.818413
Si Si7 0.822578 0.838659 0.573196
O O1 0.500000 0.785185 0.500000
O O2 0.454676 0.755280 0.614752
O O3 0.500000 0.000000 0.584727
O O4 0.926469 0.500000 0.288973
O O5 0.926506 0.774300 0.236549
O O6 0.944553 0.731281 0.364949
O O7 0.000000 0.656895 0.274930
O O8 0.863201 0.225166 0.845151
O O9 0.767365 0.227263 0.821575
O O10 0.818951 0.240254 0.729495
O O11 0.820117 0.000000 0.802208
O O12 0.078973 0.000000 0.154443
O O13 0.447909 0.500000 0.919148
O O14 0.377257 0.333821 0.928075
O O15 0.446645 0.277064 0.000000
O O16 0.695230 0.802183 0.888867
O O17 0.715611 0.000000 0.797839
O O18 0.805683 0.837211 0.500000
O O19 0.809047 0.000000 0.603240
#
# Coordination Sequence:
#
# PCOD9519554 Si02
#       7
#     8  16  16  16  16  16  16
#     4  11  25  45  67  91 120 147 178 235 305 365
#     4  11  23  36  52  78 113 145 177 228 285 330
#     4   9  20  36  54  80 114 146 180 224 274 329
#     4  11  22  39  64  88 111 147 192 234 278 341
#     4   9  19  35  53  74 104 146 195 239 275 318
#     4  10  19  32  52  81 113 146 183 226 276 326
#     4   9  18  33  51  71 100 139 180 222 266 313
#
# _framework density 19.299671
#
# number of rings (size 3 to 8) (size 9 to 14) (size 15 to 20)
#    0.000    2.077    0.769    3.462    0.000    8.615 
#    0.000    3.846    0.000    4.615    0.000    0.000 
#    0.000    0.000    0.000    0.000    0.000    0.000 
#
# Total GULP energy -289638.917043 kJ/mol
# GULP energy per Si atom -5569.979174 kJ/mol
# Density = 1.925574 g / cm^3
# Si number density = 19.299671 Si / 1000 Ang^3
#
#
#
# Elastic Constant Matrix: (Units=GPa)
#
#
# Indices 1 2 3 4 5 6 
#
# 1 100.5577 28.1385 43.0940 0.0000 0.0000 0.0000
# 2 28.1385 42.3759 26.7310 0.0000 0.0000 0.0000
# 3 43.0940 26.7310 81.2559 0.0000 0.0000 0.0000
# 4 0.0000 0.0000 0.0000 26.5865 0.0000 0.0000
# 5 0.0000 0.0000 0.0000 0.0000 14.2067 0.0000
# 6 0.0000 0.0000 0.0000 0.0000 0.0000 18.3948
#
#
#
# Elastic Compliance Matrix: (Units=1/GPa)
#
#
# Indices 1 2 3 4 5 6 
#
# 1 0.013909 -0.005782 -0.005474 0.000000 0.000000 0.000000
# 2 -0.005782 0.032182 -0.007520 0.000000 0.000000 0.000000
# 3 -0.005474 -0.007520 0.017684 0.000000 0.000000 0.000000
# 4 0.000000 0.000000 0.000000 0.037613 0.000000 0.000000
# 5 0.000000 0.000000 0.000000 0.000000 0.070389 0.000000
# 6 0.000000 0.000000 0.000000 0.000000 0.000000 0.054363
#
#
# Mechanical properties :
#
#
# Convention : Reuss Voigt Hill
#
# Bulk Modulus (GPa) = 38.13783 46.67961 42.40872
# Shear Modulus (GPa) = 18.35310 20.25267 19.30289
#
# Velocity S-wave (km/s) = 3.08710 3.24293 3.16597
# Velocity P-wave (km/s) = 5.70181 6.18558 5.94861
#
# Compressibility (1/GPa) = 0.02622069
#
# Stress axis : x y z
#
# Youngs Moduli (GPa) = 71.89826 31.07349 56.54852
#
# Poissons Ratio (x) = 0.17968 0.30955
# Poissons Ratio (y) = 0.41575 0.42526
# Poissons Ratio (z) = 0.39358 0.23368
#
# Static dielectric constant tensor:
#      x y z
#    x 1.713500 0.000000 0.000000 
#    y 0.000000 1.708780 0.000000 
#    z 0.000000 0.000000 1.688020 
# 
# From -- ./inp_files/56660.got.cif
#   From: 2010.05.17/outbox.cif.g08.bks.cpg/sg71_29_cif.got.tgz:56660.got - 2010.06.03 16:22:01.
