data_PCOD9519190
_publ_section_title
;
Structure prediction by ZEFSAII (Michael W. Deem and Ramdas Pophale) SiO2 
 PCOD9519190
Probable space group: I M M M
;
_chemical_formula_sum "Si O2"
_cell_formula_units_Z 88
_cell_length_a 7.813920
_cell_length_b 36.941089
_cell_length_c 18.075935
_cell_angle_alpha 90.000000
_cell_angle_beta 90.000000
_cell_angle_gamma 90.000000
_cell_volume 5217.703851
_symmetry_space_group_name_H-M "I M M M"
_symmetry_group_IT_number 71
_symmetry_cell_setting 'orthorhombic'
loop_
_space_group_symop_operation_xyz
x,y,z
-x,-y,z
x,-y,-z
-x,y,-z
-x,-y,-z
x,y,-z
-x,y,z
x,-y,z
1/2+x,1/2+y,1/2+z
1/2-x,1/2-y,1/2+z
1/2+x,1/2-y,1/2-z
1/2-x,1/2+y,1/2-z
1/2-x,1/2-y,1/2-z
1/2+x,1/2+y,1/2-z
1/2-x,1/2+y,1/2+z
1/2+x,1/2-y,1/2+z
loop_
_atom_site_type_symbol
_atom_site_label
_atom_site_fract_x
_atom_site_fract_y
_atom_site_fract_z
Si Si1 0.706617 0.218303 0.915918
Si Si2 0.500000 0.854126 0.580644
Si Si3 0.700039 0.698995 0.877227
Si Si4 0.691360 0.543729 0.083176
Si Si5 0.500000 0.957095 0.693792
Si Si6 0.000000 0.384140 0.754285
Si Si7 0.192213 0.833064 0.783671
O O1 0.500000 0.215322 0.911473
O O2 0.747871 0.260016 0.897277
O O3 0.783322 0.191384 0.855835
O O4 0.759458 0.210362 0.000000
O O5 0.500000 0.872445 0.500000
O O6 0.331671 0.828801 0.586164
O O7 0.500000 0.876947 0.656509
O O8 0.500000 0.693196 0.898068
O O9 0.714546 0.692074 0.789178
O O10 0.500000 0.557086 0.101357
O O11 0.683368 0.500000 0.079380
O O12 0.833516 0.550950 0.143640
O O13 0.735400 0.556263 0.000000
O O14 0.500000 0.927121 0.757453
O O15 0.500000 0.000000 0.712681
O O16 0.165606 0.364005 0.722200
O O17 0.000000 0.847933 0.780920
#
# Coordination Sequence:
#
# PCOD9519190 Si02
#       7
#    16   8  16  16   8   8  16
#     4  10  19  31  50  76 104 129 163 211 250 279
#     4  10  20  32  48  68  95 134 172 210 253 285
#     4   9  19  33  49  70  98 132 171 209 244 284
#     4   8  14  25  42  67  97 122 147 187 241 297
#     4  10  19  31  51  71  89 121 163 211 256 300
#     4  10  22  38  49  67 100 127 168 210 251 313
#     4  10  20  35  53  69  96 139 169 196 244 300
#
# _framework density 16.865656000000001
#
# number of rings (size 3 to 8) (size 9 to 14) (size 15 to 20)
#    0.000    2.545    0.909    1.909    1.273    4.000 
#    0.000    0.000    0.000    0.000    0.000    0.000 
#    0.000    1.455    0.000    1.636    0.000    0.000 
#
# Total GULP energy -245409.127827 kJ/mol
# GULP energy per Si atom -5577.480178 kJ/mol
# Density = 1.682727 g / cm^3
# Si number density = 16.865656 Si / 1000 Ang^3
#
#
#
# Elastic Constant Matrix: (Units=GPa)
#
#
# Indices 1 2 3 4 5 6 
#
# 1 78.3631 40.0892 27.7694 0.0000 0.0000 0.0000
# 2 40.0892 70.5275 21.7510 0.0000 0.0000 0.0000
# 3 27.7694 21.7510 62.3636 0.0000 0.0000 0.0000
# 4 0.0000 0.0000 0.0000 3.3828 0.0000 0.0000
# 5 0.0000 0.0000 0.0000 0.0000 -0.0851 0.0000
# 6 0.0000 0.0000 0.0000 0.0000 0.0000 8.0699
#
#
#
# Elastic Compliance Matrix: (Units=1/GPa)
#
#
# Indices 1 2 3 4 5 6 
#
# 1 0.019489 -0.009414 -0.005395 0.000000 -0.000003 0.000000
# 2 -0.009414 0.020435 -0.002935 0.000000 0.000002 0.000000
# 3 -0.005395 -0.002935 0.019461 0.000000 0.000007 0.000000
# 4 0.000000 0.000000 0.000000 0.295612 0.000038 0.000000
# 5 -0.000003 0.000002 0.000007 0.000038-11.746295 0.000012
# 6 0.000000 0.000000 0.000000 0.000000 0.000012 0.123917
#
#
# Mechanical properties :
#
#
# Convention : Reuss Voigt Hill
#
# Bulk Modulus (GPa) = 41.84661 43.38593 42.61627
# Shear Modulus (GPa) = -0.44548 10.38316 4.96884
#
# Velocity S-wave (km/s) = -0.51450 2.48390 1.71829
# Velocity P-wave (km/s) = 4.95103 5.83152 5.40922
#
# Compressibility (1/GPa) = 0.02389680
#
# Stress axis : x y z
#
# Youngs Moduli (GPa) = 51.31123 48.93485 51.38495
#
# Poissons Ratio (x) = 0.46068 0.27720
# Poissons Ratio (y) = 0.48305 0.15084
# Poissons Ratio (z) = 0.27681 0.14364
#
# Static dielectric constant tensor:
#      x y z
#    x 1.608450 0.000000 0.000000 
#    y 0.000000 1.554920 0.000000 
#    z 0.000000 0.000000 1.558540 
# 
# From -- ./inp_files/42528.got.cif
#   From: 2010.05.17/outbox.cif.g08.bks.cpg/sg71_22_cif.got.tgz:42528.got - 2010.06.03 16:22:01.
