data_PCOD9519298
_publ_section_title
;
Structure prediction by ZEFSAII (Michael W. Deem and Ramdas Pophale) SiO2 
 PCOD9519298
Probable space group: I M M M
;
_chemical_formula_sum "Si O2"
_cell_formula_units_Z 108
_cell_length_a 23.536782
_cell_length_b 14.762392
_cell_length_c 14.944169
_cell_angle_alpha 90.000000
_cell_angle_beta 90.000000
_cell_angle_gamma 90.000000
_cell_volume 5192.489040
_symmetry_space_group_name_H-M "I M M M"
_symmetry_group_IT_number 71
_symmetry_cell_setting 'orthorhombic'
loop_
_space_group_symop_operation_xyz
x,y,z
-x,-y,z
x,-y,-z
-x,y,-z
-x,-y,-z
x,y,-z
-x,y,z
x,-y,z
1/2+x,1/2+y,1/2+z
1/2-x,1/2-y,1/2+z
1/2+x,1/2-y,1/2-z
1/2-x,1/2+y,1/2-z
1/2-x,1/2-y,1/2-z
1/2+x,1/2+y,1/2-z
1/2-x,1/2+y,1/2+z
1/2+x,1/2-y,1/2+z
loop_
_atom_site_type_symbol
_atom_site_label
_atom_site_fract_x
_atom_site_fract_y
_atom_site_fract_z
Si Si1 0.065529 0.894231 0.323505
Si Si2 0.864819 0.000000 0.000000
Si Si3 0.728159 0.396799 0.195719
Si Si4 0.064683 0.604907 0.609551
Si Si5 0.563330 0.000000 0.608457
Si Si6 0.355351 0.259378 0.899998
Si Si7 0.345307 0.852790 0.607128
Si Si8 0.149248 0.856126 0.157644
O O1 0.092789 0.830942 0.398369
O O2 0.103246 0.874494 0.235701
O O3 0.000000 0.872870 0.307521
O O4 0.070058 0.000000 0.345913
O O5 0.863752 0.078292 0.922681
O O6 0.708933 0.500000 0.172080
O O7 0.694690 0.314487 0.147629
O O8 0.792494 0.388110 0.165062
O O9 0.710516 0.381003 0.298574
O O10 0.065618 0.609964 0.500000
O O11 0.073647 0.500000 0.634087
O O12 0.115164 0.670517 0.642119
O O13 0.000000 0.631000 0.636503
O O14 0.599508 0.088641 0.631654
O O15 0.500000 0.000000 0.645982
O O16 0.559474 0.000000 0.500000
O O17 0.336392 0.237599 0.000000
O O18 0.334208 0.865634 0.500000
O O19 0.352626 0.747454 0.627970
#
# Coordination Sequence:
#
# PCOD9519298 Si02
#       8
#    16   4  16  16   8  16  16  16
#     4  10  21  37  55  80 119 161 199 255 328 383
#     4  12  20  42  69  92 118 158 215 266 306 380
#     4  11  22  39  61  90 129 169 202 253 322 382
#     4   8  14  26  46  71 103 150 209 269 318 359
#     4   9  20  39  62  95 129 159 205 270 324 374
#     4  10  19  31  54  84 119 161 215 262 306 381
#     4  11  22  38  67  96 126 167 212 253 317 402
#     4  11  22  40  65  91 123 162 209 265 321 373
#
# _framework density 20.799271999999998
#
# number of rings (size 3 to 8) (size 9 to 14) (size 15 to 20)
#    0.000    1.852    2.963    3.111    0.000    3.259 
#    0.000    1.481    8.148    0.000    0.000    0.000 
#    0.000    0.000    0.000    2.667    0.000    0.000 
#
# Total GULP energy -300940.520588 kJ/mol
# GULP energy per Si atom -5572.972603 kJ/mol
# Density = 2.075193 g / cm^3
# Si number density = 20.799272 Si / 1000 Ang^3
#
#
#
# Elastic Constant Matrix: (Units=GPa)
#
#
# Indices 1 2 3 4 5 6 
#
# 1 112.1714 42.2717 7.6629 0.0000 0.0000 0.0000
# 2 42.2717 137.9148 10.5079 0.0000 0.0000 0.0000
# 3 7.6629 10.5079 42.3458 0.0000 0.0000 0.0000
# 4 0.0000 0.0000 0.0000 25.6954 0.0000 0.0000
# 5 0.0000 0.0000 0.0000 0.0000 -6.4557 0.0000
# 6 0.0000 0.0000 0.0000 0.0000 0.0000 16.4132
#
#
#
# Elastic Compliance Matrix: (Units=1/GPa)
#
#
# Indices 1 2 3 4 5 6 
#
# 1 0.010128 -0.003022 -0.001083 0.000000 0.000000 0.000000
# 2 -0.003022 0.008292 -0.001511 0.000000 0.000000 0.000000
# 3 -0.001083 -0.001511 0.024186 0.000000 0.000000 0.000000
# 4 0.000000 0.000000 0.000000 0.038918 0.000000 0.000000
# 5 0.000000 0.000000 0.000000 0.000000 -0.154902 0.000000
# 6 0.000000 0.000000 0.000000 0.000000 0.000000 0.060927
#
#
# Mechanical properties :
#
#
# Convention : Reuss Voigt Hill
#
# Bulk Modulus (GPa) = 31.87258 45.92411 38.89835
# Shear Modulus (GPa) = 541.29304 22.59654 281.94479
#
# Velocity S-wave (km/s) = 16.14965 3.29965 11.65545
# Velocity P-wave (km/s) = 19.05532 6.05347 14.13771
#
# Compressibility (1/GPa) = 0.03137493
#
# Stress axis : x y z
#
# Youngs Moduli (GPa) = 98.73996 120.59638 41.34625
#
# Poissons Ratio (x) = 0.36440 0.04477
# Poissons Ratio (y) = 0.29836 0.06247
# Poissons Ratio (z) = 0.10692 0.18220
#
# Static dielectric constant tensor:
#      x y z
#    x 1.762420 0.000000 0.000000 
#    y 0.000000 1.741120 0.000000 
#    z 0.000000 0.000000 1.876580 
# 
# From -- ./inp_files/39311.got.cif
#   From: 2010.05.17/outbox.cif.g08.bks.cpg/sg71_20_cif.got.tgz:39311.got - 2010.06.03 16:22:01.
