data_PCOD9519072
_publ_section_title
;
Structure prediction by ZEFSAII (Michael W. Deem and Ramdas Pophale) SiO2 
 PCOD9519072
Probable space group: I M M M
;
_chemical_formula_sum "Si O2"
_cell_formula_units_Z 120
_cell_length_a 18.606941
_cell_length_b 19.600186
_cell_length_c 21.177380
_cell_angle_alpha 90.000000
_cell_angle_beta 90.000000
_cell_angle_gamma 90.000000
_cell_volume 7723.379992
_symmetry_space_group_name_H-M "I M M M"
_symmetry_group_IT_number 71
_symmetry_cell_setting 'orthorhombic'
loop_
_space_group_symop_operation_xyz
x,y,z
-x,-y,z
x,-y,-z
-x,y,-z
-x,-y,-z
x,y,-z
-x,y,z
x,-y,z
1/2+x,1/2+y,1/2+z
1/2-x,1/2-y,1/2+z
1/2+x,1/2-y,1/2-z
1/2-x,1/2+y,1/2-z
1/2-x,1/2-y,1/2-z
1/2+x,1/2+y,1/2-z
1/2-x,1/2+y,1/2+z
1/2+x,1/2-y,1/2+z
loop_
_atom_site_type_symbol
_atom_site_label
_atom_site_fract_x
_atom_site_fract_y
_atom_site_fract_z
Si Si1 0.154382 0.919775 0.748196
Si Si2 0.417877 0.580535 0.885265
Si Si3 0.871354 0.424157 0.073383
Si Si4 0.579595 0.806493 0.661404
Si Si5 0.414997 0.649224 0.370225
Si Si6 0.724632 0.653262 0.928862
Si Si7 0.087477 0.079299 0.000000
Si Si8 0.268381 0.812415 0.294941
O O1 0.098748 0.912337 0.689668
O O2 0.124310 0.884871 0.811061
O O3 0.225236 0.879166 0.726700
O O4 0.166865 0.000000 0.757527
O O5 0.500000 0.601347 0.899191
O O6 0.410871 0.500000 0.900616
O O7 0.354581 0.622025 0.919446
O O8 0.883556 0.500000 0.099189
O O9 0.913378 0.364945 0.108964
O O10 0.786454 0.405077 0.076646
O O11 0.891240 0.423712 0.000000
O O12 0.500000 0.806921 0.689688
O O13 0.592096 0.731057 0.632766
O O14 0.646169 0.821158 0.706791
O O15 0.500000 0.633779 0.364399
O O16 0.389338 0.617846 0.436424
O O17 0.743906 0.699696 0.868086
O O18 0.731504 0.682111 0.000000
O O19 0.000000 0.080708 0.000000
O O20 0.109289 0.000000 0.000000
O O21 0.250000 0.750000 0.250000
#
# Coordination Sequence:
#
# PCOD9519072 Si02
#       8
#    16  16  16  16  16  16   8  16
#     4  10  19  32  52  72  93 127 169 210 246 291
#     4   9  17  27  42  68  98 127 161 201 243 287
#     4   9  18  32  49  68  94 131 172 208 241 286
#     4  10  21  33  49  72  97 125 160 202 252 296
#     4  10  19  31  48  71 101 133 163 201 248 300
#     4   9  18  31  48  68  94 126 165 205 247 291
#     4   9  18  30  44  66  99 135 164 194 241 296
#     4  10  19  36  53  70  96 129 166 204 241 295
#
# _framework density 15.537239
#
# number of rings (size 3 to 8) (size 9 to 14) (size 15 to 20)
#    0.000    2.467    1.333    1.200    0.933    6.133 
#    0.000    1.333    0.000    0.000    0.000    0.000 
#    0.000    0.000    0.000    0.000    0.000    2.933 
#
# Total GULP energy -334248.735623 kJ/mol
# GULP energy per Si atom -5570.812260 kJ/mol
# Density = 1.550188 g / cm^3
# Si number density = 15.537239 Si / 1000 Ang^3
#
#
#
# Elastic Constant Matrix: (Units=GPa)
#
#
# Indices 1 2 3 4 5 6 
#
# 1 96.3743 26.9399 21.7546 0.0000 0.0000 0.0000
# 2 26.9399 80.9056 37.8756 0.0000 0.0000 0.0000
# 3 21.7546 37.8756 90.1401 0.0000 0.0000 0.0000
# 4 0.0000 0.0000 0.0000 20.8996 0.0000 0.0000
# 5 0.0000 0.0000 0.0000 0.0000 12.6679 0.0000
# 6 0.0000 0.0000 0.0000 0.0000 0.0000 14.5631
#
#
#
# Elastic Compliance Matrix: (Units=1/GPa)
#
#
# Indices 1 2 3 4 5 6 
#
# 1 0.011594 -0.003175 -0.001464 0.000000 0.000000 0.000000
# 2 -0.003175 0.016256 -0.006064 0.000000 0.000000 0.000000
# 3 -0.001464 -0.006064 0.013995 0.000000 0.000000 0.000000
# 4 0.000000 0.000000 0.000000 0.047848 0.000000 0.000000
# 5 0.000000 0.000000 0.000000 0.000000 0.078940 0.000000
# 6 0.000000 0.000000 0.000000 0.000000 0.000000 0.068667
#
#
# Mechanical properties :
#
#
# Convention : Reuss Voigt Hill
#
# Bulk Modulus (GPa) = 48.92679 48.95114 48.93897
# Shear Modulus (GPa) = 18.83096 21.68279 20.25688
#
# Velocity S-wave (km/s) = 3.48514 3.73974 3.61468
# Velocity P-wave (km/s) = 6.91038 7.08672 6.99911
#
# Compressibility (1/GPa) = 0.02043870
#
# Stress axis : x y z
#
# Youngs Moduli (GPa) = 86.24947 61.51427 71.45244
#
# Poissons Ratio (x) = 0.19533 0.10460
# Poissons Ratio (y) = 0.27387 0.43331
# Poissons Ratio (z) = 0.12627 0.37305
#
# Static dielectric constant tensor:
#      x y z
#    x 1.531860 0.000000 0.000000 
#    y 0.000000 1.511290 0.000000 
#    z 0.000000 0.000000 1.531360 
# 
# From -- ./inp_files/47562.got.cif
#   From: 2010.05.17/outbox.cif.g08.bks.cpg/sg71_24_cif.got.tgz:47562.got - 2010.06.03 16:22:01.
