data_PCOD9519188
_publ_section_title
;
Structure prediction by ZEFSAII (Michael W. Deem and Ramdas Pophale) SiO2 
 PCOD9519188
Probable space group: I M M M
;
_chemical_formula_sum "Si O2"
_cell_formula_units_Z 88
_cell_length_a 27.525197
_cell_length_b 7.366544
_cell_length_c 20.145646
_cell_angle_alpha 90.000000
_cell_angle_beta 90.000000
_cell_angle_gamma 90.000000
_cell_volume 4084.843491
_symmetry_space_group_name_H-M "I M M M"
_symmetry_group_IT_number 71
_symmetry_cell_setting 'orthorhombic'
loop_
_space_group_symop_operation_xyz
x,y,z
-x,-y,z
x,-y,-z
-x,y,-z
-x,-y,-z
x,y,-z
-x,y,z
x,-y,z
1/2+x,1/2+y,1/2+z
1/2-x,1/2-y,1/2+z
1/2+x,1/2-y,1/2-z
1/2-x,1/2+y,1/2-z
1/2-x,1/2-y,1/2-z
1/2+x,1/2+y,1/2-z
1/2-x,1/2+y,1/2+z
1/2+x,1/2-y,1/2+z
loop_
_atom_site_type_symbol
_atom_site_label
_atom_site_fract_x
_atom_site_fract_y
_atom_site_fract_z
Si Si1 0.611817 0.707807 0.700431
Si Si2 0.302498 0.721619 0.923673
Si Si3 0.556783 0.279022 0.427336
Si Si4 0.722746 0.784827 0.319113
Si Si5 0.098729 0.777905 0.650286
Si Si6 0.500000 0.278724 0.076777
O O1 0.594156 0.500000 0.704931
O O2 0.585239 0.789433 0.636702
O O3 0.669078 0.706325 0.686078
O O4 0.602221 0.785597 0.773506
O O5 0.302344 0.500000 0.922909
O O6 0.257198 0.781331 0.878587
O O7 0.353151 0.778180 0.889797
O O8 0.299415 0.778857 0.000000
O O9 0.574785 0.218569 0.500000
O O10 0.500000 0.233129 0.422164
O O11 0.559990 0.500000 0.427739
O O12 0.750000 0.750000 0.250000
O O13 0.716919 0.000000 0.327202
O O14 0.049039 0.722126 0.614468
O O15 0.099551 0.000000 0.650676
O O16 0.500000 0.500000 0.076776
O O17 0.500000 0.221350 0.000000
#
# Coordination Sequence:
#
# PCOD9519188 Si02
#       6
#    16  16  16  16  16   8
#     4  10  19  31  50  76 102 131 167 210 253 297
#     4   9  17  30  48  69  95 128 163 199 243 297
#     4   8  15  28  47  73 105 138 169 205 252 303
#     4  11  21  35  53  74 100 133 169 208 252 301
#     4   9  16  26  42  68  99 128 159 197 245 293
#     4   9  16  24  38  66 102 130 154 197 251 293
#
# _framework density 21.543053
#
# number of rings (size 3 to 8) (size 9 to 14) (size 15 to 20)
#    0.000    2.636    1.818    1.636    1.273    2.909 
#    0.000    0.000    0.000    2.182    0.000    1.273 
#    0.000    0.727    0.000    0.000    0.000    0.000 
#
# Total GULP energy -245743.328976 kJ/mol
# GULP energy per Si atom -5585.075659 kJ/mol
# Density = 2.149402 g / cm^3
# Si number density = 21.543053 Si / 1000 Ang^3
#
#
#
# Elastic Constant Matrix: (Units=GPa)
#
#
# Indices 1 2 3 4 5 6 
#
# 1 127.3283 -6.7846 122.4081 0.0000 0.0000 0.0000
# 2 -6.7846 78.2854 3.6211 0.0000 0.0000 0.0000
# 3 122.4081 3.6211 269.5957 0.0000 0.0000 0.0000
# 4 0.0000 0.0000 0.0000 -6.0905 0.0000 0.0000
# 5 0.0000 0.0000 0.0000 0.0000 45.1892 0.0000
# 6 0.0000 0.0000 0.0000 0.0000 0.0000 8.8758
#
#
#
# Elastic Compliance Matrix: (Units=1/GPa)
#
#
# Indices 1 2 3 4 5 6 
#
# 1 0.014116 0.001521 -0.006430 0.000000 0.000000 0.000000
# 2 0.001521 0.012946 -0.000864 0.000000 0.000000 0.000000
# 3 -0.006430 -0.000864 0.006640 0.000000 0.000000 0.000000
# 4 0.000000 0.000000 0.000000 -0.164190 0.000000 0.000000
# 5 0.000000 0.000000 0.000000 0.000000 0.022129 0.000000
# 6 0.000000 0.000000 0.000000 0.000000 0.000000 0.112666
#
#
# Mechanical properties :
#
#
# Convention : Reuss Voigt Hill
#
# Bulk Modulus (GPa) = 45.13624 79.29985 62.21804
# Shear Modulus (GPa) = 215.15744 33.32588 124.24166
#
# Velocity S-wave (km/s) = 10.00450 3.93739 7.60240
# Velocity P-wave (km/s) = 12.42781 7.58687 10.29590
#
# Compressibility (1/GPa) = 0.02215515
#
# Stress axis : x y z
#
# Youngs Moduli (GPa) = 70.84170 77.24666 150.59728
#
# Poissons Ratio (x) = -0.11747 0.96829
# Poissons Ratio (y) = -0.10773 0.13017
# Poissons Ratio (z) = 0.45549 0.06677
#
# Static dielectric constant tensor:
#      x y z
#    x 1.741680 0.000000 0.000000 
#    y 0.000000 1.894980 0.000000 
#    z 0.000000 0.000000 1.758080 
# 
# From -- ./inp_files/10469.got.cif
#   From: 2010.05.17/outbox.cif.g08.bks.cpg/sg71_6_cif.got.tgz:10469.got - 2010.06.03 16:22:01.
