data_PCOD9519584
_publ_section_title
;
Structure prediction by ZEFSAII (Michael W. Deem and Ramdas Pophale) SiO2 
 PCOD9519584
Probable space group: I M M M
;
_chemical_formula_sum "Si O2"
_cell_formula_units_Z 96
_cell_length_a 25.736929
_cell_length_b 25.089015
_cell_length_c 8.600840
_cell_angle_alpha 90.000000
_cell_angle_beta 90.000000
_cell_angle_gamma 90.000000
_cell_volume 5553.684500
_symmetry_space_group_name_H-M "I M M M"
_symmetry_group_IT_number 71
_symmetry_cell_setting 'orthorhombic'
loop_
_space_group_symop_operation_xyz
x,y,z
-x,-y,z
x,-y,-z
-x,y,-z
-x,-y,-z
x,y,-z
-x,y,z
x,-y,z
1/2+x,1/2+y,1/2+z
1/2-x,1/2-y,1/2+z
1/2+x,1/2-y,1/2-z
1/2-x,1/2+y,1/2-z
1/2-x,1/2-y,1/2-z
1/2+x,1/2+y,1/2-z
1/2-x,1/2+y,1/2+z
1/2+x,1/2-y,1/2+z
loop_
_atom_site_type_symbol
_atom_site_label
_atom_site_fract_x
_atom_site_fract_y
_atom_site_fract_z
Si Si1 0.109698 0.099813 0.812335
Si Si2 0.215634 0.500000 0.682765
Si Si3 0.171992 0.000000 0.316877
Si Si4 0.311539 0.306573 0.312618
Si Si5 0.500000 0.563845 0.812384
Si Si6 0.306746 0.188159 0.814391
Si Si7 0.440822 0.000000 0.310270
Si Si8 0.141268 0.412622 0.185517
O O1 0.139464 0.051411 0.730997
O O2 0.142319 0.152949 0.770132
O O3 0.050784 0.093301 0.754533
O O4 0.111315 0.094451 0.000000
O O5 0.205142 0.500000 0.500000
O O6 0.275869 0.500000 0.717796
O O7 0.189346 0.551251 0.759811
O O8 0.183445 0.000000 0.500000
O O9 0.311081 0.302699 0.500000
O O10 0.318183 0.247710 0.243734
O O11 0.253109 0.325235 0.264900
O O12 0.500000 0.500000 0.769715
O O13 0.500000 0.565979 0.000000
O O14 0.347807 0.145644 0.750959
O O15 0.307849 0.186710 0.000000
O O16 0.408795 0.947207 0.261912
O O17 0.500000 0.000000 0.256610
O O18 0.440849 0.000000 0.500000
O O19 0.139737 0.410025 0.000000
#
# Coordination Sequence:
#
# PCOD9519584 Si02
#       8
#    16   8   8  16   8  16   8  16
#     4  11  22  37  58  80 105 141 185 230 274 323
#     4  11  21  33  49  75 111 145 178 216 266 326
#     4  12  23  34  51  78 111 142 176 219 271 328
#     4   9  20  36  54  79 108 140 180 221 262 316
#     4  11  23  39  57  79 108 142 182 231 282 331
#     4  10  19  33  55  81 112 146 176 213 265 323
#     4   8  16  32  54  79 104 135 178 220 263 310
#     4  10  19  32  53  79 108 141 177 221 268 320
#
# _framework density 17.285820999999999
#
# number of rings (size 3 to 8) (size 9 to 14) (size 15 to 20)
#    0.000    1.833    0.833    4.750    0.000    3.667 
#    0.000    0.000    1.833    9.000    0.000    0.000 
#    0.000    0.000    0.000    0.000    0.000    0.000 
#
# Total GULP energy -267849.393608 kJ/mol
# GULP energy per Si atom -5580.195700 kJ/mol
# Density = 1.724648 g / cm^3
# Si number density = 17.285821 Si / 1000 Ang^3
#
#
#
# Elastic Constant Matrix: (Units=GPa)
#
#
# Indices 1 2 3 4 5 6 
#
# 1 110.0229 67.6641 12.7592 0.0000 0.0000 0.0000
# 2 67.6641 119.0188 35.8371 0.0000 0.0000 0.0000
# 3 12.7592 35.8371 34.8801 0.0000 0.0000 0.0000
# 4 0.0000 0.0000 0.0000 70.5594 0.0000 0.0000
# 5 0.0000 0.0000 0.0000 0.0000 22.0581 0.0000
# 6 0.0000 0.0000 0.0000 0.0000 0.0000 45.4203
#
#
#
# Elastic Compliance Matrix: (Units=1/GPa)
#
#
# Indices 1 2 3 4 5 6 
#
# 1 0.014462 -0.009598 0.004571 0.000000 0.000000 0.000000
# 2 -0.009598 0.018536 -0.015533 0.000000 0.000000 0.000000
# 3 0.004571 -0.015533 0.042957 0.000000 0.000000 0.000000
# 4 0.000000 0.000000 0.000000 0.014172 0.000000 0.000000
# 5 0.000000 0.000000 0.000000 0.000000 0.045335 0.000000
# 6 0.000000 0.000000 0.000000 0.000000 0.000000 0.022017
#
#
# Mechanical properties :
#
#
# Convention : Reuss Voigt Hill
#
# Bulk Modulus (GPa) = 28.70736 55.16028 41.93382
# Shear Modulus (GPa) = 23.78563 37.45163 30.61863
#
# Velocity S-wave (km/s) = 3.71350 4.65974 4.21326
# Velocity P-wave (km/s) = 5.91864 7.80582 6.92680
#
# Compressibility (1/GPa) = 0.03483427
#
# Stress axis : x y z
#
# Youngs Moduli (GPa) = 69.14768 53.94910 23.27903
#
# Poissons Ratio (x) = 0.51782 -0.10642
# Poissons Ratio (y) = 0.66370 0.36160
# Poissons Ratio (z) = -0.31610 0.83802
#
# Static dielectric constant tensor:
#      x y z
#    x 1.596250 0.000000 0.000000 
#    y 0.000000 1.577910 0.000000 
#    z 0.000000 0.000000 1.580540 
# 
# From -- ./inp_files/12965.got.cif
#   From: 2010.05.17/outbox.cif.g08.bks.cpg/sg71_7_cif.got.tgz:12965.got - 2010.06.03 16:22:01.
