data_PCOD9519833
_publ_section_title
;
Structure prediction by ZEFSAII (Michael W. Deem and Ramdas Pophale) SiO2 
 PCOD9519833
Probable space group: I M M M
;
_chemical_formula_sum "Si O2"
_cell_formula_units_Z 96
_cell_length_a 7.713711
_cell_length_b 19.554820
_cell_length_c 30.966954
_cell_angle_alpha 90.000000
_cell_angle_beta 90.000000
_cell_angle_gamma 90.000000
_cell_volume 4671.062468
_symmetry_space_group_name_H-M "I M M M"
_symmetry_group_IT_number 71
_symmetry_cell_setting 'orthorhombic'
loop_
_space_group_symop_operation_xyz
x,y,z
-x,-y,z
x,-y,-z
-x,y,-z
-x,-y,-z
x,y,-z
-x,y,z
x,-y,z
1/2+x,1/2+y,1/2+z
1/2-x,1/2-y,1/2+z
1/2+x,1/2-y,1/2-z
1/2-x,1/2+y,1/2-z
1/2-x,1/2-y,1/2-z
1/2+x,1/2+y,1/2-z
1/2-x,1/2+y,1/2+z
1/2+x,1/2-y,1/2+z
loop_
_atom_site_type_symbol
_atom_site_label
_atom_site_fract_x
_atom_site_fract_y
_atom_site_fract_z
Si Si1 0.291720 0.574149 0.071126
Si Si2 0.708518 0.689969 0.619337
Si Si3 0.211137 0.079102 0.049197
Si Si4 0.704237 0.725276 0.797703
Si Si5 0.710242 0.423885 0.826632
Si Si6 0.799334 0.718151 0.955003
O O1 0.500000 0.579377 0.066196
O O2 0.236770 0.500000 0.055308
O O3 0.253315 0.578342 0.122169
O O4 0.207848 0.637453 0.048066
O O5 0.500000 0.685127 0.620532
O O6 0.767603 0.624563 0.590476
O O7 0.753681 0.715537 0.667234
O O8 0.774553 0.751257 0.588524
O O9 0.000000 0.081569 0.048870
O O10 0.262431 0.000000 0.054597
O O11 0.264096 0.100309 0.000000
O O12 0.500000 0.716540 0.800199
O O13 0.750000 0.750000 0.750000
O O14 0.777422 0.648490 0.807608
O O15 0.500000 0.424889 0.821882
O O16 0.770422 0.500000 0.810932
O O17 0.000000 0.740527 0.955834
O O18 0.717223 0.740451 0.000000
#
# Coordination Sequence:
#
# PCOD9519833 Si02
#       6
#    16  16  16  16  16  16
#     4   9  17  31  50  70  94 128 173 217 249 282
#     4  10  19  33  53  77 106 137 173 216 263 312
#     4   8  14  27  51  82 111 141 181 224 261 305
#     4  11  22  37  58  81 106 134 170 218 271 321
#     4   8  15  31  55  77  96 126 170 214 252 293
#     4  10  20  31  45  70 105 140 170 205 253 306
#
# _framework density 20.552070000000001
#
# number of rings (size 3 to 8) (size 9 to 14) (size 15 to 20)
#    0.000    2.667    1.667    2.500    0.000    3.000 
#    0.000    2.500    0.000    9.000    0.000    1.167 
#    0.000    0.000    0.000    0.000    0.000    0.000 
#
# Total GULP energy -267252.971270 kJ/mol
# GULP energy per Si atom -5567.770235 kJ/mol
# Density = 2.050529 g / cm^3
# Si number density = 20.552070 Si / 1000 Ang^3
#
#
#
# Elastic Constant Matrix: (Units=GPa)
#
#
# Indices 1 2 3 4 5 6 
#
# 1 31.5791 8.5266 10.3028 0.0000 0.0000 0.0000
# 2 8.5266 158.1212 76.9089 0.0000 0.0000 0.0000
# 3 10.3028 76.9089 156.9459 0.0000 0.0000 0.0000
# 4 0.0000 0.0000 0.0000 26.2597 0.0000 0.0000
# 5 0.0000 0.0000 0.0000 0.0000 -1.4810 0.0000
# 6 0.0000 0.0000 0.0000 0.0000 0.0000 1.1606
#
#
#
# Elastic Compliance Matrix: (Units=1/GPa)
#
#
# Indices 1 2 3 4 5 6 
#
# 1 0.032465 -0.000938 -0.001672 0.000000 0.000000 0.000000
# 2 -0.000938 0.008330 -0.004021 0.000000 0.000000 0.000000
# 3 -0.001672 -0.004021 0.008452 0.000000 0.000000 0.000000
# 4 0.000000 0.000000 0.000000 0.038081 0.000000 0.000000
# 5 0.000000 0.000000 0.000000 0.000000 -0.675204 0.000000
# 6 0.000000 0.000000 0.000000 0.000000 0.000000 0.861614
#
#
# Mechanical properties :
#
#
# Convention : Reuss Voigt Hill
#
# Bulk Modulus (GPa) = 27.78762 59.79143 43.78953
# Shear Modulus (GPa) = 16.72272 21.91506 19.31889
#
# Velocity S-wave (km/s) = 2.85559 3.26900 3.06926
# Velocity P-wave (km/s) = 4.94191 6.58819 5.82352
#
# Compressibility (1/GPa) = 0.03598724
#
# Stress axis : x y z
#
# Youngs Moduli (GPa) = 30.80231 120.04184 118.32043
#
# Poissons Ratio (x) = 0.11254 0.19781
# Poissons Ratio (y) = 0.02888 0.47573
# Poissons Ratio (z) = 0.05149 0.48265
#
# Static dielectric constant tensor:
#      x y z
#    x 1.786810 0.000000 0.000000 
#    y 0.000000 1.781520 0.000000 
#    z 0.000000 0.000000 1.723910 
# 
# From -- ./inp_files/63211.got.cif
#   From: 2010.05.17/outbox.cif.g08.bks.cpg/sg71_32_cif.got.tgz:63211.got - 2010.06.03 16:22:01.
