data_PCOD9519657
_publ_section_title
;
Structure prediction by ZEFSAII (Michael W. Deem and Ramdas Pophale) SiO2 
 PCOD9519657
Probable space group: I M M M
;
_chemical_formula_sum "Si O2"
_cell_formula_units_Z 96
_cell_length_a 17.195346
_cell_length_b 27.725735
_cell_length_c 10.914393
_cell_angle_alpha 90.000000
_cell_angle_beta 90.000000
_cell_angle_gamma 90.000000
_cell_volume 5203.476225
_symmetry_space_group_name_H-M "I M M M"
_symmetry_group_IT_number 71
_symmetry_cell_setting 'orthorhombic'
loop_
_space_group_symop_operation_xyz
x,y,z
-x,-y,z
x,-y,-z
-x,y,-z
-x,-y,-z
x,y,-z
-x,y,z
x,-y,z
1/2+x,1/2+y,1/2+z
1/2-x,1/2-y,1/2+z
1/2+x,1/2-y,1/2-z
1/2-x,1/2+y,1/2-z
1/2-x,1/2-y,1/2-z
1/2+x,1/2+y,1/2-z
1/2-x,1/2+y,1/2+z
1/2+x,1/2-y,1/2+z
loop_
_atom_site_type_symbol
_atom_site_label
_atom_site_fract_x
_atom_site_fract_y
_atom_site_fract_z
Si Si1 0.089584 0.000000 0.648464
Si Si2 0.157707 0.806707 0.743895
Si Si3 0.193774 0.907728 0.645864
Si Si4 0.677963 0.791020 0.861297
Si Si5 0.500000 0.942570 0.856454
Si Si6 0.092993 0.329031 0.000000
Si Si7 0.360184 0.884606 0.746052
Si Si8 0.407645 0.281922 0.500000
O O1 0.138274 0.047866 0.682167
O O2 0.086137 0.000000 0.500000
O O3 0.000000 0.000000 0.692804
O O4 0.151712 0.856354 0.670783
O O5 0.249305 0.798923 0.770733
O O6 0.132535 0.757269 0.677287
O O7 0.119009 0.808071 0.876732
O O8 0.211183 0.911553 0.500000
O O9 0.274025 0.906425 0.723743
O O10 0.634876 0.841531 0.845632
O O11 0.705657 0.784596 0.000000
O O12 0.424134 0.922852 0.786298
O O13 0.500000 0.000000 0.853379
O O14 0.500000 0.927690 0.000000
O O15 0.119689 0.357706 0.880761
O O16 0.122883 0.273686 0.000000
O O17 0.000000 0.327012 0.000000
O O18 0.500000 0.279166 0.500000
#
# Coordination Sequence:
#
# PCOD9519657 Si02
#       8
#     8  16  16  16   8   8  16   8
#     4   9  20  40  62  84 115 152 186 240 316 370
#     4  10  20  33  54  85 115 151 195 236 298 352
#     4  10  21  36  62  93 119 150 198 253 304 366
#     4  10  19  32  55  81 116 151 195 240 285 355
#     4  11  26  45  61  83 123 172 215 254 303 350
#     4  11  20  36  56  84 125 166 199 241 301 361
#     4  11  21  36  60  88 121 161 201 247 298 356
#     4  11  22  36  54  81 124 164 198 238 300 367
#
# _framework density 18.449206
#
# number of rings (size 3 to 8) (size 9 to 14) (size 15 to 20)
#    0.000    1.667    4.167    1.000    1.167    0.667 
#    0.000    0.833    0.000    1.500    0.000    1.167 
#    0.000    0.000    0.000    0.000    0.000    0.000 
#
# Total GULP energy -267642.059766 kJ/mol
# GULP energy per Si atom -5575.876245 kJ/mol
# Density = 1.840721 g / cm^3
# Si number density = 18.449206 Si / 1000 Ang^3
#
#
#
# Elastic Constant Matrix: (Units=GPa)
#
#
# Indices 1 2 3 4 5 6 
#
# 1 87.6259 58.5838 19.2960 0.0000 0.0000 0.0000
# 2 58.5838 126.8630 30.2646 0.0001 0.0000 0.0000
# 3 19.2960 30.2646 59.5027 0.0007 0.0001 -0.0002
# 4 0.0000 0.0001 0.0007 18.9065 0.0000 0.0000
# 5 0.0000 0.0000 0.0001 0.0000 13.0359 0.0000
# 6 0.0000 0.0000 -0.0002 0.0000 0.0000 23.1514
#
#
#
# Elastic Compliance Matrix: (Units=1/GPa)
#
#
# Indices 1 2 3 4 5 6 
#
# 1 0.016658 -0.007288 -0.001695 0.000000 0.000000 0.000000
# 2 -0.007288 0.012160 -0.003821 0.000000 0.000000 0.000000
# 3 -0.001695 -0.003821 0.019299 -0.000001 0.000000 0.000000
# 4 0.000000 0.000000 -0.000001 0.052892 0.000000 0.000000
# 5 0.000000 0.000000 0.000000 0.000000 0.076711 0.000000
# 6 0.000000 0.000000 0.000000 0.000000 0.000000 0.043194
#
#
# Mechanical properties :
#
#
# Convention : Reuss Voigt Hill
#
# Bulk Modulus (GPa) = 44.42860 54.47562 49.45211
# Shear Modulus (GPa) = 19.68306 22.07523 20.87915
#
# Velocity S-wave (km/s) = 3.26985 3.46286 3.36774
# Velocity P-wave (km/s) = 6.19595 6.75129 6.47957
#
# Compressibility (1/GPa) = 0.02250802
#
# Stress axis : x y z
#
# Youngs Moduli (GPa) = 60.03119 82.23893 51.81545
#
# Poissons Ratio (x) = 0.59936 0.08783
# Poissons Ratio (y) = 0.43751 0.19800
# Poissons Ratio (z) = 0.10176 0.31426
#
# Static dielectric constant tensor:
#      x y z
#    x 1.648360 0.000000 0.000000 
#    y 0.000000 1.659770 0.000000 
#    z 0.000000 0.000000 1.631130 
# 
# From -- ./inp_files/24296.got.cif
#   From: 2010.05.17/outbox.cif.g08.bks.cpg/sg71_13_cif.got.tgz:24296.got - 2010.06.03 16:22:01.
