data_PCOD9519360
_publ_section_title
;
Structure prediction by ZEFSAII (Michael W. Deem and Ramdas Pophale) SiO2 
 PCOD9519360
Probable space group: I M M M
;
_chemical_formula_sum "Si O2"
_cell_formula_units_Z 88
_cell_length_a 25.552999
_cell_length_b 18.812517
_cell_length_c 7.259887
_cell_angle_alpha 90.000000
_cell_angle_beta 90.000000
_cell_angle_gamma 90.000000
_cell_volume 3489.945495
_symmetry_space_group_name_H-M "I M M M"
_symmetry_group_IT_number 71
_symmetry_cell_setting 'orthorhombic'
loop_
_space_group_symop_operation_xyz
x,y,z
-x,-y,z
x,-y,-z
-x,y,-z
-x,-y,-z
x,y,-z
-x,y,z
x,-y,z
1/2+x,1/2+y,1/2+z
1/2-x,1/2-y,1/2+z
1/2+x,1/2-y,1/2-z
1/2-x,1/2+y,1/2-z
1/2-x,1/2-y,1/2-z
1/2+x,1/2+y,1/2-z
1/2-x,1/2+y,1/2+z
1/2+x,1/2-y,1/2+z
loop_
_atom_site_type_symbol
_atom_site_label
_atom_site_fract_x
_atom_site_fract_y
_atom_site_fract_z
Si Si1 0.943206 0.084896 0.778734
Si Si2 0.436171 0.000000 0.209162
Si Si3 0.440995 0.843439 0.224724
Si Si4 0.330093 0.622638 0.709544
Si Si5 0.336679 0.220367 0.221983
Si Si6 0.779920 0.576645 0.275042
O O1 0.888077 0.115184 0.707982
O O2 0.000000 0.111714 0.710050
O O3 0.941710 0.000000 0.746260
O O4 0.944097 0.095821 0.000000
O O5 0.424109 0.077334 0.287882
O O6 0.500000 0.000000 0.199837
O O7 0.415002 0.000000 0.000000
O O8 0.500000 0.828369 0.284334
O O9 0.397396 0.787364 0.277911
O O10 0.441607 0.846971 0.000000
O O11 0.335002 0.596295 0.500000
O O12 0.314866 0.705609 0.708009
O O13 0.280298 0.582136 0.787792
O O14 0.308912 0.148123 0.283758
O O15 0.333844 0.222822 0.000000
O O16 0.780439 0.578376 0.500000
O O17 0.802625 0.500000 0.220750
#
# Coordination Sequence:
#
# PCOD9519360 Si02
#       6
#    16   8  16  16  16  16
#     4   8  14  26  47  74  97 119 157 204 237 266
#     4   7  10  18  34  56  81 109 143 183 220 252
#     4   8  14  24  39  62  91 120 149 184 227 267
#     4  10  19  32  50  70  96 127 154 187 236 287
#     4  10  20  31  47  71  98 125 154 192 233 278
#     4   9  18  32  51  73  92 116 157 203 238 270
#
# _framework density 25.215294
#
# number of rings (size 3 to 8) (size 9 to 14) (size 15 to 20)
#    0.000    3.182    0.000    2.727    1.273    2.909 
#    0.000    0.000    0.000    3.818    0.000    1.273 
#    0.000    2.182    0.000    0.000    0.000    0.000 
#
# Total GULP energy -245782.955981 kJ/mol
# GULP energy per Si atom -5585.976272 kJ/mol
# Density = 2.515790 g / cm^3
# Si number density = 25.215294 Si / 1000 Ang^3
#
#
#
# Elastic Constant Matrix: (Units=GPa)
#
#
# Indices 1 2 3 4 5 6 
#
# 1 114.6905 26.0707 1.4823 0.0000 0.0000 0.0000
# 2 26.0707 95.9637 -7.4379 0.0000 0.0000 0.0000
# 3 1.4823 -7.4379 112.1866 0.0000 0.0000 0.0000
# 4 0.0000 0.0000 0.0000 -0.9060 0.0000 0.0000
# 5 0.0000 0.0000 0.0000 0.0000 -20.2226 0.0000
# 6 0.0000 0.0000 0.0000 0.0000 0.0000 43.3407
#
#
#
# Elastic Compliance Matrix: (Units=1/GPa)
#
#
# Indices 1 2 3 4 5 6 
#
# 1 0.009303 -0.002550 -0.000292 0.000000 0.000000 0.000000
# 2 -0.002550 0.011173 0.000774 0.000000 0.000000 0.000000
# 3 -0.000292 0.000774 0.008969 0.000000 0.000000 0.000000
# 4 0.000000 0.000000 0.000000 -1.103795 0.000000 0.000000
# 5 0.000000 0.000000 0.000000 0.000000 -0.049450 0.000000
# 6 0.000000 0.000000 0.000000 0.000000 0.000000 0.023073
#
#
# Mechanical properties :
#
#
# Convention : Reuss Voigt Hill
#
# Bulk Modulus (GPa) = 39.50993 40.34122 39.92557
# Shear Modulus (GPa) = -4.59493 24.62414 10.01460
#
# Velocity S-wave (km/s) = -1.35138 3.12838 1.99506
# Velocity P-wave (km/s) = 3.64254 5.39281 4.60166
#
# Compressibility (1/GPa) = 0.02531009
#
# Stress axis : x y z
#
# Youngs Moduli (GPa) = 107.49784 89.49854 111.49610
#
# Poissons Ratio (x) = 0.22821 0.03255
# Poissons Ratio (y) = 0.27411 -0.08635
# Poissons Ratio (z) = 0.03139 -0.06931
#
# Static dielectric constant tensor:
#      x y z
#    x 2.001720 0.000000 0.000000 
#    y 0.000000 1.940170 0.000000 
#    z 0.000000 0.000000 2.003730 
# 
# From -- ./inp_files/12494.got.cif
#   From: 2010.05.17/outbox.cif.g08.bks.cpg/sg71_7_cif.got.tgz:12494.got - 2010.06.03 16:22:01.
