data_PCOD9519624
_publ_section_title
;
Structure prediction by ZEFSAII (Michael W. Deem and Ramdas Pophale) SiO2 
 PCOD9519624
Probable space group: I M M M
;
_chemical_formula_sum "Si O2"
_cell_formula_units_Z 112
_cell_length_a 24.548331
_cell_length_b 14.947849
_cell_length_c 14.611405
_cell_angle_alpha 90.000000
_cell_angle_beta 90.000000
_cell_angle_gamma 90.000000
_cell_volume 5361.578282
_symmetry_space_group_name_H-M "I M M M"
_symmetry_group_IT_number 71
_symmetry_cell_setting 'orthorhombic'
loop_
_space_group_symop_operation_xyz
x,y,z
-x,-y,z
x,-y,-z
-x,y,-z
-x,-y,-z
x,y,-z
-x,y,z
x,-y,z
1/2+x,1/2+y,1/2+z
1/2-x,1/2-y,1/2+z
1/2+x,1/2-y,1/2-z
1/2-x,1/2+y,1/2-z
1/2-x,1/2-y,1/2-z
1/2+x,1/2+y,1/2-z
1/2-x,1/2+y,1/2+z
1/2+x,1/2-y,1/2+z
loop_
_atom_site_type_symbol
_atom_site_label
_atom_site_fract_x
_atom_site_fract_y
_atom_site_fract_z
Si Si1 0.279431 0.108617 0.898121
Si Si2 0.614523 0.898490 0.787771
Si Si3 0.061477 0.847416 0.894422
Si Si4 0.341184 0.392809 0.100674
Si Si5 0.939590 0.242507 0.604409
Si Si6 0.174037 0.106988 0.799677
Si Si7 0.438063 0.867876 0.603676
O O1 0.325866 0.128564 0.824084
O O2 0.220320 0.143000 0.867612
O O3 0.276852 0.000000 0.902109
O O4 0.294670 0.140396 0.000000
O O5 0.575253 0.823799 0.829671
O O6 0.604627 0.897611 0.679599
O O7 0.603748 0.000000 0.820846
O O8 0.112531 0.871997 0.830988
O O9 0.060797 0.739833 0.896123
O O10 0.000000 0.877030 0.867070
O O11 0.070673 0.878177 0.000000
O O12 0.349909 0.500000 0.103480
O O13 0.397232 0.338250 0.107917
O O14 0.312004 0.366697 0.195177
O O15 0.316870 0.372421 0.000000
O O16 0.937993 0.277050 0.500000
O O17 0.000000 0.209653 0.625206
O O18 0.178013 0.000000 0.802992
O O19 0.426055 0.896294 0.500000
O O20 0.500000 0.897097 0.627016
#
# Coordination Sequence:
#
# PCOD9519624 Si02
#       7
#    16  16  16  16  16  16  16
#     4   9  19  36  55  76 107 146 184 224 274 332
#     4  11  22  36  56  80 107 143 186 231 280 328
#     4   9  18  33  53  78 110 144 175 217 277 338
#     4   9  19  36  56  79 110 146 181 218 263 320
#     4  10  21  36  55  81 112 144 180 225 275 328
#     4  10  19  32  54  81 107 141 185 229 276 329
#     4   9  19  36  55  76 108 148 184 221 270 330
#
# _framework density 20.889372000000002
#
# number of rings (size 3 to 8) (size 9 to 14) (size 15 to 20)
#    0.000    2.429    0.000    3.000    0.000    5.429 
#    0.000    8.571    0.000    6.000    0.000    0.000 
#    0.000    0.000    0.000    0.000    0.000    0.000 
#
# Total GULP energy -312311.958447 kJ/mol
# GULP energy per Si atom -5576.999258 kJ/mol
# Density = 2.084183 g / cm^3
# Si number density = 20.889372 Si / 1000 Ang^3
#
#
#
# Elastic Constant Matrix: (Units=GPa)
#
#
# Indices 1 2 3 4 5 6 
#
# 1 76.5670 -8.0872 68.8722 0.0000 0.0000 0.0000
# 2 -8.0872 29.8548 9.1450 0.0000 0.0000 0.0000
# 3 68.8722 9.1450 141.7114 0.0000 0.0000 0.0000
# 4 0.0000 0.0000 0.0000 20.9345 0.0000 0.0000
# 5 0.0000 0.0000 0.0000 0.0000 31.0579 0.0000
# 6 0.0000 0.0000 0.0000 0.0000 0.0000 17.1952
#
#
#
# Elastic Compliance Matrix: (Units=1/GPa)
#
#
# Indices 1 2 3 4 5 6 
#
# 1 0.026505 0.011350 -0.013614 0.000000 0.000000 0.000000
# 2 0.011350 0.039031 -0.008035 0.000000 0.000000 0.000000
# 3 -0.013614 -0.008035 0.014192 0.000000 0.000000 0.000000
# 4 0.000000 0.000000 0.000000 0.047768 0.000000 0.000000
# 5 0.000000 0.000000 0.000000 0.000000 0.032198 0.000000
# 6 0.000000 0.000000 0.000000 0.000000 0.000000 0.058156
#
#
# Mechanical properties :
#
#
# Convention : Reuss Voigt Hill
#
# Bulk Modulus (GPa) = 16.91190 43.11037 30.01114
# Shear Modulus (GPa) = 19.36802 25.71774 22.54288
#
# Velocity S-wave (km/s) = 3.04825 3.51257 3.28861
# Velocity P-wave (km/s) = 4.52798 6.09369 5.36823
#
# Compressibility (1/GPa) = 0.05912996
#
# Stress axis : x y z
#
# Youngs Moduli (GPa) = 37.72859 25.62056 70.46441
#
# Poissons Ratio (x) = -0.29079 0.95930
# Poissons Ratio (y) = -0.42822 0.56617
# Poissons Ratio (z) = 0.51364 0.20586
#
# Static dielectric constant tensor:
#      x y z
#    x 1.738100 0.000000 0.000000 
#    y 0.000000 1.753770 0.000000 
#    z 0.000000 0.000000 1.808800 
# 
# From -- ./inp_files/39247.got.cif
#   From: 2010.05.17/outbox.cif.g08.bks.cpg/sg71_20_cif.got.tgz:39247.got - 2010.06.03 16:22:01.
