data_PCOD9519384
_publ_section_title
;
Structure prediction by ZEFSAII (Michael W. Deem and Ramdas Pophale) SiO2 
 PCOD9519384
Probable space group: I M M M
;
_chemical_formula_sum "Si O2"
_cell_formula_units_Z 104
_cell_length_a 26.968243
_cell_length_b 17.681922
_cell_length_c 13.403318
_cell_angle_alpha 90.000000
_cell_angle_beta 90.000000
_cell_angle_gamma 90.000000
_cell_volume 6391.377137
_symmetry_space_group_name_H-M "I M M M"
_symmetry_group_IT_number 71
_symmetry_cell_setting 'orthorhombic'
loop_
_space_group_symop_operation_xyz
x,y,z
-x,-y,z
x,-y,-z
-x,y,-z
-x,-y,-z
x,y,-z
-x,y,z
x,-y,z
1/2+x,1/2+y,1/2+z
1/2-x,1/2-y,1/2+z
1/2+x,1/2-y,1/2-z
1/2-x,1/2+y,1/2-z
1/2-x,1/2-y,1/2-z
1/2+x,1/2+y,1/2-z
1/2-x,1/2+y,1/2+z
1/2+x,1/2-y,1/2+z
loop_
_atom_site_type_symbol
_atom_site_label
_atom_site_fract_x
_atom_site_fract_y
_atom_site_fract_z
Si Si1 0.701614 0.136332 0.114461
Si Si2 0.791995 0.086305 0.772221
Si Si3 0.101970 0.590297 0.291784
Si Si4 0.558922 0.912261 0.000000
Si Si5 0.851488 0.202931 0.117164
Si Si6 0.058374 0.688925 0.883697
Si Si7 0.247202 0.702242 0.884959
O O1 0.751521 0.091023 0.139060
O O2 0.659259 0.111287 0.190667
O O3 0.717022 0.224368 0.124875
O O4 0.685802 0.122667 0.000000
O O5 0.839199 0.132256 0.812888
O O6 0.766383 0.135996 0.685407
O O7 0.801540 0.000000 0.744560
O O8 0.096299 0.500000 0.285661
O O9 0.077015 0.619934 0.394671
O O10 0.077277 0.627508 0.195502
O O11 0.500000 0.911717 0.000000
O O12 0.576274 0.000000 0.000000
O O13 0.905035 0.239982 0.131954
O O14 0.807774 0.264816 0.137172
O O15 0.846091 0.182776 0.000000
O O16 0.000000 0.704557 0.869209
O O17 0.065100 0.665296 0.000000
O O18 0.247440 0.678108 0.000000
#
# Coordination Sequence:
#
# PCOD9519384 Si02
#       7
#    16  16  16   8  16  16  16
#     4  10  19  32  50  73 100 134 170 199 234 289
#     4  11  20  29  48  76 104 130 159 199 246 298
#     4  11  20  31  48  71 102 132 162 205 248 289
#     4   9  18  30  42  60  90 128 161 193 240 280
#     4   9  18  34  52  69  95 130 165 205 247 289
#     4  10  21  36  54  72  91 126 175 216 250 293
#     4   9  18  32  49  69 100 136 165 195 236 291
#
# _framework density 16.271923999999999
#
# number of rings (size 3 to 8) (size 9 to 14) (size 15 to 20)
#    0.000    2.077    0.769    6.000    0.000    3.385 
#    0.000    0.769    0.000    5.077    0.000    2.154 
#    0.000    0.000    0.000    5.231    0.000    0.000 
#
# Total GULP energy -289940.875605 kJ/mol
# GULP energy per Si atom -5575.786069 kJ/mol
# Density = 1.623489 g / cm^3
# Si number density = 16.271924 Si / 1000 Ang^3
#
#
#
# Elastic Constant Matrix: (Units=GPa)
#
#
# Indices 1 2 3 4 5 6 
#
# 1 82.0150 27.8204 38.1146 0.0000 0.0000 0.0000
# 2 27.8204 84.7347 42.5599 0.0000 0.0000 0.0000
# 3 38.1146 42.5599 83.2078 0.0000 0.0000 0.0000
# 4 0.0000 0.0000 0.0000 10.7823 0.0000 0.0000
# 5 0.0000 0.0000 0.0000 0.0000 26.0408 0.0000
# 6 0.0000 0.0000 0.0000 0.0000 0.0000 13.2849
#
#
#
# Elastic Compliance Matrix: (Units=1/GPa)
#
#
# Indices 1 2 3 4 5 6 
#
# 1 0.015759 -0.002084 -0.006153 0.000000 0.000000 0.000000
# 2 -0.002084 0.016157 -0.007310 0.000000 0.000000 0.000000
# 3 -0.006153 -0.007310 0.018575 0.000000 0.000000 0.000000
# 4 0.000000 0.000000 0.000000 0.092744 0.000000 0.000000
# 5 0.000000 0.000000 0.000000 0.000000 0.038401 0.000000
# 6 0.000000 0.000000 0.000000 0.000000 0.000000 0.075274
#
#
# Mechanical properties :
#
#
# Convention : Reuss Voigt Hill
#
# Bulk Modulus (GPa) = 51.54909 51.88305 51.71607
# Shear Modulus (GPa) = 16.97966 19.45245 18.21605
#
# Velocity S-wave (km/s) = 3.23382 3.46129 3.34949
# Velocity P-wave (km/s) = 6.75959 6.92303 6.84180
#
# Compressibility (1/GPa) = 0.01939898
#
# Stress axis : x y z
#
# Youngs Moduli (GPa) = 63.45536 61.89209 53.83463
#
# Poissons Ratio (x) = 0.12896 0.33124
# Poissons Ratio (y) = 0.13222 0.39352
# Poissons Ratio (z) = 0.39044 0.45242
#
# Static dielectric constant tensor:
#      x y z
#    x 1.552770 0.000000 0.000000 
#    y 0.000000 1.538230 0.000000 
#    z 0.000000 0.000000 1.590240 
# 
# From -- ./inp_files/40453.got.cif
#   From: 2010.05.17/outbox.cif.g08.bks.cpg/sg71_21_cif.got.tgz:40453.got - 2010.06.03 16:22:01.
