data_PCOD9519824
_publ_section_title
;
Structure prediction by ZEFSAII (Michael W. Deem and Ramdas Pophale) SiO2 
 PCOD9519824
Probable space group: I M M M
;
_chemical_formula_sum "Si O2"
_cell_formula_units_Z 72
_cell_length_a 29.266933
_cell_length_b 15.487498
_cell_length_c 7.419439
_cell_angle_alpha 90.000000
_cell_angle_beta 90.000000
_cell_angle_gamma 90.000000
_cell_volume 3363.020737
_symmetry_space_group_name_H-M "I M M M"
_symmetry_group_IT_number 71
_symmetry_cell_setting 'orthorhombic'
loop_
_space_group_symop_operation_xyz
x,y,z
-x,-y,z
x,-y,-z
-x,y,-z
-x,-y,-z
x,y,-z
-x,y,z
x,-y,z
1/2+x,1/2+y,1/2+z
1/2-x,1/2-y,1/2+z
1/2+x,1/2-y,1/2-z
1/2-x,1/2+y,1/2-z
1/2-x,1/2-y,1/2-z
1/2+x,1/2+y,1/2-z
1/2-x,1/2+y,1/2+z
1/2+x,1/2-y,1/2+z
loop_
_atom_site_type_symbol
_atom_site_label
_atom_site_fract_x
_atom_site_fract_y
_atom_site_fract_z
Si Si1 0.800659 0.000000 0.283470
Si Si2 0.946379 0.000000 0.779499
Si Si3 0.695106 0.000000 0.720632
Si Si4 0.854822 0.672293 0.202526
Si Si5 0.126177 0.142077 0.790806
Si Si6 0.549502 0.101941 0.216644
O O1 0.748082 0.000000 0.228306
O O2 0.829667 0.081318 0.217836
O O3 0.801763 0.000000 0.500000
O O4 0.916531 0.084247 0.720482
O O5 0.000000 0.000000 0.726521
O O6 0.945190 0.000000 0.000000
O O7 0.671058 0.911042 0.782838
O O8 0.691052 0.000000 0.500000
O O9 0.858523 0.766473 0.291318
O O10 0.907445 0.644543 0.194887
O O11 0.835368 0.683486 0.000000
O O12 0.114595 0.160031 0.000000
O O13 0.500000 0.136400 0.272261
O O14 0.550532 0.000000 0.255170
O O15 0.553190 0.111390 0.000000
#
# Coordination Sequence:
#
# PCOD9519824 Si02
#       6
#     8   8   8  16  16  16
#     4  10  20  36  55  72  97 135 171 207 263 326
#     4   8  14  28  49  71  97 128 161 200 246 294
#     4   9  19  34  51  74 103 132 167 216 267 307
#     4  10  19  33  53  76 103 134 172 218 261 304
#     4   9  19  34  53  77 103 130 167 215 259 303
#     4   9  18  32  48  69 103 142 174 207 248 295
#
# _framework density 21.409324000000002
#
# number of rings (size 3 to 8) (size 9 to 14) (size 15 to 20)
#    0.000    2.778    1.111    1.667    0.000    3.111 
#    0.000    5.556    0.000    5.333    0.000    0.000 
#    0.000    0.000    0.000    0.000    0.000    0.000 
#
# Total GULP energy -200650.597388 kJ/mol
# GULP energy per Si atom -5573.627705 kJ/mol
# Density = 2.136060 g / cm^3
# Si number density = 21.409324 Si / 1000 Ang^3
#
#
#
# Elastic Constant Matrix: (Units=GPa)
#
#
# Indices 1 2 3 4 5 6 
#
# 1 162.0347 93.6451 -1.3275 0.0000 0.0000 0.0000
# 2 93.6451 183.0695 10.2958 0.0000 0.0000 0.0000
# 3 -1.3275 10.2958 64.3425 0.0000 0.0000 0.0000
# 4 0.0000 0.0000 0.0000 -6.2220 0.0000 0.0000
# 5 0.0000 0.0000 0.0000 0.0000 19.3249 0.0000
# 6 0.0000 0.0000 0.0000 0.0000 0.0000 -3.0602
#
#
#
# Elastic Compliance Matrix: (Units=1/GPa)
#
#
# Indices 1 2 3 4 5 6 
#
# 1 0.008814 -0.004560 0.000912 0.000000 0.000000 0.000000
# 2 -0.004560 0.007871 -0.001354 0.000000 0.000000 0.000000
# 3 0.000912 -0.001354 0.015777 0.000000 0.000000 0.000000
# 4 0.000000 0.000000 0.000000 -0.160720 0.000000 0.000000
# 5 0.000000 0.000000 0.000000 0.000000 0.051747 0.000000
# 6 0.000000 0.000000 0.000000 0.000000 0.000000 -0.326781
#
#
# Mechanical properties :
#
#
# Convention : Reuss Voigt Hill
#
# Bulk Modulus (GPa) = 44.52655 68.29706 56.41181
# Shear Modulus (GPa) = -12.96006 22.46409 4.75202
#
# Velocity S-wave (km/s) = -2.46305 3.24275 1.49145
# Velocity P-wave (km/s) = 3.57129 6.78163 5.41962
#
# Compressibility (1/GPa) = 0.02245851
#
# Stress axis : x y z
#
# Youngs Moduli (GPa) = 113.45071 127.04653 63.38254
#
# Poissons Ratio (x) = 0.57934 -0.05778
# Poissons Ratio (y) = 0.51734 0.08579
# Poissons Ratio (z) = -0.10341 0.17197
#
# Static dielectric constant tensor:
#      x y z
#    x 1.726780 0.000000 0.000000 
#    y 0.000000 1.853230 0.000000 
#    z 0.000000 0.000000 1.810100 
# 
# From -- ./inp_files/16397.got.cif
#   From: 2010.05.17/outbox.cif.g08.bks.cpg/sg71_9_cif.got.tgz:16397.got - 2010.06.03 16:22:01.
