data_PCOD9519575
_publ_section_title
;
Structure prediction by ZEFSAII (Michael W. Deem and Ramdas Pophale) SiO2 
 PCOD9519575
Probable space group: I M M M
;
_chemical_formula_sum "Si O2"
_cell_formula_units_Z 88
_cell_length_a 7.808921
_cell_length_b 19.178935
_cell_length_c 28.367616
_cell_angle_alpha 90.000000
_cell_angle_beta 90.000000
_cell_angle_gamma 90.000000
_cell_volume 4248.526739
_symmetry_space_group_name_H-M "I M M M"
_symmetry_group_IT_number 71
_symmetry_cell_setting 'orthorhombic'
loop_
_space_group_symop_operation_xyz
x,y,z
-x,-y,z
x,-y,-z
-x,y,-z
-x,-y,-z
x,y,-z
-x,y,z
x,-y,z
1/2+x,1/2+y,1/2+z
1/2-x,1/2-y,1/2+z
1/2+x,1/2-y,1/2-z
1/2-x,1/2+y,1/2-z
1/2-x,1/2-y,1/2-z
1/2+x,1/2+y,1/2-z
1/2-x,1/2+y,1/2+z
1/2+x,1/2-y,1/2+z
loop_
_atom_site_type_symbol
_atom_site_label
_atom_site_fract_x
_atom_site_fract_y
_atom_site_fract_z
Si Si1 0.803692 0.807363 0.288266
Si Si2 0.291368 0.923300 0.555390
Si Si3 0.290491 0.500000 0.554502
Si Si4 0.292984 0.365880 0.385930
Si Si5 0.795437 0.420265 0.283047
Si Si6 0.802617 0.287776 0.107731
O O1 0.500000 0.704408 0.198850
O O2 0.750000 0.750000 0.250000
O O3 0.781392 0.880236 0.261420
O O4 0.699876 0.800601 0.336245
O O5 0.251764 0.917373 0.500000
O O6 0.500000 0.923972 0.559541
O O7 0.225141 0.855681 0.582824
O O8 0.232202 0.000000 0.572058
O O9 0.500000 0.500000 0.555386
O O10 0.237801 0.500000 0.500000
O O11 0.233357 0.569476 0.582121
O O12 0.500000 0.364188 0.388684
O O13 0.248093 0.381399 0.331697
O O14 0.227350 0.289355 0.400472
O O15 0.735792 0.500000 0.286746
O O16 0.000000 0.419647 0.277704
O O17 0.000000 0.283929 0.091406
#
# Coordination Sequence:
#
# PCOD9519575 Si02
#       6
#    16  16   8  16  16  16
#     4  12  24  38  57  82 114 151 190 234 284 339
#     4   8  15  30  53  81 114 150 187 231 281 331
#     4   9  18  32  51  79 113 147 189 241 294 343
#     4  10  19  32  53  78 108 149 190 235 286 335
#     4  11  23  38  58  82 109 147 192 235 281 338
#     4  10  20  33  54  85 115 147 191 239 283 334
#
# _framework density 20.713061
#
# number of rings (size 3 to 8) (size 9 to 14) (size 15 to 20)
#    0.000    1.909    2.727    2.727    0.000    2.545 
#    0.000    5.455    0.000    1.636    0.000    3.818 
#    0.000    0.000    0.000    0.000    0.000    0.000 
#
# Total GULP energy -245691.421536 kJ/mol
# GULP energy per Si atom -5583.895944 kJ/mol
# Density = 2.066592 g / cm^3
# Si number density = 20.713061 Si / 1000 Ang^3
#
#
#
# Elastic Constant Matrix: (Units=GPa)
#
#
# Indices 1 2 3 4 5 6 
#
# 1 39.7344 4.0839 -11.3267 0.0000 0.0000 0.0000
# 2 4.0839 210.8218 63.6749 0.0000 0.0000 0.0000
# 3 -11.3267 63.6749 69.5133 0.0000 0.0000 0.0000
# 4 0.0000 0.0000 0.0000 40.6828 0.0000 0.0000
# 5 0.0000 0.0000 0.0000 0.0000 12.3522 0.0000
# 6 0.0000 0.0000 0.0000 0.0000 0.0000 9.1319
#
#
#
# Elastic Compliance Matrix: (Units=1/GPa)
#
#
# Indices 1 2 3 4 5 6 
#
# 1 0.027384 -0.002596 0.006840 0.000000 0.000000 0.000000
# 2 -0.002596 0.006804 -0.006655 0.000000 0.000000 0.000000
# 3 0.006840 -0.006655 0.021597 0.000000 0.000000 0.000000
# 4 0.000000 0.000000 0.000000 0.024580 0.000000 0.000000
# 5 0.000000 0.000000 0.000000 0.000000 0.080957 0.000000
# 6 0.000000 0.000000 0.000000 0.000000 0.000000 0.109507
#
#
# Mechanical properties :
#
#
# Convention : Reuss Voigt Hill
#
# Bulk Modulus (GPa) = 19.62268 48.10376 33.86322
# Shear Modulus (GPa) = 17.08590 30.00921 23.54755
#
# Velocity S-wave (km/s) = 2.87520 3.81045 3.37537
# Velocity P-wave (km/s) = 4.52951 6.52944 5.61917
#
# Compressibility (1/GPa) = 0.05096144
#
# Stress axis : x y z
#
# Youngs Moduli (GPa) = 36.51782 146.97700 46.30328
#
# Poissons Ratio (x) = 0.38162 -0.31673
# Poissons Ratio (y) = 0.09482 0.30817
# Poissons Ratio (z) = -0.24980 0.97819
#
# Static dielectric constant tensor:
#      x y z
#    x 1.782580 0.000000 0.000000 
#    y 0.000000 1.779440 0.000000 
#    z 0.000000 0.000000 1.636100 
# 
# From -- ./inp_files/30134.got.cif
#   From: 2010.05.17/outbox.cif.g08.bks.cpg/sg71_16_cif.got.tgz:30134.got - 2010.06.03 16:22:01.
