data_PCOD9519643
_publ_section_title
;
Structure prediction by ZEFSAII (Michael W. Deem and Ramdas Pophale) SiO2 
 PCOD9519643
Probable space group: I M M M
;
_chemical_formula_sum "Si O2"
_cell_formula_units_Z 80
_cell_length_a 29.671688
_cell_length_b 15.581469
_cell_length_c 9.462710
_cell_angle_alpha 90.000000
_cell_angle_beta 90.000000
_cell_angle_gamma 90.000000
_cell_volume 4374.880395
_symmetry_space_group_name_H-M "I M M M"
_symmetry_group_IT_number 71
_symmetry_cell_setting 'orthorhombic'
loop_
_space_group_symop_operation_xyz
x,y,z
-x,-y,z
x,-y,-z
-x,y,-z
-x,-y,-z
x,y,-z
-x,y,z
x,-y,z
1/2+x,1/2+y,1/2+z
1/2-x,1/2-y,1/2+z
1/2+x,1/2-y,1/2-z
1/2-x,1/2+y,1/2-z
1/2-x,1/2-y,1/2-z
1/2+x,1/2+y,1/2-z
1/2-x,1/2+y,1/2+z
1/2+x,1/2-y,1/2+z
loop_
_atom_site_type_symbol
_atom_site_label
_atom_site_fract_x
_atom_site_fract_y
_atom_site_fract_z
Si Si1 0.293797 0.646990 0.163622
Si Si2 0.382827 0.903387 0.332588
Si Si3 0.947499 0.246061 0.169613
Si Si4 0.895152 0.901875 0.331049
Si Si5 0.293998 0.855043 0.836281
O O1 0.342467 0.611259 0.206393
O O2 0.296460 0.750839 0.170349
O O3 0.252375 0.618810 0.260453
O O4 0.285371 0.623027 0.000000
O O5 0.372911 0.893546 0.500000
O O6 0.419027 0.831048 0.293433
O O7 0.337148 0.890107 0.245809
O O8 0.400022 0.000000 0.310304
O O9 0.925123 0.165857 0.247889
O O10 0.000000 0.254994 0.206275
O O11 0.944298 0.234561 0.000000
O O12 0.898533 0.886691 0.500000
O O13 0.908294 0.000000 0.302390
O O14 0.294449 0.880279 0.000000
#
# Coordination Sequence:
#
# PCOD9519643 Si02
#       5
#    16  16  16  16  16
#     4   9  18  33  53  80 115 152 188 225 269 324
#     4  10  21  37  58  83 112 148 188 229 278 336
#     4  10  22  40  61  84 111 143 182 233 288 336
#     4  10  21  38  60  85 113 148 189 229 273 330
#     4  10  19  32  54  83 115 150 188 229 273 325
#
# _framework density 18.286214000000001
#
# number of rings (size 3 to 8) (size 9 to 14) (size 15 to 20)
#    0.000    2.200    2.000    0.600    0.000    4.400 
#    0.000    6.000    0.000    0.000    0.000    2.800 
#    0.000    0.000    0.000    0.000    0.000    0.000 
#
# Total GULP energy -223365.274329 kJ/mol
# GULP energy per Si atom -5584.131858 kJ/mol
# Density = 1.824459 g / cm^3
# Si number density = 18.286214 Si / 1000 Ang^3
#
#
#
# Elastic Constant Matrix: (Units=GPa)
#
#
# Indices 1 2 3 4 5 6 
#
# 1 147.7398 79.3909 68.5405 0.0000 0.0000 0.0000
# 2 79.3909 106.1139 56.5937 0.0000 0.0000 0.0000
# 3 68.5405 56.5937 55.0623 0.0000 0.0000 0.0000
# 4 0.0000 0.0000 0.0000 14.7317 0.0000 0.0000
# 5 0.0000 0.0000 0.0000 0.0000 30.3588 0.0000
# 6 0.0000 0.0000 0.0000 0.0000 0.0000 -5.8315
#
#
#
# Elastic Compliance Matrix: (Units=1/GPa)
#
#
# Indices 1 2 3 4 5 6 
#
# 1 0.016460 -0.003071 -0.017333 0.000000 0.000000 0.000000
# 2 -0.003071 0.021429 -0.018203 0.000000 0.000000 0.000000
# 3 -0.017333 -0.018203 0.058447 0.000000 0.000000 0.000000
# 4 0.000000 0.000000 0.000000 0.067881 0.000000 0.000000
# 5 0.000000 0.000000 0.000000 0.000000 0.032939 0.000000
# 6 0.000000 0.000000 0.000000 0.000000 0.000000 -0.171481
#
#
# Mechanical properties :
#
#
# Convention : Reuss Voigt Hill
#
# Bulk Modulus (GPa) = 52.29512 79.77402 66.03457
# Shear Modulus (GPa) = 45.76113 14.81118 30.28615
#
# Velocity S-wave (km/s) = 5.00792 2.84907 4.07409
# Velocity P-wave (km/s) = 7.88031 7.38532 7.63682
#
# Compressibility (1/GPa) = 0.01912224
#
# Stress axis : x y z
#
# Youngs Moduli (GPa) = 60.75336 46.66471 17.10960
#
# Poissons Ratio (x) = 0.14329 0.29656
# Poissons Ratio (y) = 0.18655 0.31145
# Poissons Ratio (z) = 1.05305 0.84945
#
# Static dielectric constant tensor:
#      x y z
#    x 1.590210 0.000000 0.000000 
#    y 0.000000 1.643030 0.000000 
#    z 0.000000 0.000000 1.610160 
# 
# From -- ./inp_files/8644.got.cif
#   From: 2010.05.17/outbox.cif.g08.bks.cpg/sg71_5_cif.got.tgz:8644.got - 2010.06.03 16:22:01.
