data_PCOD9519778
_publ_section_title
;
Structure prediction by ZEFSAII (Michael W. Deem and Ramdas Pophale) SiO2 
 PCOD9519778
Probable space group: I M M M
;
_chemical_formula_sum "Si O2"
_cell_formula_units_Z 72
_cell_length_a 27.539001
_cell_length_b 16.352651
_cell_length_c 8.920619
_cell_angle_alpha 90.000000
_cell_angle_beta 90.000000
_cell_angle_gamma 90.000000
_cell_volume 4017.272954
_symmetry_space_group_name_H-M "I M M M"
_symmetry_group_IT_number 71
_symmetry_cell_setting 'orthorhombic'
loop_
_space_group_symop_operation_xyz
x,y,z
-x,-y,z
x,-y,-z
-x,y,-z
-x,-y,-z
x,y,-z
-x,y,z
x,-y,z
1/2+x,1/2+y,1/2+z
1/2-x,1/2-y,1/2+z
1/2+x,1/2-y,1/2-z
1/2-x,1/2+y,1/2-z
1/2-x,1/2-y,1/2-z
1/2+x,1/2+y,1/2-z
1/2-x,1/2+y,1/2+z
1/2+x,1/2-y,1/2+z
loop_
_atom_site_type_symbol
_atom_site_label
_atom_site_fract_x
_atom_site_fract_y
_atom_site_fract_z
Si Si1 0.217303 0.820096 0.320976
Si Si2 0.109711 0.177804 0.180528
Si Si3 0.558540 0.831140 0.826461
Si Si4 0.106062 0.000000 0.820802
Si Si5 0.287752 0.500000 0.178285
Si Si6 0.059169 0.500000 0.827210
O O1 0.214631 0.809600 0.500000
O O2 0.250000 0.750000 0.250000
O O3 0.163429 0.816336 0.251153
O O4 0.236878 0.912658 0.290716
O O5 0.079150 0.254082 0.237859
O O6 0.087441 0.089245 0.228741
O O7 0.113200 0.179274 0.000000
O O8 0.500000 0.829645 0.820136
O O9 0.574856 0.917101 0.754807
O O10 0.573346 0.826835 0.000000
O O11 0.162302 0.000000 0.770880
O O12 0.102563 0.000000 0.000000
O O13 0.299742 0.500000 0.000000
O O14 0.000000 0.500000 0.824961
O O15 0.074623 0.500000 0.000000
#
# Coordination Sequence:
#
# PCOD9519778 Si02
#       6
#    16  16  16   8   8   8
#     4  10  19  33  52  75 101 130 165 205 250 299
#     4  10  19  33  53  76 101 131 168 209 253 300
#     4  10  20  34  52  75 103 134 168 207 250 297
#     4   8  16  30  49  72  97 127 165 206 247 295
#     4   8  16  30  49  70  95 128 163 198 240 295
#     4   9  17  31  52  75  98 129 168 206 247 299
#
# _framework density 17.922605000000001
#
# number of rings (size 3 to 8) (size 9 to 14) (size 15 to 20)
#    0.000    2.556    0.000    2.333    0.000    4.444 
#    0.000    1.667    0.000    4.667    0.000    0.000 
#    0.000    0.000    0.000    0.000    0.000    0.000 
#
# Total GULP energy -200541.232836 kJ/mol
# GULP energy per Si atom -5570.589801 kJ/mol
# Density = 1.788181 g / cm^3
# Si number density = 17.922605 Si / 1000 Ang^3
#
#
#
# Elastic Constant Matrix: (Units=GPa)
#
#
# Indices 1 2 3 4 5 6 
#
# 1 9.9657 30.4157 18.1916 0.0000 0.0000 0.0000
# 2 30.4157 195.1055 64.8903 0.0000 0.0000 0.0000
# 3 18.1916 64.8903 83.8657 0.0000 0.0000 0.0000
# 4 0.0000 0.0000 0.0000 29.4643 0.0000 0.0000
# 5 0.0000 0.0000 0.0000 0.0000 25.1186 0.0000
# 6 0.0000 0.0000 0.0000 0.0000 0.0000 26.3154
#
#
#
# Elastic Compliance Matrix: (Units=1/GPa)
#
#
# Indices 1 2 3 4 5 6 
#
# 1 0.239404 -0.026998 -0.031041 0.000000 0.000000 0.000000
# 2 -0.026998 0.009946 -0.001839 0.000000 0.000000 0.000000
# 3 -0.031041 -0.001839 0.020080 0.000000 0.000000 0.000000
# 4 0.000000 0.000000 0.000000 0.033939 0.000000 0.000000
# 5 0.000000 0.000000 0.000000 0.000000 0.039811 0.000000
# 6 0.000000 0.000000 0.000000 0.000000 0.000000 0.038001
#
#
# Mechanical properties :
#
#
# Convention : Reuss Voigt Hill
#
# Bulk Modulus (GPa) = 6.68116 57.32579 32.00348
# Shear Modulus (GPa) = 9.07723 27.87562 18.47643
#
# Velocity S-wave (km/s) = 2.25293 3.94805 3.21425
# Velocity P-wave (km/s) = 3.24090 7.26894 5.62765
#
# Compressibility (1/GPa) = 0.14967458
#
# Stress axis : x y z
#
# Youngs Moduli (GPa) = 4.17704 100.54295 49.80031
#
# Poissons Ratio (x) = 2.71444 1.54583
# Poissons Ratio (y) = 0.11277 0.09160
# Poissons Ratio (z) = 0.12966 0.18494
#
# Static dielectric constant tensor:
#      x y z
#    x 1.581150 0.000000 0.000000 
#    y 0.000000 1.654670 0.000000 
#    z 0.000000 0.000000 1.602170 
# 
# From -- ./inp_files/6545.got.cif
#   From: 2010.05.17/outbox.cif.g08.bks.cpg/sg71_4_cif.got.tgz:6545.got - 2010.06.03 16:22:01.
