data_PCOD9519055
_publ_section_title
;
Structure prediction by ZEFSAII (Michael W. Deem and Ramdas Pophale) SiO2 
 PCOD9519055
Probable space group: I M M M
;
_chemical_formula_sum "Si O2"
_cell_formula_units_Z 72
_cell_length_a 8.822237
_cell_length_b 14.732044
_cell_length_c 36.272788
_cell_angle_alpha 90.000000
_cell_angle_beta 90.000000
_cell_angle_gamma 90.000000
_cell_volume 4714.359155
_symmetry_space_group_name_H-M "I M M M"
_symmetry_group_IT_number 71
_symmetry_cell_setting 'orthorhombic'
loop_
_space_group_symop_operation_xyz
x,y,z
-x,-y,z
x,-y,-z
-x,y,-z
-x,-y,-z
x,y,-z
-x,y,z
x,-y,z
1/2+x,1/2+y,1/2+z
1/2-x,1/2-y,1/2+z
1/2+x,1/2-y,1/2-z
1/2-x,1/2+y,1/2-z
1/2-x,1/2-y,1/2-z
1/2+x,1/2+y,1/2-z
1/2-x,1/2+y,1/2+z
1/2+x,1/2-y,1/2+z
loop_
_atom_site_type_symbol
_atom_site_label
_atom_site_fract_x
_atom_site_fract_y
_atom_site_fract_z
Si Si1 0.675134 0.000000 0.737078
Si Si2 0.321320 0.796526 0.713305
Si Si3 0.181417 0.107380 0.922081
Si Si4 0.177387 0.000000 0.813552
Si Si5 0.180707 0.321381 0.650729
Si Si6 0.826146 0.390092 0.500000
O O1 0.693450 0.905321 0.715933
O O2 0.500000 0.000000 0.751783
O O3 0.794046 0.000000 0.770146
O O4 0.500000 0.773565 0.712712
O O5 0.250000 0.750000 0.750000
O O6 0.243416 0.758478 0.676577
O O7 0.253971 0.169129 0.890409
O O8 0.000000 0.112443 0.920598
O O9 0.222907 0.000000 0.915967
O O10 0.241179 0.134948 0.962377
O O11 0.258209 0.911929 0.829524
O O12 0.000000 0.000000 0.823084
O O13 0.000000 0.319797 0.650003
O O14 0.828572 0.500000 0.500000
O O15 0.000000 0.358334 0.500000
#
# Coordination Sequence:
#
# PCOD9519055 Si02
#       6
#     8  16  16   8  16   8
#     4  10  22  38  54  70  95 128 165 208 254 298
#     4  11  22  36  53  73  97 128 166 208 252 297
#     4  10  19  31  48  69  96 130 169 205 241 288
#     4  12  22  32  50  71  95 128 167 209 250 294
#     4  12  23  34  49  71 100 131 168 210 251 295
#     4   9  17  29  45  67  97 130 163 198 244 292
#
# _framework density 15.272487999999999
#
# number of rings (size 3 to 8) (size 9 to 14) (size 15 to 20)
#    0.000    1.222    3.333    4.667    0.000    3.111 
#    0.000    0.000    0.000    0.000    0.000    0.000 
#    0.000    0.889    0.000    9.556    0.000    4.222 
#
# Total GULP energy -200989.032704 kJ/mol
# GULP energy per Si atom -5583.028686 kJ/mol
# Density = 1.523773 g / cm^3
# Si number density = 15.272488 Si / 1000 Ang^3
#
#
#
# Elastic Constant Matrix: (Units=GPa)
#
#
# Indices 1 2 3 4 5 6 
#
# 1 121.3880 37.3435 67.9380 0.0000 0.0000 0.0000
# 2 37.3435 64.1131 39.0156 0.0000 0.0000 0.0000
# 3 67.9380 39.0156 133.9048 0.0000 0.0000 0.0000
# 4 0.0000 0.0000 0.0000 -28.8493 0.0000 0.0000
# 5 0.0000 0.0000 0.0000 0.0000 31.3095 0.0000
# 6 0.0000 0.0000 0.0000 0.0000 0.0000 13.0731
#
#
#
# Elastic Compliance Matrix: (Units=1/GPa)
#
#
# Indices 1 2 3 4 5 6 
#
# 1 0.012333 -0.004103 -0.005062 0.000000 0.000000 0.000000
# 2 -0.004103 0.020324 -0.003840 0.000000 0.000000 0.000000
# 3 -0.005062 -0.003840 0.011155 0.000000 0.000000 0.000000
# 4 0.000000 0.000000 0.000000 -0.034663 0.000000 0.000000
# 5 0.000000 0.000000 0.000000 0.000000 0.031939 0.000000
# 6 0.000000 0.000000 0.000000 0.000000 0.000000 0.076493
#
#
# Mechanical properties :
#
#
# Convention : Reuss Voigt Hill
#
# Bulk Modulus (GPa) = 56.17255 67.55555 61.86405
# Shear Modulus (GPa) = 33.43885 14.78057 24.10971
#
# Velocity S-wave (km/s) = 4.68427 3.11431 3.97752
# Velocity P-wave (km/s) = 8.13121 7.56713 7.85423
#
# Compressibility (1/GPa) = 0.01780229
#
# Stress axis : x y z
#
# Youngs Moduli (GPa) = 81.08057 49.20222 89.64559
#
# Poissons Ratio (x) = 0.20189 0.45378
# Poissons Ratio (y) = 0.33270 0.34424
# Poissons Ratio (z) = 0.41042 0.18893
#
# Static dielectric constant tensor:
#      x y z
#    x 1.514660 0.000000 0.000000 
#    y 0.000000 1.461170 0.000000 
#    z 0.000000 0.000000 1.516900 
# 
# From -- ./inp_files/31712.got.cif
#   From: 2010.05.17/outbox.cif.g08.bks.cpg/sg71_16_cif.got.tgz:31712.got - 2010.06.03 16:22:01.
