data_PCOD9519474
_publ_section_title
;
Structure prediction by ZEFSAII (Michael W. Deem and Ramdas Pophale) SiO2 
 PCOD9519474
Probable space group: I M M M
;
_chemical_formula_sum "Si O2"
_cell_formula_units_Z 90
_cell_length_a 27.028191
_cell_length_b 20.604013
_cell_length_c 7.369505
_cell_angle_alpha 90.000000
_cell_angle_beta 90.000000
_cell_angle_gamma 90.000000
_cell_volume 4103.997734
_symmetry_space_group_name_H-M "I M M M"
_symmetry_group_IT_number 71
_symmetry_cell_setting 'orthorhombic'
loop_
_space_group_symop_operation_xyz
x,y,z
-x,-y,z
x,-y,-z
-x,y,-z
-x,-y,-z
x,y,-z
-x,y,z
x,-y,z
1/2+x,1/2+y,1/2+z
1/2-x,1/2-y,1/2+z
1/2+x,1/2-y,1/2-z
1/2-x,1/2+y,1/2-z
1/2-x,1/2-y,1/2-z
1/2+x,1/2+y,1/2-z
1/2-x,1/2+y,1/2+z
1/2+x,1/2-y,1/2+z
loop_
_atom_site_type_symbol
_atom_site_label
_atom_site_fract_x
_atom_site_fract_y
_atom_site_fract_z
Si Si1 0.684812 0.000000 0.280733
Si Si2 0.764621 0.634117 0.779957
Si Si3 0.500000 0.500000 0.000000
Si Si4 0.570782 0.000000 0.792422
Si Si5 0.405685 0.500000 0.724047
Si Si6 0.053415 0.356943 0.280587
Si Si7 0.850460 0.272462 0.212477
Si Si8 0.648899 0.632131 0.291621
O O1 0.711841 0.065564 0.224852
O O2 0.682221 0.000000 0.500000
O O3 0.629733 0.000000 0.209029
O O4 0.801353 0.691391 0.714799
O O5 0.708393 0.633813 0.716496
O O6 0.763817 0.636486 0.000000
O O7 0.456126 0.500000 0.839142
O O8 0.555308 0.068855 0.712785
O O9 0.553285 0.000000 0.000000
O O10 0.412179 0.500000 0.500000
O O11 0.374393 0.564941 0.776565
O O12 0.055189 0.358692 0.500000
O O13 0.102226 0.319087 0.223269
O O14 0.000000 0.328248 0.227656
O O15 0.864215 0.202241 0.292315
O O16 0.839600 0.261942 0.000000
O O17 0.632076 0.633760 0.500000
#
# Coordination Sequence:
#
# PCOD9519474 Si02
#       8
#     8  16   2   8   8  16  16  16
#     4  10  19  32  51  80 115 152 189 239 285 339
#     4  10  20  33  56  87 124 161 203 251 304 371
#     4  12  26  48  84 106 124 172 214 278 346 410
#     4  10  19  33  55  76 108 151 197 242 290 340
#     4  10  24  48  72 103 136 166 217 276 333 405
#     4  10  21  37  55  81 113 154 203 256 300 351
#     4  10  21  38  57  85 121 161 204 251 313 377
#     4  10  22  40  63  90 124 160 199 254 317 384
#
# _framework density 21.929836999999999
#
# number of rings (size 3 to 8) (size 9 to 14) (size 15 to 20)
#    0.000    1.956    1.778    1.467    1.244    3.556 
#    1.600    0.000    0.000    1.600    0.000    0.000 
#    0.000    0.000    0.000    0.000    0.000    0.000 
#
# Total GULP energy -250926.754122 kJ/mol
# GULP energy per Si atom -5576.150092 kJ/mol
# Density = 2.187992 g / cm^3
# Si number density = 21.929837 Si / 1000 Ang^3
#
#
#
# Elastic Constant Matrix: (Units=GPa)
#
#
# Indices 1 2 3 4 5 6 
#
# 1 148.3188 78.6545 0.9744 0.0000 0.0000 0.0000
# 2 78.6545 184.7364 18.3199 0.0000 0.0000 0.0000
# 3 0.9744 18.3199 90.4937 0.0000 0.0000 0.0000
# 4 0.0000 0.0000 0.0000 2.9805 0.0000 0.0000
# 5 0.0000 0.0000 0.0000 0.0000 -58.1998 0.0000
# 6 0.0000 0.0000 0.0000 0.0000 0.0000 11.0354
#
#
#
# Elastic Compliance Matrix: (Units=1/GPa)
#
#
# Indices 1 2 3 4 5 6 
#
# 1 0.008749 -0.003792 0.000673 0.000000 0.000000 0.000000
# 2 -0.003792 0.007167 -0.001410 0.000000 0.000000 0.000000
# 3 0.000673 -0.001410 0.011329 0.000000 0.000000 0.000000
# 4 0.000000 0.000000 0.000000 0.335510 0.000000 0.000000
# 5 0.000000 0.000000 0.000000 0.000000 -0.017182 0.000000
# 6 0.000000 0.000000 0.000000 0.000000 0.000000 0.090618
#
#
# Mechanical properties :
#
#
# Convention : Reuss Voigt Hill
#
# Bulk Modulus (GPa) = 54.98188 68.82739 61.90463
# Shear Modulus (GPa) = 11.07887 12.86989 11.97438
#
# Velocity S-wave (km/s) = 2.25010 2.42516 2.33927
# Velocity P-wave (km/s) = 5.64595 6.26859 5.96540
#
# Compressibility (1/GPa) = 0.01818781
#
# Stress axis : x y z
#
# Youngs Moduli (GPa) = 114.30499 139.52263 88.27124
#
# Poissons Ratio (x) = 0.52901 -0.05944
# Poissons Ratio (y) = 0.43340 0.12448
# Poissons Ratio (z) = -0.07697 0.19675
#
# Static dielectric constant tensor:
#      x y z
#    x 1.755770 0.000000 0.000000 
#    y 0.000000 1.835720 0.000000 
#    z 0.000000 0.000000 1.833950 
# 
# From -- ./inp_files/12669.got.cif
#   From: 2010.05.17/outbox.cif.g08.bks.cpg/sg71_7_cif.got.tgz:12669.got - 2010.06.03 16:22:01.
