data_PCOD9519680
_publ_section_title
;
Structure prediction by ZEFSAII (Michael W. Deem and Ramdas Pophale) SiO2 
 PCOD9519680
Probable space group: I M M M
;
_chemical_formula_sum "Si O2"
_cell_formula_units_Z 66
_cell_length_a 15.231411
_cell_length_b 24.709204
_cell_length_c 9.060641
_cell_angle_alpha 90.000000
_cell_angle_beta 90.000000
_cell_angle_gamma 90.000000
_cell_volume 3410.026981
_symmetry_space_group_name_H-M "I M M M"
_symmetry_group_IT_number 71
_symmetry_cell_setting 'orthorhombic'
loop_
_space_group_symop_operation_xyz
x,y,z
-x,-y,z
x,-y,-z
-x,y,-z
-x,-y,-z
x,y,-z
-x,y,z
x,-y,z
1/2+x,1/2+y,1/2+z
1/2-x,1/2-y,1/2+z
1/2+x,1/2-y,1/2-z
1/2-x,1/2+y,1/2-z
1/2-x,1/2-y,1/2-z
1/2+x,1/2+y,1/2-z
1/2-x,1/2+y,1/2+z
1/2+x,1/2-y,1/2+z
loop_
_atom_site_type_symbol
_atom_site_label
_atom_site_fract_x
_atom_site_fract_y
_atom_site_fract_z
Si Si1 0.143948 0.119558 0.178002
Si Si2 0.346032 0.000000 0.243394
Si Si3 0.500000 0.000000 0.000000
Si Si4 0.672658 0.880127 0.667412
Si Si5 0.000000 0.311662 0.177364
Si Si6 0.857806 0.000000 0.831468
Si Si7 0.000000 0.805292 0.676722
O O1 0.244755 0.128087 0.225629
O O2 0.116978 0.058632 0.231117
O O3 0.083420 0.163428 0.255569
O O4 0.135549 0.121631 0.000000
O O5 0.423071 0.000000 0.126433
O O6 0.350531 0.943733 0.330243
O O7 0.248471 0.000000 0.171960
O O8 0.697488 0.864766 0.500000
O O9 0.587051 0.846298 0.711953
O O10 0.000000 0.255892 0.264869
O O11 0.000000 0.301760 0.000000
O O12 0.888659 0.000000 0.000000
O O13 0.000000 0.807352 0.500000
#
# Coordination Sequence:
#
# PCOD9519680 Si02
#       7
#    16   8   2  16   8   8   8
#     4  10  21  39  66  92 123 158 198 247 307 366
#     4  10  19  32  55  90 128 162 197 242 293 357
#     4  12  20  28  50  88 124 174 202 248 276 354
#     4  10  21  39  62  92 126 163 200 251 306 364
#     4  10  23  42  61  84 120 161 209 253 301 362
#     4   8  16  34  56  88 122 149 191 233 288 356
#     4  12  26  44  61  86 116 156 208 264 310 362
#
# _framework density 19.354685
#
# number of rings (size 3 to 8) (size 9 to 14) (size 15 to 20)
#    0.000    1.939    0.606    2.909    1.697    2.424 
#    2.182    6.667    0.000    0.000    0.000    0.000 
#    0.000    0.000    0.000    0.000    0.000    0.000 
#
# Total GULP energy -183900.572049 kJ/mol
# GULP energy per Si atom -5572.744608 kJ/mol
# Density = 1.931063 g / cm^3
# Si number density = 19.354685 Si / 1000 Ang^3
#
#
#
# Elastic Constant Matrix: (Units=GPa)
#
#
# Indices 1 2 3 4 5 6 
#
# 1 105.6462 75.5697 55.5275 -0.0003 0.0001 0.0000
# 2 75.5697 160.8873 56.9585 0.0006 -0.0001 0.0000
# 3 55.5275 56.9585 86.2555 0.0060 -0.0010 -0.0001
# 4 -0.0003 0.0006 0.0060 -58.9667 -0.0005 0.0000
# 5 0.0001 -0.0001 -0.0010 -0.0005 30.5570 -0.0001
# 6 0.0000 0.0000 -0.0001 0.0000 -0.0001 33.8888
#
#
#
# Elastic Compliance Matrix: (Units=1/GPa)
#
#
# Indices 1 2 3 4 5 6 
#
# 1 0.017354 -0.005476 -0.007555 -0.000001 0.000000 0.000000
# 2 -0.005476 0.009840 -0.002972 0.000000 0.000000 0.000000
# 3 -0.007555 -0.002972 0.018420 0.000002 0.000001 0.000000
# 4 -0.000001 0.000000 0.000002 -0.016959 0.000000 0.000000
# 5 0.000000 0.000000 0.000001 0.000000 0.032726 0.000000
# 6 0.000000 0.000000 0.000000 0.000000 0.000000 0.029508
#
#
# Mechanical properties :
#
#
# Convention : Reuss Voigt Hill
#
# Bulk Modulus (GPa) = 73.49823 80.98892 77.24357
# Shear Modulus (GPa) = 39.23620 12.07805 25.65712
#
# Velocity S-wave (km/s) = 4.50735 2.50078 3.64487
# Velocity P-wave (km/s) = 8.07125 7.09042 7.59668
#
# Compressibility (1/GPa) = 0.01360577
#
# Stress axis : x y z
#
# Youngs Moduli (GPa) = 57.62351 101.62416 54.28848
#
# Poissons Ratio (x) = 0.55654 0.41017
# Poissons Ratio (y) = 0.31557 0.16137
# Poissons Ratio (z) = 0.43537 0.30207
#
# Static dielectric constant tensor:
#      x y z
#    x 1.663070 0.000000 0.000000 
#    y 0.000000 1.680180 0.000000 
#    z 0.000000 0.000000 1.667600 
# 
# From -- ./inp_files/5668.got.cif
#   From: 2010.05.17/outbox.cif.g08.bks.cpg/sg71_3_cif.got.tgz:5668.got - 2010.06.03 16:22:01.
