data_PCOD9519381
_publ_section_title
;
Structure prediction by ZEFSAII (Michael W. Deem and Ramdas Pophale) SiO2 
 PCOD9519381
Probable space group: I M M M
;
_chemical_formula_sum "Si O2"
_cell_formula_units_Z 120
_cell_length_a 28.738562
_cell_length_b 27.631256
_cell_length_c 8.382922
_cell_angle_alpha 90.000000
_cell_angle_beta 90.000000
_cell_angle_gamma 90.000000
_cell_volume 6656.732193
_symmetry_space_group_name_H-M "I M M M"
_symmetry_group_IT_number 71
_symmetry_cell_setting 'orthorhombic'
loop_
_space_group_symop_operation_xyz
x,y,z
-x,-y,z
x,-y,-z
-x,y,-z
-x,-y,-z
x,y,-z
-x,y,z
x,-y,z
1/2+x,1/2+y,1/2+z
1/2-x,1/2-y,1/2+z
1/2+x,1/2-y,1/2-z
1/2-x,1/2+y,1/2-z
1/2-x,1/2-y,1/2-z
1/2+x,1/2+y,1/2-z
1/2-x,1/2+y,1/2+z
1/2+x,1/2-y,1/2+z
loop_
_atom_site_type_symbol
_atom_site_label
_atom_site_fract_x
_atom_site_fract_y
_atom_site_fract_z
Si Si1 0.310665 0.944830 0.692591
Si Si2 0.358791 0.851646 0.809271
Si Si3 0.610152 0.405892 0.310286
Si Si4 0.608304 0.702073 0.693263
Si Si5 0.294078 0.557905 0.188709
Si Si6 0.054118 0.000000 0.195453
Si Si7 0.052312 0.707034 0.307331
Si Si8 0.698436 0.761350 0.309300
O O1 0.309808 0.945382 0.500000
O O2 0.346361 0.904859 0.750378
O O3 0.258188 0.930587 0.744531
O O4 0.319907 0.000000 0.745780
O O5 0.408780 0.831424 0.752715
O O6 0.320557 0.813135 0.749094
O O7 0.358399 0.851033 0.000000
O O8 0.602251 0.404821 0.500000
O O9 0.599010 0.352295 0.248102
O O10 0.664329 0.416146 0.278294
O O11 0.580494 0.451475 0.247658
O O12 0.607775 0.701884 0.500000
O O13 0.570910 0.740772 0.752821
O O14 0.659237 0.722244 0.743605
O O15 0.299712 0.500000 0.207112
O O16 0.297518 0.568780 0.000000
O O17 0.000000 0.000000 0.240174
O O18 0.056228 0.000000 0.000000
O O19 0.052013 0.706209 0.500000
O O20 0.000000 0.697763 0.250371
O O21 0.698890 0.761509 0.500000
O O22 0.750000 0.750000 0.250000
#
# Coordination Sequence:
#
# PCOD9519381 Si02
#       8
#    16  16  16  16  16   8  16  16
#     4   9  19  35  53  77 110 145 177 211 255 308
#     4  10  20  34  54  80 107 137 176 218 261 313
#     4  10  19  32  50  72  98 130 170 216 260 306
#     4   9  20  34  49  74 103 131 171 220 261 306
#     4   9  18  32  49  70  98 134 172 206 247 301
#     4   9  18  32  49  69  95 129 167 209 262 313
#     4   9  19  37  58  78 102 133 171 215 264 317
#     4  10  20  34  49  71 106 142 176 216 264 315
#
# _framework density 18.026865000000001
#
# number of rings (size 3 to 8) (size 9 to 14) (size 15 to 20)
#    0.000    2.600    0.667    1.600    1.867    3.200 
#    0.000    2.667    0.000    1.200    0.000    2.800 
#    0.000    0.000    0.000    0.000    0.000    0.000 
#
# Total GULP energy -334629.872584 kJ/mol
# GULP energy per Si atom -5577.164543 kJ/mol
# Density = 1.798583 g / cm^3
# Si number density = 18.026865 Si / 1000 Ang^3
#
#
#
# Elastic Constant Matrix: (Units=GPa)
#
#
# Indices 1 2 3 4 5 6 
#
# 1 137.1192 83.7735 12.1532 0.0000 0.0000 0.0000
# 2 83.7735 138.4975 14.3397 0.0000 0.0000 0.0000
# 3 12.1532 14.3397 4.9469 0.0000 0.0000 0.0000
# 4 0.0000 0.0000 0.0000 19.2891 0.0000 0.0000
# 5 0.0000 0.0000 0.0000 0.0000 16.9860 0.0000
# 6 0.0000 0.0000 0.0000 0.0000 0.0000 11.6366
#
#
#
# Elastic Compliance Matrix: (Units=1/GPa)
#
#
# Indices 1 2 3 4 5 6 
#
# 1 0.012055 -0.006038 -0.012116 0.000000 0.000000 0.000000
# 2 -0.006038 0.013340 -0.023838 0.000000 0.000000 0.000000
# 3 -0.012116 -0.023838 0.301012 0.000000 0.000000 0.000000
# 4 0.000000 0.000000 0.000000 0.051843 0.000000 0.000000
# 5 0.000000 0.000000 0.000000 0.000000 0.058872 0.000000
# 6 0.000000 0.000000 0.000000 0.000000 0.000000 0.085936
#
#
# Mechanical properties :
#
#
# Convention : Reuss Voigt Hill
#
# Bulk Modulus (GPa) = 4.12497 55.67738 29.90117
# Shear Modulus (GPa) = 7.26904 20.93549 14.10227
#
# Velocity S-wave (km/s) = 2.01025 3.41156 2.79998
# Velocity P-wave (km/s) = 2.77152 6.81697 5.20348
#
# Compressibility (1/GPa) = 0.24242607
#
# Stress axis : x y z
#
# Youngs Moduli (GPa) = 82.94998 74.96016 3.32213
#
# Poissons Ratio (x) = 0.45258 0.04025
# Poissons Ratio (y) = 0.50082 0.07919
# Poissons Ratio (z) = 1.00499 1.78687
#
# Static dielectric constant tensor:
#      x y z
#    x 1.612120 0.000000 0.000000 
#    y 0.000000 1.621090 0.000000 
#    z 0.000000 0.000000 1.625740 
# 
# From -- ./inp_files/15665.got.cif
#   From: 2010.05.17/outbox.cif.g08.bks.cpg/sg71_8_cif.got.tgz:15665.got - 2010.06.03 16:22:01.
