data_PCOD9519510
_publ_section_title
;
Structure prediction by ZEFSAII (Michael W. Deem and Ramdas Pophale) SiO2 
 PCOD9519510
Probable space group: I M M M
;
_chemical_formula_sum "Si O2"
_cell_formula_units_Z 104
_cell_length_a 7.538550
_cell_length_b 29.268796
_cell_length_c 21.851095
_cell_angle_alpha 90.000000
_cell_angle_beta 90.000000
_cell_angle_gamma 90.000000
_cell_volume 4821.319169
_symmetry_space_group_name_H-M "I M M M"
_symmetry_group_IT_number 71
_symmetry_cell_setting 'orthorhombic'
loop_
_space_group_symop_operation_xyz
x,y,z
-x,-y,z
x,-y,-z
-x,y,-z
-x,-y,-z
x,y,-z
-x,y,z
x,-y,z
1/2+x,1/2+y,1/2+z
1/2-x,1/2-y,1/2+z
1/2+x,1/2-y,1/2-z
1/2-x,1/2+y,1/2-z
1/2-x,1/2-y,1/2-z
1/2+x,1/2+y,1/2-z
1/2-x,1/2+y,1/2+z
1/2+x,1/2-y,1/2+z
loop_
_atom_site_type_symbol
_atom_site_label
_atom_site_fract_x
_atom_site_fract_y
_atom_site_fract_z
Si Si1 0.718003 0.857965 0.066446
Si Si2 0.288317 0.199132 0.681813
Si Si3 0.712277 0.393086 0.121945
Si Si4 0.793910 0.304211 0.317263
Si Si5 0.285940 0.447244 0.240263
Si Si6 0.209124 0.550948 0.378204
Si Si7 0.282717 0.446359 0.000000
O O1 0.500000 0.857061 0.067132
O O2 0.783725 0.829456 0.124316
O O3 0.776933 0.910015 0.077429
O O4 0.773547 0.840938 0.000000
O O5 0.500000 0.203641 0.685938
O O6 0.247944 0.160564 0.631843
O O7 0.216580 0.249901 0.671323
O O8 0.218545 0.185324 0.749742
O O9 0.500000 0.398614 0.121343
O O10 0.780722 0.417599 0.183592
O O11 0.775860 0.418710 0.060729
O O12 0.000000 0.317711 0.314104
O O13 0.500000 0.446193 0.239660
O O14 0.230068 0.500000 0.232433
O O15 0.228462 0.432677 0.307910
O O16 0.286764 0.500000 0.382732
O O17 0.000000 0.547172 0.390247
O O18 0.229218 0.500000 0.000000
O O19 0.500000 0.446607 0.000000
#
# Coordination Sequence:
#
# PCOD9519510 Si02
#       7
#    16  16  16  16  16  16   8
#     4   9  17  30  49  73  99 129 165 204 243 283
#     4  10  20  34  54  77 102 130 161 207 262 308
#     4  10  19  32  52  77 101 131 170 211 254 303
#     4   9  18  34  54  75  99 130 170 211 251 300
#     4   9  17  29  47  72 100 129 163 204 247 288
#     4   9  17  29  47  73 103 132 163 200 242 290
#     4   9  18  34  55  77 103 137 179 221 256 301
#
# _framework density 21.570858000000001
#
# number of rings (size 3 to 8) (size 9 to 14) (size 15 to 20)
#    0.000    2.692    0.000    1.846    0.000    4.615 
#    1.385    2.692    0.000    3.231    0.000    2.154 
#    0.000    0.000    0.000    0.000    0.000    0.000 
#
# Total GULP energy -290200.232680 kJ/mol
# GULP energy per Si atom -5580.773705 kJ/mol
# Density = 2.152176 g / cm^3
# Si number density = 21.570858 Si / 1000 Ang^3
#
#
#
# Elastic Constant Matrix: (Units=GPa)
#
#
# Indices 1 2 3 4 5 6 
#
# 1 55.0988 -9.0297 -2.1501 0.0000 0.0000 0.0000
# 2 -9.0297 85.4015 71.4032 0.0000 0.0000 0.0000
# 3 -2.1501 71.4032 108.0547 0.0000 0.0000 0.0000
# 4 0.0000 0.0000 0.0000 28.8847 0.0000 0.0000
# 5 0.0000 0.0000 0.0000 0.0000 10.1228 0.0000
# 6 0.0000 0.0000 0.0000 0.0000 0.0000 7.0478
#
#
#
# Elastic Compliance Matrix: (Units=1/GPa)
#
#
# Indices 1 2 3 4 5 6 
#
# 1 0.018677 0.003719 -0.002086 0.000000 0.000000 0.000000
# 2 0.003719 0.026906 -0.017706 0.000000 0.000000 0.000000
# 3 -0.002086 -0.017706 0.020913 0.000000 0.000000 0.000000
# 4 0.000000 0.000000 0.000000 0.034620 0.000000 0.000000
# 5 0.000000 0.000000 0.000000 0.000000 0.098787 0.000000
# 6 0.000000 0.000000 0.000000 0.000000 0.000000 0.141888
#
#
# Mechanical properties :
#
#
# Convention : Reuss Voigt Hill
#
# Bulk Modulus (GPa) = 29.11133 41.00020 35.05577
# Shear Modulus (GPa) = 12.97397 21.76651 17.37024
#
# Velocity S-wave (km/s) = 2.45512 3.18003 2.84080
# Velocity P-wave (km/s) = 4.64347 5.70368 5.20066
#
# Compressibility (1/GPa) = 0.03435089
#
# Stress axis : x y z
#
# Youngs Moduli (GPa) = 53.54111 37.16632 47.81691
#
# Poissons Ratio (x) = -0.13820 0.09973
# Poissons Ratio (y) = -0.19909 0.84663
# Poissons Ratio (z) = 0.11166 0.65806
#
# Static dielectric constant tensor:
#      x y z
#    x 1.821950 0.000000 0.000000 
#    y 0.000000 1.780250 0.000000 
#    z 0.000000 0.000000 1.772360 
# 
# From -- ./inp_files/16981.got.cif
#   From: 2010.05.17/outbox.cif.g08.bks.cpg/sg71_9_cif.got.tgz:16981.got - 2010.06.03 16:22:01.
