data_PCOD9519222
_publ_section_title
;
Structure prediction by ZEFSAII (Michael W. Deem and Ramdas Pophale) SiO2 
 PCOD9519222
Probable space group: I M M M
;
_chemical_formula_sum "Si O2"
_cell_formula_units_Z 88
_cell_length_a 28.389380
_cell_length_b 8.851842
_cell_length_c 19.000090
_cell_angle_alpha 90.000000
_cell_angle_beta 90.000000
_cell_angle_gamma 90.000000
_cell_volume 4774.690435
_symmetry_space_group_name_H-M "I M M M"
_symmetry_group_IT_number 71
_symmetry_cell_setting 'orthorhombic'
loop_
_space_group_symop_operation_xyz
x,y,z
-x,-y,z
x,-y,-z
-x,y,-z
-x,-y,-z
x,y,-z
-x,y,z
x,-y,z
1/2+x,1/2+y,1/2+z
1/2-x,1/2-y,1/2+z
1/2+x,1/2-y,1/2-z
1/2-x,1/2+y,1/2-z
1/2-x,1/2-y,1/2-z
1/2+x,1/2+y,1/2-z
1/2-x,1/2+y,1/2+z
1/2+x,1/2-y,1/2+z
loop_
_atom_site_type_symbol
_atom_site_label
_atom_site_fract_x
_atom_site_fract_y
_atom_site_fract_z
Si Si1 0.943496 0.170065 0.643326
Si Si2 0.442251 0.174479 0.000000
Si Si3 0.265203 0.316445 0.420414
Si Si4 0.946342 0.679929 0.206046
Si Si5 0.293882 0.818200 0.206816
Si Si6 0.646840 0.680654 0.322910
O O1 0.925572 0.244726 0.571383
O O2 0.938425 0.269621 0.713018
O O3 0.000000 0.158284 0.633662
O O4 0.925111 0.000000 0.654179
O O5 0.500000 0.176866 0.000000
O O6 0.427985 0.000000 0.000000
O O7 0.263800 0.260107 0.500000
O O8 0.266490 0.500000 0.422216
O O9 0.219581 0.277270 0.373181
O O10 0.312840 0.270583 0.378711
O O11 0.942694 0.500000 0.200845
O O12 0.905103 0.758020 0.161805
O O13 0.000000 0.725199 0.187447
O O14 0.250000 0.750000 0.250000
O O15 0.337690 0.746407 0.246908
O O16 0.295429 0.000000 0.212819
O O17 0.646969 0.500000 0.320098
#
# Coordination Sequence:
#
# PCOD9519222 Si02
#       6
#    16   8  16  16  16  16
#     4   9  16  26  41  61  84 112 151 200 250 295
#     4   9  15  23  37  57  81 109 143 185 237 295
#     4   8  15  29  51  79 106 132 164 203 248 300
#     4  10  20  33  49  69  95 129 172 220 263 305
#     4   9  16  28  49  75 103 133 164 202 248 302
#     4  10  19  31  51  76 103 135 170 211 256 307
#
# _framework density 18.430513000000001
#
# number of rings (size 3 to 8) (size 9 to 14) (size 15 to 20)
#    0.000    2.818    0.000    3.545    0.000    4.364 
#    0.000    0.000    2.000   20.182    0.000    3.818 
#    0.000    0.000    0.000    0.000    0.000    0.000 
#
# Total GULP energy -245060.191251 kJ/mol
# GULP energy per Si atom -5569.549801 kJ/mol
# Density = 1.838856 g / cm^3
# Si number density = 18.430513 Si / 1000 Ang^3
#
#
#
# Elastic Constant Matrix: (Units=GPa)
#
#
# Indices 1 2 3 4 5 6 
#
# 1 76.2210 21.9788 22.3582 0.0000 0.0000 0.0000
# 2 21.9788 56.2970 14.0031 0.0000 0.0000 0.0000
# 3 22.3582 14.0031 82.4363 0.0000 0.0000 0.0000
# 4 0.0000 0.0000 0.0000 18.5711 0.0000 0.0000
# 5 0.0000 0.0000 0.0000 0.0000 11.1141 0.0000
# 6 0.0000 0.0000 0.0000 0.0000 0.0000 25.0867
#
#
#
# Elastic Compliance Matrix: (Units=1/GPa)
#
#
# Indices 1 2 3 4 5 6 
#
# 1 0.015619 -0.005266 -0.003341 0.000000 0.000000 0.000000
# 2 -0.005266 0.020322 -0.002024 0.000000 0.000000 0.000000
# 3 -0.003341 -0.002024 0.013381 0.000000 0.000000 0.000000
# 4 0.000000 0.000000 0.000000 0.053847 0.000000 0.000000
# 5 0.000000 0.000000 0.000000 0.000000 0.089976 0.000000
# 6 0.000000 0.000000 0.000000 0.000000 0.000000 0.039862
#
#
# Mechanical properties :
#
#
# Convention : Reuss Voigt Hill
#
# Bulk Modulus (GPa) = 35.64012 36.84829 36.24420
# Shear Modulus (GPa) = 18.96656 21.39534 20.18095
#
# Velocity S-wave (km/s) = 3.21142 3.41084 3.31263
# Velocity P-wave (km/s) = 5.75591 5.96224 5.85998
#
# Compressibility (1/GPa) = 0.02805827
#
# Stress axis : x y z
#
# Youngs Moduli (GPa) = 64.02657 49.20684 74.73510
#
# Poissons Ratio (x) = 0.25915 0.24972
# Poissons Ratio (y) = 0.33719 0.15124
# Poissons Ratio (z) = 0.21394 0.09958
#
# Static dielectric constant tensor:
#      x y z
#    x 1.234570 0.000000 0.000000 
#    y 0.000000 1.628320 0.000000 
#    z 0.000000 0.000000 1.637200 
# 
# From -- ./inp_files/49234.got.cif
#   From: 2010.05.17/outbox.cif.g08.bks.cpg/sg71_25_cif.got.tgz:49234.got - 2010.06.03 16:22:01.
