data_PCOD9519229
_publ_section_title
;
Structure prediction by ZEFSAII (Michael W. Deem and Ramdas Pophale) SiO2 
 PCOD9519229
Probable space group: I M M M
;
_chemical_formula_sum "Si O2"
_cell_formula_units_Z 104
_cell_length_a 23.386202
_cell_length_b 9.383769
_cell_length_c 28.472041
_cell_angle_alpha 90.000000
_cell_angle_beta 90.000000
_cell_angle_gamma 90.000000
_cell_volume 6248.209822
_symmetry_space_group_name_H-M "I M M M"
_symmetry_group_IT_number 71
_symmetry_cell_setting 'orthorhombic'
loop_
_space_group_symop_operation_xyz
x,y,z
-x,-y,z
x,-y,-z
-x,y,-z
-x,-y,-z
x,y,-z
-x,y,z
x,-y,z
1/2+x,1/2+y,1/2+z
1/2-x,1/2-y,1/2+z
1/2+x,1/2-y,1/2-z
1/2-x,1/2+y,1/2-z
1/2-x,1/2-y,1/2-z
1/2+x,1/2+y,1/2-z
1/2-x,1/2+y,1/2+z
1/2+x,1/2-y,1/2+z
loop_
_atom_site_type_symbol
_atom_site_label
_atom_site_fract_x
_atom_site_fract_y
_atom_site_fract_z
Si Si1 0.431212 0.166138 0.092547
Si Si2 0.372319 0.172020 0.352561
Si Si3 0.933798 0.167307 0.228134
Si Si4 0.128574 0.832492 0.675246
Si Si5 0.069549 0.836859 0.500000
Si Si6 0.566251 0.826767 0.553377
Si Si7 0.256599 0.168917 0.299433
O O1 0.500000 0.177687 0.096381
O O2 0.402826 0.236009 0.137677
O O3 0.412764 0.253048 0.046504
O O4 0.417031 0.000000 0.087932
O O5 0.417172 0.237159 0.315898
O O6 0.391097 0.218594 0.404958
O O7 0.310223 0.214581 0.331666
O O8 0.374533 0.000000 0.351761
O O9 0.894210 0.202144 0.272633
O O10 0.000000 0.186522 0.241290
O O11 0.925037 0.000000 0.216796
O O12 0.196534 0.812901 0.674023
O O13 0.115357 0.000000 0.666958
O O14 0.000000 0.838419 0.500000
O O15 0.089209 0.000000 0.500000
O O16 0.580534 0.780416 0.500000
O O17 0.500000 0.785103 0.563284
O O18 0.566916 0.000000 0.552993
O O19 0.250000 0.250000 0.250000
O O20 0.263430 0.000000 0.289442
#
# Coordination Sequence:
#
# PCOD9519229 Si02
#       7
#    16  16  16  16   8  16  16
#     4  10  20  33  51  77 105 131 165 212 260 303
#     4  10  19  31  51  76  99 126 166 214 254 294
#     4  10  20  32  47  70 101 135 166 199 246 304
#     4  10  20  34  50  68  97 136 173 206 247 307
#     4   9  17  31  53  77 101 133 167 199 246 309
#     4   8  14  26  46  73 103 131 158 195 250 308
#     4  10  20  34  52  72  97 130 171 211 248 298
#
# _framework density 16.644767000000002
#
# number of rings (size 3 to 8) (size 9 to 14) (size 15 to 20)
#    0.000    2.385    1.538    2.077    0.000    4.615 
#    0.000    0.000    1.692    0.462    0.000    2.154 
#    0.000    0.000    0.000    0.000    0.000    0.000 
#
# Total GULP energy -289834.394844 kJ/mol
# GULP energy per Si atom -5573.738362 kJ/mol
# Density = 1.660688 g / cm^3
# Si number density = 16.644767 Si / 1000 Ang^3
#
#
#
# Elastic Constant Matrix: (Units=GPa)
#
#
# Indices 1 2 3 4 5 6 
#
# 1 69.7640 21.2650 49.7735 0.0000 0.0000 0.0000
# 2 21.2650 46.6033 47.2994 0.0000 0.0000 0.0000
# 3 49.7735 47.2994 126.1368 0.0000 0.0000 0.0000
# 4 0.0000 0.0000 0.0000 24.3908 0.0000 0.0000
# 5 0.0000 0.0000 0.0000 0.0000 17.3964 0.0000
# 6 0.0000 0.0000 0.0000 0.0000 0.0000 18.8729
#
#
#
# Elastic Compliance Matrix: (Units=1/GPa)
#
#
# Indices 1 2 3 4 5 6 
#
# 1 0.020044 -0.001806 -0.007232 0.000000 0.000000 0.000000
# 2 -0.001806 0.034805 -0.012339 0.000000 0.000000 0.000000
# 3 -0.007232 -0.012339 0.015409 0.000000 0.000000 0.000000
# 4 0.000000 0.000000 0.000000 0.040999 0.000000 0.000000
# 5 0.000000 0.000000 0.000000 0.000000 0.057483 0.000000
# 6 0.000000 0.000000 0.000000 0.000000 0.000000 0.052986
#
#
# Mechanical properties :
#
#
# Convention : Reuss Voigt Hill
#
# Bulk Modulus (GPa) = 36.35837 53.24221 44.80029
# Shear Modulus (GPa) = 18.27168 20.40977 19.34073
#
# Velocity S-wave (km/s) = 3.31682 3.50551 3.41247
# Velocity P-wave (km/s) = 6.04644 6.96000 6.51924
#
# Compressibility (1/GPa) = 0.02750398
#
# Stress axis : x y z
#
# Youngs Moduli (GPa) = 49.88917 28.73183 64.89890
#
# Poissons Ratio (x) = 0.05189 0.46937
# Poissons Ratio (y) = 0.09009 0.80076
# Poissons Ratio (z) = 0.36082 0.35451
#
# Static dielectric constant tensor:
#      x y z
#    x 1.566060 0.000000 0.000000 
#    y 0.000000 1.557990 0.000000 
#    z 0.000000 0.000000 1.549450 
# 
# From -- ./inp_files/13328.got.cif
#   From: 2010.05.17/outbox.cif.g08.bks.cpg/sg71_7_cif.got.tgz:13328.got - 2010.06.03 16:22:01.
