data_PCOD9519423
_publ_section_title
;
Structure prediction by ZEFSAII (Michael W. Deem and Ramdas Pophale) SiO2 
 PCOD9519423
Probable space group: I M M M
;
_chemical_formula_sum "Si O2"
_cell_formula_units_Z 88
_cell_length_a 21.402454
_cell_length_b 13.635250
_cell_length_c 17.257447
_cell_angle_alpha 90.000000
_cell_angle_beta 90.000000
_cell_angle_gamma 90.000000
_cell_volume 5036.202980
_symmetry_space_group_name_H-M "I M M M"
_symmetry_group_IT_number 71
_symmetry_cell_setting 'orthorhombic'
loop_
_space_group_symop_operation_xyz
x,y,z
-x,-y,z
x,-y,-z
-x,y,-z
-x,-y,-z
x,y,-z
-x,y,z
x,-y,z
1/2+x,1/2+y,1/2+z
1/2-x,1/2-y,1/2+z
1/2+x,1/2-y,1/2-z
1/2-x,1/2+y,1/2-z
1/2-x,1/2-y,1/2-z
1/2+x,1/2+y,1/2-z
1/2-x,1/2+y,1/2+z
1/2+x,1/2-y,1/2+z
loop_
_atom_site_type_symbol
_atom_site_label
_atom_site_fract_x
_atom_site_fract_y
_atom_site_fract_z
Si Si1 0.136029 0.383260 0.646037
Si Si2 0.431144 0.185401 0.593397
Si Si3 0.247216 0.777634 0.088465
Si Si4 0.000000 0.618871 0.590368
Si Si5 0.313940 0.889305 0.680633
Si Si6 0.877006 0.108447 0.906793
O O1 0.139712 0.500000 0.629067
O O2 0.184799 0.323904 0.594261
O O3 0.064591 0.351451 0.631772
O O4 0.160966 0.368460 0.733243
O O5 0.429117 0.182899 0.500000
O O6 0.500000 0.153770 0.618801
O O7 0.375148 0.122034 0.626890
O O8 0.417950 0.298345 0.618503
O O9 0.234848 0.689319 0.147750
O O10 0.194814 0.860056 0.107537
O O11 0.234200 0.745057 0.000000
O O12 0.000000 0.500000 0.591107
O O13 0.000000 0.649353 0.500000
O O14 0.289644 0.000000 0.678113
O O15 0.891103 0.000000 0.875644
O O16 0.884579 0.103667 0.000000
#
# Coordination Sequence:
#
# PCOD9519423 Si02
#       6
#    16  16  16   8  16  16
#     4  10  20  33  52  77 105 135 165 206 260 311
#     4   9  18  30  44  65  93 129 173 213 250 298
#     4  10  19  32  51  74 101 132 170 211 255 308
#     4   9  18  32  50  76 106 132 164 203 246 306
#     4  10  21  34  49  70 101 135 170 211 255 303
#     4   8  14  25  42  65  92 121 155 199 248 296
#
# _framework density 17.473482000000001
#
# number of rings (size 3 to 8) (size 9 to 14) (size 15 to 20)
#    0.000    2.636    0.000    3.273    1.273    4.000 
#    0.000    2.727    0.000    0.000    0.000    0.636 
#    0.000    2.182    0.000    0.000    0.000    0.000 
#
# Total GULP energy -245194.429155 kJ/mol
# GULP energy per Si atom -5572.600663 kJ/mol
# Density = 1.743371 g / cm^3
# Si number density = 17.473482 Si / 1000 Ang^3
#
#
#
# Elastic Constant Matrix: (Units=GPa)
#
#
# Indices 1 2 3 4 5 6 
#
# 1 85.3788 5.6328 17.4873 0.0000 0.0000 0.0000
# 2 5.6328 45.3988 30.6762 0.0000 0.0000 0.0000
# 3 17.4873 30.6762 49.1643 0.0000 0.0000 0.0000
# 4 0.0000 0.0000 0.0000 12.2794 0.0000 0.0000
# 5 0.0000 0.0000 0.0000 0.0000 16.8980 0.0000
# 6 0.0000 0.0000 0.0000 0.0000 0.0000 14.7195
#
#
#
# Elastic Compliance Matrix: (Units=1/GPa)
#
#
# Indices 1 2 3 4 5 6 
#
# 1 0.012804 0.002574 -0.006160 0.000000 0.000000 0.000000
# 2 0.002574 0.038601 -0.025000 0.000000 0.000000 0.000000
# 3 -0.006160 -0.025000 0.038130 0.000000 0.000000 0.000000
# 4 0.000000 0.000000 0.000000 0.081437 0.000000 0.000000
# 5 0.000000 0.000000 0.000000 0.000000 0.059179 0.000000
# 6 0.000000 0.000000 0.000000 0.000000 0.000000 0.067937
#
#
# Mechanical properties :
#
#
# Convention : Reuss Voigt Hill
#
# Bulk Modulus (GPa) = 30.90101 31.94827 31.42464
# Shear Modulus (GPa) = 13.65938 17.18910 15.42424
#
# Velocity S-wave (km/s) = 2.79896 3.13984 2.97429
# Velocity P-wave (km/s) = 5.30740 5.60967 5.46062
#
# Compressibility (1/GPa) = 0.03236140
#
# Stress axis : x y z
#
# Youngs Moduli (GPa) = 78.09766 25.90639 26.22593
#
# Poissons Ratio (x) = -0.06668 0.16156
# Poissons Ratio (y) = -0.20102 0.65566
# Poissons Ratio (z) = 0.48112 0.64767
#
# Static dielectric constant tensor:
#      x y z
#    x 1.604170 0.000000 0.000000 
#    y 0.000000 1.600380 0.000000 
#    z 0.000000 0.000000 1.618640 
# 
# From -- ./inp_files/37745.got.cif
#   From: 2010.05.17/outbox.cif.g08.bks.cpg/sg71_19_cif.got.tgz:37745.got - 2010.06.03 16:22:01.
