data_PCOD9519882
_publ_section_title
;
Structure prediction by ZEFSAII (Michael W. Deem and Ramdas Pophale) SiO2 
 PCOD9519882
Probable space group: I M M M
;
_chemical_formula_sum "Si O2"
_cell_formula_units_Z 120
_cell_length_a 15.206654
_cell_length_b 23.412512
_cell_length_c 19.050471
_cell_angle_alpha 90.000000
_cell_angle_beta 90.000000
_cell_angle_gamma 90.000000
_cell_volume 6782.462403
_symmetry_space_group_name_H-M "I M M M"
_symmetry_group_IT_number 71
_symmetry_cell_setting 'orthorhombic'
loop_
_space_group_symop_operation_xyz
x,y,z
-x,-y,z
x,-y,-z
-x,y,-z
-x,-y,-z
x,y,-z
-x,y,z
x,-y,z
1/2+x,1/2+y,1/2+z
1/2-x,1/2-y,1/2+z
1/2+x,1/2-y,1/2-z
1/2-x,1/2+y,1/2-z
1/2-x,1/2-y,1/2-z
1/2+x,1/2+y,1/2-z
1/2-x,1/2+y,1/2+z
1/2+x,1/2-y,1/2+z
loop_
_atom_site_type_symbol
_atom_site_label
_atom_site_fract_x
_atom_site_fract_y
_atom_site_fract_z
Si Si1 0.304688 0.139447 0.815516
Si Si2 0.000000 0.934105 0.084864
Si Si3 0.101716 0.067727 0.415643
Si Si4 0.902334 0.722516 0.873228
Si Si5 0.098698 0.247550 0.708956
Si Si6 0.147616 0.842890 0.919751
Si Si7 0.399498 0.931990 0.076793
Si Si8 0.263305 0.652044 0.161174
O O1 0.376694 0.189552 0.817233
O O2 0.224611 0.159933 0.863558
O O3 0.343620 0.086548 0.857128
O O4 0.274745 0.129665 0.735713
O O5 0.083275 0.894497 0.103433
O O6 0.000000 0.000000 0.110781
O O7 0.000000 0.937131 0.000000
O O8 0.107770 0.075190 0.500000
O O9 0.176231 0.105787 0.378346
O O10 0.000000 0.082587 0.395348
O O11 0.113462 0.000000 0.400899
O O12 0.897054 0.745814 0.793060
O O13 0.895253 0.780104 0.918359
O O14 0.820303 0.679063 0.880508
O O15 0.000000 0.696669 0.882784
O O16 0.171488 0.203964 0.681616
O O17 0.000000 0.230457 0.688900
O O18 0.174681 0.854748 0.000000
O O19 0.500000 0.912062 0.084231
O O20 0.400625 0.000000 0.073962
O O21 0.366998 0.911386 0.000000
#
# Coordination Sequence:
#
# PCOD9519882 Si02
#       8
#    16   8  16  16  16  16  16  16
#     4  11  20  34  51  80 113 142 181 229 281 336
#     4   9  20  36  50  68  98 144 196 236 270 307
#     4   9  20  41  65  86 111 143 177 222 289 359
#     4  10  19  34  53  76 110 149 186 221 272 331
#     4  10  19  33  54  78 109 145 178 226 287 336
#     4  11  20  32  52  72 103 149 187 227 269 318
#     4   9  19  36  55  75 106 151 196 234 274 323
#     4  11  20  35  58  85 113 141 184 233 282 339
#
# _framework density 17.692689000000001
#
# number of rings (size 3 to 8) (size 9 to 14) (size 15 to 20)
#    0.000    1.933    3.333    2.800    0.000    2.133 
#    1.200    1.333    0.000    2.800    0.000    0.933 
#    0.000    0.000    0.000    0.000    0.000    0.000 
#
# Total GULP energy -334297.144134 kJ/mol
# GULP energy per Si atom -5571.619069 kJ/mol
# Density = 1.765242 g / cm^3
# Si number density = 17.692689 Si / 1000 Ang^3
#
#
#
# Elastic Constant Matrix: (Units=GPa)
#
#
# Indices 1 2 3 4 5 6 
#
# 1 121.4762 52.4430 29.8883 0.0000 0.0000 0.0000
# 2 52.4430 77.4608 35.2333 0.0000 0.0000 0.0000
# 3 29.8883 35.2333 45.8841 0.0000 0.0000 0.0000
# 4 0.0000 0.0000 0.0000 23.7904 0.0000 0.0000
# 5 0.0000 0.0000 0.0000 0.0000 18.3635 0.0000
# 6 0.0000 0.0000 0.0000 0.0000 0.0000 32.9491
#
#
#
# Elastic Compliance Matrix: (Units=1/GPa)
#
#
# Indices 1 2 3 4 5 6 
#
# 1 0.011799 -0.006904 -0.002385 0.000000 0.000000 0.000000
# 2 -0.006904 0.023878 -0.013839 0.000000 0.000000 0.000000
# 3 -0.002385 -0.013839 0.033974 0.000000 0.000000 0.000000
# 4 0.000000 0.000000 0.000000 0.042034 0.000000 0.000000
# 5 0.000000 0.000000 0.000000 0.000000 0.054456 0.000000
# 6 0.000000 0.000000 0.000000 0.000000 0.000000 0.030350
#
#
# Mechanical properties :
#
#
# Convention : Reuss Voigt Hill
#
# Bulk Modulus (GPa) = 42.74000 53.32781 48.03390
# Shear Modulus (GPa) = 19.95661 23.50437 21.73049
#
# Velocity S-wave (km/s) = 3.36215 3.64879 3.50840
# Velocity P-wave (km/s) = 6.26749 6.92518 6.60453
#
# Compressibility (1/GPa) = 0.02339729
#
# Stress axis : x y z
#
# Youngs Moduli (GPa) = 84.75135 41.87910 29.43457
#
# Poissons Ratio (x) = 0.28912 0.07019
# Poissons Ratio (y) = 0.58510 0.40733
# Poissons Ratio (z) = 0.20210 0.57955
#
# Static dielectric constant tensor:
#      x y z
#    x 1.646010 0.000000 0.000000 
#    y 0.000000 1.595140 0.000000 
#    z 0.000000 0.000000 1.603390 
# 
# From -- ./inp_files/53429.got.cif
#   From: 2010.05.17/outbox.cif.g08.bks.cpg/sg71_27_cif.got.tgz:53429.got - 2010.06.03 16:22:01.
