data_PCOD9519167
_publ_section_title
;
Structure prediction by ZEFSAII (Michael W. Deem and Ramdas Pophale) SiO2 
 PCOD9519167
Probable space group: I M M M
;
_chemical_formula_sum "Si O2"
_cell_formula_units_Z 128
_cell_length_a 18.415517
_cell_length_b 17.803881
_cell_length_c 22.294768
_cell_angle_alpha 90.000000
_cell_angle_beta 90.000000
_cell_angle_gamma 90.000000
_cell_volume 7309.733709
_symmetry_space_group_name_H-M "I M M M"
_symmetry_group_IT_number 71
_symmetry_cell_setting 'orthorhombic'
loop_
_space_group_symop_operation_xyz
x,y,z
-x,-y,z
x,-y,-z
-x,y,-z
-x,-y,-z
x,y,-z
-x,y,z
x,-y,z
1/2+x,1/2+y,1/2+z
1/2-x,1/2-y,1/2+z
1/2+x,1/2-y,1/2-z
1/2-x,1/2+y,1/2-z
1/2-x,1/2-y,1/2-z
1/2+x,1/2+y,1/2-z
1/2-x,1/2+y,1/2+z
1/2+x,1/2-y,1/2+z
loop_
_atom_site_type_symbol
_atom_site_label
_atom_site_fract_x
_atom_site_fract_y
_atom_site_fract_z
Si Si1 0.418540 0.670912 0.859464
Si Si2 0.680998 0.585854 0.295277
Si Si3 0.721823 0.587990 0.157079
Si Si4 0.709275 0.789737 0.429572
Si Si5 0.584483 0.289337 0.640841
Si Si6 0.861118 0.701864 0.567620
Si Si7 0.417496 0.797622 0.761514
Si Si8 0.340723 0.085675 0.166775
O O1 0.500000 0.643370 0.850332
O O2 0.359226 0.606690 0.866891
O O3 0.412227 0.728898 0.914218
O O4 0.398421 0.725623 0.803155
O O5 0.653881 0.500000 0.291379
O O6 0.710696 0.605240 0.228258
O O7 0.621984 0.639508 0.325905
O O8 0.753602 0.587573 0.335298
O O9 0.740752 0.500000 0.151449
O O10 0.773753 0.642647 0.117838
O O11 0.705332 0.813332 0.500000
O O12 0.637743 0.743346 0.410092
O O13 0.779694 0.735405 0.424042
O O14 0.500000 0.303279 0.623820
O O15 0.584488 0.227114 0.693307
O O16 0.871236 0.678856 0.500000
O O17 0.871919 0.632503 0.611609
O O18 0.500000 0.817490 0.778275
O O19 0.366460 0.866753 0.776128
O O20 0.364387 0.000000 0.169465
#
# Coordination Sequence:
#
# PCOD9519167 Si02
#       8
#    16  16  16  16  16  16  16  16
#     4   9  17  30  48  74 109 141 172 215 265 324
#     4  10  20  33  52  84 117 140 169 216 277 341
#     4  10  20  33  55  84 113 145 178 221 280 337
#     4  10  21  37  56  78 107 144 190 239 272 312
#     4  11  21  35  58  81 106 146 184 224 280 333
#     4   9  18  32  50  71  97 138 184 222 262 305
#     4   9  18  31  49  76 105 138 177 216 266 323
#     4  10  19  31  50  74 104 140 173 214 268 320
#
# _framework density 17.510898000000001
#
# number of rings (size 3 to 8) (size 9 to 14) (size 15 to 20)
#    0.000    2.250    2.500    0.750    0.000    2.750 
#    0.000    1.250    0.000    1.500    0.000    8.750 
#    0.000    0.000    0.000    0.000    0.000    0.000 
#
# Total GULP energy -356375.895479 kJ/mol
# GULP energy per Si atom -5568.373367 kJ/mol
# Density = 1.747104 g / cm^3
# Si number density = 17.510898 Si / 1000 Ang^3
#
#
#
# Elastic Constant Matrix: (Units=GPa)
#
#
# Indices 1 2 3 4 5 6 
#
# 1 47.4762 23.7792 11.9628 0.0000 0.0000 0.0000
# 2 23.7792 54.8778 20.0655 0.0000 0.0000 0.0000
# 3 11.9628 20.0655 51.8264 0.0000 0.0000 0.0000
# 4 0.0000 0.0000 0.0000 13.3135 0.0000 0.0000
# 5 0.0000 0.0000 0.0000 0.0000 14.3729 0.0000
# 6 0.0000 0.0000 0.0000 0.0000 0.0000 14.5114
#
#
#
# Elastic Compliance Matrix: (Units=1/GPa)
#
#
# Indices 1 2 3 4 5 6 
#
# 1 0.027077 -0.011005 -0.001989 0.000000 0.000000 0.000000
# 2 -0.011005 0.025700 -0.007410 0.000000 0.000000 0.000000
# 3 -0.001989 -0.007410 0.022623 0.000000 0.000000 0.000000
# 4 0.000000 0.000000 0.000000 0.075112 0.000000 0.000000
# 5 0.000000 0.000000 0.000000 0.000000 0.069576 0.000000
# 6 0.000000 0.000000 0.000000 0.000000 0.000000 0.068911
#
#
# Mechanical properties :
#
#
# Convention : Reuss Voigt Hill
#
# Bulk Modulus (GPa) = 28.90891 29.53280 29.22085
# Shear Modulus (GPa) = 14.64821 14.99774 14.82298
#
# Velocity S-wave (km/s) = 2.89540 2.92974 2.91262
# Velocity P-wave (km/s) = 5.26524 5.32415 5.29477
#
# Compressibility (1/GPa) = 0.03459142
#
# Stress axis : x y z
#
# Youngs Moduli (GPa) = 36.93229 38.90978 44.20229
#
# Poissons Ratio (x) = 0.42822 0.08792
# Poissons Ratio (y) = 0.40645 0.32754
# Poissons Ratio (z) = 0.07346 0.28832
#
# Static dielectric constant tensor:
#      x y z
#    x 1.617940 0.000000 0.000000 
#    y 0.000000 1.590730 0.000000 
#    z 0.000000 0.000000 1.619600 
# 
# From -- ./inp_files/48448.got.cif
#   From: 2010.05.17/outbox.cif.g08.bks.cpg/sg71_25_cif.got.tgz:48448.got - 2010.06.03 16:22:01.
