data_PCOD9519205
_publ_section_title
;
Structure prediction by ZEFSAII (Michael W. Deem and Ramdas Pophale) SiO2 
 PCOD9519205
Probable space group: I M M M
;
_chemical_formula_sum "Si O2"
_cell_formula_units_Z 96
_cell_length_a 11.803267
_cell_length_b 13.854816
_cell_length_c 33.548610
_cell_angle_alpha 90.000000
_cell_angle_beta 90.000000
_cell_angle_gamma 90.000000
_cell_volume 5486.274393
_symmetry_space_group_name_H-M "I M M M"
_symmetry_group_IT_number 71
_symmetry_cell_setting 'orthorhombic'
loop_
_space_group_symop_operation_xyz
x,y,z
-x,-y,z
x,-y,-z
-x,y,-z
-x,-y,-z
x,y,-z
-x,y,z
x,-y,z
1/2+x,1/2+y,1/2+z
1/2-x,1/2-y,1/2+z
1/2+x,1/2-y,1/2-z
1/2-x,1/2+y,1/2-z
1/2-x,1/2-y,1/2-z
1/2+x,1/2+y,1/2-z
1/2-x,1/2+y,1/2+z
1/2+x,1/2-y,1/2+z
loop_
_atom_site_type_symbol
_atom_site_label
_atom_site_fract_x
_atom_site_fract_y
_atom_site_fract_z
Si Si1 0.868620 0.886016 0.952534
Si Si2 0.744544 0.117040 0.733085
Si Si3 0.000000 0.384448 0.648392
Si Si4 0.635031 0.385625 0.848512
Si Si5 0.365712 0.385856 0.315396
Si Si6 0.771812 0.292032 0.614694
Si Si7 0.500000 0.117482 0.241667
O O1 0.780937 0.824797 0.926909
O O2 0.000000 0.862598 0.942545
O O3 0.852838 0.000000 0.943484
O O4 0.854910 0.873729 0.000000
O O5 0.813896 0.146687 0.694178
O O6 0.804938 0.142749 0.774364
O O7 0.614244 0.148498 0.736223
O O8 0.744682 0.000000 0.731893
O O9 0.887936 0.346232 0.626675
O O10 0.000000 0.353294 0.695089
O O11 0.000000 0.500000 0.648156
O O12 0.500000 0.369238 0.849126
O O13 0.654193 0.500000 0.853340
O O14 0.697765 0.320296 0.880927
O O15 0.500000 0.377080 0.311263
O O16 0.339477 0.500000 0.322572
O O17 0.318070 0.324854 0.351837
O O18 0.500000 0.000000 0.241232
#
# Coordination Sequence:
#
# PCOD9519205 Si02
#       7
#    16  16   8  16  16  16   8
#     4   9  19  38  64  92 121 148 170 202 257 327
#     4   9  17  32  51  70 101 144 188 235 282 321
#     4  11  20  32  50  79 116 146 173 218 283 344
#     4  10  22  40  56  72 102 145 196 245 279 310
#     4  10  19  31  50  78 110 143 181 227 274 328
#     4  12  21  34  55  83 108 145 183 222 271 328
#     4   9  16  30  48  70 107 148 177 222 289 337
#
# _framework density 17.498214000000001
#
# number of rings (size 3 to 8) (size 9 to 14) (size 15 to 20)
#    0.000    2.000    2.500    3.000    0.000    4.000 
#    3.000    0.417    0.000    2.000    0.000    2.333 
#    0.000    0.000    0.000    0.000    0.000    0.000 
#
# Total GULP energy -268181.394738 kJ/mol
# GULP energy per Si atom -5587.112390 kJ/mol
# Density = 1.745839 g / cm^3
# Si number density = 17.498214 Si / 1000 Ang^3
#
#
#
# Elastic Constant Matrix: (Units=GPa)
#
#
# Indices 1 2 3 4 5 6 
#
# 1 104.0184 41.3724 45.2252 0.0000 0.0000 0.0000
# 2 41.3724 80.2984 31.6613 0.0000 0.0000 0.0000
# 3 45.2252 31.6613 64.2428 0.0000 0.0000 0.0000
# 4 0.0000 0.0000 0.0000 14.2517 0.0000 0.0000
# 5 0.0000 0.0000 0.0000 0.0000 31.9228 0.0000
# 6 0.0000 0.0000 0.0000 0.0000 0.0000 24.2189
#
#
#
# Elastic Compliance Matrix: (Units=1/GPa)
#
#
# Indices 1 2 3 4 5 6 
#
# 1 0.015026 -0.004432 -0.008393 0.000000 0.000000 0.000000
# 2 -0.004432 0.016765 -0.005142 0.000000 0.000000 0.000000
# 3 -0.008393 -0.005142 0.024009 0.000000 0.000000 0.000000
# 4 0.000000 0.000000 0.000000 0.070167 0.000000 0.000000
# 5 0.000000 0.000000 0.000000 0.000000 0.031326 0.000000
# 6 0.000000 0.000000 0.000000 0.000000 0.000000 0.041290
#
#
# Mechanical properties :
#
#
# Convention : Reuss Voigt Hill
#
# Bulk Modulus (GPa) = 50.34252 53.89747 52.12000
# Shear Modulus (GPa) = 20.73490 22.76537 21.75014
#
# Velocity S-wave (km/s) = 3.44608 3.61087 3.52943
# Velocity P-wave (km/s) = 6.68330 6.94644 6.81614
#
# Compressibility (1/GPa) = 0.01986392
#
# Stress axis : x y z
#
# Youngs Moduli (GPa) = 66.55176 59.64900 41.65132
#
# Poissons Ratio (x) = 0.26439 0.34960
# Poissons Ratio (y) = 0.29498 0.21417
# Poissons Ratio (z) = 0.55859 0.30672
#
# Static dielectric constant tensor:
#      x y z
#    x 1.588610 0.000000 0.000000 
#    y 0.000000 1.649830 0.000000 
#    z 0.000000 0.000000 1.563660 
# 
# From -- ./inp_files/69257.got.cif
#   From: 2010.05.17/outbox.cif.g08.bks.cpg/sg71_35_cif.got.tgz:69257.got - 2010.06.03 16:22:01.
