data_PCOD9519031
_publ_section_title
;
Structure prediction by ZEFSAII (Michael W. Deem and Ramdas Pophale) SiO2 
 PCOD9519031
Probable space group: I M M M
;
_chemical_formula_sum "Si O2"
_cell_formula_units_Z 112
_cell_length_a 15.435174
_cell_length_b 15.479317
_cell_length_c 28.478565
_cell_angle_alpha 90.000000
_cell_angle_beta 90.000000
_cell_angle_gamma 90.000000
_cell_volume 6804.268234
_symmetry_space_group_name_H-M "I M M M"
_symmetry_group_IT_number 71
_symmetry_cell_setting 'orthorhombic'
loop_
_space_group_symop_operation_xyz
x,y,z
-x,-y,z
x,-y,-z
-x,y,-z
-x,-y,-z
x,y,-z
-x,y,z
x,-y,z
1/2+x,1/2+y,1/2+z
1/2-x,1/2-y,1/2+z
1/2+x,1/2-y,1/2-z
1/2-x,1/2+y,1/2-z
1/2-x,1/2-y,1/2-z
1/2+x,1/2+y,1/2-z
1/2-x,1/2+y,1/2+z
1/2+x,1/2-y,1/2+z
loop_
_atom_site_type_symbol
_atom_site_label
_atom_site_fract_x
_atom_site_fract_y
_atom_site_fract_z
Si Si1 0.624719 0.400370 0.448889
Si Si2 0.832395 0.404193 0.446755
Si Si3 0.096052 0.403850 0.290627
Si Si4 0.902502 0.104549 0.843305
Si Si5 0.603618 0.598892 0.824348
Si Si6 0.775726 0.848070 0.238794
Si Si7 0.599853 0.232347 0.125104
O O1 0.599125 0.362205 0.500000
O O2 0.594504 0.500000 0.448967
O O3 0.728573 0.404223 0.448618
O O4 0.600084 0.364592 0.397693
O O5 0.865312 0.395400 0.500000
O O6 0.859838 0.500000 0.429206
O O7 0.857304 0.324194 0.414965
O O8 0.096752 0.500000 0.312334
O O9 0.183486 0.396740 0.260825
O O10 0.103572 0.328091 0.328698
O O11 0.000000 0.394205 0.267902
O O12 0.826255 0.142399 0.810906
O O13 0.000000 0.122165 0.824784
O O14 0.890692 0.000000 0.843482
O O15 0.500000 0.611496 0.815734
O O16 0.615649 0.500000 0.839924
O O17 0.657794 0.615228 0.777171
O O18 0.632784 0.672888 0.860904
O O19 0.750000 0.750000 0.250000
O O20 0.500000 0.242888 0.111758
#
# Coordination Sequence:
#
# PCOD9519031 Si02
#       7
#    16  16  16  16  16  16  16
#     4   8  15  28  46  69  99 136 170 197 238 298
#     4   9  17  29  47  72 103 136 166 201 249 310
#     4  10  20  33  49  70  97 128 161 200 246 302
#     4  10  20  32  49  74 103 136 175 216 252 296
#     4  10  21  37  54  71  95 129 174 222 261 304
#     4  12  22  33  51  71  97 134 171 216 265 306
#     4  10  19  31  47  69  95 126 167 208 252 302
#
# _framework density 16.460256000000001
#
# number of rings (size 3 to 8) (size 9 to 14) (size 15 to 20)
#    0.000    2.143    1.429    3.857    0.000    4.286 
#    0.000    2.143    0.000    0.429    0.000    2.000 
#    0.000    0.000    0.000    0.000    0.000    4.286 
#
# Total GULP energy -311780.915474 kJ/mol
# GULP energy per Si atom -5567.516348 kJ/mol
# Density = 1.642279 g / cm^3
# Si number density = 16.460256 Si / 1000 Ang^3
#
#
#
# Elastic Constant Matrix: (Units=GPa)
#
#
# Indices 1 2 3 4 5 6 
#
# 1 78.8502 34.9246 44.6790 0.0000 0.0000 0.0000
# 2 34.9246 108.2398 40.7981 0.0000 0.0000 0.0000
# 3 44.6790 40.7981 77.4693 0.0000 0.0000 0.0000
# 4 0.0000 0.0000 0.0000 22.0449 0.0000 0.0000
# 5 0.0000 0.0000 0.0000 0.0000 -14.0239 0.0000
# 6 0.0000 0.0000 0.0000 0.0000 0.0000 10.5761
#
#
#
# Elastic Compliance Matrix: (Units=1/GPa)
#
#
# Indices 1 2 3 4 5 6 
#
# 1 0.019385 -0.002546 -0.009839 0.000000 0.000000 0.000000
# 2 -0.002546 0.011861 -0.004778 0.000000 0.000000 0.000000
# 3 -0.009839 -0.004778 0.021099 0.000000 0.000000 0.000000
# 4 0.000000 0.000000 0.000000 0.045362 0.000000 0.000000
# 5 0.000000 0.000000 0.000000 0.000000 -0.071307 0.000000
# 6 0.000000 0.000000 0.000000 0.000000 0.000000 0.094552
#
#
# Mechanical properties :
#
#
# Convention : Reuss Voigt Hill
#
# Bulk Modulus (GPa) = 55.49759 56.15140 55.82450
# Shear Modulus (GPa) = 31.00074 13.32993 22.16533
#
# Velocity S-wave (km/s) = 4.34449 2.84883 3.67358
# Velocity P-wave (km/s) = 7.67824 6.70884 7.20985
#
# Compressibility (1/GPa) = 0.01801880
#
# Stress axis : x y z
#
# Youngs Moduli (GPa) = 51.58567 84.30789 47.39516
#
# Poissons Ratio (x) = 0.21467 0.46633
# Poissons Ratio (y) = 0.13135 0.22646
# Poissons Ratio (z) = 0.50756 0.40283
#
# Static dielectric constant tensor:
#      x y z
#    x 1.594440 0.000000 0.000000 
#    y 0.000000 1.560350 0.000000 
#    z 0.000000 0.000000 1.582960 
# 
# From -- ./inp_files/35350.got.cif
#   From: 2010.05.17/outbox.cif.g08.bks.cpg/sg71_18_cif.got.tgz:35350.got - 2010.06.03 16:22:01.
