data_PCOD9519773
_publ_section_title
;
Structure prediction by ZEFSAII (Michael W. Deem and Ramdas Pophale) SiO2 
 PCOD9519773
Probable space group: I M M M
;
_chemical_formula_sum "Si O2"
_cell_formula_units_Z 104
_cell_length_a 34.092915
_cell_length_b 21.790073
_cell_length_c 7.419705
_cell_angle_alpha 90.000000
_cell_angle_beta 90.000000
_cell_angle_gamma 90.000000
_cell_volume 5512.003180
_symmetry_space_group_name_H-M "I M M M"
_symmetry_group_IT_number 71
_symmetry_cell_setting 'orthorhombic'
loop_
_space_group_symop_operation_xyz
x,y,z
-x,-y,z
x,-y,-z
-x,y,-z
-x,-y,-z
x,y,-z
-x,y,z
x,-y,z
1/2+x,1/2+y,1/2+z
1/2-x,1/2-y,1/2+z
1/2+x,1/2-y,1/2-z
1/2-x,1/2+y,1/2-z
1/2-x,1/2-y,1/2-z
1/2+x,1/2+y,1/2-z
1/2-x,1/2+y,1/2+z
1/2+x,1/2-y,1/2+z
loop_
_atom_site_type_symbol
_atom_site_label
_atom_site_fract_x
_atom_site_fract_y
_atom_site_fract_z
Si Si1 0.954251 0.178186 0.000000
Si Si2 0.596165 0.115734 0.795145
Si Si3 0.399739 0.428229 0.500000
Si Si4 0.401315 0.254777 0.783363
Si Si5 0.046006 0.500000 0.720823
Si Si6 0.732607 0.428838 0.219425
Si Si7 0.345958 0.638210 0.784589
Si Si8 0.818704 0.573770 0.791472
O O1 0.934400 0.209086 0.825444
O O2 0.940498 0.107897 0.000000
O O3 0.000000 0.186488 0.000000
O O4 0.596614 0.184457 0.719482
O O5 0.569522 0.060955 0.716278
O O6 0.641437 0.095256 0.797996
O O7 0.581834 0.122338 0.000000
O O8 0.403899 0.500000 0.500000
O O9 0.375149 0.404991 0.327145
O O10 0.360860 0.292382 0.746038
O O11 0.406603 0.256898 0.000000
O O12 0.047873 0.500000 0.500000
O O13 0.000000 0.500000 0.770444
O O14 0.725038 0.500000 0.275701
O O15 0.697680 0.382990 0.268973
O O16 0.775887 0.408348 0.281390
O O17 0.734484 0.430432 0.000000
O O18 0.349497 0.628764 0.000000
O O19 0.818401 0.500000 0.787072
O O20 0.821340 0.593411 0.000000
#
# Coordination Sequence:
#
# PCOD9519773 Si02
#       8
#     8  16   8  16   8  16  16  16
#     4  10  22  39  58  81 108 140 175 213 260 320
#     4  10  19  33  52  73  99 130 169 215 269 324
#     4  10  20  33  54  84 111 139 178 214 261 309
#     4   9  20  36  56  79 103 139 177 217 265 316
#     4   9  18  32  51  73  97 127 165 215 273 326
#     4   8  14  26  46  71  98 134 176 212 253 304
#     4   9  17  33  53  74 108 144 179 219 259 305
#     4   9  17  29  47  71 100 135 171 209 261 321
#
# _framework density 18.867913999999999
#
# number of rings (size 3 to 8) (size 9 to 14) (size 15 to 20)
#    0.000    2.846    0.769    1.385    1.077    2.000 
#    1.385    2.308    0.000    0.462    0.000    4.308 
#    0.000    0.000    0.000    0.000    0.000    0.000 
#
# Total GULP energy -289663.568494 kJ/mol
# GULP energy per Si atom -5570.453240 kJ/mol
# Density = 1.882497 g / cm^3
# Si number density = 18.867914 Si / 1000 Ang^3
#
#
#
# Elastic Constant Matrix: (Units=GPa)
#
#
# Indices 1 2 3 4 5 6 
#
# 1 142.2817 75.7556 12.8419 0.0000 0.0000 0.0000
# 2 75.7556 146.6444 21.9230 0.0000 0.0000 0.0000
# 3 12.8419 21.9230 57.6178 0.0000 0.0000 0.0000
# 4 0.0000 0.0000 0.0000 12.7252 0.0000 0.0000
# 5 0.0000 0.0000 0.0000 0.0000 17.3501 0.0000
# 6 0.0000 0.0000 0.0000 0.0000 0.0000 12.2609
#
#
#
# Elastic Compliance Matrix: (Units=1/GPa)
#
#
# Indices 1 2 3 4 5 6 
#
# 1 0.009699 -0.004970 -0.000271 0.000000 0.000000 0.000000
# 2 -0.004970 0.009777 -0.002612 0.000000 0.000000 0.000000
# 3 -0.000271 -0.002612 0.018410 0.000000 0.000000 0.000000
# 4 0.000000 0.000000 0.000000 0.078584 0.000000 0.000000
# 5 0.000000 0.000000 0.000000 0.000000 0.057637 0.000000
# 6 0.000000 0.000000 0.000000 0.000000 0.000000 0.081560
#
#
# Mechanical properties :
#
#
# Convention : Reuss Voigt Hill
#
# Bulk Modulus (GPa) = 45.08548 63.06499 54.07523
# Shear Modulus (GPa) = 17.93617 24.20214 21.06916
#
# Velocity S-wave (km/s) = 3.08655 3.58539 3.34528
# Velocity P-wave (km/s) = 6.05389 7.11597 6.60631
#
# Compressibility (1/GPa) = 0.02218009
#
# Stress axis : x y z
#
# Youngs Moduli (GPa) = 103.10458 102.27887 54.31808
#
# Poissons Ratio (x) = 0.50832 0.01470
# Poissons Ratio (y) = 0.51242 0.14190
# Poissons Ratio (z) = 0.02791 0.26719
#
# Static dielectric constant tensor:
#      x y z
#    x 1.642220 0.000000 0.000000 
#    y 0.000000 1.653200 0.000000 
#    z 0.000000 0.000000 1.694210 
# 
# From -- ./inp_files/17106.got.cif
#   From: 2010.05.17/outbox.cif.g08.bks.cpg/sg71_9_cif.got.tgz:17106.got - 2010.06.03 16:22:01.
