data_PCOD9519300
_publ_section_title
;
Structure prediction by ZEFSAII (Michael W. Deem and Ramdas Pophale) SiO2 
 PCOD9519300
Probable space group: I M M M
;
_chemical_formula_sum "Si O2"
_cell_formula_units_Z 88
_cell_length_a 20.790121
_cell_length_b 11.520504
_cell_length_c 22.751313
_cell_angle_alpha 90.000000
_cell_angle_beta 90.000000
_cell_angle_gamma 90.000000
_cell_volume 5449.227771
_symmetry_space_group_name_H-M "I M M M"
_symmetry_group_IT_number 71
_symmetry_cell_setting 'orthorhombic'
loop_
_space_group_symop_operation_xyz
x,y,z
-x,-y,z
x,-y,-z
-x,y,-z
-x,-y,-z
x,y,-z
-x,y,z
x,-y,z
1/2+x,1/2+y,1/2+z
1/2-x,1/2-y,1/2+z
1/2+x,1/2-y,1/2-z
1/2-x,1/2+y,1/2-z
1/2-x,1/2-y,1/2-z
1/2+x,1/2+y,1/2-z
1/2-x,1/2+y,1/2+z
1/2+x,1/2-y,1/2+z
loop_
_atom_site_type_symbol
_atom_site_label
_atom_site_fract_x
_atom_site_fract_y
_atom_site_fract_z
Si Si1 0.143281 0.280790 0.898614
Si Si2 0.423045 0.364648 0.500000
Si Si3 0.312029 0.366419 0.711212
Si Si4 0.421940 0.000000 0.796168
Si Si5 0.076002 0.500000 0.842758
Si Si6 0.830462 0.710455 0.677764
Si Si7 0.785734 0.138190 0.568437
O O1 0.157663 0.203052 0.842197
O O2 0.103075 0.388992 0.875898
O O3 0.210447 0.328819 0.924512
O O4 0.105755 0.202663 0.944689
O O5 0.403794 0.500000 0.500000
O O6 0.500000 0.358831 0.500000
O O7 0.329507 0.500000 0.710791
O O8 0.235339 0.353934 0.698880
O O9 0.335149 0.307662 0.771517
O O10 0.387421 0.884319 0.821818
O O11 0.500000 0.000000 0.803260
O O12 0.405912 0.000000 0.726230
O O13 0.000000 0.500000 0.845109
O O14 0.820538 0.778010 0.615932
O O15 0.804395 0.156978 0.500000
O O16 0.793858 0.000000 0.581710
#
# Coordination Sequence:
#
# PCOD9519300 Si02
#       7
#    16   8  16   8   8  16  16
#     4  11  20  35  54  80 113 150 198 235 284 329
#     4  11  24  39  51  69 113 170 211 236 267 324
#     4  10  19  31  55  81 111 142 185 241 279 336
#     4  11  22  40  60  84 120 150 186 239 289 344
#     4  11  22  35  56  82 116 157 197 236 278 333
#     4  10  20  34  56  84 110 146 185 225 294 338
#     4  10  20  35  57  85 117 144 175 239 291 346
#
# _framework density 16.149076999999998
#
# number of rings (size 3 to 8) (size 9 to 14) (size 15 to 20)
#    0.000    1.545    4.545    1.636    0.000    0.364 
#    0.000    1.364    0.000    4.364    0.000    1.273 
#    0.000    0.000    0.000    0.000    0.000    0.000 
#
# Total GULP energy -245394.370009 kJ/mol
# GULP energy per Si atom -5577.144773 kJ/mol
# Density = 1.611232 g / cm^3
# Si number density = 16.149077 Si / 1000 Ang^3
#
#
#
# Elastic Constant Matrix: (Units=GPa)
#
#
# Indices 1 2 3 4 5 6 
#
# 1 64.6643 50.6949 42.6614 0.0000 0.0000 0.0000
# 2 50.6949 146.7271 61.8712 0.0000 0.0000 0.0000
# 3 42.6614 61.8712 115.2686 0.0000 0.0000 0.0000
# 4 0.0000 0.0000 0.0000 -15.9106 0.0000 0.0000
# 5 0.0000 0.0000 0.0000 0.0000 14.9868 0.0000
# 6 0.0000 0.0000 0.0000 0.0000 0.0000 30.9105
#
#
#
# Elastic Compliance Matrix: (Units=1/GPa)
#
#
# Indices 1 2 3 4 5 6 
#
# 1 0.023771 -0.005821 -0.005673 0.000000 0.000000 0.000000
# 2 -0.005821 0.010234 -0.003339 0.000000 0.000000 0.000000
# 3 -0.005673 -0.003339 0.012567 0.000000 0.000000 0.000000
# 4 0.000000 0.000000 0.000000 -0.062851 0.000000 0.000000
# 5 0.000000 0.000000 0.000000 0.000000 0.066726 0.000000
# 6 0.000000 0.000000 0.000000 0.000000 0.000000 0.032351
#
#
# Mechanical properties :
#
#
# Convention : Reuss Voigt Hill
#
# Bulk Modulus (GPa) = 59.14972 70.79056 64.97014
# Shear Modulus (GPa) = 42.33707 17.42617 29.88162
#
# Velocity S-wave (km/s) = 5.12575 3.28850 4.30625
# Velocity P-wave (km/s) = 8.46982 7.63871 8.06498
#
# Compressibility (1/GPa) = 0.01690625
#
# Stress axis : x y z
#
# Youngs Moduli (GPa) = 42.06893 97.70923 79.57052
#
# Poissons Ratio (x) = 0.56872 0.45143
# Poissons Ratio (y) = 0.24486 0.26570
# Poissons Ratio (z) = 0.23867 0.32627
#
# Static dielectric constant tensor:
#      x y z
#    x 1.532920 0.000000 0.000000 
#    y 0.000000 1.519400 0.000000 
#    z 0.000000 0.000000 1.521920 
# 
# From -- ./inp_files/25686.got.cif
#   From: 2010.05.17/outbox.cif.g08.bks.cpg/sg71_13_cif.got.tgz:25686.got - 2010.06.03 16:22:01.
