data_PCOD9519689
_publ_section_title
;
Structure prediction by ZEFSAII (Michael W. Deem and Ramdas Pophale) SiO2 
 PCOD9519689
Probable space group: I M M M
;
_chemical_formula_sum "Si O2"
_cell_formula_units_Z 88
_cell_length_a 20.707207
_cell_length_b 20.360097
_cell_length_c 11.738232
_cell_angle_alpha 90.000000
_cell_angle_beta 90.000000
_cell_angle_gamma 90.000000
_cell_volume 4948.847334
_symmetry_space_group_name_H-M "I M M M"
_symmetry_group_IT_number 71
_symmetry_cell_setting 'orthorhombic'
loop_
_space_group_symop_operation_xyz
x,y,z
-x,-y,z
x,-y,-z
-x,y,-z
-x,-y,-z
x,y,-z
-x,y,z
x,-y,z
1/2+x,1/2+y,1/2+z
1/2-x,1/2-y,1/2+z
1/2+x,1/2-y,1/2-z
1/2-x,1/2+y,1/2-z
1/2-x,1/2-y,1/2-z
1/2+x,1/2+y,1/2-z
1/2-x,1/2+y,1/2+z
1/2+x,1/2-y,1/2+z
loop_
_atom_site_type_symbol
_atom_site_label
_atom_site_fract_x
_atom_site_fract_y
_atom_site_fract_z
Si Si1 0.378095 0.421506 0.251460
Si Si2 0.311589 0.921395 0.000000
Si Si3 0.000000 0.143446 0.631910
Si Si4 0.622695 0.123571 0.768128
Si Si5 0.424640 0.000000 0.627448
Si Si6 0.738813 0.922046 0.636332
Si Si7 0.337246 0.579793 0.500000
Si Si8 0.500000 0.800552 0.863919
O O1 0.390016 0.500000 0.248355
O O2 0.436289 0.384897 0.191058
O O3 0.309382 0.410473 0.189582
O O4 0.370902 0.400233 0.382950
O O5 0.348166 0.897537 0.111241
O O6 0.237329 0.898526 0.000000
O O7 0.310742 0.000000 0.000000
O O8 0.000000 0.222057 0.637753
O O9 0.000000 0.123187 0.500000
O O10 0.590935 0.063577 0.700615
O O11 0.687488 0.129534 0.689516
O O12 0.564821 0.173656 0.799273
O O13 0.500000 0.000000 0.611248
O O14 0.394208 0.000000 0.500000
O O15 0.740847 0.917048 0.500000
O O16 0.722696 0.000000 0.665534
O O17 0.336028 0.500000 0.500000
O O18 0.500000 0.821086 0.000000
#
# Coordination Sequence:
#
# PCOD9519689 Si02
#       8
#    16   8   8  16   8  16   8   8
#     4  10  20  37  66  95 118 144 183 237 297 360
#     4  11  18  29  57  91 119 147 183 245 291 330
#     4  11  25  45  62  81 114 153 194 243 294 347
#     4  12  20  34  56  83 118 155 197 237 285 342
#     4  11  22  33  51  83 123 161 197 244 295 339
#     4  10  19  32  56  92 126 151 181 233 298 354
#     4   9  18  33  57  97 127 143 171 225 304 355
#     4  11  26  42  57  78 112 161 207 246 285 331
#
# _framework density 17.781918999999998
#
# number of rings (size 3 to 8) (size 9 to 14) (size 15 to 20)
#    0.000    1.364    5.455    1.364    0.000    1.818 
#    0.000    3.636    8.000    0.000    0.000    0.000 
#    0.000    0.000    0.000    0.000    0.000    0.000 
#
# Total GULP energy -245224.355293 kJ/mol
# GULP energy per Si atom -5573.280802 kJ/mol
# Density = 1.774145 g / cm^3
# Si number density = 17.781919 Si / 1000 Ang^3
#
#
#
# Elastic Constant Matrix: (Units=GPa)
#
#
# Indices 1 2 3 4 5 6 
#
# 1 147.4337 48.3001 78.2026 0.0000 0.0000 0.0000
# 2 48.3001 40.1670 37.2661 0.0000 0.0000 0.0000
# 3 78.2026 37.2661 163.5778 0.0000 0.0000 0.0000
# 4 0.0000 0.0000 0.0000 19.2029 0.0000 0.0000
# 5 0.0000 0.0000 0.0000 0.0000 42.1963 0.0000
# 6 0.0000 0.0000 0.0000 0.0000 0.0000 34.5022
#
#
#
# Elastic Compliance Matrix: (Units=1/GPa)
#
#
# Indices 1 2 3 4 5 6 
#
# 1 0.012390 -0.011923 -0.003207 0.000000 0.000000 0.000000
# 2 -0.011923 0.043043 -0.004106 0.000000 0.000000 0.000000
# 3 -0.003207 -0.004106 0.008582 0.000000 0.000000 0.000000
# 4 0.000000 0.000000 0.000000 0.052075 0.000000 0.000000
# 5 0.000000 0.000000 0.000000 0.000000 0.023699 0.000000
# 6 0.000000 0.000000 0.000000 0.000000 0.000000 0.028984
#
#
# Mechanical properties :
#
#
# Convention : Reuss Voigt Hill
#
# Bulk Modulus (GPa) = 39.15032 75.41290 57.28161
# Shear Modulus (GPa) = 23.17406 31.67426 27.42416
#
# Velocity S-wave (km/s) = 3.61395 4.22508 3.93141
# Velocity P-wave (km/s) = 6.28323 8.14271 7.27264
#
# Compressibility (1/GPa) = 0.02554258
#
# Stress axis : x y z
#
# Youngs Moduli (GPa) = 80.71100 23.23272 116.52518
#
# Poissons Ratio (x) = 0.27701 0.37369
# Poissons Ratio (y) = 0.96234 0.47842
# Poissons Ratio (z) = 0.25884 0.09539
#
# Static dielectric constant tensor:
#      x y z
#    x 1.638420 0.000000 0.000000 
#    y 0.000000 1.577070 0.000000 
#    z 0.000000 0.000000 1.603770 
# 
# From -- ./inp_files/25736.got.cif
#   From: 2010.05.17/outbox.cif.g08.bks.cpg/sg71_13_cif.got.tgz:25736.got - 2010.06.03 16:22:01.
