data_PCOD9519871
_publ_section_title
;
Structure prediction by ZEFSAII (Michael W. Deem and Ramdas Pophale) SiO2 
 PCOD9519871
Probable space group: I M M M
;
_chemical_formula_sum "Si O2"
_cell_formula_units_Z 88
_cell_length_a 7.480292
_cell_length_b 31.124055
_cell_length_c 17.402177
_cell_angle_alpha 90.000000
_cell_angle_beta 90.000000
_cell_angle_gamma 90.000000
_cell_volume 4051.522984
_symmetry_space_group_name_H-M "I M M M"
_symmetry_group_IT_number 71
_symmetry_cell_setting 'orthorhombic'
loop_
_space_group_symop_operation_xyz
x,y,z
-x,-y,z
x,-y,-z
-x,y,-z
-x,-y,-z
x,y,-z
-x,y,z
x,-y,z
1/2+x,1/2+y,1/2+z
1/2-x,1/2-y,1/2+z
1/2+x,1/2-y,1/2-z
1/2-x,1/2+y,1/2-z
1/2-x,1/2-y,1/2-z
1/2+x,1/2+y,1/2-z
1/2-x,1/2+y,1/2+z
1/2+x,1/2-y,1/2+z
loop_
_atom_site_type_symbol
_atom_site_label
_atom_site_fract_x
_atom_site_fract_y
_atom_site_fract_z
Si Si1 0.205429 0.117796 0.375075
Si Si2 0.283950 0.549670 0.585294
Si Si3 0.718596 0.549660 0.000000
Si Si4 0.203814 0.621266 0.296469
Si Si5 0.296004 0.289231 0.092333
Si Si6 0.219503 0.694935 0.589063
O O1 0.275928 0.078324 0.426094
O O2 0.206955 0.110708 0.284298
O O3 0.288941 0.165092 0.387218
O O4 0.000000 0.122405 0.402019
O O5 0.228775 0.564282 0.500000
O O6 0.500000 0.551652 0.588515
O O7 0.232866 0.500000 0.594024
O O8 0.208178 0.579697 0.650117
O O9 0.780328 0.500000 0.000000
O O10 0.500000 0.547101 0.000000
O O11 0.279492 0.659487 0.349703
O O12 0.000000 0.632991 0.278038
O O13 0.500000 0.289603 0.123353
O O14 0.219277 0.242718 0.113431
O O15 0.304501 0.287969 0.000000
O O16 0.273120 0.686352 0.500000
O O17 0.000000 0.694973 0.588286
#
# Coordination Sequence:
#
# PCOD9519871 Si02
#       6
#    16  16   8  16  16  16
#     4  10  19  33  54  77  99 131 176 224 271 316
#     4   9  19  37  59  79 100 132 174 217 258 299
#     4   9  18  34  57  81  99 121 167 229 282 323
#     4  11  22  33  48  77 114 145 171 205 256 321
#     4   8  13  26  50  74  95 128 179 228 262 305
#     4   8  15  28  47  72 103 139 176 214 256 302
#
# _framework density 21.720227999999999
#
# number of rings (size 3 to 8) (size 9 to 14) (size 15 to 20)
#    0.000    2.818    0.909    2.727    0.000    2.909 
#    0.000    3.182    0.000    1.636    0.000    5.091 
#    0.000    0.000    0.000    0.000    0.000    0.000 
#
# Total GULP energy -245377.787713 kJ/mol
# GULP energy per Si atom -5576.767903 kJ/mol
# Density = 2.167079 g / cm^3
# Si number density = 21.720228 Si / 1000 Ang^3
#
#
#
# Elastic Constant Matrix: (Units=GPa)
#
#
# Indices 1 2 3 4 5 6 
#
# 1 59.8617 7.0993 3.9287 0.0000 0.0000 0.0000
# 2 7.0993 147.9408 99.5185 0.0000 0.0000 0.0000
# 3 3.9287 99.5185 132.0577 -0.0001 0.0000 0.0000
# 4 0.0000 0.0000 -0.0001 -28.6251 0.0000 0.0000
# 5 0.0000 0.0000 0.0000 0.0000 -19.1949 0.0000
# 6 0.0000 0.0000 0.0000 0.0000 0.0000 -11.3988
#
#
#
# Elastic Compliance Matrix: (Units=1/GPa)
#
#
# Indices 1 2 3 4 5 6 
#
# 1 0.016804 -0.000953 0.000219 0.000000 0.000000 0.000000
# 2 -0.000953 0.013763 -0.010344 0.000000 0.000000 0.000000
# 3 0.000219 -0.010344 0.015361 0.000000 0.000000 0.000000
# 4 0.000000 0.000000 0.000000 -0.034934 0.000000 0.000000
# 5 0.000000 0.000000 0.000000 0.000000 -0.052097 0.000000
# 6 0.000000 0.000000 0.000000 0.000000 0.000000 -0.087729
#
#
# Mechanical properties :
#
#
# Convention : Reuss Voigt Hill
#
# Bulk Modulus (GPa) = 42.06781 62.32812 52.19796
# Shear Modulus (GPa) = -50.63203 3.44383 -23.59410
#
# Velocity S-wave (km/s) = -4.83338 1.26055 -3.29944
# Velocity P-wave (km/s) = 3.42618 5.55669 3.09339
#
# Compressibility (1/GPa) = 0.02377115
#
# Stress axis : x y z
#
# Youngs Moduli (GPa) = 59.51001 72.65722 65.10051
#
# Poissons Ratio (x) = 0.06927 -0.01423
# Poissons Ratio (y) = 0.05674 0.67337
# Poissons Ratio (z) = -0.01301 0.75154
#
# Static dielectric constant tensor:
#      x y z
#    x 1.893900 0.000000 0.000000 
#    y 0.000000 1.801870 0.000000 
#    z 0.000000 0.000000 1.745810 
# 
# From -- ./inp_files/42441.got.cif
#   From: 2010.05.17/outbox.cif.g08.bks.cpg/sg71_22_cif.got.tgz:42441.got - 2010.06.03 16:22:01.
