data_PCOD9519178
_publ_section_title
;
Structure prediction by ZEFSAII (Michael W. Deem and Ramdas Pophale) SiO2 
 PCOD9519178
Probable space group: I M M M
;
_chemical_formula_sum "Si O2"
_cell_formula_units_Z 80
_cell_length_a 8.336068
_cell_length_b 18.777696
_cell_length_c 28.347875
_cell_angle_alpha 90.000000
_cell_angle_beta 90.000000
_cell_angle_gamma 90.000000
_cell_volume 4437.353843
_symmetry_space_group_name_H-M "I M M M"
_symmetry_group_IT_number 71
_symmetry_cell_setting 'orthorhombic'
loop_
_space_group_symop_operation_xyz
x,y,z
-x,-y,z
x,-y,-z
-x,y,-z
-x,-y,-z
x,y,-z
-x,y,z
x,-y,z
1/2+x,1/2+y,1/2+z
1/2-x,1/2-y,1/2+z
1/2+x,1/2-y,1/2-z
1/2-x,1/2+y,1/2-z
1/2-x,1/2-y,1/2-z
1/2+x,1/2+y,1/2-z
1/2-x,1/2+y,1/2+z
1/2+x,1/2-y,1/2+z
loop_
_atom_site_type_symbol
_atom_site_label
_atom_site_fract_x
_atom_site_fract_y
_atom_site_fract_z
Si Si1 0.309047 0.707993 0.648332
Si Si2 0.194047 0.420235 0.092748
Si Si3 0.308719 0.273866 0.052413
Si Si4 0.804912 0.354669 0.192541
Si Si5 0.693239 0.080832 0.791479
O O1 0.500000 0.705693 0.652498
O O2 0.265209 0.728538 0.594955
O O3 0.249531 0.774539 0.680573
O O4 0.239653 0.634549 0.667180
O O5 0.244721 0.500000 0.079827
O O6 0.264591 0.356253 0.062248
O O7 0.237008 0.402856 0.147253
O O8 0.000000 0.416647 0.089467
O O9 0.500000 0.266395 0.054482
O O10 0.252607 0.253769 0.000000
O O11 0.746957 0.386200 0.241838
O O12 0.000000 0.353138 0.194214
O O13 0.500000 0.078454 0.788726
O O14 0.751244 0.000000 0.797650
#
# Coordination Sequence:
#
# PCOD9519178 Si02
#       5
#    16  16  16  16  16
#     4  10  20  34  53  75 100 130 166 209 250 292
#     4   9  17  30  49  74 105 138 171 206 242 284
#     4  10  21  36  53  72  95 126 166 211 256 302
#     4   8  15  29  49  73 101 136 173 202 234 280
#     4  10  19  31  50  75 104 137 168 199 240 291
#
# _framework density 18.028763000000001
#
# number of rings (size 3 to 8) (size 9 to 14) (size 15 to 20)
#    0.000    2.600    0.000    3.600    0.000    5.200 
#    0.000    6.000    0.000    5.400    0.000    4.200 
#    0.000    0.000    0.000    0.000    0.000    0.000 
#
# Total GULP energy -223153.353873 kJ/mol
# GULP energy per Si atom -5578.833847 kJ/mol
# Density = 1.798773 g / cm^3
# Si number density = 18.028763 Si / 1000 Ang^3
#
#
#
# Elastic Constant Matrix: (Units=GPa)
#
#
# Indices 1 2 3 4 5 6 
#
# 1 11.8821 16.5342 7.6865 0.0000 0.0000 0.0000
# 2 16.5342 124.1388 68.3167 0.0000 0.0000 0.0000
# 3 7.6865 68.3167 96.2135 0.0000 0.0000 0.0000
# 4 0.0000 0.0000 0.0000 5.2039 0.0000 0.0000
# 5 0.0000 0.0000 0.0000 0.0000 18.3903 0.0000
# 6 0.0000 0.0000 0.0000 0.0000 0.0000 24.0733
#
#
#
# Elastic Compliance Matrix: (Units=1/GPa)
#
#
# Indices 1 2 3 4 5 6 
#
# 1 0.103671 -0.015183 0.002499 0.000000 0.000000 0.000000
# 2 -0.015183 0.015446 -0.009754 0.000000 0.000000 0.000000
# 3 0.002499 -0.009754 0.017120 0.000000 0.000000 0.000000
# 4 0.000000 0.000000 0.000000 0.192164 0.000000 0.000000
# 5 0.000000 0.000000 0.000000 0.000000 0.054377 0.000000
# 6 0.000000 0.000000 0.000000 0.000000 0.000000 0.041540
#
#
# Mechanical properties :
#
#
# Convention : Reuss Voigt Hill
#
# Bulk Modulus (GPa) = 10.94579 46.36770 28.65674
# Shear Modulus (GPa) = 10.00704 18.84663 14.42684
#
# Velocity S-wave (km/s) = 2.35853 3.23672 2.83187
# Velocity P-wave (km/s) = 3.67442 6.30421 5.15967
#
# Compressibility (1/GPa) = 0.09135930
#
# Stress axis : x y z
#
# Youngs Moduli (GPa) = 9.64587 64.74223 58.41086
#
# Poissons Ratio (x) = 0.98299 -0.14595
# Poissons Ratio (y) = 0.14646 0.56976
# Poissons Ratio (z) = -0.02410 0.63152
#
# Static dielectric constant tensor:
#      x y z
#    x 1.631610 0.000000 0.000000 
#    y 0.000000 1.609020 0.000000 
#    z 0.000000 0.000000 1.616400 
# 
# From -- ./inp_files/8274.got.cif
#   From: 2010.05.17/outbox.cif.g08.bks.cpg/sg71_5_cif.got.tgz:8274.got - 2010.06.03 16:22:01.
