data_PCOD9519720
_publ_section_title
;
Structure prediction by ZEFSAII (Michael W. Deem and Ramdas Pophale) SiO2 
 PCOD9519720
Probable space group: I M M M
;
_chemical_formula_sum "Si O2"
_cell_formula_units_Z 80
_cell_length_a 13.602284
_cell_length_b 18.600426
_cell_length_c 19.556939
_cell_angle_alpha 90.000000
_cell_angle_beta 90.000000
_cell_angle_gamma 90.000000
_cell_volume 4948.067439
_symmetry_space_group_name_H-M "I M M M"
_symmetry_group_IT_number 71
_symmetry_cell_setting 'orthorhombic'
loop_
_space_group_symop_operation_xyz
x,y,z
-x,-y,z
x,-y,-z
-x,y,-z
-x,-y,-z
x,y,-z
-x,y,z
x,-y,z
1/2+x,1/2+y,1/2+z
1/2-x,1/2-y,1/2+z
1/2+x,1/2-y,1/2-z
1/2-x,1/2+y,1/2-z
1/2-x,1/2-y,1/2-z
1/2+x,1/2+y,1/2-z
1/2-x,1/2+y,1/2+z
1/2+x,1/2-y,1/2+z
loop_
_atom_site_type_symbol
_atom_site_label
_atom_site_fract_x
_atom_site_fract_y
_atom_site_fract_z
Si Si1 0.798707 0.639323 0.214032
Si Si2 0.746183 0.000000 0.077618
Si Si3 0.885465 0.413232 0.920954
Si Si4 0.885987 0.793405 0.778839
Si Si5 0.882574 0.500000 0.290771
Si Si6 0.884948 0.138627 0.923181
O O1 0.816428 0.624255 0.134063
O O2 0.858410 0.710860 0.234699
O O3 0.687315 0.656129 0.236088
O O4 0.841083 0.570284 0.252781
O O5 0.815437 0.930209 0.085849
O O6 0.661012 0.000000 0.133126
O O7 0.708329 0.000000 0.000000
O O8 0.877323 0.500000 0.914844
O O9 0.000000 0.394908 0.905731
O O10 0.866191 0.394462 0.000000
O O11 0.868225 0.808730 0.859590
O O12 0.000000 0.807286 0.764426
O O13 0.000000 0.500000 0.288540
O O14 0.000000 0.116738 0.920251
O O15 0.868285 0.168488 0.000000
#
# Coordination Sequence:
#
# PCOD9519720 Si02
#       6
#    16   8  16  16   8  16
#     4  11  21  35  54  78 106 139 170 214 266 307
#     4  10  19  33  50  74 106 139 178 216 253 298
#     4   9  17  30  51  78 104 130 166 214 263 309
#     4  10  21  35  52  78 108 138 174 213 258 315
#     4  12  22  34  54  78 102 138 180 216 258 307
#     4   9  17  31  52  77 105 136 171 213 262 310
#
# _framework density 16.167928
#
# number of rings (size 3 to 8) (size 9 to 14) (size 15 to 20)
#    0.000    2.000    3.000    2.700    0.000    2.200 
#    0.000    2.500    0.000    0.600    0.000    1.400 
#    0.000    0.000    0.000    0.000    0.000    0.000 
#
# Total GULP energy -223098.857706 kJ/mol
# GULP energy per Si atom -5577.471443 kJ/mol
# Density = 1.613113 g / cm^3
# Si number density = 16.167928 Si / 1000 Ang^3
#
#
#
# Elastic Constant Matrix: (Units=GPa)
#
#
# Indices 1 2 3 4 5 6 
#
# 1 110.7546 51.7539 68.4214 0.0000 0.0000 0.0000
# 2 51.7539 83.1481 43.9873 0.0000 0.0000 0.0000
# 3 68.4214 43.9873 103.4196 0.0000 0.0000 0.0000
# 4 0.0000 0.0000 0.0000 13.6884 0.0000 0.0000
# 5 0.0000 0.0000 0.0000 0.0000 29.0189 0.0000
# 6 0.0000 0.0000 0.0000 0.0000 0.0000 15.8488
#
#
#
# Elastic Compliance Matrix: (Units=1/GPa)
#
#
# Indices 1 2 3 4 5 6 
#
# 1 0.017384 -0.006111 -0.008902 0.000000 0.000000 0.000000
# 2 -0.006111 0.017667 -0.003471 0.000000 0.000000 0.000000
# 3 -0.008902 -0.003471 0.017035 0.000000 0.000000 0.000000
# 4 0.000000 0.000000 0.000000 0.073054 0.000000 0.000000
# 5 0.000000 0.000000 0.000000 0.000000 0.034460 0.000000
# 6 0.000000 0.000000 0.000000 0.000000 0.000000 0.063096
#
#
# Mechanical properties :
#
#
# Convention : Reuss Voigt Hill
#
# Bulk Modulus (GPa) = 66.14763 69.51641 67.83202
# Shear Modulus (GPa) = 18.88904 20.58854 19.73879
#
# Velocity S-wave (km/s) = 3.42175 3.57237 3.49787
# Velocity P-wave (km/s) = 7.52415 7.75278 7.63932
#
# Compressibility (1/GPa) = 0.01511770
#
# Stress axis : x y z
#
# Youngs Moduli (GPa) = 57.52467 56.60355 58.70234
#
# Poissons Ratio (x) = 0.34590 0.52256
# Poissons Ratio (y) = 0.35153 0.20377
# Poissons Ratio (z) = 0.51207 0.19648
#
# Static dielectric constant tensor:
#      x y z
#    x 1.514910 0.000000 0.000000 
#    y 0.000000 1.542350 0.000000 
#    z 0.000000 0.000000 1.556560 
# 
# From -- ./inp_files/36288.got.cif
#   From: 2010.05.17/outbox.cif.g08.bks.cpg/sg71_19_cif.got.tgz:36288.got - 2010.06.03 16:22:01.
