data_PCOD9519138
_publ_section_title
;
Structure prediction by ZEFSAII (Michael W. Deem and Ramdas Pophale) SiO2 
 PCOD9519138
Probable space group: I M M M
;
_chemical_formula_sum "Si O2"
_cell_formula_units_Z 104
_cell_length_a 8.673113
_cell_length_b 24.339929
_cell_length_c 23.866854
_cell_angle_alpha 90.000000
_cell_angle_beta 90.000000
_cell_angle_gamma 90.000000
_cell_volume 5038.363397
_symmetry_space_group_name_H-M "I M M M"
_symmetry_group_IT_number 71
_symmetry_cell_setting 'orthorhombic'
loop_
_space_group_symop_operation_xyz
x,y,z
-x,-y,z
x,-y,-z
-x,y,-z
-x,-y,-z
x,y,-z
-x,y,z
x,-y,z
1/2+x,1/2+y,1/2+z
1/2-x,1/2-y,1/2+z
1/2+x,1/2-y,1/2-z
1/2-x,1/2+y,1/2-z
1/2-x,1/2-y,1/2-z
1/2+x,1/2+y,1/2-z
1/2-x,1/2+y,1/2+z
1/2+x,1/2-y,1/2+z
loop_
_atom_site_type_symbol
_atom_site_label
_atom_site_fract_x
_atom_site_fract_y
_atom_site_fract_z
Si Si1 0.819848 0.905587 0.318033
Si Si2 0.318090 0.565204 0.500000
Si Si3 0.173681 0.292871 0.790461
Si Si4 0.314033 0.371050 0.061326
Si Si5 0.814761 0.439826 0.702426
Si Si6 0.315603 0.865801 0.899150
Si Si7 0.673207 0.247625 0.584514
O O1 0.788398 0.843219 0.299108
O O2 0.760595 0.904218 0.382882
O O3 0.739289 0.936828 0.266940
O O4 0.000000 0.919864 0.318814
O O5 0.300361 0.500000 0.500000
O O6 0.500000 0.578740 0.500000
O O7 0.239930 0.591189 0.445438
O O8 0.250000 0.250000 0.750000
O O9 0.160801 0.263498 0.849646
O O10 0.000000 0.310832 0.773049
O O11 0.500000 0.370343 0.064544
O O12 0.257283 0.307681 0.063485
O O13 0.268905 0.393617 0.000000
O O14 0.766580 0.500000 0.679722
O O15 0.761373 0.390087 0.661562
O O16 0.000000 0.437938 0.702204
O O17 0.500000 0.862896 0.897153
O O18 0.255365 0.806265 0.919043
O O19 0.500000 0.250512 0.561605
#
# Coordination Sequence:
#
# PCOD9519138 Si02
#       7
#    16   8  16  16  16  16  16
#     4  10  20  34  55  83 111 144 185 231 285 342
#     4  11  25  43  61  81 107 141 185 239 292 335
#     4  10  19  31  49  74 107 145 181 221 271 327
#     4   9  19  36  57  81 114 153 192 231 276 336
#     4  10  22  40  61  84 111 145 188 238 288 340
#     4  11  23  39  60  83 110 148 190 231 280 336
#     4  10  21  34  50  78 113 146 182 225 272 324
#
# _framework density 20.641624
#
# number of rings (size 3 to 8) (size 9 to 14) (size 15 to 20)
#    0.000    1.923    0.000    3.462    1.077    8.000 
#    0.000    0.000    0.000    0.462    0.000    3.231 
#    0.000    0.000    0.000    0.000    0.000    0.000 
#
# Total GULP energy -289951.896547 kJ/mol
# GULP energy per Si atom -5575.998011 kJ/mol
# Density = 2.059464 g / cm^3
# Si number density = 20.641624 Si / 1000 Ang^3
#
#
#
# Elastic Constant Matrix: (Units=GPa)
#
#
# Indices 1 2 3 4 5 6 
#
# 1 27.2541 1.6633 5.0774 0.0000 0.0000 0.0000
# 2 1.6633 28.6128 6.7244 0.0000 0.0000 0.0000
# 3 5.0774 6.7244 120.8483 0.0000 0.0000 0.0000
# 4 0.0000 0.0000 0.0000 4.7002 0.0000 0.0000
# 5 0.0000 0.0000 0.0000 0.0000 23.3031 0.0000
# 6 0.0000 0.0000 0.0000 0.0000 0.0000 19.7635
#
#
#
# Elastic Compliance Matrix: (Units=1/GPa)
#
#
# Indices 1 2 3 4 5 6 
#
# 1 0.037074 -0.001813 -0.001457 0.000000 0.000000 0.000000
# 2 -0.001813 0.035501 -0.001899 0.000000 0.000000 0.000000
# 3 -0.001457 -0.001899 0.008442 0.000000 0.000000 0.000000
# 4 0.000000 0.000000 0.000000 0.212757 0.000000 0.000000
# 5 0.000000 0.000000 0.000000 0.000000 0.042913 0.000000
# 6 0.000000 0.000000 0.000000 0.000000 0.000000 0.050598
#
#
# Mechanical properties :
#
#
# Convention : Reuss Voigt Hill
#
# Bulk Modulus (GPa) = 14.14845 22.62725 18.38785
# Shear Modulus (GPa) = 11.87136 20.43669 16.15402
#
# Velocity S-wave (km/s) = 2.40076 3.14995 2.80052
# Velocity P-wave (km/s) = 3.81498 4.92091 4.40281
#
# Compressibility (1/GPa) = 0.07067913
#
# Stress axis : x y z
#
# Youngs Moduli (GPa) = 26.97327 28.16811 118.45924
#
# Poissons Ratio (x) = 0.05106 0.17257
# Poissons Ratio (y) = 0.04890 0.22498
# Poissons Ratio (z) = 0.03929 0.05350
#
# Static dielectric constant tensor:
#      x y z
#    x 1.743780 0.000000 0.000000 
#    y 0.000000 1.680260 0.000000 
#    z 0.000000 0.000000 1.767910 
# 
# From -- ./inp_files/57998.got.cif
#   From: 2010.05.17/outbox.cif.g08.bks.cpg/sg71_29_cif.got.tgz:57998.got - 2010.06.03 16:22:01.
