data_PCOD9519616
_publ_section_title
;
Structure prediction by ZEFSAII (Michael W. Deem and Ramdas Pophale) SiO2 
 PCOD9519616
Probable space group: I M M M
;
_chemical_formula_sum "Si O2"
_cell_formula_units_Z 104
_cell_length_a 21.832969
_cell_length_b 13.711546
_cell_length_c 18.355812
_cell_angle_alpha 90.000000
_cell_angle_beta 90.000000
_cell_angle_gamma 90.000000
_cell_volume 5495.064875
_symmetry_space_group_name_H-M "I M M M"
_symmetry_group_IT_number 71
_symmetry_cell_setting 'orthorhombic'
loop_
_space_group_symop_operation_xyz
x,y,z
-x,-y,z
x,-y,-z
-x,y,-z
-x,-y,-z
x,y,-z
-x,y,z
x,-y,z
1/2+x,1/2+y,1/2+z
1/2-x,1/2-y,1/2+z
1/2+x,1/2-y,1/2-z
1/2-x,1/2+y,1/2-z
1/2-x,1/2-y,1/2-z
1/2+x,1/2+y,1/2-z
1/2-x,1/2+y,1/2+z
1/2+x,1/2-y,1/2+z
loop_
_atom_site_type_symbol
_atom_site_label
_atom_site_fract_x
_atom_site_fract_y
_atom_site_fract_z
Si Si1 0.731899 0.387685 0.663476
Si Si2 0.156183 0.384713 0.771864
Si Si3 0.568633 0.244342 0.175643
Si Si4 0.848300 0.890105 0.586656
Si Si5 0.000000 0.118281 0.920338
Si Si6 0.408410 0.387723 0.301077
Si Si7 0.285618 0.193681 0.585077
O O1 0.740193 0.500000 0.638423
O O2 0.781969 0.366466 0.725151
O O3 0.664487 0.380152 0.698079
O O4 0.732866 0.306006 0.601213
O O5 0.148405 0.500000 0.781108
O O6 0.103251 0.341318 0.719787
O O7 0.166249 0.337180 0.851772
O O8 0.500000 0.218882 0.149524
O O9 0.611906 0.300580 0.118026
O O10 0.564144 0.326023 0.237388
O O11 0.857684 0.892231 0.500000
O O12 0.776288 0.868817 0.598932
O O13 0.863197 0.000000 0.615496
O O14 0.939429 0.145699 0.876088
O O15 0.000000 0.000000 0.925717
O O16 0.000000 0.160807 0.000000
O O17 0.424586 0.500000 0.292195
O O18 0.303641 0.181282 0.500000
#
# Coordination Sequence:
#
# PCOD9519616 Si02
#       7
#    16  16  16  16   8  16  16
#     4  10  20  36  61  88 116 154 197 247 303 355
#     4  11  23  41  62  85 117 157 205 257 304 352
#     4  12  23  38  62  86 113 156 206 251 300 361
#     4  10  22  39  61  93 128 157 191 244 308 373
#     4   9  18  32  48  72 116 160 186 219 274 344
#     4  10  19  32  53  84 115 148 193 235 284 354
#     4  11  21  37  62  92 126 161 196 240 304 372
#
# _framework density 18.926072000000001
#
# number of rings (size 3 to 8) (size 9 to 14) (size 15 to 20)
#    0.000    1.462    3.846    2.308    0.000    4.615 
#    0.000    2.308    0.000    0.462    0.000    2.154 
#    0.000    0.000    0.000    0.000    0.000    0.000 
#
# Total GULP energy -289972.744088 kJ/mol
# GULP energy per Si atom -5576.398925 kJ/mol
# Density = 1.888300 g / cm^3
# Si number density = 18.926072 Si / 1000 Ang^3
#
#
#
# Elastic Constant Matrix: (Units=GPa)
#
#
# Indices 1 2 3 4 5 6 
#
# 1 68.8956 14.7933 5.5834 0.0000 0.0000 0.0000
# 2 14.7933 89.6527 25.1554 0.0000 0.0000 0.0000
# 3 5.5834 25.1554 57.2257 0.0000 0.0000 0.0000
# 4 0.0000 0.0000 0.0000 22.8512 0.0000 0.0000
# 5 0.0000 0.0000 0.0000 0.0000 32.9319 0.0000
# 6 0.0000 0.0000 0.0000 0.0000 0.0000 33.3319
#
#
#
# Elastic Compliance Matrix: (Units=1/GPa)
#
#
# Indices 1 2 3 4 5 6 
#
# 1 0.015057 -0.002364 -0.000430 0.000000 0.000000 0.000000
# 2 -0.002364 0.013095 -0.005526 0.000000 0.000000 0.000000
# 3 -0.000430 -0.005526 0.019946 0.000000 0.000000 0.000000
# 4 0.000000 0.000000 0.000000 0.043761 0.000000 0.000000
# 5 0.000000 0.000000 0.000000 0.000000 0.030366 0.000000
# 6 0.000000 0.000000 0.000000 0.000000 0.000000 0.030001
#
#
# Mechanical properties :
#
#
# Convention : Reuss Voigt Hill
#
# Bulk Modulus (GPa) = 31.78789 34.09313 32.94051
# Shear Modulus (GPa) = 27.87837 29.17246 28.52542
#
# Velocity S-wave (km/s) = 3.84215 3.93031 3.88648
# Velocity P-wave (km/s) = 6.04277 6.21687 6.13044
#
# Compressibility (1/GPa) = 0.03145852
#
# Stress axis : x y z
#
# Youngs Moduli (GPa) = 66.41376 76.36736 50.13654
#
# Poissons Ratio (x) = 0.18052 0.02156
# Poissons Ratio (y) = 0.15699 0.27703
# Poissons Ratio (z) = 0.02856 0.42197
#
# Static dielectric constant tensor:
#      x y z
#    x 1.701920 0.000000 0.000000 
#    y 0.000000 1.691190 0.000000 
#    z 0.000000 0.000000 1.663860 
# 
# From -- ./inp_files/47305.got.cif
#   From: 2010.05.17/outbox.cif.g08.bks.cpg/sg71_24_cif.got.tgz:47305.got - 2010.06.03 16:22:01.
