data_PCOD9519365
_publ_section_title
;
Structure prediction by ZEFSAII (Michael W. Deem and Ramdas Pophale) SiO2 
 PCOD9519365
Probable space group: I M M M
;
_chemical_formula_sum "Si O2"
_cell_formula_units_Z 120
_cell_length_a 7.620529
_cell_length_b 26.439902
_cell_length_c 29.071938
_cell_angle_alpha 90.000000
_cell_angle_beta 90.000000
_cell_angle_gamma 90.000000
_cell_volume 5857.589661
_symmetry_space_group_name_H-M "I M M M"
_symmetry_group_IT_number 71
_symmetry_cell_setting 'orthorhombic'
loop_
_space_group_symop_operation_xyz
x,y,z
-x,-y,z
x,-y,-z
-x,y,-z
-x,-y,-z
x,y,-z
-x,y,z
x,-y,z
1/2+x,1/2+y,1/2+z
1/2-x,1/2-y,1/2+z
1/2+x,1/2-y,1/2-z
1/2-x,1/2+y,1/2-z
1/2-x,1/2-y,1/2-z
1/2+x,1/2+y,1/2-z
1/2-x,1/2+y,1/2+z
1/2+x,1/2-y,1/2+z
loop_
_atom_site_type_symbol
_atom_site_label
_atom_site_fract_x
_atom_site_fract_y
_atom_site_fract_z
Si Si1 0.785554 0.500000 0.053889
Si Si2 0.705212 0.106113 0.594202
Si Si3 0.790374 0.438839 0.548827
Si Si4 0.711275 0.787183 0.447905
Si Si5 0.288048 0.147102 0.209290
Si Si6 0.707250 0.343539 0.183811
Si Si7 0.215081 0.442249 0.351892
Si Si8 0.289716 0.237767 0.855788
O O1 0.722476 0.447612 0.077091
O O2 0.000000 0.500000 0.057334
O O3 0.741036 0.500000 0.000000
O O4 0.500000 0.105521 0.581661
O O5 0.777310 0.157832 0.570721
O O6 0.719338 0.114436 0.649047
O O7 0.717313 0.420268 0.500000
O O8 0.769597 0.500000 0.549519
O O9 0.724998 0.421351 0.598309
O O10 0.000000 0.429501 0.548049
O O11 0.773412 0.778018 0.500000
O O12 0.500000 0.789841 0.449079
O O13 0.754962 0.744479 0.410043
O O14 0.500000 0.148024 0.207883
O O15 0.237811 0.152165 0.262185
O O16 0.227937 0.093989 0.188526
O O17 0.224056 0.190857 0.174460
O O18 0.500000 0.343685 0.175756
O O19 0.779681 0.289533 0.166833
O O20 0.271741 0.500000 0.346551
O O21 0.000000 0.442736 0.353081
O O22 0.500000 0.236906 0.850900
#
# Coordination Sequence:
#
# PCOD9519365 Si02
#       8
#     8  16  16  16  16  16  16  16
#     4   9  16  28  51  81 107 131 165 209 250 289
#     4   9  17  31  51  75 101 130 165 205 245 289
#     4   7   9  15  30  52  78 107 135 163 201 252
#     4   9  17  30  50  75 102 132 164 197 238 292
#     4  10  19  32  50  71  94 121 159 205 249 292
#     4  10  20  34  50  68  93 126 165 204 247 294
#     4   8  14  25  41  63  90 117 146 183 229 284
#     4   9  19  33  49  71  97 125 159 202 247 292
#
# _framework density 20.486243000000002
#
# number of rings (size 3 to 8) (size 9 to 14) (size 15 to 20)
#    0.000    3.133    0.000    2.400    0.000    2.933 
#    1.200    1.000    0.000    4.000    0.000    0.000 
#    0.000    0.000    0.000    4.800    0.000    3.733 
#
# Total GULP energy -334289.924542 kJ/mol
# GULP energy per Si atom -5571.498742 kJ/mol
# Density = 2.043962 g / cm^3
# Si number density = 20.486243 Si / 1000 Ang^3
#
#
#
# Elastic Constant Matrix: (Units=GPa)
#
#
# Indices 1 2 3 4 5 6 
#
# 1 37.6273 -0.4885 -9.8602 0.0000 0.0000 0.0000
# 2 -0.4885 77.0142 61.3931 0.0000 0.0000 0.0000
# 3 -9.8602 61.3931 169.2884 0.0000 0.0000 0.0000
# 4 0.0000 0.0000 0.0000 25.0517 0.0000 0.0000
# 5 0.0000 0.0000 0.0000 0.0000 12.2689 0.0000
# 6 0.0000 0.0000 0.0000 0.0000 0.0000 1.9928
#
#
#
# Elastic Compliance Matrix: (Units=1/GPa)
#
#
# Indices 1 2 3 4 5 6 
#
# 1 0.027116 -0.001529 0.002134 0.000000 0.000000 0.000000
# 2 -0.001529 0.018351 -0.006744 0.000000 0.000000 0.000000
# 3 0.002134 -0.006744 0.008477 0.000000 0.000000 0.000000
# 4 0.000000 0.000000 0.000000 0.039917 0.000000 0.000000
# 5 0.000000 0.000000 0.000000 0.000000 0.081507 0.000000
# 6 0.000000 0.000000 0.000000 0.000000 0.000000 0.501797
#
#
# Mechanical properties :
#
#
# Convention : Reuss Voigt Hill
#
# Bulk Modulus (GPa) = 24.00075 42.89096 33.44586
# Shear Modulus (GPa) = 7.10901 23.38841 15.24871
#
# Velocity S-wave (km/s) = 1.86485 3.38252 2.73122
# Velocity P-wave (km/s) = 4.04696 6.01973 5.12909
#
# Compressibility (1/GPa) = 0.04166536
#
# Stress axis : x y z
#
# Youngs Moduli (GPa) = 36.87894 54.49248 117.96390
#
# Poissons Ratio (x) = 0.08332 -0.25172
# Poissons Ratio (y) = 0.05639 0.79557
# Poissons Ratio (z) = -0.07870 0.36751
#
# Static dielectric constant tensor:
#      x y z
#    x 1.785550 0.000000 0.000000 
#    y 0.000000 1.728860 0.000000 
#    z 0.000000 0.000000 1.742080 
# 
# From -- ./inp_files/63832.got.cif
#   From: 2010.05.17/outbox.cif.g08.bks.cpg/sg71_32_cif.got.tgz:63832.got - 2010.06.03 16:22:01.
