data_PCOD9519892
_publ_section_title
;
Structure prediction by ZEFSAII (Michael W. Deem and Ramdas Pophale) SiO2 
 PCOD9519892
Probable space group: I M M M
;
_chemical_formula_sum "Si O2"
_cell_formula_units_Z 112
_cell_length_a 18.686356
_cell_length_b 11.733293
_cell_length_c 26.210897
_cell_angle_alpha 90.000000
_cell_angle_beta 90.000000
_cell_angle_gamma 90.000000
_cell_volume 5746.804434
_symmetry_space_group_name_H-M "I M M M"
_symmetry_group_IT_number 71
_symmetry_cell_setting 'orthorhombic'
loop_
_space_group_symop_operation_xyz
x,y,z
-x,-y,z
x,-y,-z
-x,y,-z
-x,-y,-z
x,y,-z
-x,y,z
x,-y,z
1/2+x,1/2+y,1/2+z
1/2-x,1/2-y,1/2+z
1/2+x,1/2-y,1/2-z
1/2-x,1/2+y,1/2-z
1/2-x,1/2-y,1/2-z
1/2+x,1/2+y,1/2-z
1/2-x,1/2+y,1/2+z
1/2+x,1/2-y,1/2+z
loop_
_atom_site_type_symbol
_atom_site_label
_atom_site_fract_x
_atom_site_fract_y
_atom_site_fract_z
Si Si1 0.185773 0.374435 0.831168
Si Si2 0.418572 0.372691 0.575178
Si Si3 0.208750 0.702634 0.056111
Si Si4 0.582931 0.324042 0.692925
Si Si5 0.584563 0.131573 0.836298
Si Si6 0.842957 0.628926 0.443108
Si Si7 0.655782 0.368768 0.204793
O O1 0.166886 0.500000 0.815544
O O2 0.200635 0.367948 0.891998
O O3 0.119790 0.296866 0.816177
O O4 0.260348 0.344891 0.803732
O O5 0.500000 0.337973 0.562853
O O6 0.406204 0.500000 0.556154
O O7 0.359803 0.285513 0.556284
O O8 0.413609 0.377357 0.636762
O O9 0.279166 0.780915 0.062449
O O10 0.212902 0.646404 0.000000
O O11 0.500000 0.321242 0.708635
O O12 0.630201 0.378319 0.737056
O O13 0.500000 0.134972 0.826745
O O14 0.602352 0.138915 0.896695
O O15 0.617913 0.250383 0.814366
O O16 0.609207 0.000000 0.820921
O O17 0.874400 0.642832 0.500000
O O18 0.812560 0.500000 0.440504
O O19 0.642695 0.500000 0.182584
#
# Coordination Sequence:
#
# PCOD9519892 Si02
#       7
#    16  16  16  16  16  16  16
#     4  10  22  39  58  84 115 151 196 240 290 346
#     4   9  18  32  50  77 112 144 179 230 291 350
#     4  10  19  33  54  79 109 147 192 236 283 343
#     4  10  21  37  58  83 112 149 192 239 293 349
#     4  10  21  36  55  83 117 152 194 243 296 352
#     4   9  17  31  52  77 106 144 191 240 292 347
#     4  11  22  39  62  88 119 156 198 241 289 349
#
# _framework density 19.489090999999998
#
# number of rings (size 3 to 8) (size 9 to 14) (size 15 to 20)
#    0.000    2.143    1.429    1.714    0.000    4.286 
#    0.000    2.857    0.000    0.429    0.000    5.000 
#    0.000    0.000    0.000    0.000    0.000    0.000 
#
# Total GULP energy -311825.195732 kJ/mol
# GULP energy per Si atom -5568.307067 kJ/mol
# Density = 1.944473 g / cm^3
# Si number density = 19.489091 Si / 1000 Ang^3
#
#
#
# Elastic Constant Matrix: (Units=GPa)
#
#
# Indices 1 2 3 4 5 6 
#
# 1 27.3543 2.1289 -3.5104 0.0000 0.0000 0.0000
# 2 2.1289 73.3703 -10.0462 0.0000 0.0000 0.0000
# 3 -3.5104 -10.0462 70.2516 0.0000 0.0000 0.0000
# 4 0.0000 0.0000 0.0000 -50.4152 0.0000 0.0000
# 5 0.0000 0.0000 0.0000 0.0000 8.8503 0.0000
# 6 0.0000 0.0000 0.0000 0.0000 0.0000 -0.8254
#
#
#
# Elastic Compliance Matrix: (Units=1/GPa)
#
#
# Indices 1 2 3 4 5 6 
#
# 1 0.036843 -0.000833 0.001722 0.000000 0.000000 0.000000
# 2 -0.000833 0.013921 0.001949 0.000000 0.000000 0.000000
# 3 0.001722 0.001949 0.014599 0.000000 0.000000 0.000000
# 4 0.000000 0.000000 0.000000 -0.019835 0.000000 0.000000
# 5 0.000000 0.000000 0.000000 0.000000 0.112991 0.000000
# 6 0.000000 0.000000 0.000000 0.000000 0.000000 -1.211545
#
#
# Mechanical properties :
#
#
# Convention : Reuss Voigt Hill
#
# Bulk Modulus (GPa) = 14.07692 16.45786 15.26739
# Shear Modulus (GPa) = -4.83082 3.68220 -0.57431
#
# Velocity S-wave (km/s) = -1.57611 1.37603 -0.54343
# Velocity P-wave (km/s) = 1.98154 3.31476 2.73076
#
# Compressibility (1/GPa) = 0.07103825
#
# Stress axis : x y z
#
# Youngs Moduli (GPa) = 27.14212 71.83633 68.49636
#
# Poissons Ratio (x) = 0.05986 -0.11794
# Poissons Ratio (y) = 0.02262 -0.13350
# Poissons Ratio (z) = -0.04673 -0.14001
#
# Static dielectric constant tensor:
#      x y z
#    x 1.637530 0.000000 0.000000 
#    y 0.000000 1.701270 0.000000 
#    z 0.000000 0.000000 1.723590 
# 
# From -- ./inp_files/66581.got.cif
#   From: 2010.05.17/outbox.cif.g08.bks.cpg/sg71_34_cif.got.tgz:66581.got - 2010.06.03 16:22:01.
