data_PCOD9519512
_publ_section_title
;
Structure prediction by ZEFSAII (Michael W. Deem and Ramdas Pophale) SiO2 
 PCOD9519512
Probable space group: I M M M
;
_chemical_formula_sum "Si O2"
_cell_formula_units_Z 96
_cell_length_a 26.509081
_cell_length_b 7.728487
_cell_length_c 20.792531
_cell_angle_alpha 90.000000
_cell_angle_beta 90.000000
_cell_angle_gamma 90.000000
_cell_volume 4259.871616
_symmetry_space_group_name_H-M "I M M M"
_symmetry_group_IT_number 71
_symmetry_cell_setting 'orthorhombic'
loop_
_space_group_symop_operation_xyz
x,y,z
-x,-y,z
x,-y,-z
-x,y,-z
-x,-y,-z
x,y,-z
-x,y,z
x,-y,z
1/2+x,1/2+y,1/2+z
1/2-x,1/2-y,1/2+z
1/2+x,1/2-y,1/2-z
1/2-x,1/2+y,1/2-z
1/2-x,1/2-y,1/2-z
1/2+x,1/2+y,1/2-z
1/2-x,1/2+y,1/2+z
1/2+x,1/2-y,1/2+z
loop_
_atom_site_type_symbol
_atom_site_label
_atom_site_fract_x
_atom_site_fract_y
_atom_site_fract_z
Si Si1 0.055235 0.712450 0.838818
Si Si2 0.262481 0.799739 0.927176
Si Si3 0.560353 0.208199 0.069586
Si Si4 0.352385 0.206914 0.425745
Si Si5 0.701082 0.695393 0.790417
Si Si6 0.092058 0.302252 0.705471
O O1 0.056965 0.500000 0.838712
O O2 0.102822 0.769742 0.880567
O O3 0.062577 0.774032 0.765674
O O4 0.000000 0.762397 0.863331
O O5 0.202247 0.790157 0.915997
O O6 0.287284 0.708826 0.866363
O O7 0.278775 0.000000 0.925663
O O8 0.271814 0.732762 0.000000
O O9 0.500000 0.233458 0.073540
O O10 0.584561 0.277827 0.135021
O O11 0.569295 0.000000 0.067693
O O12 0.577896 0.276575 0.000000
O O13 0.366682 0.233954 0.500000
O O14 0.345494 0.000000 0.415935
O O15 0.688878 0.500000 0.772767
O O16 0.750000 0.750000 0.750000
O O17 0.650982 0.803178 0.776954
O O18 0.073634 0.500000 0.699773
#
# Coordination Sequence:
#
# PCOD9519512 Si02
#       6
#    16  16  16  16  16  16
#     4   9  17  29  48  75 104 135 174 220 265 309
#     4  10  21  38  60  84 111 144 182 224 272 328
#     4   8  14  26  47  76 107 138 174 216 259 305
#     4   9  17  30  50  76 106 140 177 218 264 313
#     4  12  25  40  58  80 109 144 184 230 278 330
#     4  10  19  32  52  77 104 136 176 222 269 316
#
# _framework density 22.535889999999998
#
# number of rings (size 3 to 8) (size 9 to 14) (size 15 to 20)
#    0.000    2.333    0.000    4.000    0.000    5.333 
#    0.000    3.333    0.000    3.500    0.000    3.500 
#    0.000    0.000    0.000    0.000    0.000    0.000 
#
# Total GULP energy -268069.977513 kJ/mol
# GULP energy per Si atom -5584.791198 kJ/mol
# Density = 2.248460 g / cm^3
# Si number density = 22.535890 Si / 1000 Ang^3
#
#
#
# Elastic Constant Matrix: (Units=GPa)
#
#
# Indices 1 2 3 4 5 6 
#
# 1 37.9368 -8.1851 4.2478 0.0000 0.0000 0.0000
# 2 -8.1851 43.8026 10.1211 0.0000 0.0000 0.0000
# 3 4.2478 10.1211 44.0426 0.0000 0.0000 0.0000
# 4 0.0000 0.0000 0.0000 7.8997 0.0000 0.0000
# 5 0.0000 0.0000 0.0000 0.0000 37.4348 0.0000
# 6 0.0000 0.0000 0.0000 0.0000 0.0000 5.2220
#
#
#
# Elastic Compliance Matrix: (Units=1/GPa)
#
#
# Indices 1 2 3 4 5 6 
#
# 1 0.028166 0.006221 -0.004146 0.000000 0.000000 0.000000
# 2 0.006221 0.025484 -0.006456 0.000000 0.000000 0.000000
# 3 -0.004146 -0.006456 0.024589 0.000000 0.000000 0.000000
# 4 0.000000 0.000000 0.000000 0.126587 0.000000 0.000000
# 5 0.000000 0.000000 0.000000 0.000000 0.026713 0.000000
# 6 0.000000 0.000000 0.000000 0.000000 0.000000 0.191496
#
#
# Mechanical properties :
#
#
# Convention : Reuss Voigt Hill
#
# Bulk Modulus (GPa) = 14.39337 15.34997 14.87167
# Shear Modulus (GPa) = 10.99006 18.08453 14.53729
#
# Velocity S-wave (km/s) = 2.21072 2.83588 2.54258
# Velocity P-wave (km/s) = 3.59404 4.18916 3.90296
#
# Compressibility (1/GPa) = 0.06947641
#
# Stress axis : x y z
#
# Youngs Moduli (GPa) = 35.50360 39.24029 40.66884
#
# Poissons Ratio (x) = -0.24412 0.16862
# Poissons Ratio (y) = -0.22088 0.26257
# Poissons Ratio (z) = 0.14721 0.25335
#
# Static dielectric constant tensor:
#      x y z
#    x 1.818950 0.000000 0.000000 
#    y 0.000000 1.862880 0.000000 
#    z 0.000000 0.000000 1.846980 
# 
# From -- ./inp_files/10920.got.cif
#   From: 2010.05.17/outbox.cif.g08.bks.cpg/sg71_6_cif.got.tgz:10920.got - 2010.06.03 16:22:01.
