data_PCOD9519108
_publ_section_title
;
Structure prediction by ZEFSAII (Michael W. Deem and Ramdas Pophale) SiO2 
 PCOD9519108
Probable space group: I M M M
;
_chemical_formula_sum "Si O2"
_cell_formula_units_Z 80
_cell_length_a 28.392538
_cell_length_b 17.555615
_cell_length_c 8.936267
_cell_angle_alpha 90.000000
_cell_angle_beta 90.000000
_cell_angle_gamma 90.000000
_cell_volume 4454.268578
_symmetry_space_group_name_H-M "I M M M"
_symmetry_group_IT_number 71
_symmetry_cell_setting 'orthorhombic'
loop_
_space_group_symop_operation_xyz
x,y,z
-x,-y,z
x,-y,-z
-x,y,-z
-x,-y,-z
x,y,-z
-x,y,z
x,-y,z
1/2+x,1/2+y,1/2+z
1/2-x,1/2-y,1/2+z
1/2+x,1/2-y,1/2-z
1/2-x,1/2+y,1/2-z
1/2-x,1/2-y,1/2-z
1/2+x,1/2+y,1/2-z
1/2-x,1/2+y,1/2+z
1/2+x,1/2-y,1/2+z
loop_
_atom_site_type_symbol
_atom_site_label
_atom_site_fract_x
_atom_site_fract_y
_atom_site_fract_z
Si Si1 0.712921 0.365468 0.179661
Si Si2 0.947179 0.000000 0.236756
Si Si3 0.341725 0.500000 0.666965
Si Si4 0.357365 0.761742 0.181906
Si Si5 0.187637 0.587106 0.680816
Si Si6 0.551198 0.326816 0.825392
O O1 0.676199 0.427735 0.240829
O O2 0.689685 0.285033 0.224096
O O3 0.762702 0.385936 0.251740
O O4 0.716280 0.369557 0.000000
O O5 0.944636 0.081345 0.320168
O O6 0.897818 0.000000 0.152201
O O7 0.000000 0.000000 0.167452
O O8 0.320432 0.500000 0.500000
O O9 0.350792 0.849482 0.225776
O O10 0.403668 0.717391 0.239049
O O11 0.358910 0.758733 0.000000
O O12 0.191204 0.588452 0.500000
O O13 0.177964 0.500000 0.726481
O O14 0.500000 0.307606 0.757013
O O15 0.549533 0.305910 0.000000
#
# Coordination Sequence:
#
# PCOD9519108 Si02
#       6
#    16   8   8  16  16  16
#     4  11  21  34  53  74 100 132 173 214 246 289
#     4  10  19  31  49  71  98 134 172 207 244 296
#     4  12  23  34  50  74 108 142 167 199 255 308
#     4   9  18  31  49  73 100 133 169 208 251 297
#     4  10  20  34  51  72 102 135 167 205 256 307
#     4   9  16  27  47  75 103 130 165 210 254 294
#
# _framework density 17.9603
#
# number of rings (size 3 to 8) (size 9 to 14) (size 15 to 20)
#    0.000    2.000    3.000    1.800    0.000    2.200 
#    0.000    1.000    0.000    0.600    0.000    4.200 
#    0.000    0.000    0.000    1.800    0.000    2.000 
#
# Total GULP energy -222733.701747 kJ/mol
# GULP energy per Si atom -5568.342544 kJ/mol
# Density = 1.791942 g / cm^3
# Si number density = 17.960300 Si / 1000 Ang^3
#
#
#
# Elastic Constant Matrix: (Units=GPa)
#
#
# Indices 1 2 3 4 5 6 
#
# 1 105.1713 64.9829 2.5070 0.0000 0.0000 0.0000
# 2 64.9829 148.7739 9.6157 0.0000 0.0000 0.0000
# 3 2.5070 9.6157 12.4843 0.0000 0.0000 0.0000
# 4 0.0000 0.0000 0.0000 9.2510 0.0000 0.0000
# 5 0.0000 0.0000 0.0000 0.0000 11.2101 0.0000
# 6 0.0000 0.0000 0.0000 0.0000 0.0000 17.1775
#
#
#
# Elastic Compliance Matrix: (Units=1/GPa)
#
#
# Indices 1 2 3 4 5 6 
#
# 1 0.013064 -0.005827 0.001864 0.000000 0.000000 0.000000
# 2 -0.005827 0.009673 -0.006280 0.000000 0.000000 0.000000
# 3 0.001864 -0.006280 0.084563 0.000000 0.000000 0.000000
# 4 0.000000 0.000000 0.000000 0.108097 0.000000 0.000000
# 5 0.000000 0.000000 0.000000 0.000000 0.089205 0.000000
# 6 0.000000 0.000000 0.000000 0.000000 0.000000 0.058216
#
#
# Mechanical properties :
#
#
# Convention : Reuss Voigt Hill
#
# Bulk Modulus (GPa) = 11.51871 46.73784 29.12828
# Shear Modulus (GPa) = 12.12884 20.14931 16.13908
#
# Velocity S-wave (km/s) = 2.60150 3.35308 3.00091
# Velocity P-wave (km/s) = 3.93079 6.40861 5.31608
#
# Compressibility (1/GPa) = 0.08681528
#
# Stress axis : x y z
#
# Youngs Moduli (GPa) = 76.54582 103.38526 11.82549
#
# Poissons Ratio (x) = 0.60240 -0.02205
# Poissons Ratio (y) = 0.44601 0.07426
# Poissons Ratio (z) = -0.14272 0.64925
#
# Static dielectric constant tensor:
#      x y z
#    x 1.644860 0.000000 0.000000 
#    y 0.000000 1.636210 0.000000 
#    z 0.000000 0.000000 1.620480 
# 
# From -- ./inp_files/14590.got.cif
#   From: 2010.05.17/outbox.cif.g08.bks.cpg/sg71_8_cif.got.tgz:14590.got - 2010.06.03 16:22:01.
