data_PCOD9519873
_publ_section_title
;
Structure prediction by ZEFSAII (Michael W. Deem and Ramdas Pophale) SiO2 
 PCOD9519873
Probable space group: I M M M
;
_chemical_formula_sum "Si O2"
_cell_formula_units_Z 88
_cell_length_a 7.392466
_cell_length_b 19.504006
_cell_length_c 25.017109
_cell_angle_alpha 90.000000
_cell_angle_beta 90.000000
_cell_angle_gamma 90.000000
_cell_volume 3607.034352
_symmetry_space_group_name_H-M "I M M M"
_symmetry_group_IT_number 71
_symmetry_cell_setting 'orthorhombic'
loop_
_space_group_symop_operation_xyz
x,y,z
-x,-y,z
x,-y,-z
-x,y,-z
-x,-y,-z
x,y,-z
-x,y,z
x,-y,z
1/2+x,1/2+y,1/2+z
1/2-x,1/2-y,1/2+z
1/2+x,1/2-y,1/2-z
1/2-x,1/2+y,1/2-z
1/2-x,1/2-y,1/2-z
1/2+x,1/2+y,1/2-z
1/2-x,1/2+y,1/2+z
1/2+x,1/2-y,1/2+z
loop_
_atom_site_type_symbol
_atom_site_label
_atom_site_fract_x
_atom_site_fract_y
_atom_site_fract_z
Si Si1 0.784612 0.000000 0.061697
Si Si2 0.778425 0.287737 0.666537
Si Si3 0.718888 0.636909 0.171646
Si Si4 0.210469 0.426136 0.720053
Si Si5 0.719917 0.419607 0.058590
Si Si6 0.288375 0.151481 0.060028
O O1 0.725660 0.073711 0.082939
O O2 0.000000 0.000000 0.061635
O O3 0.717595 0.000000 0.000000
O O4 0.720072 0.213682 0.686998
O O5 0.712258 0.355526 0.696745
O O6 0.719375 0.297511 0.604938
O O7 0.000000 0.287939 0.668163
O O8 0.500000 0.635797 0.171557
O O9 0.779601 0.583486 0.216176
O O10 0.780296 0.618726 0.111861
O O11 0.290187 0.500000 0.704354
O O12 0.000000 0.427654 0.704367
O O13 0.500000 0.416398 0.058576
O O14 0.768117 0.500000 0.062461
O O15 0.779200 0.393847 0.000000
O O16 0.500000 0.166244 0.054813
O O17 0.209498 0.153179 0.000000
#
# Coordination Sequence:
#
# PCOD9519873 Si02
#       6
#     8  16  16  16  16  16
#     4   9  17  29  45  67  97 131 167 209 254 293
#     4   9  19  33  51  76 103 132 166 206 255 306
#     4  10  19  33  54  78 103 130 164 210 255 296
#     4  10  21  36  53  71  96 135 173 205 250 307
#     4   8  14  25  44  73 105 132 157 191 244 301
#     4   9  17  30  50  74  99 131 171 209 246 298
#
# _framework density 24.396774000000001
#
# number of rings (size 3 to 8) (size 9 to 14) (size 15 to 20)
#    0.000    2.818    0.000    1.909    1.273    2.909 
#    0.000    5.455    0.000    0.545    0.000    2.545 
#    0.000    0.000    0.000    0.000    0.000    0.000 
#
# Total GULP energy -245768.275942 kJ/mol
# GULP energy per Si atom -5585.642635 kJ/mol
# Density = 2.434125 g / cm^3
# Si number density = 24.396774 Si / 1000 Ang^3
#
#
#
# Elastic Constant Matrix: (Units=GPa)
#
#
# Indices 1 2 3 4 5 6 
#
# 1 88.4189 1.2236 -0.6377 0.0000 0.0000 0.0000
# 2 1.2236 116.0888 34.9275 0.0000 0.0000 0.0000
# 3 -0.6377 34.9275 95.0194 0.0000 0.0000 0.0000
# 4 0.0000 0.0000 0.0000 49.6798 0.0000 0.0000
# 5 0.0000 0.0000 0.0000 0.0000 6.8716 0.0000
# 6 0.0000 0.0000 0.0000 0.0000 0.0000 -6.5445
#
#
#
# Elastic Compliance Matrix: (Units=1/GPa)
#
#
# Indices 1 2 3 4 5 6 
#
# 1 0.011313 -0.000160 0.000135 0.000000 0.000000 0.000000
# 2 -0.000160 0.009687 -0.003562 0.000000 0.000000 0.000000
# 3 0.000135 -0.003562 0.011834 0.000000 0.000000 0.000000
# 4 0.000000 0.000000 0.000000 0.020129 0.000000 0.000000
# 5 0.000000 0.000000 0.000000 0.000000 0.145528 0.000000
# 6 0.000000 0.000000 0.000000 0.000000 0.000000 -0.152800
#
#
# Mechanical properties :
#
#
# Convention : Reuss Voigt Hill
#
# Bulk Modulus (GPa) = 38.97024 41.17266 40.07145
# Shear Modulus (GPa) = 81.40743 27.60227 54.50485
#
# Velocity S-wave (km/s) = 5.78278 3.36726 4.73176
# Velocity P-wave (km/s) = 7.78432 5.65958 6.80538
#
# Compressibility (1/GPa) = 0.02566061
#
# Stress axis : x y z
#
# Youngs Moduli (GPa) = 88.39406 103.22597 84.49931
#
# Poissons Ratio (x) = 0.01649 -0.01138
# Poissons Ratio (y) = 0.01412 0.30099
# Poissons Ratio (z) = -0.01190 0.36769
#
# Static dielectric constant tensor:
#      x y z
#    x 2.001050 0.000000 0.000000 
#    y 0.000000 1.918840 0.000000 
#    z 0.000000 0.000000 1.961840 
# 
# From -- ./inp_files/57576.got.cif
#   From: 2010.05.17/outbox.cif.g08.bks.cpg/sg71_29_cif.got.tgz:57576.got - 2010.06.03 16:22:01.
