data_PCOD9519864
_publ_section_title
;
Structure prediction by ZEFSAII (Michael W. Deem and Ramdas Pophale) SiO2 
 PCOD9519864
Probable space group: I M M M
;
_chemical_formula_sum "Si O2"
_cell_formula_units_Z 100
_cell_length_a 22.507059
_cell_length_b 26.097404
_cell_length_c 7.344333
_cell_angle_alpha 90.000000
_cell_angle_beta 90.000000
_cell_angle_gamma 90.000000
_cell_volume 4313.883556
_symmetry_space_group_name_H-M "I M M M"
_symmetry_group_IT_number 71
_symmetry_cell_setting 'orthorhombic'
loop_
_space_group_symop_operation_xyz
x,y,z
-x,-y,z
x,-y,-z
-x,y,-z
-x,-y,-z
x,y,-z
-x,y,z
x,-y,z
1/2+x,1/2+y,1/2+z
1/2-x,1/2-y,1/2+z
1/2+x,1/2-y,1/2-z
1/2-x,1/2+y,1/2-z
1/2-x,1/2-y,1/2-z
1/2+x,1/2+y,1/2-z
1/2-x,1/2+y,1/2+z
1/2+x,1/2-y,1/2+z
loop_
_atom_site_type_symbol
_atom_site_label
_atom_site_fract_x
_atom_site_fract_y
_atom_site_fract_z
Si Si1 0.437647 0.888566 0.289430
Si Si2 0.000000 0.080816 0.500000
Si Si3 0.226701 0.112658 0.719973
Si Si4 0.066327 0.239740 0.779318
Si Si5 0.763681 0.500000 0.791846
Si Si6 0.098883 0.500000 0.282675
Si Si7 0.666544 0.181255 0.278938
Si Si8 0.087661 0.122606 0.211827
O O1 0.439138 0.872016 0.500000
O O2 0.500000 0.872882 0.204798
O O3 0.377433 0.864582 0.219656
O O4 0.432774 0.949016 0.280840
O O5 0.948016 0.084633 0.658967
O O6 0.232964 0.111755 0.500000
O O7 0.268971 0.160215 0.781913
O O8 0.158428 0.119731 0.769050
O O9 0.245367 0.055552 0.786267
O O10 0.126008 0.270095 0.719281
O O11 0.070078 0.180259 0.728594
O O12 0.000000 0.258364 0.722831
O O13 0.066893 0.242415 0.000000
O O14 0.834658 0.500000 0.791059
O O15 0.741061 0.500000 0.000000
O O16 0.100505 0.500000 0.500000
O O17 0.670939 0.185749 0.500000
O O18 0.072111 0.116219 0.000000
#
# Coordination Sequence:
#
# PCOD9519864 Si02
#       8
#    16   4  16  16   8   8  16  16
#     4  10  19  33  54  77 103 150 212 265 306 361
#     4  12  22  44  72  99 130 160 210 247 306 384
#     4  10  20  37  62  93 125 163 205 261 314 371
#     4   9  17  32  56  89 124 164 205 252 311 368
#     4  10  20  39  65  86 119 160 210 256 311 372
#     4  12  23  33  50  73 110 155 199 259 324 372
#     4   9  17  31  56  86 121 159 208 257 307 358
#     4  11  23  40  68  98 130 164 206 254 309 375
#
# _framework density 23.180969000000001
#
# number of rings (size 3 to 8) (size 9 to 14) (size 15 to 20)
#    0.000    1.920    3.200    1.680    0.000    4.480 
#    0.000    0.000    3.520    0.960    0.000    1.120 
#    0.000    0.000    0.000    0.000    0.000    0.000 
#
# Total GULP energy -278472.435989 kJ/mol
# GULP energy per Si atom -5569.448720 kJ/mol
# Density = 2.312821 g / cm^3
# Si number density = 23.180969 Si / 1000 Ang^3
#
#
#
# Elastic Constant Matrix: (Units=GPa)
#
#
# Indices 1 2 3 4 5 6 
#
# 1 167.5040 0.9975 5.7066 0.0000 0.0000 0.0000
# 2 0.9975 36.3354 -7.6467 0.0000 0.0000 0.0000
# 3 5.7066 -7.6467 107.3282 0.0000 0.0000 0.0000
# 4 0.0000 0.0000 0.0000 -31.1970 0.0000 0.0000
# 5 0.0000 0.0000 0.0000 0.0000 11.3048 0.0000
# 6 0.0000 0.0000 0.0000 0.0000 0.0000 27.2687
#
#
#
# Elastic Compliance Matrix: (Units=1/GPa)
#
#
# Indices 1 2 3 4 5 6 
#
# 1 0.005983 -0.000235 -0.000335 0.000000 0.000000 0.000000
# 2 -0.000235 0.027950 0.002004 0.000000 0.000000 0.000000
# 3 -0.000335 0.002004 0.009478 0.000000 0.000000 0.000000
# 4 0.000000 0.000000 0.000000 -0.032054 0.000000 0.000000
# 5 0.000000 0.000000 0.000000 0.000000 0.088458 0.000000
# 6 0.000000 0.000000 0.000000 0.000000 0.000000 0.036672
#
#
# Mechanical properties :
#
#
# Convention : Reuss Voigt Hill
#
# Bulk Modulus (GPa) = 21.60826 34.36470 27.98648
# Shear Modulus (GPa) = 33.54718 22.28263 27.91490
#
# Velocity S-wave (km/s) = 3.80832 3.10376 3.47395
# Velocity P-wave (km/s) = 5.35532 5.26319 5.30946
#
# Compressibility (1/GPa) = 0.04627860
#
# Stress axis : x y z
#
# Youngs Moduli (GPa) = 167.14545 35.77879 105.50995
#
# Poissons Ratio (x) = 0.00840 0.03533
# Poissons Ratio (y) = 0.03923 -0.21142
# Poissons Ratio (z) = 0.05596 -0.07169
#
# Static dielectric constant tensor:
#      x y z
#    x 1.876660 0.000000 0.000000 
#    y 0.000000 1.887910 0.000000 
#    z 0.000000 0.000000 1.891850 
# 
# From -- ./inp_files/11585.got.cif
#   From: 2010.05.17/outbox.cif.g08.bks.cpg/sg71_6_cif.got.tgz:11585.got - 2010.06.03 16:22:01.
