data_PCOD9519287
_publ_section_title
;
Structure prediction by ZEFSAII (Michael W. Deem and Ramdas Pophale) SiO2 
 PCOD9519287
Probable space group: I M M M
;
_chemical_formula_sum "Si O2"
_cell_formula_units_Z 116
_cell_length_a 27.201672
_cell_length_b 23.393078
_cell_length_c 9.336012
_cell_angle_alpha 90.000000
_cell_angle_beta 90.000000
_cell_angle_gamma 90.000000
_cell_volume 5940.792310
_symmetry_space_group_name_H-M "I M M M"
_symmetry_group_IT_number 71
_symmetry_cell_setting 'orthorhombic'
loop_
_space_group_symop_operation_xyz
x,y,z
-x,-y,z
x,-y,-z
-x,y,-z
-x,-y,-z
x,y,-z
-x,y,z
x,-y,z
1/2+x,1/2+y,1/2+z
1/2-x,1/2-y,1/2+z
1/2+x,1/2-y,1/2-z
1/2-x,1/2+y,1/2-z
1/2-x,1/2-y,1/2-z
1/2+x,1/2+y,1/2-z
1/2-x,1/2+y,1/2+z
1/2+x,1/2-y,1/2+z
loop_
_atom_site_type_symbol
_atom_site_label
_atom_site_fract_x
_atom_site_fract_y
_atom_site_fract_z
Si Si1 0.904368 0.279426 0.325941
Si Si2 0.420850 0.094096 0.827252
Si Si3 0.700578 0.738902 0.834341
Si Si4 0.442288 0.343991 0.832203
Si Si5 0.122698 0.064102 0.169179
Si Si6 0.786323 0.105764 0.334436
Si Si7 0.806013 0.567923 0.666920
Si Si8 0.000000 0.500000 0.757505
O O1 0.903324 0.281153 0.500000
O O2 0.927300 0.339799 0.282616
O O3 0.847744 0.271260 0.278741
O O4 0.932161 0.221423 0.286104
O O5 0.363337 0.080031 0.803331
O O6 0.457012 0.050010 0.752429
O O7 0.429867 0.088295 0.000000
O O8 0.750000 0.750000 0.750000
O O9 0.693303 0.670599 0.829249
O O10 0.707346 0.755445 0.000000
O O11 0.500000 0.355640 0.822517
O O12 0.411820 0.388836 0.740707
O O13 0.427317 0.348516 0.000000
O O14 0.176024 0.069010 0.241756
O O15 0.103210 0.000000 0.192494
O O16 0.127236 0.073933 0.000000
O O17 0.785072 0.087844 0.500000
O O18 0.732317 0.101169 0.265959
O O19 0.797424 0.583123 0.500000
O O20 0.797580 0.500000 0.683637
#
# Coordination Sequence:
#
# PCOD9519287 Si02
#       8
#    16  16  16  16  16  16  16   4
#     4   9  18  34  54  80 116 158 198 246 303 358
#     4  10  19  31  52  82 122 162 201 253 308 361
#     4  10  20  35  55  82 117 153 195 243 299 362
#     4  10  21  39  62  88 119 157 205 255 304 360
#     4  11  24  41  62  89 121 159 198 242 303 368
#     4  11  22  37  59  87 119 156 200 252 300 362
#     4  10  20  35  53  80 120 163 202 248 310 372
#     4  12  21  32  52  92 133 166 211 260 311 364
#
# _framework density 19.526015999999998
#
# number of rings (size 3 to 8) (size 9 to 14) (size 15 to 20)
#    0.000    1.793    2.069    2.690    0.966    5.793 
#    0.000    1.379    0.000    0.000    0.000    0.966 
#    0.000    0.000    0.000    0.000    0.000    0.000 
#
# Total GULP energy -323423.292971 kJ/mol
# GULP energy per Si atom -5576.263672 kJ/mol
# Density = 1.948157 g / cm^3
# Si number density = 19.526016 Si / 1000 Ang^3
#
#
#
# Elastic Constant Matrix: (Units=GPa)
#
#
# Indices 1 2 3 4 5 6 
#
# 1 94.1884 54.5547 39.4821 0.0000 0.0000 0.0000
# 2 54.5547 123.4120 47.7158 0.0000 0.0000 0.0000
# 3 39.4821 47.7158 51.5337 0.0000 0.0000 0.0000
# 4 0.0000 0.0000 0.0000 14.0791 0.0000 0.0000
# 5 0.0000 0.0000 0.0000 0.0000 4.5155 0.0000
# 6 0.0000 0.0000 0.0000 0.0000 0.0000 55.2246
#
#
#
# Elastic Compliance Matrix: (Units=1/GPa)
#
#
# Indices 1 2 3 4 5 6 
#
# 1 0.016708 -0.003795 -0.009287 0.000000 0.000000 0.000000
# 2 -0.003795 0.013483 -0.009577 0.000000 0.000000 0.000000
# 3 -0.009287 -0.009577 0.035387 0.000000 0.000000 0.000000
# 4 0.000000 0.000000 0.000000 0.071027 0.000000 0.000000
# 5 0.000000 0.000000 0.000000 0.000000 0.221458 0.000000
# 6 0.000000 0.000000 0.000000 0.000000 0.000000 0.018108
#
#
# Mechanical properties :
#
#
# Convention : Reuss Voigt Hill
#
# Bulk Modulus (GPa) = 49.35581 61.40437 55.38009
# Shear Modulus (GPa) = 11.67563 23.25595 17.46579
#
# Velocity S-wave (km/s) = 2.44796 3.45487 2.99404
# Velocity P-wave (km/s) = 5.77251 6.88698 6.35423
#
# Compressibility (1/GPa) = 0.02026104
#
# Stress axis : x y z
#
# Youngs Moduli (GPa) = 59.85135 74.16523 28.25907
#
# Poissons Ratio (x) = 0.28148 0.26243
# Poissons Ratio (y) = 0.22715 0.27063
# Poissons Ratio (z) = 0.55582 0.71026
#
# Static dielectric constant tensor:
#      x y z
#    x 1.670970 0.000000 0.000000 
#    y 0.000000 1.711380 0.000000 
#    z 0.000000 0.000000 1.660200 
# 
# From -- ./inp_files/15415.got.cif
#   From: 2010.05.17/outbox.cif.g08.bks.cpg/sg71_8_cif.got.tgz:15415.got - 2010.06.03 16:22:01.
