data_PCOD9519549
_publ_section_title
;
Structure prediction by ZEFSAII (Michael W. Deem and Ramdas Pophale) SiO2 
 PCOD9519549
Probable space group: I M M M
;
_chemical_formula_sum "Si O2"
_cell_formula_units_Z 120
_cell_length_a 24.003371
_cell_length_b 13.479084
_cell_length_c 19.056290
_cell_angle_alpha 90.000000
_cell_angle_beta 90.000000
_cell_angle_gamma 90.000000
_cell_volume 6165.537887
_symmetry_space_group_name_H-M "I M M M"
_symmetry_group_IT_number 71
_symmetry_cell_setting 'orthorhombic'
loop_
_space_group_symop_operation_xyz
x,y,z
-x,-y,z
x,-y,-z
-x,y,-z
-x,-y,-z
x,y,-z
-x,y,z
x,-y,z
1/2+x,1/2+y,1/2+z
1/2-x,1/2-y,1/2+z
1/2+x,1/2-y,1/2-z
1/2-x,1/2+y,1/2-z
1/2-x,1/2-y,1/2-z
1/2+x,1/2+y,1/2-z
1/2-x,1/2+y,1/2+z
1/2+x,1/2-y,1/2+z
loop_
_atom_site_type_symbol
_atom_site_label
_atom_site_fract_x
_atom_site_fract_y
_atom_site_fract_z
Si Si1 0.060994 0.174752 0.419121
Si Si2 0.936038 0.607963 0.629902
Si Si3 0.567503 0.888618 0.500000
Si Si4 0.680645 0.383721 0.918668
Si Si5 0.226011 0.282174 0.824798
Si Si6 0.334339 0.615996 0.583865
Si Si7 0.114202 0.613418 0.222073
Si Si8 0.935557 0.760178 0.877432
O O1 0.059312 0.141444 0.500000
O O2 0.067516 0.293946 0.416197
O O3 0.117997 0.131691 0.389147
O O4 0.000000 0.150253 0.387689
O O5 0.928434 0.500000 0.595038
O O6 0.892889 0.614963 0.694019
O O7 0.000000 0.607836 0.658346
O O8 0.500000 0.894781 0.500000
O O9 0.583416 0.824048 0.433144
O O10 0.589885 0.000000 0.500000
O O11 0.692286 0.500000 0.920262
O O12 0.726032 0.331607 0.870935
O O13 0.682116 0.346970 0.000000
O O14 0.250000 0.250000 0.750000
O O15 0.203422 0.188795 0.869570
O O16 0.174529 0.355959 0.807417
O O17 0.328922 0.634866 0.500000
O O18 0.323198 0.500000 0.596057
O O19 0.396579 0.646387 0.608442
O O20 0.099346 0.500000 0.200052
O O21 0.074263 0.701282 0.194510
O O22 0.000000 0.783117 0.888413
#
# Coordination Sequence:
#
# PCOD9519549 Si02
#       8
#    16  16   8  16  16  16  16  16
#     4   9  18  33  54  81 111 141 175 219 271 331
#     4   9  17  30  49  74 107 146 183 220 268 325
#     4   9  16  26  43  71 107 143 180 224 270 317
#     4  10  21  38  60  84 112 145 180 224 279 339
#     4  11  23  39  60  83 109 144 188 240 289 338
#     4  10  22  40  60  83 114 152 193 237 284 337
#     4  10  20  33  51  76 107 144 185 230 281 335
#     4  10  19  32  52  80 113 150 191 233 278 329
#
# _framework density 19.463021000000001
#
# number of rings (size 3 to 8) (size 9 to 14) (size 15 to 20)
#    0.000    2.200    0.667    2.400    0.000    3.200 
#    0.000    4.000    0.000    0.800    0.000    3.733 
#    0.000    0.000    0.000    0.000    0.000    0.000 
#
# Total GULP energy -334428.717274 kJ/mol
# GULP energy per Si atom -5573.811955 kJ/mol
# Density = 1.941872 g / cm^3
# Si number density = 19.463021 Si / 1000 Ang^3
#
#
#
# Elastic Constant Matrix: (Units=GPa)
#
#
# Indices 1 2 3 4 5 6 
#
# 1 123.4288 40.9863 39.5392 0.0000 0.0000 0.0000
# 2 40.9863 77.3117 26.9576 0.0000 0.0000 0.0000
# 3 39.5392 26.9576 54.7634 0.0000 0.0000 0.0000
# 4 0.0000 0.0000 0.0000 23.5603 0.0000 0.0000
# 5 0.0000 0.0000 0.0000 0.0000 16.2350 0.0000
# 6 0.0000 0.0000 0.0000 0.0000 0.0000 22.6270
#
#
#
# Elastic Compliance Matrix: (Units=1/GPa)
#
#
# Indices 1 2 3 4 5 6 
#
# 1 0.011409 -0.003834 -0.006350 0.000000 0.000000 0.000000
# 2 -0.003834 0.016903 -0.005552 0.000000 0.000000 0.000000
# 3 -0.006350 -0.005552 0.025578 0.000000 0.000000 0.000000
# 4 0.000000 0.000000 0.000000 0.042444 0.000000 0.000000
# 5 0.000000 0.000000 0.000000 0.000000 0.061595 0.000000
# 6 0.000000 0.000000 0.000000 0.000000 0.000000 0.044195
#
#
# Mechanical properties :
#
#
# Convention : Reuss Voigt Hill
#
# Bulk Modulus (GPa) = 44.60810 52.27445 48.44127
# Shear Modulus (GPa) = 20.74073 22.35252 21.54663
#
# Velocity S-wave (km/s) = 3.26797 3.39257 3.33085
# Velocity P-wave (km/s) = 6.09989 6.50098 6.30362
#
# Compressibility (1/GPa) = 0.02241746
#
# Stress axis : x y z
#
# Youngs Moduli (GPa) = 87.64814 59.15943 39.09564
#
# Poissons Ratio (x) = 0.22684 0.24826
# Poissons Ratio (y) = 0.33608 0.21707
# Poissons Ratio (z) = 0.55657 0.32848
#
# Static dielectric constant tensor:
#      x y z
#    x 1.700780 0.000000 0.000000 
#    y 0.000000 1.673040 0.000000 
#    z 0.000000 0.000000 1.731250 
# 
# From -- ./inp_files/55836.got.cif
#   From: 2010.05.17/outbox.cif.g08.bks.cpg/sg71_28_cif.got.tgz:55836.got - 2010.06.03 16:22:01.
