data_PCOD9519536
_publ_section_title
;
Structure prediction by ZEFSAII (Michael W. Deem and Ramdas Pophale) SiO2 
 PCOD9519536
Probable space group: I M M M
;
_chemical_formula_sum "Si O2"
_cell_formula_units_Z 120
_cell_length_a 17.563793
_cell_length_b 26.418280
_cell_length_c 14.974656
_cell_angle_alpha 90.000000
_cell_angle_beta 90.000000
_cell_angle_gamma 90.000000
_cell_volume 6948.318272
_symmetry_space_group_name_H-M "I M M M"
_symmetry_group_IT_number 71
_symmetry_cell_setting 'orthorhombic'
loop_
_space_group_symop_operation_xyz
x,y,z
-x,-y,z
x,-y,-z
-x,y,-z
-x,-y,-z
x,y,-z
-x,y,z
x,-y,z
1/2+x,1/2+y,1/2+z
1/2-x,1/2-y,1/2+z
1/2+x,1/2-y,1/2-z
1/2-x,1/2+y,1/2-z
1/2-x,1/2-y,1/2-z
1/2+x,1/2+y,1/2-z
1/2-x,1/2+y,1/2+z
1/2+x,1/2-y,1/2+z
loop_
_atom_site_type_symbol
_atom_site_label
_atom_site_fract_x
_atom_site_fract_y
_atom_site_fract_z
Si Si1 0.500000 0.056388 0.607931
Si Si2 0.685490 0.303316 0.600025
Si Si3 0.583787 0.233179 0.714310
Si Si4 0.807381 0.861669 0.605240
Si Si5 0.151134 0.257124 0.398424
Si Si6 0.589867 0.557008 0.206834
Si Si7 0.412059 0.403794 0.400762
Si Si8 0.870517 0.634270 0.107191
O O1 0.500000 0.053723 0.500000
O O2 0.423841 0.087043 0.631178
O O3 0.500000 0.000000 0.644582
O O4 0.665383 0.283506 0.500000
O O5 0.645831 0.271227 0.676203
O O6 0.775231 0.293700 0.608666
O O7 0.650109 0.359093 0.605083
O O8 0.500000 0.253002 0.693695
O O9 0.594603 0.228211 0.819875
O O10 0.597577 0.181352 0.662167
O O11 0.818600 0.872464 0.500000
O O12 0.823543 0.801591 0.616727
O O13 0.861614 0.898409 0.661668
O O14 0.718832 0.871684 0.627096
O O15 0.121994 0.260263 0.500000
O O16 0.500000 0.563697 0.186025
O O17 0.612373 0.500000 0.178633
O O18 0.597493 0.561674 0.314167
O O19 0.404802 0.427176 0.500000
O O20 0.500000 0.383803 0.395839
O O21 0.877179 0.643357 0.000000
#
# Coordination Sequence:
#
# PCOD9519536 Si02
#       8
#     8  16  16  16  16  16  16  16
#     4   9  18  34  54  76 109 143 171 217 273 326
#     4  10  19  32  52  79 107 138 175 216 262 315
#     4  12  22  31  51  79 109 144 178 216 261 312
#     4  10  21  37  56  76 104 141 180 222 265 316
#     4  10  22  37  52  75 108 148 185 215 256 310
#     4  10  22  38  55  77 104 136 178 227 273 314
#     4   9  18  32  51  78 108 137 170 209 261 320
#     4  10  20  34  53  80 108 137 176 217 268 326
#
# _framework density 17.270365000000002
#
# number of rings (size 3 to 8) (size 9 to 14) (size 15 to 20)
#    0.000    1.933    2.000    2.000    1.867    4.533 
#    0.000    4.667    0.000    0.000    0.000    0.000 
#    0.000    1.067    0.000    0.000    0.000    0.133 
#
# Total GULP energy -334547.183779 kJ/mol
# GULP energy per Si atom -5575.786396 kJ/mol
# Density = 1.723106 g / cm^3
# Si number density = 17.270365 Si / 1000 Ang^3
#
#
#
# Elastic Constant Matrix: (Units=GPa)
#
#
# Indices 1 2 3 4 5 6 
#
# 1 37.1335 14.1054 17.3475 0.0000 0.0000 0.0000
# 2 14.1054 45.7064 9.5881 0.0000 0.0000 0.0000
# 3 17.3475 9.5881 53.0408 0.0001 0.0000 0.0000
# 4 0.0000 0.0000 0.0001 14.1807 0.0000 0.0000
# 5 0.0000 0.0000 0.0000 0.0000 22.1835 0.0000
# 6 0.0000 0.0000 0.0000 0.0000 0.0000 17.6762
#
#
#
# Elastic Compliance Matrix: (Units=1/GPa)
#
#
# Indices 1 2 3 4 5 6 
#
# 1 0.034815 -0.008685 -0.009817 0.000000 0.000000 0.000000
# 2 -0.008685 0.024908 -0.001662 0.000000 0.000000 0.000000
# 3 -0.009817 -0.001662 0.022364 0.000000 0.000000 0.000000
# 4 0.000000 0.000000 0.000000 0.070518 0.000000 0.000000
# 5 0.000000 0.000000 0.000000 0.000000 0.045079 0.000000
# 6 0.000000 0.000000 0.000000 0.000000 0.000000 0.056573
#
#
# Mechanical properties :
#
#
# Convention : Reuss Voigt Hill
#
# Bulk Modulus (GPa) = 23.94640 24.21809 24.08224
# Shear Modulus (GPa) = 16.20723 17.13071 16.66897
#
# Velocity S-wave (km/s) = 3.06672 3.15288 3.11010
# Velocity P-wave (km/s) = 5.14154 5.22567 5.18377
#
# Compressibility (1/GPa) = 0.04175993
#
# Stress axis : x y z
#
# Youngs Moduli (GPa) = 28.72338 40.14829 44.71377
#
# Poissons Ratio (x) = 0.34868 0.43894
# Poissons Ratio (y) = 0.24946 0.07432
# Poissons Ratio (z) = 0.28196 0.06673
#
# Static dielectric constant tensor:
#      x y z
#    x 1.566830 0.000000 0.000000 
#    y 0.000000 1.578610 0.000000 
#    z 0.000000 0.000000 1.603940 
# 
# From -- ./inp_files/35441.got.cif
#   From: 2010.05.17/outbox.cif.g08.bks.cpg/sg71_18_cif.got.tgz:35441.got - 2010.06.03 16:22:01.
