data_PCOD9519393
_publ_section_title
;
Structure prediction by ZEFSAII (Michael W. Deem and Ramdas Pophale) SiO2 
 PCOD9519393
Probable space group: I M M M
;
_chemical_formula_sum "Si O2"
_cell_formula_units_Z 88
_cell_length_a 23.983660
_cell_length_b 25.739421
_cell_length_c 7.944346
_cell_angle_alpha 90.000000
_cell_angle_beta 90.000000
_cell_angle_gamma 90.000000
_cell_volume 4904.247540
_symmetry_space_group_name_H-M "I M M M"
_symmetry_group_IT_number 71
_symmetry_cell_setting 'orthorhombic'
loop_
_space_group_symop_operation_xyz
x,y,z
-x,-y,z
x,-y,-z
-x,y,-z
-x,-y,-z
x,y,-z
-x,y,z
x,-y,z
1/2+x,1/2+y,1/2+z
1/2-x,1/2-y,1/2+z
1/2+x,1/2-y,1/2-z
1/2-x,1/2+y,1/2-z
1/2-x,1/2-y,1/2-z
1/2+x,1/2+y,1/2-z
1/2-x,1/2+y,1/2+z
1/2+x,1/2-y,1/2+z
loop_
_atom_site_type_symbol
_atom_site_label
_atom_site_fract_x
_atom_site_fract_y
_atom_site_fract_z
Si Si1 0.639734 0.937677 0.687967
Si Si2 0.563545 0.063488 0.000000
Si Si3 0.436328 0.789937 0.500000
Si Si4 0.641075 0.662799 0.189431
Si Si5 0.761709 0.367772 0.700442
Si Si6 0.063644 0.836691 0.000000
Si Si7 0.357138 0.787294 0.806684
O O1 0.620970 0.923287 0.500000
O O2 0.699674 0.912868 0.724824
O O3 0.643391 0.000000 0.695956
O O4 0.597687 0.920538 0.834544
O O5 0.500000 0.081922 0.000000
O O6 0.562142 0.000000 0.000000
O O7 0.500000 0.808787 0.500000
O O8 0.438051 0.726567 0.500000
O O9 0.401839 0.804282 0.667167
O O10 0.701206 0.637453 0.219886
O O11 0.597720 0.647301 0.334007
O O12 0.649234 0.725207 0.205360
O O13 0.621184 0.652222 0.000000
O O14 0.755810 0.374806 0.500000
O O15 0.798814 0.315937 0.727861
O O16 0.000000 0.855019 0.000000
O O17 0.373580 0.799546 0.000000
#
# Coordination Sequence:
#
# PCOD9519393 Si02
#       7
#    16   8   8  16  16   8  16
#     4  10  21  36  54  75  99 129 164 205 259 311
#     4   9  18  35  56  74  94 123 165 216 261 303
#     4   9  18  32  49  65  92 136 174 207 249 294
#     4  10  19  32  50  76 101 132 166 203 244 291
#     4  11  20  33  53  73 103 130 162 206 255 300
#     4   9  18  33  49  71 102 133 170 205 237 285
#     4   9  20  32  47  71  99 129 166 208 250 292
#
# _framework density 17.943629999999999
#
# number of rings (size 3 to 8) (size 9 to 14) (size 15 to 20)
#    0.000    2.273    1.818    1.091    2.545    1.091 
#    0.000    6.364    0.000    0.000    0.000    0.000 
#    0.000    1.455    0.000    3.818    0.000    0.182 
#
# Total GULP energy -245620.414652 kJ/mol
# GULP energy per Si atom -5582.282151 kJ/mol
# Density = 1.790279 g / cm^3
# Si number density = 17.943630 Si / 1000 Ang^3
#
#
#
# Elastic Constant Matrix: (Units=GPa)
#
#
# Indices 1 2 3 4 5 6 
#
# 1 142.3904 20.0268 94.0998 0.0000 0.0000 0.0000
# 2 20.0268 26.5348 25.8973 0.0000 0.0000 0.0000
# 3 94.0998 25.8973 149.6058 0.0000 0.0000 0.0000
# 4 0.0000 0.0000 0.0000 18.1069 0.0000 0.0000
# 5 0.0000 0.0000 0.0000 0.0000 14.7783 0.0000
# 6 0.0000 0.0000 0.0000 0.0000 0.0000 -15.0850
#
#
#
# Elastic Compliance Matrix: (Units=1/GPa)
#
#
# Indices 1 2 3 4 5 6 
#
# 1 0.012111 -0.002053 -0.007262 0.000000 0.000000 0.000000
# 2 -0.002053 0.045695 -0.006619 0.000000 0.000000 0.000000
# 3 -0.007262 -0.006619 0.012398 0.000000 0.000000 0.000000
# 4 0.000000 0.000000 0.000000 0.055228 0.000000 0.000000
# 5 0.000000 0.000000 0.000000 0.000000 0.067667 0.000000
# 6 0.000000 0.000000 0.000000 0.000000 0.000000 -0.066291
#
#
# Mechanical properties :
#
#
# Convention : Reuss Voigt Hill
#
# Bulk Modulus (GPa) = 26.08485 66.50875 46.29680
# Shear Modulus (GPa) = 29.16233 15.46053 22.31143
#
# Velocity S-wave (km/s) = 4.03577 2.93852 3.53004
# Velocity P-wave (km/s) = 6.02373 6.97560 6.51707
#
# Compressibility (1/GPa) = 0.03833643
#
# Stress axis : x y z
#
# Youngs Moduli (GPa) = 82.56948 21.88399 80.65914
#
# Poissons Ratio (x) = 0.04492 0.58577
# Poissons Ratio (y) = 0.16950 0.53387
# Poissons Ratio (z) = 0.59964 0.14485
#
# Static dielectric constant tensor:
#      x y z
#    x 1.578610 0.000000 0.000000 
#    y 0.000000 1.615720 0.000000 
#    z 0.000000 0.000000 1.634000 
# 
# From -- ./inp_files/8920.got.cif
#   From: 2010.05.17/outbox.cif.g08.bks.cpg/sg71_5_cif.got.tgz:8920.got - 2010.06.03 16:22:01.
