data_PCOD9519993
_publ_section_title
;
Structure prediction by ZEFSAII (Michael W. Deem and Ramdas Pophale) SiO2 
 PCOD9519993
Probable space group: I M M M
;
_chemical_formula_sum "Si O2"
_cell_formula_units_Z 88
_cell_length_a 29.479024
_cell_length_b 8.948380
_cell_length_c 17.329330
_cell_angle_alpha 90.000000
_cell_angle_beta 90.000000
_cell_angle_gamma 90.000000
_cell_volume 4571.295448
_symmetry_space_group_name_H-M "I M M M"
_symmetry_group_IT_number 71
_symmetry_cell_setting 'orthorhombic'
loop_
_space_group_symop_operation_xyz
x,y,z
-x,-y,z
x,-y,-z
-x,y,-z
-x,-y,-z
x,y,-z
-x,y,z
x,-y,z
1/2+x,1/2+y,1/2+z
1/2-x,1/2-y,1/2+z
1/2+x,1/2-y,1/2-z
1/2-x,1/2+y,1/2-z
1/2-x,1/2-y,1/2-z
1/2+x,1/2+y,1/2-z
1/2-x,1/2+y,1/2+z
1/2+x,1/2-y,1/2+z
loop_
_atom_site_type_symbol
_atom_site_label
_atom_site_fract_x
_atom_site_fract_y
_atom_site_fract_z
Si Si1 0.195721 0.822695 0.407114
Si Si2 0.603872 0.821453 0.145647
Si Si3 0.709610 0.672107 0.406019
Si Si4 0.053306 0.178070 0.210073
Si Si5 0.054372 0.824252 0.500000
Si Si6 0.615896 0.825998 0.592703
O O1 0.190412 0.798679 0.500000
O O2 0.154614 0.740968 0.364847
O O3 0.244320 0.755829 0.383476
O O4 0.194243 0.000000 0.393685
O O5 0.580672 0.761137 0.222829
O O6 0.603893 0.000000 0.143228
O O7 0.575089 0.754481 0.074698
O O8 0.709170 0.671971 0.500000
O O9 0.709423 0.500000 0.380307
O O10 0.664040 0.756740 0.381366
O O11 0.075524 0.233877 0.130933
O O12 0.000000 0.213442 0.214359
O O13 0.058541 0.000000 0.218581
O O14 0.000000 0.814070 0.500000
O O15 0.067072 0.000000 0.500000
O O16 0.614034 0.816794 0.500000
O O17 0.613282 0.000000 0.614721
#
# Coordination Sequence:
#
# PCOD9519993 Si02
#       6
#    16  16  16  16   8  16
#     4  10  19  33  56  85 121 162 203 245 293 349
#     4  12  24  38  59  87 120 157 202 251 301 354
#     4   9  17  31  55  87 122 157 197 242 291 349
#     4  11  25  44  64  86 117 157 199 247 305 362
#     4  11  23  39  59  83 115 157 205 253 300 353
#     4  10  21  39  64  93 123 155 195 242 297 361
#
# _framework density 19.250561000000001
#
# number of rings (size 3 to 8) (size 9 to 14) (size 15 to 20)
#    0.000    1.545    0.909    4.636    0.000    8.727 
#    0.000    2.727    0.000    0.000    0.000    0.000 
#    0.000    0.000    0.000    0.000    0.000    0.000 
#
# Total GULP energy -246009.130790 kJ/mol
# GULP energy per Si atom -5591.116609 kJ/mol
# Density = 1.920675 g / cm^3
# Si number density = 19.250561 Si / 1000 Ang^3
#
#
#
# Elastic Constant Matrix: (Units=GPa)
#
#
# Indices 1 2 3 4 5 6 
#
# 1 65.0554 46.8471 31.0600 0.0000 0.0000 0.0000
# 2 46.8471 127.0275 32.3288 0.0000 0.0000 0.0000
# 3 31.0600 32.3288 30.4141 0.0000 0.0000 0.0000
# 4 0.0000 0.0000 0.0000 27.3656 0.0000 0.0000
# 5 0.0000 0.0000 0.0000 0.0000 27.5053 0.0000
# 6 0.0000 0.0000 0.0000 0.0000 0.0000 35.3537
#
#
#
# Elastic Compliance Matrix: (Units=1/GPa)
#
#
# Indices 1 2 3 4 5 6 
#
# 1 0.031978 -0.004773 -0.027584 0.000000 0.000000 0.000000
# 2 -0.004773 0.011504 -0.007354 0.000000 0.000000 0.000000
# 3 -0.027584 -0.007354 0.068865 0.000000 0.000000 0.000000
# 4 0.000000 0.000000 0.000000 0.036542 0.000000 0.000000
# 5 0.000000 0.000000 0.000000 0.000000 0.036357 0.000000
# 6 0.000000 0.000000 0.000000 0.000000 0.000000 0.028286
#
#
# Mechanical properties :
#
#
# Convention : Reuss Voigt Hill
#
# Bulk Modulus (GPa) = 30.37050 49.21876 39.79463
# Shear Modulus (GPa) = 16.45119 25.52900 20.99009
#
# Velocity S-wave (km/s) = 2.92650 3.64558 3.30565
# Velocity P-wave (km/s) = 5.21822 6.58356 5.94025
#
# Compressibility (1/GPa) = 0.03292668
#
# Stress axis : x y z
#
# Youngs Moduli (GPa) = 31.27116 86.92448 14.52106
#
# Poissons Ratio (x) = 0.41492 0.40054
# Poissons Ratio (y) = 0.14927 0.10678
# Poissons Ratio (z) = 0.86257 0.63922
#
# Static dielectric constant tensor:
#      x y z
#    x 1.642410 0.000000 0.000000 
#    y 0.000000 1.638740 0.000000 
#    z 0.000000 0.000000 1.683060 
# 
# From -- ./inp_files/49247.got.cif
#   From: 2010.05.17/outbox.cif.g08.bks.cpg/sg71_25_cif.got.tgz:49247.got - 2010.06.03 16:22:01.
