data_PCOD9519029
_publ_section_title
;
Structure prediction by ZEFSAII (Michael W. Deem and Ramdas Pophale) SiO2 
 PCOD9519029
Probable space group: I M M M
;
_chemical_formula_sum "Si O2"
_cell_formula_units_Z 96
_cell_length_a 21.095053
_cell_length_b 20.842337
_cell_length_c 9.893967
_cell_angle_alpha 90.000000
_cell_angle_beta 90.000000
_cell_angle_gamma 90.000000
_cell_volume 4350.082486
_symmetry_space_group_name_H-M "I M M M"
_symmetry_group_IT_number 71
_symmetry_cell_setting 'orthorhombic'
loop_
_space_group_symop_operation_xyz
x,y,z
-x,-y,z
x,-y,-z
-x,y,-z
-x,-y,-z
x,y,-z
-x,y,z
x,-y,z
1/2+x,1/2+y,1/2+z
1/2-x,1/2-y,1/2+z
1/2+x,1/2-y,1/2-z
1/2-x,1/2+y,1/2-z
1/2-x,1/2-y,1/2-z
1/2+x,1/2+y,1/2-z
1/2-x,1/2+y,1/2+z
1/2+x,1/2-y,1/2+z
loop_
_atom_site_type_symbol
_atom_site_label
_atom_site_fract_x
_atom_site_fract_y
_atom_site_fract_z
Si Si1 0.250946 0.827671 0.856874
Si Si2 0.401819 0.807876 0.843997
Si Si3 0.923620 0.924773 0.342569
Si Si4 0.411030 0.073166 0.345389
Si Si5 0.112476 0.194157 0.156094
Si Si6 0.258665 0.067236 0.347756
O O1 0.324043 0.806494 0.851990
O O2 0.187608 0.785000 0.855963
O O3 0.238475 0.871842 0.731134
O O4 0.246312 0.864413 0.000000
O O5 0.423852 0.872527 0.766057
O O6 0.419634 0.747937 0.749851
O O7 0.423355 0.804854 0.000000
O O8 0.907531 0.908515 0.500000
O O9 0.896919 0.873493 0.234492
O O10 0.000000 0.921834 0.332918
O O11 0.905806 0.000000 0.320139
O O12 0.430647 0.089342 0.500000
O O13 0.334708 0.069685 0.350160
O O14 0.431745 0.000000 0.314547
O O15 0.089932 0.190945 0.000000
O O16 0.235845 0.068254 0.500000
O O17 0.240120 0.000000 0.282437
#
# Coordination Sequence:
#
# PCOD9519029 Si02
#       6
#    16  16  16  16  16  16
#     4   9  19  31  42  62  94 133 172 210 253 302
#     4  10  19  31  47  68  99 139 181 220 256 300
#     4   9  20  41  65  84 103 130 168 219 279 338
#     4   8  14  26  43  62  88 125 167 208 249 290
#     4  11  22  34  50  74 103 133 168 211 262 321
#     4   8  14  24  38  56  79 113 158 203 244 287
#
# _framework density 22.068546000000001
#
# number of rings (size 3 to 8) (size 9 to 14) (size 15 to 20)
#    0.000    2.833    0.000    3.000    0.000    4.000 
#    0.000    7.500    0.000    0.000    0.000    0.000 
#    0.000    0.667    0.000    7.000    0.000    3.333 
#
# Total GULP energy -267272.266518 kJ/mol
# GULP energy per Si atom -5568.172219 kJ/mol
# Density = 2.201832 g / cm^3
# Si number density = 22.068546 Si / 1000 Ang^3
#
#
#
# Elastic Constant Matrix: (Units=GPa)
#
#
# Indices 1 2 3 4 5 6 
#
# 1 110.1149 2.6015 9.4667 0.0000 0.0000 0.0000
# 2 2.6015 111.6734 105.0395 0.0000 0.0000 0.0000
# 3 9.4667 105.0395 188.8021 0.0000 0.0000 0.0000
# 4 0.0000 0.0000 0.0000 58.5002 0.0000 0.0000
# 5 0.0000 0.0000 0.0000 0.0000 133.1724 0.0000
# 6 0.0000 0.0000 0.0000 0.0000 0.0000 10.8917
#
#
#
# Elastic Compliance Matrix: (Units=1/GPa)
#
#
# Indices 1 2 3 4 5 6 
#
# 1 0.009132 0.000457 -0.000712 0.000000 0.000000 0.000000
# 2 0.000457 0.018808 -0.010486 0.000000 0.000000 0.000000
# 3 -0.000712 -0.010486 0.011166 0.000000 0.000000 0.000000
# 4 0.000000 0.000000 0.000000 0.017094 0.000000 0.000000
# 5 0.000000 0.000000 0.000000 0.000000 0.007509 0.000000
# 6 0.000000 0.000000 0.000000 0.000000 0.000000 0.091813
#
#
# Mechanical properties :
#
#
# Convention : Reuss Voigt Hill
#
# Bulk Modulus (GPa) = 56.74471 71.64508 64.19490
# Shear Modulus (GPa) = 27.34054 60.07839 43.70946
#
# Velocity S-wave (km/s) = 3.52361 5.22328 4.45525
# Velocity P-wave (km/s) = 6.50563 8.30133 7.45772
#
# Compressibility (1/GPa) = 0.01762279
#
# Stress axis : x y z
#
# Youngs Moduli (GPa) = 109.50680 53.17026 89.55474
#
# Poissons Ratio (x) = -0.02431 0.06379
# Poissons Ratio (y) = -0.05007 0.93911
# Poissons Ratio (z) = 0.07800 0.55757
#
# Static dielectric constant tensor:
#      x y z
#    x 1.872920 0.000000 0.000000 
#    y 0.000000 1.786330 0.000000 
#    z 0.000000 0.000000 1.783970 
# 
# From -- ./inp_files/15166.got.cif
#   From: 2010.05.17/outbox.cif.g08.bks.cpg/sg71_8_cif.got.tgz:15166.got - 2010.06.03 16:22:01.
