data_PCOD9519777
_publ_section_title
;
Structure prediction by ZEFSAII (Michael W. Deem and Ramdas Pophale) SiO2 
 PCOD9519777
Probable space group: I M M M
;
_chemical_formula_sum "Si O2"
_cell_formula_units_Z 120
_cell_length_a 16.068402
_cell_length_b 31.609994
_cell_length_c 14.571115
_cell_angle_alpha 90.000000
_cell_angle_beta 90.000000
_cell_angle_gamma 90.000000
_cell_volume 7400.991196
_symmetry_space_group_name_H-M "I M M M"
_symmetry_group_IT_number 71
_symmetry_cell_setting 'orthorhombic'
loop_
_space_group_symop_operation_xyz
x,y,z
-x,-y,z
x,-y,-z
-x,y,-z
-x,-y,-z
x,y,-z
-x,y,z
x,-y,z
1/2+x,1/2+y,1/2+z
1/2-x,1/2-y,1/2+z
1/2+x,1/2-y,1/2-z
1/2-x,1/2+y,1/2-z
1/2-x,1/2-y,1/2-z
1/2+x,1/2+y,1/2-z
1/2-x,1/2+y,1/2+z
1/2+x,1/2-y,1/2+z
loop_
_atom_site_type_symbol
_atom_site_label
_atom_site_fract_x
_atom_site_fract_y
_atom_site_fract_z
Si Si1 0.172533 0.838193 0.746488
Si Si2 0.090900 0.240171 0.833952
Si Si3 0.905694 0.713750 0.642858
Si Si4 0.904357 0.547566 0.611395
Si Si5 0.600947 0.593114 0.892958
Si Si6 0.804193 0.630051 0.391191
Si Si7 0.757864 0.777093 0.401438
Si Si8 0.404763 0.500000 0.111176
O O1 0.105371 0.805888 0.788947
O O2 0.133681 0.872290 0.677699
O O3 0.225810 0.858319 0.828288
O O4 0.231588 0.808499 0.683651
O O5 0.091756 0.273664 0.750061
O O6 0.172740 0.250906 0.891680
O O7 0.000000 0.242203 0.878794
O O8 0.872728 0.666823 0.624118
O O9 0.836480 0.745473 0.602762
O O10 0.000000 0.719688 0.608226
O O11 0.905084 0.547676 0.500000
O O12 0.880337 0.500000 0.640623
O O13 0.843689 0.585321 0.638417
O O14 0.000000 0.555297 0.640588
O O15 0.500000 0.592570 0.890834
O O16 0.631629 0.545850 0.865097
O O17 0.623979 0.601205 0.000000
O O18 0.784232 0.628972 0.500000
O O19 0.758765 0.799287 0.500000
O O20 0.500000 0.500000 0.145664
O O21 0.408669 0.500000 0.000000
#
# Coordination Sequence:
#
# PCOD9519777 Si02
#       8
#    16  16  16  16  16  16  16   8
#     4  11  20  34  47  74 104 131 164 210 251 296
#     4  10  20  35  51  66  94 135 172 207 247 291
#     4  10  19  33  52  74  99 125 162 210 256 299
#     4   8  15  29  48  70  95 123 158 199 245 298
#     4   9  17  31  53  78 102 129 162 203 254 304
#     4  11  20  31  49  71 101 135 165 201 247 293
#     4  11  21  35  51  70 100 133 166 209 257 299
#     4   7  12  26  48  74 101 125 154 197 247 303
#
# _framework density 16.214044999999999
#
# number of rings (size 3 to 8) (size 9 to 14) (size 15 to 20)
#    0.000    2.200    2.667    3.600    0.000    2.400 
#    1.200    0.000    0.000    1.200    0.000    0.000 
#    0.000    1.600    0.000    3.200    0.000    0.533 
#
# Total GULP energy -334183.507525 kJ/mol
# GULP energy per Si atom -5569.725125 kJ/mol
# Density = 1.617714 g / cm^3
# Si number density = 16.214045 Si / 1000 Ang^3
#
#
#
# Elastic Constant Matrix: (Units=GPa)
#
#
# Indices 1 2 3 4 5 6 
#
# 1 89.6382 30.5465 31.1184 0.0000 0.0000 0.0000
# 2 30.5465 101.2031 29.0445 -0.0001 0.0000 0.0000
# 3 31.1184 29.0445 56.8300 -0.0003 0.0000 0.0000
# 4 0.0000 -0.0001 -0.0003 22.9324 0.0000 0.0000
# 5 0.0000 0.0000 0.0000 0.0000 3.2980 0.0000
# 6 0.0000 0.0000 0.0000 0.0000 0.0000 19.6672
#
#
#
# Elastic Compliance Matrix: (Units=1/GPa)
#
#
# Indices 1 2 3 4 5 6 
#
# 1 0.014262 -0.002418 -0.006574 0.000000 0.000000 0.000000
# 2 -0.002418 0.011990 -0.004803 0.000000 0.000000 0.000000
# 3 -0.006574 -0.004803 0.023651 0.000000 0.000000 0.000000
# 4 0.000000 0.000000 0.000000 0.043606 0.000000 0.000000
# 5 0.000000 0.000000 0.000000 0.000000 0.303210 0.000000
# 6 0.000000 0.000000 0.000000 0.000000 0.000000 0.050846
#
#
# Mechanical properties :
#
#
# Convention : Reuss Voigt Hill
#
# Bulk Modulus (GPa) = 44.81909 47.67665 46.24787
# Shear Modulus (GPa) = 10.36071 19.64365 15.00218
#
# Velocity S-wave (km/s) = 2.53058 3.48447 3.04511
# Velocity P-wave (km/s) = 6.02002 6.75700 6.39913
#
# Compressibility (1/GPa) = 0.02231192
#
# Stress axis : x y z
#
# Youngs Moduli (GPa) = 70.11595 83.40586 42.28193
#
# Poissons Ratio (x) = 0.20169 0.27794
# Poissons Ratio (y) = 0.16955 0.20310
# Poissons Ratio (z) = 0.46091 0.40064
#
# Static dielectric constant tensor:
#      x y z
#    x 1.548630 0.000000 0.000000 
#    y 0.000000 1.560900 0.000000 
#    z 0.000000 0.000000 1.543500 
# 
# From -- ./inp_files/35426.got.cif
#   From: 2010.05.17/outbox.cif.g08.bks.cpg/sg71_18_cif.got.tgz:35426.got - 2010.06.03 16:22:01.
