data_PCOD9519115
_publ_section_title
;
Structure prediction by ZEFSAII (Michael W. Deem and Ramdas Pophale) SiO2 
 PCOD9519115
Probable space group: I M M M
;
_chemical_formula_sum "Si O2"
_cell_formula_units_Z 80
_cell_length_a 7.271834
_cell_length_b 21.633488
_cell_length_c 19.972667
_cell_angle_alpha 90.000000
_cell_angle_beta 90.000000
_cell_angle_gamma 90.000000
_cell_volume 3142.002777
_symmetry_space_group_name_H-M "I M M M"
_symmetry_group_IT_number 71
_symmetry_cell_setting 'orthorhombic'
loop_
_space_group_symop_operation_xyz
x,y,z
-x,-y,z
x,-y,-z
-x,y,-z
-x,-y,-z
x,y,-z
-x,y,z
x,-y,z
1/2+x,1/2+y,1/2+z
1/2-x,1/2-y,1/2+z
1/2+x,1/2-y,1/2-z
1/2-x,1/2+y,1/2-z
1/2-x,1/2-y,1/2-z
1/2+x,1/2+y,1/2-z
1/2-x,1/2+y,1/2+z
1/2+x,1/2-y,1/2+z
loop_
_atom_site_type_symbol
_atom_site_label
_atom_site_fract_x
_atom_site_fract_y
_atom_site_fract_z
Si Si1 0.778308 0.239901 0.425845
Si Si2 0.778104 0.070716 0.076116
Si Si3 0.784808 0.593653 0.072347
Si Si4 0.225150 0.567313 0.219131
Si Si5 0.295679 0.170117 0.815668
O O1 0.716451 0.263087 0.500000
O O2 0.730925 0.167888 0.423585
O O3 0.709326 0.274621 0.359171
O O4 0.000000 0.246243 0.424882
O O5 0.692775 0.117283 0.127730
O O6 0.000000 0.074930 0.081284
O O7 0.726047 0.000000 0.088949
O O8 0.727242 0.085541 0.000000
O O9 0.713343 0.568684 0.142224
O O10 0.000000 0.577200 0.071229
O O11 0.707128 0.575040 0.000000
O O12 0.278304 0.500000 0.248477
O O13 0.289630 0.629947 0.255740
O O14 0.000000 0.569723 0.221531
O O15 0.500000 0.190609 0.793836
#
# Coordination Sequence:
#
# PCOD9519115 Si02
#       5
#    16  16  16  16  16
#     4   9  18  32  49  71 100 130 160 199 245 289
#     4   9  18  31  45  64  94 131 168 206 246 284
#     4   9  18  33  53  75  97 125 164 205 247 300
#     4   9  18  32  50  74 102 128 159 206 255 291
#     4  10  19  31  49  72  98 130 166 200 239 291
#
# _framework density 25.461466000000001
#
# number of rings (size 3 to 8) (size 9 to 14) (size 15 to 20)
#    0.000    2.800    0.000    1.800    0.000    4.400 
#    0.000    6.000    0.000    1.800    0.000    2.800 
#    0.000    0.000    0.000    0.000    0.000    0.000 
#
# Total GULP energy -223435.127451 kJ/mol
# GULP energy per Si atom -5585.878186 kJ/mol
# Density = 2.540351 g / cm^3
# Si number density = 25.461466 Si / 1000 Ang^3
#
#
#
# Elastic Constant Matrix: (Units=GPa)
#
#
# Indices 1 2 3 4 5 6 
#
# 1 115.6121 -6.9777 3.0428 0.0000 0.0000 0.0000
# 2 -6.9777 107.2551 43.9769 0.0000 0.0000 0.0000
# 3 3.0428 43.9769 150.7966 0.0000 0.0000 0.0000
# 4 0.0000 0.0000 0.0000 39.7992 0.0000 0.0000
# 5 0.0000 0.0000 0.0000 0.0000 173.7922 0.0000
# 6 0.0000 0.0000 0.0000 0.0000 0.0000 -6.0395
#
#
#
# Elastic Compliance Matrix: (Units=1/GPa)
#
#
# Indices 1 2 3 4 5 6 
#
# 1 0.008704 0.000725 -0.000387 0.000000 0.000000 0.000000
# 2 0.000725 0.010650 -0.003121 0.000000 0.000000 0.000000
# 3 -0.000387 -0.003121 0.007549 0.000000 0.000000 0.000000
# 4 0.000000 0.000000 0.000000 0.025126 0.000000 0.000000
# 5 0.000000 0.000000 0.000000 0.000000 0.005754 0.000000
# 6 0.000000 0.000000 0.000000 0.000000 0.000000 -0.165576
#
#
# Mechanical properties :
#
#
# Convention : Reuss Voigt Hill
#
# Bulk Modulus (GPa) = 46.86530 50.41642 48.64086
# Shear Modulus (GPa) = -52.56781 63.75185 5.59202
#
# Velocity S-wave (km/s) = -4.54872 5.00928 1.48359
# Velocity P-wave (km/s) = 3.02349 7.30077 4.69893
#
# Compressibility (1/GPa) = 0.02133775
#
# Stress axis : x y z
#
# Youngs Moduli (GPa) = 114.89558 93.89478 132.46249
#
# Poissons Ratio (x) = -0.06807 0.05127
# Poissons Ratio (y) = -0.08329 0.41336
# Poissons Ratio (z) = 0.04447 0.29300
#
# Static dielectric constant tensor:
#      x y z
#    x 1.964580 0.000000 0.000000 
#    y 0.000000 1.969920 0.000000 
#    z 0.000000 0.000000 2.019800 
# 
# From -- ./inp_files/27102.got.cif
#   From: 2010.05.17/outbox.cif.g08.bks.cpg/sg71_14_cif.got.tgz:27102.got - 2010.06.03 16:22:01.
