data_PCOD9519815
_publ_section_title
;
Structure prediction by ZEFSAII (Michael W. Deem and Ramdas Pophale) SiO2 
 PCOD9519815
Probable space group: I M M M
;
_chemical_formula_sum "Si O2"
_cell_formula_units_Z 120
_cell_length_a 28.252936
_cell_length_b 9.278818
_cell_length_c 27.881402
_cell_angle_alpha 90.000000
_cell_angle_beta 90.000000
_cell_angle_gamma 90.000000
_cell_volume 7309.216909
_symmetry_space_group_name_H-M "I M M M"
_symmetry_group_IT_number 71
_symmetry_cell_setting 'orthorhombic'
loop_
_space_group_symop_operation_xyz
x,y,z
-x,-y,z
x,-y,-z
-x,y,-z
-x,-y,-z
x,y,-z
-x,y,z
x,-y,z
1/2+x,1/2+y,1/2+z
1/2-x,1/2-y,1/2+z
1/2+x,1/2-y,1/2-z
1/2-x,1/2+y,1/2-z
1/2-x,1/2-y,1/2-z
1/2+x,1/2+y,1/2-z
1/2-x,1/2+y,1/2+z
1/2+x,1/2-y,1/2+z
loop_
_atom_site_type_symbol
_atom_site_label
_atom_site_fract_x
_atom_site_fract_y
_atom_site_fract_z
Si Si1 0.723814 0.667156 0.555802
Si Si2 0.793480 0.833039 0.300965
Si Si3 0.092110 0.337169 0.442435
Si Si4 0.556234 0.827402 0.555719
Si Si5 0.817508 0.672073 0.792012
Si Si6 0.816064 0.833070 0.410996
Si Si7 0.500000 0.665126 0.941427
Si Si8 0.132128 0.828378 0.122092
O O1 0.711908 0.686639 0.500000
O O2 0.738621 0.500000 0.562737
O O3 0.766933 0.769084 0.569945
O O4 0.677907 0.692822 0.587967
O O5 0.818741 0.733106 0.261998
O O6 0.737554 0.796124 0.306056
O O7 0.815339 0.823131 0.353438
O O8 0.795444 0.000000 0.284404
O O9 0.088247 0.344195 0.500000
O O10 0.091721 0.500000 0.423740
O O11 0.140448 0.257720 0.430509
O O12 0.046919 0.247505 0.425127
O O13 0.567856 0.788901 0.500000
O O14 0.500000 0.800581 0.562353
O O15 0.588238 0.743002 0.593892
O O16 0.563790 0.000000 0.560598
O O17 0.824271 0.500000 0.794060
O O18 0.853165 0.751599 0.828147
O O19 0.820495 0.000000 0.424938
O O20 0.500000 0.500000 0.925866
O O21 0.500000 0.665229 0.000000
O O22 0.125030 0.000000 0.128613
#
# Coordination Sequence:
#
# PCOD9519815 Si02
#       8
#    16  16  16  16  16  16   8  16
#     4  10  21  34  46  66 101 141 175 206 244 295
#     4   9  19  34  50  72 102 132 168 213 257 301
#     4  10  20  33  49  71 101 135 169 206 248 296
#     4   9  19  36  56  78 106 140 178 221 267 315
#     4  10  19  33  53  75 100 131 171 212 255 303
#     4  11  21  33  49  72 101 133 170 209 251 300
#     4   9  17  31  51  73  95 123 165 211 249 285
#     4  11  21  33  52  77 106 138 174 215 261 312
#
# _framework density 16.417628000000001
#
# number of rings (size 3 to 8) (size 9 to 14) (size 15 to 20)
#    0.000    2.067    1.333    3.000    0.000    6.667 
#    0.000    0.667    0.000    0.000    1.733    0.000 
#    0.000    0.000    0.000    0.000    0.000    0.000 
#
# Total GULP energy -334736.296910 kJ/mol
# GULP energy per Si atom -5578.938282 kJ/mol
# Density = 1.638026 g / cm^3
# Si number density = 16.417628 Si / 1000 Ang^3
#
#
#
# Elastic Constant Matrix: (Units=GPa)
#
#
# Indices 1 2 3 4 5 6 
#
# 1 61.4440 42.6214 10.3299 0.0000 0.0000 0.0000
# 2 42.6214 88.4885 23.2801 0.0000 0.0000 0.0000
# 3 10.3299 23.2801 37.7043 0.0000 0.0000 0.0000
# 4 0.0000 0.0000 0.0000 26.3458 0.0000 0.0000
# 5 0.0000 0.0000 0.0000 0.0000 10.9837 0.0000
# 6 0.0000 0.0000 0.0000 0.0000 0.0000 22.8055
#
#
#
# Elastic Compliance Matrix: (Units=1/GPa)
#
#
# Indices 1 2 3 4 5 6 
#
# 1 0.024456 -0.011959 0.000684 0.000000 0.000000 0.000000
# 2 -0.011959 0.019341 -0.008665 0.000000 0.000000 0.000000
# 3 0.000684 -0.008665 0.031685 0.000000 0.000000 0.000000
# 4 0.000000 0.000000 0.000000 0.037957 0.000000 0.000000
# 5 0.000000 0.000000 0.000000 0.000000 0.091044 0.000000
# 6 0.000000 0.000000 0.000000 0.000000 0.000000 0.043849
#
#
# Mechanical properties :
#
#
# Convention : Reuss Voigt Hill
#
# Bulk Modulus (GPa) = 28.08957 37.78887 32.93922
# Shear Modulus (GPa) = 16.66225 19.45403 18.05814
#
# Velocity S-wave (km/s) = 3.18921 3.44604 3.32011
# Velocity P-wave (km/s) = 5.54147 6.23705 5.89952
#
# Compressibility (1/GPa) = 0.03560041
#
# Stress axis : x y z
#
# Youngs Moduli (GPa) = 40.89025 51.70373 31.56058
#
# Poissons Ratio (x) = 0.61834 -0.02159
# Poissons Ratio (y) = 0.48902 0.27348
# Poissons Ratio (z) = -0.02797 0.44803
#
# Static dielectric constant tensor:
#      x y z
#    x 1.524030 0.000000 0.000000 
#    y 0.000000 1.558900 0.000000 
#    z 0.000000 0.000000 1.544610 
# 
# From -- ./inp_files/67153.got.cif
#   From: 2010.05.17/outbox.cif.g08.bks.cpg/sg71_34_cif.got.tgz:67153.got - 2010.06.03 16:22:01.
