data_PCOD9519912
_publ_section_title
;
Structure prediction by ZEFSAII (Michael W. Deem and Ramdas Pophale) SiO2 
 PCOD9519912
Probable space group: I M M M
;
_chemical_formula_sum "Si O2"
_cell_formula_units_Z 104
_cell_length_a 25.679353
_cell_length_b 8.228149
_cell_length_c 22.164366
_cell_angle_alpha 90.000000
_cell_angle_beta 90.000000
_cell_angle_gamma 90.000000
_cell_volume 4683.187414
_symmetry_space_group_name_H-M "I M M M"
_symmetry_group_IT_number 71
_symmetry_cell_setting 'orthorhombic'
loop_
_space_group_symop_operation_xyz
x,y,z
-x,-y,z
x,-y,-z
-x,y,-z
-x,-y,-z
x,y,-z
-x,y,z
x,-y,z
1/2+x,1/2+y,1/2+z
1/2-x,1/2-y,1/2+z
1/2+x,1/2-y,1/2-z
1/2-x,1/2+y,1/2-z
1/2-x,1/2-y,1/2-z
1/2+x,1/2+y,1/2-z
1/2-x,1/2+y,1/2+z
1/2+x,1/2-y,1/2+z
loop_
_atom_site_type_symbol
_atom_site_label
_atom_site_fract_x
_atom_site_fract_y
_atom_site_fract_z
Si Si1 0.290324 0.804996 0.376023
Si Si2 0.411450 0.302251 0.236130
Si Si3 0.867140 0.193873 0.500000
Si Si4 0.796619 0.193430 0.707536
Si Si5 0.943097 0.694270 0.605189
Si Si6 0.597317 0.689535 0.632698
Si Si7 0.248776 0.302252 0.000000
Si Si8 0.939955 0.306052 0.000000
O O1 0.231335 0.767368 0.354982
O O2 0.341134 0.714803 0.352231
O O3 0.286444 0.756865 0.444426
O O4 0.297986 0.000000 0.367243
O O5 0.411739 0.500000 0.238102
O O6 0.352654 0.238179 0.222334
O O7 0.439796 0.251875 0.174682
O O8 0.428249 0.247479 0.303841
O O9 0.898456 0.243181 0.439653
O O10 0.807899 0.259139 0.500000
O O11 0.864044 0.000000 0.500000
O O12 0.750000 0.250000 0.750000
O O13 0.801575 0.000000 0.711756
O O14 0.940236 0.500000 0.605013
O O15 0.000000 0.744702 0.581300
O O16 0.585107 0.500000 0.628523
O O17 0.584351 0.758950 0.565975
O O18 0.252492 0.500000 0.000000
O O19 0.939608 0.500000 0.000000
O O20 0.000000 0.245974 0.000000
#
# Coordination Sequence:
#
# PCOD9519912 Si02
#       8
#    16  16   8  16  16  16   8   8
#     4  10  19  33  57  86 121 163 200 236 290 356
#     4  10  22  40  62  92 128 163 205 253 303 361
#     4  11  22  41  68  92 122 163 208 255 308 370
#     4  10  19  33  54  83 120 160 199 237 284 348
#     4  11  25  43  63  90 124 160 205 261 313 365
#     4  11  23  40  64  93 125 157 198 255 307 360
#     4   9  19  35  56  84 118 155 196 245 292 346
#     4  11  26  47  68  88 114 153 202 253 310 380
#
# _framework density 22.207096
#
# number of rings (size 3 to 8) (size 9 to 14) (size 15 to 20)
#    0.000    1.615    1.538    3.000    0.000    8.308 
#    0.000    6.154    0.000    0.000    0.000    0.000 
#    0.000    0.000    0.000    0.000    0.000    0.000 
#
# Total GULP energy -289738.410768 kJ/mol
# GULP energy per Si atom -5571.892515 kJ/mol
# Density = 2.215655 g / cm^3
# Si number density = 22.207096 Si / 1000 Ang^3
#
#
#
# Elastic Constant Matrix: (Units=GPa)
#
#
# Indices 1 2 3 4 5 6 
#
# 1 75.9330 -2.4563 11.5974 0.0000 0.0000 0.0000
# 2 -2.4563 12.4815 17.8545 0.0000 0.0000 0.0000
# 3 11.5974 17.8545 121.5370 0.0000 0.0000 0.0000
# 4 0.0000 0.0000 0.0000 19.3685 0.0000 0.0000
# 5 0.0000 0.0000 0.0000 0.0000 15.8267 0.0000
# 6 0.0000 0.0000 0.0000 0.0000 0.0000 16.6294
#
#
#
# Elastic Compliance Matrix: (Units=1/GPa)
#
#
# Indices 1 2 3 4 5 6 
#
# 1 0.013685 0.005775 -0.002154 0.000000 0.000000 0.000000
# 2 0.005775 0.103871 -0.015810 0.000000 0.000000 0.000000
# 3 -0.002154 -0.015810 0.010756 0.000000 0.000000 0.000000
# 4 0.000000 0.000000 0.000000 0.051630 0.000000 0.000000
# 5 0.000000 0.000000 0.000000 0.000000 0.063184 0.000000
# 6 0.000000 0.000000 0.000000 0.000000 0.000000 0.060134
#
#
# Mechanical properties :
#
#
# Convention : Reuss Voigt Hill
#
# Bulk Modulus (GPa) = 9.62160 29.32698 19.47429
# Shear Modulus (GPa) = 13.80128 22.56199 18.18163
#
# Velocity S-wave (km/s) = 2.49566 3.19090 2.86445
# Velocity P-wave (km/s) = 3.55619 5.17790 4.44168
#
# Compressibility (1/GPa) = 0.10393286
#
# Stress axis : x y z
#
# Youngs Moduli (GPa) = 73.07098 9.62733 92.97020
#
# Poissons Ratio (x) = -0.05560 0.20028
# Poissons Ratio (y) = -0.42197 1.46989
# Poissons Ratio (z) = 0.15741 0.15221
#
# Static dielectric constant tensor:
#      x y z
#    x 1.362720 0.000000 0.000000 
#    y 0.000000 3.425040 0.000000 
#    z 0.000000 0.000000 3.130180 
# 
# From -- ./inp_files/56337.got.cif
#   From: 2010.05.17/outbox.cif.g08.bks.cpg/sg71_29_cif.got.tgz:56337.got - 2010.06.03 16:22:01.
