data_PCOD9519608
_publ_section_title
;
Structure prediction by ZEFSAII (Michael W. Deem and Ramdas Pophale) SiO2 
 PCOD9519608
Probable space group: I M M M
;
_chemical_formula_sum "Si O2"
_cell_formula_units_Z 88
_cell_length_a 22.147259
_cell_length_b 8.855018
_cell_length_c 24.227683
_cell_angle_alpha 90.000000
_cell_angle_beta 90.000000
_cell_angle_gamma 90.000000
_cell_volume 4751.396960
_symmetry_space_group_name_H-M "I M M M"
_symmetry_group_IT_number 71
_symmetry_cell_setting 'orthorhombic'
loop_
_space_group_symop_operation_xyz
x,y,z
-x,-y,z
x,-y,-z
-x,y,-z
-x,-y,-z
x,y,-z
-x,y,z
x,-y,z
1/2+x,1/2+y,1/2+z
1/2-x,1/2-y,1/2+z
1/2+x,1/2-y,1/2-z
1/2-x,1/2+y,1/2-z
1/2-x,1/2-y,1/2-z
1/2+x,1/2+y,1/2-z
1/2-x,1/2+y,1/2+z
1/2+x,1/2-y,1/2+z
loop_
_atom_site_type_symbol
_atom_site_label
_atom_site_fract_x
_atom_site_fract_y
_atom_site_fract_z
Si Si1 0.843269 0.325412 0.850799
Si Si2 0.067865 0.174101 0.770315
Si Si3 0.894213 0.823099 0.646904
Si Si4 0.430054 0.324177 0.434529
Si Si5 0.270712 0.822015 0.190973
Si Si6 0.000000 0.184327 0.564749
O O1 0.826159 0.500000 0.850100
O O2 0.884231 0.283826 0.797810
O O3 0.885256 0.282235 0.901925
O O4 0.784497 0.221826 0.848742
O O5 0.069517 0.184792 0.704490
O O6 0.000000 0.203589 0.790043
O O7 0.083840 0.000000 0.784268
O O8 0.831749 0.741067 0.662930
O O9 0.939296 0.767976 0.598363
O O10 0.880510 0.000000 0.636012
O O11 0.421696 0.312753 0.500000
O O12 0.500000 0.288435 0.422655
O O13 0.420249 0.500000 0.418811
O O14 0.250000 0.750000 0.250000
O O15 0.276214 0.000000 0.199141
O O16 0.000000 0.228172 0.500000
O O17 0.000000 0.000000 0.566990
#
# Coordination Sequence:
#
# PCOD9519608 Si02
#       6
#    16  16  16  16  16   8
#     4  12  24  36  54  84 119 156 196 241 289 345
#     4  10  19  32  53  81 115 155 194 237 291 352
#     4  10  19  35  59  87 117 153 194 239 294 356
#     4   9  19  38  62  85 113 153 196 237 286 342
#     4  12  24  39  58  83 116 156 196 243 300 362
#     4   9  18  36  65  97 125 157 200 247 296 351
#
# _framework density 18.520869000000001
#
# number of rings (size 3 to 8) (size 9 to 14) (size 15 to 20)
#    0.000    1.545    2.727    4.364    0.000    3.273 
#    0.000    2.273    0.000    4.364    0.000    0.000 
#    0.000    0.000    0.000    0.000    0.000    0.000 
#
# Total GULP energy -245575.716922 kJ/mol
# GULP energy per Si atom -5581.266294 kJ/mol
# Density = 1.847871 g / cm^3
# Si number density = 18.520869 Si / 1000 Ang^3
#
#
#
# Elastic Constant Matrix: (Units=GPa)
#
#
# Indices 1 2 3 4 5 6 
#
# 1 115.2253 50.7826 46.9676 0.0000 0.0000 0.0000
# 2 50.7826 74.6847 26.1067 0.0000 0.0000 0.0000
# 3 46.9676 26.1067 108.8352 0.0000 0.0000 0.0000
# 4 0.0000 0.0000 0.0000 14.2029 0.0000 0.0000
# 5 0.0000 0.0000 0.0000 0.0000 670.8459 0.0000
# 6 0.0000 0.0000 0.0000 0.0000 0.0000 28.7355
#
#
#
# Elastic Compliance Matrix: (Units=1/GPa)
#
#
# Indices 1 2 3 4 5 6 
#
# 1 0.013863 -0.008006 -0.004062 0.000000 0.000000 0.000000
# 2 -0.008006 0.019239 -0.001160 0.000000 0.000000 0.000000
# 3 -0.004062 -0.001160 0.011219 0.000000 0.000000 0.000000
# 4 0.000000 0.000000 0.000000 0.070408 0.000000 0.000000
# 5 0.000000 0.000000 0.000000 0.000000 0.001491 0.000000
# 6 0.000000 0.000000 0.000000 0.000000 0.000000 0.034800
#
#
# Mechanical properties :
#
#
# Convention : Reuss Voigt Hill
#
# Bulk Modulus (GPa) = 55.97536 60.71768 58.34652
# Shear Modulus (GPa) = 27.25807 154.41608 90.83707
#
# Velocity S-wave (km/s) = 3.84050 9.14085 7.01087
# Velocity P-wave (km/s) = 7.06784 12.01088 9.85433
#
# Compressibility (1/GPa) = 0.01786500
#
# Stress axis : x y z
#
# Youngs Moduli (GPa) = 72.13454 51.97762 89.13154
#
# Poissons Ratio (x) = 0.41615 0.36205
# Poissons Ratio (y) = 0.57753 0.10338
# Poissons Ratio (z) = 0.29301 0.06028
#
# Static dielectric constant tensor:
#      x y z
#    x 1.658610 0.000000 0.000000 
#    y 0.000000 1.636370 0.000000 
#    z 0.000000 0.000000 1.656160 
# 
# From -- ./inp_files/10411.got.cif
#   From: 2010.05.17/outbox.cif.g08.bks.cpg/sg71_6_cif.got.tgz:10411.got - 2010.06.03 16:22:01.
