data_PCOD9519872
_publ_section_title
;
Structure prediction by ZEFSAII (Michael W. Deem and Ramdas Pophale) SiO2 
 PCOD9519872
Probable space group: I M M M
;
_chemical_formula_sum "Si O2"
_cell_formula_units_Z 104
_cell_length_a 10.865521
_cell_length_b 22.880694
_cell_length_c 23.675615
_cell_angle_alpha 90.000000
_cell_angle_beta 90.000000
_cell_angle_gamma 90.000000
_cell_volume 5886.010298
_symmetry_space_group_name_H-M "I M M M"
_symmetry_group_IT_number 71
_symmetry_cell_setting 'orthorhombic'
loop_
_space_group_symop_operation_xyz
x,y,z
-x,-y,z
x,-y,-z
-x,y,-z
-x,-y,-z
x,y,-z
-x,y,z
x,-y,z
1/2+x,1/2+y,1/2+z
1/2-x,1/2-y,1/2+z
1/2+x,1/2-y,1/2-z
1/2-x,1/2+y,1/2-z
1/2-x,1/2-y,1/2-z
1/2+x,1/2+y,1/2-z
1/2-x,1/2+y,1/2+z
1/2+x,1/2-y,1/2+z
loop_
_atom_site_type_symbol
_atom_site_label
_atom_site_fract_x
_atom_site_fract_y
_atom_site_fract_z
Si Si1 0.634749 0.930185 0.330388
Si Si2 0.860449 0.872582 0.871416
Si Si3 0.365313 0.929875 0.065691
Si Si4 0.255496 0.129046 0.433651
Si Si5 0.000000 0.066804 0.568287
Si Si6 0.138510 0.930315 0.749927
Si Si7 0.143014 0.754200 0.935245
O O1 0.500000 0.915175 0.306233
O O2 0.650517 0.901243 0.391265
O O3 0.750198 0.913823 0.291240
O O4 0.640593 0.000000 0.336902
O O5 0.751685 0.906731 0.901776
O O6 0.855193 0.890926 0.806027
O O7 0.841753 0.805251 0.889596
O O8 0.000000 0.887894 0.891002
O O9 0.500000 0.910034 0.087435
O O10 0.364673 0.000000 0.068036
O O11 0.357317 0.912752 0.000000
O O12 0.278215 0.116430 0.500000
O O13 0.269794 0.198611 0.426683
O O14 0.122920 0.102301 0.417651
O O15 0.000000 0.062361 0.500000
O O16 0.000000 0.000000 0.590886
O O17 0.000000 0.923714 0.725476
O O18 0.151701 0.000000 0.764240
O O19 0.000000 0.734324 0.932404
O O20 0.161670 0.776413 0.000000
#
# Coordination Sequence:
#
# PCOD9519872 Si02
#       7
#    16  16  16  16   8  16  16
#     4  10  21  35  54  81 109 138 175 219 268 325
#     4  10  19  33  54  78 102 137 190 235 269 319
#     4   9  18  31  46  70 105 140 173 219 284 342
#     4  10  20  35  55  80 111 143 175 213 263 326
#     4   9  18  32  52  80 110 140 173 211 258 314
#     4   9  19  35  54  76 105 141 179 227 283 327
#     4   9  18  33  53  77 108 145 180 222 275 320
#
# _framework density 17.669014000000001
#
# number of rings (size 3 to 8) (size 9 to 14) (size 15 to 20)
#    0.000    2.538    0.000    2.308    1.077    4.308 
#    1.385    3.846    0.000    0.000    0.000    0.000 
#    0.000    0.000    0.000    0.000    0.000    0.000 
#
# Total GULP energy -289716.776853 kJ/mol
# GULP energy per Si atom -5571.476478 kJ/mol
# Density = 1.762880 g / cm^3
# Si number density = 17.669014 Si / 1000 Ang^3
#
#
#
# Elastic Constant Matrix: (Units=GPa)
#
#
# Indices 1 2 3 4 5 6 
#
# 1 140.3229 53.3965 65.3873 0.0000 0.0000 0.0000
# 2 53.3965 55.9991 39.0313 0.0000 0.0000 0.0000
# 3 65.3873 39.0313 68.1748 0.0000 0.0000 0.0000
# 4 0.0000 0.0000 0.0000 25.5155 0.0000 0.0000
# 5 0.0000 0.0000 0.0000 0.0000 19.0244 0.0000
# 6 0.0000 0.0000 0.0000 0.0000 0.0000 25.2090
#
#
#
# Elastic Compliance Matrix: (Units=1/GPa)
#
#
# Indices 1 2 3 4 5 6 
#
# 1 0.014278 -0.006772 -0.009817 0.000000 0.000000 0.000000
# 2 -0.006772 0.032927 -0.012356 0.000000 0.000000 0.000000
# 3 -0.009817 -0.012356 0.031158 0.000000 0.000000 0.000000
# 4 0.000000 0.000000 0.000000 0.039192 0.000000 0.000000
# 5 0.000000 0.000000 0.000000 0.000000 0.052564 0.000000
# 6 0.000000 0.000000 0.000000 0.000000 0.000000 0.039668
#
#
# Mechanical properties :
#
#
# Convention : Reuss Voigt Hill
#
# Bulk Modulus (GPa) = 48.84628 64.45857 56.65243
# Shear Modulus (GPa) = 18.21486 21.06190 19.63838
#
# Velocity S-wave (km/s) = 3.21424 3.45632 3.33747
# Velocity P-wave (km/s) = 6.44052 7.24489 6.85452
#
# Compressibility (1/GPa) = 0.02047239
#
# Stress axis : x y z
#
# Youngs Moduli (GPa) = 70.03905 30.37047 32.09443
#
# Poissons Ratio (x) = 0.20566 0.31507
# Poissons Ratio (y) = 0.47428 0.39657
# Poissons Ratio (z) = 0.68758 0.37527
#
# Static dielectric constant tensor:
#      x y z
#    x 1.631700 0.000000 0.000000 
#    y 0.000000 1.586650 0.000000 
#    z 0.000000 0.000000 1.603620 
# 
# From -- ./inp_files/63568.got.cif
#   From: 2010.05.17/outbox.cif.g08.bks.cpg/sg71_32_cif.got.tgz:63568.got - 2010.06.03 16:22:01.
