data_PCOD9519768
_publ_section_title
;
Structure prediction by ZEFSAII (Michael W. Deem and Ramdas Pophale) SiO2 
 PCOD9519768
Probable space group: I M M M
;
_chemical_formula_sum "Si O2"
_cell_formula_units_Z 96
_cell_length_a 30.861550
_cell_length_b 7.521689
_cell_length_c 19.457260
_cell_angle_alpha 90.000000
_cell_angle_beta 90.000000
_cell_angle_gamma 90.000000
_cell_volume 4516.632854
_symmetry_space_group_name_H-M "I M M M"
_symmetry_group_IT_number 71
_symmetry_cell_setting 'orthorhombic'
loop_
_space_group_symop_operation_xyz
x,y,z
-x,-y,z
x,-y,-z
-x,y,-z
-x,-y,-z
x,y,-z
-x,y,z
x,-y,z
1/2+x,1/2+y,1/2+z
1/2-x,1/2-y,1/2+z
1/2+x,1/2-y,1/2-z
1/2-x,1/2+y,1/2-z
1/2-x,1/2-y,1/2-z
1/2+x,1/2+y,1/2-z
1/2-x,1/2+y,1/2+z
1/2+x,1/2-y,1/2+z
loop_
_atom_site_type_symbol
_atom_site_label
_atom_site_fract_x
_atom_site_fract_y
_atom_site_fract_z
Si Si1 0.878239 0.203487 0.679937
Si Si2 0.196934 0.782525 0.421510
Si Si3 0.550293 0.785331 0.075478
Si Si4 0.370287 0.796847 0.332470
Si Si5 0.227165 0.286560 0.823520
Si Si6 0.951434 0.283268 0.080396
O O1 0.841537 0.277218 0.628863
O O2 0.921918 0.209499 0.636613
O O3 0.882254 0.298956 0.752144
O O4 0.866427 0.000000 0.695958
O O5 0.192549 0.722602 0.500000
O O6 0.241295 0.727411 0.384629
O O7 0.195603 0.000000 0.422653
O O8 0.500000 0.736147 0.079955
O O9 0.552687 0.000000 0.078186
O O10 0.566909 0.729124 0.000000
O O11 0.321749 0.716953 0.332993
O O12 0.410490 0.718299 0.375213
O O13 0.365929 0.000000 0.357832
O O14 0.224478 0.500000 0.826528
O O15 0.250000 0.250000 0.750000
O O16 0.951874 0.500000 0.084734
O O17 0.000000 0.224895 0.102328
O O18 0.946112 0.237488 0.000000
#
# Coordination Sequence:
#
# PCOD9519768 Si02
#       6
#    16  16  16  16  16  16
#     4  11  21  33  51  75 106 142 176 215 258 312
#     4   9  18  32  50  73 100 133 172 215 265 312
#     4   9  19  36  55  74 100 135 173 216 265 311
#     4  10  20  32  52  80 105 136 178 219 264 321
#     4  10  19  33  52  73 102 137 173 217 264 314
#     4   8  15  30  52  78 107 135 167 215 272 322
#
# _framework density 21.254773
#
# number of rings (size 3 to 8) (size 9 to 14) (size 15 to 20)
#    0.000    2.500    1.667    2.000    0.000    2.667 
#    0.000    5.833    0.000    2.000    0.000    3.500 
#    0.000    0.000    0.000    0.000    0.000    0.000 
#
# Total GULP energy -267884.192055 kJ/mol
# GULP energy per Si atom -5580.920668 kJ/mol
# Density = 2.120640 g / cm^3
# Si number density = 21.254773 Si / 1000 Ang^3
#
#
#
# Elastic Constant Matrix: (Units=GPa)
#
#
# Indices 1 2 3 4 5 6 
#
# 1 163.3984 6.7488 83.0828 0.0000 0.0000 0.0000
# 2 6.7488 54.7774 0.7266 0.0000 0.0000 0.0000
# 3 83.0828 0.7266 113.4928 0.0000 0.0000 0.0000
# 4 0.0000 0.0000 0.0000 2.7252 0.0000 0.0000
# 5 0.0000 0.0000 0.0000 0.0000 46.0621 0.0000
# 6 0.0000 0.0000 0.0000 0.0000 0.0000 4.9760
#
#
#
# Elastic Compliance Matrix: (Units=1/GPa)
#
#
# Indices 1 2 3 4 5 6 
#
# 1 0.009816 -0.001114 -0.007179 0.000000 0.000000 0.000000
# 2 -0.001114 0.018384 0.000698 0.000000 0.000000 0.000000
# 3 -0.007179 0.000698 0.014062 0.000000 0.000000 0.000000
# 4 0.000000 0.000000 0.000000 0.366949 0.000000 0.000000
# 5 0.000000 0.000000 0.000000 0.000000 0.021710 0.000000
# 6 0.000000 0.000000 0.000000 0.000000 0.000000 0.200964
#
#
# Mechanical properties :
#
#
# Convention : Reuss Voigt Hill
#
# Bulk Modulus (GPa) = 36.93891 56.97611 46.95751
# Shear Modulus (GPa) = 7.62080 26.82668 17.22374
#
# Velocity S-wave (km/s) = 1.89558 3.55653 2.84975
# Velocity P-wave (km/s) = 4.71252 6.61284 5.74184
#
# Compressibility (1/GPa) = 0.02707172
#
# Stress axis : x y z
#
# Youngs Moduli (GPa) = 101.87173 54.39594 71.11362
#
# Poissons Ratio (x) = 0.06061 0.51052
# Poissons Ratio (y) = 0.11350 -0.04963
# Poissons Ratio (z) = 0.73133 -0.03797
#
# Static dielectric constant tensor:
#      x y z
#    x 1.781480 0.000000 0.000000 
#    y 0.000000 1.851530 0.000000 
#    z 0.000000 0.000000 1.714270 
# 
# From -- ./inp_files/48758.got.cif
#   From: 2010.05.17/outbox.cif.g08.bks.cpg/sg71_25_cif.got.tgz:48758.got - 2010.06.03 16:22:01.
