data_PCOD9519905
_publ_section_title
;
Structure prediction by ZEFSAII (Michael W. Deem and Ramdas Pophale) SiO2 
 PCOD9519905
Probable space group: I M M M
;
_chemical_formula_sum "Si O2"
_cell_formula_units_Z 96
_cell_length_a 14.758453
_cell_length_b 15.543865
_cell_length_c 21.135078
_cell_angle_alpha 90.000000
_cell_angle_beta 90.000000
_cell_angle_gamma 90.000000
_cell_volume 4848.458774
_symmetry_space_group_name_H-M "I M M M"
_symmetry_group_IT_number 71
_symmetry_cell_setting 'orthorhombic'
loop_
_space_group_symop_operation_xyz
x,y,z
-x,-y,z
x,-y,-z
-x,y,-z
-x,-y,-z
x,y,-z
-x,y,z
x,-y,z
1/2+x,1/2+y,1/2+z
1/2-x,1/2-y,1/2+z
1/2+x,1/2-y,1/2-z
1/2-x,1/2+y,1/2-z
1/2-x,1/2-y,1/2-z
1/2+x,1/2+y,1/2-z
1/2-x,1/2+y,1/2+z
1/2+x,1/2-y,1/2+z
loop_
_atom_site_type_symbol
_atom_site_label
_atom_site_fract_x
_atom_site_fract_y
_atom_site_fract_z
Si Si1 0.864963 0.783638 0.839498
Si Si2 0.358072 0.595236 0.224131
Si Si3 0.500000 0.592125 0.113313
Si Si4 0.891409 0.500000 0.575019
Si Si5 0.000000 0.104529 0.923394
Si Si6 0.341251 0.161212 0.850371
Si Si7 0.000000 0.264738 0.430854
Si Si8 0.642366 0.899706 0.709742
O O1 0.885599 0.830384 0.772523
O O2 0.916037 0.841773 0.891922
O O3 0.756210 0.794574 0.845209
O O4 0.887980 0.681644 0.833675
O O5 0.374480 0.500000 0.253369
O O6 0.415326 0.599450 0.160815
O O7 0.252008 0.600217 0.208627
O O8 0.500000 0.500000 0.083243
O O9 0.500000 0.664355 0.062694
O O10 0.888245 0.500000 0.500000
O O11 0.838376 0.421108 0.604874
O O12 0.000000 0.500000 0.593203
O O13 0.000000 0.000000 0.908996
O O14 0.000000 0.111773 0.000000
O O15 0.414301 0.215661 0.887733
O O16 0.376850 0.128808 0.782202
O O17 0.000000 0.308815 0.500000
O O18 0.613344 0.000000 0.698065
#
# Coordination Sequence:
#
# PCOD9519905 Si02
#       8
#    16  16   8   8   8  16   8  16
#     4  11  22  39  63  89 119 155 195 242 305 358
#     4   9  17  31  56  89 121 150 189 241 301 361
#     4  10  19  33  54  81 113 153 192 240 296 347
#     4  11  22  38  56  83 127 169 201 238 279 339
#     4  11  27  47  64  87 117 150 197 255 300 354
#     4  11  22  38  58  88 121 158 196 240 292 355
#     4  12  24  37  54  80 117 158 203 240 275 338
#     4  10  20  36  59  90 123 153 190 246 299 358
#
# _framework density 19.800106
#
# number of rings (size 3 to 8) (size 9 to 14) (size 15 to 20)
#    0.000    1.500    1.667    5.500    2.333    2.833 
#    0.000    1.250    0.000    1.000    0.000    0.000 
#    0.000    0.000    0.000    0.000    0.000    0.000 
#
# Total GULP energy -267637.180812 kJ/mol
# GULP energy per Si atom -5575.774600 kJ/mol
# Density = 1.975504 g / cm^3
# Si number density = 19.800106 Si / 1000 Ang^3
#
#
#
# Elastic Constant Matrix: (Units=GPa)
#
#
# Indices 1 2 3 4 5 6 
#
# 1 72.3447 30.1932 30.7118 0.0000 0.0000 0.0000
# 2 30.1932 199.8393 58.1897 0.0000 0.0000 0.0000
# 3 30.7118 58.1897 80.7286 0.0000 0.0000 0.0000
# 4 0.0000 0.0000 0.0000 23.9608 0.0000 0.0000
# 5 0.0000 0.0000 0.0000 0.0000 0.0042 0.0000
# 6 0.0000 0.0000 0.0000 0.0000 0.0000 4.7186
#
#
#
# Elastic Compliance Matrix: (Units=1/GPa)
#
#
# Indices 1 2 3 4 5 6 
#
# 1 0.016598 -0.000847 -0.005704 0.000000 0.000002 0.000000
# 2 -0.000847 0.006376 -0.004274 0.000000 0.000001 0.000000
# 3 -0.005704 -0.004274 0.017638 0.000000 -0.000004 0.000000
# 4 0.000000 0.000000 0.000000 0.041735 -0.000005 0.000000
# 5 0.000002 0.000001 -0.000004 -0.000005235.411236 0.000001
# 6 0.000000 0.000000 0.000000 0.000000 0.000001 0.211926
#
#
# Mechanical properties :
#
#
# Convention : Reuss Voigt Hill
#
# Bulk Modulus (GPa) = 52.73581 65.67800 59.20691
# Shear Modulus (GPa) = 0.02121 21.32460 10.67290
#
# Velocity S-wave (km/s) = 0.10361 3.28532 2.32423
# Velocity P-wave (km/s) = 5.16781 6.90171 6.09672
#
# Compressibility (1/GPa) = 0.01896245
#
# Stress axis : x y z
#
# Youngs Moduli (GPa) = 60.24990 156.82599 56.69609
#
# Poissons Ratio (x) = 0.13280 0.32339
# Poissons Ratio (y) = 0.05102 0.24232
# Poissons Ratio (z) = 0.34366 0.67028
#
# Static dielectric constant tensor:
#      x y z
#    x 1.838830 0.000000 0.000000 
#    y 0.000000 1.684360 0.000000 
#    z 0.000000 0.000000 1.636080 
# 
# From -- ./inp_files/53042.got.cif
#   From: 2010.05.17/outbox.cif.g08.bks.cpg/sg71_27_cif.got.tgz:53042.got - 2010.06.03 16:22:01.
