data_PCOD9519179
_publ_section_title
;
Structure prediction by ZEFSAII (Michael W. Deem and Ramdas Pophale) SiO2 
 PCOD9519179
Probable space group: I M M M
;
_chemical_formula_sum "Si O2"
_cell_formula_units_Z 88
_cell_length_a 28.374448
_cell_length_b 19.038328
_cell_length_c 8.936753
_cell_angle_alpha 90.000000
_cell_angle_beta 90.000000
_cell_angle_gamma 90.000000
_cell_volume 4827.652272
_symmetry_space_group_name_H-M "I M M M"
_symmetry_group_IT_number 71
_symmetry_cell_setting 'orthorhombic'
loop_
_space_group_symop_operation_xyz
x,y,z
-x,-y,z
x,-y,-z
-x,y,-z
-x,-y,-z
x,y,-z
-x,y,z
x,-y,z
1/2+x,1/2+y,1/2+z
1/2-x,1/2-y,1/2+z
1/2+x,1/2-y,1/2-z
1/2-x,1/2+y,1/2-z
1/2-x,1/2-y,1/2-z
1/2+x,1/2+y,1/2-z
1/2-x,1/2+y,1/2+z
1/2+x,1/2-y,1/2+z
loop_
_atom_site_type_symbol
_atom_site_label
_atom_site_fract_x
_atom_site_fract_y
_atom_site_fract_z
Si Si1 0.943477 0.357797 0.831650
Si Si2 0.557774 0.000000 0.173280
Si Si3 0.946139 0.792017 0.678467
Si Si4 0.208227 0.295577 0.179332
Si Si5 0.230746 0.080862 0.319003
Si Si6 0.145999 0.171056 0.820725
O O1 0.925672 0.429115 0.755357
O O2 0.938314 0.287748 0.735059
O O3 0.000000 0.367205 0.844529
O O4 0.924189 0.348353 0.000000
O O5 0.500000 0.000000 0.176246
O O6 0.571534 0.000000 0.000000
O O7 0.942091 0.794695 0.500000
O O8 0.905770 0.838667 0.753820
O O9 0.000000 0.811071 0.720345
O O10 0.250000 0.250000 0.250000
O O11 0.222083 0.374799 0.221964
O O12 0.162298 0.251059 0.221232
O O13 0.210852 0.292148 0.000000
O O14 0.225760 0.083853 0.500000
O O15 0.185551 0.119414 0.246695
O O16 0.233495 0.000000 0.273608
O O17 0.145447 0.164897 0.000000
#
# Coordination Sequence:
#
# PCOD9519179 Si02
#       6
#    16   8  16  16  16  16
#     4   9  16  26  41  61  84 112 152 202 252 298
#     4   9  15  23  37  57  81 109 143 187 241 297
#     4  10  20  33  49  69  94 129 175 222 264 306
#     4   8  15  28  47  73 101 130 163 198 243 298
#     4   9  17  31  53  79 106 135 167 203 246 303
#     4  10  19  31  50  75 105 137 170 211 256 305
#
# _framework density 18.228321000000001
#
# number of rings (size 3 to 8) (size 9 to 14) (size 15 to 20)
#    0.000    2.818    0.000    1.909    0.000    5.455 
#    0.000    0.000    2.000    0.545    0.000    3.818 
#    0.000    0.000    0.000    0.000    0.000    0.000 
#
# Total GULP energy -244985.892593 kJ/mol
# GULP energy per Si atom -5567.861195 kJ/mol
# Density = 1.818683 g / cm^3
# Si number density = 18.228321 Si / 1000 Ang^3
#
#
#
# Elastic Constant Matrix: (Units=GPa)
#
#
# Indices 1 2 3 4 5 6 
#
# 1 69.8937 26.7586 20.2365 0.0000 0.0000 0.0000
# 2 26.7586 88.5722 19.0723 0.0000 0.0000 0.0000
# 3 20.2365 19.0723 39.4475 0.0000 0.0000 0.0000
# 4 0.0000 0.0000 0.0000 21.5906 0.0000 0.0000
# 5 0.0000 0.0000 0.0000 0.0000 12.6309 0.0000
# 6 0.0000 0.0000 0.0000 0.0000 0.0000 12.7814
#
#
#
# Elastic Compliance Matrix: (Units=1/GPa)
#
#
# Indices 1 2 3 4 5 6 
#
# 1 0.017895 -0.003828 -0.007329 0.000000 0.000000 0.000000
# 2 -0.003828 0.013421 -0.004525 0.000000 0.000000 0.000000
# 3 -0.007329 -0.004525 0.031298 0.000000 0.000000 0.000000
# 4 0.000000 0.000000 0.000000 0.046316 0.000000 0.000000
# 5 0.000000 0.000000 0.000000 0.000000 0.079171 0.000000
# 6 0.000000 0.000000 0.000000 0.000000 0.000000 0.078239
#
#
# Mechanical properties :
#
#
# Convention : Reuss Voigt Hill
#
# Bulk Modulus (GPa) = 32.00096 36.67203 34.33650
# Shear Modulus (GPa) = 16.22734 18.19030 17.20882
#
# Velocity S-wave (km/s) = 2.98690 3.16241 3.07591
# Velocity P-wave (km/s) = 5.43040 5.78759 5.61184
#
# Compressibility (1/GPa) = 0.03124906
#
# Stress axis : x y z
#
# Youngs Moduli (GPa) = 55.88122 74.50937 31.95097
#
# Poissons Ratio (x) = 0.28523 0.23418
# Poissons Ratio (y) = 0.21392 0.14458
# Poissons Ratio (z) = 0.40957 0.33717
#
# Static dielectric constant tensor:
#      x y z
#    x 1.647510 0.000000 0.000000 
#    y 0.000000 1.627740 0.000000 
#    z 0.000000 0.000000 1.613200 
# 
# From -- ./inp_files/16686.got.cif
#   From: 2010.05.17/outbox.cif.g08.bks.cpg/sg71_9_cif.got.tgz:16686.got - 2010.06.03 16:22:01.
