data_PCOD9519869
_publ_section_title
;
Structure prediction by ZEFSAII (Michael W. Deem and Ramdas Pophale) SiO2 
 PCOD9519869
Probable space group: I M M M
;
_chemical_formula_sum "Si O2"
_cell_formula_units_Z 96
_cell_length_a 13.521551
_cell_length_b 21.016905
_cell_length_c 19.612871
_cell_angle_alpha 90.000000
_cell_angle_beta 90.000000
_cell_angle_gamma 90.000000
_cell_volume 5573.608291
_symmetry_space_group_name_H-M "I M M M"
_symmetry_group_IT_number 71
_symmetry_cell_setting 'orthorhombic'
loop_
_space_group_symop_operation_xyz
x,y,z
-x,-y,z
x,-y,-z
-x,y,-z
-x,-y,-z
x,y,-z
-x,y,z
x,-y,z
1/2+x,1/2+y,1/2+z
1/2-x,1/2-y,1/2+z
1/2+x,1/2-y,1/2-z
1/2-x,1/2+y,1/2-z
1/2-x,1/2-y,1/2-z
1/2+x,1/2+y,1/2-z
1/2-x,1/2+y,1/2+z
1/2+x,1/2-y,1/2+z
loop_
_atom_site_type_symbol
_atom_site_label
_atom_site_fract_x
_atom_site_fract_y
_atom_site_fract_z
Si Si1 0.879875 0.500000 0.423336
Si Si2 0.768075 0.254480 0.640390
Si Si3 0.000000 0.927850 0.581310
Si Si4 0.716408 0.623694 0.078440
Si Si5 0.382039 0.317402 0.262994
Si Si6 0.882674 0.624765 0.657878
Si Si7 0.258393 0.924487 0.277195
O O1 0.842872 0.500000 0.500000
O O2 0.850675 0.437522 0.383036
O O3 0.000000 0.500000 0.425069
O O4 0.758585 0.198212 0.586267
O O5 0.666951 0.283815 0.670808
O O6 0.830825 0.221390 0.701367
O O7 0.833991 0.314893 0.621846
O O8 0.100485 0.890006 0.595405
O O9 0.000000 0.935227 0.500000
O O10 0.000000 0.000000 0.610967
O O11 0.769081 0.588483 0.141765
O O12 0.734203 0.602633 0.000000
O O13 0.500000 0.314566 0.261884
O O14 0.339989 0.388915 0.251452
O O15 0.842336 0.612912 0.734306
O O16 0.000000 0.630652 0.658633
O O17 0.259519 0.000000 0.265223
#
# Coordination Sequence:
#
# PCOD9519869 Si02
#       7
#     8  16   8  16  16  16  16
#     4   9  18  32  50  76 104 132 165 208 268 334
#     4   9  19  31  50  75  98 132 174 213 265 324
#     4   9  18  32  48  68 102 147 179 207 265 315
#     4  10  21  34  48  73 108 142 181 221 260 317
#     4   9  18  33  50  73 102 130 168 223 272 312
#     4  10  19  33  54  77 107 139 174 220 269 321
#     4  10  20  32  51  78 105 142 186 219 262 323
#
# _framework density 17.224029000000002
#
# number of rings (size 3 to 8) (size 9 to 14) (size 15 to 20)
#    0.000    2.500    0.833    2.000    5.833    2.000 
#    0.000    0.000    0.000    2.000    0.000    1.167 
#    0.000    3.333    0.000    0.000    0.000    0.000 
#
# Total GULP energy -267226.211730 kJ/mol
# GULP energy per Si atom -5567.212744 kJ/mol
# Density = 1.718483 g / cm^3
# Si number density = 17.224029 Si / 1000 Ang^3
#
#
#
# Elastic Constant Matrix: (Units=GPa)
#
#
# Indices 1 2 3 4 5 6 
#
# 1 56.3813 4.0113 5.7146 0.0000 0.0000 0.0000
# 2 4.0113 86.0750 -6.5875 0.0000 0.0000 0.0000
# 3 5.7146 -6.5875 58.8831 0.0000 0.0000 0.0000
# 4 0.0000 0.0000 0.0000 21.1415 0.0000 0.0000
# 5 0.0000 0.0000 0.0000 0.0000 14.8964 0.0000
# 6 0.0000 0.0000 0.0000 0.0000 0.0000 17.0256
#
#
#
# Elastic Compliance Matrix: (Units=1/GPa)
#
#
# Indices 1 2 3 4 5 6 
#
# 1 0.017994 -0.000981 -0.001856 0.000000 0.000000 0.000000
# 2 -0.000981 0.011772 0.001412 0.000000 0.000000 0.000000
# 3 -0.001856 0.001412 0.017321 0.000000 0.000000 0.000000
# 4 0.000000 0.000000 0.000000 0.047300 0.000000 0.000000
# 5 0.000000 0.000000 0.000000 0.000000 0.067130 0.000000
# 6 0.000000 0.000000 0.000000 0.000000 0.000000 0.058735
#
#
# Mechanical properties :
#
#
# Convention : Reuss Voigt Hill
#
# Bulk Modulus (GPa) = 22.60523 23.06848 22.83685
# Shear Modulus (GPa) = 21.02190 23.82611 22.42401
#
# Velocity S-wave (km/s) = 3.49735 3.72332 3.61210
# Velocity P-wave (km/s) = 5.42783 5.64857 5.53930
#
# Compressibility (1/GPa) = 0.04423755
#
# Stress axis : x y z
#
# Youngs Moduli (GPa) = 55.57322 84.95059 57.73372
#
# Poissons Ratio (x) = 0.08330 0.10716
# Poissons Ratio (y) = 0.05450 -0.08153
# Poissons Ratio (z) = 0.10315 -0.11996
#
# Static dielectric constant tensor:
#      x y z
#    x 1.579010 0.000000 0.000000 
#    y 0.000000 1.626730 0.000000 
#    z 0.000000 0.000000 1.609460 
# 
# From -- ./inp_files/52149.got.cif
#   From: 2010.05.17/outbox.cif.g08.bks.cpg/sg71_27_cif.got.tgz:52149.got - 2010.06.03 16:22:01.
