data_PCOD9519501
_publ_section_title
;
Structure prediction by ZEFSAII (Michael W. Deem and Ramdas Pophale) SiO2 
 PCOD9519501
Probable space group: I M M M
;
_chemical_formula_sum "Si O2"
_cell_formula_units_Z 112
_cell_length_a 20.404329
_cell_length_b 10.918517
_cell_length_c 27.462584
_cell_angle_alpha 90.000000
_cell_angle_beta 90.000000
_cell_angle_gamma 90.000000
_cell_volume 6118.252135
_symmetry_space_group_name_H-M "I M M M"
_symmetry_group_IT_number 71
_symmetry_cell_setting 'orthorhombic'
loop_
_space_group_symop_operation_xyz
x,y,z
-x,-y,z
x,-y,-z
-x,y,-z
-x,-y,-z
x,y,-z
-x,y,z
x,-y,z
1/2+x,1/2+y,1/2+z
1/2-x,1/2-y,1/2+z
1/2+x,1/2-y,1/2-z
1/2-x,1/2+y,1/2-z
1/2-x,1/2-y,1/2-z
1/2+x,1/2+y,1/2-z
1/2-x,1/2+y,1/2+z
1/2+x,1/2-y,1/2+z
loop_
_atom_site_type_symbol
_atom_site_label
_atom_site_fract_x
_atom_site_fract_y
_atom_site_fract_z
Si Si1 0.234597 0.367742 0.840106
Si Si2 0.424409 0.357442 0.588929
Si Si3 0.199998 0.712578 0.054592
Si Si4 0.649375 0.363593 0.688264
Si Si5 0.574358 0.141894 0.860890
Si Si6 0.831331 0.645593 0.447558
Si Si7 0.616650 0.364475 0.198895
O O1 0.210254 0.500000 0.820940
O O2 0.219708 0.365529 0.898051
O O3 0.199055 0.247976 0.819365
O O4 0.310512 0.360283 0.824891
O O5 0.500000 0.322832 0.580965
O O6 0.416359 0.500000 0.573975
O O7 0.371191 0.272281 0.562734
O O8 0.405513 0.351646 0.646300
O O9 0.255804 0.817403 0.057202
O O10 0.203612 0.658331 0.000000
O O11 0.679782 0.500000 0.681160
O O12 0.622885 0.359468 0.742841
O O13 0.500000 0.140572 0.879663
O O14 0.624121 0.184353 0.902853
O O15 0.580016 0.244046 0.819478
O O16 0.589844 0.000000 0.846437
O O17 0.854387 0.694728 0.500000
O O18 0.836200 0.500000 0.448451
O O19 0.589023 0.500000 0.186107
#
# Coordination Sequence:
#
# PCOD9519501 Si02
#       7
#    16  16  16  16  16  16  16
#     4  10  20  34  53  80 111 140 177 225 276 324
#     4   9  18  32  50  77 112 143 176 223 274 321
#     4  10  19  32  52  76 104 142 183 223 269 324
#     4   9  19  34  55  80 106 141 183 223 269 322
#     4  10  21  35  52  78 110 142 178 222 273 326
#     4   9  17  31  52  76 101 134 179 227 272 321
#     4  10  20  35  54  79 109 143 183 224 270 327
#
# _framework density 18.305882
#
# number of rings (size 3 to 8) (size 9 to 14) (size 15 to 20)
#    0.000    2.429    1.429    0.857    0.000    4.286 
#    0.000    3.571    0.000    7.286    0.000    5.000 
#    0.000    0.000    0.000    0.000    0.000    0.000 
#
# Total GULP energy -311810.706732 kJ/mol
# GULP energy per Si atom -5568.048334 kJ/mol
# Density = 1.826422 g / cm^3
# Si number density = 18.305882 Si / 1000 Ang^3
#
#
#
# Elastic Constant Matrix: (Units=GPa)
#
#
# Indices 1 2 3 4 5 6 
#
# 1 57.7343 14.5294 15.7324 0.0000 0.0000 0.0000
# 2 14.5294 71.8914 33.4355 0.0000 0.0000 0.0000
# 3 15.7324 33.4355 72.0443 0.0000 0.0000 0.0000
# 4 0.0000 0.0000 0.0000 11.9426 0.0000 0.0000
# 5 0.0000 0.0000 0.0000 0.0000 5.9760 0.0000
# 6 0.0000 0.0000 0.0000 0.0000 0.0000 16.5973
#
#
#
# Elastic Compliance Matrix: (Units=1/GPa)
#
#
# Indices 1 2 3 4 5 6 
#
# 1 0.018736 -0.002402 -0.002977 0.000000 0.000000 0.000000
# 2 -0.002402 0.018047 -0.007851 0.000000 0.000000 0.000000
# 3 -0.002977 -0.007851 0.018174 0.000000 0.000000 0.000000
# 4 0.000000 0.000000 0.000000 0.083734 0.000000 0.000000
# 5 0.000000 0.000000 0.000000 0.000000 0.167335 0.000000
# 6 0.000000 0.000000 0.000000 0.000000 0.000000 0.060251
#
#
# Mechanical properties :
#
#
# Convention : Reuss Voigt Hill
#
# Bulk Modulus (GPa) = 35.09073 36.56274 35.82673
# Shear Modulus (GPa) = 12.43056 16.10138 14.26597
#
# Velocity S-wave (km/s) = 2.60868 2.96898 2.79464
# Velocity P-wave (km/s) = 5.31830 5.63646 5.47969
#
# Compressibility (1/GPa) = 0.02849755
#
# Stress axis : x y z
#
# Youngs Moduli (GPa) = 53.37199 55.41196 55.02408
#
# Poissons Ratio (x) = 0.13312 0.16378
# Poissons Ratio (y) = 0.12822 0.43198
# Poissons Ratio (z) = 0.15887 0.43503
#
# Static dielectric constant tensor:
#      x y z
#    x 1.607220 0.000000 0.000000 
#    y 0.000000 1.798090 0.000000 
#    z 0.000000 0.000000 1.663300 
# 
# From -- ./inp_files/66582.got.cif
#   From: 2010.05.17/outbox.cif.g08.bks.cpg/sg71_34_cif.got.tgz:66582.got - 2010.06.03 16:22:01.
