data_PCOD9519243
_publ_section_title
;
Structure prediction by ZEFSAII (Michael W. Deem and Ramdas Pophale) SiO2 
 PCOD9519243
Probable space group: I M M M
;
_chemical_formula_sum "Si O2"
_cell_formula_units_Z 128
_cell_length_a 18.657169
_cell_length_b 22.837559
_cell_length_c 15.964440
_cell_angle_alpha 90.000000
_cell_angle_beta 90.000000
_cell_angle_gamma 90.000000
_cell_volume 6802.195611
_symmetry_space_group_name_H-M "I M M M"
_symmetry_group_IT_number 71
_symmetry_cell_setting 'orthorhombic'
loop_
_space_group_symop_operation_xyz
x,y,z
-x,-y,z
x,-y,-z
-x,y,-z
-x,-y,-z
x,y,-z
-x,y,z
x,-y,z
1/2+x,1/2+y,1/2+z
1/2-x,1/2-y,1/2+z
1/2+x,1/2-y,1/2-z
1/2-x,1/2+y,1/2-z
1/2-x,1/2-y,1/2-z
1/2+x,1/2+y,1/2-z
1/2-x,1/2+y,1/2+z
1/2+x,1/2-y,1/2+z
loop_
_atom_site_type_symbol
_atom_site_label
_atom_site_fract_x
_atom_site_fract_y
_atom_site_fract_z
Si Si1 0.677648 0.158763 0.905473
Si Si2 0.146239 0.932137 0.591886
Si Si3 0.787048 0.933070 0.150872
Si Si4 0.231372 0.727807 0.902992
Si Si5 0.417730 0.383421 0.261371
Si Si6 0.920831 0.241897 0.159478
Si Si7 0.780677 0.602128 0.828029
Si Si8 0.919139 0.632510 0.752176
O O1 0.743553 0.112853 0.904403
O O2 0.712372 0.221311 0.880557
O O3 0.620135 0.137076 0.837609
O O4 0.649159 0.163260 0.000000
O O5 0.124916 0.910638 0.500000
O O6 0.112006 0.897392 0.668935
O O7 0.232569 0.928051 0.601652
O O8 0.125314 0.000000 0.600147
O O9 0.868755 0.915815 0.169847
O O10 0.750981 0.923664 0.242295
O O11 0.780013 0.000000 0.123763
O O12 0.150554 0.753083 0.895973
O O13 0.235329 0.671383 0.842801
O O14 0.243915 0.710466 0.000000
O O15 0.500000 0.401844 0.266349
O O16 0.412823 0.314746 0.282022
O O17 0.922126 0.301337 0.213017
O O18 0.000000 0.237226 0.117730
O O19 0.865993 0.598367 0.815930
O O20 0.000000 0.609585 0.747258
#
# Coordination Sequence:
#
# PCOD9519243 Si02
#       8
#    16  16  16  16  16  16  16  16
#     4  10  21  34  52  77 104 137 174 217 270 318
#     4  10  21  35  51  75 107 141 177 217 259 304
#     4  10  20  34  54  76 100 137 183 224 259 298
#     4  10  19  31  51  79 106 134 172 216 263 313
#     4  10  19  32  51  74 103 141 181 217 254 295
#     4   9  18  32  50  74 107 144 173 209 254 303
#     4   9  18  32  55  76 103 132 172 214 259 310
#     4   9  19  33  52  78 105 133 167 208 263 321
#
# _framework density 18.817453
#
# number of rings (size 3 to 8) (size 9 to 14) (size 15 to 20)
#    0.000    2.375    1.250    1.875    3.500    3.500 
#    0.000    0.625    0.000   13.125    0.000    5.250 
#    0.000    0.000    0.000    0.000    0.000    0.000 
#
# Total GULP energy -356506.679405 kJ/mol
# GULP energy per Si atom -5570.416866 kJ/mol
# Density = 1.877462 g / cm^3
# Si number density = 18.817453 Si / 1000 Ang^3
#
#
#
# Elastic Constant Matrix: (Units=GPa)
#
#
# Indices 1 2 3 4 5 6 
#
# 1 98.9111 6.4989 0.7746 0.0000 0.0000 0.0000
# 2 6.4989 35.1180 -8.2824 0.0000 0.0000 0.0000
# 3 0.7746 -8.2824 30.7193 0.0000 0.0000 0.0000
# 4 0.0000 0.0000 0.0000 20.5500 0.0000 0.0000
# 5 0.0000 0.0000 0.0000 0.0000 15.8373 0.0000
# 6 0.0000 0.0000 0.0000 0.0000 0.0000 13.5806
#
#
#
# Elastic Compliance Matrix: (Units=1/GPa)
#
#
# Indices 1 2 3 4 5 6 
#
# 1 0.010254 -0.002092 -0.000822 0.000000 0.000000 0.000000
# 2 -0.002092 0.030836 0.008367 0.000000 0.000000 0.000000
# 3 -0.000822 0.008367 0.034829 0.000000 0.000000 0.000000
# 4 0.000000 0.000000 0.000000 0.048662 0.000000 0.000000
# 5 0.000000 0.000000 0.000000 0.000000 0.063142 0.000000
# 6 0.000000 0.000000 0.000000 0.000000 0.000000 0.073634
#
#
# Mechanical properties :
#
#
# Convention : Reuss Voigt Hill
#
# Bulk Modulus (GPa) = 11.51755 18.08117 14.79936
# Shear Modulus (GPa) = 17.89592 21.04409 19.47000
#
# Velocity S-wave (km/s) = 3.08722 3.34777 3.22013
# Velocity P-wave (km/s) = 4.34072 4.95712 4.65912
#
# Compressibility (1/GPa) = 0.08682403
#
# Stress axis : x y z
#
# Youngs Moduli (GPa) = 97.52341 32.42996 28.71140
#
# Poissons Ratio (x) = 0.06783 0.02361
# Poissons Ratio (y) = 0.20397 -0.24021
# Poissons Ratio (z) = 0.08021 -0.27133
#
# Static dielectric constant tensor:
#      x y z
#    x 1.696290 0.000000 0.000000 
#    y 0.000000 1.645980 0.000000 
#    z 0.000000 0.000000 1.658110 
# 
# From -- ./inp_files/46650.got.cif
#   From: 2010.05.17/outbox.cif.g08.bks.cpg/sg71_24_cif.got.tgz:46650.got - 2010.06.03 16:22:01.
