data_PCOD9519696
_publ_section_title
;
Structure prediction by ZEFSAII (Michael W. Deem and Ramdas Pophale) SiO2 
 PCOD9519696
Probable space group: I M M M
;
_chemical_formula_sum "Si O2"
_cell_formula_units_Z 68
_cell_length_a 7.288058
_cell_length_b 19.810912
_cell_length_c 20.843934
_cell_angle_alpha 90.000000
_cell_angle_beta 90.000000
_cell_angle_gamma 90.000000
_cell_volume 3009.511300
_symmetry_space_group_name_H-M "I M M M"
_symmetry_group_IT_number 71
_symmetry_cell_setting 'orthorhombic'
loop_
_space_group_symop_operation_xyz
x,y,z
-x,-y,z
x,-y,-z
-x,y,-z
-x,-y,-z
x,y,-z
-x,y,z
x,-y,z
1/2+x,1/2+y,1/2+z
1/2-x,1/2-y,1/2+z
1/2+x,1/2-y,1/2-z
1/2-x,1/2+y,1/2-z
1/2-x,1/2-y,1/2-z
1/2+x,1/2+y,1/2-z
1/2-x,1/2+y,1/2+z
1/2+x,1/2-y,1/2+z
loop_
_atom_site_type_symbol
_atom_site_label
_atom_site_fract_x
_atom_site_fract_y
_atom_site_fract_z
Si Si1 0.776306 0.924049 0.360295
Si Si2 0.707614 0.612841 0.000000
Si Si3 0.500000 0.000000 0.082061
Si Si4 0.781271 0.231746 0.000000
Si Si5 0.217775 0.170361 0.246767
Si Si6 0.277521 0.377810 0.606219
O O1 0.710278 0.910289 0.432499
O O2 0.710679 0.869520 0.308687
O O3 0.000000 0.919775 0.362118
O O4 0.728870 0.000000 0.340142
O O5 0.500000 0.585451 0.000000
O O6 0.701060 0.693863 0.000000
O O7 0.339439 0.058995 0.082897
O O8 0.735218 0.186944 0.061969
O O9 0.000000 0.241138 0.000000
O O10 0.250000 0.250000 0.250000
O O11 0.278428 0.139025 0.179286
O O12 0.000000 0.160768 0.246985
O O13 0.500000 0.388981 0.602852
#
# Coordination Sequence:
#
# PCOD9519696 Si02
#       6
#    16   8   4   8  16  16
#     4   9  18  33  56  86 120 158 199 254 314 367
#     4  10  19  32  60  93 119 151 208 259 299 370
#     4  12  26  41  70  90 128 163 212 262 314 387
#     4  10  22  41  62  85 125 165 201 250 312 368
#     4  10  21  37  59  85 122 163 210 260 313 375
#     4  10  24  42  62  93 126 167 210 259 316 374
#
# _framework density 22.595030000000001
#
# number of rings (size 3 to 8) (size 9 to 14) (size 15 to 20)
#    0.000    2.118    0.000    2.118    4.941    2.353 
#    0.000    1.765    0.000    2.824    0.000    0.000 
#    0.000    0.000    0.000    0.000    0.000    0.000 
#
# Total GULP energy -189568.535963 kJ/mol
# GULP energy per Si atom -5575.545175 kJ/mol
# Density = 2.254360 g / cm^3
# Si number density = 22.595030 Si / 1000 Ang^3
#
#
#
# Elastic Constant Matrix: (Units=GPa)
#
#
# Indices 1 2 3 4 5 6 
#
# 1 106.4564 11.9826 10.3785 0.0000 0.0000 0.0000
# 2 11.9826 152.5091 54.9294 0.0000 0.0000 0.0000
# 3 10.3785 54.9294 157.9951 0.0000 0.0000 0.0000
# 4 0.0000 0.0000 0.0000 22.6513 0.0000 0.0000
# 5 0.0000 0.0000 0.0000 0.0000 -23.0766 0.0000
# 6 0.0000 0.0000 0.0000 0.0000 0.0000 60.9791
#
#
#
# Elastic Compliance Matrix: (Units=1/GPa)
#
#
# Indices 1 2 3 4 5 6 
#
# 1 0.009501 -0.000596 -0.000417 0.000000 0.000000 0.000000
# 2 -0.000596 0.007533 -0.002580 0.000000 0.000000 0.000000
# 3 -0.000417 -0.002580 0.007254 0.000000 0.000000 0.000000
# 4 0.000000 0.000000 0.000000 0.044148 0.000000 0.000000
# 5 0.000000 0.000000 0.000000 0.000000 -0.043334 0.000000
# 6 0.000000 0.000000 0.000000 0.000000 0.000000 0.016399
#
#
# Mechanical properties :
#
#
# Convention : Reuss Voigt Hill
#
# Bulk Modulus (GPa) = 58.47290 63.50463 60.98877
# Shear Modulus (GPa) = 91.93338 34.75542 63.34440
#
# Velocity S-wave (km/s) = 6.38559 3.92623 5.30052
# Velocity P-wave (km/s) = 8.96117 6.97999 8.03190
#
# Compressibility (1/GPa) = 0.01710194
#
# Stress axis : x y z
#
# Youngs Moduli (GPa) = 105.24902 132.74900 137.86267
#
# Poissons Ratio (x) = 0.07917 0.05746
# Poissons Ratio (y) = 0.06277 0.35566
# Poissons Ratio (z) = 0.04387 0.34246
#
# Static dielectric constant tensor:
#      x y z
#    x 1.865820 0.000000 0.000000 
#    y 0.000000 1.800610 0.000000 
#    z 0.000000 0.000000 1.848020 
# 
# From -- ./inp_files/50044.got.cif
#   From: 2010.05.17/outbox.cif.g08.bks.cpg/sg71_26_cif.got.tgz:50044.got - 2010.06.03 16:22:01.
