data_PCOD9519506
_publ_section_title
;
Structure prediction by ZEFSAII (Michael W. Deem and Ramdas Pophale) SiO2 
 PCOD9519506
Probable space group: I M M M
;
_chemical_formula_sum "Si O2"
_cell_formula_units_Z 104
_cell_length_a 26.832135
_cell_length_b 7.630761
_cell_length_c 22.441537
_cell_angle_alpha 90.000000
_cell_angle_beta 90.000000
_cell_angle_gamma 90.000000
_cell_volume 4594.895933
_symmetry_space_group_name_H-M "I M M M"
_symmetry_group_IT_number 71
_symmetry_cell_setting 'orthorhombic'
loop_
_space_group_symop_operation_xyz
x,y,z
-x,-y,z
x,-y,-z
-x,y,-z
-x,-y,-z
x,y,-z
-x,y,z
x,-y,z
1/2+x,1/2+y,1/2+z
1/2-x,1/2-y,1/2+z
1/2+x,1/2-y,1/2-z
1/2-x,1/2+y,1/2-z
1/2-x,1/2-y,1/2-z
1/2+x,1/2+y,1/2-z
1/2-x,1/2+y,1/2+z
1/2+x,1/2-y,1/2+z
loop_
_atom_site_type_symbol
_atom_site_label
_atom_site_fract_x
_atom_site_fract_y
_atom_site_fract_z
Si Si1 0.000000 0.707251 0.567160
Si Si2 0.362796 0.290790 0.248890
Si Si3 0.443940 0.713192 0.655240
Si Si4 0.637702 0.287745 0.567651
Si Si5 0.279854 0.196703 0.662901
Si Si6 0.793268 0.214910 0.434973
Si Si7 0.107203 0.790268 0.380786
O O1 0.050737 0.752849 0.601432
O O2 0.000000 0.500000 0.561623
O O3 0.000000 0.784174 0.500000
O O4 0.367994 0.500000 0.246774
O O5 0.405685 0.225219 0.293911
O O6 0.308434 0.261077 0.278093
O O7 0.375147 0.221332 0.183552
O O8 0.500000 0.778325 0.661154
O O9 0.445664 0.500000 0.659262
O O10 0.417023 0.753933 0.592953
O O11 0.644721 0.233437 0.500000
O O12 0.644032 0.500000 0.571847
O O13 0.676990 0.203509 0.612451
O O14 0.235223 0.280413 0.624343
O O15 0.263822 0.000000 0.676851
O O16 0.773770 0.272526 0.500000
O O17 0.851009 0.265461 0.428120
O O18 0.789260 0.000000 0.434391
O O19 0.111133 0.000000 0.378069
#
# Coordination Sequence:
#
# PCOD9519506 Si02
#       7
#     8  16  16  16  16  16  16
#     4  11  25  43  61  87 125 157 182 225 288 347
#     4   9  19  34  53  80 110 138 181 234 280 327
#     4   8  14  25  43  66  95 128 163 213 269 320
#     4   9  17  29  45  68  98 132 176 228 279 330
#     4  10  19  32  52  76 107 147 185 222 276 341
#     4   9  18  33  54  82 112 143 187 239 283 329
#     4  10  21  38  63  88 110 145 194 240 280 330
#
# _framework density 22.633807999999998
#
# number of rings (size 3 to 8) (size 9 to 14) (size 15 to 20)
#    0.000    2.692    0.000    2.538    1.077    3.692 
#    0.000    3.077    0.000    7.846    0.000    4.308 
#    0.000    0.000    0.000    0.000    0.000    0.000 
#
# Total GULP energy -290088.593407 kJ/mol
# GULP energy per Si atom -5578.626796 kJ/mol
# Density = 2.258229 g / cm^3
# Si number density = 22.633808 Si / 1000 Ang^3
#
#
#
# Elastic Constant Matrix: (Units=GPa)
#
#
# Indices 1 2 3 4 5 6 
#
# 1 151.4297 -3.7880 51.8104 0.0000 0.0000 0.0000
# 2 -3.7880 39.9407 4.8460 0.0000 0.0000 0.0000
# 3 51.8104 4.8460 139.2249 0.0000 0.0000 0.0000
# 4 0.0000 0.0000 0.0000 -1.3114 0.0000 0.0000
# 5 0.0000 0.0000 0.0000 0.0000 24.9060 0.0000
# 6 0.0000 0.0000 0.0000 0.0000 0.0000 20.1387
#
#
#
# Elastic Compliance Matrix: (Units=1/GPa)
#
#
# Indices 1 2 3 4 5 6 
#
# 1 0.007612 0.001070 -0.002870 0.000000 0.000000 0.000000
# 2 0.001070 0.025294 -0.001279 0.000000 0.000000 0.000000
# 3 -0.002870 -0.001279 0.008295 0.000000 0.000000 0.000000
# 4 0.000000 0.000000 0.000000 -0.762518 0.000000 0.000000
# 5 0.000000 0.000000 0.000000 0.000000 0.040151 0.000000
# 6 0.000000 0.000000 0.000000 0.000000 0.000000 0.049656
#
#
# Mechanical properties :
#
#
# Convention : Reuss Voigt Hill
#
# Bulk Modulus (GPa) = 28.53534 48.48136 38.50835
# Shear Modulus (GPa) = -8.14768 27.26177 9.55705
#
# Velocity S-wave (km/s) = -1.89937 3.47431 2.05709
# Velocity P-wave (km/s) = 2.79726 6.12869 4.76369
#
# Compressibility (1/GPa) = 0.03504426
#
# Stress axis : x y z
#
# Youngs Moduli (GPa) = 131.36323 39.53547 120.55163
#
# Poissons Ratio (x) = -0.04231 0.34600
# Poissons Ratio (y) = -0.14059 0.15415
# Poissons Ratio (z) = 0.37703 0.05055
#
# Static dielectric constant tensor:
#      x y z
#    x 1.858590 0.000000 0.000000 
#    y 0.000000 1.854980 0.000000 
#    z 0.000000 0.000000 1.857400 
# 
# From -- ./inp_files/61977.got.cif
#   From: 2010.05.17/outbox.cif.g08.bks.cpg/sg71_31_cif.got.tgz:61977.got - 2010.06.03 16:22:01.
