data_PCOD9519217
_publ_section_title
;
Structure prediction by ZEFSAII (Michael W. Deem and Ramdas Pophale) SiO2 
 PCOD9519217
Probable space group: I M M M
;
_chemical_formula_sum "Si O2"
_cell_formula_units_Z 120
_cell_length_a 28.629910
_cell_length_b 27.560163
_cell_length_c 8.970680
_cell_angle_alpha 90.000000
_cell_angle_beta 90.000000
_cell_angle_gamma 90.000000
_cell_volume 7078.270077
_symmetry_space_group_name_H-M "I M M M"
_symmetry_group_IT_number 71
_symmetry_cell_setting 'orthorhombic'
loop_
_space_group_symop_operation_xyz
x,y,z
-x,-y,z
x,-y,-z
-x,y,-z
-x,-y,-z
x,y,-z
-x,y,z
x,-y,z
1/2+x,1/2+y,1/2+z
1/2-x,1/2-y,1/2+z
1/2+x,1/2-y,1/2-z
1/2-x,1/2+y,1/2-z
1/2-x,1/2-y,1/2-z
1/2+x,1/2+y,1/2-z
1/2-x,1/2+y,1/2+z
1/2+x,1/2-y,1/2+z
loop_
_atom_site_type_symbol
_atom_site_label
_atom_site_fract_x
_atom_site_fract_y
_atom_site_fract_z
Si Si1 0.792812 0.054134 0.321428
Si Si2 0.130725 0.758789 0.675642
Si Si3 0.711779 0.820028 0.172548
Si Si4 0.554086 0.000000 0.664052
Si Si5 0.906008 0.590773 0.324760
Si Si6 0.811611 0.415862 0.828122
Si Si7 0.055427 0.310554 0.179139
Si Si8 0.318490 0.344142 0.674619
O O1 0.799760 0.058916 0.500000
O O2 0.736860 0.057341 0.296185
O O3 0.813508 0.101637 0.241445
O O4 0.809001 0.000000 0.275835
O O5 0.120929 0.761601 0.500000
O O6 0.177439 0.725278 0.692572
O O7 0.087401 0.732887 0.757256
O O8 0.144165 0.810916 0.741593
O O9 0.698119 0.859341 0.295848
O O10 0.767772 0.817091 0.187290
O O11 0.703628 0.837335 0.000000
O O12 0.564438 0.952450 0.757667
O O13 0.500000 0.000000 0.639749
O O14 0.577922 0.000000 0.500000
O O15 0.910975 0.597031 0.500000
O O16 0.853819 0.574093 0.281656
O O17 0.921475 0.640533 0.245392
O O18 0.824536 0.424199 0.000000
O O19 0.000000 0.307637 0.218657
O O20 0.058562 0.311764 0.000000
O O21 0.329197 0.347321 0.500000
#
# Coordination Sequence:
#
# PCOD9519217 Si02
#       8
#    16  16  16   8  16  16  16  16
#     4   9  19  35  53  75 105 143 184 224 266 314
#     4  11  21  34  54  79 109 142 178 220 269 323
#     4   9  18  32  49  73 104 137 173 215 260 311
#     4  11  25  43  59  73  91 121 167 223 279 331
#     4  12  24  38  56  78 103 132 171 222 278 332
#     4  10  19  31  51  75 101 137 177 217 262 313
#     4  11  24  41  60  81 105 138 180 224 274 331
#     4  10  20  33  51  77 110 144 180 219 265 320
#
# _framework density 16.953294
#
# number of rings (size 3 to 8) (size 9 to 14) (size 15 to 20)
#    0.000    1.667    1.333    3.800    0.933    5.067 
#    0.000    0.000    0.000    0.000    0.000    0.000 
#    0.000    0.533    0.000    5.600    0.000    2.400 
#
# Total GULP energy -334654.926135 kJ/mol
# GULP energy per Si atom -5577.582102 kJ/mol
# Density = 1.691471 g / cm^3
# Si number density = 16.953294 Si / 1000 Ang^3
#
#
#
# Elastic Constant Matrix: (Units=GPa)
#
#
# Indices 1 2 3 4 5 6 
#
# 1 41.6033 40.3245 31.7921 0.0000 0.0000 0.0000
# 2 40.3245 101.5816 47.0821 0.0000 0.0000 0.0000
# 3 31.7921 47.0821 78.1689 0.0000 0.0000 0.0000
# 4 0.0000 0.0000 0.0000 25.8153 0.0000 0.0000
# 5 0.0000 0.0000 0.0000 0.0000 15.7786 0.0000
# 6 0.0000 0.0000 0.0000 0.0000 0.0000 42.9934
#
#
#
# Elastic Compliance Matrix: (Units=1/GPa)
#
#
# Indices 1 2 3 4 5 6 
#
# 1 0.044347 -0.012825 -0.010312 0.000000 0.000000 0.000000
# 2 -0.012825 0.017366 -0.005244 0.000000 0.000000 0.000000
# 3 -0.010312 -0.005244 0.020145 0.000000 0.000000 0.000000
# 4 0.000000 0.000000 0.000000 0.038737 0.000000 0.000000
# 5 0.000000 0.000000 0.000000 0.000000 0.063377 0.000000
# 6 0.000000 0.000000 0.000000 0.000000 0.000000 0.023259
#
#
# Mechanical properties :
#
#
# Convention : Reuss Voigt Hill
#
# Bulk Modulus (GPa) = 39.84493 51.08346 45.46419
# Shear Modulus (GPa) = 18.35821 23.72780 21.04301
#
# Velocity S-wave (km/s) = 3.29427 3.74518 3.52694
# Velocity P-wave (km/s) = 6.16631 6.99279 6.59251
#
# Compressibility (1/GPa) = 0.02509730
#
# Stress axis : x y z
#
# Youngs Moduli (GPa) = 22.54925 57.58472 49.64013
#
# Poissons Ratio (x) = 0.73852 0.51188
# Poissons Ratio (y) = 0.28919 0.26029
# Poissons Ratio (z) = 0.23253 0.30195
#
# Static dielectric constant tensor:
#      x y z
#    x 1.595600 0.000000 0.000000 
#    y 0.000000 1.699560 0.000000 
#    z 0.000000 0.000000 1.587840 
# 
# From -- ./inp_files/15591.got.cif
#   From: 2010.05.17/outbox.cif.g08.bks.cpg/sg71_8_cif.got.tgz:15591.got - 2010.06.03 16:22:01.
