data_PCOD9519175
_publ_section_title
;
Structure prediction by ZEFSAII (Michael W. Deem and Ramdas Pophale) SiO2 
 PCOD9519175
Probable space group: I M M M
;
_chemical_formula_sum "Si O2"
_cell_formula_units_Z 88
_cell_length_a 9.159516
_cell_length_b 17.495717
_cell_length_c 32.690150
_cell_angle_alpha 90.000000
_cell_angle_beta 90.000000
_cell_angle_gamma 90.000000
_cell_volume 5238.671718
_symmetry_space_group_name_H-M "I M M M"
_symmetry_group_IT_number 71
_symmetry_cell_setting 'orthorhombic'
loop_
_space_group_symop_operation_xyz
x,y,z
-x,-y,z
x,-y,-z
-x,y,-z
-x,-y,-z
x,y,-z
-x,y,z
x,-y,z
1/2+x,1/2+y,1/2+z
1/2-x,1/2-y,1/2+z
1/2+x,1/2-y,1/2-z
1/2-x,1/2+y,1/2-z
1/2-x,1/2-y,1/2-z
1/2+x,1/2+y,1/2-z
1/2-x,1/2+y,1/2+z
1/2+x,1/2-y,1/2+z
loop_
_atom_site_type_symbol
_atom_site_label
_atom_site_fract_x
_atom_site_fract_y
_atom_site_fract_z
Si Si1 0.327258 0.156783 0.451128
Si Si2 0.666496 0.636094 0.731656
Si Si3 0.825882 0.416362 0.347961
Si Si4 0.324922 0.245565 0.885221
Si Si5 0.167064 0.307394 0.193336
Si Si6 0.667909 0.500000 0.950307
O O1 0.307570 0.165352 0.500000
O O2 0.500000 0.155072 0.442759
O O3 0.249050 0.223505 0.426106
O O4 0.252759 0.076722 0.438300
O O5 0.500000 0.610987 0.737643
O O6 0.746000 0.591232 0.695470
O O7 0.755700 0.637944 0.773796
O O8 0.662437 0.723680 0.714901
O O9 0.793755 0.500000 0.365988
O O10 0.786548 0.342816 0.375189
O O11 0.000000 0.411160 0.340888
O O12 0.500000 0.252563 0.886876
O O13 0.260407 0.294955 0.847557
O O14 0.000000 0.329638 0.184523
O O15 0.500000 0.500000 0.936119
O O16 0.665479 0.500000 0.000000
#
# Coordination Sequence:
#
# PCOD9519175 Si02
#       6
#    16  16  16  16  16   8
#     4  10  20  34  53  77 105 135 166 201 246 303
#     4   9  16  26  43  67  92 120 158 201 244 292
#     4   9  18  32  49  70  98 133 173 216 260 303
#     4  10  19  31  50  75 101 131 170 214 256 300
#     4   9  16  27  44  66  93 124 157 195 243 297
#     4   9  17  31  53  79 103 127 157 193 235 287
#
# _framework density 16.798152000000002
#
# number of rings (size 3 to 8) (size 9 to 14) (size 15 to 20)
#    0.000    2.636    0.000    2.455    0.000    7.636 
#    0.000    0.000    2.000    0.545    0.000    3.818 
#    0.000    0.000    0.000    0.000    0.000    0.000 
#
# Total GULP energy -245226.897234 kJ/mol
# GULP energy per Si atom -5573.338573 kJ/mol
# Density = 1.675992 g / cm^3
# Si number density = 16.798152 Si / 1000 Ang^3
#
#
#
# Elastic Constant Matrix: (Units=GPa)
#
#
# Indices 1 2 3 4 5 6 
#
# 1 104.0102 55.4393 53.9322 0.0000 0.0000 0.0000
# 2 55.4393 95.0638 45.3751 0.0000 0.0000 0.0000
# 3 53.9322 45.3751 59.4516 0.0000 0.0000 0.0000
# 4 0.0000 0.0000 0.0000 16.2819 0.0000 0.0000
# 5 0.0000 0.0000 0.0000 0.0000 30.0519 0.0000
# 6 0.0000 0.0000 0.0000 0.0000 0.0000 18.5114
#
#
#
# Elastic Compliance Matrix: (Units=1/GPa)
#
#
# Indices 1 2 3 4 5 6 
#
# 1 0.019338 -0.004568 -0.014056 0.000000 0.000000 0.000000
# 2 -0.004568 0.017627 -0.009309 0.000000 0.000000 0.000000
# 3 -0.014056 -0.009309 0.036676 0.000000 0.000000 0.000000
# 4 0.000000 0.000000 0.000000 0.061418 0.000000 0.000000
# 5 0.000000 0.000000 0.000000 0.000000 0.033276 0.000000
# 6 0.000000 0.000000 0.000000 0.000000 0.000000 0.054021
#
#
# Mechanical properties :
#
#
# Convention : Reuss Voigt Hill
#
# Bulk Modulus (GPa) = 56.26068 63.11321 59.68695
# Shear Modulus (GPa) = 17.59660 19.88765 18.74212
#
# Velocity S-wave (km/s) = 3.24007 3.44455 3.34387
# Velocity P-wave (km/s) = 6.89654 7.31252 7.10757
#
# Compressibility (1/GPa) = 0.01777440
#
# Stress axis : x y z
#
# Youngs Moduli (GPa) = 51.71223 56.73212 27.26577
#
# Poissons Ratio (x) = 0.25918 0.38324
# Poissons Ratio (y) = 0.23624 0.25381
# Poissons Ratio (z) = 0.72685 0.52811
#
# Static dielectric constant tensor:
#      x y z
#    x 1.565590 0.000000 0.000000 
#    y 0.000000 1.581330 0.000000 
#    z 0.000000 0.000000 1.547530 
# 
# From -- ./inp_files/49194.got.cif
#   From: 2010.05.17/outbox.cif.g08.bks.cpg/sg71_25_cif.got.tgz:49194.got - 2010.06.03 16:22:01.
