data_PCOD9519258
_publ_section_title
;
Structure prediction by ZEFSAII (Michael W. Deem and Ramdas Pophale) SiO2 
 PCOD9519258
Probable space group: I M M M
;
_chemical_formula_sum "Si O2"
_cell_formula_units_Z 80
_cell_length_a 11.883466
_cell_length_b 31.051079
_cell_length_c 13.021285
_cell_angle_alpha 90.000000
_cell_angle_beta 90.000000
_cell_angle_gamma 90.000000
_cell_volume 4804.781787
_symmetry_space_group_name_H-M "I M M M"
_symmetry_group_IT_number 71
_symmetry_cell_setting 'orthorhombic'
loop_
_space_group_symop_operation_xyz
x,y,z
-x,-y,z
x,-y,-z
-x,y,-z
-x,-y,-z
x,y,-z
-x,y,z
x,-y,z
1/2+x,1/2+y,1/2+z
1/2-x,1/2-y,1/2+z
1/2+x,1/2-y,1/2-z
1/2-x,1/2+y,1/2-z
1/2-x,1/2-y,1/2-z
1/2+x,1/2+y,1/2-z
1/2-x,1/2+y,1/2+z
1/2+x,1/2-y,1/2+z
loop_
_atom_site_type_symbol
_atom_site_label
_atom_site_fract_x
_atom_site_fract_y
_atom_site_fract_z
Si Si1 0.749292 0.950318 0.124038
Si Si2 0.367356 0.224543 0.500000
Si Si3 0.795627 0.701900 0.224433
Si Si4 0.000000 0.427026 0.380846
Si Si5 0.500000 0.176685 0.123241
Si Si6 0.864978 0.820114 0.000000
Si Si7 0.133908 0.868960 0.792731
O O1 0.619266 0.944167 0.158362
O O2 0.822512 0.917362 0.191312
O O3 0.782471 0.000000 0.136310
O O4 0.757222 0.940581 0.000000
O O5 0.500000 0.230051 0.500000
O O6 0.339731 0.203173 0.608038
O O7 0.314726 0.272642 0.500000
O O8 0.750000 0.750000 0.250000
O O9 0.702313 0.663990 0.221940
O O10 0.891677 0.691954 0.310074
O O11 0.000000 0.440245 0.500000
O O12 0.000000 0.375344 0.374718
O O13 0.500000 0.188817 0.000000
O O14 0.835963 0.846911 0.901227
O O15 0.000000 0.816840 0.000000
O O16 0.000000 0.867682 0.775316
#
# Coordination Sequence:
#
# PCOD9519258 Si02
#       7
#    16   8  16   8   8   8  16
#     4  10  19  31  51  80 115 152 188 231 287 352
#     4  11  22  40  57  82 112 152 201 241 288 336
#     4  12  25  38  59  83 115 154 196 244 289 337
#     4   9  17  32  52  79 114 148 183 231 286 341
#     4  11  24  38  59  88 116 155 199 235 283 343
#     4   9  18  32  51  72 108 150 190 227 273 335
#     4  11  22  36  53  78 113 154 192 233 285 342
#
# _framework density 16.650079999999999
#
# number of rings (size 3 to 8) (size 9 to 14) (size 15 to 20)
#    0.000    1.400    6.000    0.300    4.200    1.600 
#    0.000    1.500    0.000    0.000    0.000    0.700 
#    0.000    4.000    0.000    0.000    0.000    0.000 
#
# Total GULP energy -222765.909899 kJ/mol
# GULP energy per Si atom -5569.147747 kJ/mol
# Density = 1.661218 g / cm^3
# Si number density = 16.650080 Si / 1000 Ang^3
#
#
#
# Elastic Constant Matrix: (Units=GPa)
#
#
# Indices 1 2 3 4 5 6 
#
# 1 96.5182 54.5646 27.8700 0.0004 -0.0001 0.0000
# 2 54.5646 115.6516 29.0634 -0.0001 -0.0001 0.0000
# 3 27.8700 29.0634 80.5929 0.0025 0.0002 0.0000
# 4 0.0004 -0.0001 0.0025 -38.9975 0.0002 0.0001
# 5 -0.0001 -0.0001 0.0002 0.0002 24.6024 0.0001
# 6 0.0000 0.0000 0.0000 0.0001 0.0001 25.8292
#
#
#
# Elastic Compliance Matrix: (Units=1/GPa)
#
#
# Indices 1 2 3 4 5 6 
#
# 1 0.014697 -0.006221 -0.002839 0.000000 0.000000 0.000000
# 2 -0.006221 0.012141 -0.002227 0.000000 0.000000 0.000000
# 3 -0.002839 -0.002227 0.014193 0.000001 0.000000 0.000000
# 4 0.000000 0.000000 0.000001 -0.025643 0.000000 0.000000
# 5 0.000000 0.000000 0.000000 0.000000 0.040646 0.000000
# 6 0.000000 0.000000 0.000000 0.000000 0.000000 0.038716
#
#
# Mechanical properties :
#
#
# Convention : Reuss Voigt Hill
#
# Bulk Modulus (GPa) = 54.17870 57.30652 55.74261
# Shear Modulus (GPa) = 40.49309 14.37116 27.43212
#
# Velocity S-wave (km/s) = 4.93689 2.94109 4.06343
# Velocity P-wave (km/s) = 8.06891 6.78426 7.45432
#
# Compressibility (1/GPa) = 0.01845744
#
# Stress axis : x y z
#
# Youngs Moduli (GPa) = 68.03962 82.36353 70.45711
#
# Poissons Ratio (x) = 0.51236 0.20004
# Poissons Ratio (y) = 0.42326 0.15692
# Poissons Ratio (z) = 0.19318 0.18344
#
# Static dielectric constant tensor:
#      x y z
#    x 1.599630 0.000000 0.000000 
#    y 0.000000 1.584710 0.000000 
#    z 0.000000 0.000000 1.610090 
# 
# From -- ./inp_files/20211.got.cif
#   From: 2010.05.17/outbox.cif.g08.bks.cpg/sg71_11_cif.got.tgz:20211.got - 2010.06.03 16:22:01.
