data_PCOD9519026
_publ_section_title
;
Structure prediction by ZEFSAII (Michael W. Deem and Ramdas Pophale) SiO2 
 PCOD9519026
Probable space group: I M M M
;
_chemical_formula_sum "Si O2"
_cell_formula_units_Z 88
_cell_length_a 25.767618
_cell_length_b 15.689498
_cell_length_c 13.940429
_cell_angle_alpha 90.000000
_cell_angle_beta 90.000000
_cell_angle_gamma 90.000000
_cell_volume 5635.850452
_symmetry_space_group_name_H-M "I M M M"
_symmetry_group_IT_number 71
_symmetry_cell_setting 'orthorhombic'
loop_
_space_group_symop_operation_xyz
x,y,z
-x,-y,z
x,-y,-z
-x,y,-z
-x,-y,-z
x,y,-z
-x,y,z
x,-y,z
1/2+x,1/2+y,1/2+z
1/2-x,1/2-y,1/2+z
1/2+x,1/2-y,1/2-z
1/2-x,1/2+y,1/2-z
1/2-x,1/2-y,1/2-z
1/2+x,1/2+y,1/2-z
1/2-x,1/2+y,1/2+z
1/2+x,1/2-y,1/2+z
loop_
_atom_site_type_symbol
_atom_site_label
_atom_site_fract_x
_atom_site_fract_y
_atom_site_fract_z
Si Si1 0.392829 0.900634 0.216998
Si Si2 0.715693 0.594857 0.189003
Si Si3 0.205510 0.163904 0.894166
Si Si4 0.500000 0.102515 0.888480
Si Si5 0.829937 0.647492 0.886786
Si Si6 0.676968 0.233387 0.893501
O O1 0.448976 0.876916 0.174158
O O2 0.378891 0.889905 0.329322
O O3 0.353711 0.833910 0.169274
O O4 0.382905 0.000000 0.191290
O O5 0.703259 0.500000 0.155307
O O6 0.705742 0.603069 0.302885
O O7 0.776085 0.613760 0.161280
O O8 0.681780 0.670508 0.143816
O O9 0.171463 0.249319 0.878283
O O10 0.263902 0.200808 0.896746
O O11 0.193889 0.127798 0.000000
O O12 0.500000 0.000000 0.896482
O O13 0.500000 0.134627 0.000000
O O14 0.829023 0.626870 0.000000
O O15 0.654797 0.232501 0.000000
#
# Coordination Sequence:
#
# PCOD9519026 Si02
#       6
#    16  16  16   8  16  16
#     4  11  20  33  52  72  95 124 161 202 244 289
#     4  11  19  30  46  69 103 134 163 196 233 278
#     4   9  17  30  46  67  98 129 162 203 235 271
#     4   9  20  36  51  71  96 120 152 201 255 295
#     4  10  19  32  49  68  97 134 165 194 235 285
#     4  10  19  31  47  68  95 127 164 197 231 282
#
# _framework density 15.614324999999999
#
# number of rings (size 3 to 8) (size 9 to 14) (size 15 to 20)
#    0.000    1.909    3.636    3.818    0.000    4.000 
#    0.000    2.273    0.000    1.636    0.000    0.636 
#    0.000    2.182    0.000    4.000    0.000    0.000 
#
# Total GULP energy -244964.839729 kJ/mol
# GULP energy per Si atom -5567.382721 kJ/mol
# Density = 1.557879 g / cm^3
# Si number density = 15.614325 Si / 1000 Ang^3
#
#
#
# Elastic Constant Matrix: (Units=GPa)
#
#
# Indices 1 2 3 4 5 6 
#
# 1 55.0191 22.8977 26.7719 0.0000 0.0000 0.0000
# 2 22.8977 69.1079 25.6916 0.0000 0.0000 0.0000
# 3 26.7719 25.6916 103.6187 0.0000 0.0000 0.0000
# 4 0.0000 0.0000 0.0000 12.1504 0.0000 0.0000
# 5 0.0000 0.0000 0.0000 0.0000 11.7836 0.0000
# 6 0.0000 0.0000 0.0000 0.0000 0.0000 13.9797
#
#
#
# Elastic Compliance Matrix: (Units=1/GPa)
#
#
# Indices 1 2 3 4 5 6 
#
# 1 0.022785 -0.005905 -0.004423 0.000000 0.000000 0.000000
# 2 -0.005905 0.017470 -0.002806 0.000000 0.000000 0.000000
# 3 -0.004423 -0.002806 0.011489 0.000000 0.000000 0.000000
# 4 0.000000 0.000000 0.000000 0.082302 0.000000 0.000000
# 5 0.000000 0.000000 0.000000 0.000000 0.084864 0.000000
# 6 0.000000 0.000000 0.000000 0.000000 0.000000 0.071532
#
#
# Mechanical properties :
#
#
# Convention : Reuss Voigt Hill
#
# Bulk Modulus (GPa) = 39.25191 42.05200 40.65196
# Shear Modulus (GPa) = 15.37506 17.74171 16.55839
#
# Velocity S-wave (km/s) = 3.14136 3.37448 3.26001
# Velocity P-wave (km/s) = 6.19278 6.49407 6.34521
#
# Compressibility (1/GPa) = 0.02547646
#
# Stress axis : x y z
#
# Youngs Moduli (GPa) = 43.88802 57.24164 87.03841
#
# Poissons Ratio (x) = 0.33803 0.38496
# Poissons Ratio (y) = 0.25917 0.24421
# Poissons Ratio (z) = 0.19411 0.16061
#
# Static dielectric constant tensor:
#      x y z
#    x 1.495520 0.000000 0.000000 
#    y 0.000000 1.534980 0.000000 
#    z 0.000000 0.000000 1.599250 
# 
# From -- ./inp_files/39118.got.cif
#   From: 2010.05.17/outbox.cif.g08.bks.cpg/sg71_20_cif.got.tgz:39118.got - 2010.06.03 16:22:01.
