data_PCOD9519581
_publ_section_title
;
Structure prediction by ZEFSAII (Michael W. Deem and Ramdas Pophale) SiO2 
 PCOD9519581
Probable space group: I M M M
;
_chemical_formula_sum "Si O2"
_cell_formula_units_Z 96
_cell_length_a 25.800276
_cell_length_b 24.870384
_cell_length_c 8.516605
_cell_angle_alpha 90.000000
_cell_angle_beta 90.000000
_cell_angle_gamma 90.000000
_cell_volume 5464.788367
_symmetry_space_group_name_H-M "I M M M"
_symmetry_group_IT_number 71
_symmetry_cell_setting 'orthorhombic'
loop_
_space_group_symop_operation_xyz
x,y,z
-x,-y,z
x,-y,-z
-x,y,-z
-x,-y,-z
x,y,-z
-x,y,z
x,-y,z
1/2+x,1/2+y,1/2+z
1/2-x,1/2-y,1/2+z
1/2+x,1/2-y,1/2-z
1/2-x,1/2+y,1/2-z
1/2-x,1/2-y,1/2-z
1/2+x,1/2+y,1/2-z
1/2-x,1/2+y,1/2+z
1/2+x,1/2-y,1/2+z
loop_
_atom_site_type_symbol
_atom_site_label
_atom_site_fract_x
_atom_site_fract_y
_atom_site_fract_z
Si Si1 0.112672 0.100542 0.811800
Si Si2 0.213957 0.500000 0.683708
Si Si3 0.174757 0.000000 0.317338
Si Si4 0.311386 0.310958 0.187646
Si Si5 0.500000 0.562801 0.690291
Si Si6 0.301725 0.186306 0.812924
Si Si7 0.440836 0.000000 0.308394
Si Si8 0.140413 0.411011 0.186988
O O1 0.143229 0.154438 0.765814
O O2 0.052387 0.094116 0.765106
O O3 0.141919 0.052273 0.725147
O O4 0.116074 0.093029 0.000000
O O5 0.200997 0.500000 0.500000
O O6 0.274564 0.500000 0.710769
O O7 0.188656 0.551484 0.765703
O O8 0.189542 0.000000 0.500000
O O9 0.313445 0.247931 0.233102
O O10 0.253676 0.329826 0.237970
O O11 0.315727 0.315320 0.000000
O O12 0.500000 0.500000 0.744910
O O13 0.500000 0.560040 0.500000
O O14 0.347250 0.146270 0.761922
O O15 0.295478 0.184292 0.000000
O O16 0.409016 0.946626 0.259878
O O17 0.500000 0.000000 0.255292
O O18 0.440356 0.000000 0.500000
O O19 0.137584 0.405252 0.000000
#
# Coordination Sequence:
#
# PCOD9519581 Si02
#       8
#    16   8   8  16   8  16   8  16
#     4  11  21  36  57  78 102 136 178 221 266 313
#     4  11  21  33  49  73 107 143 175 208 257 318
#     4  12  23  34  49  74 108 138 171 215 263 317
#     4  10  21  36  54  79 109 140 176 218 260 310
#     4   9  18  36  58  78 102 134 176 223 266 309
#     4  10  20  35  55  78 108 144 177 210 257 317
#     4   8  16  32  54  79 104 133 170 214 261 305
#     4  10  19  32  53  79 107 137 171 217 262 307
#
# _framework density 17.567011999999998
#
# number of rings (size 3 to 8) (size 9 to 14) (size 15 to 20)
#    0.000    1.833    0.833    5.000    0.000    2.000 
#    0.000    2.083    1.833    9.000    0.000    0.000 
#    0.000    0.000    0.000    0.000    0.000    0.000 
#
# Total GULP energy -267890.846381 kJ/mol
# GULP energy per Si atom -5581.059300 kJ/mol
# Density = 1.752703 g / cm^3
# Si number density = 17.567012 Si / 1000 Ang^3
#
#
#
# Elastic Constant Matrix: (Units=GPa)
#
#
# Indices 1 2 3 4 5 6 
#
# 1 117.3742 51.2454 -1.5669 0.0000 0.0000 0.0000
# 2 51.2454 91.6224 10.9555 0.0000 0.0000 0.0000
# 3 -1.5669 10.9555 24.8106 0.0000 0.0000 0.0000
# 4 0.0000 0.0000 0.0000 28.1461 0.0000 0.0000
# 5 0.0000 0.0000 0.0000 0.0000 20.6853 0.0000
# 6 0.0000 0.0000 0.0000 0.0000 0.0000 -550.3284
#
#
#
# Elastic Compliance Matrix: (Units=1/GPa)
#
#
# Indices 1 2 3 4 5 6 
#
# 1 0.011602 -0.006943 0.003799 0.000000 0.000000 0.000000
# 2 -0.006943 0.015678 -0.007361 0.000000 0.000000 0.000000
# 3 0.003799 -0.007361 0.043796 0.000000 0.000000 0.000000
# 4 0.000000 0.000000 0.000000 0.035529 0.000000 0.000000
# 5 0.000000 0.000000 0.000000 0.000000 0.048344 0.000000
# 6 0.000000 0.000000 0.000000 0.000000 0.000000 -0.001817
#
#
# Mechanical properties :
#
#
# Convention : Reuss Voigt Hill
#
# Bulk Modulus (GPa) = 19.97456 39.45281 29.71368
# Shear Modulus (GPa) = 26.20117 -88.75452 -31.27667
#
# Velocity S-wave (km/s) = 3.86618 -7.11569 -4.22408
# Velocity P-wave (km/s) = 5.59687 6.70847 2.61520
#
# Compressibility (1/GPa) = 0.05006368
#
# Stress axis : x y z
#
# Youngs Moduli (GPa) = 86.19289 63.78358 22.83321
#
# Poissons Ratio (x) = 0.44287 -0.08673
# Poissons Ratio (y) = 0.59846 0.16808
# Poissons Ratio (z) = -0.32741 0.46954
#
# Static dielectric constant tensor:
#      x y z
#    x 1.583290 0.000000 0.000000 
#    y 0.000000 1.607310 0.000000 
#    z 0.000000 0.000000 1.593150 
# 
# From -- ./inp_files/12963.got.cif
#   From: 2010.05.17/outbox.cif.g08.bks.cpg/sg71_7_cif.got.tgz:12963.got - 2010.06.03 16:22:01.
