data_PCOD9519084
_publ_section_title
;
Structure prediction by ZEFSAII (Michael W. Deem and Ramdas Pophale) SiO2 
 PCOD9519084
Probable space group: I M M M
;
_chemical_formula_sum "Si O2"
_cell_formula_units_Z 104
_cell_length_a 22.919881
_cell_length_b 9.032505
_cell_length_c 30.230977
_cell_angle_alpha 90.000000
_cell_angle_beta 90.000000
_cell_angle_gamma 90.000000
_cell_volume 6258.535960
_symmetry_space_group_name_H-M "I M M M"
_symmetry_group_IT_number 71
_symmetry_cell_setting 'orthorhombic'
loop_
_space_group_symop_operation_xyz
x,y,z
-x,-y,z
x,-y,-z
-x,y,-z
-x,-y,-z
x,y,-z
-x,y,z
x,-y,z
1/2+x,1/2+y,1/2+z
1/2-x,1/2-y,1/2+z
1/2+x,1/2-y,1/2-z
1/2-x,1/2+y,1/2-z
1/2-x,1/2-y,1/2-z
1/2+x,1/2+y,1/2-z
1/2-x,1/2+y,1/2+z
1/2+x,1/2-y,1/2+z
loop_
_atom_site_type_symbol
_atom_site_label
_atom_site_fract_x
_atom_site_fract_y
_atom_site_fract_z
Si Si1 0.274831 0.824062 0.551657
Si Si2 0.348562 0.176609 0.051736
Si Si3 0.429778 0.675364 0.693266
Si Si4 0.500000 0.324860 0.447138
Si Si5 0.892332 0.677657 0.896417
Si Si6 0.569273 0.676258 0.876412
Si Si7 0.429135 0.170546 0.784730
O O1 0.289631 0.796192 0.500000
O O2 0.216337 0.734942 0.562320
O O3 0.329914 0.786534 0.581960
O O4 0.263097 0.000000 0.556040
O O5 0.394636 0.254020 0.083667
O O6 0.351396 0.000000 0.056809
O O7 0.359535 0.212775 0.000000
O O8 0.500000 0.697068 0.688512
O O9 0.418906 0.500000 0.692056
O O10 0.399478 0.757449 0.652590
O O11 0.411559 0.743562 0.740357
O O12 0.500000 0.500000 0.436542
O O13 0.500000 0.307303 0.500000
O O14 0.443299 0.249435 0.425903
O O15 0.899164 0.500000 0.895927
O O16 0.500000 0.705412 0.881927
O O17 0.577423 0.500000 0.874627
O O18 0.588460 0.748701 0.829915
O O19 0.500000 0.170961 0.784654
O O20 0.409856 0.000000 0.783986
#
# Coordination Sequence:
#
# PCOD9519084 Si02
#       7
#    16  16  16   8  16  16  16
#     4   9  19  36  55  74  98 133 177 220 261 309
#     4  10  21  36  55  79 106 138 175 214 255 303
#     4  10  19  31  48  72 105 139 174 215 263 314
#     4  11  23  35  47  69 103 139 173 217 274 325
#     4  11  21  33  52  75 101 134 176 222 267 315
#     4  10  20  34  54  81 111 141 172 207 254 307
#     4   9  17  30  50  75 104 137 173 212 255 305
#
# _framework density 16.617304000000001
#
# number of rings (size 3 to 8) (size 9 to 14) (size 15 to 20)
#    0.000    2.077    0.769    3.000    0.000    7.077 
#    0.000    3.077    0.000    0.923    0.000    0.000 
#    0.000    0.000    0.000    0.000    0.000    0.000 
#
# Total GULP energy -290249.275254 kJ/mol
# GULP energy per Si atom -5581.716832 kJ/mol
# Density = 1.657948 g / cm^3
# Si number density = 16.617304 Si / 1000 Ang^3
#
#
#
# Elastic Constant Matrix: (Units=GPa)
#
#
# Indices 1 2 3 4 5 6 
#
# 1 71.7172 65.0101 78.5871 0.0000 0.0000 0.0000
# 2 65.0101 103.8517 88.3082 0.0000 0.0000 0.0000
# 3 78.5871 88.3082 143.2229 0.0000 0.0000 0.0000
# 4 0.0000 0.0000 0.0000 34.5105 0.0000 0.0000
# 5 0.0000 0.0000 0.0000 0.0000 9.2548 0.0000
# 6 0.0000 0.0000 0.0000 0.0000 0.0000 20.5717
#
#
#
# Elastic Compliance Matrix: (Units=1/GPa)
#
#
# Indices 1 2 3 4 5 6 
#
# 1 0.043387 -0.014539 -0.014842 0.000000 0.000000 0.000000
# 2 -0.014539 0.025114 -0.007507 0.000000 0.000000 0.000000
# 3 -0.014842 -0.007507 0.019755 0.000000 0.000000 0.000000
# 4 0.000000 0.000000 0.000000 0.028977 0.000000 0.000000
# 5 0.000000 0.000000 0.000000 0.000000 0.108052 0.000000
# 6 0.000000 0.000000 0.000000 0.000000 0.000000 0.048610
#
#
# Mechanical properties :
#
#
# Convention : Reuss Voigt Hill
#
# Bulk Modulus (GPa) = 69.06510 86.95583 78.01046
# Shear Modulus (GPa) = 14.18450 18.65981 16.42216
#
# Velocity S-wave (km/s) = 2.92481 3.35463 3.14706
# Velocity P-wave (km/s) = 7.28412 8.21260 7.76225
#
# Compressibility (1/GPa) = 0.01447909
#
# Stress axis : x y z
#
# Youngs Moduli (GPa) = 23.04846 39.81875 50.62072
#
# Poissons Ratio (x) = 0.57892 0.75132
# Poissons Ratio (y) = 0.33510 0.38001
# Poissons Ratio (z) = 0.34209 0.29892
#
# Static dielectric constant tensor:
#      x y z
#    x 1.527730 0.000000 0.000000 
#    y 0.000000 1.552630 0.000000 
#    z 0.000000 0.000000 1.546810 
# 
# From -- ./inp_files/17049.got.cif
#   From: 2010.05.17/outbox.cif.g08.bks.cpg/sg71_9_cif.got.tgz:17049.got - 2010.06.03 16:22:01.
