data_PCOD9519547
_publ_section_title
;
Structure prediction by ZEFSAII (Michael W. Deem and Ramdas Pophale) SiO2 
 PCOD9519547
Probable space group: I M M M
;
_chemical_formula_sum "Si O2"
_cell_formula_units_Z 90
_cell_length_a 7.773947
_cell_length_b 21.591502
_cell_length_c 28.655395
_cell_angle_alpha 90.000000
_cell_angle_beta 90.000000
_cell_angle_gamma 90.000000
_cell_volume 4809.842214
_symmetry_space_group_name_H-M "I M M M"
_symmetry_group_IT_number 71
_symmetry_cell_setting 'orthorhombic'
loop_
_space_group_symop_operation_xyz
x,y,z
-x,-y,z
x,-y,-z
-x,y,-z
-x,-y,-z
x,y,-z
-x,y,z
x,-y,z
1/2+x,1/2+y,1/2+z
1/2-x,1/2-y,1/2+z
1/2+x,1/2-y,1/2-z
1/2-x,1/2+y,1/2-z
1/2-x,1/2-y,1/2-z
1/2+x,1/2+y,1/2-z
1/2-x,1/2+y,1/2+z
1/2+x,1/2-y,1/2+z
loop_
_atom_site_type_symbol
_atom_site_label
_atom_site_fract_x
_atom_site_fract_y
_atom_site_fract_z
Si Si1 0.792123 0.702266 0.687317
Si Si2 0.706292 0.797138 0.083275
Si Si3 0.204655 0.569838 0.134210
Si Si4 0.709066 0.108376 0.000000
Si Si5 0.702801 0.660423 0.215000
Si Si6 0.500000 0.500000 0.500000
Si Si7 0.295062 0.841313 0.447599
O O1 0.732910 0.686152 0.635351
O O2 0.736811 0.658515 0.729775
O O3 0.728413 0.772245 0.698401
O O4 0.000000 0.703176 0.688052
O O5 0.500000 0.791863 0.085292
O O6 0.769771 0.729556 0.068034
O O7 0.744737 0.848718 0.045076
O O8 0.274976 0.500000 0.134839
O O9 0.228119 0.605893 0.182848
O O10 0.275230 0.612581 0.092128
O O11 0.000000 0.565370 0.126920
O O12 0.845329 0.053362 0.000000
O O13 0.500000 0.093069 0.000000
O O14 0.500000 0.661482 0.207334
O O15 0.224544 0.850261 0.500000
O O16 0.500000 0.851557 0.450042
#
# Coordination Sequence:
#
# PCOD9519547 Si02
#       7
#    16  16  16   8  16   2  16
#     4   9  18  32  53  81 112 141 179 231 295 343
#     4  10  19  34  58  88 117 148 185 239 293 344
#     4  10  21  36  53  74 109 159 201 236 288 351
#     4  10  23  41  65  94 122 158 203 240 293 363
#     4  10  19  32  52  80 107 141 184 236 288 338
#     4  12  26  44  68  90 124 168 192 240 288 378
#     4  10  20  32  52  82 115 147 192 247 289 336
#
# _framework density 18.711632999999999
#
# number of rings (size 3 to 8) (size 9 to 14) (size 15 to 20)
#    0.000    2.133    2.667    0.667    1.244    2.133 
#    0.000    1.778    1.956    0.000    0.000    2.489 
#    0.000    0.000    0.000    0.000    0.000    0.000 
#
# Total GULP energy -250714.802647 kJ/mol
# GULP energy per Si atom -5571.440059 kJ/mol
# Density = 1.866904 g / cm^3
# Si number density = 18.711633 Si / 1000 Ang^3
#
#
#
# Elastic Constant Matrix: (Units=GPa)
#
#
# Indices 1 2 3 4 5 6 
#
# 1 39.4355 33.6870 21.5953 0.0000 0.0000 0.0000
# 2 33.6870 135.6881 83.7909 0.0000 0.0000 0.0000
# 3 21.5953 83.7909 173.1684 0.0000 0.0000 0.0000
# 4 0.0000 0.0000 0.0000 -59.0944 0.0000 0.0000
# 5 0.0000 0.0000 0.0000 0.0000 12.5047 0.0000
# 6 0.0000 0.0000 0.0000 0.0000 0.0000 16.6152
#
#
#
# Elastic Compliance Matrix: (Units=1/GPa)
#
#
# Indices 1 2 3 4 5 6 
#
# 1 0.032189 -0.007862 -0.000210 0.000000 0.000000 0.000000
# 2 -0.007862 0.012430 -0.005034 0.000000 0.000000 0.000000
# 3 -0.000210 -0.005034 0.008237 0.000000 0.000000 0.000000
# 4 0.000000 0.000000 0.000000 -0.016922 0.000000 0.000000
# 5 0.000000 0.000000 0.000000 0.000000 0.079970 0.000000
# 6 0.000000 0.000000 0.000000 0.000000 0.000000 0.060186
#
#
# Mechanical properties :
#
#
# Convention : Reuss Voigt Hill
#
# Bulk Modulus (GPa) = 37.53228 69.60428 53.56828
# Shear Modulus (GPa) = 23.67613 7.95302 15.81458
#
# Velocity S-wave (km/s) = 3.56099 2.06386 2.91034
# Velocity P-wave (km/s) = 6.08353 6.55428 6.32328
#
# Compressibility (1/GPa) = 0.02664373
#
# Stress axis : x y z
#
# Youngs Moduli (GPa) = 31.06694 80.44759 121.40520
#
# Poissons Ratio (x) = 0.63245 0.02551
# Poissons Ratio (y) = 0.24424 0.61119
# Poissons Ratio (z) = 0.00653 0.40500
#
# Static dielectric constant tensor:
#      x y z
#    x 1.678610 0.000000 0.000000 
#    y 0.000000 1.617120 0.000000 
#    z 0.000000 0.000000 1.673950 
# 
# From -- ./inp_files/63228.got.cif
#   From: 2010.05.17/outbox.cif.g08.bks.cpg/sg71_32_cif.got.tgz:63228.got - 2010.06.03 16:22:01.
