data_PCOD9519499
_publ_section_title
;
Structure prediction by ZEFSAII (Michael W. Deem and Ramdas Pophale) SiO2 
 PCOD9519499
Probable space group: I M M M
;
_chemical_formula_sum "Si O2"
_cell_formula_units_Z 80
_cell_length_a 22.054520
_cell_length_b 7.347541
_cell_length_c 19.640221
_cell_angle_alpha 90.000000
_cell_angle_beta 90.000000
_cell_angle_gamma 90.000000
_cell_volume 3182.628875
_symmetry_space_group_name_H-M "I M M M"
_symmetry_group_IT_number 71
_symmetry_cell_setting 'orthorhombic'
loop_
_space_group_symop_operation_xyz
x,y,z
-x,-y,z
x,-y,-z
-x,y,-z
-x,-y,-z
x,y,-z
-x,y,z
x,-y,z
1/2+x,1/2+y,1/2+z
1/2-x,1/2-y,1/2+z
1/2+x,1/2-y,1/2-z
1/2-x,1/2+y,1/2-z
1/2-x,1/2-y,1/2-z
1/2+x,1/2+y,1/2-z
1/2-x,1/2+y,1/2+z
1/2+x,1/2-y,1/2+z
loop_
_atom_site_type_symbol
_atom_site_label
_atom_site_fract_x
_atom_site_fract_y
_atom_site_fract_z
Si Si1 0.241912 0.778502 0.924301
Si Si2 0.831829 0.703005 0.313913
Si Si3 0.431236 0.280222 0.921812
Si Si4 0.434596 0.211386 0.723048
Si Si5 0.100134 0.780713 0.073945
O O1 0.276600 0.712137 0.856737
O O2 0.171202 0.731148 0.921562
O O3 0.246605 0.000000 0.923358
O O4 0.264965 0.720722 0.000000
O O5 0.812276 0.500000 0.291819
O O6 0.882678 0.695317 0.372712
O O7 0.871876 0.790406 0.253562
O O8 0.500000 0.227688 0.905040
O O9 0.427184 0.500000 0.916272
O O10 0.420058 0.231447 0.000000
O O11 0.500000 0.290482 0.744768
O O12 0.431566 0.216529 0.641856
O O13 0.434277 0.000000 0.744222
O O14 0.096553 0.000000 0.074546
O O15 0.077238 0.719308 0.000000
#
# Coordination Sequence:
#
# PCOD9519499 Si02
#       5
#    16  16  16  16  16
#     4   8  15  30  53  80 107 133 165 211 260 298
#     4  10  19  32  52  76 103 137 174 207 246 305
#     4   9  18  31  45  65  98 138 177 218 260 295
#     4  10  22  37  51  74 109 141 170 212 262 304
#     4   9  19  37  59  80 101 128 168 216 262 313
#
# _framework density 25.136454000000001
#
# number of rings (size 3 to 8) (size 9 to 14) (size 15 to 20)
#    0.000    2.800    0.000    3.000    0.000    5.200 
#    0.000    4.000    0.000    1.200    0.000    0.000 
#    0.000    0.000    0.000    0.000    0.000    0.000 
#
# Total GULP energy -223412.326568 kJ/mol
# GULP energy per Si atom -5585.308164 kJ/mol
# Density = 2.507924 g / cm^3
# Si number density = 25.136454 Si / 1000 Ang^3
#
#
#
# Elastic Constant Matrix: (Units=GPa)
#
#
# Indices 1 2 3 4 5 6 
#
# 1 76.8589 -0.0220 38.6358 0.0000 0.0000 0.0000
# 2 -0.0220 93.5121 -0.2642 0.0000 0.0000 0.0000
# 3 38.6358 -0.2642 139.8254 0.0000 0.0000 0.0000
# 4 0.0000 0.0000 0.0000 32.0446 0.0000 0.0000
# 5 0.0000 0.0000 0.0000 0.0000 38.9264 0.0000
# 6 0.0000 0.0000 0.0000 0.0000 0.0000 -6.6012
#
#
#
# Elastic Compliance Matrix: (Units=1/GPa)
#
#
# Indices 1 2 3 4 5 6 
#
# 1 0.015110 -0.000008 -0.004175 0.000000 0.000000 0.000000
# 2 -0.000008 0.010694 0.000022 0.000000 0.000000 0.000000
# 3 -0.004175 0.000022 0.008305 0.000000 0.000000 0.000000
# 4 0.000000 0.000000 0.000000 0.031207 0.000000 0.000000
# 5 0.000000 0.000000 0.000000 0.000000 0.025690 0.000000
# 6 0.000000 0.000000 0.000000 0.000000 0.000000 -0.151488
#
#
# Mechanical properties :
#
#
# Convention : Reuss Voigt Hill
#
# Bulk Modulus (GPa) = 38.77873 42.98839 40.88356
# Shear Modulus (GPa) = -114.76779 30.99708 -41.88535
#
# Velocity S-wave (km/s) = -6.76439 3.51544 -4.08649
# Velocity P-wave (km/s) = 6.74897 5.79801 2.44251
#
# Compressibility (1/GPa) = 0.02578733
#
# Stress axis : x y z
#
# Youngs Moduli (GPa) = 66.18330 93.51157 120.40314
#
# Poissons Ratio (x) = 0.00077 0.50268
# Poissons Ratio (y) = 0.00055 -0.00271
# Poissons Ratio (z) = 0.27632 -0.00210
#
# Static dielectric constant tensor:
#      x y z
#    x 2.001650 0.000000 0.000000 
#    y 0.000000 1.976530 0.000000 
#    z 0.000000 0.000000 1.986790 
# 
# From -- ./inp_files/38955.got.cif
#   From: 2010.05.17/outbox.cif.g08.bks.cpg/sg71_20_cif.got.tgz:38955.got - 2010.06.03 16:22:01.
