data_PCOD9519313
_publ_section_title
;
Structure prediction by ZEFSAII (Michael W. Deem and Ramdas Pophale) SiO2 
 PCOD9519313
Probable space group: I M M M
;
_chemical_formula_sum "Si O2"
_cell_formula_units_Z 88
_cell_length_a 8.755198
_cell_length_b 19.464924
_cell_length_c 34.995991
_cell_angle_alpha 90.000000
_cell_angle_beta 90.000000
_cell_angle_gamma 90.000000
_cell_volume 5963.991018
_symmetry_space_group_name_H-M "I M M M"
_symmetry_group_IT_number 71
_symmetry_cell_setting 'orthorhombic'
loop_
_space_group_symop_operation_xyz
x,y,z
-x,-y,z
x,-y,-z
-x,y,-z
-x,-y,-z
x,y,-z
-x,y,z
x,-y,z
1/2+x,1/2+y,1/2+z
1/2-x,1/2-y,1/2+z
1/2+x,1/2-y,1/2-z
1/2-x,1/2+y,1/2-z
1/2-x,1/2-y,1/2-z
1/2+x,1/2+y,1/2-z
1/2-x,1/2+y,1/2+z
1/2+x,1/2-y,1/2+z
loop_
_atom_site_type_symbol
_atom_site_label
_atom_site_fract_x
_atom_site_fract_y
_atom_site_fract_z
Si Si1 0.681813 0.853419 0.456315
Si Si2 0.319292 0.354693 0.121354
Si Si3 0.315512 0.000000 0.650812
Si Si4 0.329375 0.500000 0.955098
Si Si5 0.178443 0.730837 0.188967
Si Si6 0.819135 0.352933 0.731912
Si Si7 0.813938 0.500000 0.240629
O O1 0.731400 0.834838 0.500000
O O2 0.500000 0.846065 0.454884
O O3 0.757951 0.822256 0.418528
O O4 0.731053 0.932312 0.449366
O O5 0.500000 0.363353 0.118546
O O6 0.246816 0.429513 0.132097
O O7 0.274125 0.303680 0.155458
O O8 0.500000 0.000000 0.648105
O O9 0.270858 0.000000 0.695807
O O10 0.500000 0.500000 0.936954
O O11 0.355172 0.500000 0.000000
O O12 0.197615 0.684327 0.226987
O O13 0.232249 0.806530 0.201237
O O14 0.000000 0.729755 0.178693
O O15 0.764393 0.430613 0.738280
O O16 0.000000 0.353154 0.722931
O O17 0.000000 0.500000 0.240493
#
# Coordination Sequence:
#
# PCOD9519313 Si02
#       7
#    16  16   8   8  16  16   8
#     4  10  20  33  47  61  79 109 147 185 228 276
#     4  12  23  33  46  66  90 117 151 193 234 273
#     4  11  20  34  48  64  88 118 154 194 236 273
#     4   9  16  27  42  59  80 105 137 179 223 264
#     4  10  19  32  48  66  90 121 152 185 227 272
#     4   9  17  31  49  68  90 117 151 187 228 271
#     4   9  16  30  50  68  88 118 151 189 231 270
#
# _framework density 14.75522
#
# number of rings (size 3 to 8) (size 9 to 14) (size 15 to 20)
#    0.000    1.909    1.818    3.818    0.000    2.909 
#    0.000    0.455    0.000    0.000    0.000    0.000 
#    0.000    0.000    0.000    0.818    0.000   15.818 
#
# Total GULP energy -245183.559403 kJ/mol
# GULP energy per Si atom -5572.353623 kJ/mol
# Density = 1.472164 g / cm^3
# Si number density = 14.755220 Si / 1000 Ang^3
#
#
#
# Elastic Constant Matrix: (Units=GPa)
#
#
# Indices 1 2 3 4 5 6 
#
# 1 65.0470 20.8148 35.5632 0.0000 0.0000 0.0000
# 2 20.8148 74.8242 30.4100 0.0000 0.0000 0.0000
# 3 35.5632 30.4100 76.4981 0.0000 0.0000 0.0000
# 4 0.0000 0.0000 0.0000 12.2150 0.0000 0.0000
# 5 0.0000 0.0000 0.0000 0.0000 20.9122 0.0000
# 6 0.0000 0.0000 0.0000 0.0000 0.0000 16.9038
#
#
#
# Elastic Compliance Matrix: (Units=1/GPa)
#
#
# Indices 1 2 3 4 5 6 
#
# 1 0.020919 -0.002227 -0.008840 0.000000 0.000000 0.000000
# 2 -0.002227 0.016177 -0.005396 0.000000 0.000000 0.000000
# 3 -0.008840 -0.005396 0.019327 0.000000 0.000000 0.000000
# 4 0.000000 0.000000 0.000000 0.081866 0.000000 0.000000
# 5 0.000000 0.000000 0.000000 0.000000 0.047819 0.000000
# 6 0.000000 0.000000 0.000000 0.000000 0.000000 0.059158
#
#
# Mechanical properties :
#
#
# Convention : Reuss Voigt Hill
#
# Bulk Modulus (GPa) = 42.55609 43.32726 42.94168
# Shear Modulus (GPa) = 17.48108 18.64496 18.06302
#
# Velocity S-wave (km/s) = 3.44574 3.55860 3.50262
# Velocity P-wave (km/s) = 6.68841 6.80534 6.74712
#
# Compressibility (1/GPa) = 0.02349840
#
# Stress axis : x y z
#
# Youngs Moduli (GPa) = 47.80333 61.81636 51.74187
#
# Poissons Ratio (x) = 0.13764 0.45739
# Poissons Ratio (y) = 0.10644 0.27918
# Poissons Ratio (z) = 0.42258 0.33354
#
# Static dielectric constant tensor:
#      x y z
#    x 1.506970 0.000000 0.000000 
#    y 0.000000 1.454180 0.000000 
#    z 0.000000 0.000000 1.528370 
# 
# From -- ./inp_files/68208.got.cif
#   From: 2010.05.17/outbox.cif.g08.bks.cpg/sg71_35_cif.got.tgz:68208.got - 2010.06.03 16:22:01.
