data_PCOD9519899
_publ_section_title
;
Structure prediction by ZEFSAII (Michael W. Deem and Ramdas Pophale) SiO2 
 PCOD9519899
Probable space group: I M M M
;
_chemical_formula_sum "Si O2"
_cell_formula_units_Z 104
_cell_length_a 14.027953
_cell_length_b 28.044396
_cell_length_c 14.445736
_cell_angle_alpha 90.000000
_cell_angle_beta 90.000000
_cell_angle_gamma 90.000000
_cell_volume 5683.031546
_symmetry_space_group_name_H-M "I M M M"
_symmetry_group_IT_number 71
_symmetry_cell_setting 'orthorhombic'
loop_
_space_group_symop_operation_xyz
x,y,z
-x,-y,z
x,-y,-z
-x,y,-z
-x,-y,-z
x,y,-z
-x,y,z
x,-y,z
1/2+x,1/2+y,1/2+z
1/2-x,1/2-y,1/2+z
1/2+x,1/2-y,1/2-z
1/2-x,1/2+y,1/2-z
1/2-x,1/2-y,1/2-z
1/2+x,1/2+y,1/2-z
1/2-x,1/2+y,1/2+z
1/2+x,1/2-y,1/2+z
loop_
_atom_site_type_symbol
_atom_site_label
_atom_site_fract_x
_atom_site_fract_y
_atom_site_fract_z
Si Si1 0.607694 0.330423 0.204288
Si Si2 0.885970 0.444406 0.243359
Si Si3 0.186893 0.260440 0.609268
Si Si4 0.766473 0.908955 0.389477
Si Si5 0.606763 0.500000 0.111885
Si Si6 0.385260 0.134704 0.107510
Si Si7 0.893088 0.787063 0.106494
O O1 0.500000 0.345051 0.177782
O O2 0.627596 0.276991 0.168123
O O3 0.686455 0.363112 0.157310
O O4 0.613563 0.327574 0.315398
O O5 0.859532 0.500000 0.257208
O O6 0.834485 0.423104 0.153553
O O7 0.858151 0.409608 0.327947
O O8 0.000000 0.442602 0.234305
O O9 0.164564 0.254442 0.500000
O O10 0.161909 0.314944 0.634537
O O11 0.300854 0.253877 0.621555
O O12 0.762972 0.903655 0.500000
O O13 0.835701 0.952844 0.363509
O O14 0.500000 0.500000 0.149267
O O15 0.601673 0.500000 0.000000
O O16 0.500000 0.140662 0.113495
O O17 0.361376 0.125624 0.000000
O O18 0.000000 0.765770 0.116621
O O19 0.884902 0.804087 0.000000
#
# Coordination Sequence:
#
# PCOD9519899 Si02
#       7
#    16  16  16  16   8  16  16
#     4  11  22  35  56  84 112 145 186 231 275 325
#     4  10  21  37  57  81 109 144 189 234 276 331
#     4  10  19  33  54  80 113 150 184 222 270 326
#     4  11  22  37  55  79 109 141 181 228 276 328
#     4   9  18  34  55  75  98 131 169 215 273 326
#     4   9  18  33  55  83 114 147 183 228 283 333
#     4   9  19  35  53  75 105 145 189 227 268 320
#
# _framework density 18.300093
#
# number of rings (size 3 to 8) (size 9 to 14) (size 15 to 20)
#    0.000    2.077    0.769    2.769    0.000    3.077 
#    0.000    4.615    0.000    1.846    0.000    0.000 
#    0.000    3.692    0.000    0.000    0.000    0.000 
#
# Total GULP energy -290001.731026 kJ/mol
# GULP energy per Si atom -5576.956366 kJ/mol
# Density = 1.825844 g / cm^3
# Si number density = 18.300093 Si / 1000 Ang^3
#
#
#
# Elastic Constant Matrix: (Units=GPa)
#
#
# Indices 1 2 3 4 5 6 
#
# 1 50.1137 24.9385 24.4775 0.0000 0.0000 0.0000
# 2 24.9385 76.6025 37.0524 0.0001 0.0000 0.0000
# 3 24.4775 37.0524 65.0520 0.0001 0.0001 0.0000
# 4 0.0000 0.0001 0.0001 15.8247 0.0000 0.0000
# 5 0.0000 0.0000 0.0001 0.0000 27.2621 0.0000
# 6 0.0000 0.0000 0.0000 0.0000 0.0000 23.7768
#
#
#
# Elastic Compliance Matrix: (Units=1/GPa)
#
#
# Indices 1 2 3 4 5 6 
#
# 1 0.025823 -0.005117 -0.006802 0.000000 0.000000 0.000000
# 2 -0.005117 0.019032 -0.008915 0.000000 0.000000 0.000000
# 3 -0.006802 -0.008915 0.023010 0.000000 0.000000 0.000000
# 4 0.000000 0.000000 0.000000 0.063192 0.000000 0.000000
# 5 0.000000 0.000000 0.000000 0.000000 0.036681 0.000000
# 6 0.000000 0.000000 0.000000 0.000000 0.000000 0.042058
#
#
# Mechanical properties :
#
#
# Convention : Reuss Voigt Hill
#
# Bulk Modulus (GPa) = 38.17215 40.52278 39.34746
# Shear Modulus (GPa) = 19.21615 20.39270 19.80443
#
# Velocity S-wave (km/s) = 3.24397 3.34181 3.29326
# Velocity P-wave (km/s) = 5.91062 6.08948 6.00072
#
# Compressibility (1/GPa) = 0.02619711
#
# Stress axis : x y z
#
# Youngs Moduli (GPa) = 38.72450 52.54176 43.45964
#
# Poissons Ratio (x) = 0.26884 0.29563
# Poissons Ratio (y) = 0.19814 0.38745
# Poissons Ratio (z) = 0.26342 0.46842
#
# Static dielectric constant tensor:
#      x y z
#    x 1.661280 0.000000 0.000000 
#    y 0.000000 1.611840 0.000000 
#    z 0.000000 0.000000 1.636570 
# 
# From -- ./inp_files/34848.got.cif
#   From: 2010.05.17/outbox.cif.g08.bks.cpg/sg71_18_cif.got.tgz:34848.got - 2010.06.03 16:22:01.
