data_PCOD9519415
_publ_section_title
;
Structure prediction by ZEFSAII (Michael W. Deem and Ramdas Pophale) SiO2 
 PCOD9519415
Probable space group: I M M M
;
_chemical_formula_sum "Si O2"
_cell_formula_units_Z 80
_cell_length_a 17.103702
_cell_length_b 28.718507
_cell_length_c 7.334793
_cell_angle_alpha 90.000000
_cell_angle_beta 90.000000
_cell_angle_gamma 90.000000
_cell_volume 3602.797406
_symmetry_space_group_name_H-M "I M M M"
_symmetry_group_IT_number 71
_symmetry_cell_setting 'orthorhombic'
loop_
_space_group_symop_operation_xyz
x,y,z
-x,-y,z
x,-y,-z
-x,y,-z
-x,-y,-z
x,y,-z
-x,y,z
x,-y,z
1/2+x,1/2+y,1/2+z
1/2-x,1/2-y,1/2+z
1/2+x,1/2-y,1/2-z
1/2-x,1/2+y,1/2-z
1/2-x,1/2-y,1/2-z
1/2+x,1/2+y,1/2-z
1/2-x,1/2+y,1/2+z
1/2+x,1/2-y,1/2+z
loop_
_atom_site_type_symbol
_atom_site_label
_atom_site_fract_x
_atom_site_fract_y
_atom_site_fract_z
Si Si1 0.650173 0.112585 0.280360
Si Si2 0.590673 0.500000 0.722997
Si Si3 0.500000 0.946356 0.722606
Si Si4 0.091489 0.813648 0.778304
Si Si5 0.673086 0.593446 0.286516
Si Si6 0.091587 0.710883 0.778525
O O1 0.646882 0.113502 0.500000
O O2 0.577427 0.081242 0.218748
O O3 0.733873 0.092540 0.229167
O O4 0.638846 0.165807 0.216025
O O5 0.500000 0.500000 0.773945
O O6 0.594045 0.500000 0.500000
O O7 0.633265 0.453110 0.787426
O O8 0.500000 0.946079 0.500000
O O9 0.500000 0.000000 0.780136
O O10 0.140362 0.857723 0.711477
O O11 0.117947 0.762167 0.717430
O O12 0.000000 0.819104 0.730442
O O13 0.094992 0.812823 0.000000
O O14 0.652355 0.594276 0.500000
O O15 0.000000 0.705187 0.729217
O O16 0.093791 0.710901 0.000000
#
# Coordination Sequence:
#
# PCOD9519415 Si02
#       6
#    16   8   8  16  16  16
#     4  10  19  32  51  73  97 125 160 198 238 281
#     4   9  18  34  55  72  93 128 166 197 229 277
#     4   9  18  32  51  71  91 125 169 202 226 272
#     4   8  14  26  47  71  94 123 162 200 232 274
#     4  10  20  32  48  74 101 123 154 199 244 283
#     4   8  13  25  46  70  93 122 162 201 230 268
#
# _framework density 22.204967
#
# number of rings (size 3 to 8) (size 9 to 14) (size 15 to 20)
#    0.000    3.000    1.000    1.800    1.400    3.200 
#    0.000    0.500    0.000    3.600    0.000    2.800 
#    0.000    0.000    0.000    0.000    0.000    0.000 
#
# Total GULP energy -223399.155670 kJ/mol
# GULP energy per Si atom -5584.978892 kJ/mol
# Density = 2.215443 g / cm^3
# Si number density = 22.204967 Si / 1000 Ang^3
#
#
#
# Elastic Constant Matrix: (Units=GPa)
#
#
# Indices 1 2 3 4 5 6 
#
# 1 128.7158 118.1318 -10.6747 0.0001 0.0006 -0.0002
# 2 118.1318 231.5824 7.1621 -0.0008 0.0003 0.0001
# 3 -10.6747 7.1621 83.9765 -0.0044 0.0030 -0.0037
# 4 0.0001 -0.0008 -0.0044 -20.6100 -0.0009 -0.0011
# 5 0.0006 0.0003 0.0030 -0.0009 -32.4611 0.0004
# 6 -0.0002 0.0001 -0.0037 -0.0011 0.0004 174.0666
#
#
#
# Elastic Compliance Matrix: (Units=1/GPa)
#
#
# Indices 1 2 3 4 5 6 
#
# 1 0.015150 -0.007808 0.002592 0.000000 0.000000 0.000000
# 2 -0.007808 0.008354 -0.001705 0.000000 0.000000 0.000000
# 3 0.002592 -0.001705 0.012383 -0.000003 0.000001 0.000000
# 4 0.000000 0.000000 -0.000003 -0.048520 0.000001 0.000000
# 5 0.000000 0.000000 0.000001 0.000001 -0.030806 0.000000
# 6 0.000000 0.000000 0.000000 0.000000 0.000000 0.005745
#
#
# Mechanical properties :
#
#
# Convention : Reuss Voigt Hill
#
# Bulk Modulus (GPa) = 45.36398 74.83477 60.09937
# Shear Modulus (GPa) = -302.98502 46.17614 -128.40444
#
# Velocity S-wave (km/s) = -11.69382 4.56515 -7.61265
# Velocity P-wave (km/s) = 12.72216 7.84617 7.08134
#
# Compressibility (1/GPa) = 0.02204392
#
# Stress axis : x y z
#
# Youngs Moduli (GPa) = 66.00478 119.70297 80.75608
#
# Poissons Ratio (x) = 0.93470 -0.20930
# Poissons Ratio (y) = 0.51540 0.13769
# Poissons Ratio (z) = -0.17107 0.20410
#
# Static dielectric constant tensor:
#      x y z
#    x 1.742450 0.000000 0.000000 
#    y 0.000000 1.809080 0.000000 
#    z 0.000000 0.000000 1.875840 
# 
# From -- ./inp_files/8393.got.cif
#   From: 2010.05.17/outbox.cif.g08.bks.cpg/sg71_5_cif.got.tgz:8393.got - 2010.06.03 16:22:01.
