data_PCOD9519582
_publ_section_title
;
Structure prediction by ZEFSAII (Michael W. Deem and Ramdas Pophale) SiO2 
 PCOD9519582
Probable space group: I M M M
;
_chemical_formula_sum "Si O2"
_cell_formula_units_Z 104
_cell_length_a 14.957635
_cell_length_b 20.970645
_cell_length_c 16.072756
_cell_angle_alpha 90.000000
_cell_angle_beta 90.000000
_cell_angle_gamma 90.000000
_cell_volume 5041.561524
_symmetry_space_group_name_H-M "I M M M"
_symmetry_group_IT_number 71
_symmetry_cell_setting 'orthorhombic'
loop_
_space_group_symop_operation_xyz
x,y,z
-x,-y,z
x,-y,-z
-x,y,-z
-x,-y,-z
x,y,-z
-x,y,z
x,-y,z
1/2+x,1/2+y,1/2+z
1/2-x,1/2-y,1/2+z
1/2+x,1/2-y,1/2-z
1/2-x,1/2+y,1/2-z
1/2-x,1/2-y,1/2-z
1/2+x,1/2+y,1/2-z
1/2-x,1/2+y,1/2+z
1/2+x,1/2-y,1/2+z
loop_
_atom_site_type_symbol
_atom_site_label
_atom_site_fract_x
_atom_site_fract_y
_atom_site_fract_z
Si Si1 0.396574 0.500000 0.601858
Si Si2 0.219381 0.120479 0.099962
Si Si3 0.599107 0.267606 0.597051
Si Si4 0.100886 0.373017 0.144823
Si Si5 0.216572 0.069928 0.399529
Si Si6 0.399387 0.834489 0.162605
Si Si7 0.105956 0.806425 0.598753
O O1 0.500000 0.500000 0.628685
O O2 0.398289 0.500000 0.500000
O O3 0.340892 0.438274 0.629058
O O4 0.171945 0.184831 0.132826
O O5 0.322351 0.122161 0.124253
O O6 0.217551 0.119687 0.000000
O O7 0.591269 0.284902 0.500000
O O8 0.500000 0.274911 0.635627
O O9 0.623147 0.193696 0.599916
O O10 0.180257 0.420993 0.125925
O O11 0.099115 0.352576 0.240917
O O12 0.000000 0.393292 0.120820
O O13 0.211009 0.070546 0.500000
O O14 0.161477 0.132208 0.371004
O O15 0.184165 0.000000 0.370961
O O16 0.500000 0.844018 0.128469
O O17 0.376568 0.760113 0.145838
O O18 0.126069 0.795679 0.500000
O O19 0.000000 0.819896 0.605397
#
# Coordination Sequence:
#
# PCOD9519582 Si02
#       7
#     8  16  16  16  16  16  16
#     4   9  18  34  55  79 107 137 171 210 258 320
#     4  10  19  32  53  79 107 140 176 217 265 313
#     4   9  17  30  51  79 106 132 169 220 274 324
#     4  10  21  36  53  76 105 140 180 225 275 323
#     4  10  21  36  55  81 110 142 182 225 271 330
#     4  10  21  36  54  78 107 143 184 225 270 318
#     4   9  18  34  57  84 113 144 179 223 273 324
#
# _framework density 20.628530000000001
#
# number of rings (size 3 to 8) (size 9 to 14) (size 15 to 20)
#    0.000    2.385    0.000    2.308    0.000    9.231 
#    1.385    2.692    0.000    2.308    0.000    0.000 
#    0.000    0.000    0.000    0.000    0.000    0.000 
#
# Total GULP energy -290128.833993 kJ/mol
# GULP energy per Si atom -5579.400654 kJ/mol
# Density = 2.058158 g / cm^3
# Si number density = 20.628530 Si / 1000 Ang^3
#
#
#
# Elastic Constant Matrix: (Units=GPa)
#
#
# Indices 1 2 3 4 5 6 
#
# 1 114.0633 68.3172 6.8466 0.0000 0.0000 0.0000
# 2 68.3172 55.1971 6.5977 0.0000 0.0000 0.0000
# 3 6.8466 6.5977 9.2513 0.0001 0.0000 0.0000
# 4 0.0000 0.0000 0.0001 -23.2514 0.0000 0.0000
# 5 0.0000 0.0000 0.0000 0.0000 14.7365 0.0000
# 6 0.0000 0.0000 0.0000 0.0000 0.0000 23.2375
#
#
#
# Elastic Compliance Matrix: (Units=1/GPa)
#
#
# Indices 1 2 3 4 5 6 
#
# 1 0.034128 -0.042876 0.005320 0.000000 0.000000 0.000000
# 2 -0.042876 0.073671 -0.020808 0.000000 0.000000 0.000000
# 3 0.005320 -0.020808 0.118995 0.000000 0.000000 0.000000
# 4 0.000000 0.000000 0.000000 -0.043008 0.000000 0.000000
# 5 0.000000 0.000000 0.000000 0.000000 0.067859 0.000000
# 6 0.000000 0.000000 0.000000 0.000000 0.000000 0.043034
#
#
# Mechanical properties :
#
#
# Convention : Reuss Voigt Hill
#
# Bulk Modulus (GPa) = 9.08541 38.00384 23.54462
# Shear Modulus (GPa) = 11.15836 9.39454 10.27645
#
# Velocity S-wave (km/s) = 2.32829 2.13636 2.23439
# Velocity P-wave (km/s) = 3.41200 4.95463 4.25383
#
# Compressibility (1/GPa) = 0.11006659
#
# Stress axis : x y z
#
# Youngs Moduli (GPa) = 29.30172 13.57384 8.40371
#
# Poissons Ratio (x) = 0.58199 -0.04471
# Poissons Ratio (y) = 1.25633 0.17487
# Poissons Ratio (z) = -0.15590 0.28245
#
# Static dielectric constant tensor:
#      x y z
#    x 1.762260 0.000000 0.000000 
#    y 0.000000 1.737460 0.000000 
#    z 0.000000 0.000000 1.743070 
# 
# From -- ./inp_files/44990.got.cif
#   From: 2010.05.17/outbox.cif.g08.bks.cpg/sg71_23_cif.got.tgz:44990.got - 2010.06.03 16:22:01.
