data_PCOD9519847
_publ_section_title
;
Structure prediction by ZEFSAII (Michael W. Deem and Ramdas Pophale) SiO2 
 PCOD9519847
Probable space group: I M M M
;
_chemical_formula_sum "Si O2"
_cell_formula_units_Z 80
_cell_length_a 21.161813
_cell_length_b 23.492049
_cell_length_c 7.433520
_cell_angle_alpha 90.000000
_cell_angle_beta 90.000000
_cell_angle_gamma 90.000000
_cell_volume 3695.458118
_symmetry_space_group_name_H-M "I M M M"
_symmetry_group_IT_number 71
_symmetry_cell_setting 'orthorhombic'
loop_
_space_group_symop_operation_xyz
x,y,z
-x,-y,z
x,-y,-z
-x,y,-z
-x,-y,-z
x,y,-z
-x,y,z
x,-y,z
1/2+x,1/2+y,1/2+z
1/2-x,1/2-y,1/2+z
1/2+x,1/2-y,1/2-z
1/2-x,1/2+y,1/2-z
1/2-x,1/2-y,1/2-z
1/2+x,1/2+y,1/2-z
1/2-x,1/2+y,1/2+z
1/2+x,1/2-y,1/2+z
loop_
_atom_site_type_symbol
_atom_site_label
_atom_site_fract_x
_atom_site_fract_y
_atom_site_fract_z
Si Si1 0.500000 0.566562 0.280059
Si Si2 0.240084 0.436016 0.719835
Si Si3 0.877619 0.360636 0.280366
Si Si4 0.000000 0.433310 0.280221
Si Si5 0.825135 0.241851 0.713917
Si Si6 0.368752 0.384148 0.708979
O O1 0.500000 0.500000 0.230572
O O2 0.500000 0.568885 0.500000
O O3 0.436437 0.597898 0.215989
O O4 0.240861 0.434022 0.500000
O O5 0.225199 0.500000 0.772794
O O6 0.185346 0.393658 0.776495
O O7 0.308477 0.416942 0.786858
O O8 0.879487 0.359822 0.500000
O O9 0.938520 0.396982 0.223760
O O10 0.866431 0.295694 0.221005
O O11 0.000000 0.500000 0.223342
O O12 0.000000 0.434802 0.500000
O O13 0.831307 0.239864 0.500000
O O14 0.750000 0.250000 0.750000
O O15 0.851646 0.182300 0.783992
O O16 0.371002 0.401300 0.500000
#
# Coordination Sequence:
#
# PCOD9519847 Si02
#       6
#     8  16  16   8  16  16
#     4   9  18  33  55  83 111 141 182 231 276 320
#     4   9  15  25  45  71  97 129 172 217 257 299
#     4   9  17  28  44  70 101 133 167 206 255 308
#     4   9  16  27  44  70 105 133 156 201 260 310
#     4  11  21  35  54  77 107 141 178 222 268 316
#     4  10  19  33  53  79 108 139 178 222 268 318
#
# _framework density 21.648195999999999
#
# number of rings (size 3 to 8) (size 9 to 14) (size 15 to 20)
#    0.000    2.400    2.000    1.800    0.000    5.600 
#    0.000    1.500    0.000    3.000    0.000    0.000 
#    0.000    3.200    0.000    0.000    0.000    0.000 
#
# Total GULP energy -223359.481692 kJ/mol
# GULP energy per Si atom -5583.987042 kJ/mol
# Density = 2.159892 g / cm^3
# Si number density = 21.648196 Si / 1000 Ang^3
#
#
#
# Elastic Constant Matrix: (Units=GPa)
#
#
# Indices 1 2 3 4 5 6 
#
# 1 124.7229 7.7199 -6.2951 0.0000 0.0000 0.0000
# 2 7.7199 59.9889 -22.6273 0.0000 0.0000 0.0000
# 3 -6.2951 -22.6273 66.3641 0.0000 0.0000 0.0000
# 4 0.0000 0.0000 0.0000 16.0872 0.0000 0.0000
# 5 0.0000 0.0000 0.0000 0.0000 -20.7184 0.0000
# 6 0.0000 0.0000 0.0000 0.0000 0.0000 38.2300
#
#
#
# Elastic Compliance Matrix: (Units=1/GPa)
#
#
# Indices 1 2 3 4 5 6 
#
# 1 0.008095 -0.000863 0.000474 0.000000 0.000000 0.000000
# 2 -0.000863 0.019222 0.006472 0.000000 0.000000 0.000000
# 3 0.000474 0.006472 0.017320 0.000000 0.000000 0.000000
# 4 0.000000 0.000000 0.000000 0.062161 0.000000 0.000000
# 5 0.000000 0.000000 0.000000 0.000000 -0.048266 0.000000
# 6 0.000000 0.000000 0.000000 0.000000 0.000000 0.026157
#
#
# Mechanical properties :
#
#
# Convention : Reuss Voigt Hill
#
# Bulk Modulus (GPa) = 17.60501 23.18567 20.39534
# Shear Modulus (GPa) = 54.66951 24.87165 39.77058
#
# Velocity S-wave (km/s) = 5.03075 3.39322 4.29083
# Velocity P-wave (km/s) = 6.47260 5.10739 5.83009
#
# Compressibility (1/GPa) = 0.05680202
#
# Stress axis : x y z
#
# Youngs Moduli (GPa) = 123.53147 52.02371 57.73678
#
# Poissons Ratio (x) = 0.04490 -0.02734
# Poissons Ratio (y) = 0.10662 -0.37367
# Poissons Ratio (z) = -0.05850 -0.33670
#
# Static dielectric constant tensor:
#      x y z
#    x 1.782050 0.000000 0.000000 
#    y 0.000000 1.805420 0.000000 
#    z 0.000000 0.000000 1.843040 
# 
# From -- ./inp_files/10295.got.cif
#   From: 2010.05.17/outbox.cif.g08.bks.cpg/sg71_6_cif.got.tgz:10295.got - 2010.06.03 16:22:01.
