data_PCOD9519098
_publ_section_title
;
Structure prediction by ZEFSAII (Michael W. Deem and Ramdas Pophale) SiO2 
 PCOD9519098
Probable space group: I M M M
;
_chemical_formula_sum "Si O2"
_cell_formula_units_Z 112
_cell_length_a 19.514493
_cell_length_b 15.012470
_cell_length_c 20.560741
_cell_angle_alpha 90.000000
_cell_angle_beta 90.000000
_cell_angle_gamma 90.000000
_cell_volume 6023.489913
_symmetry_space_group_name_H-M "I M M M"
_symmetry_group_IT_number 71
_symmetry_cell_setting 'orthorhombic'
loop_
_space_group_symop_operation_xyz
x,y,z
-x,-y,z
x,-y,-z
-x,y,-z
-x,-y,-z
x,y,-z
-x,y,z
x,-y,z
1/2+x,1/2+y,1/2+z
1/2-x,1/2-y,1/2+z
1/2+x,1/2-y,1/2-z
1/2-x,1/2+y,1/2-z
1/2-x,1/2-y,1/2-z
1/2+x,1/2+y,1/2-z
1/2-x,1/2+y,1/2+z
1/2+x,1/2-y,1/2+z
loop_
_atom_site_type_symbol
_atom_site_label
_atom_site_fract_x
_atom_site_fract_y
_atom_site_fract_z
Si Si1 0.280796 0.896026 0.750161
Si Si2 0.774965 0.890847 0.611509
Si Si3 0.075177 0.128968 0.758564
Si Si4 0.576313 0.168965 0.703901
Si Si5 0.146074 0.278523 0.928292
Si Si6 0.807656 0.898766 0.862288
Si Si7 0.924830 0.897995 0.605356
O O1 0.237576 0.864099 0.687550
O O2 0.360121 0.884018 0.733433
O O3 0.256231 0.860771 0.819762
O O4 0.265648 0.000000 0.755078
O O5 0.712319 0.843031 0.575924
O O6 0.850042 0.861658 0.586544
O O7 0.770733 0.000000 0.607630
O O8 0.077709 0.235905 0.760229
O O9 0.133201 0.096872 0.807127
O O10 0.079922 0.099242 0.684148
O O11 0.000000 0.102775 0.783328
O O12 0.500000 0.130503 0.709415
O O13 0.595409 0.190219 0.629011
O O14 0.169776 0.177399 0.912255
O O15 0.115789 0.283351 0.000000
O O16 0.796506 0.000000 0.887259
O O17 0.000000 0.857754 0.589039
O O18 0.926496 0.000000 0.581984
#
# Coordination Sequence:
#
# PCOD9519098 Si02
#       7
#    16  16  16  16  16  16  16
#     4   9  17  29  47  72  97 125 158 197 257 314
#     4   9  17  30  49  72  99 125 156 198 247 301
#     4   9  16  25  42  70 101 129 152 179 229 297
#     4   9  19  32  48  70  97 126 159 206 255 296
#     4  10  22  35  50  69  93 134 180 211 240 284
#     4  10  19  31  49  71 100 132 165 207 249 290
#     4   9  15  23  40  69 101 125 144 173 222 290
#
# _framework density 18.593872000000001
#
# number of rings (size 3 to 8) (size 9 to 14) (size 15 to 20)
#    0.000    2.714    1.429    0.429    2.000    3.714 
#    0.000    0.000    0.000    0.429    0.000   10.000 
#    0.000    0.000    0.000    4.429    0.000    0.000 
#
# Total GULP energy -311834.320374 kJ/mol
# GULP energy per Si atom -5568.470007 kJ/mol
# Density = 1.855155 g / cm^3
# Si number density = 18.593872 Si / 1000 Ang^3
#
#
#
# Elastic Constant Matrix: (Units=GPa)
#
#
# Indices 1 2 3 4 5 6 
#
# 1 110.7165 5.4608 -4.6479 0.0000 0.0000 0.0000
# 2 5.4608 38.9829 -4.5019 0.0000 0.0000 0.0000
# 3 -4.6479 -4.5019 32.1686 0.0000 0.0000 0.0000
# 4 0.0000 0.0000 0.0000 -8.5196 0.0000 0.0000
# 5 0.0000 0.0000 0.0000 0.0000 4.8623 0.0000
# 6 0.0000 0.0000 0.0000 0.0000 0.0000 19.9144
#
#
#
# Elastic Compliance Matrix: (Units=1/GPa)
#
#
# Indices 1 2 3 4 5 6 
#
# 1 0.009137 -0.001146 0.001160 0.000000 0.000000 0.000000
# 2 -0.001146 0.026217 0.003503 0.000000 0.000000 0.000000
# 3 0.001160 0.003503 0.031744 0.000000 0.000000 0.000000
# 4 0.000000 0.000000 0.000000 -0.117376 0.000000 0.000000
# 5 0.000000 0.000000 0.000000 0.000000 0.205664 0.000000
# 6 0.000000 0.000000 0.000000 0.000000 0.000000 0.050215
#
#
# Mechanical properties :
#
#
# Convention : Reuss Voigt Hill
#
# Bulk Modulus (GPa) = 13.48921 19.38778 16.43850
# Shear Modulus (GPa) = 22.39354 15.62188 19.00771
#
# Velocity S-wave (km/s) = 3.47414 2.90170 3.20074
# Velocity P-wave (km/s) = 4.83356 4.65576 4.74549
#
# Compressibility (1/GPa) = 0.07413330
#
# Stress axis : x y z
#
# Youngs Moduli (GPa) = 109.44163 38.14263 31.50196
#
# Poissons Ratio (x) = 0.04371 -0.03654
# Poissons Ratio (y) = 0.12542 -0.11037
# Poissons Ratio (z) = -0.12693 -0.13363
#
# Static dielectric constant tensor:
#      x y z
#    x 1.701670 0.000000 0.000000 
#    y 0.000000 1.651780 0.000000 
#    z 0.000000 0.000000 1.655320 
# 
# From -- ./inp_files/46401.got.cif
#   From: 2010.05.17/outbox.cif.g08.bks.cpg/sg71_24_cif.got.tgz:46401.got - 2010.06.03 16:22:01.
