data_PCOD9519946
_publ_section_title
;
Structure prediction by ZEFSAII (Michael W. Deem and Ramdas Pophale) SiO2 
 PCOD9519946
Probable space group: I M M M
;
_chemical_formula_sum "Si O2"
_cell_formula_units_Z 64
_cell_length_a 15.167175
_cell_length_b 17.066449
_cell_length_c 13.708199
_cell_angle_alpha 90.000000
_cell_angle_beta 90.000000
_cell_angle_gamma 90.000000
_cell_volume 3548.364825
_symmetry_space_group_name_H-M "I M M M"
_symmetry_group_IT_number 71
_symmetry_cell_setting 'orthorhombic'
loop_
_space_group_symop_operation_xyz
x,y,z
-x,-y,z
x,-y,-z
-x,y,-z
-x,-y,-z
x,y,-z
-x,y,z
x,-y,z
1/2+x,1/2+y,1/2+z
1/2-x,1/2-y,1/2+z
1/2+x,1/2-y,1/2-z
1/2-x,1/2+y,1/2-z
1/2-x,1/2-y,1/2-z
1/2+x,1/2+y,1/2-z
1/2-x,1/2+y,1/2+z
1/2+x,1/2-y,1/2+z
loop_
_atom_site_type_symbol
_atom_site_label
_atom_site_fract_x
_atom_site_fract_y
_atom_site_fract_z
Si Si1 0.000000 0.844935 0.613019
Si Si2 0.664014 0.094604 0.714226
Si Si3 0.000000 0.686849 0.718309
Si Si4 0.103861 0.405254 0.000000
Si Si5 0.137634 0.093451 0.234157
Si Si6 0.000000 0.814485 0.113543
O O1 0.083965 0.880865 0.669315
O O2 0.000000 0.863212 0.500000
O O3 0.000000 0.751786 0.633931
O O4 0.586845 0.134019 0.776637
O O5 0.649389 0.119723 0.601049
O O6 0.760659 0.115923 0.752758
O O7 0.655608 0.000000 0.717307
O O8 0.000000 0.738963 0.817185
O O9 0.107504 0.500000 0.000000
O O10 0.000000 0.385156 0.000000
O O11 0.085673 0.135800 0.146876
O O12 0.131643 0.000000 0.223104
O O13 0.000000 0.798082 0.000000
#
# Coordination Sequence:
#
# PCOD9519946 Si02
#       6
#     8  16   8   8  16   8
#     4  10  22  37  52  74 106 146 180 214 266 321
#     4  10  19  33  55  82 111 138 175 226 272 315
#     4  10  21  36  54  78 112 145 176 217 265 323
#     4   9  16  26  46  81 111 137 169 208 267 320
#     4   9  20  37  57  82 105 134 179 226 275 318
#     4  10  22  37  56  81 109 146 185 220 262 318
#
# _framework density 18.036477000000001
#
# number of rings (size 3 to 8) (size 9 to 14) (size 15 to 20)
#    0.000    2.625    1.250    1.875    3.500    6.000 
#    0.000    3.750    0.000    3.000    0.000    0.000 
#    0.000    0.000    0.000    0.000    0.000    0.000 
#
# Total GULP energy -178510.444599 kJ/mol
# GULP energy per Si atom -5578.451394 kJ/mol
# Density = 1.799543 g / cm^3
# Si number density = 18.036477 Si / 1000 Ang^3
#
#
#
# Elastic Constant Matrix: (Units=GPa)
#
#
# Indices 1 2 3 4 5 6 
#
# 1 149.3494 37.6283 5.2232 0.0000 0.0000 0.0000
# 2 37.6283 39.4850 -2.8538 0.0000 0.0000 0.0000
# 3 5.2232 -2.8538 48.5846 0.0000 0.0000 0.0000
# 4 0.0000 0.0000 0.0000 16.7578 0.0000 0.0000
# 5 0.0000 0.0000 0.0000 0.0000 8.2061 0.0000
# 6 0.0000 0.0000 0.0000 0.0000 0.0000 39.1304
#
#
#
# Elastic Compliance Matrix: (Units=1/GPa)
#
#
# Indices 1 2 3 4 5 6 
#
# 1 0.008914 -0.008600 -0.001463 0.000000 0.000000 0.000000
# 2 -0.008600 0.033732 0.002906 0.000000 0.000000 0.000000
# 3 -0.001463 0.002906 0.020911 0.000000 0.000000 0.000000
# 4 0.000000 0.000000 0.000000 0.059674 0.000000 0.000000
# 5 0.000000 0.000000 0.000000 0.000000 0.121860 0.000000
# 6 0.000000 0.000000 0.000000 0.000000 0.000000 0.025556
#
#
# Mechanical properties :
#
#
# Convention : Reuss Voigt Hill
#
# Bulk Modulus (GPa) = 20.30838 35.26829 27.78834
# Shear Modulus (GPa) = 16.59062 25.98028 21.28545
#
# Velocity S-wave (km/s) = 3.03617 3.79942 3.43903
# Velocity P-wave (km/s) = 4.85543 6.23247 5.58654
#
# Compressibility (1/GPa) = 0.04924074
#
# Stress axis : x y z
#
# Youngs Moduli (GPa) = 112.18637 29.64539 47.82249
#
# Poissons Ratio (x) = 0.25496 0.06999
# Poissons Ratio (y) = 0.96484 -0.13897
# Poissons Ratio (z) = 0.16418 -0.08615
#
# Static dielectric constant tensor:
#      x y z
#    x 1.610980 0.000000 0.000000 
#    y 0.000000 1.636850 0.000000 
#    z 0.000000 0.000000 1.595880 
# 
# From -- ./inp_files/33979.got.cif
#   From: 2010.05.17/outbox.cif.g08.bks.cpg/sg71_17_cif.got.tgz:33979.got - 2010.06.03 16:22:01.
