data_PCOD9519367
_publ_section_title
;
Structure prediction by ZEFSAII (Michael W. Deem and Ramdas Pophale) SiO2 
 PCOD9519367
Probable space group: I M M M
;
_chemical_formula_sum "Si O2"
_cell_formula_units_Z 120
_cell_length_a 28.504763
_cell_length_b 27.947207
_cell_length_c 7.617299
_cell_angle_alpha 90.000000
_cell_angle_beta 90.000000
_cell_angle_gamma 90.000000
_cell_volume 6068.157568
_symmetry_space_group_name_H-M "I M M M"
_symmetry_group_IT_number 71
_symmetry_cell_setting 'orthorhombic'
loop_
_space_group_symop_operation_xyz
x,y,z
-x,-y,z
x,-y,-z
-x,y,-z
-x,-y,-z
x,y,-z
-x,y,z
x,-y,z
1/2+x,1/2+y,1/2+z
1/2-x,1/2-y,1/2+z
1/2+x,1/2-y,1/2-z
1/2-x,1/2+y,1/2-z
1/2-x,1/2-y,1/2-z
1/2+x,1/2+y,1/2-z
1/2-x,1/2+y,1/2+z
1/2+x,1/2-y,1/2+z
loop_
_atom_site_type_symbol
_atom_site_label
_atom_site_fract_x
_atom_site_fract_y
_atom_site_fract_z
Si Si1 0.306150 0.945732 0.714524
Si Si2 0.356989 0.852851 0.709523
Si Si3 0.602484 0.403575 0.297369
Si Si4 0.609364 0.699974 0.709078
Si Si5 0.300812 0.555580 0.211758
Si Si6 0.054873 0.000000 0.214171
Si Si7 0.052549 0.705169 0.290568
Si Si8 0.696069 0.759189 0.289072
O O1 0.306804 0.947091 0.500000
O O2 0.341284 0.904603 0.776623
O O3 0.252520 0.932897 0.763843
O O4 0.316073 0.000000 0.773421
O O5 0.350433 0.854609 0.500000
O O6 0.409808 0.835246 0.740269
O O7 0.323255 0.810282 0.777140
O O8 0.586401 0.402232 0.500000
O O9 0.593546 0.351269 0.217782
O O10 0.658348 0.412355 0.290151
O O11 0.579007 0.451227 0.219226
O O12 0.614759 0.692908 0.500000
O O13 0.573527 0.743591 0.734195
O O14 0.659652 0.718952 0.777497
O O15 0.309428 0.500000 0.260365
O O16 0.303517 0.558880 0.000000
O O17 0.000000 0.000000 0.254439
O O18 0.060147 0.000000 0.000000
O O19 0.050660 0.705769 0.500000
O O20 0.000000 0.697804 0.221462
O O21 0.691211 0.760014 0.500000
O O22 0.750000 0.750000 0.250000
#
# Coordination Sequence:
#
# PCOD9519367 Si02
#       8
#    16  16  16  16  16   8  16  16
#     4   8  15  29  50  77 107 138 171 206 241 287
#     4   9  18  33  53  77 104 134 171 208 246 297
#     4  10  19  32  50  71  97 128 167 215 257 300
#     4   9  20  35  50  72  99 130 171 213 252 300
#     4   9  17  29  47  71 100 136 172 201 241 295
#     4   9  18  32  49  69  93 125 165 209 258 303
#     4  10  21  37  56  77 100 127 164 210 260 311
#     4   9  18  30  43  66  99 131 165 202 244 295
#
# _framework density 19.775359999999999
#
# number of rings (size 3 to 8) (size 9 to 14) (size 15 to 20)
#    0.000    2.867    0.667    2.000    1.867    4.267 
#    0.000    2.000    0.000    2.400    0.000    2.800 
#    0.000    0.000    0.000    0.000    0.000    0.000 
#
# Total GULP energy -334593.590097 kJ/mol
# GULP energy per Si atom -5576.559835 kJ/mol
# Density = 1.973035 g / cm^3
# Si number density = 19.775360 Si / 1000 Ang^3
#
#
#
# Elastic Constant Matrix: (Units=GPa)
#
#
# Indices 1 2 3 4 5 6 
#
# 1 126.1036 76.6451 -10.5264 0.0000 0.0000 0.0000
# 2 76.6451 141.8375 3.8629 0.0000 0.0000 0.0000
# 3 -10.5264 3.8629 36.7827 0.0000 0.0000 0.0000
# 4 0.0000 0.0000 0.0000 0.2344 0.0000 0.0000
# 5 0.0000 0.0000 0.0000 0.0000 23.4310 0.0000
# 6 0.0000 0.0000 0.0000 0.0000 0.0000 12.9131
#
#
#
# Elastic Compliance Matrix: (Units=1/GPa)
#
#
# Indices 1 2 3 4 5 6 
#
# 1 0.012446 -0.006842 0.004280 0.000000 0.000000 0.000000
# 2 -0.006842 0.010832 -0.003096 0.000000 0.000000 0.000000
# 3 0.004280 -0.003096 0.028737 0.000000 0.000000 0.000000
# 4 0.000000 0.000000 0.000000 4.267095 0.000000 0.000000
# 5 0.000000 0.000000 0.000000 0.000000 0.042679 0.000000
# 6 0.000000 0.000000 0.000000 0.000000 0.000000 0.077441
#
#
# Mechanical properties :
#
#
# Convention : Reuss Voigt Hill
#
# Bulk Modulus (GPa) = 24.57011 49.40965 36.98988
# Shear Modulus (GPa) = 1.12004 22.96517 12.04261
#
# Velocity S-wave (km/s) = 0.75340 3.41149 2.47041
# Velocity P-wave (km/s) = 3.63434 6.36846 5.18487
#
# Compressibility (1/GPa) = 0.04069985
#
# Stress axis : x y z
#
# Youngs Moduli (GPa) = 80.34870 92.32069 34.79866
#
# Poissons Ratio (x) = 0.63165 -0.14895
# Poissons Ratio (y) = 0.54974 0.10772
# Poissons Ratio (z) = -0.34391 0.28578
#
# Static dielectric constant tensor:
#      x y z
#    x 1.664600 0.000000 0.000000 
#    y 0.000000 2.194080 0.000000 
#    z 0.000000 0.000000 1.734440 
# 
# From -- ./inp_files/15664.got.cif
#   From: 2010.05.17/outbox.cif.g08.bks.cpg/sg71_8_cif.got.tgz:15664.got - 2010.06.03 16:22:01.
