data_PCOD9519327
_publ_section_title
;
Structure prediction by ZEFSAII (Michael W. Deem and Ramdas Pophale) SiO2 
 PCOD9519327
Probable space group: I M M M
;
_chemical_formula_sum "Si O2"
_cell_formula_units_Z 116
_cell_length_a 28.849053
_cell_length_b 7.625813
_cell_length_c 27.237582
_cell_angle_alpha 90.000000
_cell_angle_beta 90.000000
_cell_angle_gamma 90.000000
_cell_volume 5992.199494
_symmetry_space_group_name_H-M "I M M M"
_symmetry_group_IT_number 71
_symmetry_cell_setting 'orthorhombic'
loop_
_space_group_symop_operation_xyz
x,y,z
-x,-y,z
x,-y,-z
-x,y,-z
-x,-y,-z
x,y,-z
-x,y,z
x,-y,z
1/2+x,1/2+y,1/2+z
1/2-x,1/2-y,1/2+z
1/2+x,1/2-y,1/2-z
1/2-x,1/2+y,1/2-z
1/2-x,1/2-y,1/2-z
1/2+x,1/2+y,1/2-z
1/2-x,1/2+y,1/2+z
1/2+x,1/2-y,1/2+z
loop_
_atom_site_type_symbol
_atom_site_label
_atom_site_fract_x
_atom_site_fract_y
_atom_site_fract_z
Si Si1 0.696532 0.794516 0.838111
Si Si2 0.949019 0.293191 0.310305
Si Si3 0.803973 0.785353 0.158878
Si Si4 0.443574 0.207648 0.920228
Si Si5 0.635510 0.698360 0.252123
Si Si6 0.189329 0.794421 0.446821
Si Si7 0.701160 0.287574 0.552418
Si Si8 0.916359 0.000000 0.500000
O O1 0.750000 0.732281 0.836497
O O2 0.667775 0.702189 0.796005
O O3 0.676455 0.776489 0.893350
O O4 0.695798 0.000000 0.826217
O O5 0.953534 0.500000 0.318027
O O6 0.933215 0.232269 0.364241
O O7 0.912773 0.271357 0.266959
O O8 0.000000 0.219864 0.299451
O O9 0.836028 0.719457 0.202852
O O10 0.820034 0.731900 0.104269
O O11 0.803014 0.000000 0.160607
O O12 0.500000 0.217588 0.926134
O O13 0.421083 0.343863 0.957485
O O14 0.431104 0.000000 0.927354
O O15 0.626153 0.500000 0.267012
O O16 0.173999 0.719342 0.500000
O O17 0.245250 0.772257 0.447043
O O18 0.177757 0.000000 0.448200
O O19 0.680846 0.230127 0.500000
O O20 0.702064 0.500000 0.552708
#
# Coordination Sequence:
#
# PCOD9519327 Si02
#       8
#    16  16  16  16  16  16  16   4
#     4  10  19  32  49  67  95 132 167 197 235 288
#     4   9  20  39  57  71  93 125 161 201 246 300
#     4   8  16  29  45  72 103 130 161 197 234 279
#     4   9  18  31  48  73 101 125 155 203 258 314
#     4  11  21  32  50  73  99 125 157 202 247 290
#     4   9  16  26  42  64  90 120 158 203 245 283
#     4   8  13  24  43  65  92 128 164 191 224 275
#     4  12  19  26  52  82 102 124 158 202 262 328
#
# _framework density 19.358502000000001
#
# number of rings (size 3 to 8) (size 9 to 14) (size 15 to 20)
#    0.000    2.759    0.000    4.138    0.966    1.655 
#    0.000    6.207    1.517    0.000    0.000    0.000 
#    0.000    0.552    0.000    6.897    0.000    1.241 
#
# Total GULP energy -322941.493772 kJ/mol
# GULP energy per Si atom -5567.956789 kJ/mol
# Density = 1.931444 g / cm^3
# Si number density = 19.358502 Si / 1000 Ang^3
#
#
#
# Elastic Constant Matrix: (Units=GPa)
#
#
# Indices 1 2 3 4 5 6 
#
# 1 70.5103 8.2663 63.9171 0.0000 0.0000 0.0000
# 2 8.2663 55.4108 7.0001 0.0000 0.0000 0.0000
# 3 63.9171 7.0001 149.6587 0.0000 0.0000 0.0000
# 4 0.0000 0.0000 0.0000 15.0366 0.0000 0.0000
# 5 0.0000 0.0000 0.0000 0.0000 -3.8935 0.0000
# 6 0.0000 0.0000 0.0000 0.0000 0.0000 14.5525
#
#
#
# Elastic Compliance Matrix: (Units=1/GPa)
#
#
# Indices 1 2 3 4 5 6 
#
# 1 0.023416 -0.002243 -0.009896 0.000000 0.000000 0.000000
# 2 -0.002243 0.018369 0.000099 0.000000 0.000000 0.000000
# 3 -0.009896 0.000099 0.010903 0.000000 0.000000 0.000000
# 4 0.000000 0.000000 0.000000 0.066504 0.000000 0.000000
# 5 0.000000 0.000000 0.000000 0.000000 -0.256840 0.000000
# 6 0.000000 0.000000 0.000000 0.000000 0.000000 0.068717
#
#
# Mechanical properties :
#
#
# Convention : Reuss Voigt Hill
#
# Bulk Modulus (GPa) = 34.95455 48.21632 41.58544
# Shear Modulus (GPa) = -141.58373 18.23220 -61.67577
#
# Velocity S-wave (km/s) = -8.56134 3.07224 -5.65057
# Velocity P-wave (km/s) = 8.92374 6.12748 4.58733
#
# Compressibility (1/GPa) = 0.02860858
#
# Stress axis : x y z
#
# Youngs Moduli (GPa) = 42.70669 54.43901 91.71374
#
# Poissons Ratio (x) = 0.12211 0.90756
# Poissons Ratio (y) = 0.09579 -0.00906
# Poissons Ratio (z) = 0.42261 -0.00538
#
# Static dielectric constant tensor:
#      x y z
#    x 1.710010 0.000000 0.000000 
#    y 0.000000 1.716680 0.000000 
#    z 0.000000 0.000000 1.765420 
# 
# From -- ./inp_files/67348.got.cif
#   From: 2010.05.17/outbox.cif.g08.bks.cpg/sg71_34_cif.got.tgz:67348.got - 2010.06.03 16:22:01.
