data_PCOD9519341
_publ_section_title
;
Structure prediction by ZEFSAII (Michael W. Deem and Ramdas Pophale) SiO2 
 PCOD9519341
Probable space group: I M M M
;
_chemical_formula_sum "Si O2"
_cell_formula_units_Z 72
_cell_length_a 14.936347
_cell_length_b 7.532820
_cell_length_c 31.337288
_cell_angle_alpha 90.000000
_cell_angle_beta 90.000000
_cell_angle_gamma 90.000000
_cell_volume 3525.846437
_symmetry_space_group_name_H-M "I M M M"
_symmetry_group_IT_number 71
_symmetry_cell_setting 'orthorhombic'
loop_
_space_group_symop_operation_xyz
x,y,z
-x,-y,z
x,-y,-z
-x,y,-z
-x,-y,-z
x,y,-z
-x,y,z
x,-y,z
1/2+x,1/2+y,1/2+z
1/2-x,1/2-y,1/2+z
1/2+x,1/2-y,1/2-z
1/2-x,1/2+y,1/2-z
1/2-x,1/2-y,1/2-z
1/2+x,1/2+y,1/2-z
1/2-x,1/2+y,1/2+z
1/2+x,1/2-y,1/2+z
loop_
_atom_site_type_symbol
_atom_site_label
_atom_site_fract_x
_atom_site_fract_y
_atom_site_fract_z
Si Si1 0.303596 0.281992 0.451140
Si Si2 0.000000 0.203390 0.051922
Si Si3 0.500000 0.709936 0.163879
Si Si4 0.307870 0.712859 0.707864
Si Si5 0.306409 0.788274 0.128223
Si Si6 0.500000 0.281997 0.738031
O O1 0.287776 0.226287 0.500000
O O2 0.306729 0.500000 0.451934
O O3 0.403077 0.220741 0.436646
O O4 0.229721 0.223470 0.417267
O O5 0.000000 0.000000 0.067762
O O6 0.000000 0.198997 0.000000
O O7 0.500000 0.500000 0.168207
O O8 0.409635 0.758518 0.139310
O O9 0.500000 0.779903 0.212580
O O10 0.313335 0.500000 0.703491
O O11 0.250000 0.750000 0.750000
O O12 0.255036 0.783070 0.666783
O O13 0.408830 0.777146 0.715325
O O14 0.293792 0.000000 0.127499
O O15 0.500000 0.500000 0.738241
#
# Coordination Sequence:
#
# PCOD9519341 Si02
#       6
#    16   8   8  16  16   8
#     4   8  14  26  45  72 105 134 159 197 250 298
#     4   7  10  19  39  67  98 129 154 179 228 296
#     4  11  21  35  53  68  93 136 172 202 248 304
#     4  10  19  32  49  71  98 126 160 199 239 286
#     4  10  20  32  51  77 100 125 165 211 247 288
#     4   9  18  32  49  69  96 130 162 192 240 296
#
# _framework density 20.420628000000001
#
# number of rings (size 3 to 8) (size 9 to 14) (size 15 to 20)
#    0.000    2.778    2.222    1.667    0.000    0.889 
#    0.000    5.556    0.000    4.000    0.000    2.333 
#    0.000    2.667    0.000    0.000    0.000    0.000 
#
# Total GULP energy -200807.048433 kJ/mol
# GULP energy per Si atom -5577.973568 kJ/mol
# Density = 2.037415 g / cm^3
# Si number density = 20.420628 Si / 1000 Ang^3
#
#
#
# Elastic Constant Matrix: (Units=GPa)
#
#
# Indices 1 2 3 4 5 6 
#
# 1 214.4672 0.5487 111.3200 0.0000 0.0000 0.0000
# 2 0.5487 49.9108 6.0181 0.0000 0.0000 0.0000
# 3 111.3200 6.0181 142.5326 0.0000 0.0000 0.0000
# 4 0.0000 0.0000 0.0000 8.7069 0.0000 0.0000
# 5 0.0000 0.0000 0.0000 0.0000 39.2375 0.0000
# 6 0.0000 0.0000 0.0000 0.0000 0.0000 -2.6158
#
#
#
# Elastic Compliance Matrix: (Units=1/GPa)
#
#
# Indices 1 2 3 4 5 6 
#
# 1 0.007863 0.000657 -0.006169 0.000000 0.000000 0.000000
# 2 0.000657 0.020193 -0.001366 0.000000 0.000000 0.000000
# 3 -0.006169 -0.001366 0.011892 0.000000 0.000000 0.000000
# 4 0.000000 0.000000 0.000000 0.114851 0.000000 0.000000
# 5 0.000000 0.000000 0.000000 0.000000 0.025486 0.000000
# 6 0.000000 0.000000 0.000000 0.000000 0.000000 -0.382287
#
#
# Mechanical properties :
#
#
# Convention : Reuss Voigt Hill
#
# Bulk Modulus (GPa) = 38.17846 71.40937 54.79392
# Shear Modulus (GPa) = -27.85265 28.33397 0.24066
#
# Velocity S-wave (km/s) = -3.69717 3.72898 0.34367
# Velocity P-wave (km/s) = 0.71497 7.32021 5.20080
#
# Compressibility (1/GPa) = 0.02619278
#
# Stress axis : x y z
#
# Youngs Moduli (GPa) = 127.17760 49.52150 84.09293
#
# Poissons Ratio (x) = -0.03255 0.51876
# Poissons Ratio (y) = -0.08361 0.11488
# Poissons Ratio (z) = 0.78454 0.06765
#
# Static dielectric constant tensor:
#      x y z
#    x 1.708040 0.000000 0.000000 
#    y 0.000000 1.793700 0.000000 
#    z 0.000000 0.000000 1.713640 
# 
# From -- ./inp_files/40716.got.cif
#   From: 2010.05.17/outbox.cif.g08.bks.cpg/sg71_21_cif.got.tgz:40716.got - 2010.06.03 16:22:01.
