data_PCOD9519493
_publ_section_title
;
Structure prediction by ZEFSAII (Michael W. Deem and Ramdas Pophale) SiO2 
 PCOD9519493
Probable space group: I M M M
;
_chemical_formula_sum "Si O2"
_cell_formula_units_Z 120
_cell_length_a 8.396694
_cell_length_b 28.465392
_cell_length_c 27.959973
_cell_angle_alpha 90.000000
_cell_angle_beta 90.000000
_cell_angle_gamma 90.000000
_cell_volume 6682.858153
_symmetry_space_group_name_H-M "I M M M"
_symmetry_group_IT_number 71
_symmetry_cell_setting 'orthorhombic'
loop_
_space_group_symop_operation_xyz
x,y,z
-x,-y,z
x,-y,-z
-x,y,-z
-x,-y,-z
x,y,-z
-x,y,z
x,-y,z
1/2+x,1/2+y,1/2+z
1/2-x,1/2-y,1/2+z
1/2+x,1/2-y,1/2-z
1/2-x,1/2+y,1/2-z
1/2-x,1/2-y,1/2-z
1/2+x,1/2+y,1/2-z
1/2-x,1/2+y,1/2+z
1/2+x,1/2-y,1/2+z
loop_
_atom_site_type_symbol
_atom_site_label
_atom_site_fract_x
_atom_site_fract_y
_atom_site_fract_z
Si Si1 0.191970 0.553568 0.291152
Si Si2 0.307932 0.311804 0.446539
Si Si3 0.691792 0.360078 0.350979
Si Si4 0.311210 0.282019 0.897667
Si Si5 0.194020 0.554110 0.817213
Si Si6 0.808987 0.236840 0.197679
Si Si7 0.807087 0.386323 0.092203
Si Si8 0.305575 0.946085 0.500000
O O1 0.244333 0.500000 0.301139
O O2 0.248621 0.591668 0.328910
O O3 0.245191 0.565898 0.236886
O O4 0.000000 0.553516 0.290718
O O5 0.248617 0.321656 0.500000
O O6 0.500000 0.314247 0.447219
O O7 0.252168 0.346823 0.404503
O O8 0.262266 0.259432 0.429878
O O9 0.500000 0.361054 0.351600
O O10 0.740469 0.315910 0.317709
O O11 0.500000 0.279271 0.901046
O O12 0.257895 0.270935 0.843342
O O13 0.252887 0.333416 0.912067
O O14 0.240221 0.500000 0.827431
O O15 0.248004 0.589387 0.858385
O O16 0.000000 0.554859 0.817458
O O17 0.750000 0.250000 0.250000
O O18 0.000000 0.239167 0.196011
O O19 0.756352 0.418185 0.047438
O O20 0.000000 0.385432 0.092745
O O21 0.500000 0.946936 0.500000
O O22 0.251613 0.000000 0.500000
#
# Coordination Sequence:
#
# PCOD9519493 Si02
#       8
#    16  16  16  16  16  16  16   8
#     4   9  18  32  51  77 107 141 179 214 252 306
#     4   9  19  38  61  79 101 134 175 224 272 323
#     4   9  19  34  53  80 107 133 170 215 267 319
#     4  11  23  36  50  76 110 142 178 218 262 318
#     4   8  15  29  49  72  97 129 174 222 262 306
#     4  10  21  37  55  78 109 144 180 219 265 318
#     4  10  19  32  52  76 100 134 177 226 278 325
#     4   9  18  32  53  79 101 129 179 237 286 333
#
# _framework density 17.956389999999999
#
# number of rings (size 3 to 8) (size 9 to 14) (size 15 to 20)
#    0.000    2.600    0.000    3.600    2.800    4.800 
#    0.000    0.000    0.000    3.200    0.000    2.800 
#    0.000    0.000    0.000    0.000    0.000    0.000 
#
# Total GULP energy -334726.268797 kJ/mol
# GULP energy per Si atom -5578.771147 kJ/mol
# Density = 1.791552 g / cm^3
# Si number density = 17.956390 Si / 1000 Ang^3
#
#
#
# Elastic Constant Matrix: (Units=GPa)
#
#
# Indices 1 2 3 4 5 6 
#
# 1 7.4401 10.0370 16.2706 0.0000 0.0000 0.0000
# 2 10.0370 129.7093 91.9930 0.0000 0.0000 0.0000
# 3 16.2706 91.9930 157.4068 0.0000 0.0000 0.0000
# 4 0.0000 0.0000 0.0000 17.1678 0.0000 0.0000
# 5 0.0000 0.0000 0.0000 0.0000 17.3041 0.0000
# 6 0.0000 0.0000 0.0000 0.0000 0.0000 20.4699
#
#
#
# Elastic Compliance Matrix: (Units=1/GPa)
#
#
# Indices 1 2 3 4 5 6 
#
# 1 0.173774 -0.001208 -0.017256 0.000000 0.000000 0.000000
# 2 -0.001208 0.013176 -0.007575 0.000000 0.000000 0.000000
# 3 -0.017256 -0.007575 0.012564 0.000000 0.000000 0.000000
# 4 0.000000 0.000000 0.000000 0.058249 0.000000 0.000000
# 5 0.000000 0.000000 0.000000 0.000000 0.057790 0.000000
# 6 0.000000 0.000000 0.000000 0.000000 0.000000 0.048852
#
#
# Mechanical properties :
#
#
# Convention : Reuss Voigt Hill
#
# Bulk Modulus (GPa) = 6.78272 59.01750 32.90011
# Shear Modulus (GPa) = 10.73819 22.73873 16.73846
#
# Velocity S-wave (km/s) = 2.44809 3.56242 3.05646
# Velocity P-wave (km/s) = 3.43167 7.06113 5.55139
#
# Compressibility (1/GPa) = 0.14743353
#
# Stress axis : x y z
#
# Youngs Moduli (GPa) = 5.75461 75.89757 79.59299
#
# Poissons Ratio (x) = 0.09170 1.37348
# Poissons Ratio (y) = 0.00695 0.60294
# Poissons Ratio (z) = 0.09930 0.57495
#
# Static dielectric constant tensor:
#      x y z
#    x 1.625670 0.000000 0.000000 
#    y 0.000000 1.599400 0.000000 
#    z 0.000000 0.000000 1.620490 
# 
# From -- ./inp_files/63855.got.cif
#   From: 2010.05.17/outbox.cif.g08.bks.cpg/sg71_32_cif.got.tgz:63855.got - 2010.06.03 16:22:01.
