data_PCOD9519615
_publ_section_title
;
Structure prediction by ZEFSAII (Michael W. Deem and Ramdas Pophale) SiO2 
 PCOD9519615
Probable space group: I M M M
;
_chemical_formula_sum "Si O2"
_cell_formula_units_Z 68
_cell_length_a 26.446020
_cell_length_b 7.623744
_cell_length_c 17.248389
_cell_angle_alpha 90.000000
_cell_angle_beta 90.000000
_cell_angle_gamma 90.000000
_cell_volume 3477.580283
_symmetry_space_group_name_H-M "I M M M"
_symmetry_group_IT_number 71
_symmetry_cell_setting 'orthorhombic'
loop_
_space_group_symop_operation_xyz
x,y,z
-x,-y,z
x,-y,-z
-x,y,-z
-x,-y,-z
x,y,-z
-x,y,z
x,-y,z
1/2+x,1/2+y,1/2+z
1/2-x,1/2-y,1/2+z
1/2+x,1/2-y,1/2-z
1/2-x,1/2+y,1/2-z
1/2-x,1/2-y,1/2-z
1/2+x,1/2+y,1/2-z
1/2-x,1/2+y,1/2+z
1/2+x,1/2-y,1/2+z
loop_
_atom_site_type_symbol
_atom_site_label
_atom_site_fract_x
_atom_site_fract_y
_atom_site_fract_z
Si Si1 0.631994 0.784127 0.248864
Si Si2 0.057334 0.000000 0.820990
Si Si3 0.166604 0.703043 0.587024
Si Si4 0.424397 0.500000 0.500000
Si Si5 0.653325 0.808582 0.500000
Si Si6 0.774851 0.297776 0.851694
O O1 0.589928 0.670523 0.293648
O O2 0.632751 0.730206 0.158290
O O3 0.687890 0.736872 0.283253
O O4 0.626867 0.000000 0.256863
O O5 0.052194 0.000000 0.914360
O O6 0.000000 0.000000 0.788878
O O7 0.164835 0.781746 0.500000
O O8 0.152642 0.500000 0.579519
O O9 0.223717 0.707841 0.620450
O O10 0.389049 0.332385 0.500000
O O11 0.688510 0.791220 0.574356
O O12 0.629752 0.000000 0.500000
O O13 0.761769 0.500000 0.835528
#
# Coordination Sequence:
#
# PCOD9519615 Si02
#       6
#    16   8  16   4   8  16
#     4  10  23  42  60  85 123 162 198 251 304 360
#     4  12  27  44  67  92 113 153 208 257 310 361
#     4  10  21  34  56  88 123 161 205 245 291 353
#     4  12  23  40  68  86 124 156 194 256 303 338
#     4  10  20  33  53  87 126 166 194 231 291 351
#     4  10  19  32  53  83 124 169 202 229 284 356
#
# _framework density 19.553826000000001
#
# number of rings (size 3 to 8) (size 9 to 14) (size 15 to 20)
#    0.000    1.647    3.529    0.882    4.941    0.471 
#    0.000    0.000    0.000    3.529    0.000    3.294 
#    0.000    0.000    0.000    0.000    0.000    0.000 
#
# Total GULP energy -189485.914105 kJ/mol
# GULP energy per Si atom -5573.115121 kJ/mol
# Density = 1.950932 g / cm^3
# Si number density = 19.553826 Si / 1000 Ang^3
#
#
#
# Elastic Constant Matrix: (Units=GPa)
#
#
# Indices 1 2 3 4 5 6 
#
# 1 60.6878 31.4410 37.9027 0.0000 0.0000 0.0000
# 2 31.4410 59.2581 37.0491 0.0000 0.0000 0.0000
# 3 37.9027 37.0491 171.9059 0.0000 0.0000 0.0000
# 4 0.0000 0.0000 0.0000 26.4853 0.0000 0.0000
# 5 0.0000 0.0000 0.0000 0.0000 -87.6798 0.0000
# 6 0.0000 0.0000 0.0000 0.0000 0.0000 -1.6581
#
#
#
# Elastic Compliance Matrix: (Units=1/GPa)
#
#
# Indices 1 2 3 4 5 6 
#
# 1 0.023942 -0.010867 -0.002937 0.000000 0.000000 0.000000
# 2 -0.010867 0.024436 -0.002870 0.000000 0.000000 0.000000
# 3 -0.002937 -0.002870 0.007083 0.000000 0.000000 0.000000
# 4 0.000000 0.000000 0.000000 0.037757 0.000000 0.000000
# 5 0.000000 0.000000 0.000000 0.000000 -0.011405 0.000000
# 6 0.000000 0.000000 0.000000 0.000000 0.000000 -0.603108
#
#
# Mechanical properties :
#
#
# Convention : Reuss Voigt Hill
#
# Bulk Modulus (GPa) = 45.22290 56.07082 50.64686
# Shear Modulus (GPa) = -10.40416 -0.20659 -5.30537
#
# Velocity S-wave (km/s) = -2.30918 -0.32539 -1.64897
# Velocity P-wave (km/s) = 4.00847 5.34754 4.72568
#
# Compressibility (1/GPa) = 0.02211269
#
# Stress axis : x y z
#
# Youngs Moduli (GPa) = 41.76786 40.92383 141.17743
#
# Poissons Ratio (x) = 0.44471 0.41461
# Poissons Ratio (y) = 0.45389 0.40523
# Poissons Ratio (z) = 0.12266 0.11747
#
# Static dielectric constant tensor:
#      x y z
#    x 1.625990 0.000000 0.000000 
#    y 0.000000 1.735820 0.000000 
#    z 0.000000 0.000000 1.781860 
# 
# From -- ./inp_files/46873.got.cif
#   From: 2010.05.17/outbox.cif.g08.bks.cpg/sg71_24_cif.got.tgz:46873.got - 2010.06.03 16:22:01.
