data_PCOD9519281
_publ_section_title
;
Structure prediction by ZEFSAII (Michael W. Deem and Ramdas Pophale) SiO2 
 PCOD9519281
Probable space group: I M M M
;
_chemical_formula_sum "Si O2"
_cell_formula_units_Z 88
_cell_length_a 8.722376
_cell_length_b 24.498533
_cell_length_c 20.561244
_cell_angle_alpha 90.000000
_cell_angle_beta 90.000000
_cell_angle_gamma 90.000000
_cell_volume 4393.637983
_symmetry_space_group_name_H-M "I M M M"
_symmetry_group_IT_number 71
_symmetry_cell_setting 'orthorhombic'
loop_
_space_group_symop_operation_xyz
x,y,z
-x,-y,z
x,-y,-z
-x,y,-z
-x,-y,-z
x,y,-z
-x,y,z
x,-y,z
1/2+x,1/2+y,1/2+z
1/2-x,1/2-y,1/2+z
1/2+x,1/2-y,1/2-z
1/2-x,1/2+y,1/2-z
1/2-x,1/2-y,1/2-z
1/2+x,1/2+y,1/2-z
1/2-x,1/2+y,1/2+z
1/2+x,1/2-y,1/2+z
loop_
_atom_site_type_symbol
_atom_site_label
_atom_site_fract_x
_atom_site_fract_y
_atom_site_fract_z
Si Si1 0.177826 0.776342 0.315322
Si Si2 0.675984 0.562821 0.288333
Si Si3 0.179022 0.082462 0.930513
Si Si4 0.324352 0.713415 0.426975
Si Si5 0.681175 0.106685 0.339141
Si Si6 0.186909 0.500000 0.923349
O O1 0.250000 0.750000 0.250000
O O2 0.209549 0.734077 0.373114
O O3 0.246012 0.833231 0.343054
O O4 0.000000 0.784843 0.302104
O O5 0.500000 0.585571 0.288786
O O6 0.664920 0.500000 0.269373
O O7 0.741975 0.565018 0.361163
O O8 0.779246 0.591006 0.234971
O O9 0.179124 0.147982 0.929484
O O10 0.000000 0.064731 0.930352
O O11 0.246596 0.064869 0.000000
O O12 0.291206 0.733678 0.500000
O O13 0.500000 0.729465 0.410178
O O14 0.500000 0.111364 0.349405
O O15 0.735704 0.056007 0.385470
O O16 0.000000 0.500000 0.921200
O O17 0.231541 0.500000 0.000000
#
# Coordination Sequence:
#
# PCOD9519281 Si02
#       6
#    16  16  16  16  16   8
#     4  12  25  40  60  89 123 159 203 257 313 376
#     4  10  19  31  52  81 114 150 189 236 287 339
#     4   8  15  29  50  77 109 147 190 232 272 322
#     4   9  18  35  58  82 113 155 199 240 288 352
#     4  11  22  39  62  87 116 154 199 252 310 371
#     4   9  20  40  65  91 118 155 206 258 309 371
#
# _framework density 20.028960000000001
#
# number of rings (size 3 to 8) (size 9 to 14) (size 15 to 20)
#    0.000    2.091    0.909    4.364    0.000    2.909 
#    0.000    3.636    0.000    5.455    0.000    1.273 
#    0.000    0.000    0.000    0.000    0.000    0.000 
#
# Total GULP energy -245239.252074 kJ/mol
# GULP energy per Si atom -5573.619365 kJ/mol
# Density = 1.998337 g / cm^3
# Si number density = 20.028960 Si / 1000 Ang^3
#
#
#
# Elastic Constant Matrix: (Units=GPa)
#
#
# Indices 1 2 3 4 5 6 
#
# 1 51.9030 28.1884 17.0039 0.0000 0.0000 0.0000
# 2 28.1884 98.6494 33.3572 0.0000 0.0000 0.0000
# 3 17.0039 33.3572 96.5071 0.0000 0.0000 0.0000
# 4 0.0000 0.0000 0.0000 31.4103 0.0000 0.0000
# 5 0.0000 0.0000 0.0000 0.0000 24.7347 0.0000
# 6 0.0000 0.0000 0.0000 0.0000 0.0000 18.5804
#
#
#
# Elastic Compliance Matrix: (Units=1/GPa)
#
#
# Indices 1 2 3 4 5 6 
#
# 1 0.023152 -0.005929 -0.002030 0.000000 0.000000 0.000000
# 2 -0.005929 0.012997 -0.003448 0.000000 0.000000 0.000000
# 3 -0.002030 -0.003448 0.011911 0.000000 0.000000 0.000000
# 4 0.000000 0.000000 0.000000 0.031837 0.000000 0.000000
# 5 0.000000 0.000000 0.000000 0.000000 0.040429 0.000000
# 6 0.000000 0.000000 0.000000 0.000000 0.000000 0.053820
#
#
# Mechanical properties :
#
#
# Convention : Reuss Voigt Hill
#
# Bulk Modulus (GPa) = 39.60902 44.90649 42.25775
# Shear Modulus (GPa) = 24.34577 26.17909 25.26243
#
# Velocity S-wave (km/s) = 3.49023 3.61925 3.55532
# Velocity P-wave (km/s) = 6.00508 6.31940 6.16424
#
# Compressibility (1/GPa) = 0.02524678
#
# Stress axis : x y z
#
# Youngs Moduli (GPa) = 43.19316 76.94148 83.95436
#
# Poissons Ratio (x) = 0.45619 0.17041
# Poissons Ratio (y) = 0.25610 0.28944
# Poissons Ratio (z) = 0.08767 0.26527
#
# Static dielectric constant tensor:
#      x y z
#    x 1.708940 0.000000 0.000000 
#    y 0.000000 1.767550 0.000000 
#    z 0.000000 0.000000 1.726230 
# 
# From -- ./inp_files/50532.got.cif
#   From: 2010.05.17/outbox.cif.g08.bks.cpg/sg71_26_cif.got.tgz:50532.got - 2010.06.03 16:22:01.
