data_PCOD9519832
_publ_section_title
;
Structure prediction by ZEFSAII (Michael W. Deem and Ramdas Pophale) SiO2 
 PCOD9519832
Probable space group: I M M M
;
_chemical_formula_sum "Si O2"
_cell_formula_units_Z 80
_cell_length_a 15.674314
_cell_length_b 7.682104
_cell_length_c 32.981799
_cell_angle_alpha 90.000000
_cell_angle_beta 90.000000
_cell_angle_gamma 90.000000
_cell_volume 3971.394826
_symmetry_space_group_name_H-M "I M M M"
_symmetry_group_IT_number 71
_symmetry_cell_setting 'orthorhombic'
loop_
_space_group_symop_operation_xyz
x,y,z
-x,-y,z
x,-y,-z
-x,y,-z
-x,-y,-z
x,y,-z
-x,y,z
x,-y,z
1/2+x,1/2+y,1/2+z
1/2-x,1/2-y,1/2+z
1/2+x,1/2-y,1/2-z
1/2-x,1/2+y,1/2-z
1/2-x,1/2-y,1/2-z
1/2+x,1/2+y,1/2-z
1/2-x,1/2+y,1/2+z
1/2+x,1/2-y,1/2+z
loop_
_atom_site_type_symbol
_atom_site_label
_atom_site_fract_x
_atom_site_fract_y
_atom_site_fract_z
Si Si1 0.730406 0.292235 0.114631
Si Si2 0.404949 0.209720 0.953331
Si Si3 0.409597 0.294680 0.825104
Si Si4 0.652405 0.792786 0.260750
Si Si5 0.096158 0.713265 0.850680
O O1 0.737456 0.500000 0.119578
O O2 0.673652 0.261747 0.074911
O O3 0.671861 0.221324 0.151448
O O4 0.827328 0.228002 0.119601
O O5 0.500000 0.270754 0.939708
O O6 0.407323 0.000000 0.953234
O O7 0.393733 0.266624 0.000000
O O8 0.500000 0.217155 0.838386
O O9 0.411143 0.500000 0.834468
O O10 0.400335 0.277082 0.777123
O O11 0.750000 0.750000 0.250000
O O12 0.622901 0.731742 0.305018
O O13 0.643029 0.000000 0.261111
O O14 0.094134 0.500000 0.850786
O O15 0.000000 0.771687 0.860055
#
# Coordination Sequence:
#
# PCOD9519832 Si02
#       5
#    16  16  16  16  16
#     4  10  19  33  53  77 104 133 169 212 256 302
#     4   9  19  36  56  79 108 137 163 197 247 308
#     4  10  20  33  48  71 104 136 168 213 264 307
#     4  11  20  33  51  70  98 136 180 221 262 307
#     4   9  18  33  52  72  98 135 177 218 257 297
#
# _framework density 20.144055999999999
#
# number of rings (size 3 to 8) (size 9 to 14) (size 15 to 20)
#    0.000    2.200    2.000    2.400    0.000    3.600 
#    0.000    1.000    0.000    3.600    0.000    4.200 
#    0.000    0.000    0.000    0.000    0.000    0.000 
#
# Total GULP energy -223157.946932 kJ/mol
# GULP energy per Si atom -5578.948673 kJ/mol
# Density = 2.009821 g / cm^3
# Si number density = 20.144056 Si / 1000 Ang^3
#
#
#
# Elastic Constant Matrix: (Units=GPa)
#
#
# Indices 1 2 3 4 5 6 
#
# 1 228.2347 8.8665 81.2766 0.0000 0.0000 0.0000
# 2 8.8665 32.2469 -7.5088 0.0000 0.0000 0.0000
# 3 81.2766 -7.5088 92.8877 0.0000 0.0000 0.0000
# 4 0.0000 0.0000 0.0000 23.3257 0.0000 0.0000
# 5 0.0000 0.0000 0.0000 0.0000 23.4491 0.0000
# 6 0.0000 0.0000 0.0000 0.0000 0.0000 11.6403
#
#
#
# Elastic Compliance Matrix: (Units=1/GPa)
#
#
# Indices 1 2 3 4 5 6 
#
# 1 0.006685 -0.003262 -0.006113 0.000000 0.000000 0.000000
# 2 -0.003262 0.033197 0.005537 0.000000 0.000000 0.000000
# 3 -0.006113 0.005537 0.016562 0.000000 0.000000 0.000000
# 4 0.000000 0.000000 0.000000 0.042871 0.000000 0.000000
# 5 0.000000 0.000000 0.000000 0.000000 0.042646 0.000000
# 6 0.000000 0.000000 0.000000 0.000000 0.000000 0.085908
#
#
# Mechanical properties :
#
#
# Convention : Reuss Voigt Hill
#
# Bulk Modulus (GPa) = 20.50453 57.62645 39.06549
# Shear Modulus (GPa) = 19.85700 29.73202 24.79451
#
# Velocity S-wave (km/s) = 3.14307 3.84600 3.51217
# Velocity P-wave (km/s) = 4.83455 6.95641 5.99018
#
# Compressibility (1/GPa) = 0.04876970
#
# Stress axis : x y z
#
# Youngs Moduli (GPa) = 149.58658 30.12332 60.37824
#
# Poissons Ratio (x) = 0.09825 0.36910
# Poissons Ratio (y) = 0.48788 -0.33434
# Poissons Ratio (z) = 0.91444 -0.16680
#
# Static dielectric constant tensor:
#      x y z
#    x 1.762260 0.000000 0.000000 
#    y 0.000000 1.741150 0.000000 
#    z 0.000000 0.000000 1.700400 
# 
# From -- ./inp_files/70282.got.cif
#   From: 2010.05.17/outbox.cif.g08.bks.cpg/sg71_36_cif.got.tgz:70282.got - 2010.06.03 16:22:01.
