data_PCOD9519751
_publ_section_title
;
Structure prediction by ZEFSAII (Michael W. Deem and Ramdas Pophale) SiO2 
 PCOD9519751
Probable space group: I M M M
;
_chemical_formula_sum "Si O2"
_cell_formula_units_Z 112
_cell_length_a 13.831395
_cell_length_b 16.813206
_cell_length_c 26.017723
_cell_angle_alpha 90.000000
_cell_angle_beta 90.000000
_cell_angle_gamma 90.000000
_cell_volume 6050.423914
_symmetry_space_group_name_H-M "I M M M"
_symmetry_group_IT_number 71
_symmetry_cell_setting 'orthorhombic'
loop_
_space_group_symop_operation_xyz
x,y,z
-x,-y,z
x,-y,-z
-x,y,-z
-x,-y,-z
x,y,-z
-x,y,z
x,-y,z
1/2+x,1/2+y,1/2+z
1/2-x,1/2-y,1/2+z
1/2+x,1/2-y,1/2-z
1/2-x,1/2+y,1/2-z
1/2-x,1/2-y,1/2-z
1/2+x,1/2+y,1/2-z
1/2-x,1/2+y,1/2+z
1/2+x,1/2-y,1/2+z
loop_
_atom_site_type_symbol
_atom_site_label
_atom_site_fract_x
_atom_site_fract_y
_atom_site_fract_z
Si Si1 0.384926 0.825887 0.394051
Si Si2 0.383809 0.089066 0.500000
Si Si3 0.614508 0.500000 0.559127
Si Si4 0.260006 0.411869 0.815154
Si Si5 0.892525 0.594784 0.378948
Si Si6 0.606191 0.865997 0.758864
Si Si7 0.313752 0.348367 0.622426
Si Si8 0.885565 0.821303 0.762736
O O1 0.500000 0.840581 0.382601
O O2 0.360539 0.863806 0.448737
O O3 0.306672 0.863661 0.355145
O O4 0.366249 0.732075 0.394439
O O5 0.500000 0.082465 0.500000
O O6 0.343047 0.000000 0.500000
O O7 0.500000 0.500000 0.554321
O O8 0.654627 0.500000 0.500000
O O9 0.643001 0.576455 0.592822
O O10 0.285696 0.500000 0.833968
O O11 0.186634 0.417187 0.767677
O O12 0.348654 0.365596 0.788608
O O13 0.874164 0.500000 0.386902
O O14 0.898193 0.612525 0.318282
O O15 0.799449 0.646952 0.393460
O O16 0.000000 0.612837 0.400592
O O17 0.500000 0.881616 0.736638
O O18 0.629007 0.773008 0.747662
O O19 0.331019 0.348656 0.684759
O O20 0.000000 0.834121 0.770732
#
# Coordination Sequence:
#
# PCOD9519751 Si02
#       8
#    16   8   8  16  16  16  16  16
#     4  11  23  39  62  89 120 159 198 246 303 360
#     4   9  20  40  64  91 122 155 194 243 302 363
#     4  11  26  42  61  89 119 155 204 259 299 350
#     4  12  23  34  53  83 119 155 200 245 288 354
#     4  10  20  35  56  83 115 156 202 244 295 357
#     4  10  19  33  51  75 110 150 192 240 287 342
#     4  12  22  40  61  86 120 160 204 246 305 363
#     4  11  23  38  55  81 119 164 203 242 299 366
#
# _framework density 18.511099999999999
#
# number of rings (size 3 to 8) (size 9 to 14) (size 15 to 20)
#    0.000    1.143    3.571    3.857    2.000    2.571 
#    0.000    0.000    0.000    0.857    0.000    1.500 
#    0.000    3.429    0.000    0.000    0.000    0.000 
#
# Total GULP energy -312167.589907 kJ/mol
# GULP energy per Si atom -5574.421248 kJ/mol
# Density = 1.846897 g / cm^3
# Si number density = 18.511100 Si / 1000 Ang^3
#
#
#
# Elastic Constant Matrix: (Units=GPa)
#
#
# Indices 1 2 3 4 5 6 
#
# 1 81.0915 18.5355 5.2816 0.0000 0.0000 0.0000
# 2 18.5355 105.3100 42.5688 0.0000 0.0000 0.0000
# 3 5.2816 42.5688 64.6200 0.0000 0.0000 0.0000
# 4 0.0000 0.0000 0.0000 -14.7383 0.0000 0.0000
# 5 0.0000 0.0000 0.0000 0.0000 -3.5270 0.0000
# 6 0.0000 0.0000 0.0000 0.0000 0.0000 20.8885
#
#
#
# Elastic Compliance Matrix: (Units=1/GPa)
#
#
# Indices 1 2 3 4 5 6 
#
# 1 0.012866 -0.002507 0.000600 0.000000 0.000000 0.000000
# 2 -0.002507 0.013431 -0.008643 0.000000 0.000000 0.000000
# 3 0.000600 -0.008643 0.021119 0.000000 0.000000 0.000000
# 4 0.000000 0.000000 0.000000 -0.067850 0.000000 0.000000
# 5 0.000000 0.000000 0.000000 0.000000 -0.283525 0.000000
# 6 0.000000 0.000000 0.000000 0.000000 0.000000 0.047873
#
#
# Mechanical properties :
#
#
# Convention : Reuss Voigt Hill
#
# Bulk Modulus (GPa) = 37.99905 42.64370 40.32137
# Shear Modulus (GPa) = -22.10280 12.83368 -4.63456
#
# Velocity S-wave (km/s) = -3.45922 2.63591 -1.58401
# Velocity P-wave (km/s) = 2.14879 5.68778 4.29931
#
# Compressibility (1/GPa) = 0.02631645
#
# Stress axis : x y z
#
# Youngs Moduli (GPa) = 77.72597 74.45711 47.34988
#
# Poissons Ratio (x) = 0.18666 -0.02841
# Poissons Ratio (y) = 0.19486 0.40922
# Poissons Ratio (z) = -0.04663 0.64350
#
# Static dielectric constant tensor:
#      x y z
#    x 1.682290 0.000000 0.000000 
#    y 0.000000 1.669780 0.000000 
#    z 0.000000 0.000000 1.656780 
# 
# From -- ./inp_files/65554.got.cif
#   From: 2010.05.17/outbox.cif.g08.bks.cpg/sg71_33_cif.got.tgz:65554.got - 2010.06.03 16:22:01.
