data_PCOD9519943
_publ_section_title
;
Structure prediction by ZEFSAII (Michael W. Deem and Ramdas Pophale) SiO2 
 PCOD9519943
Probable space group: I M M M
;
_chemical_formula_sum "Si O2"
_cell_formula_units_Z 112
_cell_length_a 16.660443
_cell_length_b 14.992668
_cell_length_c 22.580594
_cell_angle_alpha 90.000000
_cell_angle_beta 90.000000
_cell_angle_gamma 90.000000
_cell_volume 5640.282170
_symmetry_space_group_name_H-M "I M M M"
_symmetry_group_IT_number 71
_symmetry_cell_setting 'orthorhombic'
loop_
_space_group_symop_operation_xyz
x,y,z
-x,-y,z
x,-y,-z
-x,y,-z
-x,-y,-z
x,y,-z
-x,y,z
x,-y,z
1/2+x,1/2+y,1/2+z
1/2-x,1/2-y,1/2+z
1/2+x,1/2-y,1/2-z
1/2-x,1/2+y,1/2-z
1/2-x,1/2-y,1/2-z
1/2+x,1/2+y,1/2-z
1/2-x,1/2+y,1/2+z
1/2+x,1/2-y,1/2+z
loop_
_atom_site_type_symbol
_atom_site_label
_atom_site_fract_x
_atom_site_fract_y
_atom_site_fract_z
Si Si1 0.834219 0.097603 0.768746
Si Si2 0.241807 0.396343 0.614602
Si Si3 0.841155 0.895300 0.570616
Si Si4 0.409081 0.220862 0.126343
Si Si5 0.284114 0.101773 0.662537
Si Si6 0.910666 0.721021 0.230881
Si Si7 0.086698 0.894741 0.929104
O O1 0.760639 0.103564 0.815105
O O2 0.794105 0.107165 0.704866
O O3 0.895996 0.174984 0.781089
O O4 0.870595 0.000000 0.774558
O O5 0.231940 0.500000 0.595865
O O6 0.163397 0.339120 0.600931
O O7 0.326495 0.359069 0.590057
O O8 0.843610 0.883907 0.500000
O O9 0.896257 0.821214 0.602125
O O10 0.752022 0.879561 0.597928
O O11 0.861039 0.000000 0.583614
O O12 0.500000 0.191979 0.111501
O O13 0.400747 0.213275 0.197845
O O14 0.347285 0.167688 0.691578
O O15 0.314016 0.000000 0.665098
O O16 0.000000 0.691827 0.216067
O O17 0.000000 0.857497 0.908433
O O18 0.088083 0.000000 0.912190
O O19 0.085518 0.891053 0.000000
#
# Coordination Sequence:
#
# PCOD9519943 Si02
#       7
#    16  16  16  16  16  16  16
#     4  10  19  33  55  81 111 151 191 236 295 358
#     4  10  20  34  55  83 119 160 195 232 289 355
#     4  10  22  41  65  88 110 148 205 264 316 361
#     4  11  23  37  56  85 121 160 204 249 293 354
#     4  10  19  36  61  86 116 153 197 248 303 364
#     4  11  22  35  55  85 122 158 193 242 304 369
#     4   8  15  30  52  76 103 139 185 233 278 329
#
# _framework density 19.857161999999999
#
# number of rings (size 3 to 8) (size 9 to 14) (size 15 to 20)
#    0.000    2.000    2.857    1.714    0.000    2.571 
#    0.000    5.000    0.000    0.429    0.000    5.000 
#    0.000    0.000    0.000    0.000    0.000    0.143 
#
# Total GULP energy -312224.742462 kJ/mol
# GULP energy per Si atom -5575.441830 kJ/mol
# Density = 1.981197 g / cm^3
# Si number density = 19.857162 Si / 1000 Ang^3
#
#
#
# Elastic Constant Matrix: (Units=GPa)
#
#
# Indices 1 2 3 4 5 6 
#
# 1 137.6212 53.3286 27.5683 0.0000 0.0000 0.0000
# 2 53.3286 58.6675 4.3333 0.0000 0.0000 0.0000
# 3 27.5683 4.3333 39.4739 0.0000 0.0000 0.0000
# 4 0.0000 0.0000 0.0000 19.6588 0.0000 0.0000
# 5 0.0000 0.0000 0.0000 0.0000 20.3545 0.0000
# 6 0.0000 0.0000 0.0000 0.0000 0.0000 3.4817
#
#
#
# Elastic Compliance Matrix: (Units=1/GPa)
#
#
# Indices 1 2 3 4 5 6 
#
# 1 0.013354 -0.011543 -0.008059 0.000000 0.000000 0.000000
# 2 -0.011543 0.027163 0.005080 0.000000 0.000000 0.000000
# 3 -0.008059 0.005080 0.030404 0.000000 0.000000 0.000000
# 4 0.000000 0.000000 0.000000 0.050868 0.000000 0.000000
# 5 0.000000 0.000000 0.000000 0.000000 0.049129 0.000000
# 6 0.000000 0.000000 0.000000 0.000000 0.000000 0.287215
#
#
# Mechanical properties :
#
#
# Convention : Reuss Voigt Hill
#
# Bulk Modulus (GPa) = 23.88018 45.13589 34.50803
# Shear Modulus (GPa) = 9.97733 18.73449 14.35591
#
# Velocity S-wave (km/s) = 2.24398 3.07492 2.69171
# Velocity P-wave (km/s) = 4.33198 5.94865 5.20348
#
# Compressibility (1/GPa) = 0.04187573
#
# Stress axis : x y z
#
# Youngs Moduli (GPa) = 74.88537 36.81508 32.89053
#
# Poissons Ratio (x) = 0.42497 0.26506
# Poissons Ratio (y) = 0.86442 -0.16708
# Poissons Ratio (z) = 0.60350 -0.18702
#
# Static dielectric constant tensor:
#      x y z
#    x 1.696360 0.000000 0.000000 
#    y 0.000000 1.718290 0.000000 
#    z 0.000000 0.000000 1.763200 
# 
# From -- ./inp_files/34882.got.cif
#   From: 2010.05.17/outbox.cif.g08.bks.cpg/sg71_18_cif.got.tgz:34882.got - 2010.06.03 16:22:01.
