data_PCOD9519978
_publ_section_title
;
Structure prediction by ZEFSAII (Michael W. Deem and Ramdas Pophale) SiO2 
 PCOD9519978
Probable space group: I M M M
;
_chemical_formula_sum "Si O2"
_cell_formula_units_Z 72
_cell_length_a 9.162632
_cell_length_b 13.596861
_cell_length_c 30.521838
_cell_angle_alpha 90.000000
_cell_angle_beta 90.000000
_cell_angle_gamma 90.000000
_cell_volume 3802.503172
_symmetry_space_group_name_H-M "I M M M"
_symmetry_group_IT_number 71
_symmetry_cell_setting 'orthorhombic'
loop_
_space_group_symop_operation_xyz
x,y,z
-x,-y,z
x,-y,-z
-x,y,-z
-x,-y,-z
x,y,-z
-x,y,z
x,-y,z
1/2+x,1/2+y,1/2+z
1/2-x,1/2-y,1/2+z
1/2+x,1/2-y,1/2-z
1/2-x,1/2+y,1/2-z
1/2-x,1/2-y,1/2-z
1/2+x,1/2+y,1/2-z
1/2-x,1/2+y,1/2+z
1/2+x,1/2-y,1/2+z
loop_
_atom_site_type_symbol
_atom_site_label
_atom_site_fract_x
_atom_site_fract_y
_atom_site_fract_z
Si Si1 0.668014 0.885320 0.696981
Si Si2 0.176750 0.500000 0.051399
Si Si3 0.664266 0.618248 0.282151
Si Si4 0.325671 0.113967 0.873367
Si Si5 0.671478 0.801397 0.400187
O O1 0.500000 0.880371 0.712175
O O2 0.771141 0.848852 0.735710
O O3 0.681359 0.832500 0.650753
O O4 0.700082 0.000000 0.688700
O O5 0.226734 0.602800 0.073188
O O6 0.000000 0.500000 0.057563
O O7 0.208722 0.500000 0.000000
O O8 0.500000 0.655763 0.290017
O O9 0.656068 0.500000 0.278402
O O10 0.765550 0.633953 0.324240
O O11 0.500000 0.121217 0.873696
O O12 0.256037 0.198348 0.903868
O O13 0.285499 0.000000 0.884149
O O14 0.500000 0.786631 0.410717
#
# Coordination Sequence:
#
# PCOD9519978 Si02
#       5
#    16   8  16  16  16
#     4   9  16  28  46  70 104 141 178 219 267 323
#     4   9  18  36  63  93 119 139 167 215 279 343
#     4   9  17  29  46  70 101 140 186 231 270 310
#     4  10  21  36  52  73 105 146 189 228 268 313
#     4  10  19  33  56  83 108 139 177 219 270 326
#
# _framework density 18.934895999999998
#
# number of rings (size 3 to 8) (size 9 to 14) (size 15 to 20)
#    0.000    2.556    1.111    1.333    0.000    5.778 
#    0.000    0.556    0.000    2.000    0.000    4.667 
#    0.000    0.000    0.000    0.000    0.000    0.000 
#
# Total GULP energy -200776.427787 kJ/mol
# GULP energy per Si atom -5577.122994 kJ/mol
# Density = 1.889180 g / cm^3
# Si number density = 18.934896 Si / 1000 Ang^3
#
#
#
# Elastic Constant Matrix: (Units=GPa)
#
#
# Indices 1 2 3 4 5 6 
#
# 1 57.8516 46.8409 23.0876 0.0000 0.0000 0.0000
# 2 46.8409 135.4013 42.4700 0.0000 0.0000 0.0000
# 3 23.0876 42.4700 44.6898 0.0000 0.0000 0.0000
# 4 0.0000 0.0000 0.0000 7.7988 0.0000 0.0000
# 5 0.0000 0.0000 0.0000 0.0000 8.2272 0.0000
# 6 0.0000 0.0000 0.0000 0.0000 0.0000 21.2568
#
#
#
# Elastic Compliance Matrix: (Units=1/GPa)
#
#
# Indices 1 2 3 4 5 6 
#
# 1 0.025380 -0.006650 -0.006793 0.000000 0.000000 0.000000
# 2 -0.006650 0.012264 -0.008219 0.000000 0.000000 0.000000
# 3 -0.006793 -0.008219 0.033697 0.000000 0.000000 0.000000
# 4 0.000000 0.000000 0.000000 0.128225 0.000000 0.000000
# 5 0.000000 0.000000 0.000000 0.000000 0.121548 0.000000
# 6 0.000000 0.000000 0.000000 0.000000 0.000000 0.047044
#
#
# Mechanical properties :
#
#
# Convention : Reuss Voigt Hill
#
# Bulk Modulus (GPa) = 35.69168 51.41551 43.55360
# Shear Modulus (GPa) = 11.88154 15.82618 13.85386
#
# Velocity S-wave (km/s) = 2.50770 2.89419 2.70785
# Velocity P-wave (km/s) = 5.22258 6.19526 5.72960
#
# Compressibility (1/GPa) = 0.02801773
#
# Stress axis : x y z
#
# Youngs Moduli (GPa) = 39.40040 81.54001 29.67624
#
# Poissons Ratio (x) = 0.54220 0.20159
# Poissons Ratio (y) = 0.26199 0.24392
# Poissons Ratio (z) = 0.26764 0.67022
#
# Static dielectric constant tensor:
#      x y z
#    x 1.659220 0.000000 0.000000 
#    y 0.000000 1.751450 0.000000 
#    z 0.000000 0.000000 1.611520 
# 
# From -- ./inp_files/62853.got.cif
#   From: 2010.05.17/outbox.cif.g08.bks.cpg/sg71_32_cif.got.tgz:62853.got - 2010.06.03 16:22:01.
