data_PCOD9519180
_publ_section_title
;
Structure prediction by ZEFSAII (Michael W. Deem and Ramdas Pophale) SiO2 
 PCOD9519180
Probable space group: I M M M
;
_chemical_formula_sum "Si O2"
_cell_formula_units_Z 104
_cell_length_a 21.995449
_cell_length_b 7.550340
_cell_length_c 28.848662
_cell_angle_alpha 90.000000
_cell_angle_beta 90.000000
_cell_angle_gamma 90.000000
_cell_volume 4790.987260
_symmetry_space_group_name_H-M "I M M M"
_symmetry_group_IT_number 71
_symmetry_cell_setting 'orthorhombic'
loop_
_space_group_symop_operation_xyz
x,y,z
-x,-y,z
x,-y,-z
-x,y,-z
-x,-y,-z
x,y,-z
-x,y,z
x,-y,z
1/2+x,1/2+y,1/2+z
1/2-x,1/2-y,1/2+z
1/2+x,1/2-y,1/2-z
1/2-x,1/2+y,1/2-z
1/2-x,1/2-y,1/2-z
1/2+x,1/2+y,1/2-z
1/2-x,1/2+y,1/2+z
1/2+x,1/2-y,1/2+z
loop_
_atom_site_type_symbol
_atom_site_label
_atom_site_fract_x
_atom_site_fract_y
_atom_site_fract_z
Si Si1 0.736221 0.202799 0.861192
Si Si2 0.683965 0.208971 0.448353
Si Si3 0.600972 0.783322 0.874664
Si Si4 0.934453 0.712458 0.272258
Si Si5 0.568845 0.285983 0.606875
Si Si6 0.651986 0.710775 0.691334
Si Si7 0.000000 0.716782 0.553226
O O1 0.776286 0.204274 0.907959
O O2 0.670566 0.280528 0.872825
O O3 0.781432 0.282897 0.822349
O O4 0.723555 0.000000 0.846851
O O5 0.696366 0.275870 0.500000
O O6 0.613567 0.235107 0.434764
O O7 0.697093 0.000000 0.446969
O O8 0.572490 0.731136 0.825362
O O9 0.559226 0.726101 0.917462
O O10 0.600727 0.000000 0.876672
O O11 0.936144 0.500000 0.272189
O O12 0.876781 0.761431 0.241329
O O13 0.000000 0.777222 0.253481
O O14 0.500000 0.221214 0.603373
O O15 0.566851 0.500000 0.608597
O O16 0.602962 0.222126 0.653547
O O17 0.656328 0.500000 0.684172
O O18 0.000000 0.500000 0.552778
O O19 0.000000 0.775332 0.500000
#
# Coordination Sequence:
#
# PCOD9519180 Si02
#       7
#    16  16  16  16  16  16   8
#     4   9  19  35  54  73  99 135 173 216 261 306
#     4  10  21  35  50  71 101 134 168 212 263 310
#     4   9  17  32  51  75 106 133 163 209 262 313
#     4  10  19  31  50  75 105 139 169 205 258 314
#     4   9  18  33  52  73 100 135 174 217 260 300
#     4   9  18  32  48  71 102 136 173 211 249 293
#     4   9  16  28  50  80 109 133 163 211 268 321
#
# _framework density 21.707426999999999
#
# number of rings (size 3 to 8) (size 9 to 14) (size 15 to 20)
#    0.000    2.692    0.769    1.846    0.000    6.462 
#    0.000    3.846    0.000    0.000    0.000    0.000 
#    0.000    2.462    0.000    0.000    0.000    0.000 
#
# Total GULP energy -290123.751417 kJ/mol
# GULP energy per Si atom -5579.302912 kJ/mol
# Density = 2.165802 g / cm^3
# Si number density = 21.707427 Si / 1000 Ang^3
#
#
#
# Elastic Constant Matrix: (Units=GPa)
#
#
# Indices 1 2 3 4 5 6 
#
# 1 186.4370 3.2039 65.2272 0.0000 0.0000 0.0000
# 2 3.2039 52.2884 -4.2722 0.0000 0.0000 0.0000
# 3 65.2272 -4.2722 125.8180 0.0000 0.0000 0.0000
# 4 0.0000 0.0000 0.0000 11.1669 0.0000 0.0000
# 5 0.0000 0.0000 0.0000 0.0000 11.3786 0.0000
# 6 0.0000 0.0000 0.0000 0.0000 0.0000 -1.7652
#
#
#
# Elastic Compliance Matrix: (Units=1/GPa)
#
#
# Indices 1 2 3 4 5 6 
#
# 1 0.006576 -0.000683 -0.003433 0.000000 0.000000 0.000000
# 2 -0.000683 0.019249 0.001008 0.000000 0.000000 0.000000
# 3 -0.003433 0.001008 0.009762 0.000000 0.000000 0.000000
# 4 0.000000 0.000000 0.000000 0.089550 0.000000 0.000000
# 5 0.000000 0.000000 0.000000 0.000000 0.087884 0.000000
# 6 0.000000 0.000000 0.000000 0.000000 0.000000 -0.566507
#
#
# Mechanical properties :
#
#
# Convention : Reuss Voigt Hill
#
# Bulk Modulus (GPa) = 34.04733 54.76237 44.40485
# Shear Modulus (GPa) = -14.81573 24.18169 4.68298
#
# Velocity S-wave (km/s) = -2.61534 3.34126 1.47037
# Velocity P-wave (km/s) = 2.56879 6.33779 4.83561
#
# Compressibility (1/GPa) = 0.02937088
#
# Stress axis : x y z
#
# Youngs Moduli (GPa) = 152.05844 51.95099 102.44061
#
# Poissons Ratio (x) = 0.03550 0.35164
# Poissons Ratio (y) = 0.10392 -0.10325
# Poissons Ratio (z) = 0.52195 -0.05236
#
# Static dielectric constant tensor:
#      x y z
#    x 1.816760 0.000000 0.000000 
#    y 0.000000 1.846040 0.000000 
#    z 0.000000 0.000000 1.765710 
# 
# From -- ./inp_files/66854.got.cif
#   From: 2010.05.17/outbox.cif.g08.bks.cpg/sg71_34_cif.got.tgz:66854.got - 2010.06.03 16:22:01.
