data_PCOD9519257
_publ_section_title
;
Structure prediction by ZEFSAII (Michael W. Deem and Ramdas Pophale) SiO2 
 PCOD9519257
Probable space group: I M M M
;
_chemical_formula_sum "Si O2"
_cell_formula_units_Z 88
_cell_length_a 22.827409
_cell_length_b 8.130348
_cell_length_c 24.684655
_cell_angle_alpha 90.000000
_cell_angle_beta 90.000000
_cell_angle_gamma 90.000000
_cell_volume 4581.343092
_symmetry_space_group_name_H-M "I M M M"
_symmetry_group_IT_number 71
_symmetry_cell_setting 'orthorhombic'
loop_
_space_group_symop_operation_xyz
x,y,z
-x,-y,z
x,-y,-z
-x,y,-z
-x,-y,-z
x,y,-z
-x,y,z
x,-y,z
1/2+x,1/2+y,1/2+z
1/2-x,1/2-y,1/2+z
1/2+x,1/2-y,1/2-z
1/2-x,1/2+y,1/2-z
1/2-x,1/2-y,1/2-z
1/2+x,1/2+y,1/2-z
1/2-x,1/2+y,1/2+z
1/2+x,1/2-y,1/2+z
loop_
_atom_site_type_symbol
_atom_site_label
_atom_site_fract_x
_atom_site_fract_y
_atom_site_fract_z
Si Si1 0.563427 0.698240 0.739880
Si Si2 0.653273 0.303408 0.348735
Si Si3 0.399839 0.192435 0.145679
Si Si4 0.000000 0.804234 0.562669
Si Si5 0.273917 0.801120 0.809939
Si Si6 0.564538 0.801792 0.437704
O O1 0.500000 0.732261 0.714338
O O2 0.568427 0.500000 0.746208
O O3 0.616118 0.760716 0.702639
O O4 0.565750 0.777980 0.798508
O O5 0.654601 0.500000 0.342754
O O6 0.719929 0.247290 0.347866
O O7 0.616302 0.261275 0.401009
O O8 0.441379 0.257167 0.097149
O O9 0.335178 0.260793 0.163957
O O10 0.392013 0.000000 0.134734
O O11 0.000000 0.740272 0.500000
O O12 0.000000 0.000000 0.559667
O O13 0.250000 0.750000 0.750000
O O14 0.278767 0.000000 0.807952
O O15 0.571664 0.752031 0.500000
O O16 0.500000 0.744074 0.419436
O O17 0.564408 0.000000 0.435824
#
# Coordination Sequence:
#
# PCOD9519257 Si02
#       6
#    16  16  16   8  16  16
#     4  10  19  31  51  80 115 151 184 226 281 335
#     4  10  20  34  53  80 113 149 188 225 268 327
#     4  11  22  36  58  88 116 145 187 236 289 346
#     4  11  25  45  67  87 111 151 200 247 300 357
#     4  10  21  36  55  83 118 154 188 225 278 342
#     4   9  19  36  55  76 106 144 185 231 279 322
#
# _framework density 19.208341000000001
#
# number of rings (size 3 to 8) (size 9 to 14) (size 15 to 20)
#    0.000    1.909    2.727    1.909    0.000    4.364 
#    0.000    1.818    0.000    5.455    0.000    0.000 
#    0.000    0.000    0.000    0.000    0.000    0.000 
#
# Total GULP energy -245165.404423 kJ/mol
# GULP energy per Si atom -5571.941010 kJ/mol
# Density = 1.916462 g / cm^3
# Si number density = 19.208341 Si / 1000 Ang^3
#
#
#
# Elastic Constant Matrix: (Units=GPa)
#
#
# Indices 1 2 3 4 5 6 
#
# 1 188.7615 19.5319 78.5347 0.0000 0.0000 0.0000
# 2 19.5319 11.4926 7.2901 0.0000 0.0000 0.0000
# 3 78.5347 7.2901 115.3742 0.0000 0.0000 0.0000
# 4 0.0000 0.0000 0.0000 8.0653 0.0000 0.0000
# 5 0.0000 0.0000 0.0000 0.0000 -109.2615 0.0000
# 6 0.0000 0.0000 0.0000 0.0000 0.0000 17.3765
#
#
#
# Elastic Compliance Matrix: (Units=1/GPa)
#
#
# Indices 1 2 3 4 5 6 
#
# 1 0.008616 -0.011379 -0.005146 0.000000 0.000000 0.000000
# 2 -0.011379 0.105673 0.001069 0.000000 0.000000 0.000000
# 3 -0.005146 0.001069 0.012103 0.000000 0.000000 0.000000
# 4 0.000000 0.000000 0.000000 0.123988 0.000000 0.000000
# 5 0.000000 0.000000 0.000000 0.000000 -0.009152 0.000000
# 6 0.000000 0.000000 0.000000 0.000000 0.000000 0.057549
#
#
# Mechanical properties :
#
#
# Convention : Reuss Voigt Hill
#
# Bulk Modulus (GPa) = 10.47347 58.48241 34.47794
# Shear Modulus (GPa) = 13.83064 -2.74584 5.54240
#
# Velocity S-wave (km/s) = 2.68625 -1.19692 1.70049
# Velocity P-wave (km/s) = 3.88403 5.34811 4.67376
#
# Compressibility (1/GPa) = 0.09547934
#
# Stress axis : x y z
#
# Youngs Moduli (GPa) = 116.06160 9.46313 82.62573
#
# Poissons Ratio (x) = 0.10768 0.42519
# Poissons Ratio (y) = 1.32067 -0.08829
# Poissons Ratio (z) = 0.59725 -0.01011
#
# Static dielectric constant tensor:
#      x y z
#    x 1.751500 0.000000 0.000000 
#    y 0.000000 1.685190 0.000000 
#    z 0.000000 0.000000 1.658680 
# 
# From -- ./inp_files/10409.got.cif
#   From: 2010.05.17/outbox.cif.g08.bks.cpg/sg71_6_cif.got.tgz:10409.got - 2010.06.03 16:22:01.
