data_PCOD9519009
_publ_section_title
;
Structure prediction by ZEFSAII (Michael W. Deem and Ramdas Pophale) SiO2 
 PCOD9519009
Probable space group: I M M M
;
_chemical_formula_sum "Si O2"
_cell_formula_units_Z 88
_cell_length_a 19.631297
_cell_length_b 9.966154
_cell_length_c 27.078069
_cell_angle_alpha 90.000000
_cell_angle_beta 90.000000
_cell_angle_gamma 90.000000
_cell_volume 5297.784371
_symmetry_space_group_name_H-M "I M M M"
_symmetry_group_IT_number 71
_symmetry_cell_setting 'orthorhombic'
loop_
_space_group_symop_operation_xyz
x,y,z
-x,-y,z
x,-y,-z
-x,y,-z
-x,-y,-z
x,y,-z
-x,y,z
x,-y,z
1/2+x,1/2+y,1/2+z
1/2-x,1/2-y,1/2+z
1/2+x,1/2-y,1/2-z
1/2-x,1/2+y,1/2-z
1/2-x,1/2-y,1/2-z
1/2+x,1/2+y,1/2-z
1/2-x,1/2+y,1/2+z
1/2+x,1/2-y,1/2+z
loop_
_atom_site_type_symbol
_atom_site_label
_atom_site_fract_x
_atom_site_fract_y
_atom_site_fract_z
Si Si1 0.787980 0.221928 0.354631
Si Si2 0.127335 0.156703 0.441027
Si Si3 0.000000 0.655003 0.560002
Si Si4 0.422653 0.500000 0.709617
Si Si5 0.286306 0.000000 0.703922
Si Si6 0.574907 0.291427 0.202299
Si Si7 0.426529 0.000000 0.245775
Si Si8 0.730093 0.500000 0.315987
O O1 0.804283 0.196726 0.411788
O O2 0.860067 0.178139 0.330308
O O3 0.765548 0.370714 0.340153
O O4 0.733770 0.127184 0.328401
O O5 0.135441 0.168250 0.500000
O O6 0.067026 0.259813 0.426017
O O7 0.110133 0.000000 0.430748
O O8 0.000000 0.500000 0.578142
O O9 0.000000 0.649561 0.500000
O O10 0.500000 0.500000 0.687427
O O11 0.419110 0.371818 0.746308
O O12 0.352378 0.500000 0.678787
O O13 0.364850 0.000000 0.717080
O O14 0.247211 0.000000 0.756979
O O15 0.500000 0.325643 0.181785
O O16 0.577449 0.133335 0.213114
O O17 0.500000 0.000000 0.271005
#
# Coordination Sequence:
#
# PCOD9519009 Si02
#       8
#    16  16   8   8   8  16   8   8
#     4  12  22  34  53  80 101 147 185 221 273 316
#     4  10  22  40  55  76 108 144 187 230 271 324
#     4   9  19  37  61  81 105 141 181 237 289 309
#     4  10  20  34  50  70 102 143 174 211 260 315
#     4  12  20  36  53  74 108 138 180 220 261 329
#     4  10  19  31  46  71 102 136 180 212 254 310
#     4  10  20  34  50  70 102 141 168 213 264 311
#     4  12  22  34  53  78 112 136 174 232 271 319
#
# _framework density 16.610717000000001
#
# number of rings (size 3 to 8) (size 9 to 14) (size 15 to 20)
#    0.000    1.364    4.545    1.909    2.545    1.091 
#    0.000    0.000    0.000    0.000    0.000    0.000 
#    0.000    4.364    0.000    0.000    0.000    0.000 
#
# Total GULP energy -245511.560741 kJ/mol
# GULP energy per Si atom -5579.808199 kJ/mol
# Density = 1.657291 g / cm^3
# Si number density = 16.610717 Si / 1000 Ang^3
#
#
#
# Elastic Constant Matrix: (Units=GPa)
#
#
# Indices 1 2 3 4 5 6 
#
# 1 108.2062 -2.0602 23.6471 0.0000 0.0000 0.0000
# 2 -2.0602 96.7623 20.4158 0.0000 0.0000 0.0000
# 3 23.6471 20.4158 44.1361 0.0000 0.0000 0.0000
# 4 0.0000 0.0000 0.0000 42.2536 0.0000 0.0000
# 5 0.0000 0.0000 0.0000 0.0000 26.3312 0.0000
# 6 0.0000 0.0000 0.0000 0.0000 0.0000 22.4152
#
#
#
# Elastic Compliance Matrix: (Units=1/GPa)
#
#
# Indices 1 2 3 4 5 6 
#
# 1 0.010684 0.001590 -0.006460 0.000000 0.000000 0.000000
# 2 0.001590 0.011689 -0.006259 0.000000 0.000000 0.000000
# 3 -0.006460 -0.006259 0.029013 0.000000 0.000000 0.000000
# 4 0.000000 0.000000 0.000000 0.023667 0.000000 0.000000
# 5 0.000000 0.000000 0.000000 0.000000 0.037978 0.000000
# 6 0.000000 0.000000 0.000000 0.000000 0.000000 0.044613
#
#
# Mechanical properties :
#
#
# Convention : Reuss Voigt Hill
#
# Bulk Modulus (GPa) = 34.32967 37.01224 35.67095
# Shear Modulus (GPa) = 26.37003 32.00681 29.18842
#
# Velocity S-wave (km/s) = 3.98871 4.39438 4.19645
# Velocity P-wave (km/s) = 6.47496 6.93383 6.70832
#
# Compressibility (1/GPa) = 0.02912932
#
# Stress axis : x y z
#
# Youngs Moduli (GPa) = 93.60165 85.55013 34.46690
#
# Poissons Ratio (x) = -0.13606 0.22264
# Poissons Ratio (y) = -0.14886 0.21573
# Poissons Ratio (z) = 0.60464 0.53546
#
# Static dielectric constant tensor:
#      x y z
#    x 1.574420 0.000000 0.000000 
#    y 0.000000 1.583730 0.000000 
#    z 0.000000 0.000000 1.571690 
# 
# From -- ./inp_files/61212.got.cif
#   From: 2010.05.17/outbox.cif.g08.bks.cpg/sg71_31_cif.got.tgz:61212.got - 2010.06.03 16:22:01.
