data_PCOD9519805
_publ_section_title
;
Structure prediction by ZEFSAII (Michael W. Deem and Ramdas Pophale) SiO2 
 PCOD9519805
Probable space group: I M M M
;
_chemical_formula_sum "Si O2"
_cell_formula_units_Z 112
_cell_length_a 15.828357
_cell_length_b 18.969681
_cell_length_c 20.123561
_cell_angle_alpha 90.000000
_cell_angle_beta 90.000000
_cell_angle_gamma 90.000000
_cell_volume 6042.277949
_symmetry_space_group_name_H-M "I M M M"
_symmetry_group_IT_number 71
_symmetry_cell_setting 'orthorhombic'
loop_
_space_group_symop_operation_xyz
x,y,z
-x,-y,z
x,-y,-z
-x,y,-z
-x,-y,-z
x,y,-z
-x,y,z
x,-y,z
1/2+x,1/2+y,1/2+z
1/2-x,1/2-y,1/2+z
1/2+x,1/2-y,1/2-z
1/2-x,1/2+y,1/2-z
1/2-x,1/2-y,1/2-z
1/2+x,1/2+y,1/2-z
1/2-x,1/2+y,1/2+z
1/2+x,1/2-y,1/2+z
loop_
_atom_site_type_symbol
_atom_site_label
_atom_site_fract_x
_atom_site_fract_y
_atom_site_fract_z
Si Si1 0.899947 0.226175 0.074482
Si Si2 0.899895 0.726553 0.423230
Si Si3 0.673803 0.922301 0.109167
Si Si4 0.334385 0.280884 0.785493
Si Si5 0.096901 0.672797 0.187759
Si Si6 0.862529 0.075333 0.074884
Si Si7 0.755960 0.581568 0.759256
O O1 0.869618 0.286656 0.122655
O O2 0.887432 0.149091 0.106385
O O3 0.000000 0.236090 0.069098
O O4 0.862911 0.226871 0.000000
O O5 0.875907 0.743661 0.500000
O O6 0.882394 0.643207 0.411903
O O7 0.848611 0.764510 0.363477
O O8 0.000000 0.740784 0.415692
O O9 0.761657 0.922755 0.069668
O O10 0.709997 0.913187 0.183696
O O11 0.633796 0.000000 0.103268
O O12 0.250000 0.250000 0.750000
O O13 0.401553 0.232748 0.745704
O O14 0.320949 0.364157 0.772765
O O15 0.162366 0.610626 0.201522
O O16 0.000000 0.649205 0.179938
O O17 0.885816 0.000000 0.106406
O O18 0.898620 0.076287 0.000000
O O19 0.736048 0.500000 0.772710
#
# Coordination Sequence:
#
# PCOD9519805 Si02
#       7
#    16  16  16  16  16  16  16
#     4   9  18  30  46  72 103 136 177 226 280 333
#     4  11  23  37  56  85 119 156 195 236 287 344
#     4  10  19  33  52  78 113 151 187 224 271 335
#     4  10  19  36  58  80 109 144 192 237 282 331
#     4  10  19  33  55  78 106 143 180 224 278 336
#     4   9  17  28  44  68 101 141 179 213 254 312
#     4  10  21  35  55  81 109 142 186 236 284 335
#
# _framework density 18.536055999999999
#
# number of rings (size 3 to 8) (size 9 to 14) (size 15 to 20)
#    0.000    2.143    2.857    1.714    2.000    1.714 
#    0.000    3.571    0.000    4.286    0.000    3.000 
#    0.000    0.000    0.000    0.000    0.000    0.000 
#
# Total GULP energy -311793.661551 kJ/mol
# GULP energy per Si atom -5567.743956 kJ/mol
# Density = 1.849387 g / cm^3
# Si number density = 18.536056 Si / 1000 Ang^3
#
#
#
# Elastic Constant Matrix: (Units=GPa)
#
#
# Indices 1 2 3 4 5 6 
#
# 1 44.6951 8.0653 16.4867 0.0000 0.0000 0.0000
# 2 8.0653 96.3820 40.2736 0.0000 0.0000 0.0000
# 3 16.4867 40.2736 107.7424 0.0000 0.0000 0.0000
# 4 0.0000 0.0000 0.0000 5.0408 0.0000 0.0000
# 5 0.0000 0.0000 0.0000 0.0000 20.1079 0.0000
# 6 0.0000 0.0000 0.0000 0.0000 0.0000 17.5549
#
#
#
# Elastic Compliance Matrix: (Units=1/GPa)
#
#
# Indices 1 2 3 4 5 6 
#
# 1 0.023737 -0.000555 -0.003425 0.000000 0.000000 0.000000
# 2 -0.000555 0.012309 -0.004516 0.000000 0.000000 0.000000
# 3 -0.003425 -0.004516 0.011494 0.000000 0.000000 0.000000
# 4 0.000000 0.000000 0.000000 0.198381 0.000000 0.000000
# 5 0.000000 0.000000 0.000000 0.000000 0.049732 0.000000
# 6 0.000000 0.000000 0.000000 0.000000 0.000000 0.056964
#
#
# Mechanical properties :
#
#
# Convention : Reuss Voigt Hill
#
# Bulk Modulus (GPa) = 32.73580 42.05232 37.39406
# Shear Modulus (GPa) = 13.16513 20.80700 16.98606
#
# Velocity S-wave (km/s) = 2.66793 3.35403 3.03046
# Velocity P-wave (km/s) = 5.21435 6.14291 5.69758
#
# Compressibility (1/GPa) = 0.03054760
#
# Stress axis : x y z
#
# Youngs Moduli (GPa) = 42.12777 81.24213 87.00563
#
# Poissons Ratio (x) = 0.04512 0.29797
# Poissons Ratio (y) = 0.02339 0.39292
# Poissons Ratio (z) = 0.14427 0.36689
#
# Static dielectric constant tensor:
#      x y z
#    x 1.671630 0.000000 0.000000 
#    y 0.000000 1.677800 0.000000 
#    z 0.000000 0.000000 1.703770 
# 
# From -- ./inp_files/47507.got.cif
#   From: 2010.05.17/outbox.cif.g08.bks.cpg/sg71_24_cif.got.tgz:47507.got - 2010.06.03 16:22:01.
