data_PCOD9519589
_publ_section_title
;
Structure prediction by ZEFSAII (Michael W. Deem and Ramdas Pophale) SiO2 
 PCOD9519589
Probable space group: I M M M
;
_chemical_formula_sum "Si O2"
_cell_formula_units_Z 112
_cell_length_a 24.886654
_cell_length_b 15.346870
_cell_length_c 14.734123
_cell_angle_alpha 90.000000
_cell_angle_beta 90.000000
_cell_angle_gamma 90.000000
_cell_volume 5627.436656
_symmetry_space_group_name_H-M "I M M M"
_symmetry_group_IT_number 71
_symmetry_cell_setting 'orthorhombic'
loop_
_space_group_symop_operation_xyz
x,y,z
-x,-y,z
x,-y,-z
-x,y,-z
-x,-y,-z
x,y,-z
-x,y,z
x,-y,z
1/2+x,1/2+y,1/2+z
1/2-x,1/2-y,1/2+z
1/2+x,1/2-y,1/2-z
1/2-x,1/2+y,1/2-z
1/2-x,1/2-y,1/2-z
1/2+x,1/2+y,1/2-z
1/2-x,1/2+y,1/2+z
1/2+x,1/2-y,1/2+z
loop_
_atom_site_type_symbol
_atom_site_label
_atom_site_fract_x
_atom_site_fract_y
_atom_site_fract_z
Si Si1 0.600052 0.211625 0.608499
Si Si2 0.560323 0.103098 0.227902
Si Si3 0.936182 0.095713 0.890601
Si Si4 0.792116 0.174434 0.722630
Si Si5 0.797636 0.596580 0.106485
Si Si6 0.849743 0.693606 0.606105
Si Si7 0.767507 0.103248 0.902225
O O1 0.589194 0.201389 0.500000
O O2 0.565571 0.151017 0.675169
O O3 0.589322 0.311575 0.635184
O O4 0.659918 0.173291 0.625380
O O5 0.500000 0.117560 0.192329
O O6 0.604823 0.140988 0.159561
O O7 0.568492 0.000000 0.238904
O O8 0.000000 0.100489 0.869748
O O9 0.916401 0.000000 0.857380
O O10 0.931115 0.092951 0.000000
O O11 0.750000 0.250000 0.750000
O O12 0.756247 0.110060 0.662321
O O13 0.837908 0.218263 0.662434
O O14 0.803680 0.129574 0.817897
O O15 0.820595 0.500000 0.126166
O O16 0.785513 0.600943 0.000000
O O17 0.862427 0.707893 0.500000
O O18 0.792705 0.641615 0.607888
O O19 0.763198 0.000000 0.904274
O O20 0.789076 0.134937 0.000000
#
# Coordination Sequence:
#
# PCOD9519589 Si02
#       7
#    16  16  16  16  16  16  16
#     4  10  19  32  53  82 120 163 199 237 291 354
#     4  11  24  39  57  84 114 147 194 247 298 355
#     4   8  14  26  46  71  98 136 191 246 289 331
#     4  10  19  32  53  79 109 146 188 236 282 334
#     4  10  20  33  52  80 114 154 198 239 283 341
#     4  10  21  38  59  81 108 148 196 244 296 346
#     4   9  17  30  52  83 117 151 184 222 277 347
#
# _framework density 19.90249
#
# number of rings (size 3 to 8) (size 9 to 14) (size 15 to 20)
#    0.000    2.286    0.000    4.286    0.000    3.429 
#    0.000    2.143    0.000   12.000    0.000   26.000 
#    0.000    0.000    0.000   10.000    0.000    0.286 
#
# Total GULP energy -312574.944442 kJ/mol
# GULP energy per Si atom -5581.695436 kJ/mol
# Density = 1.985719 g / cm^3
# Si number density = 19.902490 Si / 1000 Ang^3
#
#
#
# Elastic Constant Matrix: (Units=GPa)
#
#
# Indices 1 2 3 4 5 6 
#
# 1 75.1021 49.3866 61.6718 0.0000 0.0000 0.0000
# 2 49.3866 139.7955 70.1586 0.0000 0.0000 0.0000
# 3 61.6718 70.1586 108.5609 0.0000 0.0000 0.0000
# 4 0.0000 0.0000 0.0000 30.3220 0.0000 0.0000
# 5 0.0000 0.0000 0.0000 0.0000 13.5461 0.0000
# 6 0.0000 0.0000 0.0000 0.0000 0.0000 34.2753
#
#
#
# Elastic Compliance Matrix: (Units=1/GPa)
#
#
# Indices 1 2 3 4 5 6 
#
# 1 0.025572 -0.002580 -0.012859 0.000000 0.000000 0.000000
# 2 -0.002580 0.010847 -0.005544 0.000000 0.000000 0.000000
# 3 -0.012859 -0.005544 0.020100 0.000000 0.000000 0.000000
# 4 0.000000 0.000000 0.000000 0.032979 0.000000 0.000000
# 5 0.000000 0.000000 0.000000 0.000000 0.073822 0.000000
# 6 0.000000 0.000000 0.000000 0.000000 0.000000 0.029176
#
#
# Mechanical properties :
#
#
# Convention : Reuss Voigt Hill
#
# Bulk Modulus (GPa) = 68.72490 76.21029 72.46759
# Shear Modulus (GPa) = 20.89300 25.11144 23.00222
#
# Velocity S-wave (km/s) = 3.24353 3.55593 3.40331
# Velocity P-wave (km/s) = 6.97374 7.43199 7.20651
#
# Compressibility (1/GPa) = 0.01455077
#
# Stress axis : x y z
#
# Youngs Moduli (GPa) = 39.10563 92.18789 49.75169
#
# Poissons Ratio (x) = 0.23787 0.63978
# Poissons Ratio (y) = 0.10090 0.27585
# Poissons Ratio (z) = 0.50288 0.51113
#
# Static dielectric constant tensor:
#      x y z
#    x 1.730490 0.000000 0.000000 
#    y 0.000000 1.735610 0.000000 
#    z 0.000000 0.000000 1.730280 
# 
# From -- ./inp_files/39280.got.cif
#   From: 2010.05.17/outbox.cif.g08.bks.cpg/sg71_20_cif.got.tgz:39280.got - 2010.06.03 16:22:01.
