data_PCOD9519309
_publ_section_title
;
Structure prediction by ZEFSAII (Michael W. Deem and Ramdas Pophale) SiO2 
 PCOD9519309
Probable space group: I M M M
;
_chemical_formula_sum "Si O2"
_cell_formula_units_Z 72
_cell_length_a 21.681672
_cell_length_b 7.240169
_cell_length_c 21.438329
_cell_angle_alpha 90.000000
_cell_angle_beta 90.000000
_cell_angle_gamma 90.000000
_cell_volume 3365.366794
_symmetry_space_group_name_H-M "I M M M"
_symmetry_group_IT_number 71
_symmetry_cell_setting 'orthorhombic'
loop_
_space_group_symop_operation_xyz
x,y,z
-x,-y,z
x,-y,-z
-x,y,-z
-x,-y,-z
x,y,-z
-x,y,z
x,-y,z
1/2+x,1/2+y,1/2+z
1/2-x,1/2-y,1/2+z
1/2+x,1/2-y,1/2-z
1/2-x,1/2+y,1/2-z
1/2-x,1/2-y,1/2-z
1/2+x,1/2+y,1/2-z
1/2-x,1/2+y,1/2+z
1/2+x,1/2-y,1/2+z
loop_
_atom_site_type_symbol
_atom_site_label
_atom_site_fract_x
_atom_site_fract_y
_atom_site_fract_z
Si Si1 0.868113 0.276619 0.876682
Si Si2 0.299320 0.787469 0.500000
Si Si3 0.928257 0.275121 0.755512
Si Si4 0.500000 0.223243 0.570071
Si Si5 0.344680 0.776509 0.000000
Si Si6 0.929758 0.724440 0.386613
O O1 0.860496 0.500000 0.874305
O O2 0.875162 0.216393 0.804397
O O3 0.936516 0.225114 0.899084
O O4 0.824148 0.211202 0.933351
O O5 0.225947 0.782239 0.500000
O O6 0.322009 0.000000 0.500000
O O7 0.929499 0.500000 0.757484
O O8 0.915745 0.219070 0.684323
O O9 0.000000 0.220622 0.770005
O O10 0.500000 0.288690 0.500000
O O11 0.500000 0.000000 0.570204
O O12 0.381590 0.715044 0.938588
O O13 0.344860 0.000000 0.000000
O O14 0.929386 0.500000 0.386882
O O15 0.000000 0.779930 0.401804
#
# Coordination Sequence:
#
# PCOD9519309 Si02
#       6
#    16   8  16   8   8  16
#     4   9  14  21  35  58  89 116 135 167 213 251
#     4  10  20  30  41  61  90 121 148 170 198 243
#     4   8  12  19  35  62  91 108 125 169 227 263
#     4   9  12  16  30  54  82 109 137 169 208 248
#     4  10  19  32  47  61  83 115 146 176 210 250
#     4   8  14  25  44  67  83 100 134 180 224 258
#
# _framework density 21.394400999999998
#
# number of rings (size 3 to 8) (size 9 to 14) (size 15 to 20)
#    0.000    3.222    2.222    1.667    0.000    1.333 
#    0.000    1.111    0.000    1.333    0.000    1.556 
#    0.000    1.778    0.000    0.000    0.000    0.000 
#
# Total GULP energy -200545.360180 kJ/mol
# GULP energy per Si atom -5570.704449 kJ/mol
# Density = 2.134571 g / cm^3
# Si number density = 21.394401 Si / 1000 Ang^3
#
#
#
# Elastic Constant Matrix: (Units=GPa)
#
#
# Indices 1 2 3 4 5 6 
#
# 1 117.0922 -5.0882 100.5778 0.0000 0.0000 0.0000
# 2 -5.0882 95.0676 1.4835 0.0000 0.0000 0.0000
# 3 100.5778 1.4835 195.0707 0.0000 0.0000 0.0000
# 4 0.0000 0.0000 0.0000 -24.9815 0.0000 0.0000
# 5 0.0000 0.0000 0.0000 0.0000 -25.4693 0.0000
# 6 0.0000 0.0000 0.0000 0.0000 0.0000 12.1387
#
#
#
# Elastic Compliance Matrix: (Units=1/GPa)
#
#
# Indices 1 2 3 4 5 6 
#
# 1 0.015414 0.000949 -0.007955 0.000000 0.000000 0.000000
# 2 0.000949 0.010579 -0.000570 0.000000 0.000000 0.000000
# 3 -0.007955 -0.000570 0.009232 0.000000 0.000000 0.000000
# 4 0.000000 0.000000 0.000000 -0.040030 0.000000 0.000000
# 5 0.000000 0.000000 0.000000 0.000000 -0.039263 0.000000
# 6 0.000000 0.000000 0.000000 0.000000 0.000000 0.082381
#
#
# Mechanical properties :
#
#
# Convention : Reuss Voigt Hill
#
# Bulk Modulus (GPa) = 49.81552 66.79743 58.30648
# Shear Modulus (GPa) = 83.11719 13.02142 48.06930
#
# Velocity S-wave (km/s) = 6.23974 2.46973 4.74520
# Velocity P-wave (km/s) = 8.67452 6.27873 7.57198
#
# Compressibility (1/GPa) = 0.02007406
#
# Stress axis : x y z
#
# Youngs Moduli (GPa) = 64.87419 94.53117 108.31679
#
# Poissons Ratio (x) = -0.08972 0.86164
# Poissons Ratio (y) = -0.06157 0.06172
# Poissons Ratio (z) = 0.51607 0.05387
#
# Static dielectric constant tensor:
#      x y z
#    x 1.701260 0.000000 0.000000 
#    y 0.000000 1.886200 0.000000 
#    z 0.000000 0.000000 1.830200 
# 
# From -- ./inp_files/51927.got.cif
#   From: 2010.05.17/outbox.cif.g08.bks.cpg/sg71_26_cif.got.tgz:51927.got - 2010.06.03 16:22:01.
