data_PCOD9519653
_publ_section_title
;
Structure prediction by ZEFSAII (Michael W. Deem and Ramdas Pophale) SiO2 
 PCOD9519653
Probable space group: I M M M
;
_chemical_formula_sum "Si O2"
_cell_formula_units_Z 72
_cell_length_a 20.224834
_cell_length_b 9.624588
_cell_length_c 20.552662
_cell_angle_alpha 90.000000
_cell_angle_beta 90.000000
_cell_angle_gamma 90.000000
_cell_volume 4000.692698
_symmetry_space_group_name_H-M "I M M M"
_symmetry_group_IT_number 71
_symmetry_cell_setting 'orthorhombic'
loop_
_space_group_symop_operation_xyz
x,y,z
-x,-y,z
x,-y,-z
-x,y,-z
-x,-y,-z
x,y,-z
-x,y,z
x,-y,z
1/2+x,1/2+y,1/2+z
1/2-x,1/2-y,1/2+z
1/2+x,1/2-y,1/2-z
1/2-x,1/2+y,1/2-z
1/2-x,1/2-y,1/2-z
1/2+x,1/2+y,1/2-z
1/2-x,1/2+y,1/2+z
1/2+x,1/2-y,1/2+z
loop_
_atom_site_type_symbol
_atom_site_label
_atom_site_fract_x
_atom_site_fract_y
_atom_site_fract_z
Si Si1 0.425557 0.831340 0.360037
Si Si2 0.625642 0.840528 0.888269
Si Si3 0.816366 0.338289 0.756055
Si Si4 0.866882 0.332793 0.000000
Si Si5 0.500000 0.341359 0.078156
Si Si6 0.231083 0.664952 0.500000
O O1 0.500000 0.782473 0.344355
O O2 0.368143 0.785537 0.310457
O O3 0.406143 0.796646 0.434108
O O4 0.426794 0.000000 0.355504
O O5 0.648799 0.835055 0.814060
O O6 0.564866 0.739305 0.899249
O O7 0.605908 0.000000 0.903667
O O8 0.685864 0.805708 0.936848
O O9 0.800429 0.500000 0.771172
O O10 0.750000 0.250000 0.750000
O O11 0.796925 0.255316 0.000000
O O12 0.857119 0.500000 0.000000
O O13 0.500000 0.500000 0.101172
O O14 0.500000 0.341281 0.000000
O O15 0.246801 0.500000 0.500000
#
# Coordination Sequence:
#
# PCOD9519653 Si02
#       6
#    16  16  16   8   8   8
#     4   9  18  33  54  81 108 138 181 227 272 324
#     4  10  21  36  56  79 107 148 189 223 271 334
#     4  10  21  36  57  82 110 147 186 230 278 328
#     4  10  19  32  55  81 106 137 175 227 281 318
#     4  11  23  37  55  83 113 142 179 234 288 327
#     4  10  20  34  52  77 107 141 180 219 264 326
#
# _framework density 17.996883
#
# number of rings (size 3 to 8) (size 9 to 14) (size 15 to 20)
#    0.000    2.111    1.111    2.000    1.556    3.556 
#    0.000    0.000    0.000    2.667    0.000    0.000 
#    0.000    0.000    0.000    0.000    0.000    0.000 
#
# Total GULP energy -200917.969737 kJ/mol
# GULP energy per Si atom -5581.054715 kJ/mol
# Density = 1.795592 g / cm^3
# Si number density = 17.996883 Si / 1000 Ang^3
#
#
#
# Elastic Constant Matrix: (Units=GPa)
#
#
# Indices 1 2 3 4 5 6 
#
# 1 157.7434 65.3029 52.5958 0.0000 0.0000 0.0000
# 2 65.3029 59.3023 17.5564 0.0000 0.0000 0.0000
# 3 52.5958 17.5564 102.2827 0.0000 0.0000 0.0000
# 4 0.0000 0.0000 0.0000 8.3347 0.0000 0.0000
# 5 0.0000 0.0000 0.0000 0.0000 12.9707 0.0000
# 6 0.0000 0.0000 0.0000 0.0000 0.0000 24.9236
#
#
#
# Elastic Compliance Matrix: (Units=1/GPa)
#
#
# Indices 1 2 3 4 5 6 
#
# 1 0.013434 -0.013431 -0.004603 0.000000 0.000000 0.000000
# 2 -0.013431 0.031193 0.001552 0.000000 0.000000 0.000000
# 3 -0.004603 0.001552 0.011877 0.000000 0.000000 0.000000
# 4 0.000000 0.000000 0.000000 0.119981 0.000000 0.000000
# 5 0.000000 0.000000 0.000000 0.000000 0.077097 0.000000
# 6 0.000000 0.000000 0.000000 0.000000 0.000000 0.040123
#
#
# Mechanical properties :
#
#
# Convention : Reuss Voigt Hill
#
# Bulk Modulus (GPa) = 42.47773 65.58206 54.02989
# Shear Modulus (GPa) = 14.94701 21.50403 18.22552
#
# Velocity S-wave (km/s) = 2.88502 3.46045 3.18575
# Velocity P-wave (km/s) = 5.89507 7.24473 6.60447
#
# Compressibility (1/GPa) = 0.02354175
#
# Stress axis : x y z
#
# Youngs Moduli (GPa) = 74.43633 32.05822 84.19471
#
# Poissons Ratio (x) = 0.43057 0.38753
# Poissons Ratio (y) = 0.99976 -0.13070
# Poissons Ratio (z) = 0.34262 -0.04976
#
# Static dielectric constant tensor:
#      x y z
#    x 1.587640 0.000000 0.000000 
#    y 0.000000 1.609160 0.000000 
#    z 0.000000 0.000000 1.618260 
# 
# From -- ./inp_files/54692.got.cif
#   From: 2010.05.17/outbox.cif.g08.bks.cpg/sg71_28_cif.got.tgz:54692.got - 2010.06.03 16:22:01.
