data_PCOD9519459
_publ_section_title
;
Structure prediction by ZEFSAII (Michael W. Deem and Ramdas Pophale) SiO2 
 PCOD9519459
Probable space group: I M M M
;
_chemical_formula_sum "Si O2"
_cell_formula_units_Z 64
_cell_length_a 9.512227
_cell_length_b 13.316423
_cell_length_c 32.336363
_cell_angle_alpha 90.000000
_cell_angle_beta 90.000000
_cell_angle_gamma 90.000000
_cell_volume 4096.009539
_symmetry_space_group_name_H-M "I M M M"
_symmetry_group_IT_number 71
_symmetry_cell_setting 'orthorhombic'
loop_
_space_group_symop_operation_xyz
x,y,z
-x,-y,z
x,-y,-z
-x,y,-z
-x,-y,-z
x,y,-z
-x,y,z
x,-y,z
1/2+x,1/2+y,1/2+z
1/2-x,1/2-y,1/2+z
1/2+x,1/2-y,1/2-z
1/2-x,1/2+y,1/2-z
1/2-x,1/2-y,1/2-z
1/2+x,1/2+y,1/2-z
1/2-x,1/2+y,1/2+z
1/2+x,1/2-y,1/2+z
loop_
_atom_site_type_symbol
_atom_site_label
_atom_site_fract_x
_atom_site_fract_y
_atom_site_fract_z
Si Si1 0.838858 0.878607 0.000000
Si Si2 0.332362 0.880290 0.917595
Si Si3 0.767769 0.217908 0.834158
Si Si4 0.500000 0.213601 0.774644
Si Si5 0.500000 0.608001 0.289473
Si Si6 0.000000 0.382052 0.811641
O O1 0.753294 0.851670 0.958756
O O2 0.000000 0.841632 0.000000
O O3 0.844518 0.000000 0.000000
O O4 0.500000 0.869709 0.923767
O O5 0.282372 0.810655 0.879835
O O6 0.306962 0.000000 0.908975
O O7 0.635811 0.216537 0.803483
O O8 0.867357 0.128738 0.818216
O O9 0.864107 0.318306 0.828262
O O10 0.500000 0.312041 0.746628
O O11 0.500000 0.128996 0.738657
O O12 0.500000 0.500000 0.270676
O O13 0.000000 0.500000 0.822624
#
# Coordination Sequence:
#
# PCOD9519459 Si02
#       6
#     8  16  16   8   8   8
#     4   9  19  31  49  77 107 136 165 194 240 311
#     4  10  19  32  51  76 108 139 164 199 249 304
#     4  10  20  34  51  74 102 133 176 216 246 305
#     4  10  20  34  50  73  99 132 177 218 255 297
#     4  10  20  32  48  70 101 135 169 212 258 299
#     4  10  22  36  52  70 102 142 176 220 263 296
#
# _framework density 15.624962999999999
#
# number of rings (size 3 to 8) (size 9 to 14) (size 15 to 20)
#    0.000    2.375    1.250    4.125    3.500    6.500 
#    0.000    0.000    0.000    0.000    0.000    1.750 
#    0.000    2.000    0.000    0.000    0.000    0.000 
#
# Total GULP energy -178231.703377 kJ/mol
# GULP energy per Si atom -5569.740731 kJ/mol
# Density = 1.558940 g / cm^3
# Si number density = 15.624963 Si / 1000 Ang^3
#
#
#
# Elastic Constant Matrix: (Units=GPa)
#
#
# Indices 1 2 3 4 5 6 
#
# 1 132.5058 29.6577 66.7722 0.0000 0.0000 0.0000
# 2 29.6577 71.3123 29.2928 0.0000 0.0000 0.0000
# 3 66.7722 29.2928 134.4779 0.0000 0.0000 0.0000
# 4 0.0000 0.0000 0.0000 1.4755 0.0000 0.0000
# 5 0.0000 0.0000 0.0000 0.0000 33.9593 0.0000
# 6 0.0000 0.0000 0.0000 0.0000 0.0000 2.7636
#
#
#
# Elastic Compliance Matrix: (Units=1/GPa)
#
#
# Indices 1 2 3 4 5 6 
#
# 1 0.010435 -0.002429 -0.004652 0.000000 0.000000 0.000000
# 2 -0.002429 0.015966 -0.002272 0.000000 0.000000 0.000000
# 3 -0.004652 -0.002272 0.010241 0.000000 0.000000 0.000000
# 4 0.000000 0.000000 0.000000 0.677721 0.000000 0.000000
# 5 0.000000 0.000000 0.000000 0.000000 0.029447 0.000000
# 6 0.000000 0.000000 0.000000 0.000000 0.000000 0.361850
#
#
# Mechanical properties :
#
#
# Convention : Reuss Voigt Hill
#
# Bulk Modulus (GPa) = 55.75275 65.52684 60.63979
# Shear Modulus (GPa) = 4.42343 21.81124 13.11734
#
# Velocity S-wave (km/s) = 1.68438 3.74026 2.90058
# Velocity P-wave (km/s) = 6.28826 7.78980 7.07895
#
# Compressibility (1/GPa) = 0.01793634
#
# Stress axis : x y z
#
# Youngs Moduli (GPa) = 95.83394 62.63263 97.64717
#
# Poissons Ratio (x) = 0.15212 0.45426
# Poissons Ratio (y) = 0.23275 0.22185
# Poissons Ratio (z) = 0.44583 0.14230
#
# Static dielectric constant tensor:
#      x y z
#    x 1.543580 0.000000 0.000000 
#    y 0.000000 1.515270 0.000000 
#    z 0.000000 0.000000 1.516320 
# 
# From -- ./inp_files/67821.got.cif
#   From: 2010.05.17/outbox.cif.g08.bks.cpg/sg71_34_cif.got.tgz:67821.got - 2010.06.03 16:22:01.
