data_PCOD9519989
_publ_section_title
;
Structure prediction by ZEFSAII (Michael W. Deem and Ramdas Pophale) SiO2 
 PCOD9519989
Probable space group: I M M M
;
_chemical_formula_sum "Si O2"
_cell_formula_units_Z 112
_cell_length_a 14.411814
_cell_length_b 13.911650
_cell_length_c 27.570295
_cell_angle_alpha 90.000000
_cell_angle_beta 90.000000
_cell_angle_gamma 90.000000
_cell_volume 5527.626679
_symmetry_space_group_name_H-M "I M M M"
_symmetry_group_IT_number 71
_symmetry_cell_setting 'orthorhombic'
loop_
_space_group_symop_operation_xyz
x,y,z
-x,-y,z
x,-y,-z
-x,y,-z
-x,-y,-z
x,y,-z
-x,y,z
x,-y,z
1/2+x,1/2+y,1/2+z
1/2-x,1/2-y,1/2+z
1/2+x,1/2-y,1/2-z
1/2-x,1/2+y,1/2-z
1/2-x,1/2-y,1/2-z
1/2+x,1/2+y,1/2-z
1/2-x,1/2+y,1/2+z
1/2+x,1/2-y,1/2+z
loop_
_atom_site_type_symbol
_atom_site_label
_atom_site_fract_x
_atom_site_fract_y
_atom_site_fract_z
Si Si1 0.698525 0.895205 0.405473
Si Si2 0.609860 0.703420 0.553826
Si Si3 0.100055 0.339749 0.385284
Si Si4 0.895037 0.847788 0.557223
Si Si5 0.303618 0.191173 0.697066
Si Si6 0.602006 0.271601 0.783212
Si Si7 0.201089 0.895270 0.142084
O O1 0.658361 0.805494 0.435050
O O2 0.809731 0.892284 0.413519
O O3 0.675691 0.873881 0.349265
O O4 0.663925 0.000000 0.420390
O O5 0.636675 0.670446 0.500000
O O6 0.500000 0.717879 0.555425
O O7 0.638487 0.630288 0.595827
O O8 0.109382 0.265265 0.429656
O O9 0.096594 0.274947 0.336404
O O10 0.193869 0.396820 0.378086
O O11 0.000000 0.388867 0.389122
O O12 0.882489 0.864953 0.500000
O O13 0.000000 0.879379 0.570506
O O14 0.374093 0.192156 0.741949
O O15 0.198407 0.169242 0.714595
O O16 0.305967 0.302036 0.676937
O O17 0.500000 0.314773 0.772922
O O18 0.178498 0.000000 0.163205
#
# Coordination Sequence:
#
# PCOD9519989 Si02
#       7
#    16  16  16  16  16  16  16
#     4  11  22  37  58  84 115 149 186 231 284 339
#     4  10  22  40  58  77 105 144 191 239 284 328
#     4   9  17  33  58  85 113 147 184 224 277 338
#     4  10  19  33  56  85 117 150 183 222 273 336
#     4   9  19  35  53  80 110 143 185 229 278 331
#     4   9  16  32  58  77 104 150 191 228 276 331
#     4  10  20  35  56  82 110 142 181 227 281 338
#
# _framework density 20.261859000000001
#
# number of rings (size 3 to 8) (size 9 to 14) (size 15 to 20)
#    0.000    2.286    4.286    0.429    0.000    4.857 
#    0.000    8.571    0.000    4.286    0.000    3.000 
#    0.000    0.000    0.000    0.000    0.000    0.000 
#
# Total GULP energy -311892.042430 kJ/mol
# GULP energy per Si atom -5569.500758 kJ/mol
# Density = 2.021574 g / cm^3
# Si number density = 20.261859 Si / 1000 Ang^3
#
#
#
# Elastic Constant Matrix: (Units=GPa)
#
#
# Indices 1 2 3 4 5 6 
#
# 1 59.0251 -0.6101 7.6040 0.0000 0.0000 0.0000
# 2 -0.6101 61.8361 -14.0732 0.0000 0.0000 0.0000
# 3 7.6040 -14.0732 57.9254 0.0000 0.0000 0.0000
# 4 0.0000 0.0000 0.0000 -2.9991 0.0000 0.0000
# 5 0.0000 0.0000 0.0000 0.0000 20.2142 0.0000
# 6 0.0000 0.0000 0.0000 0.0000 0.0000 -4.7175
#
#
#
# Elastic Compliance Matrix: (Units=1/GPa)
#
#
# Indices 1 2 3 4 5 6 
#
# 1 0.017241 -0.000365 -0.002352 0.000000 0.000000 0.000000
# 2 -0.000365 0.017126 0.004209 0.000000 0.000000 0.000000
# 3 -0.002352 0.004209 0.018595 0.000000 0.000000 0.000000
# 4 0.000000 0.000000 0.000000 -0.333433 0.000000 0.000000
# 5 0.000000 0.000000 0.000000 0.000000 0.049470 0.000000
# 6 0.000000 0.000000 0.000000 0.000000 0.000000 -0.211976
#
#
# Mechanical properties :
#
#
# Convention : Reuss Voigt Hill
#
# Bulk Modulus (GPa) = 17.87463 18.29202 18.08332
# Shear Modulus (GPa) = -11.70107 14.89057 1.59475
#
# Velocity S-wave (km/s) = -2.40571 2.71386 0.88813
# Velocity P-wave (km/s) = 1.06035 4.34367 3.16163
#
# Compressibility (1/GPa) = 0.05594521
#
# Stress axis : x y z
#
# Youngs Moduli (GPa) = 58.00066 58.39061 53.77824
#
# Poissons Ratio (x) = 0.02132 0.12649
# Poissons Ratio (y) = 0.02118 -0.22634
# Poissons Ratio (z) = 0.13642 -0.24575
#
# Static dielectric constant tensor:
#      x y z
#    x 1.759420 0.000000 0.000000 
#    y 0.000000 1.775240 0.000000 
#    z 0.000000 0.000000 1.730220 
# 
# From -- ./inp_files/70096.got.cif
#   From: 2010.05.17/outbox.cif.g08.bks.cpg/sg71_36_cif.got.tgz:70096.got - 2010.06.03 16:22:01.
