data_PCOD9519015
_publ_section_title
;
Structure prediction by ZEFSAII (Michael W. Deem and Ramdas Pophale) SiO2 
 PCOD9519015
Probable space group: I M M M
;
_chemical_formula_sum "Si O2"
_cell_formula_units_Z 128
_cell_length_a 7.288302
_cell_length_b 31.967612
_cell_length_c 24.798323
_cell_angle_alpha 90.000000
_cell_angle_beta 90.000000
_cell_angle_gamma 90.000000
_cell_volume 5777.751616
_symmetry_space_group_name_H-M "I M M M"
_symmetry_group_IT_number 71
_symmetry_cell_setting 'orthorhombic'
loop_
_space_group_symop_operation_xyz
x,y,z
-x,-y,z
x,-y,-z
-x,y,-z
-x,-y,-z
x,y,-z
-x,y,z
x,-y,z
1/2+x,1/2+y,1/2+z
1/2-x,1/2-y,1/2+z
1/2+x,1/2-y,1/2-z
1/2-x,1/2+y,1/2-z
1/2-x,1/2-y,1/2-z
1/2+x,1/2+y,1/2-z
1/2-x,1/2+y,1/2+z
1/2+x,1/2-y,1/2+z
loop_
_atom_site_type_symbol
_atom_site_label
_atom_site_fract_x
_atom_site_fract_y
_atom_site_fract_z
Si Si1 0.223598 0.953171 0.365982
Si Si2 0.223359 0.822144 0.250000
Si Si3 0.777122 0.919807 0.750000
Si Si4 0.775872 0.874863 0.561968
Si Si5 0.281892 0.703213 0.866959
Si Si6 0.775872 0.125137 0.061968
Si Si7 0.776402 0.953171 0.134018
Si Si8 0.718108 0.703213 0.366959
O O1 0.281641 0.941723 0.305163
O O2 0.281352 0.916615 0.406422
O O3 0.000000 0.952826 0.365913
O O4 0.281368 0.000000 0.380622
O O5 0.274529 0.871051 0.250000
O O6 0.288082 0.801566 0.305628
O O7 0.288082 0.801566 0.194372
O O8 0.000000 0.820363 0.250000
O O9 0.718359 0.941723 0.805164
O O10 0.000000 0.920763 0.750000
O O11 0.717644 0.874346 0.500000
O O12 0.714130 0.833905 0.594820
O O13 0.000000 0.874665 0.562052
O O14 0.500000 0.697238 0.863830
O O15 0.250000 0.750000 0.887292
O O16 0.718648 0.083385 0.093578
O O17 0.714130 0.166095 0.094820
O O18 0.000000 0.125335 0.062052
O O19 0.717644 0.125654 0.000000
O O20 0.000000 0.952827 0.134087
O O21 0.718632 0.000000 0.119378
O O22 0.500000 0.697238 0.363830
#
# Coordination Sequence:
#
# PCOD9519015 Si02
#       8
#    16  16  16  16  16  16  16  16
#     4   9  15  22  35  56  82 113 146 177 212 259
#     4   9  15  26  44  62  84 115 146 177 218 266
#     4   9  13  21  36  55  80 111 144 175 213 261
#     4   9  17  28  40  56  82 116 149 179 216 262
#     4  10  19  31  47  66  88 116 149 183 221 262
#     4   9  17  28  40  56  82 116 149 179 216 262
#     4   9  15  22  35  56  82 113 146 177 212 259
#     4  10  19  31  47  66  88 116 149 183 221 262
#
# _framework density 22.153943999999999
#
# number of rings (size 3 to 8) (size 9 to 14) (size 15 to 20)
#    0.000    2.750    2.500    0.750    0.000    2.500 
#    0.000    2.500    0.000    0.000    0.000    0.000 
#    0.000    1.000    0.000    4.500    0.000    5.000 
#
# Total GULP energy -357657.026500 kJ/mol
# GULP energy per Si atom -5588.391039 kJ/mol
# Density = 2.210352 g / cm^3
# Si number density = 22.153944 Si / 1000 Ang^3
#
#
#
# Elastic Constant Matrix: (Units=GPa)
#
#
# Indices 1 2 3 4 5 6 
#
# 1 94.0476 -0.5983 7.6492 0.0000 0.0000 0.0000
# 2 -0.5983 232.0712 120.9937 0.0000 0.0000 0.0000
# 3 7.6492 120.9937 195.8127 0.0000 0.0000 0.0000
# 4 0.0000 0.0000 0.0000 7.4582 0.0000 0.0000
# 5 0.0000 0.0000 0.0000 0.0000 -16.9358 0.0000
# 6 0.0000 0.0000 0.0000 0.0000 0.0000 1.6053
#
#
#
# Elastic Compliance Matrix: (Units=1/GPa)
#
#
# Indices 1 2 3 4 5 6 
#
# 1 0.010687 0.000362 -0.000641 0.000000 0.000000 0.000000
# 2 0.000362 0.006369 -0.003950 0.000000 0.000000 0.000000
# 3 -0.000641 -0.003950 0.007572 0.000000 0.000000 0.000000
# 4 0.000000 0.000000 0.000000 0.134080 0.000000 0.000000
# 5 0.000000 0.000000 0.000000 0.000000 -0.059046 0.000000
# 6 0.000000 0.000000 0.000000 0.000000 0.000000 0.622927
#
#
# Mechanical properties :
#
#
# Convention : Reuss Voigt Hill
#
# Bulk Modulus (GPa) = 61.83858 86.44674 74.14266
# Shear Modulus (GPa) = 6.78944 24.68467 15.73705
#
# Velocity S-wave (km/s) = 1.75252 3.34163 2.66813
# Velocity P-wave (km/s) = 5.66293 7.34808 6.55985
#
# Compressibility (1/GPa) = 0.01617113
#
# Stress axis : x y z
#
# Youngs Moduli (GPa) = 93.56854 157.00613 132.05699
#
# Poissons Ratio (x) = -0.05680 0.08465
# Poissons Ratio (y) = -0.03385 0.52158
# Poissons Ratio (z) = 0.05998 0.62012
#
# Static dielectric constant tensor:
#      x y z
#    x 1.955530 0.000000 0.000000 
#    y 0.000000 1.770980 0.000000 
#    z 0.000000 0.000000 1.759930 
# 
# From -- ./inp_files/59307.got.cif
#   From: 2010.05.17/outbox.cif.g08.bks.cpg/sg71_30_cif.got.tgz:59307.got - 2010.06.03 16:22:01.
