data_PCOD9519898
_publ_section_title
;
Structure prediction by ZEFSAII (Michael W. Deem and Ramdas Pophale) SiO2 
 PCOD9519898
Probable space group: I M M M
;
_chemical_formula_sum "Si O2"
_cell_formula_units_Z 88
_cell_length_a 20.058012
_cell_length_b 10.383489
_cell_length_c 21.925844
_cell_angle_alpha 90.000000
_cell_angle_beta 90.000000
_cell_angle_gamma 90.000000
_cell_volume 4566.542604
_symmetry_space_group_name_H-M "I M M M"
_symmetry_group_IT_number 71
_symmetry_cell_setting 'orthorhombic'
loop_
_space_group_symop_operation_xyz
x,y,z
-x,-y,z
x,-y,-z
-x,y,-z
-x,-y,-z
x,y,-z
-x,y,z
x,-y,z
1/2+x,1/2+y,1/2+z
1/2-x,1/2-y,1/2+z
1/2+x,1/2-y,1/2-z
1/2-x,1/2+y,1/2-z
1/2-x,1/2-y,1/2-z
1/2+x,1/2+y,1/2-z
1/2-x,1/2+y,1/2+z
1/2+x,1/2-y,1/2+z
loop_
_atom_site_type_symbol
_atom_site_label
_atom_site_fract_x
_atom_site_fract_y
_atom_site_fract_z
Si Si1 0.891234 0.641687 0.572575
Si Si2 0.077638 0.152615 0.116937
Si Si3 0.500000 0.649036 0.074239
Si Si4 0.682643 0.145640 0.430811
Si Si5 0.721748 0.219144 0.842956
Si Si6 0.846896 0.856573 0.234667
O O1 0.881653 0.652767 0.500000
O O2 0.921922 0.500000 0.583807
O O3 0.936600 0.762974 0.592019
O O4 0.821545 0.646142 0.607440
O O5 0.125797 0.247394 0.079973
O O6 0.094255 0.179850 0.188278
O O7 0.000000 0.172886 0.103505
O O8 0.092749 0.000000 0.106980
O O9 0.500000 0.500000 0.095487
O O10 0.500000 0.644831 0.000000
O O11 0.708747 0.158555 0.500000
O O12 0.739629 0.169966 0.380563
O O13 0.656482 0.000000 0.423916
O O14 0.780873 0.145267 0.808300
O O15 0.671482 0.266695 0.790722
O O16 0.859155 0.000000 0.257629
#
# Coordination Sequence:
#
# PCOD9519898 Si02
#       6
#    16  16   8  16  16  16
#     4  10  20  35  56  80 109 145 182 223 271 323
#     4   9  19  37  58  79 107 142 183 230 277 327
#     4   9  19  35  53  75 105 141 179 219 264 315
#     4  10  21  35  53  81 115 147 181 224 275 332
#     4  10  19  33  54  80 108 141 182 223 272 324
#     4   9  18  33  53  77 105 141 180 222 272 324
#
# _framework density 19.270596000000001
#
# number of rings (size 3 to 8) (size 9 to 14) (size 15 to 20)
#    0.000    2.455    0.000    1.909    0.000    4.364 
#    1.636    4.545    0.000    0.000    0.000    0.000 
#    0.000    0.000    0.000    0.000    0.000    0.000 
#
# Total GULP energy -245137.784574 kJ/mol
# GULP energy per Si atom -5571.313286 kJ/mol
# Density = 1.922674 g / cm^3
# Si number density = 19.270596 Si / 1000 Ang^3
#
#
#
# Elastic Constant Matrix: (Units=GPa)
#
#
# Indices 1 2 3 4 5 6 
#
# 1 42.2206 22.9600 11.3009 0.0000 0.0000 0.0000
# 2 22.9600 105.3662 32.0626 0.0000 0.0000 0.0000
# 3 11.3009 32.0626 45.4365 0.0000 0.0000 0.0000
# 4 0.0000 0.0000 0.0000 7.1963 0.0000 0.0000
# 5 0.0000 0.0000 0.0000 0.0000 22.4971 0.0000
# 6 0.0000 0.0000 0.0000 0.0000 0.0000 17.7336
#
#
#
# Elastic Compliance Matrix: (Units=1/GPa)
#
#
# Indices 1 2 3 4 5 6 
#
# 1 0.027251 -0.004936 -0.003295 0.000000 0.000000 0.000000
# 2 -0.004936 0.012980 -0.007932 0.000000 0.000000 0.000000
# 3 -0.003295 -0.007932 0.028425 0.000000 0.000000 0.000000
# 4 0.000000 0.000000 0.000000 0.138960 0.000000 0.000000
# 5 0.000000 0.000000 0.000000 0.000000 0.044450 0.000000
# 6 0.000000 0.000000 0.000000 0.000000 0.000000 0.056390
#
#
# Mechanical properties :
#
#
# Convention : Reuss Voigt Hill
#
# Bulk Modulus (GPa) = 27.52426 36.18560 31.85493
# Shear Modulus (GPa) = 14.16867 17.93206 16.05036
#
# Velocity S-wave (km/s) = 2.71449 3.05378 2.88912
# Velocity P-wave (km/s) = 4.91311 5.59040 5.26266
#
# Compressibility (1/GPa) = 0.03633159
#
# Stress axis : x y z
#
# Youngs Moduli (GPa) = 36.69578 77.04283 35.17988
#
# Poissons Ratio (x) = 0.38025 0.11592
# Poissons Ratio (y) = 0.18111 0.27904
# Poissons Ratio (z) = 0.12092 0.61108
#
# Static dielectric constant tensor:
#      x y z
#    x 1.668250 0.000000 0.000000 
#    y 0.000000 1.675720 0.000000 
#    z 0.000000 0.000000 1.668990 
# 
# From -- ./inp_files/61096.got.cif
#   From: 2010.05.17/outbox.cif.g08.bks.cpg/sg71_31_cif.got.tgz:61096.got - 2010.06.03 16:22:01.
