data_PCOD9519599
_publ_section_title
;
Structure prediction by ZEFSAII (Michael W. Deem and Ramdas Pophale) SiO2 
 PCOD9519599
Probable space group: I M M M
;
_chemical_formula_sum "Si O2"
_cell_formula_units_Z 120
_cell_length_a 22.225477
_cell_length_b 13.235177
_cell_length_c 23.082519
_cell_angle_alpha 90.000000
_cell_angle_beta 90.000000
_cell_angle_gamma 90.000000
_cell_volume 6789.910440
_symmetry_space_group_name_H-M "I M M M"
_symmetry_group_IT_number 71
_symmetry_cell_setting 'orthorhombic'
loop_
_space_group_symop_operation_xyz
x,y,z
-x,-y,z
x,-y,-z
-x,y,-z
-x,-y,-z
x,y,-z
-x,y,z
x,-y,z
1/2+x,1/2+y,1/2+z
1/2-x,1/2-y,1/2+z
1/2+x,1/2-y,1/2-z
1/2-x,1/2+y,1/2-z
1/2-x,1/2-y,1/2-z
1/2+x,1/2+y,1/2-z
1/2-x,1/2+y,1/2+z
1/2+x,1/2-y,1/2+z
loop_
_atom_site_type_symbol
_atom_site_label
_atom_site_fract_x
_atom_site_fract_y
_atom_site_fract_z
Si Si1 0.000000 0.122636 0.434293
Si Si2 0.432960 0.265376 0.567429
Si Si3 0.651449 0.245564 0.756667
Si Si4 0.238390 0.886006 0.567820
Si Si5 0.070153 0.615579 0.828540
Si Si6 0.755180 0.883696 0.186371
Si Si7 0.615963 0.380220 0.860012
Si Si8 0.803209 0.177318 0.932688
O O1 0.939476 0.151370 0.400612
O O2 0.000000 0.160340 0.500000
O O3 0.000000 0.000000 0.436615
O O4 0.429447 0.235547 0.500000
O O5 0.500000 0.309884 0.577309
O O6 0.427090 0.169894 0.609309
O O7 0.374677 0.334872 0.577671
O O8 0.609032 0.180385 0.715736
O O9 0.694336 0.170623 0.793138
O O10 0.692760 0.318336 0.717232
O O11 0.616704 0.315856 0.801890
O O12 0.220203 0.884720 0.500000
O O13 0.179755 0.866753 0.607000
O O14 0.286121 0.796309 0.575140
O O15 0.260733 0.000000 0.580719
O O16 0.090724 0.500000 0.831252
O O17 0.000000 0.616783 0.810955
O O18 0.766104 0.877493 0.117355
O O19 0.756672 0.000000 0.205287
O O20 0.610120 0.500000 0.848063
O O21 0.790002 0.150931 0.000000
#
# Coordination Sequence:
#
# PCOD9519599 Si02
#       8
#     8  16  16  16  16  16  16  16
#     4   9  18  32  52  82 117 149 180 219 269 325
#     4   9  18  34  56  80 108 139 172 217 271 327
#     4  11  22  38  55  79 111 149 179 226 271 326
#     4   9  17  30  50  77 108 138 173 224 280 329
#     4  10  21  36  56  81 109 144 183 221 267 324
#     4  11  23  39  57  80 108 143 186 228 276 329
#     4  10  19  32  53  80 110 146 185 221 266 325
#     4  10  19  35  55  80 107 139 182 227 277 328
#
# _framework density 17.673282
#
# number of rings (size 3 to 8) (size 9 to 14) (size 15 to 20)
#    0.000    2.067    2.667    1.200    0.933    2.667 
#    0.000    2.667    0.000    1.200    0.000    1.867 
#    0.000    1.067    0.000    0.000    0.000    0.000 
#
# Total GULP energy -334644.815119 kJ/mol
# GULP energy per Si atom -5577.413585 kJ/mol
# Density = 1.763306 g / cm^3
# Si number density = 17.673282 Si / 1000 Ang^3
#
#
#
# Elastic Constant Matrix: (Units=GPa)
#
#
# Indices 1 2 3 4 5 6 
#
# 1 62.4157 8.2510 26.4613 0.0000 0.0000 0.0000
# 2 8.2510 38.7839 11.6985 0.0000 0.0000 0.0000
# 3 26.4613 11.6985 68.0130 0.0000 0.0000 0.0000
# 4 0.0000 0.0000 0.0000 15.6152 0.0000 0.0000
# 5 0.0000 0.0000 0.0000 0.0000 16.4807 0.0000
# 6 0.0000 0.0000 0.0000 0.0000 0.0000 16.7241
#
#
#
# Elastic Compliance Matrix: (Units=1/GPa)
#
#
# Indices 1 2 3 4 5 6 
#
# 1 0.019324 -0.001944 -0.007184 0.000000 0.000000 0.000000
# 2 -0.001944 0.027390 -0.003955 0.000000 0.000000 0.000000
# 3 -0.007184 -0.003955 0.018178 0.000000 0.000000 0.000000
# 4 0.000000 0.000000 0.000000 0.064040 0.000000 0.000000
# 5 0.000000 0.000000 0.000000 0.000000 0.060677 0.000000
# 6 0.000000 0.000000 0.000000 0.000000 0.000000 0.059794
#
#
# Mechanical properties :
#
#
# Convention : Reuss Voigt Hill
#
# Bulk Modulus (GPa) = 25.82175 29.11492 27.46834
# Shear Modulus (GPa) = 17.33229 17.95080 17.64154
#
# Velocity S-wave (km/s) = 3.13502 3.19047 3.16286
# Velocity P-wave (km/s) = 5.26752 5.48469 5.37720
#
# Compressibility (1/GPa) = 0.03872704
#
# Stress axis : x y z
#
# Youngs Moduli (GPa) = 51.74845 36.50912 55.01061
#
# Poissons Ratio (x) = 0.07098 0.39519
# Poissons Ratio (y) = 0.10061 0.21756
# Poissons Ratio (z) = 0.37176 0.14439
#
# Static dielectric constant tensor:
#      x y z
#    x 1.613690 0.000000 0.000000 
#    y 0.000000 1.581240 0.000000 
#    z 0.000000 0.000000 1.599920 
# 
# From -- ./inp_files/52257.got.cif
#   From: 2010.05.17/outbox.cif.g08.bks.cpg/sg71_27_cif.got.tgz:52257.got - 2010.06.03 16:22:01.
