data_PCOD9519370
_publ_section_title
;
Structure prediction by ZEFSAII (Michael W. Deem and Ramdas Pophale) SiO2 
 PCOD9519370
Probable space group: I M M M
;
_chemical_formula_sum "Si O2"
_cell_formula_units_Z 120
_cell_length_a 7.727433
_cell_length_b 27.520686
_cell_length_c 30.332147
_cell_angle_alpha 90.000000
_cell_angle_beta 90.000000
_cell_angle_gamma 90.000000
_cell_volume 6450.563510
_symmetry_space_group_name_H-M "I M M M"
_symmetry_group_IT_number 71
_symmetry_cell_setting 'orthorhombic'
loop_
_space_group_symop_operation_xyz
x,y,z
-x,-y,z
x,-y,-z
-x,y,-z
-x,-y,-z
x,y,-z
-x,y,z
x,-y,z
1/2+x,1/2+y,1/2+z
1/2-x,1/2-y,1/2+z
1/2+x,1/2-y,1/2-z
1/2-x,1/2+y,1/2-z
1/2-x,1/2-y,1/2-z
1/2+x,1/2+y,1/2-z
1/2-x,1/2+y,1/2+z
1/2+x,1/2-y,1/2+z
loop_
_atom_site_type_symbol
_atom_site_label
_atom_site_fract_x
_atom_site_fract_y
_atom_site_fract_z
Si Si1 0.199334 0.904033 0.094938
Si Si2 0.795401 0.246157 0.365945
Si Si3 0.195242 0.500000 0.551704
Si Si4 0.795895 0.696505 0.449772
Si Si5 0.795188 0.338373 0.810729
Si Si6 0.709217 0.447254 0.215546
Si Si7 0.711738 0.812502 0.214795
Si Si8 0.699781 0.420757 0.689664
O O1 0.279706 0.857270 0.071444
O O2 0.279550 0.922458 0.141216
O O3 0.000000 0.890425 0.103861
O O4 0.209555 0.951139 0.065118
O O5 0.724026 0.266673 0.412222
O O6 0.772288 0.189904 0.353432
O O7 0.727843 0.275363 0.322902
O O8 0.000000 0.256367 0.367187
O O9 0.180377 0.500000 0.500000
O O10 0.000000 0.500000 0.570492
O O11 0.723816 0.698160 0.500000
O O12 0.000000 0.706911 0.453873
O O13 0.757447 0.395935 0.806759
O O14 0.730262 0.310600 0.766030
O O15 0.000000 0.333242 0.810885
O O16 0.500000 0.446822 0.217089
O O17 0.762843 0.500000 0.196655
O O18 0.774472 0.444748 0.266316
O O19 0.500000 0.813584 0.214784
O O20 0.786757 0.863959 0.200129
O O21 0.500000 0.437654 0.686360
#
# Coordination Sequence:
#
# PCOD9519370 Si02
#       8
#    16  16   8  16  16  16  16  16
#     4  11  22  35  54  75  96 122 160 213 265 310
#     4  10  19  32  50  71  99 132 167 203 244 299
#     4  11  25  41  53  65  85 119 163 211 263 315
#     4  10  21  37  56  75  98 131 169 209 254 306
#     4  10  20  31  47  73 103 130 163 205 249 293
#     4   9  18  33  52  70  96 134 171 203 240 291
#     4   9  17  30  47  68  95 127 163 199 236 285
#     4   9  18  30  47  71  96 124 159 199 244 293
#
# _framework density 18.603026
#
# number of rings (size 3 to 8) (size 9 to 14) (size 15 to 20)
#    0.000    2.200    1.333    1.800    0.933    4.800 
#    0.000    0.000    0.000    0.000    0.000    0.000 
#    0.000    0.533    0.000    6.133    0.000    1.733 
#
# Total GULP energy -334221.058336 kJ/mol
# GULP energy per Si atom -5570.350972 kJ/mol
# Density = 1.856068 g / cm^3
# Si number density = 18.603026 Si / 1000 Ang^3
#
#
#
# Elastic Constant Matrix: (Units=GPa)
#
#
# Indices 1 2 3 4 5 6 
#
# 1 31.6225 -5.7163 7.6802 0.0000 0.0000 0.0000
# 2 -5.7163 108.3632 67.3528 0.0000 0.0000 0.0000
# 3 7.6802 67.3528 87.4030 0.0000 0.0000 0.0000
# 4 0.0000 0.0000 0.0000 -3.0358 0.0000 0.0000
# 5 0.0000 0.0000 0.0000 0.0000 9.2870 0.0000
# 6 0.0000 0.0000 0.0000 0.0000 0.0000 21.8793
#
#
#
# Elastic Compliance Matrix: (Units=1/GPa)
#
#
# Indices 1 2 3 4 5 6 
#
# 1 0.035026 0.007218 -0.008640 0.000000 0.000000 0.000000
# 2 0.007218 0.019199 -0.015429 0.000000 0.000000 0.000000
# 3 -0.008640 -0.015429 0.024090 0.000000 0.000000 0.000000
# 4 0.000000 0.000000 0.000000 -0.329407 0.000000 0.000000
# 5 0.000000 0.000000 0.000000 0.000000 0.107677 0.000000
# 6 0.000000 0.000000 0.000000 0.000000 0.000000 0.045705
#
#
# Mechanical properties :
#
#
# Convention : Reuss Voigt Hill
#
# Bulk Modulus (GPa) = 22.41499 40.66914 31.54206
# Shear Modulus (GPa) = -101.75597 16.16426 -42.79585
#
# Velocity S-wave (km/s) = -7.40387 2.95092 -4.80153
# Velocity P-wave (km/s) = 7.81118 5.78961 3.70776
#
# Compressibility (1/GPa) = 0.04461301
#
# Stress axis : x y z
#
# Youngs Moduli (GPa) = 28.55015 52.08706 41.51135
#
# Poissons Ratio (x) = -0.37595 0.35865
# Poissons Ratio (y) = -0.20607 0.64047
# Poissons Ratio (z) = 0.24667 0.80364
#
# Static dielectric constant tensor:
#      x y z
#    x 1.715160 0.000000 0.000000 
#    y 0.000000 1.540260 0.000000 
#    z 0.000000 0.000000 1.693480 
# 
# From -- ./inp_files/63792.got.cif
#   From: 2010.05.17/outbox.cif.g08.bks.cpg/sg71_32_cif.got.tgz:63792.got - 2010.06.03 16:22:01.
