data_PCOD9519312
_publ_section_title
;
Structure prediction by ZEFSAII (Michael W. Deem and Ramdas Pophale) SiO2 
 PCOD9519312
Probable space group: I M M M
;
_chemical_formula_sum "Si O2"
_cell_formula_units_Z 120
_cell_length_a 13.596942
_cell_length_b 22.810824
_cell_length_c 23.328392
_cell_angle_alpha 90.000000
_cell_angle_beta 90.000000
_cell_angle_gamma 90.000000
_cell_volume 7235.474596
_symmetry_space_group_name_H-M "I M M M"
_symmetry_group_IT_number 71
_symmetry_cell_setting 'orthorhombic'
loop_
_space_group_symop_operation_xyz
x,y,z
-x,-y,z
x,-y,-z
-x,y,-z
-x,-y,-z
x,y,-z
-x,y,z
x,-y,z
1/2+x,1/2+y,1/2+z
1/2-x,1/2-y,1/2+z
1/2+x,1/2-y,1/2-z
1/2-x,1/2+y,1/2-z
1/2-x,1/2-y,1/2-z
1/2+x,1/2+y,1/2-z
1/2-x,1/2+y,1/2+z
1/2+x,1/2-y,1/2+z
loop_
_atom_site_type_symbol
_atom_site_label
_atom_site_fract_x
_atom_site_fract_y
_atom_site_fract_z
Si Si1 0.238566 0.569405 0.832244
Si Si2 0.500000 0.564557 0.068777
Si Si3 0.884898 0.846793 0.265812
Si Si4 0.891112 0.569151 0.725243
Si Si5 0.258226 0.645810 0.654495
Si Si6 0.883249 0.931745 0.068335
Si Si7 0.804864 0.862852 0.432901
Si Si8 0.382980 0.745552 0.868583
O O1 0.254307 0.500000 0.842874
O O2 0.327633 0.599296 0.796247
O O3 0.145693 0.576532 0.790353
O O4 0.227528 0.607105 0.890187
O O5 0.500000 0.500000 0.094555
O O6 0.402979 0.600120 0.082268
O O7 0.500000 0.559351 0.000000
O O8 0.832578 0.834470 0.205235
O O9 0.876316 0.791834 0.309327
O O10 0.000000 0.860189 0.258554
O O11 0.892756 0.500000 0.714071
O O12 0.813408 0.598821 0.683975
O O13 0.000000 0.593975 0.717227
O O14 0.319521 0.613794 0.604731
O O15 0.186121 0.697939 0.635280
O O16 0.000000 0.923470 0.079296
O O17 0.860014 0.000000 0.082983
O O18 0.867643 0.924851 0.000000
O O19 0.782644 0.868627 0.500000
O O20 0.835312 0.797340 0.416074
O O21 0.500000 0.756300 0.879183
#
# Coordination Sequence:
#
# PCOD9519312 Si02
#       8
#    16   8  16  16  16  16  16  16
#     4   9  18  30  48  75 101 130 167 204 251 309
#     4   9  16  26  44  68  92 126 167 201 242 298
#     4   9  19  33  47  70 104 132 158 206 262 304
#     4   9  18  33  51  73 102 129 158 205 258 302
#     4  11  19  31  54  79  95 127 176 209 240 302
#     4   9  19  36  56  79 108 135 158 197 254 308
#     4  10  19  32  47  67 100 136 170 211 253 296
#     4  10  20  33  47  67 100 137 171 210 254 296
#
# _framework density 16.584952000000001
#
# number of rings (size 3 to 8) (size 9 to 14) (size 15 to 20)
#    0.000    2.467    0.667    2.400    0.933    2.133 
#    0.000    0.000    0.000    4.800    0.000    6.533 
#    0.000    0.000    0.000    0.000    0.000    0.000 
#
# Total GULP energy -334318.661927 kJ/mol
# GULP energy per Si atom -5571.977699 kJ/mol
# Density = 1.654720 g / cm^3
# Si number density = 16.584952 Si / 1000 Ang^3
#
#
#
# Elastic Constant Matrix: (Units=GPa)
#
#
# Indices 1 2 3 4 5 6 
#
# 1 71.7930 34.7488 29.2547 0.0000 0.0000 0.0000
# 2 34.7488 79.2858 44.7901 0.0000 0.0000 0.0000
# 3 29.2547 44.7901 72.2823 0.0000 0.0000 0.0000
# 4 0.0000 0.0000 0.0000 18.5220 0.0000 0.0000
# 5 0.0000 0.0000 0.0000 0.0000 -5.2490 0.0000
# 6 0.0000 0.0000 0.0000 0.0000 0.0000 33.2107
#
#
#
# Elastic Compliance Matrix: (Units=1/GPa)
#
#
# Indices 1 2 3 4 5 6 
#
# 1 0.018318 -0.005908 -0.003753 0.000000 0.000000 0.000000
# 2 -0.005908 0.021311 -0.010814 0.000000 0.000000 0.000000
# 3 -0.003753 -0.010814 0.022055 0.000000 0.000000 0.000000
# 4 0.000000 0.000000 0.000000 0.053990 0.000000 0.000000
# 5 0.000000 0.000000 0.000000 0.000000 -0.190513 0.000000
# 6 0.000000 0.000000 0.000000 0.000000 0.000000 0.030111
#
#
# Mechanical properties :
#
#
# Convention : Reuss Voigt Hill
#
# Bulk Modulus (GPa) = 48.23207 48.99427 48.61317
# Shear Modulus (GPa) = 1596.07488 16.93457 806.50473
#
# Velocity S-wave (km/s) = 31.05563 3.19890 22.07584
# Velocity P-wave (km/s) = 36.26405 6.57643 26.06080
#
# Compressibility (1/GPa) = 0.02073309
#
# Stress axis : x y z
#
# Youngs Moduli (GPa) = 54.59186 46.92345 45.34184
#
# Poissons Ratio (x) = 0.27723 0.17015
# Poissons Ratio (y) = 0.32254 0.49035
# Poissons Ratio (z) = 0.20486 0.50745
#
# Static dielectric constant tensor:
#      x y z
#    x 1.557440 0.000000 0.000000 
#    y 0.000000 1.568670 0.000000 
#    z 0.000000 0.000000 1.566160 
# 
# From -- ./inp_files/59094.got.cif
#   From: 2010.05.17/outbox.cif.g08.bks.cpg/sg71_30_cif.got.tgz:59094.got - 2010.06.03 16:22:01.
