data_PCOD9519201
_publ_section_title
;
Structure prediction by ZEFSAII (Michael W. Deem and Ramdas Pophale) SiO2 
 PCOD9519201
Probable space group: I M M M
;
_chemical_formula_sum "Si O2"
_cell_formula_units_Z 88
_cell_length_a 13.973190
_cell_length_b 18.261042
_cell_length_c 17.904013
_cell_angle_alpha 90.000000
_cell_angle_beta 90.000000
_cell_angle_gamma 90.000000
_cell_volume 4568.477647
_symmetry_space_group_name_H-M "I M M M"
_symmetry_group_IT_number 71
_symmetry_cell_setting 'orthorhombic'
loop_
_space_group_symop_operation_xyz
x,y,z
-x,-y,z
x,-y,-z
-x,y,-z
-x,-y,-z
x,y,-z
-x,y,z
x,-y,z
1/2+x,1/2+y,1/2+z
1/2-x,1/2-y,1/2+z
1/2+x,1/2-y,1/2-z
1/2-x,1/2+y,1/2-z
1/2-x,1/2-y,1/2-z
1/2+x,1/2+y,1/2-z
1/2-x,1/2+y,1/2+z
1/2+x,1/2-y,1/2+z
loop_
_atom_site_type_symbol
_atom_site_label
_atom_site_fract_x
_atom_site_fract_y
_atom_site_fract_z
Si Si1 0.205371 0.086821 0.157944
Si Si2 0.110677 0.373066 0.263814
Si Si3 0.614775 0.710351 0.237869
Si Si4 0.114818 0.845731 0.584836
Si Si5 0.106504 0.500000 0.141641
Si Si6 0.389845 0.411639 0.500000
Si Si7 0.188455 0.000000 0.584824
O O1 0.318035 0.099263 0.172115
O O2 0.157905 0.143048 0.216410
O O3 0.184038 0.000000 0.171462
O O4 0.166291 0.107226 0.075915
O O5 0.139082 0.292111 0.235531
O O6 0.115717 0.430068 0.195904
O O7 0.000000 0.369841 0.289038
O O8 0.500000 0.702199 0.242082
O O9 0.642920 0.709363 0.150149
O O10 0.151777 0.833886 0.500000
O O11 0.148582 0.924556 0.615820
O O12 0.000000 0.846259 0.580134
O O13 0.197412 0.500000 0.088478
O O14 0.000000 0.500000 0.107899
O O15 0.395335 0.500000 0.500000
O O16 0.500000 0.383964 0.500000
O O17 0.152586 0.000000 0.500000
#
# Coordination Sequence:
#
# PCOD9519201 Si02
#       7
#    16  16  16  16   8   8   8
#     4  11  21  36  60  86 114 150 191 231 282 343
#     4  10  21  38  58  82 111 145 190 241 284 330
#     4  10  21  35  57  86 115 146 186 232 281 342
#     4   9  18  32  50  79 117 147 172 214 276 337
#     4  10  20  36  59  77 101 144 190 241 283 314
#     4   9  20  38  57  83 119 150 181 230 288 337
#     4  10  19  31  50  77 108 146 185 220 265 332
#
# _framework density 19.262433000000001
#
# number of rings (size 3 to 8) (size 9 to 14) (size 15 to 20)
#    0.000    2.091    0.909    2.455    1.273    2.364 
#    1.636    0.455    2.000    1.636    0.000    0.000 
#    0.000    0.000    0.000    0.000    0.000    0.000 
#
# Total GULP energy -245254.287480 kJ/mol
# GULP energy per Si atom -5573.961079 kJ/mol
# Density = 1.921859 g / cm^3
# Si number density = 19.262433 Si / 1000 Ang^3
#
#
#
# Elastic Constant Matrix: (Units=GPa)
#
#
# Indices 1 2 3 4 5 6 
#
# 1 50.7020 11.5642 26.8264 0.0000 0.0000 0.0000
# 2 11.5642 116.1691 37.8408 0.0000 0.0000 0.0000
# 3 26.8264 37.8408 83.3557 0.0000 0.0000 0.0000
# 4 0.0000 0.0000 0.0000 -5.1940 0.0000 0.0000
# 5 0.0000 0.0000 0.0000 0.0000 30.9987 0.0000
# 6 0.0000 0.0000 0.0000 0.0000 0.0000 -4.5096
#
#
#
# Elastic Compliance Matrix: (Units=1/GPa)
#
#
# Indices 1 2 3 4 5 6 
#
# 1 0.023773 0.000147 -0.007718 0.000000 0.000000 0.000000
# 2 0.000147 0.010103 -0.004634 0.000000 0.000000 0.000000
# 3 -0.007718 -0.004634 0.016584 0.000000 0.000000 0.000000
# 4 0.000000 0.000000 0.000000 -0.192528 0.000000 -0.000001
# 5 0.000000 0.000000 0.000000 0.000000 0.032259 0.000000
# 6 0.000000 0.000000 0.000000 -0.000001 0.000000 -0.221749
#
#
# Mechanical properties :
#
#
# Convention : Reuss Voigt Hill
#
# Bulk Modulus (GPa) = 38.38520 44.74328 41.56424
# Shear Modulus (GPa) = -16.75232 15.85872 -0.44680
#
# Velocity S-wave (km/s) = -2.95225 2.87243 -0.48214
# Velocity P-wave (km/s) = 2.88959 5.85490 4.61679
#
# Compressibility (1/GPa) = 0.02605171
#
# Stress axis : x y z
#
# Youngs Moduli (GPa) = 42.06462 98.98172 60.29829
#
# Poissons Ratio (x) = -0.01460 0.46537
# Poissons Ratio (y) = -0.00620 0.27941
# Poissons Ratio (z) = 0.32465 0.45867
#
# Static dielectric constant tensor:
#      x y z
#    x 1.701360 0.000000 0.000000 
#    y 0.000000 1.703470 0.000000 
#    z 0.000000 0.000000 1.648300 
# 
# From -- ./inp_files/44747.got.cif
#   From: 2010.05.17/outbox.cif.g08.bks.cpg/sg71_23_cif.got.tgz:44747.got - 2010.06.03 16:22:01.
