data_PCOD9519701
_publ_section_title
;
Structure prediction by ZEFSAII (Michael W. Deem and Ramdas Pophale) SiO2 
 PCOD9519701
Probable space group: I M M M
;
_chemical_formula_sum "Si O2"
_cell_formula_units_Z 120
_cell_length_a 16.397720
_cell_length_b 23.968552
_cell_length_c 17.970786
_cell_angle_alpha 90.000000
_cell_angle_beta 90.000000
_cell_angle_gamma 90.000000
_cell_volume 7063.050914
_symmetry_space_group_name_H-M "I M M M"
_symmetry_group_IT_number 71
_symmetry_cell_setting 'orthorhombic'
loop_
_space_group_symop_operation_xyz
x,y,z
-x,-y,z
x,-y,-z
-x,y,-z
-x,-y,-z
x,y,-z
-x,y,z
x,-y,z
1/2+x,1/2+y,1/2+z
1/2-x,1/2-y,1/2+z
1/2+x,1/2-y,1/2-z
1/2-x,1/2+y,1/2-z
1/2-x,1/2-y,1/2-z
1/2+x,1/2+y,1/2-z
1/2-x,1/2+y,1/2+z
1/2+x,1/2-y,1/2+z
loop_
_atom_site_type_symbol
_atom_site_label
_atom_site_fract_x
_atom_site_fract_y
_atom_site_fract_z
Si Si1 0.664957 0.936245 0.274465
Si Si2 0.591956 0.932971 0.126050
Si Si3 0.407429 0.744690 0.088392
Si Si4 0.598002 0.500000 0.586659
Si Si5 0.593193 0.623599 0.842739
Si Si6 0.247980 0.067576 0.584541
Si Si7 0.328507 0.595728 0.310600
Si Si8 0.218188 0.342330 0.416065
O O1 0.601934 0.914798 0.212948
O O2 0.685994 0.910966 0.354778
O O3 0.751554 0.933376 0.230889
O O4 0.640741 0.000000 0.287833
O O5 0.500000 0.922535 0.099948
O O6 0.659992 0.897134 0.084849
O O7 0.606778 0.000000 0.121392
O O8 0.500000 0.765775 0.101020
O O9 0.396575 0.688138 0.134387
O O10 0.340340 0.791151 0.105365
O O11 0.401184 0.731668 0.000000
O O12 0.500000 0.500000 0.588542
O O13 0.624193 0.500000 0.500000
O O14 0.631406 0.553314 0.631440
O O15 0.500000 0.607396 0.859579
O O16 0.659854 0.589153 0.889193
O O17 0.612179 0.613908 0.755760
O O18 0.264800 0.084517 0.500000
O O19 0.247570 0.000000 0.588049
O O20 0.289198 0.646141 0.357340
O O21 0.248559 0.333820 0.500000
#
# Coordination Sequence:
#
# PCOD9519701 Si02
#       8
#    16  16  16   8  16  16  16  16
#     4   8  14  27  43  60  88 123 151 180 231 286
#     4   9  17  28  44  68  94 121 157 199 245 298
#     4   9  18  33  50  70  98 129 160 195 244 302
#     4  11  22  34  50  72 100 134 168 205 250 300
#     4  10  20  32  49  69  94 129 163 204 251 295
#     4   9  17  28  44  68  94 121 157 199 245 298
#     4  10  19  33  48  69  94 126 168 204 242 291
#     4  10  20  32  49  69  94 129 163 204 251 295
#
# _framework density 16.989826000000001
#
# number of rings (size 3 to 8) (size 9 to 14) (size 15 to 20)
#    0.000    2.600    0.667    1.600    1.867    2.667 
#    0.000    1.333    0.000    0.400    0.000    2.800 
#    0.000    0.000    0.000    8.133    0.000    4.533 
#
# Total GULP energy -334132.717034 kJ/mol
# GULP energy per Si atom -5568.878617 kJ/mol
# Density = 1.695116 g / cm^3
# Si number density = 16.989826 Si / 1000 Ang^3
#
#
#
# Elastic Constant Matrix: (Units=GPa)
#
#
# Indices 1 2 3 4 5 6 
#
# 1 20.1996 4.3223 7.6140 0.0001 0.0000 0.0000
# 2 4.3223 35.3788 18.8647 0.0000 0.0000 0.0000
# 3 7.6140 18.8647 100.5113 0.0000 0.0000 0.0000
# 4 0.0001 0.0000 0.0000 21.3252 0.0000 0.0000
# 5 0.0000 0.0000 0.0000 0.0000 16.9570 0.0000
# 6 0.0000 0.0000 0.0000 0.0000 0.0000 16.9779
#
#
#
# Elastic Compliance Matrix: (Units=1/GPa)
#
#
# Indices 1 2 3 4 5 6 
#
# 1 0.051653 -0.004694 -0.003032 0.000000 0.000000 0.000000
# 2 -0.004694 0.031835 -0.005620 0.000000 0.000000 0.000000
# 3 -0.003032 -0.005620 0.011234 0.000000 0.000000 0.000000
# 4 0.000000 0.000000 0.000000 0.046893 0.000000 0.000000
# 5 0.000000 0.000000 0.000000 0.000000 0.058973 0.000000
# 6 0.000000 0.000000 0.000000 0.000000 0.000000 0.058900
#
#
# Mechanical properties :
#
#
# Convention : Reuss Voigt Hill
#
# Bulk Modulus (GPa) = 14.69908 24.18797 19.44353
# Shear Modulus (GPa) = 16.18880 19.40460 17.79670
#
# Velocity S-wave (km/s) = 3.09018 3.38321 3.24001
# Velocity P-wave (km/s) = 4.62631 5.43407 5.04638
#
# Compressibility (1/GPa) = 0.06803146
#
# Stress axis : x y z
#
# Youngs Moduli (GPa) = 19.35993 31.41153 89.01933
#
# Poissons Ratio (x) = 0.14744 0.26990
# Poissons Ratio (y) = 0.09087 0.50025
# Poissons Ratio (z) = 0.05870 0.17652
#
# Static dielectric constant tensor:
#      x y z
#    x 1.567230 0.000000 0.000000 
#    y 0.000000 1.562890 0.000000 
#    z 0.000000 0.000000 1.610040 
# 
# From -- ./inp_files/46497.got.cif
#   From: 2010.05.17/outbox.cif.g08.bks.cpg/sg71_24_cif.got.tgz:46497.got - 2010.06.03 16:22:01.
