data_PCOD9519623
_publ_section_title
;
Structure prediction by ZEFSAII (Michael W. Deem and Ramdas Pophale) SiO2 
 PCOD9519623
Probable space group: I M M M
;
_chemical_formula_sum "Si O2"
_cell_formula_units_Z 64
_cell_length_a 27.030371
_cell_length_b 7.749818
_cell_length_c 15.154281
_cell_angle_alpha 90.000000
_cell_angle_beta 90.000000
_cell_angle_gamma 90.000000
_cell_volume 3174.525690
_symmetry_space_group_name_H-M "I M M M"
_symmetry_group_IT_number 71
_symmetry_cell_setting 'orthorhombic'
loop_
_space_group_symop_operation_xyz
x,y,z
-x,-y,z
x,-y,-z
-x,y,-z
-x,-y,-z
x,y,-z
-x,y,z
x,-y,z
1/2+x,1/2+y,1/2+z
1/2-x,1/2-y,1/2+z
1/2+x,1/2-y,1/2-z
1/2-x,1/2+y,1/2-z
1/2-x,1/2-y,1/2-z
1/2+x,1/2+y,1/2-z
1/2-x,1/2+y,1/2+z
1/2+x,1/2-y,1/2+z
loop_
_atom_site_type_symbol
_atom_site_label
_atom_site_fract_x
_atom_site_fract_y
_atom_site_fract_z
Si Si1 0.393196 0.203251 0.659538
Si Si2 0.864919 0.797010 0.645703
Si Si3 0.825100 0.288031 0.000000
Si Si4 0.788443 0.211738 0.500000
Si Si5 0.443611 0.792559 0.000000
Si Si6 0.000000 0.710267 0.895883
O O1 0.372944 0.221928 0.757913
O O2 0.355323 0.271257 0.586071
O O3 0.448887 0.273936 0.647426
O O4 0.397246 0.000000 0.640289
O O5 0.819239 0.730578 0.586254
O O6 0.913215 0.767580 0.585351
O O7 0.857544 0.000000 0.657226
O O8 0.768152 0.232305 0.000000
O O9 0.823629 0.500000 0.000000
O O10 0.789908 0.000000 0.500000
O O11 0.500000 0.731361 0.000000
O O12 0.443679 0.000000 0.000000
O O13 0.000000 0.500000 0.888805
O O14 0.000000 0.751347 0.000000
#
# Coordination Sequence:
#
# PCOD9519623 Si02
#       6
#    16  16   8   8   8   8
#     4  10  19  32  54  81 106 136 180 225 264 312
#     4  10  21  36  53  76 111 145 172 210 267 328
#     4   9  17  32  56  80 101 136 187 231 265 306
#     4   8  17  35  54  73 103 141 177 222 270 310
#     4  10  21  37  57  79 102 133 179 228 263 302
#     4   9  16  30  51  76 105 134 169 221 272 304
#
# _framework density 20.160492999999999
#
# number of rings (size 3 to 8) (size 9 to 14) (size 15 to 20)
#    0.000    2.500    1.250    1.875    1.750    2.000 
#    0.000    0.625    0.000    8.250    0.000    0.000 
#    0.000    0.000    0.000    0.000    0.000    0.000 
#
# Total GULP energy -178576.149500 kJ/mol
# GULP energy per Si atom -5580.504672 kJ/mol
# Density = 2.011461 g / cm^3
# Si number density = 20.160493 Si / 1000 Ang^3
#
#
#
# Elastic Constant Matrix: (Units=GPa)
#
#
# Indices 1 2 3 4 5 6 
#
# 1 218.3365 1.7333 106.5690 0.0000 0.0000 0.0000
# 2 1.7333 20.2894 -18.0043 0.0000 0.0000 0.0000
# 3 106.5690 -18.0043 156.4662 0.0000 0.0000 0.0000
# 4 0.0000 0.0000 0.0000 40.5554 0.0000 0.0000
# 5 0.0000 0.0000 0.0000 0.0000 7.4264 0.0000
# 6 0.0000 0.0000 0.0000 0.0000 0.0000 -2.1181
#
#
#
# Elastic Compliance Matrix: (Units=1/GPa)
#
#
# Indices 1 2 3 4 5 6 
#
# 1 0.007407 -0.005691 -0.005700 0.000000 0.000000 0.000000
# 2 -0.005691 0.059264 0.010695 0.000000 0.000000 0.000000
# 3 -0.005700 0.010695 0.011504 0.000000 0.000000 0.000000
# 4 0.000000 0.000000 0.000000 0.024658 0.000000 0.000000
# 5 0.000000 0.000000 0.000000 0.000000 0.134654 0.000000
# 6 0.000000 0.000000 0.000000 0.000000 0.000000 -0.472129
#
#
# Mechanical properties :
#
#
# Convention : Reuss Voigt Hill
#
# Bulk Modulus (GPa) = 13.02343 63.96532 38.49437
# Shear Modulus (GPa) = -24.07828 29.49237 2.70704
#
# Velocity S-wave (km/s) = -3.45966 3.82891 1.16003
# Velocity P-wave (km/s) = 3.07978 7.16550 4.57489
#
# Compressibility (1/GPa) = 0.07678471
#
# Stress axis : x y z
#
# Youngs Moduli (GPa) = 134.99991 16.87365 86.92520
#
# Poissons Ratio (x) = 0.09603 0.49548
# Poissons Ratio (y) = 0.76827 -0.92971
# Poissons Ratio (z) = 0.76950 -0.18047
#
# Static dielectric constant tensor:
#      x y z
#    x 1.712870 0.000000 0.000000 
#    y 0.000000 1.756900 0.000000 
#    z 0.000000 0.000000 1.659050 
# 
# From -- ./inp_files/5640.got.cif
#   From: 2010.05.17/outbox.cif.g08.bks.cpg/sg71_3_cif.got.tgz:5640.got - 2010.06.03 16:22:01.
