data_PCOD9519996
_publ_section_title
;
Structure prediction by ZEFSAII (Michael W. Deem and Ramdas Pophale) SiO2 
 PCOD9519996
Probable space group: I M M M
;
_chemical_formula_sum "Si O2"
_cell_formula_units_Z 96
_cell_length_a 16.064861
_cell_length_b 14.130447
_cell_length_c 20.551481
_cell_angle_alpha 90.000000
_cell_angle_beta 90.000000
_cell_angle_gamma 90.000000
_cell_volume 4665.261548
_symmetry_space_group_name_H-M "I M M M"
_symmetry_group_IT_number 71
_symmetry_cell_setting 'orthorhombic'
loop_
_space_group_symop_operation_xyz
x,y,z
-x,-y,z
x,-y,-z
-x,y,-z
-x,-y,-z
x,y,-z
-x,y,z
x,-y,z
1/2+x,1/2+y,1/2+z
1/2-x,1/2-y,1/2+z
1/2+x,1/2-y,1/2-z
1/2-x,1/2+y,1/2-z
1/2-x,1/2-y,1/2-z
1/2+x,1/2+y,1/2-z
1/2-x,1/2+y,1/2+z
1/2+x,1/2-y,1/2+z
loop_
_atom_site_type_symbol
_atom_site_label
_atom_site_fract_x
_atom_site_fract_y
_atom_site_fract_z
Si Si1 0.861208 0.610008 0.224083
Si Si2 0.835400 0.887141 0.290112
Si Si3 0.909724 0.613739 0.373198
Si Si4 0.232584 0.111168 0.923628
Si Si5 0.099172 0.885927 0.571239
Si Si6 0.407522 0.705572 0.663288
O O1 0.874956 0.500000 0.208428
O O2 0.761917 0.627863 0.225066
O O3 0.896782 0.627790 0.296161
O O4 0.900154 0.682170 0.173373
O O5 0.857636 0.852258 0.362558
O O6 0.889052 0.837542 0.234657
O O7 0.851016 0.000000 0.287259
O O8 0.912689 0.500000 0.383529
O O9 0.826385 0.645400 0.409109
O O10 0.000000 0.652336 0.393784
O O11 0.164209 0.167366 0.883316
O O12 0.228409 0.000000 0.903207
O O13 0.216391 0.116501 0.000000
O O14 0.126916 0.849698 0.500000
O O15 0.000000 0.871845 0.576619
O O16 0.112261 0.000000 0.570078
O O17 0.500000 0.678663 0.641619
#
# Coordination Sequence:
#
# PCOD9519996 Si02
#       6
#    16  16  16  16  16  16
#     4  10  21  39  61  86 119 155 198 259 313 356
#     4  10  19  33  56  86 120 156 198 246 303 369
#     4   9  17  33  60  91 122 158 199 244 303 370
#     4  10  22  40  61  90 128 165 203 251 307 368
#     4   8  14  26  46  75 113 154 191 229 282 352
#     4  12  24  37  60  90 120 160 209 255 302 360
#
# _framework density 20.577624
#
# number of rings (size 3 to 8) (size 9 to 14) (size 15 to 20)
#    0.000    2.167    1.667    2.500    0.000    3.667 
#    0.000    3.333    0.000    1.500    0.000    1.167 
#    0.000    0.000    0.000    0.000    0.000    0.000 
#
# Total GULP energy -268294.630182 kJ/mol
# GULP energy per Si atom -5589.471462 kJ/mol
# Density = 2.053079 g / cm^3
# Si number density = 20.577624 Si / 1000 Ang^3
#
#
#
# Elastic Constant Matrix: (Units=GPa)
#
#
# Indices 1 2 3 4 5 6 
#
# 1 126.7993 26.4936 51.0612 0.0000 0.0000 0.0000
# 2 26.4936 74.2161 26.8562 0.0000 0.0000 0.0000
# 3 51.0612 26.8562 69.7524 0.0000 0.0000 0.0000
# 4 0.0000 0.0000 0.0000 18.0505 0.0000 0.0000
# 5 0.0000 0.0000 0.0000 0.0000 -8.2831 0.0000
# 6 0.0000 0.0000 0.0000 0.0000 0.0000 -1.5944
#
#
#
# Elastic Compliance Matrix: (Units=1/GPa)
#
#
# Indices 1 2 3 4 5 6 
#
# 1 0.011275 -0.001206 -0.007789 0.000000 0.000000 0.000000
# 2 -0.001206 0.015784 -0.005194 0.000000 0.000000 0.000000
# 3 -0.007789 -0.005194 0.022038 0.000000 0.000000 0.000000
# 4 0.000000 0.000000 0.000000 0.055400 0.000000 0.000000
# 5 0.000000 0.000000 0.000000 0.000000 -0.120728 0.000000
# 6 0.000000 0.000000 0.000000 0.000000 0.000000 -0.627205
#
#
# Mechanical properties :
#
#
# Convention : Reuss Voigt Hill
#
# Bulk Modulus (GPa) = 48.26696 53.28777 50.77736
# Shear Modulus (GPa) = -8.22167 12.72506 2.25170
#
# Velocity S-wave (km/s) = -2.00103 2.48945 1.04720
# Velocity P-wave (km/s) = 4.26241 5.84939 5.11779
#
# Compressibility (1/GPa) = 0.02071810
#
# Stress axis : x y z
#
# Youngs Moduli (GPa) = 88.68957 63.35355 45.37516
#
# Poissons Ratio (x) = 0.07642 0.35345
# Poissons Ratio (y) = 0.10699 0.23569
# Poissons Ratio (z) = 0.69084 0.32908
#
# Static dielectric constant tensor:
#      x y z
#    x 1.725880 0.000000 0.000000 
#    y 0.000000 1.792220 0.000000 
#    z 0.000000 0.000000 1.697880 
# 
# From -- ./inp_files/37826.got.cif
#   From: 2010.05.17/outbox.cif.g08.bks.cpg/sg71_19_cif.got.tgz:37826.got - 2010.06.03 16:22:01.
