data_PCOD9519500
_publ_section_title
;
Structure prediction by ZEFSAII (Michael W. Deem and Ramdas Pophale) SiO2 
 PCOD9519500
Probable space group: I M M M
;
_chemical_formula_sum "Si O2"
_cell_formula_units_Z 96
_cell_length_a 29.155287
_cell_length_b 21.103431
_cell_length_c 7.670919
_cell_angle_alpha 90.000000
_cell_angle_beta 90.000000
_cell_angle_gamma 90.000000
_cell_volume 4719.736865
_symmetry_space_group_name_H-M "I M M M"
_symmetry_group_IT_number 71
_symmetry_cell_setting 'orthorhombic'
loop_
_space_group_symop_operation_xyz
x,y,z
-x,-y,z
x,-y,-z
-x,y,-z
-x,-y,-z
x,y,-z
-x,y,z
x,-y,z
1/2+x,1/2+y,1/2+z
1/2-x,1/2-y,1/2+z
1/2+x,1/2-y,1/2-z
1/2-x,1/2+y,1/2-z
1/2-x,1/2-y,1/2-z
1/2+x,1/2+y,1/2-z
1/2-x,1/2+y,1/2+z
1/2+x,1/2-y,1/2+z
loop_
_atom_site_type_symbol
_atom_site_label
_atom_site_fract_x
_atom_site_fract_y
_atom_site_fract_z
Si Si1 0.185245 0.206527 0.794953
Si Si2 0.721713 0.844394 0.710117
Si Si3 0.948392 0.339548 0.205347
Si Si4 0.083164 0.200300 0.697935
Si Si5 0.445168 0.432496 0.795168
Si Si6 0.135760 0.426789 0.213552
O O1 0.225516 0.155312 0.769321
O O2 0.203540 0.275131 0.734208
O O3 0.137928 0.195737 0.699170
O O4 0.174976 0.211667 0.000000
O O5 0.722460 0.845728 0.500000
O O6 0.684233 0.895617 0.769007
O O7 0.933294 0.266264 0.221542
O O8 0.907328 0.384082 0.274802
O O9 0.000000 0.348355 0.278151
O O10 0.951097 0.354069 0.000000
O O11 0.065079 0.201697 0.500000
O O12 0.067868 0.134676 0.784952
O O13 0.500000 0.434526 0.793100
O O14 0.428316 0.500000 0.721479
O O15 0.430721 0.431079 0.000000
O O16 0.131697 0.500000 0.265823
O O17 0.135764 0.424904 0.000000
#
# Coordination Sequence:
#
# PCOD9519500 Si02
#       6
#    16  16  16  16  16  16
#     4  10  19  32  52  76 104 132 164 208 257 307
#     4   9  17  32  52  75 100 129 169 211 252 301
#     4  10  20  34  52  77 109 141 176 221 270 315
#     4  11  20  31  52  80 106 135 173 215 261 311
#     4   8  15  29  48  70  97 129 167 211 253 294
#     4   9  17  32  54  78 105 138 178 223 265 308
#
# _framework density 20.340118
#
# number of rings (size 3 to 8) (size 9 to 14) (size 15 to 20)
#    0.000    2.500    1.667    2.000    0.000    2.000 
#    0.000    2.500    0.000    9.000    0.000    7.000 
#    0.000    0.000    0.000    0.000    0.000    0.000 
#
# Total GULP energy -267516.546218 kJ/mol
# GULP energy per Si atom -5573.261380 kJ/mol
# Density = 2.029382 g / cm^3
# Si number density = 20.340118 Si / 1000 Ang^3
#
#
#
# Elastic Constant Matrix: (Units=GPa)
#
#
# Indices 1 2 3 4 5 6 
#
# 1 82.8510 41.1572 -0.9738 0.0000 0.0000 0.0000
# 2 41.1572 133.9986 -1.8931 0.0000 0.0000 0.0000
# 3 -0.9738 -1.8931 35.7849 0.0000 0.0000 0.0000
# 4 0.0000 0.0000 0.0000 17.3371 0.0000 0.0000
# 5 0.0000 0.0000 0.0000 0.0000 10.5046 0.0000
# 6 0.0000 0.0000 0.0000 0.0000 0.0000 23.3419
#
#
#
# Elastic Compliance Matrix: (Units=1/GPa)
#
#
# Indices 1 2 3 4 5 6 
#
# 1 0.014244 -0.004373 0.000156 0.000000 0.000000 0.000000
# 2 -0.004373 0.008811 0.000347 0.000000 0.000000 0.000000
# 3 0.000156 0.000347 0.027967 0.000000 0.000000 0.000000
# 4 0.000000 0.000000 0.000000 0.057680 0.000000 0.000000
# 5 0.000000 0.000000 0.000000 0.000000 0.095197 0.000000
# 6 0.000000 0.000000 0.000000 0.000000 0.000000 0.042841
#
#
# Mechanical properties :
#
#
# Convention : Reuss Voigt Hill
#
# Bulk Modulus (GPa) = 23.10359 36.57946 29.84153
# Shear Modulus (GPa) = 18.59384 24.52633 21.56009
#
# Velocity S-wave (km/s) = 3.02677 3.47625 3.25926
# Velocity P-wave (km/s) = 4.85782 5.84254 5.37279
#
# Compressibility (1/GPa) = 0.04328332
#
# Stress axis : x y z
#
# Youngs Moduli (GPa) = 70.20540 113.49768 35.75593
#
# Poissons Ratio (x) = 0.49630 -0.00559
# Poissons Ratio (y) = 0.30699 -0.01241
# Poissons Ratio (z) = -0.01097 -0.03940
#
# Static dielectric constant tensor:
#      x y z
#    x 1.735960 0.000000 0.000000 
#    y 0.000000 1.731090 0.000000 
#    z 0.000000 0.000000 1.783390 
# 
# From -- ./inp_files/10898.got.cif
#   From: 2010.05.17/outbox.cif.g08.bks.cpg/sg71_6_cif.got.tgz:10898.got - 2010.06.03 16:22:01.
