data_PCOD9519431
_publ_section_title
;
Structure prediction by ZEFSAII (Michael W. Deem and Ramdas Pophale) SiO2 
 PCOD9519431
Probable space group: I M M M
;
_chemical_formula_sum "Si O2"
_cell_formula_units_Z 120
_cell_length_a 12.836674
_cell_length_b 22.042928
_cell_length_c 25.596318
_cell_angle_alpha 90.000000
_cell_angle_beta 90.000000
_cell_angle_gamma 90.000000
_cell_volume 7242.679896
_symmetry_space_group_name_H-M "I M M M"
_symmetry_group_IT_number 71
_symmetry_cell_setting 'orthorhombic'
loop_
_space_group_symop_operation_xyz
x,y,z
-x,-y,z
x,-y,-z
-x,y,-z
-x,-y,-z
x,y,-z
-x,y,z
x,-y,z
1/2+x,1/2+y,1/2+z
1/2-x,1/2-y,1/2+z
1/2+x,1/2-y,1/2-z
1/2-x,1/2+y,1/2-z
1/2-x,1/2-y,1/2-z
1/2+x,1/2+y,1/2-z
1/2-x,1/2+y,1/2+z
1/2+x,1/2-y,1/2+z
loop_
_atom_site_type_symbol
_atom_site_label
_atom_site_fract_x
_atom_site_fract_y
_atom_site_fract_z
Si Si1 0.731687 0.746384 0.329759
Si Si2 0.121529 0.427169 0.560815
Si Si3 0.873665 0.070003 0.443740
Si Si4 0.275735 0.427217 0.256319
Si Si5 0.308147 0.377825 0.627570
Si Si6 0.124066 0.141532 0.658675
Si Si7 0.879586 0.673629 0.249730
Si Si8 0.500000 0.572874 0.560902
O O1 0.685811 0.694985 0.367016
O O2 0.815592 0.795517 0.347937
O O3 0.799773 0.706051 0.289374
O O4 0.642763 0.786895 0.302217
O O5 0.145239 0.412296 0.500000
O O6 0.133475 0.500000 0.566149
O O7 0.198587 0.395076 0.600724
O O8 0.000000 0.412675 0.570294
O O9 0.839865 0.096075 0.500000
O O10 0.841603 0.102357 0.391113
O O11 0.000000 0.071014 0.443657
O O12 0.841772 0.000000 0.441959
O O13 0.276251 0.500000 0.250681
O O14 0.312812 0.408627 0.314762
O O15 0.344943 0.393309 0.212100
O O16 0.163052 0.395173 0.247383
O O17 0.398874 0.403197 0.591113
O O18 0.000000 0.150385 0.658416
O O19 0.000000 0.676793 0.264542
O O20 0.500000 0.500000 0.562746
O O21 0.500000 0.591033 0.500000
#
# Coordination Sequence:
#
# PCOD9519431 Si02
#       8
#    16  16  16  16  16  16  16   8
#     4   9  20  33  48  75  98 133 180 214 250 313
#     4   9  18  34  55  75  98 133 174 215 264 320
#     4   8  14  26  45  69  96 130 170 204 247 309
#     4  10  21  33  48  80 110 132 173 219 267 321
#     4  11  22  35  53  77 105 139 175 224 272 318
#     4  10  19  32  51  74 107 144 172 211 260 313
#     4   9  18  34  52  67  98 142 175 208 257 316
#     4  11  24  40  58  78 104 142 184 230 280 326
#
# _framework density 16.568453000000002
#
# number of rings (size 3 to 8) (size 9 to 14) (size 15 to 20)
#    0.000    2.467    0.000    4.000    1.867    4.800 
#    0.000    1.333    0.000    1.600    0.000    0.000 
#    0.000    0.000    0.000   14.400    0.000    2.133 
#
# Total GULP energy -334123.276113 kJ/mol
# GULP energy per Si atom -5568.721269 kJ/mol
# Density = 1.653074 g / cm^3
# Si number density = 16.568453 Si / 1000 Ang^3
#
#
#
# Elastic Constant Matrix: (Units=GPa)
#
#
# Indices 1 2 3 4 5 6 
#
# 1 45.1540 21.0905 23.8548 0.0000 0.0000 0.0000
# 2 21.0905 100.1691 42.8074 0.0000 0.0000 0.0000
# 3 23.8548 42.8074 110.9626 0.0000 0.0000 0.0000
# 4 0.0000 0.0000 0.0000 8.7898 0.0000 0.0000
# 5 0.0000 0.0000 0.0000 0.0000 5.4517 0.0000
# 6 0.0000 0.0000 0.0000 0.0000 0.0000 9.3497
#
#
#
# Elastic Compliance Matrix: (Units=1/GPa)
#
#
# Indices 1 2 3 4 5 6 
#
# 1 0.026085 -0.003707 -0.004178 0.000000 0.000000 0.000000
# 2 -0.003707 0.012481 -0.004018 0.000000 0.000000 0.000000
# 3 -0.004178 -0.004018 0.011460 0.000000 0.000000 0.000000
# 4 0.000000 0.000000 0.000000 0.113769 0.000000 0.000000
# 5 0.000000 0.000000 0.000000 0.000000 0.183430 0.000000
# 6 0.000000 0.000000 0.000000 0.000000 0.000000 0.106956
#
#
# Mechanical properties :
#
#
# Convention : Reuss Voigt Hill
#
# Bulk Modulus (GPa) = 38.13757 47.97679 43.05718
# Shear Modulus (GPa) = 10.27274 15.95375 13.11325
#
# Velocity S-wave (km/s) = 2.49272 3.10643 2.81634
# Velocity P-wave (km/s) = 5.59938 6.47195 6.05141
#
# Compressibility (1/GPa) = 0.02622086
#
# Stress axis : x y z
#
# Youngs Moduli (GPa) = 38.33638 80.12398 87.25836
#
# Poissons Ratio (x) = 0.29700 0.36454
# Poissons Ratio (y) = 0.14211 0.35060
# Poissons Ratio (z) = 0.16016 0.32193
#
# Static dielectric constant tensor:
#      x y z
#    x 1.545250 0.000000 0.000000 
#    y 0.000000 1.575510 0.000000 
#    z 0.000000 0.000000 1.588190 
# 
# From -- ./inp_files/64875.got.cif
#   From: 2010.05.17/outbox.cif.g08.bks.cpg/sg71_33_cif.got.tgz:64875.got - 2010.06.03 16:22:01.
