data_PCOD9519842
_publ_section_title
;
Structure prediction by ZEFSAII (Michael W. Deem and Ramdas Pophale) SiO2 
 PCOD9519842
Probable space group: I M M M
;
_chemical_formula_sum "Si O2"
_cell_formula_units_Z 104
_cell_length_a 21.513380
_cell_length_b 19.186284
_cell_length_c 14.746906
_cell_angle_alpha 90.000000
_cell_angle_beta 90.000000
_cell_angle_gamma 90.000000
_cell_volume 6086.959738
_symmetry_space_group_name_H-M "I M M M"
_symmetry_group_IT_number 71
_symmetry_cell_setting 'orthorhombic'
loop_
_space_group_symop_operation_xyz
x,y,z
-x,-y,z
x,-y,-z
-x,y,-z
-x,-y,-z
x,y,-z
-x,y,z
x,-y,z
1/2+x,1/2+y,1/2+z
1/2-x,1/2-y,1/2+z
1/2+x,1/2-y,1/2-z
1/2-x,1/2+y,1/2-z
1/2-x,1/2-y,1/2-z
1/2+x,1/2+y,1/2-z
1/2-x,1/2+y,1/2+z
1/2+x,1/2-y,1/2+z
loop_
_atom_site_type_symbol
_atom_site_label
_atom_site_fract_x
_atom_site_fract_y
_atom_site_fract_z
Si Si1 0.072016 0.697811 0.250223
Si Si2 0.824358 0.581342 0.748694
Si Si3 0.500000 0.420805 0.110063
Si Si4 0.216136 0.920452 0.108050
Si Si5 0.248744 0.835484 0.393207
Si Si6 0.149632 0.781991 0.893053
Si Si7 0.105359 0.812176 0.608886
O O1 0.115521 0.630108 0.254579
O O2 0.097859 0.746342 0.168744
O O3 0.081817 0.743728 0.340330
O O4 0.000000 0.681077 0.237804
O O5 0.839640 0.500000 0.755209
O O6 0.779938 0.592370 0.661715
O O7 0.782807 0.606670 0.833552
O O8 0.500000 0.500000 0.143983
O O9 0.560766 0.376308 0.135740
O O10 0.500000 0.423841 0.000000
O O11 0.166575 0.861024 0.132574
O O12 0.196338 0.000000 0.128202
O O13 0.226474 0.914580 0.000000
O O14 0.250953 0.852553 0.500000
O O15 0.287739 0.764209 0.379926
O O16 0.177162 0.825508 0.366686
O O17 0.133958 0.779036 0.000000
O O18 0.101827 0.804121 0.500000
#
# Coordination Sequence:
#
# PCOD9519842 Si02
#       7
#    16  16   8  16  16  16  16
#     4  11  22  35  53  73 100 140 181 215 253 301
#     4  10  21  35  51  76 106 133 169 217 262 308
#     4   9  18  32  48  70 104 140 168 197 238 296
#     4   9  17  31  53  79 106 134 162 202 260 312
#     4   9  18  32  54  79 101 129 165 211 265 313
#     4   9  18  34  54  76 100 127 169 221 263 303
#     4  10  19  33  53  78 106 137 173 207 247 305
#
# _framework density 17.085705000000001
#
# number of rings (size 3 to 8) (size 9 to 14) (size 15 to 20)
#    0.000    2.385    0.769    1.846    0.000    5.846 
#    0.000    2.308    0.000    0.000    0.000    9.692 
#    0.000    0.000    0.000    0.000    0.000    0.000 
#
# Total GULP energy -290106.962067 kJ/mol
# GULP energy per Si atom -5578.980040 kJ/mol
# Density = 1.704682 g / cm^3
# Si number density = 17.085705 Si / 1000 Ang^3
#
#
#
# Elastic Constant Matrix: (Units=GPa)
#
#
# Indices 1 2 3 4 5 6 
#
# 1 49.1122 18.7448 4.5611 0.0000 0.0000 0.0000
# 2 18.7448 94.9963 23.6432 0.0000 0.0000 0.0000
# 3 4.5611 23.6432 31.3418 0.0000 0.0000 0.0000
# 4 0.0000 0.0000 0.0000 22.2697 0.0000 0.0000
# 5 0.0000 0.0000 0.0000 0.0000 10.9314 0.0000
# 6 0.0000 0.0000 0.0000 0.0000 0.0000 14.5130
#
#
#
# Elastic Compliance Matrix: (Units=1/GPa)
#
#
# Indices 1 2 3 4 5 6 
#
# 1 0.022020 -0.004367 0.000090 0.000000 0.000000 0.000000
# 2 -0.004367 0.013826 -0.009794 0.000000 0.000000 0.000000
# 3 0.000090 -0.009794 0.039282 0.000000 0.000000 0.000000
# 4 0.000000 0.000000 0.000000 0.044904 0.000000 0.000000
# 5 0.000000 0.000000 0.000000 0.000000 0.091480 0.000000
# 6 0.000000 0.000000 0.000000 0.000000 0.000000 0.068904
#
#
# Mechanical properties :
#
#
# Convention : Reuss Voigt Hill
#
# Bulk Modulus (GPa) = 21.28358 29.92760 25.60559
# Shear Modulus (GPa) = 15.42161 18.10957 16.76559
#
# Velocity S-wave (km/s) = 3.00759 3.25918 3.13591
# Velocity P-wave (km/s) = 4.95427 5.63180 5.30387
#
# Compressibility (1/GPa) = 0.04698457
#
# Stress axis : x y z
#
# Youngs Moduli (GPa) = 45.41303 72.32635 25.45711
#
# Poissons Ratio (x) = 0.31588 -0.00230
# Poissons Ratio (y) = 0.19834 0.24934
# Poissons Ratio (z) = -0.00409 0.70840
#
# Static dielectric constant tensor:
#      x y z
#    x 1.551010 0.000000 0.000000 
#    y 0.000000 1.572460 0.000000 
#    z 0.000000 0.000000 1.590230 
# 
# From -- ./inp_files/36677.got.cif
#   From: 2010.05.17/outbox.cif.g08.bks.cpg/sg71_19_cif.got.tgz:36677.got - 2010.06.03 16:22:01.
