data_PCOD9519636
_publ_section_title
;
Structure prediction by ZEFSAII (Michael W. Deem and Ramdas Pophale) SiO2 
 PCOD9519636
Probable space group: I M M M
;
_chemical_formula_sum "Si O2"
_cell_formula_units_Z 104
_cell_length_a 7.496582
_cell_length_b 20.853943
_cell_length_c 32.316481
_cell_angle_alpha 90.000000
_cell_angle_beta 90.000000
_cell_angle_gamma 90.000000
_cell_volume 5052.141916
_symmetry_space_group_name_H-M "I M M M"
_symmetry_group_IT_number 71
_symmetry_cell_setting 'orthorhombic'
loop_
_space_group_symop_operation_xyz
x,y,z
-x,-y,z
x,-y,-z
-x,y,-z
-x,-y,-z
x,y,-z
-x,y,z
x,-y,z
1/2+x,1/2+y,1/2+z
1/2-x,1/2-y,1/2+z
1/2+x,1/2-y,1/2-z
1/2-x,1/2+y,1/2-z
1/2-x,1/2-y,1/2-z
1/2+x,1/2+y,1/2-z
1/2-x,1/2+y,1/2+z
1/2+x,1/2-y,1/2+z
loop_
_atom_site_type_symbol
_atom_site_label
_atom_site_fract_x
_atom_site_fract_y
_atom_site_fract_z
Si Si1 0.288114 0.929361 0.343120
Si Si2 0.792526 0.173513 0.275368
Si Si3 0.705333 0.194114 0.188418
Si Si4 0.782742 0.663521 0.402655
Si Si5 0.716009 0.712622 0.954451
Si Si6 0.204812 0.070968 0.562086
Si Si7 0.500000 0.577161 0.450208
O O1 0.500000 0.923329 0.349140
O O2 0.225777 0.878716 0.310344
O O3 0.204555 0.923905 0.388273
O O4 0.248057 0.000000 0.326965
O O5 0.711436 0.154448 0.231075
O O6 0.714039 0.238516 0.295641
O O7 0.000000 0.184497 0.266922
O O8 0.500000 0.208952 0.178076
O O9 0.772598 0.163723 0.145916
O O10 0.735229 0.734566 0.420451
O O11 0.671372 0.611650 0.428859
O O12 0.000000 0.654649 0.406711
O O13 0.500000 0.707711 0.951943
O O14 0.784428 0.639375 0.951234
O O15 0.763148 0.737762 0.000000
O O16 0.000000 0.069430 0.547452
O O17 0.282720 0.000000 0.551897
O O18 0.500000 0.500000 0.443252
O O19 0.500000 0.587697 0.500000
#
# Coordination Sequence:
#
# PCOD9519636 Si02
#       7
#    16  16  16  16  16  16   8
#     4  10  20  33  48  68 100 143 188 230 271 319
#     4  10  19  32  54  82 113 147 188 235 281 329
#     4   9  19  35  55  84 117 148 184 229 282 346
#     4  10  21  40  66  91 123 161 196 244 308 371
#     4   9  17  31  53  82 114 147 187 235 288 346
#     4   9  17  30  49  74 108 151 197 242 285 330
#     4  11  26  46  68  96 123 149 197 259 318 398
#
# _framework density 20.585326999999999
#
# number of rings (size 3 to 8) (size 9 to 14) (size 15 to 20)
#    0.000    2.385    0.000    2.308    1.077    5.538 
#    4.154    3.077    0.000    0.923    0.000    2.154 
#    0.000    0.000    0.000    0.000    0.000    0.000 
#
# Total GULP energy -289829.283169 kJ/mol
# GULP energy per Si atom -5573.640061 kJ/mol
# Density = 2.053847 g / cm^3
# Si number density = 20.585327 Si / 1000 Ang^3
#
#
#
# Elastic Constant Matrix: (Units=GPa)
#
#
# Indices 1 2 3 4 5 6 
#
# 1 79.9762 28.1994 26.3286 0.0000 0.0000 0.0000
# 2 28.1994 95.3378 56.5922 0.0000 0.0000 0.0000
# 3 26.3286 56.5922 149.2730 0.0000 0.0000 0.0000
# 4 0.0000 0.0000 0.0000 24.8480 0.0000 0.0000
# 5 0.0000 0.0000 0.0000 0.0000 4.2612 0.0000
# 6 0.0000 0.0000 0.0000 0.0000 0.0000 7.4601
#
#
#
# Elastic Compliance Matrix: (Units=1/GPa)
#
#
# Indices 1 2 3 4 5 6 
#
# 1 0.014116 -0.003481 -0.001170 0.000000 0.000000 0.000000
# 2 -0.003481 0.014393 -0.004843 0.000000 0.000000 0.000000
# 3 -0.001170 -0.004843 0.008742 0.000000 0.000000 0.000000
# 4 0.000000 0.000000 0.000000 0.040245 0.000000 0.000000
# 5 0.000000 0.000000 0.000000 0.000000 0.234676 0.000000
# 6 0.000000 0.000000 0.000000 0.000000 0.000000 0.134046
#
#
# Mechanical properties :
#
#
# Convention : Reuss Voigt Hill
#
# Bulk Modulus (GPa) = 54.75395 60.75861 57.75628
# Shear Modulus (GPa) = 10.60910 21.54498 16.07704
#
# Velocity S-wave (km/s) = 2.27264 3.23866 2.79766
# Velocity P-wave (km/s) = 5.79162 6.60036 6.20917
#
# Compressibility (1/GPa) = 0.01826352
#
# Stress axis : x y z
#
# Youngs Moduli (GPa) = 70.84035 69.47699 114.39633
#
# Poissons Ratio (x) = 0.24183 0.13387
# Poissons Ratio (y) = 0.24658 0.55400
# Poissons Ratio (z) = 0.08290 0.33646
#
# Static dielectric constant tensor:
#      x y z
#    x 1.800840 0.000000 0.000000 
#    y 0.000000 1.735180 0.000000 
#    z 0.000000 0.000000 1.746320 
# 
# From -- ./inp_files/68252.got.cif
#   From: 2010.05.17/outbox.cif.g08.bks.cpg/sg71_35_cif.got.tgz:68252.got - 2010.06.03 16:22:01.
