data_PCOD9519394
_publ_section_title
;
Structure prediction by ZEFSAII (Michael W. Deem and Ramdas Pophale) SiO2 
 PCOD9519394
Probable space group: I M M M
;
_chemical_formula_sum "Si O2"
_cell_formula_units_Z 88
_cell_length_a 26.988669
_cell_length_b 12.623570
_cell_length_c 13.360821
_cell_angle_alpha 90.000000
_cell_angle_beta 90.000000
_cell_angle_gamma 90.000000
_cell_volume 4551.942896
_symmetry_space_group_name_H-M "I M M M"
_symmetry_group_IT_number 71
_symmetry_cell_setting 'orthorhombic'
loop_
_space_group_symop_operation_xyz
x,y,z
-x,-y,z
x,-y,-z
-x,y,-z
-x,-y,-z
x,y,-z
-x,y,z
x,-y,z
1/2+x,1/2+y,1/2+z
1/2-x,1/2-y,1/2+z
1/2+x,1/2-y,1/2-z
1/2-x,1/2+y,1/2-z
1/2-x,1/2-y,1/2-z
1/2+x,1/2+y,1/2-z
1/2-x,1/2+y,1/2+z
1/2+x,1/2-y,1/2+z
loop_
_atom_site_type_symbol
_atom_site_label
_atom_site_fract_x
_atom_site_fract_y
_atom_site_fract_z
Si Si1 0.773427 0.119436 0.883298
Si Si2 0.000000 0.381935 0.620514
Si Si3 0.559375 0.380624 0.309515
Si Si4 0.334461 0.119277 0.188412
Si Si5 0.588369 0.724253 0.114768
Si Si6 0.136751 0.282438 0.886655
O O1 0.724616 0.134103 0.816848
O O2 0.816919 0.202820 0.869598
O O3 0.792475 0.000000 0.866024
O O4 0.757399 0.125475 0.000000
O O5 0.048012 0.313528 0.645078
O O6 0.000000 0.500000 0.663147
O O7 0.000000 0.390655 0.500000
O O8 0.500000 0.366270 0.310060
O O9 0.569864 0.500000 0.345871
O O10 0.579953 0.366505 0.196125
O O11 0.588155 0.289850 0.369917
O O12 0.360160 0.213510 0.126758
O O13 0.356456 0.131948 0.299721
O O14 0.344915 0.000000 0.149649
O O15 0.580202 0.692040 0.000000
O O16 0.138296 0.322571 0.000000
#
# Coordination Sequence:
#
# PCOD9519394 Si02
#       6
#    16   8  16  16  16  16
#     4   9  17  31  53  80 106 132 166 208 257 311
#     4   9  16  26  43  67  96 131 167 199 233 281
#     4  10  21  36  54  77 103 132 171 218 265 312
#     4  10  20  33  52  78 107 139 174 213 254 301
#     4  10  19  32  50  76 107 137 169 204 250 309
#     4  10  21  36  54  75 102 137 177 219 262 305
#
# _framework density 19.332404
#
# number of rings (size 3 to 8) (size 9 to 14) (size 15 to 20)
#    0.000    2.273    0.909    2.182    0.000    4.000 
#    0.000    1.818    0.000    0.000    0.000    7.636 
#    0.000    0.000    0.000    0.000    0.000    0.000 
#
# Total GULP energy -245368.018544 kJ/mol
# GULP energy per Si atom -5576.545876 kJ/mol
# Density = 1.928840 g / cm^3
# Si number density = 19.332404 Si / 1000 Ang^3
#
#
#
# Elastic Constant Matrix: (Units=GPa)
#
#
# Indices 1 2 3 4 5 6 
#
# 1 59.3160 9.1050 -2.9014 0.0000 0.0000 0.0000
# 2 9.1050 39.2079 -8.4513 0.0000 0.0000 0.0000
# 3 -2.9014 -8.4513 54.8960 0.0000 0.0000 0.0000
# 4 0.0000 0.0000 0.0000 13.9542 0.0000 0.0000
# 5 0.0000 0.0000 0.0000 0.0000 19.1813 0.0000
# 6 0.0000 0.0000 0.0000 0.0000 0.0000 18.1733
#
#
#
# Elastic Compliance Matrix: (Units=1/GPa)
#
#
# Indices 1 2 3 4 5 6 
#
# 1 0.017487 -0.003994 0.000309 0.000000 0.000000 0.000000
# 2 -0.003994 0.027293 0.003991 0.000000 0.000000 0.000000
# 3 0.000309 0.003991 0.018847 0.000000 0.000000 0.000000
# 4 0.000000 0.000000 0.000000 0.071663 0.000000 0.000000
# 5 0.000000 0.000000 0.000000 0.000000 0.052134 0.000000
# 6 0.000000 0.000000 0.000000 0.000000 0.000000 0.055026
#
#
# Mechanical properties :
#
#
# Convention : Reuss Voigt Hill
#
# Bulk Modulus (GPa) = 15.56702 16.54716 16.05709
# Shear Modulus (GPa) = 18.99328 20.63960 19.81644
#
# Velocity S-wave (km/s) = 3.13782 3.27099 3.20509
# Velocity P-wave (km/s) = 4.60409 4.77950 4.69262
#
# Compressibility (1/GPa) = 0.06423838
#
# Stress axis : x y z
#
# Youngs Moduli (GPa) = 57.18503 36.63968 53.05889
#
# Poissons Ratio (x) = 0.14635 -0.01641
# Poissons Ratio (y) = 0.22841 -0.21174
# Poissons Ratio (z) = -0.01769 -0.14622
#
# Static dielectric constant tensor:
#      x y z
#    x 1.686970 0.000000 0.000000 
#    y 0.000000 1.669980 0.000000 
#    z 0.000000 0.000000 1.684960 
# 
# From -- ./inp_files/22309.got.cif
#   From: 2010.05.17/outbox.cif.g08.bks.cpg/sg71_12_cif.got.tgz:22309.got - 2010.06.03 16:22:01.
