data_PCOD9519759
_publ_section_title
;
Structure prediction by ZEFSAII (Michael W. Deem and Ramdas Pophale) SiO2 
 PCOD9519759
Probable space group: I M M M
;
_chemical_formula_sum "Si O2"
_cell_formula_units_Z 88
_cell_length_a 25.805607
_cell_length_b 7.829432
_cell_length_c 25.720368
_cell_angle_alpha 90.000000
_cell_angle_beta 90.000000
_cell_angle_gamma 90.000000
_cell_volume 5196.626619
_symmetry_space_group_name_H-M "I M M M"
_symmetry_group_IT_number 71
_symmetry_cell_setting 'orthorhombic'
loop_
_space_group_symop_operation_xyz
x,y,z
-x,-y,z
x,-y,-z
-x,y,-z
-x,-y,-z
x,y,-z
-x,y,z
x,-y,z
1/2+x,1/2+y,1/2+z
1/2-x,1/2-y,1/2+z
1/2+x,1/2-y,1/2-z
1/2-x,1/2+y,1/2-z
1/2-x,1/2-y,1/2-z
1/2+x,1/2+y,1/2-z
1/2-x,1/2+y,1/2+z
1/2+x,1/2-y,1/2+z
loop_
_atom_site_type_symbol
_atom_site_label
_atom_site_fract_x
_atom_site_fract_y
_atom_site_fract_z
Si Si1 0.398601 0.195714 0.887025
Si Si2 0.941157 0.799430 0.275980
Si Si3 0.500000 0.306699 0.060947
Si Si4 0.833690 0.793881 0.244488
Si Si5 0.754806 0.794316 0.333916
Si Si6 0.293775 0.298675 0.941216
O O1 0.417350 0.282140 0.833745
O O2 0.449243 0.208674 0.922020
O O3 0.351712 0.280640 0.918186
O O4 0.384814 0.000000 0.876367
O O5 0.892809 0.728392 0.242505
O O6 0.000000 0.726960 0.273505
O O7 0.945900 0.000000 0.263907
O O8 0.500000 0.500000 0.084119
O O9 0.500000 0.323555 0.000000
O O10 0.801546 0.733041 0.295762
O O11 0.798140 0.748796 0.195487
O O12 0.835804 0.000000 0.248165
O O13 0.759959 0.728207 0.392876
O O14 0.759499 0.000000 0.335892
O O15 0.282201 0.500000 0.945418
O O16 0.289673 0.226646 0.000000
#
# Coordination Sequence:
#
# PCOD9519759 Si02
#       6
#    16  16   8  16  16  16
#     4  12  23  32  45  67  92 117 153 200 244 275
#     4  10  19  33  52  68  90 125 162 194 229 280
#     4  11  23  37  49  57  75 117 165 201 236 277
#     4   9  17  30  48  70  92 118 154 192 233 280
#     4   9  17  30  48  70  92 118 154 192 233 281
#     4  10  20  35  52  67  89 124 162 194 229 281
#
# _framework density 16.934061
#
# number of rings (size 3 to 8) (size 9 to 14) (size 15 to 20)
#    0.000    1.909    2.727    2.455    0.000    4.727 
#    0.000    0.000    0.000    0.000    0.000    0.000 
#    0.000    0.727    0.000    9.091    0.000    0.000 
#
# Total GULP energy -245183.200687 kJ/mol
# GULP energy per Si atom -5572.345470 kJ/mol
# Density = 1.689552 g / cm^3
# Si number density = 16.934061 Si / 1000 Ang^3
#
#
#
# Elastic Constant Matrix: (Units=GPa)
#
#
# Indices 1 2 3 4 5 6 
#
# 1 120.9077 0.4610 77.1468 0.0000 0.0000 0.0000
# 2 0.4610 29.3535 1.1101 0.0000 0.0000 0.0000
# 3 77.1468 1.1101 107.9854 0.0000 0.0000 0.0000
# 4 0.0000 0.0000 0.0000 13.3928 0.0000 0.0000
# 5 0.0000 0.0000 0.0000 0.0000 29.4274 0.0000
# 6 0.0000 0.0000 0.0000 0.0000 0.0000 20.4551
#
#
#
# Elastic Compliance Matrix: (Units=1/GPa)
#
#
# Indices 1 2 3 4 5 6 
#
# 1 0.015200 0.000172 -0.010861 0.000000 0.000000 0.000000
# 2 0.000172 0.034083 -0.000473 0.000000 0.000000 0.000000
# 3 -0.010861 -0.000473 0.017025 0.000000 0.000000 0.000000
# 4 0.000000 0.000000 0.000000 0.074667 0.000000 0.000000
# 5 0.000000 0.000000 0.000000 0.000000 0.033982 0.000000
# 6 0.000000 0.000000 0.000000 0.000000 0.000000 0.048888
#
#
# Mechanical properties :
#
#
# Convention : Reuss Voigt Hill
#
# Bulk Modulus (GPa) = 22.73605 46.18693 34.46149
# Shear Modulus (GPa) = 19.16958 24.62362 21.89660
#
# Velocity S-wave (km/s) = 3.36819 3.81739 3.59980
# Velocity P-wave (km/s) = 5.34618 6.83840 6.13781
#
# Compressibility (1/GPa) = 0.04398302
#
# Stress axis : x y z
#
# Youngs Moduli (GPa) = 65.78883 29.34037 58.73816
#
# Poissons Ratio (x) = -0.00505 0.63796
# Poissons Ratio (y) = -0.01132 0.02780
# Poissons Ratio (z) = 0.71454 0.01389
#
# Static dielectric constant tensor:
#      x y z
#    x 1.600410 0.000000 0.000000 
#    y 0.000000 1.644520 0.000000 
#    z 0.000000 0.000000 1.600570 
# 
# From -- ./inp_files/51045.got.cif
#   From: 2010.05.17/outbox.cif.g08.bks.cpg/sg71_26_cif.got.tgz:51045.got - 2010.06.03 16:22:01.
