data_PCOD9519197
_publ_section_title
;
Structure prediction by ZEFSAII (Michael W. Deem and Ramdas Pophale) SiO2 
 PCOD9519197
Probable space group: I M M M
;
_chemical_formula_sum "Si O2"
_cell_formula_units_Z 96
_cell_length_a 18.543054
_cell_length_b 26.529663
_cell_length_c 8.344226
_cell_angle_alpha 90.000000
_cell_angle_beta 90.000000
_cell_angle_gamma 90.000000
_cell_volume 4104.866662
_symmetry_space_group_name_H-M "I M M M"
_symmetry_group_IT_number 71
_symmetry_cell_setting 'orthorhombic'
loop_
_space_group_symop_operation_xyz
x,y,z
-x,-y,z
x,-y,-z
-x,y,-z
-x,-y,-z
x,y,-z
-x,y,z
x,-y,z
1/2+x,1/2+y,1/2+z
1/2-x,1/2-y,1/2+z
1/2+x,1/2-y,1/2-z
1/2-x,1/2+y,1/2-z
1/2-x,1/2-y,1/2-z
1/2+x,1/2+y,1/2-z
1/2-x,1/2+y,1/2+z
1/2+x,1/2-y,1/2+z
loop_
_atom_site_type_symbol
_atom_site_label
_atom_site_fract_x
_atom_site_fract_y
_atom_site_fract_z
Si Si1 0.724613 0.195295 0.692686
Si Si2 0.077574 0.270835 0.193029
Si Si3 0.269653 0.940764 0.322052
Si Si4 0.386082 0.555645 0.685949
Si Si5 0.920937 0.561527 0.689093
Si Si6 0.876533 0.838882 0.309630
O O1 0.721988 0.194122 0.500000
O O2 0.750000 0.250000 0.750000
O O3 0.643025 0.194788 0.754808
O O4 0.791294 0.160332 0.741656
O O5 0.091230 0.211784 0.232907
O O6 0.000000 0.285763 0.257983
O O7 0.076733 0.274670 0.000000
O O8 0.248566 0.921846 0.500000
O O9 0.200763 0.941109 0.206699
O O10 0.347043 0.919095 0.269856
O O11 0.284501 0.000000 0.338486
O O12 0.405540 0.556418 0.500000
O O13 0.407044 0.500000 0.752360
O O14 0.411558 0.607754 0.764518
O O15 0.917045 0.572642 0.500000
O O16 0.921455 0.500000 0.701887
O O17 0.000000 0.578530 0.751733
O O18 0.880168 0.832226 0.500000
#
# Coordination Sequence:
#
# PCOD9519197 Si02
#       6
#    16  16  16  16  16  16
#     4   8  15  28  47  74 105 136 169 204 249 305
#     4   9  17  31  53  80 110 142 173 205 246 305
#     4   9  16  25  38  57  80 106 143 196 253 301
#     4  10  20  33  49  68  92 127 173 221 266 313
#     4   8  13  21  33  49  70  97 129 168 220 283
#     4  10  19  31  50  76 107 140 174 216 262 308
#
# _framework density 23.386873999999999
#
# number of rings (size 3 to 8) (size 9 to 14) (size 15 to 20)
#    0.000    3.000    0.000    2.000    0.000    4.333 
#    0.000    1.667    0.000    1.500    0.000    5.833 
#    0.000    0.000    0.000    0.000    0.000    0.000 
#
# Total GULP energy -267514.624778 kJ/mol
# GULP energy per Si atom -5573.221350 kJ/mol
# Density = 2.333364 g / cm^3
# Si number density = 23.386874 Si / 1000 Ang^3
#
#
#
# Elastic Constant Matrix: (Units=GPa)
#
#
# Indices 1 2 3 4 5 6 
#
# 1 117.7351 0.2757 5.3730 0.0000 0.0000 0.0000
# 2 0.2757 119.5631 -5.7588 0.0000 0.0000 0.0000
# 3 5.3730 -5.7588 16.1655 0.0000 0.0000 0.0000
# 4 0.0000 0.0000 0.0000 6.2610 0.0000 0.0000
# 5 0.0000 0.0000 0.0000 0.0000 7.4609 0.0000
# 6 0.0000 0.0000 0.0000 0.0000 0.0000 -6.7318
#
#
#
# Elastic Compliance Matrix: (Units=1/GPa)
#
#
# Indices 1 2 3 4 5 6 
#
# 1 0.008627 -0.000161 -0.002925 0.000000 0.000000 0.000000
# 2 -0.000161 0.008513 0.003086 0.000000 0.000000 0.000000
# 3 -0.002925 0.003086 0.063932 0.000000 0.000000 0.000000
# 4 0.000000 0.000000 0.000000 0.159720 0.000000 0.000000
# 5 0.000000 0.000000 0.000000 0.000000 0.134031 0.000000
# 6 0.000000 0.000000 0.000000 0.000000 0.000000 -0.148550
#
#
# Mechanical properties :
#
#
# Convention : Reuss Voigt Hill
#
# Bulk Modulus (GPa) = 12.33457 28.13815 20.23636
# Shear Modulus (GPa) = 19.73967 18.30295 19.02131
#
# Velocity S-wave (km/s) = 2.90840 2.80056 2.85499
# Velocity P-wave (km/s) = 4.06989 4.74502 4.42037
#
# Compressibility (1/GPa) = 0.08107292
#
# Stress axis : x y z
#
# Youngs Moduli (GPa) = 115.90850 117.47021 15.64169
#
# Poissons Ratio (x) = 0.01889 0.04575
# Poissons Ratio (y) = 0.01863 -0.04827
# Poissons Ratio (z) = 0.33901 -0.36252
#
# Static dielectric constant tensor:
#      x y z
#    x 1.963400 0.000000 0.000000 
#    y 0.000000 1.949820 0.000000 
#    z 0.000000 0.000000 1.828320 
# 
# From -- ./inp_files/10945.got.cif
#   From: 2010.05.17/outbox.cif.g08.bks.cpg/sg71_6_cif.got.tgz:10945.got - 2010.06.03 16:22:01.
