data_PCOD9519444
_publ_section_title
;
Structure prediction by ZEFSAII (Michael W. Deem and Ramdas Pophale) SiO2 
 PCOD9519444
Probable space group: I M M M
;
_chemical_formula_sum "Si O2"
_cell_formula_units_Z 72
_cell_length_a 7.425208
_cell_length_b 15.884392
_cell_length_c 26.763288
_cell_angle_alpha 90.000000
_cell_angle_beta 90.000000
_cell_angle_gamma 90.000000
_cell_volume 3156.593716
_symmetry_space_group_name_H-M "I M M M"
_symmetry_group_IT_number 71
_symmetry_cell_setting 'orthorhombic'
loop_
_space_group_symop_operation_xyz
x,y,z
-x,-y,z
x,-y,-z
-x,y,-z
-x,-y,-z
x,y,-z
-x,y,z
x,-y,z
1/2+x,1/2+y,1/2+z
1/2-x,1/2-y,1/2+z
1/2+x,1/2-y,1/2-z
1/2-x,1/2+y,1/2-z
1/2-x,1/2-y,1/2-z
1/2+x,1/2+y,1/2-z
1/2-x,1/2+y,1/2+z
1/2+x,1/2-y,1/2+z
loop_
_atom_site_type_symbol
_atom_site_label
_atom_site_fract_x
_atom_site_fract_y
_atom_site_fract_z
Si Si1 0.779907 0.000000 0.243693
Si Si2 0.219770 0.000000 0.871167
Si Si3 0.779666 0.147386 0.944134
Si Si4 0.792430 0.677919 0.096205
Si Si5 0.286152 0.676658 0.210026
Si Si6 0.718926 0.000000 0.558710
O O1 0.721986 0.000000 0.186054
O O2 0.720526 0.914101 0.270350
O O3 0.000000 0.000000 0.244062
O O4 0.277895 0.918162 0.902000
O O5 0.000000 0.000000 0.870533
O O6 0.714605 0.241254 0.931740
O O7 0.000000 0.147883 0.942803
O O8 0.727582 0.121625 0.000000
O O9 0.789205 0.694941 0.155275
O O10 0.714333 0.586225 0.083934
O O11 0.000000 0.673841 0.079320
O O12 0.500000 0.670640 0.204157
O O13 0.250000 0.750000 0.250000
O O14 0.500000 0.000000 0.563725
O O15 0.761354 0.000000 0.500000
#
# Coordination Sequence:
#
# PCOD9519444 Si02
#       6
#     8   8  16  16  16   8
#     4   9  19  34  52  75 104 137 170 212 263 311
#     4   9  15  25  42  66  96 125 158 201 248 295
#     4   9  16  26  44  71 100 129 162 202 247 296
#     4  10  19  32  51  75 104 136 172 214 260 309
#     4  11  22  37  56  78 106 139 177 219 266 319
#     4   9  17  30  51  79 108 139 178 223 267 313
#
# _framework density 22.809398000000002
#
# number of rings (size 3 to 8) (size 9 to 14) (size 15 to 20)
#    0.000    2.333    0.000    3.667    0.000    7.556 
#    0.000    1.667    0.000    3.333    0.000    0.000 
#    0.000    3.556    0.000    0.000    0.000    0.000 
#
# Total GULP energy -201268.600418 kJ/mol
# GULP energy per Si atom -5590.794456 kJ/mol
# Density = 2.275748 g / cm^3
# Si number density = 22.809398 Si / 1000 Ang^3
#
#
#
# Elastic Constant Matrix: (Units=GPa)
#
#
# Indices 1 2 3 4 5 6 
#
# 1 76.0824 -0.4725 -15.4841 0.0000 0.0000 0.0000
# 2 -0.4725 94.7308 -10.1330 0.0000 0.0000 0.0000
# 3 -15.4841 -10.1330 59.6274 0.0000 0.0000 0.0000
# 4 0.0000 0.0000 0.0000 48.7548 0.0000 0.0000
# 5 0.0000 0.0000 0.0000 0.0000 5.3403 0.0000
# 6 0.0000 0.0000 0.0000 0.0000 0.0000 -6.4623
#
#
#
# Elastic Compliance Matrix: (Units=1/GPa)
#
#
# Indices 1 2 3 4 5 6 
#
# 1 0.013897 0.000464 0.003688 0.000000 0.000000 0.000000
# 2 0.000464 0.010767 0.001950 0.000000 0.000000 0.000000
# 3 0.003688 0.001950 0.018060 0.000000 0.000000 0.000000
# 4 0.000000 0.000000 0.000000 0.020511 0.000000 0.000000
# 5 0.000000 0.000000 0.000000 0.000000 0.187255 0.000000
# 6 0.000000 0.000000 0.000000 0.000000 0.000000 -0.154744
#
#
# Mechanical properties :
#
#
# Convention : Reuss Voigt Hill
#
# Bulk Modulus (GPa) = 18.20594 19.80680 19.00637
# Shear Modulus (GPa) = 49.09095 26.62857 37.85976
#
# Velocity S-wave (km/s) = 4.64424 3.42049 4.07852
# Velocity P-wave (km/s) = 6.06282 4.92972 5.52539
#
# Compressibility (1/GPa) = 0.05492712
#
# Stress axis : x y z
#
# Youngs Moduli (GPa) = 71.95786 92.87508 55.37155
#
# Poissons Ratio (x) = -0.04307 -0.20419
# Poissons Ratio (y) = -0.03337 -0.10799
# Poissons Ratio (z) = -0.26535 -0.18112
#
# Static dielectric constant tensor:
#      x y z
#    x 1.880080 0.000000 0.000000 
#    y 0.000000 1.826890 0.000000 
#    z 0.000000 0.000000 1.782370 
# 
# From -- ./inp_files/6187.got.cif
#   From: 2010.05.17/outbox.cif.g08.bks.cpg/sg71_4_cif.got.tgz:6187.got - 2010.06.03 16:22:01.
