data_PCOD9519329
_publ_section_title
;
Structure prediction by ZEFSAII (Michael W. Deem and Ramdas Pophale) SiO2 
 PCOD9519329
Probable space group: I M M M
;
_chemical_formula_sum "Si O2"
_cell_formula_units_Z 96
_cell_length_a 21.452379
_cell_length_b 31.571185
_cell_length_c 7.635357
_cell_angle_alpha 90.000000
_cell_angle_beta 90.000000
_cell_angle_gamma 90.000000
_cell_volume 5171.251882
_symmetry_space_group_name_H-M "I M M M"
_symmetry_group_IT_number 71
_symmetry_cell_setting 'orthorhombic'
loop_
_space_group_symop_operation_xyz
x,y,z
-x,-y,z
x,-y,-z
-x,y,-z
-x,-y,-z
x,y,-z
-x,y,z
x,-y,z
1/2+x,1/2+y,1/2+z
1/2-x,1/2-y,1/2+z
1/2+x,1/2-y,1/2-z
1/2-x,1/2+y,1/2-z
1/2-x,1/2-y,1/2-z
1/2+x,1/2+y,1/2-z
1/2-x,1/2+y,1/2+z
1/2+x,1/2-y,1/2+z
loop_
_atom_site_type_symbol
_atom_site_label
_atom_site_fract_x
_atom_site_fract_y
_atom_site_fract_z
Si Si1 0.251903 0.636545 0.290938
Si Si2 0.310417 0.278307 0.710730
Si Si3 0.432456 0.230434 0.709429
Si Si4 0.406197 0.954037 0.797393
Si Si5 0.761623 0.454495 0.791645
Si Si6 0.891655 0.636726 0.287923
O O1 0.248065 0.641555 0.500000
O O2 0.294718 0.674490 0.223303
O O3 0.272998 0.588658 0.254955
O O4 0.180387 0.640120 0.224758
O O5 0.316432 0.280317 0.500000
O O6 0.250000 0.250000 0.750000
O O7 0.372675 0.255773 0.780137
O O8 0.432866 0.236473 0.500000
O O9 0.500000 0.243958 0.778735
O O10 0.424149 0.180371 0.740819
O O11 0.330462 0.953072 0.793049
O O12 0.421689 0.907581 0.722967
O O13 0.424303 0.000000 0.719355
O O14 0.426339 0.954775 0.000000
O O15 0.733069 0.500000 0.742530
O O16 0.771439 0.454299 0.000000
O O17 0.890746 0.633637 0.500000
#
# Coordination Sequence:
#
# PCOD9519329 Si02
#       6
#    16  16  16  16  16  16
#     4   9  17  28  43  64  88 115 149 184 221 264
#     4  10  19  32  49  68  91 118 151 190 228 269
#     4  10  21  34  47  65  90 120 150 183 228 276
#     4   8  14  25  40  58  83 113 144 182 226 267
#     4   9  16  24  36  59  90 119 145 175 216 264
#     4   9  16  27  44  65  86 111 148 187 224 266
#
# _framework density 18.564171999999999
#
# number of rings (size 3 to 8) (size 9 to 14) (size 15 to 20)
#    0.000    2.833    1.667    1.500    0.000    4.667 
#    0.000    0.000    0.000    0.500    0.000    3.500 
#    0.000    0.667    0.000    8.333    0.000    1.500 
#
# Total GULP energy -267440.141610 kJ/mol
# GULP energy per Si atom -5571.669617 kJ/mol
# Density = 1.852192 g / cm^3
# Si number density = 18.564172 Si / 1000 Ang^3
#
#
#
# Elastic Constant Matrix: (Units=GPa)
#
#
# Indices 1 2 3 4 5 6 
#
# 1 98.4979 77.0565 7.4408 0.0000 0.0000 0.0000
# 2 77.0565 175.9986 1.2138 0.0000 0.0000 0.0000
# 3 7.4408 1.2138 37.2334 0.0000 0.0000 0.0000
# 4 0.0000 0.0000 0.0000 18.8245 0.0000 0.0000
# 5 0.0000 0.0000 0.0000 0.0000 2.8469 0.0000
# 6 0.0000 0.0000 0.0000 0.0000 0.0000 -3.3698
#
#
#
# Elastic Compliance Matrix: (Units=1/GPa)
#
#
# Indices 1 2 3 4 5 6 
#
# 1 0.015753 -0.006877 -0.002924 0.000000 0.000000 0.000000
# 2 -0.006877 0.008685 0.001091 0.000000 0.000000 0.000000
# 3 -0.002924 0.001091 0.027406 0.000000 0.000000 0.000000
# 4 0.000000 0.000000 0.000000 0.053122 0.000000 0.000000
# 5 0.000000 0.000000 0.000000 0.000000 0.351254 0.000000
# 6 0.000000 0.000000 0.000000 0.000000 0.000000 -0.296757
#
#
# Mechanical properties :
#
#
# Convention : Reuss Voigt Hill
#
# Bulk Modulus (GPa) = 29.04836 53.68356 41.36596
# Shear Modulus (GPa) = 26.54514 18.72826 22.63670
#
# Velocity S-wave (km/s) = 3.78552 3.17967 3.49574
# Velocity P-wave (km/s) = 5.89817 6.51621 6.21488
#
# Compressibility (1/GPa) = 0.03442535
#
# Stress axis : x y z
#
# Youngs Moduli (GPa) = 63.47826 115.13727 36.48783
#
# Poissons Ratio (x) = 0.79181 0.10669
# Poissons Ratio (y) = 0.43654 -0.03981
# Poissons Ratio (z) = 0.18561 -0.12563
#
# Static dielectric constant tensor:
#      x y z
#    x 1.634500 0.000000 0.000000 
#    y 0.000000 1.713770 0.000000 
#    z 0.000000 0.000000 1.706920 
# 
# From -- ./inp_files/13110.got.cif
#   From: 2010.05.17/outbox.cif.g08.bks.cpg/sg71_7_cif.got.tgz:13110.got - 2010.06.03 16:22:01.
