data_PCOD9519346
_publ_section_title
;
Structure prediction by ZEFSAII (Michael W. Deem and Ramdas Pophale) SiO2 
 PCOD9519346
Probable space group: I M M M
;
_chemical_formula_sum "Si O2"
_cell_formula_units_Z 104
_cell_length_a 25.038799
_cell_length_b 8.878419
_cell_length_c 23.840608
_cell_angle_alpha 90.000000
_cell_angle_beta 90.000000
_cell_angle_gamma 90.000000
_cell_volume 5299.885140
_symmetry_space_group_name_H-M "I M M M"
_symmetry_group_IT_number 71
_symmetry_cell_setting 'orthorhombic'
loop_
_space_group_symop_operation_xyz
x,y,z
-x,-y,z
x,-y,-z
-x,y,-z
-x,-y,-z
x,y,-z
-x,y,z
x,-y,z
1/2+x,1/2+y,1/2+z
1/2-x,1/2-y,1/2+z
1/2+x,1/2-y,1/2-z
1/2-x,1/2+y,1/2-z
1/2-x,1/2-y,1/2-z
1/2+x,1/2+y,1/2-z
1/2-x,1/2+y,1/2+z
1/2+x,1/2-y,1/2+z
loop_
_atom_site_type_symbol
_atom_site_label
_atom_site_fract_x
_atom_site_fract_y
_atom_site_fract_z
Si Si1 0.229669 0.179154 0.063451
Si Si2 0.410817 0.170066 0.273287
Si Si3 0.620337 0.681806 0.385869
Si Si4 0.561624 0.316533 0.500000
Si Si5 0.797370 0.329199 0.718765
Si Si6 0.165028 0.822772 0.606478
Si Si7 0.060452 0.680741 0.351544
O O1 0.182841 0.229897 0.106335
O O2 0.287607 0.254881 0.068814
O O3 0.236751 0.000000 0.070873
O O4 0.209286 0.202961 0.000000
O O5 0.411066 0.260267 0.331180
O O6 0.348194 0.161006 0.258792
O O7 0.434527 0.231251 0.214186
O O8 0.431845 0.000000 0.281315
O O9 0.621082 0.500000 0.383853
O O10 0.590571 0.730964 0.442748
O O11 0.563339 0.500000 0.500000
O O12 0.500000 0.269987 0.500000
O O13 0.784661 0.500000 0.699781
O O14 0.750000 0.250000 0.750000
O O15 0.813665 0.223990 0.667623
O O16 0.105650 0.751706 0.608720
O O17 0.161344 0.000000 0.598134
O O18 0.070027 0.500000 0.349788
O O19 0.000000 0.709247 0.370291
#
# Coordination Sequence:
#
# PCOD9519346 Si02
#       7
#    16  16  16   8  16  16  16
#     4  10  20  36  57  78 105 144 192 238 279 331
#     4   9  19  32  48  74 105 135 170 215 265 317
#     4  10  19  33  53  77 104 140 186 230 274 322
#     4   9  18  34  53  73 101 137 180 229 276 317
#     4  10  19  32  49  72 105 141 177 216 267 327
#     4  11  22  34  52  81 113 142 177 224 282 343
#     4   9  19  38  60  79 106 147 188 224 270 332
#
# _framework density 19.623066000000001
#
# number of rings (size 3 to 8) (size 9 to 14) (size 15 to 20)
#    0.000    2.231    0.769    3.692    0.000    7.385 
#    0.000    0.385    0.000    0.923    0.000    3.231 
#    0.000    0.000    0.000    0.000    0.000    0.000 
#
# Total GULP energy -289804.164824 kJ/mol
# GULP energy per Si atom -5573.157016 kJ/mol
# Density = 1.957840 g / cm^3
# Si number density = 19.623066 Si / 1000 Ang^3
#
#
#
# Elastic Constant Matrix: (Units=GPa)
#
#
# Indices 1 2 3 4 5 6 
#
# 1 106.2911 27.0210 -0.6032 0.0000 0.0000 0.0000
# 2 27.0210 36.3147 4.5130 0.0000 0.0000 0.0000
# 3 -0.6032 4.5130 37.9921 0.0000 0.0000 0.0000
# 4 0.0000 0.0000 0.0000 20.8434 0.0000 0.0000
# 5 0.0000 0.0000 0.0000 0.0000 23.0833 0.0000
# 6 0.0000 0.0000 0.0000 0.0000 0.0000 15.1970
#
#
#
# Elastic Compliance Matrix: (Units=1/GPa)
#
#
# Indices 1 2 3 4 5 6 
#
# 1 0.011660 -0.008829 0.001234 0.000000 0.000000 0.000000
# 2 -0.008829 0.034635 -0.004254 0.000000 0.000000 0.000000
# 3 0.001234 -0.004254 0.026846 0.000000 0.000000 0.000000
# 4 0.000000 0.000000 0.000000 0.047977 0.000000 0.000000
# 5 0.000000 0.000000 0.000000 0.000000 0.043321 0.000000
# 6 0.000000 0.000000 0.000000 0.000000 0.000000 0.065802
#
#
# Mechanical properties :
#
#
# Convention : Reuss Voigt Hill
#
# Bulk Modulus (GPa) = 20.22568 26.93992 23.58280
# Shear Modulus (GPa) = 18.48967 21.80256 20.14612
#
# Velocity S-wave (km/s) = 3.07293 3.33689 3.20762
# Velocity P-wave (km/s) = 4.78748 5.34836 5.07567
#
# Compressibility (1/GPa) = 0.04944210
#
# Stress axis : x y z
#
# Youngs Moduli (GPa) = 85.76616 28.87234 37.24915
#
# Poissons Ratio (x) = 0.25491 -0.04596
# Poissons Ratio (y) = 0.75723 0.15847
# Poissons Ratio (z) = -0.10583 0.12283
#
# Static dielectric constant tensor:
#      x y z
#    x 1.707920 0.000000 0.000000 
#    y 0.000000 1.686090 0.000000 
#    z 0.000000 0.000000 1.697310 
# 
# From -- ./inp_files/61946.got.cif
#   From: 2010.05.17/outbox.cif.g08.bks.cpg/sg71_31_cif.got.tgz:61946.got - 2010.06.03 16:22:01.
