data_PCOD9519045
_publ_section_title
;
Structure prediction by ZEFSAII (Michael W. Deem and Ramdas Pophale) SiO2 
 PCOD9519045
Probable space group: I M M M
;
_chemical_formula_sum "Si O2"
_cell_formula_units_Z 88
_cell_length_a 29.825490
_cell_length_b 14.156754
_cell_length_c 13.048336
_cell_angle_alpha 90.000000
_cell_angle_beta 90.000000
_cell_angle_gamma 90.000000
_cell_volume 5509.426635
_symmetry_space_group_name_H-M "I M M M"
_symmetry_group_IT_number 71
_symmetry_cell_setting 'orthorhombic'
loop_
_space_group_symop_operation_xyz
x,y,z
-x,-y,z
x,-y,-z
-x,y,-z
-x,-y,-z
x,y,-z
-x,y,z
x,-y,z
1/2+x,1/2+y,1/2+z
1/2-x,1/2-y,1/2+z
1/2+x,1/2-y,1/2-z
1/2-x,1/2+y,1/2-z
1/2-x,1/2-y,1/2-z
1/2+x,1/2+y,1/2-z
1/2-x,1/2+y,1/2+z
1/2+x,1/2-y,1/2+z
loop_
_atom_site_type_symbol
_atom_site_label
_atom_site_fract_x
_atom_site_fract_y
_atom_site_fract_z
Si Si1 0.894741 0.785758 0.182008
Si Si2 0.632232 0.611650 0.884141
Si Si3 0.235429 0.890283 0.682041
Si Si4 0.552340 0.613060 0.500000
Si Si5 0.552848 0.109584 0.622089
Si Si6 0.791264 0.212226 0.883739
O O1 0.892200 0.832274 0.293899
O O2 0.923588 0.846074 0.100792
O O3 0.916677 0.682605 0.182312
O O4 0.844001 0.781795 0.140260
O O5 0.622539 0.500000 0.873728
O O6 0.685887 0.621787 0.866772
O O7 0.621127 0.641368 0.000000
O O8 0.230016 0.858750 0.800579
O O9 0.269015 0.815019 0.632558
O O10 0.248342 0.000000 0.671582
O O11 0.555451 0.500000 0.500000
O O12 0.500000 0.640894 0.500000
O O13 0.560249 0.124612 0.500000
O O14 0.500000 0.125900 0.641060
O O15 0.562520 0.000000 0.644122
O O16 0.784285 0.180930 0.000000
#
# Coordination Sequence:
#
# PCOD9519045 Si02
#       6
#    16  16  16   8  16  16
#     4  11  19  32  51  77 104 132 166 213 260 305
#     4   9  18  33  52  73  98 135 177 210 247 302
#     4   9  19  33  49  69  98 137 172 206 250 296
#     4  11  22  34  51  77 107 135 162 202 263 325
#     4   9  17  30  49  72  99 131 164 198 246 309
#     4  10  19  31  47  74 103 129 168 212 254 301
#
# _framework density 15.972624
#
# number of rings (size 3 to 8) (size 9 to 14) (size 15 to 20)
#    0.000    2.273    1.818    2.182    0.000    2.909 
#    0.000    0.000    0.000    2.727    0.000    7.636 
#    0.000    0.000    0.000    0.000    0.000    0.000 
#
# Total GULP energy -245418.802778 kJ/mol
# GULP energy per Si atom -5577.700063 kJ/mol
# Density = 1.593627 g / cm^3
# Si number density = 15.972624 Si / 1000 Ang^3
#
#
#
# Elastic Constant Matrix: (Units=GPa)
#
#
# Indices 1 2 3 4 5 6 
#
# 1 56.2123 27.7212 32.1737 0.0000 0.0000 0.0000
# 2 27.7212 59.6753 31.1714 0.0000 0.0000 0.0000
# 3 32.1737 31.1714 125.1800 0.0000 0.0000 0.0000
# 4 0.0000 0.0000 0.0000 20.5470 0.0000 0.0000
# 5 0.0000 0.0000 0.0000 0.0000 21.9165 0.0000
# 6 0.0000 0.0000 0.0000 0.0000 0.0000 30.3331
#
#
#
# Elastic Compliance Matrix: (Units=1/GPa)
#
#
# Indices 1 2 3 4 5 6 
#
# 1 0.024716 -0.009384 -0.004016 0.000000 0.000000 0.000000
# 2 -0.009384 0.022826 -0.003272 0.000000 0.000000 0.000000
# 3 -0.004016 -0.003272 0.009835 0.000000 0.000000 0.000000
# 4 0.000000 0.000000 0.000000 0.048669 0.000000 0.000000
# 5 0.000000 0.000000 0.000000 0.000000 0.045628 0.000000
# 6 0.000000 0.000000 0.000000 0.000000 0.000000 0.032967
#
#
# Mechanical properties :
#
#
# Convention : Reuss Voigt Hill
#
# Bulk Modulus (GPa) = 41.60824 47.02224 44.31524
# Shear Modulus (GPa) = 22.12440 24.55940 23.34190
#
# Velocity S-wave (km/s) = 3.72579 3.92547 3.82693
# Velocity P-wave (km/s) = 6.67944 7.07453 6.87982
#
# Compressibility (1/GPa) = 0.02403370
#
# Stress axis : x y z
#
# Youngs Moduli (GPa) = 40.46010 43.81055 101.67336
#
# Poissons Ratio (x) = 0.41110 0.40830
# Poissons Ratio (y) = 0.37966 0.33268
# Poissons Ratio (z) = 0.16248 0.14335
#
# Static dielectric constant tensor:
#      x y z
#    x 1.519370 0.000000 0.000000 
#    y 0.000000 1.531820 0.000000 
#    z 0.000000 0.000000 1.526640 
# 
# From -- ./inp_files/28593.got.cif
#   From: 2010.05.17/outbox.cif.g08.bks.cpg/sg71_15_cif.got.tgz:28593.got - 2010.06.03 16:22:01.
