data_PCOD9519628
_publ_section_title
;
Structure prediction by ZEFSAII (Michael W. Deem and Ramdas Pophale) SiO2 
 PCOD9519628
Probable space group: I M M M
;
_chemical_formula_sum "Si O2"
_cell_formula_units_Z 120
_cell_length_a 23.551412
_cell_length_b 12.924921
_cell_length_c 22.448099
_cell_angle_alpha 90.000000
_cell_angle_beta 90.000000
_cell_angle_gamma 90.000000
_cell_volume 6833.204468
_symmetry_space_group_name_H-M "I M M M"
_symmetry_group_IT_number 71
_symmetry_cell_setting 'orthorhombic'
loop_
_space_group_symop_operation_xyz
x,y,z
-x,-y,z
x,-y,-z
-x,y,-z
-x,-y,-z
x,y,-z
-x,y,z
x,-y,z
1/2+x,1/2+y,1/2+z
1/2-x,1/2-y,1/2+z
1/2+x,1/2-y,1/2-z
1/2-x,1/2+y,1/2-z
1/2-x,1/2-y,1/2-z
1/2+x,1/2+y,1/2-z
1/2-x,1/2+y,1/2+z
1/2+x,1/2-y,1/2+z
loop_
_atom_site_type_symbol
_atom_site_label
_atom_site_fract_x
_atom_site_fract_y
_atom_site_fract_z
Si Si1 0.930810 0.500000 0.068456
Si Si2 0.239702 0.699567 0.066292
Si Si3 0.719442 0.115320 0.692767
Si Si4 0.330873 0.321482 0.740632
Si Si5 0.065774 0.271926 0.927710
Si Si6 0.165648 0.881674 0.893800
Si Si7 0.865335 0.877777 0.433100
Si Si8 0.935610 0.875215 0.316945
O O1 0.916167 0.387174 0.094337
O O2 0.000000 0.500000 0.066359
O O3 0.910389 0.500000 0.000000
O O4 0.216198 0.635529 0.122157
O O5 0.215707 0.814910 0.075904
O O6 0.307514 0.687570 0.070372
O O7 0.222592 0.663513 0.000000
O O8 0.684829 0.202848 0.727354
O O9 0.784811 0.132622 0.713400
O O10 0.701634 0.000000 0.707316
O O11 0.324876 0.377600 0.677231
O O12 0.392948 0.333546 0.767384
O O13 0.108457 0.183606 0.906553
O O14 0.000000 0.253419 0.910643
O O15 0.067452 0.274852 0.000000
O O16 0.162167 0.000000 0.914045
O O17 0.888893 0.866801 0.500000
O O18 0.908984 0.850067 0.381421
O O19 0.849783 0.000000 0.425691
O O20 0.000000 0.838660 0.310961
O O21 0.935542 0.000000 0.312182
#
# Coordination Sequence:
#
# PCOD9519628 Si02
#       8
#     8  16  16  16  16  16  16  16
#     4   7  12  28  52  72  92 122 166 218 264 316
#     4  10  20  33  52  80 110 142 177 220 274 323
#     4  10  19  35  59  79 103 141 181 223 271 319
#     4  10  21  36  53  78 108 140 184 226 260 317
#     4   9  18  34  54  74  99 137 181 225 277 329
#     4  11  23  36  50  75 113 148 183 228 270 318
#     4   9  17  31  51  77 112 144 174 220 273 328
#     4  10  19  32  54  81 110 145 180 217 266 325
#
# _framework density 17.561305999999998
#
# number of rings (size 3 to 8) (size 9 to 14) (size 15 to 20)
#    0.000    2.333    1.333    2.800    0.000    2.933 
#    6.000    2.000    0.000    0.400    0.000    0.000 
#    0.000    0.000    0.000    4.133    0.000    0.267 
#
# Total GULP energy -334662.212299 kJ/mol
# GULP energy per Si atom -5577.703538 kJ/mol
# Density = 1.752134 g / cm^3
# Si number density = 17.561306 Si / 1000 Ang^3
#
#
#
# Elastic Constant Matrix: (Units=GPa)
#
#
# Indices 1 2 3 4 5 6 
#
# 1 99.3164 28.5911 29.4577 0.0000 0.0000 0.0000
# 2 28.5911 101.8763 7.5045 0.0000 0.0000 0.0000
# 3 29.4577 7.5045 74.7891 0.0000 0.0000 0.0000
# 4 0.0000 0.0000 0.0000 4.0730 0.0000 0.0000
# 5 0.0000 0.0000 0.0000 0.0000 8.6227 0.0000
# 6 0.0000 0.0000 0.0000 0.0000 0.0000 21.2659
#
#
#
# Elastic Compliance Matrix: (Units=1/GPa)
#
#
# Indices 1 2 3 4 5 6 
#
# 1 0.012313 -0.003121 -0.004537 0.000000 0.000000 0.000000
# 2 -0.003121 0.010680 0.000158 0.000000 0.000000 0.000000
# 3 -0.004537 0.000158 0.015142 0.000000 0.000000 0.000000
# 4 0.000000 0.000000 0.000000 0.245521 0.000000 0.000000
# 5 0.000000 0.000000 0.000000 0.000000 0.115972 0.000000
# 6 0.000000 0.000000 0.000000 0.000000 0.000000 0.047024
#
#
# Mechanical properties :
#
#
# Convention : Reuss Voigt Hill
#
# Bulk Modulus (GPa) = 43.22509 45.23205 44.22857
# Shear Modulus (GPa) = 10.65271 20.82089 15.73680
#
# Velocity S-wave (km/s) = 2.46560 3.44701 2.99675
# Velocity P-wave (km/s) = 5.72476 6.45407 6.10032
#
# Compressibility (1/GPa) = 0.02313471
#
# Stress axis : x y z
#
# Youngs Moduli (GPa) = 81.21501 93.63111 66.04165
#
# Poissons Ratio (x) = 0.29226 0.29960
# Poissons Ratio (y) = 0.25351 -0.01042
# Poissons Ratio (z) = 0.36844 -0.01477
#
# Static dielectric constant tensor:
#      x y z
#    x 1.605760 0.000000 0.000000 
#    y 0.000000 1.596020 0.000000 
#    z 0.000000 0.000000 1.617650 
# 
# From -- ./inp_files/55825.got.cif
#   From: 2010.05.17/outbox.cif.g08.bks.cpg/sg71_28_cif.got.tgz:55825.got - 2010.06.03 16:22:01.
