data_PCOD9519509
_publ_section_title
;
Structure prediction by ZEFSAII (Michael W. Deem and Ramdas Pophale) SiO2 
 PCOD9519509
Probable space group: I M M M
;
_chemical_formula_sum "Si O2"
_cell_formula_units_Z 68
_cell_length_a 25.016129
_cell_length_b 12.661328
_cell_length_c 12.716503
_cell_angle_alpha 90.000000
_cell_angle_beta 90.000000
_cell_angle_gamma 90.000000
_cell_volume 4027.792282
_symmetry_space_group_name_H-M "I M M M"
_symmetry_group_IT_number 71
_symmetry_cell_setting 'orthorhombic'
loop_
_space_group_symop_operation_xyz
x,y,z
-x,-y,z
x,-y,-z
-x,y,-z
-x,-y,-z
x,y,-z
-x,y,z
x,-y,z
1/2+x,1/2+y,1/2+z
1/2-x,1/2-y,1/2+z
1/2+x,1/2-y,1/2-z
1/2-x,1/2+y,1/2-z
1/2-x,1/2-y,1/2-z
1/2+x,1/2+y,1/2-z
1/2-x,1/2+y,1/2+z
1/2+x,1/2-y,1/2+z
loop_
_atom_site_type_symbol
_atom_site_label
_atom_site_fract_x
_atom_site_fract_y
_atom_site_fract_z
Si Si1 0.095338 0.379129 0.875893
Si Si2 0.890534 0.000000 0.624428
Si Si3 0.000000 0.778016 0.126271
Si Si4 0.701873 0.664415 0.122374
Si Si5 0.500000 0.500000 0.254662
Si Si6 0.801796 0.617507 0.728369
O O1 0.074957 0.500000 0.863176
O O2 0.051577 0.292531 0.845270
O O3 0.148253 0.368571 0.806878
O O4 0.107543 0.365922 0.000000
O O5 0.852511 0.899048 0.647030
O O6 0.901899 0.000000 0.500000
O O7 0.945674 0.000000 0.686659
O O8 0.000000 0.892664 0.177629
O O9 0.000000 0.788673 0.000000
O O10 0.748671 0.626872 0.200180
O O11 0.696561 0.788719 0.144597
O O12 0.714929 0.643311 0.000000
O O13 0.804083 0.500000 0.682236
#
# Coordination Sequence:
#
# PCOD9519509 Si02
#       6
#    16   8   8  16   4  16
#     4   9  17  30  51  75  99 128 165 206 247 295
#     4  10  21  37  55  74  95 130 176 216 249 289
#     4  10  20  33  48  73 106 137 165 199 249 304
#     4  10  20  34  52  73 101 132 166 210 253 295
#     4  12  22  34  52  70 100 136 172 210 248 294
#     4  10  19  32  52  77 101 130 167 205 251 303
#
# _framework density 16.882697
#
# number of rings (size 3 to 8) (size 9 to 14) (size 15 to 20)
#    0.000    2.118    1.176    2.824    0.000    2.824 
#    0.000    0.000    0.000    1.412    0.000    0.000 
#    0.000   16.941    0.000    0.000    0.000    0.000 
#
# Total GULP energy -189637.840541 kJ/mol
# GULP energy per Si atom -5577.583545 kJ/mol
# Density = 1.684427 g / cm^3
# Si number density = 16.882697 Si / 1000 Ang^3
#
#
#
# Elastic Constant Matrix: (Units=GPa)
#
#
# Indices 1 2 3 4 5 6 
#
# 1 94.9993 39.5339 23.6555 0.0000 0.0000 0.0000
# 2 39.5339 118.4022 20.3318 0.0000 0.0000 0.0000
# 3 23.6555 20.3318 29.2860 0.0000 0.0000 0.0000
# 4 0.0000 0.0000 0.0000 23.8985 0.0000 0.0000
# 5 0.0000 0.0000 0.0000 0.0000 22.6186 0.0000
# 6 0.0000 0.0000 0.0000 0.0000 0.0000 14.2493
#
#
#
# Elastic Compliance Matrix: (Units=1/GPa)
#
#
# Indices 1 2 3 4 5 6 
#
# 1 0.014130 -0.003131 -0.009240 0.000000 0.000000 0.000000
# 2 -0.003131 0.010283 -0.004610 0.000000 0.000000 0.000000
# 3 -0.009240 -0.004610 0.044809 0.000000 0.000000 0.000000
# 4 0.000000 0.000000 0.000000 0.041844 0.000000 0.000000
# 5 0.000000 0.000000 0.000000 0.000000 0.044211 0.000000
# 6 0.000000 0.000000 0.000000 0.000000 0.000000 0.070179
#
#
# Mechanical properties :
#
#
# Convention : Reuss Voigt Hill
#
# Bulk Modulus (GPa) = 28.35957 45.52554 36.94255
# Shear Modulus (GPa) = 18.43852 22.76437 20.60144
#
# Velocity S-wave (km/s) = 3.30836 3.67602 3.49703
# Velocity P-wave (km/s) = 5.60608 6.71132 6.18344
#
# Compressibility (1/GPa) = 0.03526147
#
# Stress axis : x y z
#
# Youngs Moduli (GPa) = 70.77012 97.24884 22.31671
#
# Poissons Ratio (x) = 0.30453 0.20620
# Poissons Ratio (y) = 0.22161 0.10287
# Poissons Ratio (z) = 0.65389 0.44827
#
# Static dielectric constant tensor:
#      x y z
#    x 1.551350 0.000000 0.000000 
#    y 0.000000 1.586810 0.000000 
#    z 0.000000 0.000000 1.529670 
# 
# From -- ./inp_files/37534.got.cif
#   From: 2010.05.17/outbox.cif.g08.bks.cpg/sg71_19_cif.got.tgz:37534.got - 2010.06.03 16:22:01.
