data_PCOD9519193
_publ_section_title
;
Structure prediction by ZEFSAII (Michael W. Deem and Ramdas Pophale) SiO2 
 PCOD9519193
Probable space group: I M M M
;
_chemical_formula_sum "Si O2"
_cell_formula_units_Z 72
_cell_length_a 7.527270
_cell_length_b 13.777998
_cell_length_c 32.170947
_cell_angle_alpha 90.000000
_cell_angle_beta 90.000000
_cell_angle_gamma 90.000000
_cell_volume 3336.471787
_symmetry_space_group_name_H-M "I M M M"
_symmetry_group_IT_number 71
_symmetry_cell_setting 'orthorhombic'
loop_
_space_group_symop_operation_xyz
x,y,z
-x,-y,z
x,-y,-z
-x,y,-z
-x,-y,-z
x,y,-z
-x,y,z
x,-y,z
1/2+x,1/2+y,1/2+z
1/2-x,1/2-y,1/2+z
1/2+x,1/2-y,1/2-z
1/2-x,1/2+y,1/2-z
1/2-x,1/2-y,1/2-z
1/2+x,1/2+y,1/2-z
1/2-x,1/2+y,1/2+z
1/2+x,1/2-y,1/2+z
loop_
_atom_site_type_symbol
_atom_site_label
_atom_site_fract_x
_atom_site_fract_y
_atom_site_fract_z
Si Si1 0.783788 0.107841 0.048803
Si Si2 0.715757 0.608851 0.730434
Si Si3 0.295221 0.301928 0.816231
Si Si4 0.295269 0.803844 0.589722
Si Si5 0.782772 0.500000 0.048417
O O1 0.718494 0.200622 0.074680
O O2 0.000000 0.105207 0.051735
O O3 0.722127 0.000000 0.061924
O O4 0.740552 0.120675 0.000000
O O5 0.500000 0.614480 0.730268
O O6 0.768261 0.500000 0.719586
O O7 0.775966 0.636451 0.777162
O O8 0.782666 0.691111 0.699467
O O9 0.500000 0.329595 0.821837
O O10 0.207276 0.312455 0.860675
O O11 0.500000 0.801240 0.575425
O O12 0.217037 0.901203 0.569833
O O13 0.000000 0.500000 0.052133
O O14 0.739003 0.500000 0.000000
#
# Coordination Sequence:
#
# PCOD9519193 Si02
#       5
#    16  16  16  16   8
#     4   8  14  26  46  71  96 125 165 211 254 297
#     4   9  19  37  58  75  98 136 177 217 260 311
#     4  10  21  35  52  78 107 135 170 213 263 317
#     4  10  19  31  50  76 104 135 173 217 263 315
#     4   9  18  32  51  77 107 141 183 231 273 305
#
# _framework density 21.57968
#
# number of rings (size 3 to 8) (size 9 to 14) (size 15 to 20)
#    0.000    2.778    0.000    2.000    1.556    4.889 
#    0.000    2.222    0.000    3.333    0.000    1.556 
#    0.000    0.000    0.000    0.000    0.000    0.000 
#
# Total GULP energy -200919.987028 kJ/mol
# GULP energy per Si atom -5581.110751 kJ/mol
# Density = 2.153056 g / cm^3
# Si number density = 21.579680 Si / 1000 Ang^3
#
#
#
# Elastic Constant Matrix: (Units=GPa)
#
#
# Indices 1 2 3 4 5 6 
#
# 1 51.9383 3.0383 -5.6739 0.0000 0.0000 0.0000
# 2 3.0383 126.3868 59.9074 0.0000 0.0000 0.0000
# 3 -5.6739 59.9074 95.3900 0.0000 0.0000 0.0000
# 4 0.0000 0.0000 0.0000 3.5376 0.0000 0.0000
# 5 0.0000 0.0000 0.0000 0.0000 25.7320 0.0000
# 6 0.0000 0.0000 0.0000 0.0000 0.0000 1.4532
#
#
#
# Elastic Compliance Matrix: (Units=1/GPa)
#
#
# Indices 1 2 3 4 5 6 
#
# 1 0.019566 -0.001455 0.002078 0.000000 0.000000 0.000000
# 2 -0.001455 0.011374 -0.007230 0.000000 0.000000 0.000000
# 3 0.002078 -0.007230 0.015147 0.000000 0.000000 0.000000
# 4 0.000000 0.000000 0.000000 0.282679 0.000000 0.000000
# 5 0.000000 0.000000 0.000000 0.000000 0.038862 0.000000
# 6 0.000000 0.000000 0.000000 0.000000 0.000000 0.688140
#
#
# Mechanical properties :
#
#
# Convention : Reuss Voigt Hill
#
# Bulk Modulus (GPa) = 30.42047 43.13985 36.78016
# Shear Modulus (GPa) = 4.62988 20.57411 12.60200
#
# Velocity S-wave (km/s) = 1.46634 3.09107 2.41918
# Velocity P-wave (km/s) = 4.12241 5.72486 4.98840
#
# Compressibility (1/GPa) = 0.03287260
#
# Stress axis : x y z
#
# Youngs Moduli (GPa) = 51.10984 87.91878 66.01807
#
# Poissons Ratio (x) = 0.12794 -0.13716
# Poissons Ratio (y) = 0.07437 0.47730
# Poissons Ratio (z) = -0.10619 0.63564
#
# Static dielectric constant tensor:
#      x y z
#    x 1.829310 0.000000 0.000000 
#    y 0.000000 1.789320 0.000000 
#    z 0.000000 0.000000 1.720770 
# 
# From -- ./inp_files/14296.got.cif
#   From: 2010.05.17/outbox.cif.g08.bks.cpg/sg71_8_cif.got.tgz:14296.got - 2010.06.03 16:22:01.
