data_PCOD9519470
_publ_section_title
;
Structure prediction by ZEFSAII (Michael W. Deem and Ramdas Pophale) SiO2 
 PCOD9519470
Probable space group: I M M M
;
_chemical_formula_sum "Si O2"
_cell_formula_units_Z 72
_cell_length_a 31.644084
_cell_length_b 8.051410
_cell_length_c 13.921601
_cell_angle_alpha 90.000000
_cell_angle_beta 90.000000
_cell_angle_gamma 90.000000
_cell_volume 3546.938463
_symmetry_space_group_name_H-M "I M M M"
_symmetry_group_IT_number 71
_symmetry_cell_setting 'orthorhombic'
loop_
_space_group_symop_operation_xyz
x,y,z
-x,-y,z
x,-y,-z
-x,y,-z
-x,-y,-z
x,y,-z
-x,y,z
x,-y,z
1/2+x,1/2+y,1/2+z
1/2-x,1/2-y,1/2+z
1/2+x,1/2-y,1/2-z
1/2-x,1/2+y,1/2-z
1/2-x,1/2-y,1/2-z
1/2+x,1/2+y,1/2-z
1/2-x,1/2+y,1/2+z
1/2+x,1/2-y,1/2+z
loop_
_atom_site_type_symbol
_atom_site_label
_atom_site_fract_x
_atom_site_fract_y
_atom_site_fract_z
Si Si1 0.137752 0.798195 0.888487
Si Si2 0.550577 0.500000 0.111117
Si Si3 0.094907 0.315908 0.705284
Si Si4 0.822599 0.812710 0.615738
Si Si5 0.731825 0.307143 0.616987
O O1 0.104060 0.721033 0.816956
O O2 0.185202 0.744333 0.856997
O O3 0.136893 0.000000 0.882101
O O4 0.131675 0.754242 0.000000
O O5 0.500000 0.500000 0.113631
O O6 0.568002 0.666176 0.161062
O O7 0.565055 0.500000 0.000000
O O8 0.077182 0.500000 0.690419
O O9 0.141215 0.304151 0.656124
O O10 0.822394 0.800676 0.500000
O O11 0.774631 0.780976 0.649265
O O12 0.834740 0.000000 0.643497
O O13 0.731857 0.300632 0.500000
O O14 0.735044 0.500000 0.643854
#
# Coordination Sequence:
#
# PCOD9519470 Si02
#       5
#    16   8  16  16  16
#     4   9  18  36  60  86 126 175 219 263 308 354
#     4  11  26  50  75  99 129 157 192 252 321 391
#     4  12  24  39  65  97 126 163 208 255 311 379
#     4  10  19  32  51  78 120 168 212 263 315 364
#     4   8  15  28  48  77 115 164 217 264 307 351
#
# _framework density 20.299195999999998
#
# number of rings (size 3 to 8) (size 9 to 14) (size 15 to 20)
#    0.000    2.111    2.222    2.667    0.000    5.333 
#    0.000    3.333    0.000    1.333    0.000    1.556 
#    0.000    0.000    0.000    0.000    0.000    0.000 
#
# Total GULP energy -201184.458116 kJ/mol
# GULP energy per Si atom -5588.457170 kJ/mol
# Density = 2.025299 g / cm^3
# Si number density = 20.299196 Si / 1000 Ang^3
#
#
#
# Elastic Constant Matrix: (Units=GPa)
#
#
# Indices 1 2 3 4 5 6 
#
# 1 58.8920 38.4567 33.1865 0.0000 0.0000 0.0000
# 2 38.4567 113.0521 41.2456 0.0000 0.0000 0.0000
# 3 33.1865 41.2456 99.1260 0.0000 0.0000 0.0000
# 4 0.0000 0.0000 0.0000 16.6448 0.0000 0.0000
# 5 0.0000 0.0000 0.0000 0.0000 26.7165 0.0000
# 6 0.0000 0.0000 0.0000 0.0000 0.0000 17.9613
#
#
#
# Elastic Compliance Matrix: (Units=1/GPa)
#
#
# Indices 1 2 3 4 5 6 
#
# 1 0.024128 -0.006202 -0.005497 0.000000 0.000000 0.000000
# 2 -0.006202 0.012023 -0.002926 0.000000 0.000000 0.000000
# 3 -0.005497 -0.002926 0.013146 0.000000 0.000000 0.000000
# 4 0.000000 0.000000 0.000000 0.060079 0.000000 0.000000
# 5 0.000000 0.000000 0.000000 0.000000 0.037430 0.000000
# 6 0.000000 0.000000 0.000000 0.000000 0.000000 0.055675
#
#
# Mechanical properties :
#
#
# Convention : Reuss Voigt Hill
#
# Bulk Modulus (GPa) = 49.88516 55.20531 52.54524
# Shear Modulus (GPa) = 20.97194 22.80994 21.89094
#
# Velocity S-wave (km/s) = 3.21774 3.35578 3.28748
# Velocity P-wave (km/s) = 6.19947 6.50153 6.35229
#
# Compressibility (1/GPa) = 0.02004604
#
# Stress axis : x y z
#
# Youngs Moduli (GPa) = 41.44585 83.17546 76.06772
#
# Poissons Ratio (x) = 0.51585 0.41816
# Poissons Ratio (y) = 0.25704 0.22259
# Poissons Ratio (z) = 0.22784 0.24339
#
# Static dielectric constant tensor:
#      x y z
#    x 1.694890 0.000000 0.000000 
#    y 0.000000 1.716380 0.000000 
#    z 0.000000 0.000000 1.777110 
# 
# From -- ./inp_files/39952.got.cif
#   From: 2010.05.17/outbox.cif.g08.bks.cpg/sg71_20_cif.got.tgz:39952.got - 2010.06.03 16:22:01.
