data_PCOD9519999
_publ_section_title
;
Structure prediction by ZEFSAII (Michael W. Deem and Ramdas Pophale) SiO2 
 PCOD9519999
Probable space group: I M M M
;
_chemical_formula_sum "Si O2"
_cell_formula_units_Z 82
_cell_length_a 9.068956
_cell_length_b 25.428929
_cell_length_c 21.057494
_cell_angle_alpha 90.000000
_cell_angle_beta 90.000000
_cell_angle_gamma 90.000000
_cell_volume 4856.149515
_symmetry_space_group_name_H-M "I M M M"
_symmetry_group_IT_number 71
_symmetry_cell_setting 'orthorhombic'
loop_
_space_group_symop_operation_xyz
x,y,z
-x,-y,z
x,-y,-z
-x,y,-z
-x,-y,-z
x,y,-z
-x,y,z
x,-y,z
1/2+x,1/2+y,1/2+z
1/2-x,1/2-y,1/2+z
1/2+x,1/2-y,1/2-z
1/2-x,1/2+y,1/2-z
1/2-x,1/2-y,1/2-z
1/2+x,1/2+y,1/2-z
1/2-x,1/2+y,1/2+z
1/2+x,1/2-y,1/2+z
loop_
_atom_site_type_symbol
_atom_site_label
_atom_site_fract_x
_atom_site_fract_y
_atom_site_fract_z
Si Si1 0.832269 0.383970 0.867147
Si Si2 0.321904 0.384778 0.267720
Si Si3 0.825853 0.208658 0.429182
Si Si4 0.000000 0.000000 0.500000
Si Si5 0.241560 0.000000 0.386901
Si Si6 0.823164 0.281127 0.691306
Si Si7 0.670129 0.500000 0.262201
O O1 0.730167 0.376944 0.805042
O O2 0.767505 0.343971 0.918345
O O3 0.825777 0.444475 0.889106
O O4 0.000000 0.370256 0.850615
O O5 0.500000 0.381999 0.270718
O O6 0.246974 0.339004 0.307935
O O7 0.268319 0.443959 0.284311
O O8 0.800497 0.229700 0.500000
O O9 0.791165 0.249627 0.373414
O O10 0.000000 0.195435 0.423708
O O11 0.126198 0.000000 0.556364
O O12 0.175862 0.000000 0.314856
O O13 0.750000 0.250000 0.750000
O O14 0.000000 0.283334 0.699623
O O15 0.500000 0.500000 0.281411
#
# Coordination Sequence:
#
# PCOD9519999 Si02
#       7
#    16  16  16   2   8  16   8
#     4  11  22  36  52  74 105 137 176 230 281 316
#     4  10  19  33  57  81 106 138 176 218 264 328
#     4  10  23  39  56  74 102 143 187 221 262 325
#     4  12  24  36  54  72  88 156 194 232 258 342
#     4  10  23  34  50  71  97 134 187 227 266 308
#     4  11  21  35  55  81 108 139 178 226 274 321
#     4   8  16  33  51  75 103 127 167 215 262 307
#
# _framework density 16.885807
#
# number of rings (size 3 to 8) (size 9 to 14) (size 15 to 20)
#    0.000    1.756    2.439    2.049    4.098    1.171 
#    0.000    1.951    0.000    0.000    0.000    0.683 
#    0.000    5.463    0.000    0.000    0.000    0.000 
#
# Total GULP energy -228372.828503 kJ/mol
# GULP energy per Si atom -5570.068988 kJ/mol
# Density = 1.684737 g / cm^3
# Si number density = 16.885807 Si / 1000 Ang^3
#
#
#
# Elastic Constant Matrix: (Units=GPa)
#
#
# Indices 1 2 3 4 5 6 
#
# 1 68.4299 43.5006 37.8728 0.0000 0.0000 0.0000
# 2 43.5006 138.0505 55.5234 0.0000 0.0000 0.0000
# 3 37.8728 55.5234 79.0783 0.0000 0.0000 0.0000
# 4 0.0000 0.0000 0.0000 15.6349 0.0000 0.0000
# 5 0.0000 0.0000 0.0000 0.0000 16.2732 0.0000
# 6 0.0000 0.0000 0.0000 0.0000 0.0000 -14.4577
#
#
#
# Elastic Compliance Matrix: (Units=1/GPa)
#
#
# Indices 1 2 3 4 5 6 
#
# 1 0.021095 -0.003601 -0.007575 0.000000 0.000000 0.000000
# 2 -0.003601 0.010709 -0.005795 0.000000 0.000000 0.000000
# 3 -0.007575 -0.005795 0.020342 0.000000 0.000000 0.000000
# 4 0.000000 0.000000 0.000000 0.063959 0.000000 0.000000
# 5 0.000000 0.000000 0.000000 0.000000 0.061451 0.000000
# 6 0.000000 0.000000 0.000000 0.000000 0.000000 -0.069167
#
#
# Mechanical properties :
#
#
# Convention : Reuss Voigt Hill
#
# Bulk Modulus (GPa) = 54.92787 62.15026 58.53906
# Shear Modulus (GPa) = 33.69339 13.40086 23.54712
#
# Velocity S-wave (km/s) = 4.47180 2.82018 3.73834
# Velocity P-wave (km/s) = 7.69820 6.89135 7.30592
#
# Compressibility (1/GPa) = 0.01820570
#
# Stress axis : x y z
#
# Youngs Moduli (GPa) = 47.40546 93.38065 49.15924
#
# Poissons Ratio (x) = 0.33622 0.37237
# Poissons Ratio (y) = 0.17068 0.28486
# Poissons Ratio (z) = 0.35909 0.54111
#
# Static dielectric constant tensor:
#      x y z
#    x 1.574710 0.000000 0.000000 
#    y 0.000000 1.613270 0.000000 
#    z 0.000000 0.000000 1.550310 
# 
# From -- ./inp_files/50760.got.cif
#   From: 2010.05.17/outbox.cif.g08.bks.cpg/sg71_26_cif.got.tgz:50760.got - 2010.06.03 16:22:01.
