data_PCOD9519809
_publ_section_title
;
Structure prediction by ZEFSAII (Michael W. Deem and Ramdas Pophale) SiO2 
 PCOD9519809
Probable space group: I M M M
;
_chemical_formula_sum "Si O2"
_cell_formula_units_Z 88
_cell_length_a 20.659341
_cell_length_b 13.958808
_cell_length_c 12.530845
_cell_angle_alpha 90.000000
_cell_angle_beta 90.000000
_cell_angle_gamma 90.000000
_cell_volume 3613.642254
_symmetry_space_group_name_H-M "I M M M"
_symmetry_group_IT_number 71
_symmetry_cell_setting 'orthorhombic'
loop_
_space_group_symop_operation_xyz
x,y,z
-x,-y,z
x,-y,-z
-x,y,-z
-x,-y,-z
x,y,-z
-x,y,z
x,-y,z
1/2+x,1/2+y,1/2+z
1/2-x,1/2-y,1/2+z
1/2+x,1/2-y,1/2-z
1/2-x,1/2+y,1/2-z
1/2-x,1/2-y,1/2-z
1/2+x,1/2+y,1/2-z
1/2-x,1/2+y,1/2+z
1/2+x,1/2-y,1/2+z
loop_
_atom_site_type_symbol
_atom_site_label
_atom_site_fract_x
_atom_site_fract_y
_atom_site_fract_z
Si Si1 0.424966 0.385147 0.500000
Si Si2 0.177788 0.386644 0.389688
Si Si3 0.500000 0.727016 0.878681
Si Si4 0.000000 0.610929 0.195689
Si Si5 0.860991 0.608265 0.156233
Si Si6 0.818442 0.808205 0.158372
Si Si7 0.365052 0.385635 0.123321
O O1 0.426664 0.500000 0.500000
O O2 0.500000 0.351175 0.500000
O O3 0.381717 0.352167 0.600988
O O4 0.149408 0.347395 0.500000
O O5 0.181929 0.500000 0.397089
O O6 0.137023 0.373654 0.283885
O O7 0.250917 0.352204 0.376774
O O8 0.500000 0.808663 0.787861
O O9 0.436794 0.659499 0.868505
O O10 0.500000 0.766745 0.000000
O O11 0.935353 0.619076 0.125570
O O12 0.000000 0.500000 0.238280
O O13 0.838044 0.500000 0.134301
O O14 0.818645 0.697395 0.122933
O O15 0.824858 0.831496 0.284469
O O16 0.365180 0.500000 0.145921
O O17 0.342907 0.374196 0.000000
#
# Coordination Sequence:
#
# PCOD9519809 Si02
#       7
#     8  16   8   8  16  16  16
#     4  11  26  42  65 103 135 170 219 269 323 385
#     4  10  21  40  65  96 131 168 213 267 327 387
#     4  10  19  33  52  81 119 162 205 253 316 387
#     4  10  20  38  59  88 123 159 209 265 319 376
#     4  10  23  40  63  91 124 168 216 268 321 382
#     4  12  22  41  68  93 128 173 217 268 320 385
#     4  10  21  35  56  89 127 167 207 256 323 391
#
# _framework density 24.352162
#
# number of rings (size 3 to 8) (size 9 to 14) (size 15 to 20)
#    0.000    1.545    2.727    2.455    2.545    2.727 
#    0.000    2.273    0.000    0.545    0.000    0.000 
#    0.000    0.000    0.000    0.000    0.000    0.000 
#
# Total GULP energy -246048.192113 kJ/mol
# GULP energy per Si atom -5592.004366 kJ/mol
# Density = 2.429674 g / cm^3
# Si number density = 24.352162 Si / 1000 Ang^3
#
#
#
# Elastic Constant Matrix: (Units=GPa)
#
#
# Indices 1 2 3 4 5 6 
#
# 1 90.0378 -5.4186 25.1659 0.0000 0.0000 0.0000
# 2 -5.4186 135.2958 15.2754 0.0000 0.0000 0.0000
# 3 25.1659 15.2754 140.1351 0.0000 0.0000 0.0000
# 4 0.0000 0.0000 0.0000 5.6880 0.0000 0.0000
# 5 0.0000 0.0000 0.0000 0.0000 203.1146 0.0000
# 6 0.0000 0.0000 0.0000 0.0000 0.0000 37.1077
#
#
#
# Elastic Compliance Matrix: (Units=1/GPa)
#
#
# Indices 1 2 3 4 5 6 
#
# 1 0.011762 0.000718 -0.002191 0.000000 0.000000 0.000000
# 2 0.000718 0.007527 -0.000950 0.000000 0.000000 0.000000
# 3 -0.002191 -0.000950 0.007633 0.000000 0.000000 0.000000
# 4 0.000000 0.000000 0.000000 0.175810 0.000000 0.000000
# 5 0.000000 0.000000 0.000000 0.000000 0.004923 0.000000
# 6 0.000000 0.000000 0.000000 0.000000 0.000000 0.026949
#
#
# Mechanical properties :
#
#
# Convention : Reuss Voigt Hill
#
# Bulk Modulus (GPa) = 45.29263 48.39044 46.84154
# Shear Modulus (GPa) = 20.25880 71.21180 45.73530
#
# Velocity S-wave (km/s) = 2.88741 5.41350 4.33838
# Velocity P-wave (km/s) = 5.45487 7.68042 6.66125
#
# Compressibility (1/GPa) = 0.02207865
#
# Stress axis : x y z
#
# Youngs Moduli (GPa) = 85.01988 132.85176 131.01249
#
# Poissons Ratio (x) = -0.09544 0.28699
# Poissons Ratio (y) = -0.06108 0.12440
# Poissons Ratio (z) = 0.18624 0.12614
#
# Static dielectric constant tensor:
#      x y z
#    x 1.869080 0.000000 0.000000 
#    y 0.000000 1.934110 0.000000 
#    z 0.000000 0.000000 2.184220 
# 
# From -- ./inp_files/27235.got.cif
#   From: 2010.05.17/outbox.cif.g08.bks.cpg/sg71_14_cif.got.tgz:27235.got - 2010.06.03 16:22:01.
