data_PCOD9519319
_publ_section_title
;
Structure prediction by ZEFSAII (Michael W. Deem and Ramdas Pophale) SiO2 
 PCOD9519319
Probable space group: I M M M
;
_chemical_formula_sum "Si O2"
_cell_formula_units_Z 88
_cell_length_a 27.396484
_cell_length_b 20.970751
_cell_length_c 8.689504
_cell_angle_alpha 90.000000
_cell_angle_beta 90.000000
_cell_angle_gamma 90.000000
_cell_volume 4992.335932
_symmetry_space_group_name_H-M "I M M M"
_symmetry_group_IT_number 71
_symmetry_cell_setting 'orthorhombic'
loop_
_space_group_symop_operation_xyz
x,y,z
-x,-y,z
x,-y,-z
-x,y,-z
-x,-y,-z
x,y,-z
-x,y,z
x,-y,z
1/2+x,1/2+y,1/2+z
1/2-x,1/2-y,1/2+z
1/2+x,1/2-y,1/2-z
1/2-x,1/2+y,1/2-z
1/2-x,1/2-y,1/2-z
1/2+x,1/2+y,1/2-z
1/2-x,1/2+y,1/2+z
1/2+x,1/2-y,1/2+z
loop_
_atom_site_type_symbol
_atom_site_label
_atom_site_fract_x
_atom_site_fract_y
_atom_site_fract_z
Si Si1 0.281243 0.360631 0.814201
Si Si2 0.943905 0.865737 0.185157
Si Si3 0.820685 0.500000 0.683007
Si Si4 0.440622 0.500000 0.824448
Si Si5 0.286578 0.500000 0.181943
Si Si6 0.638364 0.267745 0.315592
Si Si7 0.671411 0.859675 0.816880
O O1 0.302334 0.430075 0.760645
O O2 0.314764 0.304507 0.751444
O O3 0.226254 0.354620 0.751228
O O4 0.280116 0.359467 0.000000
O O5 0.908559 0.808872 0.234499
O O6 0.000000 0.856748 0.237209
O O7 0.925829 0.934322 0.244672
O O8 0.944121 0.867853 0.000000
O O9 0.807254 0.500000 0.500000
O O10 0.771309 0.500000 0.782355
O O11 0.846004 0.432343 0.713295
O O12 0.500000 0.500000 0.821372
O O13 0.423819 0.500000 0.000000
O O14 0.295469 0.500000 0.000000
O O15 0.640921 0.268290 0.500000
O O16 0.639341 0.195729 0.256405
O O17 0.674012 0.850474 0.000000
#
# Coordination Sequence:
#
# PCOD9519319 Si02
#       7
#    16  16   8   8   8  16  16
#     4  10  19  32  48  68  97 130 162 196 234 276
#     4   9  19  36  54  70  93 127 164 200 239 285
#     4   8  16  30  49  69  89 118 154 189 226 274
#     4   9  17  30  51  76  98 122 157 202 245 282
#     4   8  16  29  45  64  88 123 162 196 228 263
#     4  11  22  33  47  70  96 124 159 196 238 284
#     4  10  19  33  51  71  96 125 157 193 233 278
#
# _framework density 17.627018
#
# number of rings (size 3 to 8) (size 9 to 14) (size 15 to 20)
#    0.000    2.455    0.000    2.455    0.000    4.727 
#    0.000    1.818    0.000    0.000    0.000    0.636 
#    0.000    5.091    0.000    0.000    0.000    0.000 
#
# Total GULP energy -245352.640733 kJ/mol
# GULP energy per Si atom -5576.196380 kJ/mol
# Density = 1.758690 g / cm^3
# Si number density = 17.627018 Si / 1000 Ang^3
#
#
#
# Elastic Constant Matrix: (Units=GPa)
#
#
# Indices 1 2 3 4 5 6 
#
# 1 55.5498 51.8334 18.8202 0.0000 0.0000 0.0000
# 2 51.8334 158.2234 33.8489 0.0000 0.0000 0.0000
# 3 18.8202 33.8489 35.7861 0.0000 0.0000 0.0000
# 4 0.0000 0.0000 0.0000 26.4513 0.0000 0.0000
# 5 0.0000 0.0000 0.0000 0.0000 10.7664 0.0000
# 6 0.0000 0.0000 0.0000 0.0000 0.0000 -49.8390
#
#
#
# Elastic Compliance Matrix: (Units=1/GPa)
#
#
# Indices 1 2 3 4 5 6 
#
# 1 0.027416 -0.007393 -0.007426 0.000000 0.000000 0.000000
# 2 -0.007393 0.009917 -0.005492 0.000000 0.000000 0.000000
# 3 -0.007426 -0.005492 0.037044 0.000000 0.000000 0.000000
# 4 0.000000 0.000000 0.000000 0.037805 0.000000 0.000000
# 5 0.000000 0.000000 0.000000 0.000000 0.092882 0.000000
# 6 0.000000 0.000000 0.000000 0.000000 0.000000 -0.020065
#
#
# Mechanical properties :
#
#
# Convention : Reuss Voigt Hill
#
# Bulk Modulus (GPa) = 29.62483 50.95159 40.28821
# Shear Modulus (GPa) = 21.10843 7.14620 14.12731
#
# Velocity S-wave (km/s) = 3.46425 2.01567 2.83407
# Velocity P-wave (km/s) = 5.73100 5.86390 5.79783
#
# Compressibility (1/GPa) = 0.03375546
#
# Stress axis : x y z
#
# Youngs Moduli (GPa) = 36.47528 100.83729 26.99500
#
# Poissons Ratio (x) = 0.74546 0.20046
# Poissons Ratio (y) = 0.26965 0.14826
# Poissons Ratio (z) = 0.27085 0.55382
#
# Static dielectric constant tensor:
#      x y z
#    x 1.587770 0.000000 0.000000 
#    y 0.000000 1.645440 0.000000 
#    z 0.000000 0.000000 1.596720 
# 
# From -- ./inp_files/16902.got.cif
#   From: 2010.05.17/outbox.cif.g08.bks.cpg/sg71_9_cif.got.tgz:16902.got - 2010.06.03 16:22:01.
