data_PCOD9519231
_publ_section_title
;
Structure prediction by ZEFSAII (Michael W. Deem and Ramdas Pophale) SiO2 
 PCOD9519231
Probable space group: I M M M
;
_chemical_formula_sum "Si O2"
_cell_formula_units_Z 88
_cell_length_a 27.871641
_cell_length_b 19.713394
_cell_length_c 7.750169
_cell_angle_alpha 90.000000
_cell_angle_beta 90.000000
_cell_angle_gamma 90.000000
_cell_volume 4258.288820
_symmetry_space_group_name_H-M "I M M M"
_symmetry_group_IT_number 71
_symmetry_cell_setting 'orthorhombic'
loop_
_space_group_symop_operation_xyz
x,y,z
-x,-y,z
x,-y,-z
-x,y,-z
-x,-y,-z
x,y,-z
-x,y,z
x,-y,z
1/2+x,1/2+y,1/2+z
1/2-x,1/2-y,1/2+z
1/2+x,1/2-y,1/2-z
1/2-x,1/2+y,1/2-z
1/2-x,1/2-y,1/2-z
1/2+x,1/2+y,1/2-z
1/2-x,1/2+y,1/2+z
1/2+x,1/2-y,1/2+z
loop_
_atom_site_type_symbol
_atom_site_label
_atom_site_fract_x
_atom_site_fract_y
_atom_site_fract_z
Si Si1 0.923908 0.682645 0.292660
Si Si2 0.185519 0.698924 0.291895
Si Si3 0.837895 0.150048 0.296127
Si Si4 0.052803 0.833559 0.199234
Si Si5 0.000000 0.575488 0.289087
Si Si6 0.251034 0.075033 0.202475
O O1 0.929250 0.691555 0.500000
O O2 0.868134 0.673126 0.258302
O O3 0.943184 0.751939 0.212447
O O4 0.954166 0.618645 0.236322
O O5 0.192592 0.704133 0.500000
O O6 0.182527 0.776968 0.227126
O O7 0.221758 0.641650 0.223928
O O8 0.829842 0.149857 0.500000
O O9 0.895274 0.143741 0.271014
O O10 0.805297 0.091546 0.217400
O O11 0.000000 0.852802 0.274264
O O12 0.052376 0.853988 0.000000
O O13 0.000000 0.500000 0.223476
O O14 0.000000 0.573244 0.500000
O O15 0.261791 0.000000 0.275193
O O16 0.264059 0.072769 0.000000
#
# Coordination Sequence:
#
# PCOD9519231 Si02
#       6
#    16  16  16  16   8  16
#     4   9  16  28  46  69  99 132 171 215 255 298
#     4   8  16  30  49  74 100 132 174 215 255 298
#     4  10  20  34  54  78 104 135 172 216 259 303
#     4  10  19  31  51  77 103 129 162 206 257 310
#     4   9  16  24  39  65  97 135 174 213 254 295
#     4  10  20  34  52  74 104 140 174 212 260 311
#
# _framework density 20.665579000000001
#
# number of rings (size 3 to 8) (size 9 to 14) (size 15 to 20)
#    0.000    2.636    0.909    2.727    0.000    2.182 
#    0.000    7.273    0.000    1.636    0.000    3.818 
#    0.000    0.000    0.000    0.000    0.000    0.000 
#
# Total GULP energy -245161.000880 kJ/mol
# GULP energy per Si atom -5571.840929 kJ/mol
# Density = 2.061854 g / cm^3
# Si number density = 20.665579 Si / 1000 Ang^3
#
#
#
# Elastic Constant Matrix: (Units=GPa)
#
#
# Indices 1 2 3 4 5 6 
#
# 1 89.6418 24.6795 3.1866 0.0000 0.0000 0.0000
# 2 24.6795 35.3839 4.2600 0.0000 0.0000 0.0000
# 3 3.1866 4.2600 31.9491 0.0000 0.0000 0.0000
# 4 0.0000 0.0000 0.0000 6.8373 0.0000 0.0000
# 5 0.0000 0.0000 0.0000 0.0000 16.7848 0.0000
# 6 0.0000 0.0000 0.0000 0.0000 0.0000 10.8022
#
#
#
# Elastic Compliance Matrix: (Units=1/GPa)
#
#
# Indices 1 2 3 4 5 6 
#
# 1 0.013807 -0.009619 -0.000095 0.000000 0.000000 0.000000
# 2 -0.009619 0.035423 -0.003764 0.000000 0.000000 0.000000
# 3 -0.000095 -0.003764 0.031811 0.000000 0.000000 0.000000
# 4 0.000000 0.000000 0.000000 0.146257 0.000000 0.000000
# 5 0.000000 0.000000 0.000000 0.000000 0.059578 0.000000
# 6 0.000000 0.000000 0.000000 0.000000 0.000000 0.092574
#
#
# Mechanical properties :
#
#
# Convention : Reuss Voigt Hill
#
# Bulk Modulus (GPa) = 18.48866 24.58077 21.53472
# Shear Modulus (GPa) = 11.78041 15.20810 13.49426
#
# Velocity S-wave (km/s) = 2.39016 2.71572 2.55812
# Velocity P-wave (km/s) = 4.07225 4.66410 4.37819
#
# Compressibility (1/GPa) = 0.05408721
#
# Stress axis : x y z
#
# Youngs Moduli (GPa) = 72.42692 28.22993 31.43559
#
# Poissons Ratio (x) = 0.27154 0.00297
# Poissons Ratio (y) = 0.69665 0.11832
# Poissons Ratio (z) = 0.00685 0.10625
#
# Static dielectric constant tensor:
#      x y z
#    x 1.762990 0.000000 0.000000 
#    y 0.000000 1.729960 0.000000 
#    z 0.000000 0.000000 1.775400 
# 
# From -- ./inp_files/16699.got.cif
#   From: 2010.05.17/outbox.cif.g08.bks.cpg/sg71_9_cif.got.tgz:16699.got - 2010.06.03 16:22:01.
