data_PCOD9519923
_publ_section_title
;
Structure prediction by ZEFSAII (Michael W. Deem and Ramdas Pophale) SiO2 
 PCOD9519923
Probable space group: I M M M
;
_chemical_formula_sum "Si O2"
_cell_formula_units_Z 112
_cell_length_a 26.557099
_cell_length_b 13.163066
_cell_length_c 15.101593
_cell_angle_alpha 90.000000
_cell_angle_beta 90.000000
_cell_angle_gamma 90.000000
_cell_volume 5279.106858
_symmetry_space_group_name_H-M "I M M M"
_symmetry_group_IT_number 71
_symmetry_cell_setting 'orthorhombic'
loop_
_space_group_symop_operation_xyz
x,y,z
-x,-y,z
x,-y,-z
-x,y,-z
-x,-y,-z
x,y,-z
-x,y,z
x,-y,z
1/2+x,1/2+y,1/2+z
1/2-x,1/2-y,1/2+z
1/2+x,1/2-y,1/2-z
1/2-x,1/2+y,1/2-z
1/2-x,1/2-y,1/2-z
1/2+x,1/2+y,1/2-z
1/2-x,1/2+y,1/2+z
1/2+x,1/2-y,1/2+z
loop_
_atom_site_type_symbol
_atom_site_label
_atom_site_fract_x
_atom_site_fract_y
_atom_site_fract_z
Si Si1 0.108321 0.888867 0.105908
Si Si2 0.898132 0.886890 0.395971
Si Si3 0.867897 0.391585 0.749458
Si Si4 0.300288 0.281103 0.171517
Si Si5 0.442456 0.178327 0.105037
Si Si6 0.274631 0.383429 0.343270
Si Si7 0.058228 0.681426 0.106311
O O1 0.167081 0.871369 0.128220
O O2 0.072401 0.797163 0.132865
O O3 0.094314 0.000000 0.141469
O O4 0.104874 0.892419 0.000000
O O5 0.908008 0.895810 0.500000
O O6 0.841986 0.842255 0.382802
O O7 0.934309 0.795911 0.365162
O O8 0.902805 0.000000 0.356790
O O9 0.841211 0.500000 0.750043
O O10 0.831161 0.297418 0.734215
O O11 0.905061 0.385078 0.665241
O O12 0.902220 0.381451 0.836331
O O13 0.274240 0.360444 0.237817
O O14 0.261698 0.206209 0.120898
O O15 0.500000 0.148157 0.117474
O O16 0.430567 0.171192 0.000000
O O17 0.260461 0.500000 0.364837
O O18 0.000000 0.658493 0.126743
O O19 0.064937 0.669797 0.000000
#
# Coordination Sequence:
#
# PCOD9519923 Si02
#       7
#    16  16  16  16  16  16  16
#     4   9  18  34  56  81 109 141 177 222 278 335
#     4   9  18  33  53  76 105 141 176 214 264 319
#     4  11  22  37  56  79 109 146 188 230 275 330
#     4  10  20  34  53  79 107 141 174 222 266 324
#     4   9  19  35  54  79 110 142 181 229 277 325
#     4  10  19  33  55  80 104 137 176 217 269 325
#     4  10  21  37  56  80 111 145 185 233 279 326
#
# _framework density 21.215710000000001
#
# number of rings (size 3 to 8) (size 9 to 14) (size 15 to 20)
#    0.000    2.286    1.429    1.286    0.000    2.857 
#    0.000    4.286    0.000    4.286    0.000    0.000 
#    0.000    0.000    0.000    0.000    0.000    0.000 
#
# Total GULP energy -312254.130375 kJ/mol
# GULP energy per Si atom -5575.966614 kJ/mol
# Density = 2.116742 g / cm^3
# Si number density = 21.215710 Si / 1000 Ang^3
#
#
#
# Elastic Constant Matrix: (Units=GPa)
#
#
# Indices 1 2 3 4 5 6 
#
# 1 37.3350 -12.8468 2.1310 0.0000 0.0000 0.0000
# 2 -12.8468 85.7845 5.6198 0.0000 0.0000 0.0000
# 3 2.1310 5.6198 41.0696 0.0000 0.0000 0.0000
# 4 0.0000 0.0000 0.0000 14.9570 0.0000 0.0000
# 5 0.0000 0.0000 0.0000 0.0000 26.4644 0.0000
# 6 0.0000 0.0000 0.0000 0.0000 0.0000 14.7424
#
#
#
# Elastic Compliance Matrix: (Units=1/GPa)
#
#
# Indices 1 2 3 4 5 6 
#
# 1 0.028414 0.004391 -0.002075 0.000000 0.000000 0.000000
# 2 0.004391 0.012441 -0.001930 0.000000 0.000000 0.000000
# 3 -0.002075 -0.001930 0.024721 0.000000 0.000000 0.000000
# 4 0.000000 0.000000 0.000000 0.066858 0.000000 0.000000
# 5 0.000000 0.000000 0.000000 0.000000 0.037787 0.000000
# 6 0.000000 0.000000 0.000000 0.000000 0.000000 0.067831
#
#
# Mechanical properties :
#
#
# Convention : Reuss Voigt Hill
#
# Bulk Modulus (GPa) = 15.07221 17.11077 16.09149
# Shear Modulus (GPa) = 19.27552 22.51845 20.89698
#
# Velocity S-wave (km/s) = 3.01749 3.26145 3.14184
# Velocity P-wave (km/s) = 4.38862 4.71863 4.55661
#
# Compressibility (1/GPa) = 0.06634728
#
# Stress axis : x y z
#
# Youngs Moduli (GPa) = 35.19400 80.37833 40.45192
#
# Poissons Ratio (x) = -0.35295 0.08394
# Poissons Ratio (y) = -0.15454 0.07808
# Poissons Ratio (z) = 0.07303 0.15515
#
# Static dielectric constant tensor:
#      x y z
#    x 1.756970 0.000000 0.000000 
#    y 0.000000 1.830250 0.000000 
#    z 0.000000 0.000000 1.757460 
# 
# From -- ./inp_files/30024.got.cif
#   From: 2010.05.17/outbox.cif.g08.bks.cpg/sg71_16_cif.got.tgz:30024.got - 2010.06.03 16:22:01.
