data_PCOD9519305
_publ_section_title
;
Structure prediction by ZEFSAII (Michael W. Deem and Ramdas Pophale) SiO2 
 PCOD9519305
Probable space group: I M M M
;
_chemical_formula_sum "Si O2"
_cell_formula_units_Z 96
_cell_length_a 14.881377
_cell_length_b 23.815326
_cell_length_c 14.675733
_cell_angle_alpha 90.000000
_cell_angle_beta 90.000000
_cell_angle_gamma 90.000000
_cell_volume 5201.150873
_symmetry_space_group_name_H-M "I M M M"
_symmetry_group_IT_number 71
_symmetry_cell_setting 'orthorhombic'
loop_
_space_group_symop_operation_xyz
x,y,z
-x,-y,z
x,-y,-z
-x,y,-z
-x,-y,-z
x,y,-z
-x,y,z
x,-y,z
1/2+x,1/2+y,1/2+z
1/2-x,1/2-y,1/2+z
1/2+x,1/2-y,1/2-z
1/2-x,1/2+y,1/2-z
1/2-x,1/2-y,1/2-z
1/2+x,1/2+y,1/2-z
1/2-x,1/2+y,1/2+z
1/2+x,1/2-y,1/2+z
loop_
_atom_site_type_symbol
_atom_site_label
_atom_site_fract_x
_atom_site_fract_y
_atom_site_fract_z
Si Si1 0.667882 0.000000 0.257111
Si Si2 0.172473 0.000000 0.391073
Si Si3 0.730264 0.315724 0.248810
Si Si4 0.391957 0.933405 0.000000
Si Si5 0.897064 0.614017 0.306301
Si Si6 0.103472 0.876930 0.390475
Si Si7 0.172754 0.000000 0.109353
Si Si8 0.396011 0.375849 0.392126
O O1 0.729742 0.000000 0.345824
O O2 0.608693 0.054984 0.245917
O O3 0.740453 0.000000 0.174153
O O4 0.123295 0.942048 0.364600
O O5 0.178025 0.000000 0.500000
O O6 0.750000 0.250000 0.250000
O O7 0.826416 0.345697 0.258911
O O8 0.674572 0.337892 0.161453
O O9 0.669482 0.337612 0.332772
O O10 0.363600 0.901352 0.908812
O O11 0.500000 0.931479 0.000000
O O12 0.371937 0.000000 0.000000
O O13 0.000000 0.634094 0.310087
O O14 0.112829 0.872334 0.500000
O O15 0.000000 0.863353 0.366978
O O16 0.121746 0.058244 0.128712
O O17 0.188640 0.000000 0.000000
O O18 0.380044 0.368386 0.500000
O O19 0.500000 0.363003 0.372871
#
# Coordination Sequence:
#
# PCOD9519305 Si02
#       8
#     8   8  16   8  16  16   8  16
#     4  12  19  32  58  86 118 162 189 235 292 358
#     4  10  19  35  63  95 120 146 185 242 316 371
#     4  12  26  41  60  82 116 163 210 253 289 338
#     4   9  18  32  56  90 123 153 185 226 286 359
#     4  11  23  38  58  87 123 160 198 242 293 352
#     4  10  21  40  66  94 121 149 190 248 311 366
#     4  10  19  31  59  96 129 151 176 220 296 376
#     4  10  21  38  62  92 124 154 186 232 297 371
#
# _framework density 18.457452
#
# number of rings (size 3 to 8) (size 9 to 14) (size 15 to 20)
#    0.000    1.417    4.167    1.250    2.333    4.000 
#    0.000    2.500    0.000    2.500    0.000    0.000 
#    0.000    0.000    0.000    0.000    0.000    0.000 
#
# Total GULP energy -268071.288090 kJ/mol
# GULP energy per Si atom -5584.818502 kJ/mol
# Density = 1.841544 g / cm^3
# Si number density = 18.457452 Si / 1000 Ang^3
#
#
#
# Elastic Constant Matrix: (Units=GPa)
#
#
# Indices 1 2 3 4 5 6 
#
# 1 117.4946 60.5763 42.8465 0.0001 0.0000 0.0000
# 2 60.5763 141.7282 42.2652 0.0002 0.0000 -0.0001
# 3 42.8465 42.2652 64.9221 0.0000 0.0000 -0.0001
# 4 0.0001 0.0002 0.0000 12.8187 0.0000 -0.0001
# 5 0.0000 0.0000 0.0000 0.0000 33.8993 0.0000
# 6 0.0000 -0.0001 -0.0001 -0.0001 0.0000 -2.0565
#
#
#
# Elastic Compliance Matrix: (Units=1/GPa)
#
#
# Indices 1 2 3 4 5 6 
#
# 1 0.012521 -0.003583 -0.005931 0.000000 0.000000 0.000000
# 2 -0.003583 0.009781 -0.004003 0.000000 0.000000 0.000000
# 3 -0.005931 -0.004003 0.021923 0.000000 0.000000 -0.000001
# 4 0.000000 0.000000 0.000000 0.078011 0.000000 -0.000003
# 5 0.000000 0.000000 0.000000 0.000000 0.029499 0.000000
# 6 0.000000 0.000000 -0.000001 -0.000003 0.000000 -0.486256
#
#
# Mechanical properties :
#
#
# Convention : Reuss Voigt Hill
#
# Bulk Modulus (GPa) = 58.16774 68.39122 63.27948
# Shear Modulus (GPa) = -16.56966 20.82941 2.12988
#
# Velocity S-wave (km/s) = -2.99945 3.36297 1.07538
# Velocity P-wave (km/s) = 4.42575 7.22588 5.99169
#
# Compressibility (1/GPa) = 0.01719166
#
# Stress axis : x y z
#
# Youngs Moduli (GPa) = 79.86496 102.24042 45.61369
#
# Poissons Ratio (x) = 0.36633 0.27053
# Poissons Ratio (y) = 0.28616 0.18258
# Poissons Ratio (z) = 0.47368 0.40925
#
# Static dielectric constant tensor:
#      x y z
#    x 1.640880 0.000000 0.000000 
#    y 0.000000 1.614050 0.000000 
#    z 0.000000 0.000000 1.665320 
# 
# From -- ./inp_files/34589.got.cif
#   From: 2010.05.17/outbox.cif.g08.bks.cpg/sg71_18_cif.got.tgz:34589.got - 2010.06.03 16:22:01.
