data_PCOD9519970
_publ_section_title
;
Structure prediction by ZEFSAII (Michael W. Deem and Ramdas Pophale) SiO2 
 PCOD9519970
Probable space group: I M M M
;
_chemical_formula_sum "Si O2"
_cell_formula_units_Z 96
_cell_length_a 16.476768
_cell_length_b 11.563147
_cell_length_c 25.852767
_cell_angle_alpha 90.000000
_cell_angle_beta 90.000000
_cell_angle_gamma 90.000000
_cell_volume 4925.554237
_symmetry_space_group_name_H-M "I M M M"
_symmetry_group_IT_number 71
_symmetry_cell_setting 'orthorhombic'
loop_
_space_group_symop_operation_xyz
x,y,z
-x,-y,z
x,-y,-z
-x,y,-z
-x,-y,-z
x,y,-z
-x,y,z
x,-y,z
1/2+x,1/2+y,1/2+z
1/2-x,1/2-y,1/2+z
1/2+x,1/2-y,1/2-z
1/2-x,1/2+y,1/2-z
1/2-x,1/2-y,1/2-z
1/2+x,1/2+y,1/2-z
1/2-x,1/2+y,1/2+z
1/2+x,1/2-y,1/2+z
loop_
_atom_site_type_symbol
_atom_site_label
_atom_site_fract_x
_atom_site_fract_y
_atom_site_fract_z
Si Si1 0.402322 0.000000 0.108149
Si Si2 0.826567 0.365231 0.000000
Si Si3 0.358362 0.637999 0.888628
Si Si4 0.736081 0.500000 0.439464
Si Si5 0.593809 0.806242 0.809285
Si Si6 0.598052 0.865530 0.695809
Si Si7 0.817271 0.753640 0.103049
Si Si8 0.871726 0.864421 0.500000
O O1 0.380449 0.107963 0.145051
O O2 0.500000 0.000000 0.095992
O O3 0.334800 0.000000 0.063777
O O4 0.855682 0.303734 0.051839
O O5 0.846066 0.500000 0.000000
O O6 0.727063 0.355645 0.000000
O O7 0.357606 0.500000 0.891186
O O8 0.398021 0.682246 0.835935
O O9 0.267532 0.686811 0.888053
O O10 0.397207 0.681974 0.943508
O O11 0.713198 0.500000 0.500000
O O12 0.702245 0.385827 0.411104
O O13 0.500000 0.835108 0.802131
O O14 0.630060 0.829026 0.752947
O O15 0.500000 0.862173 0.694897
O O16 0.630691 0.777297 0.653098
O O17 0.621909 0.000000 0.685720
O O18 0.893939 0.000000 0.500000
#
# Coordination Sequence:
#
# PCOD9519970 Si02
#       8
#     8   8  16   8  16  16  16   8
#     4  10  20  39  62  85 119 165 210 245 291 356
#     4   9  16  31  56  82 113 146 179 233 298 358
#     4  10  19  33  55  86 116 153 196 248 301 357
#     4  12  24  41  63  92 126 163 200 251 314 371
#     4  10  20  37  58  81 117 160 200 247 304 359
#     4  10  21  40  65  87 114 156 204 252 306 372
#     4  11  21  37  59  89 117 153 198 246 305 367
#     4   7  14  28  48  72 106 145 184 222 282 347
#
# _framework density 19.490193000000001
#
# number of rings (size 3 to 8) (size 9 to 14) (size 15 to 20)
#    0.000    2.000    3.333    2.500    0.000    1.167 
#    1.500    1.250    0.000    3.500    0.000    0.000 
#    0.000    0.667    0.000    0.000    0.000    0.000 
#
# Total GULP energy -267431.016587 kJ/mol
# GULP energy per Si atom -5571.479512 kJ/mol
# Density = 1.944583 g / cm^3
# Si number density = 19.490193 Si / 1000 Ang^3
#
#
#
# Elastic Constant Matrix: (Units=GPa)
#
#
# Indices 1 2 3 4 5 6 
#
# 1 22.9241 16.0273 25.2417 0.0000 0.0000 0.0000
# 2 16.0273 111.3495 50.9643 0.0000 0.0000 0.0000
# 3 25.2417 50.9643 118.2462 0.0000 0.0000 0.0000
# 4 0.0000 0.0000 0.0000 19.1669 0.0000 0.0000
# 5 0.0000 0.0000 0.0000 0.0000 41.5210 0.0000
# 6 0.0000 0.0000 0.0000 0.0000 0.0000 14.7951
#
#
#
# Elastic Compliance Matrix: (Units=1/GPa)
#
#
# Indices 1 2 3 4 5 6 
#
# 1 0.058007 -0.003341 -0.010943 0.000000 0.000000 0.000000
# 2 -0.003341 0.011380 -0.004192 0.000000 0.000000 0.000000
# 3 -0.010943 -0.004192 0.012599 0.000000 0.000000 0.000000
# 4 0.000000 0.000000 0.000000 0.052173 0.000000 0.000000
# 5 0.000000 0.000000 0.000000 0.000000 0.024084 0.000000
# 6 0.000000 0.000000 0.000000 0.000000 0.000000 0.067590
#
#
# Mechanical properties :
#
#
# Convention : Reuss Voigt Hill
#
# Bulk Modulus (GPa) = 22.20441 48.55406 35.37923
# Shear Modulus (GPa) = 17.99876 25.78236 21.89056
#
# Velocity S-wave (km/s) = 3.04217 3.64103 3.35499
# Velocity P-wave (km/s) = 4.87413 6.53010 5.76192
#
# Compressibility (1/GPa) = 0.04503610
#
# Stress axis : x y z
#
# Youngs Moduli (GPa) = 17.23926 87.87249 79.36854
#
# Poissons Ratio (x) = 0.29358 0.86850
# Poissons Ratio (y) = 0.05760 0.33269
# Poissons Ratio (z) = 0.18864 0.36833
#
# Static dielectric constant tensor:
#      x y z
#    x 1.700160 0.000000 0.000000 
#    y 0.000000 1.728070 0.000000 
#    z 0.000000 0.000000 1.751800 
# 
# From -- ./inp_files/60581.got.cif
#   From: 2010.05.17/outbox.cif.g08.bks.cpg/sg71_31_cif.got.tgz:60581.got - 2010.06.03 16:22:01.
