data_PCOD9519356
_publ_section_title
;
Structure prediction by ZEFSAII (Michael W. Deem and Ramdas Pophale) SiO2 
 PCOD9519356
Probable space group: I M M M
;
_chemical_formula_sum "Si O2"
_cell_formula_units_Z 120
_cell_length_a 28.569071
_cell_length_b 29.840961
_cell_length_c 8.960954
_cell_angle_alpha 90.000000
_cell_angle_beta 90.000000
_cell_angle_gamma 90.000000
_cell_volume 7639.468973
_symmetry_space_group_name_H-M "I M M M"
_symmetry_group_IT_number 71
_symmetry_cell_setting 'orthorhombic'
loop_
_space_group_symop_operation_xyz
x,y,z
-x,-y,z
x,-y,-z
-x,y,-z
-x,-y,-z
x,y,-z
-x,y,z
x,-y,z
1/2+x,1/2+y,1/2+z
1/2-x,1/2-y,1/2+z
1/2+x,1/2-y,1/2-z
1/2-x,1/2+y,1/2-z
1/2-x,1/2-y,1/2-z
1/2+x,1/2+y,1/2-z
1/2-x,1/2+y,1/2+z
1/2+x,1/2-y,1/2+z
loop_
_atom_site_type_symbol
_atom_site_label
_atom_site_fract_x
_atom_site_fract_y
_atom_site_fract_z
Si Si1 0.775428 0.054374 0.828230
Si Si2 0.056237 0.691667 0.177075
Si Si3 0.444619 0.621364 0.321827
Si Si4 0.589031 0.101209 0.821542
Si Si5 0.126784 0.946977 0.678172
Si Si6 0.677851 0.053646 0.322574
Si Si7 0.556806 0.284987 0.171827
Si Si8 0.000000 0.553701 0.174523
O O1 0.823338 0.067595 0.746868
O O2 0.728442 0.067530 0.741335
O O3 0.775425 0.000000 0.828886
O O4 0.774587 0.069495 0.000000
O O5 0.081800 0.651521 0.261630
O O6 0.070632 0.740009 0.241313
O O7 0.000000 0.686493 0.201238
O O8 0.064392 0.689251 0.000000
O O9 0.438933 0.622002 0.500000
O O10 0.500000 0.615343 0.289456
O O11 0.414198 0.582146 0.249957
O O12 0.429437 0.669141 0.253236
O O13 0.636592 0.079643 0.760062
O O14 0.545786 0.073100 0.753904
O O15 0.587720 0.100085 0.000000
O O16 0.127478 0.941540 0.500000
O O17 0.120496 0.000000 0.710535
O O18 0.675492 0.061173 0.500000
O O19 0.672355 0.000000 0.297349
O O20 0.500000 0.284869 0.171340
O O21 0.572509 0.284255 0.000000
O O22 0.000000 0.500000 0.180992
O O23 0.000000 0.567488 0.000000
#
# Coordination Sequence:
#
# PCOD9519356 Si02
#       8
#    16  16  16  16  16  16  16   8
#     4   9  17  31  51  73  96 123 160 206 250 290
#     4  10  19  32  50  69  94 126 162 203 249 298
#     4  10  20  33  49  72 103 137 172 205 242 289
#     4  12  23  33  48  70  96 126 164 206 250 299
#     4  10  20  33  50  73 102 136 171 205 244 289
#     4  10  20  34  51  70  95 127 163 204 250 298
#     4   9  17  30  49  71  96 125 161 204 248 290
#     4  11  23  37  49  63  91 131 169 203 246 303
#
# _framework density 15.707898
#
# number of rings (size 3 to 8) (size 9 to 14) (size 15 to 20)
#    0.000    1.933    0.667    4.200    0.000    8.533 
#    0.000    1.333    0.000    0.000    0.000    0.933 
#    0.000    0.000    0.000    0.000    0.000    0.000 
#
# Total GULP energy -334880.188075 kJ/mol
# GULP energy per Si atom -5581.336468 kJ/mol
# Density = 1.567215 g / cm^3
# Si number density = 15.707898 Si / 1000 Ang^3
#
#
#
# Elastic Constant Matrix: (Units=GPa)
#
#
# Indices 1 2 3 4 5 6 
#
# 1 97.7574 62.6039 73.1852 0.0000 0.0000 0.0000
# 2 62.6039 94.8297 75.1745 0.0000 0.0000 0.0000
# 3 73.1852 75.1745 140.1569 0.0000 0.0000 0.0000
# 4 0.0000 0.0000 0.0000 29.0251 0.0000 0.0000
# 5 0.0000 0.0000 0.0000 0.0000 28.8389 0.0000
# 6 0.0000 0.0000 0.0000 0.0000 0.0000 -3.0965
#
#
#
# Elastic Compliance Matrix: (Units=1/GPa)
#
#
# Indices 1 2 3 4 5 6 
#
# 1 0.020186 -0.008647 -0.005902 0.000000 0.000000 0.000000
# 2 -0.008647 0.022050 -0.007311 0.000000 0.000000 0.000000
# 3 -0.005902 -0.007311 0.014138 0.000000 0.000000 0.000000
# 4 0.000000 0.000000 0.000000 0.034453 0.000000 0.000000
# 5 0.000000 0.000000 0.000000 0.000000 0.034675 0.000000
# 6 0.000000 0.000000 0.000000 0.000000 0.000000 -0.322940
#
#
# Mechanical properties :
#
#
# Convention : Reuss Voigt Hill
#
# Bulk Modulus (GPa) = 79.03735 83.85236 81.44486
# Shear Modulus (GPa) = -33.44505 19.07219 -7.18643
#
# Velocity S-wave (km/s) = -4.61932 3.48829 -2.14126
# Velocity P-wave (km/s) = 4.68779 8.34999 6.77118
#
# Compressibility (1/GPa) = 0.01265225
#
# Stress axis : x y z
#
# Youngs Moduli (GPa) = 49.53981 45.35205 70.72930
#
# Poissons Ratio (x) = 0.39216 0.41747
# Poissons Ratio (y) = 0.42837 0.51713
# Poissons Ratio (z) = 0.29240 0.33159
#
# Static dielectric constant tensor:
#      x y z
#    x 1.500370 0.000000 0.000000 
#    y 0.000000 1.509800 0.000000 
#    z 0.000000 0.000000 1.522810 
# 
# From -- ./inp_files/15647.got.cif
#   From: 2010.05.17/outbox.cif.g08.bks.cpg/sg71_8_cif.got.tgz:15647.got - 2010.06.03 16:22:01.
