data_PCOD9519876
_publ_section_title
;
Structure prediction by ZEFSAII (Michael W. Deem and Ramdas Pophale) SiO2 
 PCOD9519876
Probable space group: I M M M
;
_chemical_formula_sum "Si O2"
_cell_formula_units_Z 104
_cell_length_a 11.827382
_cell_length_b 20.017367
_cell_length_c 26.487183
_cell_angle_alpha 90.000000
_cell_angle_beta 90.000000
_cell_angle_gamma 90.000000
_cell_volume 6270.921259
_symmetry_space_group_name_H-M "I M M M"
_symmetry_group_IT_number 71
_symmetry_cell_setting 'orthorhombic'
loop_
_space_group_symop_operation_xyz
x,y,z
-x,-y,z
x,-y,-z
-x,y,-z
-x,-y,-z
x,y,-z
-x,y,z
x,-y,z
1/2+x,1/2+y,1/2+z
1/2-x,1/2-y,1/2+z
1/2+x,1/2-y,1/2-z
1/2-x,1/2+y,1/2-z
1/2-x,1/2-y,1/2-z
1/2+x,1/2+y,1/2-z
1/2-x,1/2+y,1/2+z
1/2+x,1/2-y,1/2+z
loop_
_atom_site_type_symbol
_atom_site_label
_atom_site_fract_x
_atom_site_fract_y
_atom_site_fract_z
Si Si1 0.500000 0.575786 0.852960
Si Si2 0.135227 0.322984 0.840956
Si Si3 0.128857 0.000000 0.059978
Si Si4 0.630091 0.317831 0.297816
Si Si5 0.279460 0.421365 0.217845
Si Si6 0.248222 0.276386 0.056533
Si Si7 0.130730 0.142536 0.914543
Si Si8 0.500000 0.318479 0.942541
O O1 0.500000 0.500000 0.872291
O O2 0.389767 0.584125 0.818033
O O3 0.500000 0.626031 0.899377
O O4 0.170765 0.258772 0.806185
O O5 0.176572 0.390046 0.813948
O O6 0.191576 0.314681 0.896199
O O7 0.000000 0.318983 0.846327
O O8 0.181220 0.930289 0.076040
O O9 0.000000 0.000000 0.081408
O O10 0.121797 0.000000 0.000000
O O11 0.500000 0.315342 0.278857
O O12 0.697851 0.370680 0.264161
O O13 0.627784 0.344579 0.354991
O O14 0.266019 0.500000 0.231212
O O15 0.199596 0.201845 0.060319
O O16 0.383489 0.277922 0.062910
O O17 0.222607 0.303089 0.000000
O O18 0.000000 0.143976 0.933190
O O19 0.500000 0.346050 0.000000
#
# Coordination Sequence:
#
# PCOD9519876 Si02
#       8
#     8  16   8  16  16  16  16   8
#     4  10  20  35  54  80 101 131 174 212 259 313
#     4  10  21  36  54  78 106 139 176 214 259 313
#     4   9  16  26  42  69 105 141 173 212 261 306
#     4   9  18  32  51  76 103 133 176 217 259 303
#     4  11  21  34  55  78 105 139 173 216 262 316
#     4  10  19  33  54  78 105 135 171 214 262 312
#     4   9  18  30  48  76 106 137 174 220 259 311
#     4  10  20  35  56  79 104 132 169 219 266 309
#
# _framework density 16.584484
#
# number of rings (size 3 to 8) (size 9 to 14) (size 15 to 20)
#    0.000    2.231    2.308    2.308    1.077    2.308 
#    0.000    0.000    0.000    0.923    0.000    3.231 
#    0.000    0.000    0.000    0.000    0.000    0.000 
#
# Total GULP energy -289591.531417 kJ/mol
# GULP energy per Si atom -5569.067912 kJ/mol
# Density = 1.654674 g / cm^3
# Si number density = 16.584484 Si / 1000 Ang^3
#
#
#
# Elastic Constant Matrix: (Units=GPa)
#
#
# Indices 1 2 3 4 5 6 
#
# 1 67.5811 29.4123 34.8860 0.0000 0.0000 0.0000
# 2 29.4123 82.8658 37.6772 0.0000 0.0000 0.0000
# 3 34.8860 37.6772 72.1859 0.0000 0.0000 0.0000
# 4 0.0000 0.0000 0.0000 15.7915 0.0000 0.0000
# 5 0.0000 0.0000 0.0000 0.0000 19.3949 0.0000
# 6 0.0000 0.0000 0.0000 0.0000 0.0000 -8.4099
#
#
#
# Elastic Compliance Matrix: (Units=1/GPa)
#
#
# Indices 1 2 3 4 5 6 
#
# 1 0.020519 -0.003637 -0.008018 0.000000 0.000000 0.000000
# 2 -0.003637 0.016468 -0.006837 0.000000 0.000000 0.000000
# 3 -0.008018 -0.006837 0.021297 0.000000 0.000000 0.000000
# 4 0.000000 0.000000 0.000000 0.063325 0.000000 0.000000
# 5 0.000000 0.000000 0.000000 0.000000 0.051560 0.000000
# 6 0.000000 0.000000 0.000000 0.000000 0.000000 -0.118907
#
#
# Mechanical properties :
#
#
# Convention : Reuss Voigt Hill
#
# Bulk Modulus (GPa) = 46.95265 47.39819 47.17542
# Shear Modulus (GPa) = 50.84118 13.39912 32.12015
#
# Velocity S-wave (km/s) = 5.54278 2.84550 4.40564
# Velocity P-wave (km/s) = 8.32682 6.27994 7.37474
#
# Compressibility (1/GPa) = 0.02129805
#
# Stress axis : x y z
#
# Youngs Moduli (GPa) = 48.73533 60.72559 46.95570
#
# Poissons Ratio (x) = 0.22089 0.37648
# Poissons Ratio (y) = 0.17727 0.32105
# Poissons Ratio (z) = 0.39075 0.41520
#
# Static dielectric constant tensor:
#      x y z
#    x 1.557190 0.000000 0.000000 
#    y 0.000000 1.565510 0.000000 
#    z 0.000000 0.000000 1.563860 
# 
# From -- ./inp_files/24602.got.cif
#   From: 2010.05.17/outbox.cif.g08.bks.cpg/sg71_13_cif.got.tgz:24602.got - 2010.06.03 16:22:01.
