data_PCOD9519317
_publ_section_title
;
Structure prediction by ZEFSAII (Michael W. Deem and Ramdas Pophale) SiO2 
 PCOD9519317
Probable space group: I M M M
;
_chemical_formula_sum "Si O2"
_cell_formula_units_Z 104
_cell_length_a 27.494345
_cell_length_b 28.956584
_cell_length_c 7.998422
_cell_angle_alpha 90.000000
_cell_angle_beta 90.000000
_cell_angle_gamma 90.000000
_cell_volume 6367.882172
_symmetry_space_group_name_H-M "I M M M"
_symmetry_group_IT_number 71
_symmetry_cell_setting 'orthorhombic'
loop_
_space_group_symop_operation_xyz
x,y,z
-x,-y,z
x,-y,-z
-x,y,-z
-x,-y,-z
x,y,-z
-x,y,z
x,-y,z
1/2+x,1/2+y,1/2+z
1/2-x,1/2-y,1/2+z
1/2+x,1/2-y,1/2-z
1/2-x,1/2+y,1/2-z
1/2-x,1/2-y,1/2-z
1/2+x,1/2+y,1/2-z
1/2-x,1/2+y,1/2+z
1/2+x,1/2-y,1/2+z
loop_
_atom_site_type_symbol
_atom_site_label
_atom_site_fract_x
_atom_site_fract_y
_atom_site_fract_z
Si Si1 0.940921 0.694908 0.191383
Si Si2 0.441463 0.870381 0.000000
Si Si3 0.692288 0.553044 0.696277
Si Si4 0.097150 0.105622 0.302197
Si Si5 0.296966 0.056087 0.683552
Si Si6 0.138018 0.444317 0.500000
Si Si7 0.944043 0.799151 0.798486
Si Si8 0.500000 0.446585 0.204220
O O1 0.927383 0.658626 0.334004
O O2 0.927075 0.747258 0.241683
O O3 0.000000 0.695625 0.186040
O O4 0.924593 0.685289 0.000000
O O5 0.500000 0.875833 0.000000
O O6 0.413088 0.918372 0.000000
O O7 0.704266 0.551589 0.500000
O O8 0.681434 0.500000 0.750125
O O9 0.645509 0.584455 0.724093
O O10 0.740924 0.569901 0.787977
O O11 0.100318 0.097579 0.500000
O O12 0.088528 0.159546 0.268806
O O13 0.048731 0.079305 0.238510
O O14 0.313936 0.070942 0.500000
O O15 0.331270 0.069879 0.836134
O O16 0.296204 0.000000 0.687042
O O17 0.132955 0.500000 0.500000
O O18 0.000000 0.805260 0.738052
O O19 0.945137 0.801894 0.000000
O O20 0.500000 0.500000 0.254692
O O21 0.500000 0.445092 0.000000
#
# Coordination Sequence:
#
# PCOD9519317 Si02
#       8
#    16   8  16  16  16   8  16   8
#     4   8  16  31  50  73 102 136 172 215 254 286
#     4  10  20  33  54  84 112 146 173 197 232 292
#     4  10  19  32  48  67  95 128 169 222 270 309
#     4  11  20  28  42  66  93 127 170 216 266 322
#     4   9  17  32  54  76 100 132 171 217 258 291
#     4  10  20  35  54  82 116 141 170 202 237 287
#     4   9  17  30  46  64  93 127 165 219 269 307
#     4   9  18  30  37  51  89 135 173 209 255 319
#
# _framework density 16.331959999999999
#
# number of rings (size 3 to 8) (size 9 to 14) (size 15 to 20)
#    0.000    2.538    1.538    2.308    1.077    2.308 
#    0.000    0.000    0.000    1.846    0.000    5.385 
#    0.000    0.000    0.000    0.000    0.000    0.000 
#
# Total GULP energy -289837.990168 kJ/mol
# GULP energy per Si atom -5573.807503 kJ/mol
# Density = 1.629479 g / cm^3
# Si number density = 16.331960 Si / 1000 Ang^3
#
#
#
# Elastic Constant Matrix: (Units=GPa)
#
#
# Indices 1 2 3 4 5 6 
#
# 1 56.9869 33.2392 30.3509 0.0000 0.0000 0.0000
# 2 33.2392 60.1990 29.7846 0.0000 0.0000 0.0000
# 3 30.3509 29.7846 78.2452 0.0000 0.0000 0.0000
# 4 0.0000 0.0000 0.0000 12.2433 0.0000 0.0000
# 5 0.0000 0.0000 0.0000 0.0000 8.0293 0.0000
# 6 0.0000 0.0000 0.0000 0.0000 0.0000 6.0512
#
#
#
# Elastic Compliance Matrix: (Units=1/GPa)
#
#
# Indices 1 2 3 4 5 6 
#
# 1 0.028098 -0.012471 -0.006152 0.000000 0.000000 0.000000
# 2 -0.012471 0.026001 -0.005060 0.000000 0.000000 0.000000
# 3 -0.006152 -0.005060 0.017093 0.000000 0.000000 0.000000
# 4 0.000000 0.000000 0.000000 0.081677 0.000000 0.000000
# 5 0.000000 0.000000 0.000000 0.000000 0.124544 0.000000
# 6 0.000000 0.000000 0.000000 0.000000 0.000000 0.165257
#
#
# Mechanical properties :
#
#
# Convention : Reuss Voigt Hill
#
# Bulk Modulus (GPa) = 41.97059 42.46450 42.21754
# Shear Modulus (GPa) = 10.04061 12.06852 11.05457
#
# Velocity S-wave (km/s) = 2.48217 2.72132 2.60449
# Velocity P-wave (km/s) = 5.82830 5.99428 5.91187
#
# Compressibility (1/GPa) = 0.02382621
#
# Stress axis : x y z
#
# Youngs Moduli (GPa) = 35.58919 38.46014 58.50386
#
# Poissons Ratio (x) = 0.47963 0.35992
# Poissons Ratio (y) = 0.44382 0.29604
# Poissons Ratio (z) = 0.21895 0.19461
#
# Static dielectric constant tensor:
#      x y z
#    x 1.524440 0.000000 0.000000 
#    y 0.000000 1.534800 0.000000 
#    z 0.000000 0.000000 1.584060 
# 
# From -- ./inp_files/13351.got.cif
#   From: 2010.05.17/outbox.cif.g08.bks.cpg/sg71_7_cif.got.tgz:13351.got - 2010.06.03 16:22:01.
