data_PCOD9519079
_publ_section_title
;
Structure prediction by ZEFSAII (Michael W. Deem and Ramdas Pophale) SiO2 
 PCOD9519079
Probable space group: I M M M
;
_chemical_formula_sum "Si O2"
_cell_formula_units_Z 100
_cell_length_a 7.473254
_cell_length_b 25.956816
_cell_length_c 28.926509
_cell_angle_alpha 90.000000
_cell_angle_beta 90.000000
_cell_angle_gamma 90.000000
_cell_volume 5611.218569
_symmetry_space_group_name_H-M "I M M M"
_symmetry_group_IT_number 71
_symmetry_cell_setting 'orthorhombic'
loop_
_space_group_symop_operation_xyz
x,y,z
-x,-y,z
x,-y,-z
-x,y,-z
-x,-y,-z
x,y,-z
-x,y,z
x,-y,z
1/2+x,1/2+y,1/2+z
1/2-x,1/2-y,1/2+z
1/2+x,1/2-y,1/2-z
1/2-x,1/2+y,1/2-z
1/2-x,1/2-y,1/2-z
1/2+x,1/2+y,1/2-z
1/2-x,1/2+y,1/2+z
1/2+x,1/2-y,1/2+z
loop_
_atom_site_type_symbol
_atom_site_label
_atom_site_fract_x
_atom_site_fract_y
_atom_site_fract_z
Si Si1 0.282527 0.863353 0.449081
Si Si2 0.283720 0.942372 0.627633
Si Si3 0.209060 0.246991 0.326687
Si Si4 0.500000 0.794211 0.000000
Si Si5 0.794111 0.245102 0.068189
Si Si6 0.292262 0.556707 0.764871
Si Si7 0.217298 0.831178 0.250910
O O1 0.225309 0.881083 0.500000
O O2 0.500000 0.865021 0.448035
O O3 0.218868 0.899073 0.407514
O O4 0.233765 0.803791 0.443058
O O5 0.500000 0.939344 0.630454
O O6 0.214254 0.937176 0.679598
O O7 0.237937 0.000000 0.611064
O O8 0.290732 0.258563 0.376289
O O9 0.279610 0.197306 0.298104
O O10 0.230973 0.294520 0.291425
O O11 0.000000 0.237978 0.335002
O O12 0.657583 0.790440 0.959457
O O13 0.000000 0.238819 0.053349
O O14 0.500000 0.554902 0.750652
O O15 0.213609 0.500000 0.754192
O O16 0.216110 0.610379 0.746118
O O17 0.000000 0.832189 0.252892
#
# Coordination Sequence:
#
# PCOD9519079 Si02
#       7
#    16  16  16   4  16  16  16
#     4   9  17  29  43  60  82 113 153 195 247 297
#     4   9  17  28  42  60  82 111 152 200 247 295
#     4  10  19  31  48  72 100 131 168 208 255 304
#     4  12  22  36  52  74  97 126 175 202 246 310
#     4  11  21  35  52  71  98 129 162 210 252 297
#     4   9  17  30  46  64  88 120 158 199 244 294
#     4   9  18  31  47  70  98 130 167 207 253 308
#
# _framework density 17.821441
#
# number of rings (size 3 to 8) (size 9 to 14) (size 15 to 20)
#    0.000    2.400    1.600    1.680    0.000    1.600 
#    1.440    1.600    0.000    0.000    0.000    2.800 
#    0.000    0.000    0.000    1.440    0.000   12.240 
#
# Total GULP energy -278384.611620 kJ/mol
# GULP energy per Si atom -5567.692232 kJ/mol
# Density = 1.778088 g / cm^3
# Si number density = 17.821441 Si / 1000 Ang^3
#
#
#
# Elastic Constant Matrix: (Units=GPa)
#
#
# Indices 1 2 3 4 5 6 
#
# 1 74.9073 1.3948 9.6043 0.0000 0.0000 0.0000
# 2 1.3948 72.8017 9.2183 0.0000 0.0000 0.0000
# 3 9.6043 9.2183 73.7103 0.0000 0.0000 0.0000
# 4 0.0000 0.0000 0.0000 28.7325 0.0000 0.0000
# 5 0.0000 0.0000 0.0000 0.0000 19.0789 0.0000
# 6 0.0000 0.0000 0.0000 0.0000 0.0000 -0.4047
#
#
#
# Elastic Compliance Matrix: (Units=1/GPa)
#
#
# Indices 1 2 3 4 5 6 
#
# 1 0.013577 -0.000037 -0.001764 0.000000 0.000000 0.000000
# 2 -0.000037 0.013957 -0.001741 0.000000 0.000000 0.000000
# 3 -0.001764 -0.001741 0.014014 0.000000 0.000000 0.000000
# 4 0.000000 0.000000 0.000000 0.034804 0.000000 0.000000
# 5 0.000000 0.000000 0.000000 0.000000 0.052414 0.000000
# 6 0.000000 0.000000 0.000000 0.000000 0.000000 -2.470935
#
#
# Mechanical properties :
#
#
# Convention : Reuss Voigt Hill
#
# Bulk Modulus (GPa) = 29.01551 29.09492 29.05521
# Shear Modulus (GPa) = -2.15184 22.89480 10.37148
#
# Velocity S-wave (km/s) = -1.10003 3.58813 2.41502
# Velocity P-wave (km/s) = 3.83447 5.79029 4.91073
#
# Compressibility (1/GPa) = 0.03446433
#
# Stress axis : x y z
#
# Youngs Moduli (GPa) = 73.65540 71.64831 71.35610
#
# Poissons Ratio (x) = 0.00263 0.12590
# Poissons Ratio (y) = 0.00270 0.12421
# Poissons Ratio (z) = 0.12996 0.12472
#
# Static dielectric constant tensor:
#      x y z
#    x 1.669600 0.000000 0.000000 
#    y 0.000000 1.624810 0.000000 
#    z 0.000000 0.000000 1.596300 
# 
# From -- ./inp_files/17447.got.cif
#   From: 2010.05.17/outbox.cif.g08.bks.cpg/sg71_9_cif.got.tgz:17447.got - 2010.06.03 16:22:01.
