data_PCOD9519900
_publ_section_title
;
Structure prediction by ZEFSAII (Michael W. Deem and Ramdas Pophale) SiO2 
 PCOD9519900
Probable space group: I M M M
;
_chemical_formula_sum "Si O2"
_cell_formula_units_Z 104
_cell_length_a 22.302577
_cell_length_b 28.415998
_cell_length_c 8.656096
_cell_angle_alpha 90.000000
_cell_angle_beta 90.000000
_cell_angle_gamma 90.000000
_cell_volume 5485.800697
_symmetry_space_group_name_H-M "I M M M"
_symmetry_group_IT_number 71
_symmetry_cell_setting 'orthorhombic'
loop_
_space_group_symop_operation_xyz
x,y,z
-x,-y,z
x,-y,-z
-x,y,-z
-x,-y,-z
x,y,-z
-x,y,z
x,-y,z
1/2+x,1/2+y,1/2+z
1/2-x,1/2-y,1/2+z
1/2+x,1/2-y,1/2-z
1/2-x,1/2+y,1/2-z
1/2-x,1/2-y,1/2-z
1/2+x,1/2+y,1/2-z
1/2-x,1/2+y,1/2+z
1/2+x,1/2-y,1/2+z
loop_
_atom_site_type_symbol
_atom_site_label
_atom_site_fract_x
_atom_site_fract_y
_atom_site_fract_z
Si Si1 0.069731 0.810469 0.315200
Si Si2 0.770350 0.445258 0.688702
Si Si3 0.500000 0.052752 0.811276
Si Si4 0.171852 0.124758 0.182180
Si Si5 0.256770 0.800280 0.674278
Si Si6 0.601849 0.791328 0.326130
Si Si7 0.611824 0.112533 0.185024
O O1 0.072885 0.807214 0.500000
O O2 0.112803 0.852933 0.260031
O O3 0.091368 0.760094 0.246153
O O4 0.000000 0.817532 0.270487
O O5 0.771041 0.444832 0.500000
O O6 0.778066 0.500000 0.735820
O O7 0.705793 0.422916 0.735726
O O8 0.824548 0.410290 0.740766
O O9 0.439281 0.077131 0.761511
O O10 0.500000 0.000000 0.758402
O O11 0.500000 0.053880 0.000000
O O12 0.223080 0.163442 0.216922
O O13 0.160329 0.121279 0.000000
O O14 0.231523 0.803139 0.500000
O O15 0.250000 0.750000 0.750000
O O16 0.327770 0.804275 0.664325
O O17 0.577234 0.790989 0.500000
O O18 0.583732 0.836604 0.228635
O O19 0.617771 0.113080 0.000000
#
# Coordination Sequence:
#
# PCOD9519900 Si02
#       7
#    16  16   8  16  16  16  16
#     4  11  25  42  60  81 110 150 193 235 282 343
#     4   9  18  33  56  85 114 145 185 237 290 335
#     4   9  18  32  53  79 105 145 201 249 282 321
#     4  11  21  35  58  86 115 147 185 233 290 344
#     4  11  21  33  53  80 112 148 184 223 270 324
#     4  11  23  36  53  80 115 150 186 227 276 332
#     4  10  19  33  54  80 114 152 195 240 281 329
#
# _framework density 18.958034000000001
#
# number of rings (size 3 to 8) (size 9 to 14) (size 15 to 20)
#    0.000    1.615    3.077    2.308    1.077    4.308 
#    0.000    0.000    0.000    6.462    0.000    3.231 
#    0.000    0.000    0.000    0.000    0.000    0.000 
#
# Total GULP energy -289629.303693 kJ/mol
# GULP energy per Si atom -5569.794302 kJ/mol
# Density = 1.891489 g / cm^3
# Si number density = 18.958034 Si / 1000 Ang^3
#
#
#
# Elastic Constant Matrix: (Units=GPa)
#
#
# Indices 1 2 3 4 5 6 
#
# 1 112.5548 34.3821 18.0900 0.0000 0.0000 0.0000
# 2 34.3821 89.3648 14.2499 0.0000 0.0000 0.0000
# 3 18.0900 14.2499 29.6250 0.0000 0.0000 0.0000
# 4 0.0000 0.0000 0.0000 17.7032 0.0000 0.0000
# 5 0.0000 0.0000 0.0000 0.0000 18.8004 0.0000
# 6 0.0000 0.0000 0.0000 0.0000 0.0000 29.2016
#
#
#
# Elastic Compliance Matrix: (Units=1/GPa)
#
#
# Indices 1 2 3 4 5 6 
#
# 1 0.010693 -0.003328 -0.004929 0.000000 0.000000 0.000000
# 2 -0.003328 0.013156 -0.004296 0.000000 0.000000 0.000000
# 3 -0.004929 -0.004296 0.038831 0.000000 0.000000 0.000000
# 4 0.000000 0.000000 0.000000 0.056487 0.000000 0.000000
# 5 0.000000 0.000000 0.000000 0.000000 0.053190 0.000000
# 6 0.000000 0.000000 0.000000 0.000000 0.000000 0.034245
#
#
# Mechanical properties :
#
#
# Convention : Reuss Voigt Hill
#
# Bulk Modulus (GPa) = 26.61357 40.55430 33.58394
# Shear Modulus (GPa) = 20.47229 24.12921 22.30075
#
# Velocity S-wave (km/s) = 3.28971 3.57146 3.43348
# Velocity P-wave (km/s) = 5.33837 6.20042 5.78547
#
# Compressibility (1/GPa) = 0.03757482
#
# Stress axis : x y z
#
# Youngs Moduli (GPa) = 93.51549 76.01350 25.75246
#
# Poissons Ratio (x) = 0.25299 0.12693
# Poissons Ratio (y) = 0.31124 0.11062
# Poissons Ratio (z) = 0.46092 0.32652
#
# Static dielectric constant tensor:
#      x y z
#    x 1.576560 0.000000 0.000000 
#    y 0.000000 1.814090 0.000000 
#    z 0.000000 0.000000 1.662050 
# 
# From -- ./inp_files/13256.got.cif
#   From: 2010.05.17/outbox.cif.g08.bks.cpg/sg71_7_cif.got.tgz:13256.got - 2010.06.03 16:22:01.
