data_PCOD9519765
_publ_section_title
;
Structure prediction by ZEFSAII (Michael W. Deem and Ramdas Pophale) SiO2 
 PCOD9519765
Probable space group: I M M M
;
_chemical_formula_sum "Si O2"
_cell_formula_units_Z 112
_cell_length_a 10.713373
_cell_length_b 41.890496
_cell_length_c 14.464876
_cell_angle_alpha 90.000000
_cell_angle_beta 90.000000
_cell_angle_gamma 90.000000
_cell_volume 6491.670130
_symmetry_space_group_name_H-M "I M M M"
_symmetry_group_IT_number 71
_symmetry_cell_setting 'orthorhombic'
loop_
_space_group_symop_operation_xyz
x,y,z
-x,-y,z
x,-y,-z
-x,y,-z
-x,-y,-z
x,y,-z
-x,y,z
x,-y,z
1/2+x,1/2+y,1/2+z
1/2-x,1/2-y,1/2+z
1/2+x,1/2-y,1/2-z
1/2-x,1/2+y,1/2-z
1/2-x,1/2-y,1/2-z
1/2+x,1/2+y,1/2-z
1/2-x,1/2+y,1/2+z
1/2+x,1/2-y,1/2+z
loop_
_atom_site_type_symbol
_atom_site_label
_atom_site_fract_x
_atom_site_fract_y
_atom_site_fract_z
Si Si1 0.707987 0.679659 0.103837
Si Si2 0.851281 0.612680 0.897154
Si Si3 0.357293 0.461676 0.390713
Si Si4 0.860181 0.647106 0.389390
Si Si5 0.354385 0.078659 0.208930
Si Si6 0.139087 0.810866 0.194599
Si Si7 0.352913 0.246167 0.396732
O O1 0.788489 0.647320 0.111643
O O2 0.630099 0.681446 0.197147
O O3 0.787940 0.712117 0.110362
O O4 0.651360 0.679368 0.000000
O O5 0.819154 0.589317 0.813125
O O6 0.000000 0.617420 0.891660
O O7 0.820787 0.600207 0.000000
O O8 0.341627 0.454293 0.500000
O O9 0.500000 0.451986 0.364845
O O10 0.350112 0.500000 0.381052
O O11 0.247668 0.445070 0.333205
O O12 0.852510 0.646990 0.500000
O O13 0.851018 0.611270 0.350527
O O14 0.747609 0.667563 0.348142
O O15 0.000000 0.659129 0.362950
O O16 0.500000 0.067317 0.207488
O O17 0.176405 0.774119 0.175145
O O18 0.000000 0.815560 0.152907
O O19 0.324176 0.259093 0.500000
O O20 0.500000 0.240275 0.390664
#
# Coordination Sequence:
#
# PCOD9519765 Si02
#       7
#    16  16  16  16  16  16  16
#     4  10  19  33  52  72  98 134 178 227 275 321
#     4   9  17  31  53  79 105 136 177 225 272 316
#     4   9  19  36  57  83 116 151 184 215 250 303
#     4  10  21  36  53  76 107 140 175 217 265 319
#     4  10  19  33  55  83 112 139 176 225 267 307
#     4  11  22  35  51  74 105 138 173 219 271 327
#     4   9  18  32  51  74  97 127 173 225 275 330
#
# _framework density 17.252880000000001
#
# number of rings (size 3 to 8) (size 9 to 14) (size 15 to 20)
#    0.000    2.286    1.429    2.143    0.000    5.143 
#    0.000    1.429    0.000    1.714    0.000    3.000 
#    0.000    0.000    0.000    0.000    0.000    0.000 
#
# Total GULP energy -311964.296735 kJ/mol
# GULP energy per Si atom -5570.791013 kJ/mol
# Density = 1.721361 g / cm^3
# Si number density = 17.252880 Si / 1000 Ang^3
#
#
#
# Elastic Constant Matrix: (Units=GPa)
#
#
# Indices 1 2 3 4 5 6 
#
# 1 102.9846 56.7527 63.5866 0.0000 0.0000 -0.0022
# 2 56.7527 55.6073 41.6753 0.0000 0.0002 -0.0030
# 3 63.5866 41.6753 110.9240 -0.0001 0.0003 -0.0062
# 4 0.0000 0.0000 -0.0001 30.8014 0.0001 -0.0008
# 5 0.0000 0.0002 0.0003 0.0001 30.1003 -0.0031
# 6 -0.0022 -0.0030 -0.0062 -0.0008 -0.0031 1262.5573
#
#
#
# Elastic Compliance Matrix: (Units=1/GPa)
#
#
# Indices 1 2 3 4 5 6 
#
# 1 0.025316 -0.020825 -0.006688 0.000000 0.000000 0.000000
# 2 -0.020825 0.042162 -0.003903 0.000000 0.000000 0.000000
# 3 -0.006688 -0.003903 0.014315 0.000000 0.000000 0.000000
# 4 0.000000 0.000000 0.000000 0.032466 0.000000 0.000000
# 5 0.000000 0.000000 0.000000 0.000000 0.033222 0.000000
# 6 0.000000 0.000000 0.000000 0.000000 0.000000 0.000792
#
#
# Mechanical properties :
#
#
# Convention : Reuss Voigt Hill
#
# Bulk Modulus (GPa) = 52.73813 65.94945 59.34379
# Shear Modulus (GPa) = 22.99634 271.85855 147.42744
#
# Velocity S-wave (km/s) = 3.65485 12.56642 9.25400
# Velocity P-wave (km/s) = 6.96022 15.77534 12.19233
#
# Compressibility (1/GPa) = 0.01896161
#
# Stress axis : x y z
#
# Youngs Moduli (GPa) = 39.50116 23.71799 69.85445
#
# Poissons Ratio (x) = 0.49392 0.46719
# Poissons Ratio (y) = 0.82260 0.27265
# Poissons Ratio (z) = 0.26418 0.09257
#
# Static dielectric constant tensor:
#      x y z
#    x 1.590340 0.000000 0.000000 
#    y 0.000000 1.546810 0.000000 
#    z 0.000000 0.000000 1.631410 
# 
# From -- ./inp_files/33294.got.cif
#   From: 2010.05.17/outbox.cif.g08.bks.cpg/sg71_17_cif.got.tgz:33294.got - 2010.06.03 16:22:01.
