data_PCOD9519062
_publ_section_title
;
Structure prediction by ZEFSAII (Michael W. Deem and Ramdas Pophale) SiO2 
 PCOD9519062
Probable space group: I M M M
;
_chemical_formula_sum "Si O2"
_cell_formula_units_Z 96
_cell_length_a 7.371464
_cell_length_b 27.117059
_cell_length_c 21.159120
_cell_angle_alpha 90.000000
_cell_angle_beta 90.000000
_cell_angle_gamma 90.000000
_cell_volume 4229.547791
_symmetry_space_group_name_H-M "I M M M"
_symmetry_group_IT_number 71
_symmetry_cell_setting 'orthorhombic'
loop_
_space_group_symop_operation_xyz
x,y,z
-x,-y,z
x,-y,-z
-x,y,-z
-x,-y,-z
x,y,-z
-x,y,z
x,-y,z
1/2+x,1/2+y,1/2+z
1/2-x,1/2-y,1/2+z
1/2+x,1/2-y,1/2-z
1/2-x,1/2+y,1/2-z
1/2-x,1/2-y,1/2-z
1/2+x,1/2+y,1/2-z
1/2-x,1/2+y,1/2+z
1/2+x,1/2-y,1/2+z
loop_
_atom_site_type_symbol
_atom_site_label
_atom_site_fract_x
_atom_site_fract_y
_atom_site_fract_z
Si Si1 0.279033 0.250039 0.070751
Si Si2 0.779425 0.636420 0.428978
Si Si3 0.222152 0.554632 0.330832
Si Si4 0.291615 0.095241 0.298553
Si Si5 0.719874 0.058223 0.569339
Si Si6 0.715144 0.294375 0.798783
O O1 0.500000 0.251028 0.070797
O O2 0.224357 0.193068 0.081327
O O3 0.216589 0.280887 0.130956
O O4 0.221281 0.265267 0.000000
O O5 0.725563 0.622183 0.500000
O O6 0.716392 0.597864 0.377165
O O7 0.000000 0.636652 0.427414
O O8 0.273726 0.500000 0.351921
O O9 0.287019 0.564991 0.259729
O O10 0.000000 0.556483 0.330150
O O11 0.500000 0.078579 0.303583
O O12 0.213509 0.086588 0.368453
O O13 0.289943 0.152595 0.279637
O O14 0.785242 0.075022 0.500000
O O15 0.500000 0.062230 0.567257
O O16 0.762110 0.000000 0.576019
O O17 0.500000 0.300265 0.802402
O O18 0.750000 0.250000 0.750000
#
# Coordination Sequence:
#
# PCOD9519062 Si02
#       6
#    16  16  16  16  16  16
#     4   8  15  29  48  69  94 125 158 192 236 289
#     4   8  13  22  37  58  86 117 146 181 227 274
#     4   9  16  25  40  64  92 122 156 191 227 271
#     4  10  19  31  48  70  96 126 161 202 244 285
#     4   8  14  26  46  72 100 130 165 204 245 291
#     4  11  22  35  52  73  98 129 164 203 246 294
#
# _framework density 22.697462000000002
#
# number of rings (size 3 to 8) (size 9 to 14) (size 15 to 20)
#    0.000    3.000    0.000    3.500    0.000    5.667 
#    0.000    1.667    0.000    3.500    0.000    1.167 
#    0.000    0.000    0.000    6.000    0.000    5.333 
#
# Total GULP energy -268015.829940 kJ/mol
# GULP energy per Si atom -5583.663124 kJ/mol
# Density = 2.264580 g / cm^3
# Si number density = 22.697462 Si / 1000 Ang^3
#
#
#
# Elastic Constant Matrix: (Units=GPa)
#
#
# Indices 1 2 3 4 5 6 
#
# 1 83.7042 -9.9004 0.8475 0.0000 0.0000 0.0000
# 2 -9.9004 28.3478 2.6352 0.0000 0.0000 0.0000
# 3 0.8475 2.6352 64.0223 0.0000 0.0000 0.0000
# 4 0.0000 0.0000 0.0000 42.3395 0.0000 0.0000
# 5 0.0000 0.0000 0.0000 0.0000 -9.2505 0.0000
# 6 0.0000 0.0000 0.0000 0.0000 0.0000 -8.5984
#
#
#
# Elastic Compliance Matrix: (Units=1/GPa)
#
#
# Indices 1 2 3 4 5 6 
#
# 1 0.012469 0.004387 -0.000346 0.000000 0.000000 0.000000
# 2 0.004387 0.036955 -0.001579 0.000000 0.000000 0.000000
# 3 -0.000346 -0.001579 0.015689 0.000000 0.000000 0.000000
# 4 0.000000 0.000000 0.000000 0.023619 0.000000 0.000000
# 5 0.000000 0.000000 0.000000 0.000000 -0.108102 0.000000
# 6 0.000000 0.000000 0.000000 0.000000 0.000000 -0.116300
#
#
# Mechanical properties :
#
#
# Convention : Reuss Voigt Hill
#
# Bulk Modulus (GPa) = 14.27800 18.13764 16.20782
# Shear Modulus (GPa) = -42.64421 17.06426 -12.78998
#
# Velocity S-wave (km/s) = -4.33923 2.74490 -2.37639
# Velocity P-wave (km/s) = 4.33601 4.24904 0.61099
#
# Compressibility (1/GPa) = 0.07003780
#
# Stress axis : x y z
#
# Youngs Moduli (GPa) = 80.19750 27.05991 63.73844
#
# Poissons Ratio (x) = -0.11871 0.02203
# Poissons Ratio (y) = -0.35182 0.10065
# Poissons Ratio (z) = 0.02772 0.04273
#
# Static dielectric constant tensor:
#      x y z
#    x 1.898730 0.000000 0.000000 
#    y 0.000000 1.807020 0.000000 
#    z 0.000000 0.000000 1.846010 
# 
# From -- ./inp_files/10851.got.cif
#   From: 2010.05.17/outbox.cif.g08.bks.cpg/sg71_6_cif.got.tgz:10851.got - 2010.06.03 16:22:01.
