data_PCOD9519216
_publ_section_title
;
Structure prediction by ZEFSAII (Michael W. Deem and Ramdas Pophale) SiO2 
 PCOD9519216
Probable space group: I M M M
;
_chemical_formula_sum "Si O2"
_cell_formula_units_Z 120
_cell_length_a 32.661945
_cell_length_b 14.184786
_cell_length_c 14.968645
_cell_angle_alpha 90.000000
_cell_angle_beta 90.000000
_cell_angle_gamma 90.000000
_cell_volume 6935.013646
_symmetry_space_group_name_H-M "I M M M"
_symmetry_group_IT_number 71
_symmetry_cell_setting 'orthorhombic'
loop_
_space_group_symop_operation_xyz
x,y,z
-x,-y,z
x,-y,-z
-x,y,-z
-x,-y,-z
x,y,-z
-x,y,z
x,-y,z
1/2+x,1/2+y,1/2+z
1/2-x,1/2-y,1/2+z
1/2+x,1/2-y,1/2-z
1/2-x,1/2+y,1/2-z
1/2-x,1/2-y,1/2-z
1/2+x,1/2+y,1/2-z
1/2-x,1/2+y,1/2+z
1/2+x,1/2-y,1/2+z
loop_
_atom_site_type_symbol
_atom_site_label
_atom_site_fract_x
_atom_site_fract_y
_atom_site_fract_z
Si Si1 0.433213 0.759920 0.604157
Si Si2 0.500000 0.606778 0.607860
Si Si3 0.717180 0.387196 0.271813
Si Si4 0.835935 0.233655 0.896236
Si Si5 0.292293 0.885398 0.102006
Si Si6 0.267119 0.110667 0.396835
Si Si7 0.383573 0.885206 0.896835
Si Si8 0.454399 0.887042 0.234893
O O1 0.442324 0.778775 0.500000
O O2 0.459622 0.667608 0.631047
O O3 0.384345 0.749083 0.612391
O O4 0.447540 0.842770 0.668513
O O5 0.500000 0.500000 0.643152
O O6 0.500000 0.600380 0.500000
O O7 0.712055 0.500000 0.276460
O O8 0.679654 0.337611 0.320644
O O9 0.756469 0.358602 0.331782
O O10 0.730872 0.362850 0.171300
O O11 0.807803 0.326783 0.883885
O O12 0.828487 0.201349 0.000000
O O13 0.337772 0.854757 0.129931
O O14 0.292868 0.000000 0.100693
O O15 0.284437 0.854513 0.000000
O O16 0.254594 0.120604 0.500000
O O17 0.276728 0.000000 0.379926
O O18 0.419035 0.852120 0.831489
O O19 0.383872 0.000000 0.895087
O O20 0.390187 0.857991 0.000000
O O21 0.500000 0.862655 0.202449
O O22 0.451707 0.000000 0.239734
#
# Coordination Sequence:
#
# PCOD9519216 Si02
#       8
#    16   8  16  16  16  16  16  16
#     4  10  21  36  52  74 105 132 162 208 252 301
#     4   9  18  36  59  75  92 127 167 203 257 316
#     4  10  19  31  51  75 101 132 165 210 258 296
#     4  10  21  34  50  74 102 131 165 211 259 300
#     4   8  14  25  42  66  96 129 163 199 241 290
#     4   9  19  35  51  69  98 140 182 208 237 290
#     4   8  15  28  45  68 100 136 174 210 242 284
#     4  10  20  32  50  75 103 138 172 203 247 299
#
# _framework density 17.303498000000001
#
# number of rings (size 3 to 8) (size 9 to 14) (size 15 to 20)
#    0.000    2.733    0.667    1.600    1.867    2.400 
#    0.000    4.667    0.000    0.000    0.000    0.000 
#    0.000    1.067    0.000    0.000    0.000    0.267 
#
# Total GULP energy -334469.181400 kJ/mol
# GULP energy per Si atom -5574.486357 kJ/mol
# Density = 1.726411 g / cm^3
# Si number density = 17.303498 Si / 1000 Ang^3
#
#
#
# Elastic Constant Matrix: (Units=GPa)
#
#
# Indices 1 2 3 4 5 6 
#
# 1 58.2606 -2.4178 18.7420 0.0000 0.0000 0.0000
# 2 -2.4178 27.0549 1.2428 0.0000 0.0000 0.0000
# 3 18.7420 1.2428 39.8294 0.0000 0.0000 0.0000
# 4 0.0000 0.0000 0.0000 14.3347 0.0000 0.0000
# 5 0.0000 0.0000 0.0000 0.0000 24.0110 0.0000
# 6 0.0000 0.0000 0.0000 0.0000 0.0000 17.0272
#
#
#
# Elastic Compliance Matrix: (Units=1/GPa)
#
#
# Indices 1 2 3 4 5 6 
#
# 1 0.020363 0.002263 -0.009653 0.000000 0.000000 0.000000
# 2 0.002263 0.037267 -0.002228 0.000000 0.000000 0.000000
# 3 -0.009653 -0.002228 0.029719 0.000000 0.000000 0.000000
# 4 0.000000 0.000000 0.000000 0.069761 0.000000 0.000000
# 5 0.000000 0.000000 0.000000 0.000000 0.041648 0.000000
# 6 0.000000 0.000000 0.000000 0.000000 0.000000 0.058730
#
#
# Mechanical properties :
#
#
# Convention : Reuss Voigt Hill
#
# Bulk Modulus (GPa) = 14.68128 17.80877 16.24503
# Shear Modulus (GPa) = 16.69861 18.24643 17.47252
#
# Velocity S-wave (km/s) = 3.10988 3.25082 3.18113
# Velocity P-wave (km/s) = 4.62581 4.94012 4.78555
#
# Compressibility (1/GPa) = 0.06811395
#
# Stress axis : x y z
#
# Youngs Moduli (GPa) = 49.10764 26.83374 33.64873
#
# Poissons Ratio (x) = -0.06073 0.32480
# Poissons Ratio (y) = -0.11114 0.07496
# Poissons Ratio (z) = 0.47403 0.05978
#
# Static dielectric constant tensor:
#      x y z
#    x 1.587390 0.000000 0.000000 
#    y 0.000000 1.602790 0.000000 
#    z 0.000000 0.000000 1.601090 
# 
# From -- ./inp_files/41162.got.cif
#   From: 2010.05.17/outbox.cif.g08.bks.cpg/sg71_21_cif.got.tgz:41162.got - 2010.06.03 16:22:01.
