data_PCOD9519956
_publ_section_title
;
Structure prediction by ZEFSAII (Michael W. Deem and Ramdas Pophale) SiO2 
 PCOD9519956
Probable space group: I M M M
;
_chemical_formula_sum "Si O2"
_cell_formula_units_Z 104
_cell_length_a 8.830175
_cell_length_b 28.847207
_cell_length_c 22.823322
_cell_angle_alpha 90.000000
_cell_angle_beta 90.000000
_cell_angle_gamma 90.000000
_cell_volume 5813.690920
_symmetry_space_group_name_H-M "I M M M"
_symmetry_group_IT_number 71
_symmetry_cell_setting 'orthorhombic'
loop_
_space_group_symop_operation_xyz
x,y,z
-x,-y,z
x,-y,-z
-x,y,-z
-x,-y,-z
x,y,-z
-x,y,z
x,-y,z
1/2+x,1/2+y,1/2+z
1/2-x,1/2-y,1/2+z
1/2+x,1/2-y,1/2-z
1/2-x,1/2+y,1/2-z
1/2-x,1/2-y,1/2-z
1/2+x,1/2+y,1/2-z
1/2-x,1/2+y,1/2+z
1/2+x,1/2-y,1/2+z
loop_
_atom_site_type_symbol
_atom_site_label
_atom_site_fract_x
_atom_site_fract_y
_atom_site_fract_z
Si Si1 0.181644 0.946698 0.771787
Si Si2 0.818175 0.601219 0.616973
Si Si3 0.323785 0.614709 0.839501
Si Si4 0.317537 0.555211 0.500000
Si Si5 0.671323 0.055252 0.431639
Si Si6 0.179441 0.706334 0.185018
Si Si7 0.317800 0.197026 0.821282
O O1 0.267839 0.932428 0.830379
O O2 0.225458 0.912498 0.719204
O O3 0.000000 0.942407 0.781151
O O4 0.212769 0.000000 0.755850
O O5 0.744971 0.581768 0.557446
O O6 0.769260 0.652799 0.639847
O O7 0.000000 0.601575 0.610693
O O8 0.500000 0.626453 0.833320
O O9 0.293832 0.580351 0.892660
O O10 0.228820 0.660933 0.849224
O O11 0.274172 0.500000 0.500000
O O12 0.500000 0.556850 0.500000
O O13 0.685825 0.066752 0.500000
O O14 0.500000 0.068068 0.412431
O O15 0.684491 0.000000 0.426006
O O16 0.255252 0.752879 0.160599
O O17 0.230024 0.695328 0.252498
O O18 0.000000 0.712671 0.185831
O O19 0.500000 0.197303 0.822244
#
# Coordination Sequence:
#
# PCOD9519956 Si02
#       7
#    16  16  16   8  16  16  16
#     4  10  21  35  51  77 114 150 183 223 274 331
#     4  11  22  38  60  85 112 145 188 237 287 337
#     4  11  21  33  53  81 114 148 183 226 277 329
#     4  11  25  43  61  83 115 155 197 239 286 347
#     4   9  19  36  56  77 105 144 187 229 273 324
#     4  10  19  33  55  83 114 146 183 222 271 331
#     4   9  19  35  55  82 113 142 178 225 276 330
#
# _framework density 17.888807
#
# number of rings (size 3 to 8) (size 9 to 14) (size 15 to 20)
#    0.000    1.923    1.538    3.000    0.000    6.462 
#    0.000    0.769    1.692    0.000    0.000    0.000 
#    0.000    0.000    0.000    0.000    0.000    0.000 
#
# Total GULP energy -290101.255503 kJ/mol
# GULP energy per Si atom -5578.870298 kJ/mol
# Density = 1.784809 g / cm^3
# Si number density = 17.888807 Si / 1000 Ang^3
#
#
#
# Elastic Constant Matrix: (Units=GPa)
#
#
# Indices 1 2 3 4 5 6 
#
# 1 14.9322 25.7848 11.2231 0.0000 0.0000 0.0000
# 2 25.7848 105.5556 36.2326 0.0000 0.0000 0.0000
# 3 11.2231 36.2326 37.9087 -0.0001 0.0000 0.0000
# 4 0.0000 0.0000 -0.0001 22.7319 0.0000 0.0000
# 5 0.0000 0.0000 0.0000 0.0000 28.5485 0.0000
# 6 0.0000 0.0000 0.0000 0.0000 0.0000 31.2167
#
#
#
# Elastic Compliance Matrix: (Units=1/GPa)
#
#
# Indices 1 2 3 4 5 6 
#
# 1 0.118869 -0.025237 -0.011071 0.000000 0.000000 0.000000
# 2 -0.025237 0.019457 -0.011126 0.000000 0.000000 0.000000
# 3 -0.011071 -0.011126 0.040290 0.000000 0.000000 0.000000
# 4 0.000000 0.000000 0.000000 0.043991 0.000000 0.000000
# 5 0.000000 0.000000 0.000000 0.000000 0.035028 0.000000
# 6 0.000000 0.000000 0.000000 0.000000 0.000000 0.032034
#
#
# Mechanical properties :
#
#
# Convention : Reuss Voigt Hill
#
# Bulk Modulus (GPa) = 11.94025 33.87530 22.90777
# Shear Modulus (GPa) = 12.12256 22.17650 17.14953
#
# Velocity S-wave (km/s) = 2.60602 3.52474 3.09961
# Velocity P-wave (km/s) = 3.96791 5.96177 5.06394
#
# Compressibility (1/GPa) = 0.08375035
#
# Stress axis : x y z
#
# Youngs Moduli (GPa) = 8.41260 51.39435 24.81979
#
# Poissons Ratio (x) = 1.29703 0.27478
# Poissons Ratio (y) = 0.21231 0.27613
# Poissons Ratio (z) = 0.09314 0.57179
#
# Static dielectric constant tensor:
#      x y z
#    x 1.615130 0.000000 0.000000 
#    y 0.000000 1.625650 0.000000 
#    z 0.000000 0.000000 1.597900 
# 
# From -- ./inp_files/50906.got.cif
#   From: 2010.05.17/outbox.cif.g08.bks.cpg/sg71_26_cif.got.tgz:50906.got - 2010.06.03 16:22:01.
