data_PCOD9519974
_publ_section_title
;
Structure prediction by ZEFSAII (Michael W. Deem and Ramdas Pophale) SiO2 
 PCOD9519974
Probable space group: I M M M
;
_chemical_formula_sum "Si O2"
_cell_formula_units_Z 116
_cell_length_a 22.333536
_cell_length_b 9.052142
_cell_length_c 33.326406
_cell_angle_alpha 90.000000
_cell_angle_beta 90.000000
_cell_angle_gamma 90.000000
_cell_volume 6737.477501
_symmetry_space_group_name_H-M "I M M M"
_symmetry_group_IT_number 71
_symmetry_cell_setting 'orthorhombic'
loop_
_space_group_symop_operation_xyz
x,y,z
-x,-y,z
x,-y,-z
-x,y,-z
-x,-y,-z
x,y,-z
-x,y,z
x,-y,z
1/2+x,1/2+y,1/2+z
1/2-x,1/2-y,1/2+z
1/2+x,1/2-y,1/2-z
1/2-x,1/2+y,1/2-z
1/2-x,1/2-y,1/2-z
1/2+x,1/2+y,1/2-z
1/2-x,1/2+y,1/2+z
1/2+x,1/2-y,1/2+z
loop_
_atom_site_type_symbol
_atom_site_label
_atom_site_fract_x
_atom_site_fract_y
_atom_site_fract_z
Si Si1 0.571453 0.671269 0.324248
Si Si2 0.717095 0.676754 0.902001
Si Si3 0.283055 0.325322 0.191353
Si Si4 0.570580 0.176043 0.408576
Si Si5 0.322661 0.676657 0.546706
Si Si6 0.156619 0.326325 0.236361
Si Si7 0.000000 0.728803 0.500000
Si Si8 0.378030 0.174258 0.043996
O O1 0.500000 0.679123 0.318913
O O2 0.588214 0.500000 0.330320
O O3 0.586284 0.764171 0.364174
O O4 0.604947 0.738171 0.286211
O O5 0.723021 0.500000 0.904710
O O6 0.716493 0.718249 0.855125
O O7 0.771818 0.752534 0.925318
O O8 0.656667 0.731036 0.923658
O O9 0.297015 0.500000 0.194145
O O10 0.216794 0.304788 0.209773
O O11 0.327795 0.235439 0.219762
O O12 0.500000 0.206907 0.415431
O O13 0.613803 0.257214 0.439533
O O14 0.579479 0.000000 0.410192
O O15 0.311702 0.711004 0.500000
O O16 0.322448 0.500000 0.551564
O O17 0.143319 0.500000 0.237678
O O18 0.946372 0.719493 0.534273
O O19 0.376862 0.000000 0.053714
O O20 0.347069 0.191259 0.000000
#
# Coordination Sequence:
#
# PCOD9519974 Si02
#       8
#    16  16  16  16  16  16   4  16
#     4  10  20  34  55  81 110 145 180 218 266 319
#     4  11  22  35  54  81 113 145 177 222 277 327
#     4   9  20  36  52  75 108 141 173 214 270 327
#     4  10  21  37  57  81 109 143 185 232 277 322
#     4  11  24  39  55  78 109 147 188 228 273 327
#     4  10  19  33  56  81 104 136 180 225 266 313
#     4   8  17  36  61  82 105 144 183 222 269 320
#     4   9  17  33  56  79 104 137 179 221 266 317
#
# _framework density 17.217124999999999
#
# number of rings (size 3 to 8) (size 9 to 14) (size 15 to 20)
#    0.414    1.655    0.000    3.724    0.000    7.724 
#    0.000    2.069    1.517    0.000    0.000    0.000 
#    0.000    0.000    0.000    0.000    0.000    0.000 
#
# Total GULP energy -323059.002913 kJ/mol
# GULP energy per Si atom -5569.982809 kJ/mol
# Density = 1.717794 g / cm^3
# Si number density = 17.217125 Si / 1000 Ang^3
#
#
#
# Elastic Constant Matrix: (Units=GPa)
#
#
# Indices 1 2 3 4 5 6 
#
# 1 60.4296 42.0277 56.0746 0.0000 0.0000 0.0000
# 2 42.0277 58.2126 59.6618 0.0000 0.0000 0.0000
# 3 56.0746 59.6618 136.4151 0.0000 0.0000 0.0000
# 4 0.0000 0.0000 0.0000 30.0986 0.0000 0.0000
# 5 0.0000 0.0000 0.0000 0.0000 32.2410 0.0000
# 6 0.0000 0.0000 0.0000 0.0000 0.0000 17.9466
#
#
#
# Elastic Compliance Matrix: (Units=1/GPa)
#
#
# Indices 1 2 3 4 5 6 
#
# 1 0.035918 -0.019573 -0.006204 0.000000 0.000000 0.000000
# 2 -0.019573 0.041800 -0.010236 0.000000 0.000000 0.000000
# 3 -0.006204 -0.010236 0.014357 0.000000 0.000000 0.000000
# 4 0.000000 0.000000 0.000000 0.033224 0.000000 0.000000
# 5 0.000000 0.000000 0.000000 0.000000 0.031016 0.000000
# 6 0.000000 0.000000 0.000000 0.000000 0.000000 0.055721
#
#
# Mechanical properties :
#
#
# Convention : Reuss Voigt Hill
#
# Bulk Modulus (GPa) = 49.87613 63.39838 56.63725
# Shear Modulus (GPa) = 17.19712 22.54345 19.87028
#
# Velocity S-wave (km/s) = 3.16387 3.62244 3.40089
# Velocity P-wave (km/s) = 6.50988 7.37556 6.95620
#
# Compressibility (1/GPa) = 0.02004967
#
# Stress axis : x y z
#
# Youngs Moduli (GPa) = 27.84128 23.92320 69.65048
#
# Poissons Ratio (x) = 0.46826 0.43210
# Poissons Ratio (y) = 0.54495 0.71293
# Poissons Ratio (z) = 0.17272 0.24487
#
# Static dielectric constant tensor:
#      x y z
#    x 1.573710 0.000000 0.000000 
#    y 0.000000 1.579780 0.000000 
#    z 0.000000 0.000000 1.565860 
# 
# From -- ./inp_files/66910.got.cif
#   From: 2010.05.17/outbox.cif.g08.bks.cpg/sg71_34_cif.got.tgz:66910.got - 2010.06.03 16:22:01.
