data_PCOD9519212
_publ_section_title
;
Structure prediction by ZEFSAII (Michael W. Deem and Ramdas Pophale) SiO2 
 PCOD9519212
Probable space group: I M M M
;
_chemical_formula_sum "Si O2"
_cell_formula_units_Z 80
_cell_length_a 18.577258
_cell_length_b 7.998154
_cell_length_c 29.667102
_cell_angle_alpha 90.000000
_cell_angle_beta 90.000000
_cell_angle_gamma 90.000000
_cell_volume 4408.049871
_symmetry_space_group_name_H-M "I M M M"
_symmetry_group_IT_number 71
_symmetry_cell_setting 'orthorhombic'
loop_
_space_group_symop_operation_xyz
x,y,z
-x,-y,z
x,-y,-z
-x,y,-z
-x,-y,-z
x,y,-z
-x,y,z
x,-y,z
1/2+x,1/2+y,1/2+z
1/2-x,1/2-y,1/2+z
1/2+x,1/2-y,1/2-z
1/2-x,1/2+y,1/2-z
1/2-x,1/2-y,1/2-z
1/2+x,1/2+y,1/2-z
1/2-x,1/2+y,1/2+z
1/2+x,1/2-y,1/2+z
loop_
_atom_site_type_symbol
_atom_site_label
_atom_site_fract_x
_atom_site_fract_y
_atom_site_fract_z
Si Si1 0.149525 0.688948 0.946793
Si Si2 0.587960 0.500000 0.710942
Si Si3 0.811537 0.699004 0.449013
Si Si4 0.587665 0.814379 0.229715
Si Si5 0.086094 0.000000 0.107178
Si Si6 0.083338 0.200156 0.369214
O O1 0.128116 0.500000 0.934053
O O2 0.235607 0.709446 0.942021
O O3 0.113431 0.834515 0.918080
O O4 0.133276 0.712774 0.000000
O O5 0.500000 0.500000 0.711439
O O6 0.611840 0.334557 0.737749
O O7 0.611095 0.500000 0.659130
O O8 0.836948 0.737801 0.500000
O O9 0.797829 0.500000 0.446810
O O10 0.868240 0.748013 0.411146
O O11 0.500000 0.810510 0.230028
O O12 0.608555 0.779350 0.177978
O O13 0.610631 0.000000 0.243724
O O14 0.000000 0.000000 0.106852
O O15 0.000000 0.250171 0.376581
O O16 0.085040 0.000000 0.363763
#
# Coordination Sequence:
#
# PCOD9519212 Si02
#       6
#    16   8  16  16   8  16
#     4  10  21  39  61  84 113 151 190 222 269 343
#     4   9  18  33  52  79 111 143 179 224 277 335
#     4  10  20  35  55  79 109 150 195 232 275 332
#     4   9  16  29  50  75 106 145 187 227 271 324
#     4  11  23  38  61  90 117 141 178 233 286 335
#     4  10  19  31  50  80 115 149 192 241 280 317
#
# _framework density 18.148614999999999
#
# number of rings (size 3 to 8) (size 9 to 14) (size 15 to 20)
#    0.000    2.200    2.000    1.500    0.000    4.800 
#    0.000    5.000    0.000    1.200    0.000    0.000 
#    0.000    0.000    0.000    0.000    0.000    0.000 
#
# Total GULP energy -223215.063854 kJ/mol
# GULP energy per Si atom -5580.376596 kJ/mol
# Density = 1.810731 g / cm^3
# Si number density = 18.148615 Si / 1000 Ang^3
#
#
#
# Elastic Constant Matrix: (Units=GPa)
#
#
# Indices 1 2 3 4 5 6 
#
# 1 27.4180 30.5497 45.2590 0.0000 0.0000 0.0000
# 2 30.5497 154.4737 93.1250 0.0000 0.0000 0.0000
# 3 45.2590 93.1250 139.6361 0.0000 0.0000 0.0000
# 4 0.0000 0.0000 0.0000 5.0770 0.0000 0.0000
# 5 0.0000 0.0000 0.0000 0.0000 -67.9199 0.0000
# 6 0.0000 0.0000 0.0000 0.0000 0.0000 18.8993
#
#
#
# Elastic Compliance Matrix: (Units=1/GPa)
#
#
# Indices 1 2 3 4 5 6 
#
# 1 0.078449 -0.000311 -0.025220 0.000000 0.000000 0.000000
# 2 -0.000311 0.010828 -0.007120 0.000000 0.000000 0.000000
# 3 -0.025220 -0.007120 0.020084 0.000000 0.000000 0.000000
# 4 0.000000 0.000000 0.000000 0.196965 0.000000 0.000000
# 5 0.000000 0.000000 0.000000 0.000000 -0.014723 0.000000
# 6 0.000000 0.000000 0.000000 0.000000 0.000000 0.052912
#
#
# Mechanical properties :
#
#
# Convention : Reuss Voigt Hill
#
# Bulk Modulus (GPa) = 22.69673 73.26613 47.98143
# Shear Modulus (GPa) = 11.77849 1.38422 6.58136
#
# Velocity S-wave (km/s) = 2.55032 0.87428 1.90637
# Velocity P-wave (km/s) = 4.60493 6.44026 5.59831
#
# Compressibility (1/GPa) = 0.04405921
#
# Stress axis : x y z
#
# Youngs Moduli (GPa) = 12.74717 92.35709 49.79026
#
# Poissons Ratio (x) = 0.02871 1.25569
# Poissons Ratio (y) = 0.00396 0.35452
# Poissons Ratio (z) = 0.32148 0.65761
#
# Static dielectric constant tensor:
#      x y z
#    x 1.597760 0.000000 0.000000 
#    y 0.000000 1.636600 0.000000 
#    z 0.000000 0.000000 1.603140 
# 
# From -- ./inp_files/65846.got.cif
#   From: 2010.05.17/outbox.cif.g08.bks.cpg/sg71_33_cif.got.tgz:65846.got - 2010.06.03 16:22:01.
