data_PCOD9519810
_publ_section_title
;
Structure prediction by ZEFSAII (Michael W. Deem and Ramdas Pophale) SiO2 
 PCOD9519810
Probable space group: I M M M
;
_chemical_formula_sum "Si O2"
_cell_formula_units_Z 90
_cell_length_a 21.432570
_cell_length_b 25.104696
_cell_length_c 7.528391
_cell_angle_alpha 90.000000
_cell_angle_beta 90.000000
_cell_angle_gamma 90.000000
_cell_volume 4050.712167
_symmetry_space_group_name_H-M "I M M M"
_symmetry_group_IT_number 71
_symmetry_cell_setting 'orthorhombic'
loop_
_space_group_symop_operation_xyz
x,y,z
-x,-y,z
x,-y,-z
-x,y,-z
-x,-y,-z
x,y,-z
-x,y,z
x,-y,z
1/2+x,1/2+y,1/2+z
1/2-x,1/2-y,1/2+z
1/2+x,1/2-y,1/2-z
1/2-x,1/2+y,1/2-z
1/2-x,1/2-y,1/2-z
1/2+x,1/2+y,1/2-z
1/2-x,1/2+y,1/2+z
1/2+x,1/2-y,1/2+z
loop_
_atom_site_type_symbol
_atom_site_label
_atom_site_fract_x
_atom_site_fract_y
_atom_site_fract_z
Si Si1 0.883869 0.709498 0.715254
Si Si2 0.431646 0.094245 0.784853
Si Si3 0.500000 0.389738 0.699710
Si Si4 0.500000 0.500000 0.500000
Si Si5 0.248655 0.328121 0.297315
Si Si6 0.386066 0.674130 0.293901
Si Si7 0.703062 0.057716 0.706213
O O1 0.883476 0.710749 0.500000
O O2 0.920796 0.656173 0.765863
O O3 0.812193 0.701095 0.780491
O O4 0.909804 0.765340 0.781713
O O5 0.500000 0.076115 0.727086
O O6 0.371799 0.062825 0.717380
O O7 0.429495 0.091524 0.000000
O O8 0.500000 0.363786 0.500000
O O9 0.500000 0.452063 0.653680
O O10 0.436635 0.366750 0.782753
O O11 0.252771 0.308504 0.500000
O O12 0.316646 0.324003 0.211642
O O13 0.230561 0.390477 0.298866
O O14 0.375559 0.658344 0.500000
O O15 0.721233 0.060774 0.500000
O O16 0.722230 0.000000 0.777667
#
# Coordination Sequence:
#
# PCOD9519810 Si02
#       7
#    16  16   8   2  16  16  16
#     4   9  18  31  50  75 110 144 167 207 262 313
#     4   9  19  35  53  75 105 144 184 214 254 310
#     4   8  18  34  53  77 107 133 168 218 270 313
#     4   8  16  40  56  68 118 144 160 224 294 304
#     4   9  19  35  52  75 104 139 180 215 261 321
#     4  10  19  33  52  82 107 130 177 218 255 321
#     4  10  21  36  52  74 104 134 175 228 275 315
#
# _framework density 22.218315
#
# number of rings (size 3 to 8) (size 9 to 14) (size 15 to 20)
#    0.267    2.489    0.000    2.133    1.244    5.689 
#    1.600    1.778    0.000    0.000    0.000    0.622 
#    0.000    0.000    0.000    0.000    0.000    0.000 
#
# Total GULP energy -250700.888305 kJ/mol
# GULP energy per Si atom -5571.130851 kJ/mol
# Density = 2.216774 g / cm^3
# Si number density = 22.218315 Si / 1000 Ang^3
#
#
#
# Elastic Constant Matrix: (Units=GPa)
#
#
# Indices 1 2 3 4 5 6 
#
# 1 49.0774 8.5961 0.5598 0.0000 0.0000 0.0000
# 2 8.5961 134.2498 -3.0433 0.0000 0.0000 0.0000
# 3 0.5598 -3.0433 60.2564 0.0000 0.0000 0.0000
# 4 0.0000 0.0000 0.0000 -5.0164 0.0000 0.0000
# 5 0.0000 0.0000 0.0000 0.0000 -54.6125 0.0000
# 6 0.0000 0.0000 0.0000 0.0000 0.0000 5.9239
#
#
#
# Elastic Compliance Matrix: (Units=1/GPa)
#
#
# Indices 1 2 3 4 5 6 
#
# 1 0.020611 -0.001326 -0.000258 0.000000 0.000000 0.000000
# 2 -0.001326 0.007543 0.000393 0.000000 0.000000 0.000000
# 3 -0.000258 0.000393 0.016618 0.000000 0.000000 0.000000
# 4 0.000000 0.000000 0.000000 -0.199346 0.000000 0.000000
# 5 0.000000 0.000000 0.000000 0.000000 -0.018311 0.000000
# 6 0.000000 0.000000 0.000000 0.000000 0.000000 0.168806
#
#
# Mechanical properties :
#
#
# Convention : Reuss Voigt Hill
#
# Bulk Modulus (GPa) = 23.59038 28.42319 26.00678
# Shear Modulus (GPa) = 402.16947 5.09041 203.62994
#
# Velocity S-wave (km/s) = 13.46852 1.51528 9.58376
# Velocity P-wave (km/s) = 15.89052 3.98521 11.58427
#
# Compressibility (1/GPa) = 0.04239017
#
# Stress axis : x y z
#
# Youngs Moduli (GPa) = 48.51756 132.58032 60.17571
#
# Poissons Ratio (x) = 0.17575 0.01555
# Poissons Ratio (y) = 0.06432 -0.02366
# Poissons Ratio (z) = 0.01254 -0.05214
#
# Static dielectric constant tensor:
#      x y z
#    x 1.884640 0.000000 0.000000 
#    y 0.000000 1.792420 0.000000 
#    z 0.000000 0.000000 1.870800 
# 
# From -- ./inp_files/10575.got.cif
#   From: 2010.05.17/outbox.cif.g08.bks.cpg/sg71_6_cif.got.tgz:10575.got - 2010.06.03 16:22:01.
