data_PCOD9519060
_publ_section_title
;
Structure prediction by ZEFSAII (Michael W. Deem and Ramdas Pophale) SiO2 
 PCOD9519060
Probable space group: I M M M
;
_chemical_formula_sum "Si O2"
_cell_formula_units_Z 88
_cell_length_a 23.440715
_cell_length_b 24.518913
_cell_length_c 7.887124
_cell_angle_alpha 90.000000
_cell_angle_beta 90.000000
_cell_angle_gamma 90.000000
_cell_volume 4533.052366
_symmetry_space_group_name_H-M "I M M M"
_symmetry_group_IT_number 71
_symmetry_cell_setting 'orthorhombic'
loop_
_space_group_symop_operation_xyz
x,y,z
-x,-y,z
x,-y,-z
-x,y,-z
-x,-y,-z
x,y,-z
-x,y,z
x,-y,z
1/2+x,1/2+y,1/2+z
1/2-x,1/2-y,1/2+z
1/2+x,1/2-y,1/2-z
1/2-x,1/2+y,1/2-z
1/2-x,1/2-y,1/2-z
1/2+x,1/2+y,1/2-z
1/2-x,1/2+y,1/2+z
1/2+x,1/2-y,1/2+z
loop_
_atom_site_type_symbol
_atom_site_label
_atom_site_fract_x
_atom_site_fract_y
_atom_site_fract_z
Si Si1 0.622881 0.937840 0.702981
Si Si2 0.500000 0.062578 0.798311
Si Si3 0.565082 0.773966 0.500000
Si Si4 0.647650 0.641102 0.195970
Si Si5 0.775369 0.360118 0.794667
Si Si6 0.065390 0.859068 0.000000
Si Si7 0.355896 0.772476 0.812002
O O1 0.627502 0.940270 0.500000
O O2 0.560575 0.913724 0.743102
O O3 0.676217 0.902513 0.763222
O O4 0.624949 0.000000 0.770064
O O5 0.500000 0.000000 0.728954
O O6 0.500000 0.060610 0.000000
O O7 0.500000 0.793362 0.500000
O O8 0.563891 0.707495 0.500000
O O9 0.600855 0.790438 0.334922
O O10 0.711194 0.623456 0.249979
O O11 0.600147 0.624314 0.331674
O O12 0.650071 0.707288 0.197463
O O13 0.636454 0.624727 0.000000
O O14 0.796294 0.302764 0.719937
O O15 0.776371 0.355770 0.000000
O O16 0.000000 0.877839 0.000000
O O17 0.377082 0.786232 0.000000
#
# Coordination Sequence:
#
# PCOD9519060 Si02
#       7
#    16   8   8  16  16   8  16
#     4   9  18  33  52  70  91 125 166 207 249 293
#     4   9  17  31  49  67  91 123 163 211 255 291
#     4   9  18  34  48  64  97 131 167 208 245 284
#     4   9  19  32  49  74 101 129 161 201 240 288
#     4  10  19  32  48  70  99 127 161 204 251 292
#     4   9  18  32  52  74  97 132 163 193 238 285
#     4  10  19  31  48  70  95 129 165 203 246 291
#
# _framework density 19.412966000000001
#
# number of rings (size 3 to 8) (size 9 to 14) (size 15 to 20)
#    0.000    2.636    0.909    0.818    1.273    2.545 
#    1.636    3.636    0.000    0.000    0.000    0.000 
#    0.000    1.455    0.000    7.091    0.000    0.182 
#
# Total GULP energy -245474.493076 kJ/mol
# GULP energy per Si atom -5578.965752 kJ/mol
# Density = 1.936878 g / cm^3
# Si number density = 19.412966 Si / 1000 Ang^3
#
#
#
# Elastic Constant Matrix: (Units=GPa)
#
#
# Indices 1 2 3 4 5 6 
#
# 1 179.8791 19.1468 74.2287 0.0000 0.0000 0.0000
# 2 19.1468 22.8866 7.3227 0.0000 0.0000 0.0000
# 3 74.2287 7.3227 91.6048 0.0000 0.0000 0.0000
# 4 0.0000 0.0000 0.0000 5.5716 0.0000 0.0000
# 5 0.0000 0.0000 0.0000 0.0000 22.4501 0.0000
# 6 0.0000 0.0000 0.0000 0.0000 0.0000 18.9435
#
#
#
# Elastic Compliance Matrix: (Units=1/GPa)
#
#
# Indices 1 2 3 4 5 6 
#
# 1 0.008936 -0.005295 -0.006818 0.000000 0.000000 0.000000
# 2 -0.005295 0.047978 0.000455 0.000000 0.000000 0.000000
# 3 -0.006818 0.000455 0.016405 0.000000 0.000000 0.000000
# 4 0.000000 0.000000 0.000000 0.179481 0.000000 0.000000
# 5 0.000000 0.000000 0.000000 0.000000 0.044543 0.000000
# 6 0.000000 0.000000 0.000000 0.000000 0.000000 0.052788
#
#
# Mechanical properties :
#
#
# Convention : Reuss Voigt Hill
#
# Bulk Modulus (GPa) = 19.99857 55.08522 37.54189
# Shear Modulus (GPa) = 12.81677 22.30454 17.56066
#
# Velocity S-wave (km/s) = 2.57226 3.39330 3.01089
# Velocity P-wave (km/s) = 4.37562 6.61738 5.60962
#
# Compressibility (1/GPa) = 0.05000358
#
# Stress axis : x y z
#
# Youngs Moduli (GPa) = 111.90204 20.84307 60.95765
#
# Poissons Ratio (x) = 0.11036 0.41561
# Poissons Ratio (y) = 0.59248 -0.02774
# Poissons Ratio (z) = 0.76295 -0.00949
#
# Static dielectric constant tensor:
#      x y z
#    x 1.684810 0.000000 0.000000 
#    y 0.000000 1.694640 0.000000 
#    z 0.000000 0.000000 1.686750 
# 
# From -- ./inp_files/8921.got.cif
#   From: 2010.05.17/outbox.cif.g08.bks.cpg/sg71_5_cif.got.tgz:8921.got - 2010.06.03 16:22:01.
