data_PCOD9519056
_publ_section_title
;
Structure prediction by ZEFSAII (Michael W. Deem and Ramdas Pophale) SiO2 
 PCOD9519056
Probable space group: I M M M
;
_chemical_formula_sum "Si O2"
_cell_formula_units_Z 96
_cell_length_a 15.175989
_cell_length_b 15.013151
_cell_length_c 23.726742
_cell_angle_alpha 90.000000
_cell_angle_beta 90.000000
_cell_angle_gamma 90.000000
_cell_volume 5405.887004
_symmetry_space_group_name_H-M "I M M M"
_symmetry_group_IT_number 71
_symmetry_cell_setting 'orthorhombic'
loop_
_space_group_symop_operation_xyz
x,y,z
-x,-y,z
x,-y,-z
-x,y,-z
-x,-y,-z
x,y,-z
-x,y,z
x,-y,z
1/2+x,1/2+y,1/2+z
1/2-x,1/2-y,1/2+z
1/2+x,1/2-y,1/2-z
1/2-x,1/2+y,1/2-z
1/2-x,1/2-y,1/2-z
1/2+x,1/2+y,1/2-z
1/2-x,1/2+y,1/2+z
1/2+x,1/2-y,1/2+z
loop_
_atom_site_type_symbol
_atom_site_label
_atom_site_fract_x
_atom_site_fract_y
_atom_site_fract_z
Si Si1 0.144394 0.099356 0.273827
Si Si2 0.098737 0.139826 0.064631
Si Si3 0.398540 0.145283 0.561383
Si Si4 0.403093 0.795882 0.206534
Si Si5 0.344222 0.098772 0.685914
Si Si6 0.760837 0.100716 0.157802
O O1 0.097710 0.188762 0.293561
O O2 0.240359 0.100263 0.302600
O O3 0.168258 0.111169 0.208023
O O4 0.106016 0.000000 0.282277
O O5 0.100741 0.247364 0.063469
O O6 0.181505 0.111209 0.101831
O O7 0.000000 0.113671 0.085408
O O8 0.106251 0.109200 0.000000
O O9 0.360178 0.118775 0.500000
O O10 0.500000 0.115246 0.561874
O O11 0.358040 0.114376 0.619934
O O12 0.500000 0.827374 0.188118
O O13 0.386481 0.830979 0.270676
O O14 0.320736 0.833592 0.170326
O O15 0.377940 0.000000 0.700814
O O16 0.725668 0.000000 0.162000
#
# Coordination Sequence:
#
# PCOD9519056 Si02
#       6
#    16  16  16  16  16  16
#     4   9  19  34  51  72  96 126 167 214 263 307
#     4   9  18  33  53  76 102 135 173 209 251 304
#     4   9  17  28  43  66  98 134 168 204 247 296
#     4  11  21  33  52  73  98 135 174 214 257 302
#     4  10  19  31  48  69  98 136 174 211 251 301
#     4  10  20  33  50  74 105 137 169 208 251 299
#
# _framework density 17.758417999999999
#
# number of rings (size 3 to 8) (size 9 to 14) (size 15 to 20)
#    0.000    2.333    0.000    7.000    0.000    5.667 
#    0.000    3.333    0.000    0.500    0.000    1.167 
#    0.000    0.000    0.000   14.333    0.000    2.667 
#
# Total GULP energy -267473.251030 kJ/mol
# GULP energy per Si atom -5572.359396 kJ/mol
# Density = 1.771800 g / cm^3
# Si number density = 17.758418 Si / 1000 Ang^3
#
#
#
# Elastic Constant Matrix: (Units=GPa)
#
#
# Indices 1 2 3 4 5 6 
#
# 1 74.5588 26.8019 33.8229 0.0000 0.0000 0.0000
# 2 26.8019 101.8277 9.8490 0.0000 0.0000 0.0000
# 3 33.8229 9.8490 86.1754 0.0000 0.0000 0.0000
# 4 0.0000 0.0000 0.0000 -39.5997 0.0000 0.0000
# 5 0.0000 0.0000 0.0000 0.0000 11.0273 0.0000
# 6 0.0000 0.0000 0.0000 0.0000 0.0000 -46.6192
#
#
#
# Elastic Compliance Matrix: (Units=1/GPa)
#
#
# Indices 1 2 3 4 5 6 
#
# 1 0.017838 -0.004063 -0.006537 0.000000 0.000000 0.000000
# 2 -0.004063 0.010856 0.000354 0.000000 0.000000 0.000000
# 3 -0.006537 0.000354 0.014129 0.000000 0.000000 0.000000
# 4 0.000000 0.000000 0.000000 -0.025253 0.000000 0.000000
# 5 0.000000 0.000000 0.000000 0.000000 0.090684 0.000000
# 6 0.000000 0.000000 0.000000 0.000000 0.000000 -0.021450
#
#
# Mechanical properties :
#
#
# Convention : Reuss Voigt Hill
#
# Bulk Modulus (GPa) = 44.77974 44.83438 44.80706
# Shear Modulus (GPa) = 43.57680 -2.23244 20.67218
#
# Velocity S-wave (km/s) = 4.95903 -1.12243 3.41556
# Velocity P-wave (km/s) = 7.61972 4.86023 6.39069
#
# Compressibility (1/GPa) = 0.02233153
#
# Stress axis : x y z
#
# Youngs Moduli (GPa) = 56.05966 92.11785 70.77411
#
# Poissons Ratio (x) = 0.37426 0.46265
# Poissons Ratio (y) = 0.22776 -0.02505
# Poissons Ratio (z) = 0.36646 -0.03260
#
# Static dielectric constant tensor:
#      x y z
#    x 1.585030 0.000000 0.000000 
#    y 0.000000 1.670940 0.000000 
#    z 0.000000 0.000000 1.616290 
# 
# From -- ./inp_files/53000.got.cif
#   From: 2010.05.17/outbox.cif.g08.bks.cpg/sg71_27_cif.got.tgz:53000.got - 2010.06.03 16:22:01.
