data_PCOD9519917
_publ_section_title
;
Structure prediction by ZEFSAII (Michael W. Deem and Ramdas Pophale) SiO2 
 PCOD9519917
Probable space group: I M M M
;
_chemical_formula_sum "Si O2"
_cell_formula_units_Z 108
_cell_length_a 12.137818
_cell_length_b 34.306542
_cell_length_c 15.885590
_cell_angle_alpha 90.000000
_cell_angle_beta 90.000000
_cell_angle_gamma 90.000000
_cell_volume 6614.863933
_symmetry_space_group_name_H-M "I M M M"
_symmetry_group_IT_number 71
_symmetry_cell_setting 'orthorhombic'
loop_
_space_group_symop_operation_xyz
x,y,z
-x,-y,z
x,-y,-z
-x,y,-z
-x,-y,-z
x,y,-z
-x,y,z
x,-y,z
1/2+x,1/2+y,1/2+z
1/2-x,1/2-y,1/2+z
1/2+x,1/2-y,1/2-z
1/2-x,1/2+y,1/2-z
1/2-x,1/2-y,1/2-z
1/2+x,1/2+y,1/2-z
1/2-x,1/2+y,1/2+z
1/2+x,1/2-y,1/2+z
loop_
_atom_site_type_symbol
_atom_site_label
_atom_site_fract_x
_atom_site_fract_y
_atom_site_fract_z
Si Si1 0.500000 0.821818 0.000000
Si Si2 0.865958 0.597741 0.905525
Si Si3 0.793276 0.329530 0.628566
Si Si4 0.000000 0.955441 0.101726
Si Si5 0.367439 0.954563 0.247030
Si Si6 0.867070 0.677221 0.819766
Si Si7 0.127856 0.758388 0.099288
Si Si8 0.768532 0.917520 0.097698
O O1 0.402281 0.822778 0.073052
O O2 0.830921 0.568970 0.830390
O O3 0.833002 0.641691 0.880360
O O4 0.000000 0.596650 0.906412
O O5 0.828763 0.587625 0.000000
O O6 0.824852 0.330871 0.726524
O O7 0.706246 0.294945 0.614893
O O8 0.741713 0.371030 0.603125
O O9 0.111219 0.932851 0.124232
O O10 0.000000 0.000000 0.133176
O O11 0.000000 0.957160 0.000000
O O12 0.500000 0.951699 0.242721
O O13 0.317380 0.935968 0.162882
O O14 0.337480 0.000000 0.252785
O O15 0.832978 0.719792 0.851990
O O16 0.000000 0.677213 0.818919
O O17 0.000000 0.766674 0.122597
O O18 0.129127 0.749334 0.000000
O O19 0.748223 0.929161 0.000000
#
# Coordination Sequence:
#
# PCOD9519917 Si02
#       8
#     4  16  16   8  16  16  16  16
#     4  12  24  36  54  78 109 158 190 208 275 334
#     4   9  17  31  52  76 105 141 178 218 270 323
#     4  12  22  36  54  79 111 147 184 224 266 332
#     4   9  20  38  56  77 105 142 191 230 267 319
#     4  10  21  34  51  79 112 142 176 220 271 328
#     4  10  19  33  55  78 107 142 181 225 271 321
#     4  10  21  36  54  80 110 139 182 231 274 316
#     4  11  22  35  57  79 109 148 181 224 269 322
#
# _framework density 16.326867
#
# number of rings (size 3 to 8) (size 9 to 14) (size 15 to 20)
#    0.000    1.704    3.704    1.333    2.074    3.259 
#    0.000    2.222    0.000    0.000    0.000    0.519 
#    0.000    1.778    0.000    0.000    0.000    0.000 
#
# Total GULP energy -300619.539137 kJ/mol
# GULP energy per Si atom -5567.028503 kJ/mol
# Density = 1.628971 g / cm^3
# Si number density = 16.326867 Si / 1000 Ang^3
#
#
#
# Elastic Constant Matrix: (Units=GPa)
#
#
# Indices 1 2 3 4 5 6 
#
# 1 47.9542 49.4183 24.3613 0.0001 0.0000 0.0000
# 2 49.4183 121.3335 51.0343 0.0001 0.0000 0.0000
# 3 24.3613 51.0343 113.6932 0.0003 0.0000 0.0000
# 4 0.0001 0.0001 0.0003 15.7429 0.0000 0.0000
# 5 0.0000 0.0000 0.0000 0.0000 13.1809 0.0000
# 6 0.0000 0.0000 0.0000 0.0000 0.0000 15.1964
#
#
#
# Elastic Compliance Matrix: (Units=1/GPa)
#
#
# Indices 1 2 3 4 5 6 
#
# 1 0.036117 -0.014121 -0.001400 0.000000 0.000000 0.000000
# 2 -0.014121 0.015681 -0.004013 0.000000 0.000000 0.000000
# 3 -0.001400 -0.004013 0.010897 0.000000 0.000000 0.000000
# 4 0.000000 0.000000 0.000000 0.063521 0.000000 0.000000
# 5 0.000000 0.000000 0.000000 0.000000 0.075867 0.000000
# 6 0.000000 0.000000 0.000000 0.000000 0.000000 0.065805
#
#
# Mechanical properties :
#
#
# Convention : Reuss Voigt Hill
#
# Bulk Modulus (GPa) = 42.32614 59.17877 50.75245
# Shear Modulus (GPa) = 15.88145 19.36851 17.62498
#
# Velocity S-wave (km/s) = 3.12223 3.44800 3.28915
# Velocity P-wave (km/s) = 6.24326 7.22333 6.75110
#
# Compressibility (1/GPa) = 0.02362606
#
# Stress axis : x y z
#
# Youngs Moduli (GPa) = 27.68784 63.77050 91.76816
#
# Poissons Ratio (x) = 0.90052 0.12849
# Poissons Ratio (y) = 0.39099 0.36828
# Poissons Ratio (z) = 0.03877 0.25592
#
# Static dielectric constant tensor:
#      x y z
#    x 1.526060 0.000000 0.000000 
#    y 0.000000 1.556440 0.000000 
#    z 0.000000 0.000000 1.550100 
# 
# From -- ./inp_files/33312.got.cif
#   From: 2010.05.17/outbox.cif.g08.bks.cpg/sg71_17_cif.got.tgz:33312.got - 2010.06.03 16:22:01.
