data_PCOD9519105
_publ_section_title
;
Structure prediction by ZEFSAII (Michael W. Deem and Ramdas Pophale) SiO2 
 PCOD9519105
Probable space group: I M M M
;
_chemical_formula_sum "Si O2"
_cell_formula_units_Z 112
_cell_length_a 14.023386
_cell_length_b 13.951792
_cell_length_c 30.349409
_cell_angle_alpha 90.000000
_cell_angle_beta 90.000000
_cell_angle_gamma 90.000000
_cell_volume 5937.903286
_symmetry_space_group_name_H-M "I M M M"
_symmetry_group_IT_number 71
_symmetry_cell_setting 'orthorhombic'
loop_
_space_group_symop_operation_xyz
x,y,z
-x,-y,z
x,-y,-z
-x,y,-z
-x,-y,-z
x,y,-z
-x,y,z
x,-y,z
1/2+x,1/2+y,1/2+z
1/2-x,1/2-y,1/2+z
1/2+x,1/2-y,1/2-z
1/2-x,1/2+y,1/2-z
1/2-x,1/2-y,1/2-z
1/2+x,1/2+y,1/2-z
1/2-x,1/2+y,1/2+z
1/2+x,1/2-y,1/2+z
loop_
_atom_site_type_symbol
_atom_site_label
_atom_site_fract_x
_atom_site_fract_y
_atom_site_fract_z
Si Si1 0.394631 0.734095 0.550159
Si Si2 0.189454 0.313244 0.448763
Si Si3 0.389347 0.605714 0.053279
Si Si4 0.385939 0.243135 0.784688
Si Si5 0.108536 0.608903 0.125589
Si Si6 0.886525 0.395605 0.361909
Si Si7 0.780351 0.613328 0.214415
O O1 0.388548 0.772679 0.500000
O O2 0.500000 0.689824 0.555167
O O3 0.302353 0.668180 0.555100
O O4 0.385660 0.817938 0.585547
O O5 0.160505 0.326702 0.500000
O O6 0.168980 0.201369 0.436485
O O7 0.136071 0.374927 0.412645
O O8 0.500000 0.618550 0.067331
O O9 0.356758 0.500000 0.069222
O O10 0.389710 0.601193 0.000000
O O11 0.500000 0.258095 0.784059
O O12 0.355088 0.189732 0.829941
O O13 0.323498 0.339016 0.780286
O O14 0.352065 0.170770 0.746345
O O15 0.121395 0.500000 0.109715
O O16 0.182024 0.627427 0.164670
O O17 0.000000 0.615806 0.143733
O O18 0.847204 0.500000 0.348910
O O19 0.000000 0.398827 0.356575
O O20 0.781016 0.500000 0.223681
#
# Coordination Sequence:
#
# PCOD9519105 Si02
#       7
#    16  16  16  16  16  16  16
#     4   9  18  31  46  67  98 135 171 210 260 313
#     4  10  19  31  49  71  97 133 177 223 267 311
#     4   8  14  25  41  62  89 121 158 201 250 306
#     4  10  21  37  57  82 113 147 179 214 263 321
#     4   9  17  29  47  72 100 131 172 220 263 308
#     4  10  21  36  54  77 105 136 171 213 263 321
#     4  10  20  35  58  85 110 140 180 223 265 312
#
# _framework density 18.861877
#
# number of rings (size 3 to 8) (size 9 to 14) (size 15 to 20)
#    0.000    2.571    0.000    2.571    0.000    3.714 
#    0.000    4.286    0.000    1.286    0.000    2.000 
#    0.000    0.000    0.000    0.000    0.000    0.000 
#
# Total GULP energy -312077.012200 kJ/mol
# GULP energy per Si atom -5572.803789 kJ/mol
# Density = 1.881895 g / cm^3
# Si number density = 18.861877 Si / 1000 Ang^3
#
#
#
# Elastic Constant Matrix: (Units=GPa)
#
#
# Indices 1 2 3 4 5 6 
#
# 1 59.0577 11.1240 -8.8110 0.0000 0.0000 0.0000
# 2 11.1240 33.4000 -5.2624 0.0000 0.0000 0.0000
# 3 -8.8110 -5.2624 30.2040 0.0000 0.0000 0.0000
# 4 0.0000 0.0000 0.0000 76.0517 0.0000 0.0000
# 5 0.0000 0.0000 0.0000 0.0000 23.3898 0.0000
# 6 0.0000 0.0000 0.0000 0.0000 0.0000 9.5375
#
#
#
# Elastic Compliance Matrix: (Units=1/GPa)
#
#
# Indices 1 2 3 4 5 6 
#
# 1 0.018637 -0.005502 0.004478 0.000000 0.000000 0.000000
# 2 -0.005502 0.032409 0.004042 0.000000 0.000000 0.000000
# 3 0.004478 0.004042 0.035119 0.000000 0.000000 0.000000
# 4 0.000000 0.000000 0.000000 0.013149 0.000000 0.000000
# 5 0.000000 0.000000 0.000000 0.000000 0.042754 0.000000
# 6 0.000000 0.000000 0.000000 0.000000 0.000000 0.104849
#
#
# Mechanical properties :
#
#
# Convention : Reuss Voigt Hill
#
# Bulk Modulus (GPa) = 10.84578 12.97365 11.90971
# Shear Modulus (GPa) = 18.40846 30.16987 24.28917
#
# Velocity S-wave (km/s) = 3.12743 4.00373 3.59240
# Velocity P-wave (km/s) = 4.33632 5.31661 4.85129
#
# Compressibility (1/GPa) = 0.09220177
#
# Stress axis : x y z
#
# Youngs Moduli (GPa) = 53.65677 30.85537 28.47480
#
# Poissons Ratio (x) = 0.16975 -0.12752
# Poissons Ratio (y) = 0.29520 -0.11509
# Poissons Ratio (z) = -0.24029 -0.12471
#
# Static dielectric constant tensor:
#      x y z
#    x 1.689440 0.000000 0.000000 
#    y 0.000000 1.667330 0.000000 
#    z 0.000000 0.000000 1.645740 
# 
# From -- ./inp_files/33296.got.cif
#   From: 2010.05.17/outbox.cif.g08.bks.cpg/sg71_17_cif.got.tgz:33296.got - 2010.06.03 16:22:01.
