data_PCOD9519429
_publ_section_title
;
Structure prediction by ZEFSAII (Michael W. Deem and Ramdas Pophale) SiO2 
 PCOD9519429
Probable space group: I M M M
;
_chemical_formula_sum "Si O2"
_cell_formula_units_Z 104
_cell_length_a 19.987209
_cell_length_b 9.797200
_cell_length_c 30.685611
_cell_angle_alpha 90.000000
_cell_angle_beta 90.000000
_cell_angle_gamma 90.000000
_cell_volume 6008.815964
_symmetry_space_group_name_H-M "I M M M"
_symmetry_group_IT_number 71
_symmetry_cell_setting 'orthorhombic'
loop_
_space_group_symop_operation_xyz
x,y,z
-x,-y,z
x,-y,-z
-x,y,-z
-x,-y,-z
x,y,-z
-x,y,z
x,-y,z
1/2+x,1/2+y,1/2+z
1/2-x,1/2-y,1/2+z
1/2+x,1/2-y,1/2-z
1/2-x,1/2+y,1/2-z
1/2-x,1/2-y,1/2-z
1/2+x,1/2+y,1/2-z
1/2-x,1/2+y,1/2+z
1/2+x,1/2-y,1/2+z
loop_
_atom_site_type_symbol
_atom_site_label
_atom_site_fract_x
_atom_site_fract_y
_atom_site_fract_z
Si Si1 0.144785 0.333422 0.870285
Si Si2 0.000000 0.335653 0.735261
Si Si3 0.256750 0.842994 0.707907
Si Si4 0.736438 0.834954 0.550367
Si Si5 0.897431 0.847944 0.684464
Si Si6 0.500000 0.165410 0.338418
Si Si7 0.500000 0.148273 0.050772
Si Si8 0.386448 0.657132 0.917737
O O1 0.145310 0.500000 0.871102
O O2 0.190818 0.295136 0.828726
O O3 0.179724 0.287368 0.915341
O O4 0.068763 0.288230 0.861321
O O5 0.936320 0.266016 0.711679
O O6 0.000000 0.500000 0.730692
O O7 0.000000 0.301955 0.786831
O O8 0.250000 0.750000 0.750000
O O9 0.182311 0.842457 0.688797
O O10 0.274584 0.000000 0.719373
O O11 0.732015 0.786110 0.500000
O O12 0.809301 0.808003 0.571596
O O13 0.730986 0.000000 0.548582
O O14 0.907193 0.837386 0.632891
O O15 0.919108 0.000000 0.699030
O O16 0.500000 0.000000 0.340663
O O17 0.434864 0.235849 0.060660
O O18 0.500000 0.000000 0.073365
O O19 0.500000 0.128739 0.000000
O O20 0.396547 0.500000 0.932567
#
# Coordination Sequence:
#
# PCOD9519429 Si02
#       8
#    16   8  16  16  16   8   8  16
#     4   9  16  30  48  70 100 132 167 210 259 309
#     4  11  22  34  49  75 105 140 183 216 252 313
#     4  10  19  32  51  74 104 138 175 214 255 303
#     4   9  16  28  50  76  98 126 171 222 262 301
#     4  10  20  34  51  73 102 137 173 216 262 301
#     4   9  18  30  47  69  99 137 169 204 257 315
#     4  11  24  37  48  70 105 139 168 207 262 312
#     4  10  19  34  54  76  99 132 179 219 255 303
#
# _framework density 17.307901999999999
#
# number of rings (size 3 to 8) (size 9 to 14) (size 15 to 20)
#    0.000    2.231    1.538    2.308    0.000    5.538 
#    0.000    0.385    0.000    2.308    0.000    0.000 
#    0.000    0.000    0.000    0.000    0.000   19.154 
#
# Total GULP energy -289723.822942 kJ/mol
# GULP energy per Si atom -5571.611980 kJ/mol
# Density = 1.726851 g / cm^3
# Si number density = 17.307902 Si / 1000 Ang^3
#
#
#
# Elastic Constant Matrix: (Units=GPa)
#
#
# Indices 1 2 3 4 5 6 
#
# 1 136.8270 39.0312 56.9466 0.0000 0.0000 0.0000
# 2 39.0312 54.1336 39.0397 0.0000 0.0000 0.0000
# 3 56.9466 39.0397 99.2914 0.0000 0.0000 0.0000
# 4 0.0000 0.0000 0.0000 18.8597 0.0000 0.0000
# 5 0.0000 0.0000 0.0000 0.0000 77.0212 0.0000
# 6 0.0000 0.0000 0.0000 0.0000 0.0000 7.1353
#
#
#
# Elastic Compliance Matrix: (Units=1/GPa)
#
#
# Indices 1 2 3 4 5 6 
#
# 1 0.010306 -0.004422 -0.004172 0.000000 0.000000 0.000000
# 2 -0.004422 0.027681 -0.008348 0.000000 0.000000 0.000000
# 3 -0.004172 -0.008348 0.015746 0.000000 0.000000 0.000000
# 4 0.000000 0.000000 0.000000 0.053023 0.000000 0.000000
# 5 0.000000 0.000000 0.000000 0.000000 0.012983 0.000000
# 6 0.000000 0.000000 0.000000 0.000000 0.000000 0.140147
#
#
# Mechanical properties :
#
#
# Convention : Reuss Voigt Hill
#
# Bulk Modulus (GPa) = 50.37764 62.25409 56.31587
# Shear Modulus (GPa) = 16.64507 30.95221 23.79864
#
# Velocity S-wave (km/s) = 3.10450 4.23345 3.71214
# Velocity P-wave (km/s) = 6.48232 7.74227 7.14014
#
# Compressibility (1/GPa) = 0.01985008
#
# Stress axis : x y z
#
# Youngs Moduli (GPa) = 97.02646 36.12545 63.50630
#
# Poissons Ratio (x) = 0.15975 0.26497
# Poissons Ratio (y) = 0.42906 0.53012
# Poissons Ratio (z) = 0.40483 0.30156
#
# Static dielectric constant tensor:
#      x y z
#    x 1.602510 0.000000 0.000000 
#    y 0.000000 1.599320 0.000000 
#    z 0.000000 0.000000 27.005870 
# 
# From -- ./inp_files/66476.got.cif
#   From: 2010.05.17/outbox.cif.g08.bks.cpg/sg71_34_cif.got.tgz:66476.got - 2010.06.03 16:22:01.
