data_PCOD9519359
_publ_section_title
;
Structure prediction by ZEFSAII (Michael W. Deem and Ramdas Pophale) SiO2 
 PCOD9519359
Probable space group: I M M M
;
_chemical_formula_sum "Si O2"
_cell_formula_units_Z 80
_cell_length_a 18.920158
_cell_length_b 13.456890
_cell_length_c 19.064590
_cell_angle_alpha 90.000000
_cell_angle_beta 90.000000
_cell_angle_gamma 90.000000
_cell_volume 4853.968248
_symmetry_space_group_name_H-M "I M M M"
_symmetry_group_IT_number 71
_symmetry_cell_setting 'orthorhombic'
loop_
_space_group_symop_operation_xyz
x,y,z
-x,-y,z
x,-y,-z
-x,y,-z
-x,-y,-z
x,y,-z
-x,y,z
x,-y,z
1/2+x,1/2+y,1/2+z
1/2-x,1/2-y,1/2+z
1/2+x,1/2-y,1/2-z
1/2-x,1/2+y,1/2-z
1/2-x,1/2-y,1/2-z
1/2+x,1/2+y,1/2-z
1/2-x,1/2+y,1/2+z
1/2+x,1/2-y,1/2+z
loop_
_atom_site_type_symbol
_atom_site_label
_atom_site_fract_x
_atom_site_fract_y
_atom_site_fract_z
Si Si1 0.418861 0.887883 0.084127
Si Si2 0.299815 0.116081 0.312306
Si Si3 0.832715 0.113436 0.917902
Si Si4 0.082466 0.690198 0.917433
Si Si5 0.202247 0.288510 0.338680
O O1 0.500000 0.873167 0.105969
O O2 0.365860 0.808646 0.114994
O O3 0.397044 0.000000 0.106333
O O4 0.416789 0.886038 0.000000
O O5 0.363950 0.131944 0.366934
O O6 0.231249 0.176385 0.339382
O O7 0.315126 0.172214 0.239090
O O8 0.287583 0.000000 0.301088
O O9 0.894731 0.194083 0.909128
O O10 0.767198 0.147043 0.870152
O O11 0.853306 0.000000 0.903049
O O12 0.810557 0.118691 0.000000
O O13 0.000000 0.674971 0.900846
O O14 0.093125 0.664918 0.000000
#
# Coordination Sequence:
#
# PCOD9519359 Si02
#       5
#    16  16  16  16  16
#     4   9  17  29  48  75 102 125 149 182 230 282
#     4  10  21  34  49  70  92 120 159 196 233 276
#     4   9  16  27  48  75  98 124 156 188 229 279
#     4   9  19  34  48  66  95 127 160 198 235 271
#     4  10  19  32  50  70  96 124 151 191 234 275
#
# _framework density 16.481359999999999
#
# number of rings (size 3 to 8) (size 9 to 14) (size 15 to 20)
#    0.000    2.600    0.000    3.000    0.000    4.400 
#    0.000    3.000    0.000    0.600    0.000    1.400 
#    0.000    0.000    0.000    0.000    0.000    0.000 
#
# Total GULP energy -222922.673161 kJ/mol
# GULP energy per Si atom -5573.066829 kJ/mol
# Density = 1.644385 g / cm^3
# Si number density = 16.481360 Si / 1000 Ang^3
#
#
#
# Elastic Constant Matrix: (Units=GPa)
#
#
# Indices 1 2 3 4 5 6 
#
# 1 79.5443 24.4188 38.0764 0.0000 0.0000 0.0000
# 2 24.4188 72.9755 15.3007 0.0000 0.0000 0.0000
# 3 38.0764 15.3007 45.8146 0.0000 0.0000 0.0000
# 4 0.0000 0.0000 0.0000 19.6539 0.0000 0.0000
# 5 0.0000 0.0000 0.0000 0.0000 1040.0827 0.0000
# 6 0.0000 0.0000 0.0000 0.0000 0.0000 13.7156
#
#
#
# Elastic Compliance Matrix: (Units=1/GPa)
#
#
# Indices 1 2 3 4 5 6 
#
# 1 0.021795 -0.003758 -0.016859 0.000000 0.000000 0.000000
# 2 -0.003758 0.015383 -0.002014 0.000000 0.000000 0.000000
# 3 -0.016859 -0.002014 0.036511 0.000000 0.000000 0.000000
# 4 0.000000 0.000000 0.000000 0.050880 0.000000 0.000000
# 5 0.000000 0.000000 0.000000 0.000000 0.000961 0.000000
# 6 0.000000 0.000000 0.000000 0.000000 0.000000 0.072910
#
#
# Mechanical properties :
#
#
# Convention : Reuss Voigt Hill
#
# Bulk Modulus (GPa) = 35.17760 39.32513 37.25136
# Shear Modulus (GPa) = 19.74884 222.72635 121.23760
#
# Velocity S-wave (km/s) = 3.46533 11.63751 8.58604
# Velocity P-wave (km/s) = 6.11568 14.29992 10.99749
#
# Compressibility (1/GPa) = 0.02842718
#
# Stress axis : x y z
#
# Youngs Moduli (GPa) = 45.88119 65.00642 27.38893
#
# Poissons Ratio (x) = 0.24432 0.46175
# Poissons Ratio (y) = 0.17244 0.05516
# Poissons Ratio (z) = 0.77351 0.13092
#
# Static dielectric constant tensor:
#      x y z
#    x 1.533510 0.000000 0.000000 
#    y 0.000000 1.557580 0.000000 
#    z 0.000000 0.000000 1.567730 
# 
# From -- ./inp_files/36472.got.cif
#   From: 2010.05.17/outbox.cif.g08.bks.cpg/sg71_19_cif.got.tgz:36472.got - 2010.06.03 16:22:01.
