data_PCOD9519714
_publ_section_title
;
Structure prediction by ZEFSAII (Michael W. Deem and Ramdas Pophale) SiO2 
 PCOD9519714
Probable space group: I M M M
;
_chemical_formula_sum "Si O2"
_cell_formula_units_Z 92
_cell_length_a 24.800898
_cell_length_b 7.609144
_cell_length_c 29.245376
_cell_angle_alpha 90.000000
_cell_angle_beta 90.000000
_cell_angle_gamma 90.000000
_cell_volume 5519.000311
_symmetry_space_group_name_H-M "I M M M"
_symmetry_group_IT_number 71
_symmetry_cell_setting 'orthorhombic'
loop_
_space_group_symop_operation_xyz
x,y,z
-x,-y,z
x,-y,-z
-x,y,-z
-x,-y,-z
x,y,-z
-x,y,z
x,-y,z
1/2+x,1/2+y,1/2+z
1/2-x,1/2-y,1/2+z
1/2+x,1/2-y,1/2-z
1/2-x,1/2+y,1/2-z
1/2-x,1/2-y,1/2-z
1/2+x,1/2+y,1/2-z
1/2-x,1/2+y,1/2+z
1/2+x,1/2-y,1/2+z
loop_
_atom_site_type_symbol
_atom_site_label
_atom_site_fract_x
_atom_site_fract_y
_atom_site_fract_z
Si Si1 0.438721 0.711629 0.292035
Si Si2 0.896251 0.205670 0.111142
Si Si3 0.254419 0.000000 0.500000
Si Si4 0.747894 0.796072 0.673535
Si Si5 0.331544 0.208462 0.752617
Si Si6 0.218982 0.795576 0.924790
Si Si7 0.000000 0.711263 0.052159
O O1 0.500000 0.775088 0.285148
O O2 0.441779 0.500000 0.295605
O O3 0.414265 0.781988 0.339972
O O4 0.394380 0.754170 0.253992
O O5 0.841879 0.270641 0.087521
O O6 0.946970 0.225604 0.078070
O O7 0.885544 0.000000 0.119100
O O8 0.256937 0.843215 0.460140
O O9 0.701608 0.723648 0.708015
O O10 0.802701 0.782567 0.702580
O O11 0.748307 0.706370 0.624511
O O12 0.735495 0.000000 0.665140
O O13 0.323079 0.000000 0.753849
O O14 0.216938 0.000000 0.940974
O O15 0.000000 0.500000 0.052850
O O16 0.000000 0.771619 0.000000
#
# Coordination Sequence:
#
# PCOD9519714 Si02
#       7
#    16  16   4  16  16  16   8
#     4  10  19  33  50  70  99 136 175 218 272 330
#     4  10  21  36  51  67  91 128 174 226 277 322
#     4  12  26  40  56  75 110 140 181 234 280 332
#     4  10  19  34  54  78 107 138 172 224 274 324
#     4  10  20  31  51  79 106 135 175 219 271 333
#     4  11  23  38  58  78 103 139 181 227 278 331
#     4  11  25  35  47  63  85 121 171 229 282 326
#
# _framework density 16.669685999999999
#
# number of rings (size 3 to 8) (size 9 to 14) (size 15 to 20)
#    0.000    1.652    3.478    1.565    2.435    3.130 
#    0.000    0.000    0.000    0.000    0.000    0.000 
#    0.000    0.000    0.000    1.565    0.000    6.696 
#
# Total GULP energy -256190.473603 kJ/mol
# GULP energy per Si atom -5569.358122 kJ/mol
# Density = 1.663174 g / cm^3
# Si number density = 16.669686 Si / 1000 Ang^3
#
#
#
# Elastic Constant Matrix: (Units=GPa)
#
#
# Indices 1 2 3 4 5 6 
#
# 1 44.3225 -3.7335 29.6599 0.0000 0.0000 0.0000
# 2 -3.7335 74.9396 15.7726 0.0000 0.0000 0.0000
# 3 29.6599 15.7726 95.5423 0.0000 0.0000 0.0000
# 4 0.0000 0.0000 0.0000 26.1357 0.0000 0.0000
# 5 0.0000 0.0000 0.0000 0.0000 -13.5086 0.0000
# 6 0.0000 0.0000 0.0000 0.0000 0.0000 11.9717
#
#
#
# Elastic Compliance Matrix: (Units=1/GPa)
#
#
# Indices 1 2 3 4 5 6 
#
# 1 0.029338 0.003500 -0.009685 0.000000 0.000000 0.000000
# 2 0.003500 0.014242 -0.003438 0.000000 0.000000 0.000000
# 3 -0.009685 -0.003438 0.014041 0.000000 0.000000 0.000000
# 4 0.000000 0.000000 0.000000 0.038262 0.000000 0.000000
# 5 0.000000 0.000000 0.000000 0.000000 -0.074027 0.000000
# 6 0.000000 0.000000 0.000000 0.000000 0.000000 0.083531
#
#
# Mechanical properties :
#
#
# Convention : Reuss Voigt Hill
#
# Bulk Modulus (GPa) = 26.05875 33.13360 29.59618
# Shear Modulus (GPa) = 36.38367 16.46011 26.42189
#
# Velocity S-wave (km/s) = 4.67693 3.14575 3.98556
# Velocity P-wave (km/s) = 6.69561 5.75448 6.24280
#
# Compressibility (1/GPa) = 0.03837482
#
# Stress axis : x y z
#
# Youngs Moduli (GPa) = 34.08540 70.21493 71.22100
#
# Poissons Ratio (x) = -0.24576 0.68981
# Poissons Ratio (y) = -0.11930 0.24484
# Poissons Ratio (z) = 0.33013 0.24138
#
# Static dielectric constant tensor:
#      x y z
#    x 1.560170 0.000000 0.000000 
#    y 0.000000 1.619590 0.000000 
#    z 0.000000 0.000000 1.563850 
# 
# From -- ./inp_files/13172.got.cif
#   From: 2010.05.17/outbox.cif.g08.bks.cpg/sg71_7_cif.got.tgz:13172.got - 2010.06.03 16:22:01.
