data_PCOD9519207
_publ_section_title
;
Structure prediction by ZEFSAII (Michael W. Deem and Ramdas Pophale) SiO2 
 PCOD9519207
Probable space group: I M M M
;
_chemical_formula_sum "Si O2"
_cell_formula_units_Z 88
_cell_length_a 8.585926
_cell_length_b 18.154683
_cell_length_c 29.982189
_cell_angle_alpha 90.000000
_cell_angle_beta 90.000000
_cell_angle_gamma 90.000000
_cell_volume 4673.466658
_symmetry_space_group_name_H-M "I M M M"
_symmetry_group_IT_number 71
_symmetry_cell_setting 'orthorhombic'
loop_
_space_group_symop_operation_xyz
x,y,z
-x,-y,z
x,-y,-z
-x,y,-z
-x,-y,-z
x,y,-z
-x,y,z
x,-y,z
1/2+x,1/2+y,1/2+z
1/2-x,1/2-y,1/2+z
1/2+x,1/2-y,1/2-z
1/2-x,1/2+y,1/2-z
1/2-x,1/2-y,1/2-z
1/2+x,1/2+y,1/2-z
1/2-x,1/2+y,1/2+z
1/2+x,1/2-y,1/2+z
loop_
_atom_site_type_symbol
_atom_site_label
_atom_site_fract_x
_atom_site_fract_y
_atom_site_fract_z
Si Si1 0.190352 0.584468 0.385751
Si Si2 0.811762 0.285220 0.448910
Si Si3 0.813767 0.645821 0.895756
Si Si4 0.315100 0.414068 0.806476
Si Si5 0.320396 0.910461 0.212313
Si Si6 0.310239 0.000000 0.448737
O O1 0.240893 0.500000 0.392518
O O2 0.238968 0.639737 0.424438
O O3 0.240145 0.612074 0.336491
O O4 0.000000 0.583451 0.384324
O O5 0.756796 0.279984 0.500000
O O6 0.755559 0.216915 0.419581
O O7 0.000000 0.285071 0.449519
O O8 0.762131 0.634151 0.844902
O O9 0.759863 0.573067 0.922767
O O10 0.000000 0.649120 0.897986
O O11 0.500000 0.412704 0.811972
O O12 0.262118 0.500000 0.811305
O O13 0.271666 0.389231 0.756539
O O14 0.500000 0.886853 0.217108
O O15 0.319726 0.000000 0.210553
O O16 0.500000 0.000000 0.448829
O O17 0.258300 0.000000 0.500000
#
# Coordination Sequence:
#
# PCOD9519207 Si02
#       6
#    16  16  16  16  16   8
#     4   8  15  31  56  83 108 138 177 218 259 314
#     4  10  21  36  54  79 111 141 172 219 276 320
#     4  11  21  35  54  75 104 142 185 223 260 312
#     4  10  19  31  50  78 111 140 171 216 269 317
#     4   8  14  27  50  77 104 136 176 215 254 306
#     4   9  18  32  51  73  95 127 177 227 258 295
#
# _framework density 18.829706000000002
#
# number of rings (size 3 to 8) (size 9 to 14) (size 15 to 20)
#    0.000    2.636    0.909    2.727    0.000    2.182 
#    0.000    3.636    0.000    3.818    0.000    1.273 
#    0.000    0.000    0.000    0.000    0.000    0.000 
#
# Total GULP energy -245396.001437 kJ/mol
# GULP energy per Si atom -5577.181851 kJ/mol
# Density = 1.878685 g / cm^3
# Si number density = 18.829706 Si / 1000 Ang^3
#
#
#
# Elastic Constant Matrix: (Units=GPa)
#
#
# Indices 1 2 3 4 5 6 
#
# 1 13.5204 14.5313 23.9011 0.0000 0.0000 0.0000
# 2 14.5313 92.5135 63.3521 0.0000 0.0000 0.0000
# 3 23.9011 63.3521 127.0769 0.0000 0.0000 0.0000
# 4 0.0000 0.0000 0.0000 272.9702 0.0000 0.0000
# 5 0.0000 0.0000 0.0000 0.0000 16.4207 0.0000
# 6 0.0000 0.0000 0.0000 0.0000 0.0000 14.2273
#
#
#
# Elastic Compliance Matrix: (Units=1/GPa)
#
#
# Indices 1 2 3 4 5 6 
#
# 1 0.112200 -0.004817 -0.018702 0.000000 0.000000 0.000000
# 2 -0.004817 0.016619 -0.007379 0.000000 0.000000 0.000000
# 3 -0.018702 -0.007379 0.015065 0.000000 0.000000 0.000000
# 4 0.000000 0.000000 0.000000 0.003663 0.000000 0.000000
# 5 0.000000 0.000000 0.000000 0.000000 0.060899 0.000000
# 6 0.000000 0.000000 0.000000 0.000000 0.000000 0.070287
#
#
# Mechanical properties :
#
#
# Convention : Reuss Voigt Hill
#
# Bulk Modulus (GPa) = 12.18189 48.51998 30.35094
# Shear Modulus (GPa) = 13.59094 69.47872 41.53483
#
# Velocity S-wave (km/s) = 2.68951 6.08100 4.70170
# Velocity P-wave (km/s) = 4.01599 8.66767 6.75488
#
# Compressibility (1/GPa) = 0.08208905
#
# Stress axis : x y z
#
# Youngs Moduli (GPa) = 8.91267 60.17220 66.37712
#
# Poissons Ratio (x) = 0.28985 1.24135
# Poissons Ratio (y) = 0.04293 0.48980
# Poissons Ratio (z) = 0.16668 0.44402
#
# Static dielectric constant tensor:
#      x y z
#    x 1.637770 0.000000 0.000000 
#    y 0.000000 1.643230 0.000000 
#    z 0.000000 0.000000 1.658360 
# 
# From -- ./inp_files/16659.got.cif
#   From: 2010.05.17/outbox.cif.g08.bks.cpg/sg71_9_cif.got.tgz:16659.got - 2010.06.03 16:22:01.
