data_PCOD9519194
_publ_section_title
;
Structure prediction by ZEFSAII (Michael W. Deem and Ramdas Pophale) SiO2 
 PCOD9519194
Probable space group: I M M M
;
_chemical_formula_sum "Si O2"
_cell_formula_units_Z 88
_cell_length_a 7.791508
_cell_length_b 28.842889
_cell_length_c 20.106006
_cell_angle_alpha 90.000000
_cell_angle_beta 90.000000
_cell_angle_gamma 90.000000
_cell_volume 4518.414694
_symmetry_space_group_name_H-M "I M M M"
_symmetry_group_IT_number 71
_symmetry_cell_setting 'orthorhombic'
loop_
_space_group_symop_operation_xyz
x,y,z
-x,-y,z
x,-y,-z
-x,y,-z
-x,-y,-z
x,y,-z
-x,y,z
x,-y,z
1/2+x,1/2+y,1/2+z
1/2-x,1/2-y,1/2+z
1/2+x,1/2-y,1/2-z
1/2-x,1/2+y,1/2-z
1/2-x,1/2-y,1/2-z
1/2+x,1/2+y,1/2-z
1/2-x,1/2+y,1/2+z
1/2+x,1/2-y,1/2+z
loop_
_atom_site_type_symbol
_atom_site_label
_atom_site_fract_x
_atom_site_fract_y
_atom_site_fract_z
Si Si1 0.295364 0.415977 0.171921
Si Si2 0.295168 0.314001 0.188112
Si Si3 0.291986 0.787386 0.838001
Si Si4 0.710258 0.128206 0.075308
Si Si5 0.294404 0.948267 0.179861
Si Si6 0.703937 0.000000 0.424894
O O1 0.500000 0.413016 0.173902
O O2 0.226920 0.363409 0.162662
O O3 0.237895 0.433222 0.244488
O O4 0.251053 0.454090 0.116791
O O5 0.500000 0.314076 0.177339
O O6 0.228073 0.265574 0.157977
O O7 0.262894 0.308915 0.267153
O O8 0.500000 0.786263 0.837283
O O9 0.236979 0.821860 0.896035
O O10 0.500000 0.127565 0.075588
O O11 0.770643 0.089152 0.126990
O O12 0.766317 0.120316 0.000000
O O13 0.500000 0.949952 0.171480
O O14 0.225399 0.000000 0.169165
O O15 0.500000 0.000000 0.429619
O O16 0.776222 0.000000 0.500000
#
# Coordination Sequence:
#
# PCOD9519194 Si02
#       6
#    16  16  16  16  16   8
#     4  11  21  34  55  82 110 138 171 216 268 321
#     4   9  18  30  48  77 106 132 170 219 267 311
#     4   9  16  29  49  73 102 137 178 220 262 307
#     4   9  17  29  47  73 105 141 181 223 263 304
#     4  10  19  31  50  76 104 137 179 221 263 311
#     4  11  25  43  61  81 106 137 174 215 263 322
#
# _framework density 19.475857999999999
#
# number of rings (size 3 to 8) (size 9 to 14) (size 15 to 20)
#    0.000    2.273    2.727    0.818    0.000    1.818 
#    0.000    2.727    0.000    5.455    0.000    1.273 
#    0.000    0.000    0.000    0.000    0.000    0.000 
#
# Total GULP energy -245438.689900 kJ/mol
# GULP energy per Si atom -5578.152043 kJ/mol
# Density = 1.943153 g / cm^3
# Si number density = 19.475858 Si / 1000 Ang^3
#
#
#
# Elastic Constant Matrix: (Units=GPa)
#
#
# Indices 1 2 3 4 5 6 
#
# 1 16.9198 6.1680 -10.0430 0.0000 0.0000 0.0000
# 2 6.1680 206.4166 96.2999 0.0000 0.0000 0.0000
# 3 -10.0430 96.2999 135.7182 0.0000 0.0000 0.0000
# 4 0.0000 0.0000 0.0000 27.4443 0.0000 0.0000
# 5 0.0000 0.0000 0.0000 0.0000 -1.0103 0.0000
# 6 0.0000 0.0000 0.0000 0.0000 0.0000 13.6342
#
#
#
# Elastic Compliance Matrix: (Units=1/GPa)
#
#
# Indices 1 2 3 4 5 6 
#
# 1 0.067129 -0.006463 0.009553 0.000000 0.000000 0.000000
# 2 -0.006463 0.007864 -0.006058 0.000000 0.000000 0.000000
# 3 0.009553 -0.006058 0.012374 0.000000 0.000000 0.000000
# 4 0.000000 0.000000 0.000000 0.036437 0.000000 0.000000
# 5 0.000000 0.000000 0.000000 0.000000 -0.989836 0.000000
# 6 0.000000 0.000000 0.000000 0.000000 0.000000 0.073345
#
#
# Mechanical properties :
#
#
# Convention : Reuss Voigt Hill
#
# Bulk Modulus (GPa) = 12.28034 60.43382 36.35708
# Shear Modulus (GPa) = -6.58235 25.78895 9.60330
#
# Velocity S-wave (km/s) = -1.84040 3.64283 2.22297
# Velocity P-wave (km/s) = 1.34275 6.98507 5.02962
#
# Compressibility (1/GPa) = 0.08143099
#
# Stress axis : x y z
#
# Youngs Moduli (GPa) = 14.89673 127.16114 80.81597
#
# Poissons Ratio (x) = 0.82181 -0.77205
# Poissons Ratio (y) = 0.09627 0.48960
# Poissons Ratio (z) = -0.14231 0.77037
#
# Static dielectric constant tensor:
#      x y z
#    x 1.713180 0.000000 0.000000 
#    y 0.000000 1.724020 0.000000 
#    z 0.000000 0.000000 1.648860 
# 
# From -- ./inp_files/42433.got.cif
#   From: 2010.05.17/outbox.cif.g08.bks.cpg/sg71_22_cif.got.tgz:42433.got - 2010.06.03 16:22:01.
