data_PCOD9519921
_publ_section_title
;
Structure prediction by ZEFSAII (Michael W. Deem and Ramdas Pophale) SiO2 
 PCOD9519921
Probable space group: I M M M
;
_chemical_formula_sum "Si O2"
_cell_formula_units_Z 120
_cell_length_a 14.044453
_cell_length_b 20.525075
_cell_length_c 19.859909
_cell_angle_alpha 90.000000
_cell_angle_beta 90.000000
_cell_angle_gamma 90.000000
_cell_volume 5724.885908
_symmetry_space_group_name_H-M "I M M M"
_symmetry_group_IT_number 71
_symmetry_cell_setting 'orthorhombic'
loop_
_space_group_symop_operation_xyz
x,y,z
-x,-y,z
x,-y,-z
-x,y,-z
-x,-y,-z
x,y,-z
-x,y,z
x,-y,z
1/2+x,1/2+y,1/2+z
1/2-x,1/2-y,1/2+z
1/2+x,1/2-y,1/2-z
1/2-x,1/2+y,1/2-z
1/2-x,1/2-y,1/2-z
1/2+x,1/2+y,1/2-z
1/2-x,1/2+y,1/2+z
1/2+x,1/2-y,1/2+z
loop_
_atom_site_type_symbol
_atom_site_label
_atom_site_fract_x
_atom_site_fract_y
_atom_site_fract_z
Si Si1 0.893447 0.252914 0.684309
Si Si2 0.327335 0.703690 0.671686
Si Si3 0.107133 0.577969 0.572654
Si Si4 0.885777 0.000000 0.577153
Si Si5 0.863790 0.315277 0.075859
Si Si6 0.145354 0.855704 0.422390
Si Si7 0.395100 0.075535 0.314917
Si Si8 0.749452 0.923815 0.195539
O O1 0.788484 0.284307 0.669069
O O2 0.874785 0.232085 0.761100
O O3 0.899212 0.193128 0.631458
O O4 0.000000 0.284576 0.681666
O O5 0.372009 0.744593 0.610659
O O6 0.333872 0.626035 0.679955
O O7 0.142648 0.603354 0.500000
O O8 0.099647 0.500000 0.567375
O O9 0.175760 0.586621 0.634529
O O10 0.000000 0.603169 0.582166
O O11 0.855650 0.929975 0.605011
O O12 0.849318 0.000000 0.500000
O O13 0.000000 0.000000 0.576587
O O14 0.752358 0.331390 0.071953
O O15 0.898340 0.372511 0.125328
O O16 0.900318 0.317418 0.000000
O O17 0.106440 0.855793 0.500000
O O18 0.500000 0.077116 0.280743
O O19 0.310367 0.092099 0.263320
O O20 0.381425 0.000000 0.337397
O O21 0.775599 0.000000 0.198549
#
# Coordination Sequence:
#
# PCOD9519921 Si02
#       8
#    16  16  16   8  16  16  16  16
#     4  10  20  36  57  77 105 146 183 227 280 326
#     4  10  22  38  54  81 109 140 194 240 276 339
#     4   8  14  25  43  71 106 141 178 218 265 330
#     4   9  16  26  44  72 105 137 170 206 241 294
#     4  10  22  39  57  76 106 147 187 237 291 335
#     4   9  18  32  51  78 110 144 181 216 258 324
#     4  10  21  35  54  85 120 152 191 235 282 345
#     4  10  19  33  55  79 111 151 185 228 288 340
#
# _framework density 20.961116000000001
#
# number of rings (size 3 to 8) (size 9 to 14) (size 15 to 20)
#    0.000    2.467    0.000    3.600    0.933    6.133 
#    1.200    0.667    0.000    0.000    0.000    0.000 
#    0.000    0.000    0.000    5.733    0.000    0.133 
#
# Total GULP energy -334189.634637 kJ/mol
# GULP energy per Si atom -5569.827244 kJ/mol
# Density = 2.091341 g / cm^3
# Si number density = 20.961116 Si / 1000 Ang^3
#
#
#
# Elastic Constant Matrix: (Units=GPa)
#
#
# Indices 1 2 3 4 5 6 
#
# 1 62.7060 11.9988 10.0466 0.0000 0.0000 0.0000
# 2 11.9988 116.1893 67.7467 0.0000 0.0000 0.0000
# 3 10.0466 67.7467 106.0332 0.0000 0.0000 0.0000
# 4 0.0000 0.0000 0.0000 15.0772 0.0000 0.0000
# 5 0.0000 0.0000 0.0000 0.0000 -17.9310 0.0000
# 6 0.0000 0.0000 0.0000 0.0000 0.0000 5.5524
#
#
#
# Elastic Compliance Matrix: (Units=1/GPa)
#
#
# Indices 1 2 3 4 5 6 
#
# 1 0.016306 -0.001248 -0.000748 0.000000 0.000000 0.000000
# 2 -0.001248 0.013812 -0.008707 0.000000 0.000000 0.000000
# 3 -0.000748 -0.008707 0.015065 0.000000 0.000000 0.000000
# 4 0.000000 0.000000 0.000000 0.066325 0.000000 0.000000
# 5 0.000000 0.000000 0.000000 0.000000 -0.055769 0.000000
# 6 0.000000 0.000000 0.000000 0.000000 0.000000 0.180104
#
#
# Mechanical properties :
#
#
# Convention : Reuss Voigt Hill
#
# Bulk Modulus (GPa) = 42.05501 51.61253 46.83377
# Shear Modulus (GPa) = 18.85562 13.54881 16.20222
#
# Velocity S-wave (km/s) = 3.00251 2.54516 2.78324
# Velocity P-wave (km/s) = 5.66807 5.77179 5.72016
#
# Compressibility (1/GPa) = 0.02377838
#
# Stress axis : x y z
#
# Youngs Moduli (GPa) = 61.32707 72.40034 66.38061
#
# Poissons Ratio (x) = 0.09036 0.04963
# Poissons Ratio (y) = 0.07654 0.57795
# Poissons Ratio (z) = 0.04585 0.63036
#
# Static dielectric constant tensor:
#      x y z
#    x 1.775970 0.000000 0.000000 
#    y 0.000000 1.794680 0.000000 
#    z 0.000000 0.000000 1.763870 
# 
# From -- ./inp_files/53447.got.cif
#   From: 2010.05.17/outbox.cif.g08.bks.cpg/sg71_27_cif.got.tgz:53447.got - 2010.06.03 16:22:01.
