data_PCOD9519412
_publ_section_title
;
Structure prediction by ZEFSAII (Michael W. Deem and Ramdas Pophale) SiO2 
 PCOD9519412
Probable space group: I M M M
;
_chemical_formula_sum "Si O2"
_cell_formula_units_Z 116
_cell_length_a 29.424754
_cell_length_b 7.603366
_cell_length_c 24.584083
_cell_angle_alpha 90.000000
_cell_angle_beta 90.000000
_cell_angle_gamma 90.000000
_cell_volume 5500.127418
_symmetry_space_group_name_H-M "I M M M"
_symmetry_group_IT_number 71
_symmetry_cell_setting 'orthorhombic'
loop_
_space_group_symop_operation_xyz
x,y,z
-x,-y,z
x,-y,-z
-x,y,-z
-x,-y,-z
x,y,-z
-x,y,z
x,-y,z
1/2+x,1/2+y,1/2+z
1/2-x,1/2-y,1/2+z
1/2+x,1/2-y,1/2-z
1/2-x,1/2+y,1/2-z
1/2-x,1/2-y,1/2-z
1/2+x,1/2+y,1/2-z
1/2-x,1/2+y,1/2+z
1/2+x,1/2-y,1/2+z
loop_
_atom_site_type_symbol
_atom_site_label
_atom_site_fract_x
_atom_site_fract_y
_atom_site_fract_z
Si Si1 0.854346 0.290271 0.439631
Si Si2 0.748523 0.789299 0.561362
Si Si3 0.448695 0.213503 0.265388
Si Si4 0.803239 0.790165 0.250129
Si Si5 0.119170 0.705615 0.326243
Si Si6 0.164587 0.203906 0.134450
Si Si7 0.500000 0.500000 0.427719
Si Si8 0.568491 0.796247 0.391403
O O1 0.864733 0.218750 0.500000
O O2 0.862238 0.500000 0.441387
O O3 0.800586 0.264420 0.429696
O O4 0.880441 0.217940 0.386947
O O5 0.736424 0.733011 0.500000
O O6 0.712211 0.717670 0.603485
O O7 0.746692 0.000000 0.564169
O O8 0.500000 0.267444 0.252384
O O9 0.413789 0.281523 0.220187
O O10 0.438858 0.260691 0.327917
O O11 0.446599 0.000000 0.264994
O O12 0.750000 0.750000 0.250000
O O13 0.830292 0.717608 0.301521
O O14 0.827055 0.720958 0.194945
O O15 0.808016 0.000000 0.250899
O O16 0.107158 0.500000 0.331263
O O17 0.122947 0.289519 0.102302
O O18 0.152427 0.000000 0.140226
O O19 0.539635 0.656263 0.425181
O O20 0.553893 0.000000 0.397850
#
# Coordination Sequence:
#
# PCOD9519412 Si02
#       8
#    16  16  16  16  16  16   4  16
#     4   9  18  33  52  74 101 138 184 233 282 331
#     4  10  21  36  55  78 105 140 184 231 275 326
#     4   9  17  31  51  74 102 139 182 224 276 332
#     4  11  23  34  48  72 108 145 179 218 270 336
#     4  10  19  32  51  73 102 138 180 225 274 333
#     4  11  22  36  53  79 112 145 182 229 280 333
#     4  12  22  36  56  82 117 146 195 232 284 340
#     4  11  21  35  56  81 112 152 186 233 283 335
#
# _framework density 21.090420000000002
#
# number of rings (size 3 to 8) (size 9 to 14) (size 15 to 20)
#    0.000    1.793    2.759    2.276    0.000    6.345 
#    0.000    0.000    0.000    0.414    0.000    3.862 
#    0.000    2.207    0.000    5.310    0.000    6.483 
#
# Total GULP energy -323386.816127 kJ/mol
# GULP energy per Si atom -5575.634761 kJ/mol
# Density = 2.104242 g / cm^3
# Si number density = 21.090420 Si / 1000 Ang^3
#
#
#
# Elastic Constant Matrix: (Units=GPa)
#
#
# Indices 1 2 3 4 5 6 
#
# 1 38.7045 -5.9629 -8.3386 0.0000 0.0000 0.0000
# 2 -5.9629 84.4915 -1.5018 0.0000 0.0000 0.0000
# 3 -8.3386 -1.5018 60.3785 0.0000 0.0000 0.0000
# 4 0.0000 0.0000 0.0000 4.3034 0.0000 0.0000
# 5 0.0000 0.0000 0.0000 0.0000 50.7005 0.0000
# 6 0.0000 0.0000 0.0000 0.0000 0.0000 -1.1039
#
#
#
# Elastic Compliance Matrix: (Units=1/GPa)
#
#
# Indices 1 2 3 4 5 6 
#
# 1 0.026953 0.001969 0.003771 0.000000 0.000000 0.000000
# 2 0.001969 0.011985 0.000570 0.000000 0.000000 0.000000
# 3 0.003771 0.000570 0.017097 0.000000 0.000000 0.000000
# 4 0.000000 0.000000 0.000000 0.232373 0.000000 0.000000
# 5 0.000000 0.000000 0.000000 0.000000 0.019724 0.000000
# 6 0.000000 0.000000 0.000000 0.000000 0.000000 -0.905908
#
#
# Mechanical properties :
#
#
# Convention : Reuss Voigt Hill
#
# Bulk Modulus (GPa) = 14.56547 16.88533 15.72540
# Shear Modulus (GPa) = -8.51046 24.07187 7.78071
#
# Velocity S-wave (km/s) = -2.01097 3.38207 1.92282
# Velocity P-wave (km/s) = 1.23661 4.82439 3.52165
#
# Compressibility (1/GPa) = 0.06865552
#
# Stress axis : x y z
#
# Youngs Moduli (GPa) = 37.10212 83.44029 58.48909
#
# Poissons Ratio (x) = -0.16431 -0.22058
# Poissons Ratio (y) = -0.07306 -0.03334
# Poissons Ratio (z) = -0.13992 -0.04756
#
# Static dielectric constant tensor:
#      x y z
#    x 1.742270 0.000000 0.000000 
#    y 0.000000 1.779990 0.000000 
#    z 0.000000 0.000000 1.804500 
# 
# From -- ./inp_files/62060.got.cif
#   From: 2010.05.17/outbox.cif.g08.bks.cpg/sg71_32_cif.got.tgz:62060.got - 2010.06.03 16:22:01.
