data_PCOD9519027
_publ_section_title
;
Structure prediction by ZEFSAII (Michael W. Deem and Ramdas Pophale) SiO2 
 PCOD9519027
Probable space group: I M M M
;
_chemical_formula_sum "Si O2"
_cell_formula_units_Z 120
_cell_length_a 27.133002
_cell_length_b 28.601640
_cell_length_c 7.748175
_cell_angle_alpha 90.000000
_cell_angle_beta 90.000000
_cell_angle_gamma 90.000000
_cell_volume 6012.958466
_symmetry_space_group_name_H-M "I M M M"
_symmetry_group_IT_number 71
_symmetry_cell_setting 'orthorhombic'
loop_
_space_group_symop_operation_xyz
x,y,z
-x,-y,z
x,-y,-z
-x,y,-z
-x,-y,-z
x,y,-z
-x,y,z
x,-y,z
1/2+x,1/2+y,1/2+z
1/2-x,1/2-y,1/2+z
1/2+x,1/2-y,1/2-z
1/2-x,1/2+y,1/2-z
1/2-x,1/2-y,1/2-z
1/2+x,1/2+y,1/2-z
1/2-x,1/2+y,1/2+z
1/2+x,1/2-y,1/2+z
loop_
_atom_site_type_symbol
_atom_site_label
_atom_site_fract_x
_atom_site_fract_y
_atom_site_fract_z
Si Si1 0.944599 0.349222 0.205209
Si Si2 0.555557 0.500000 0.295977
Si Si3 0.639283 0.783782 0.293062
Si Si4 0.133721 0.078462 0.707212
Si Si5 0.839241 0.178428 0.292365
Si Si6 0.558042 0.949986 0.792403
Si Si7 0.270942 0.847516 0.710915
Si Si8 0.255488 0.551272 0.789371
O O1 0.909421 0.309209 0.275698
O O2 0.921372 0.400736 0.230568
O O3 0.000000 0.348677 0.278997
O O4 0.948818 0.342670 0.000000
O O5 0.500000 0.500000 0.220821
O O6 0.550761 0.500000 0.500000
O O7 0.588477 0.545191 0.251109
O O8 0.639521 0.789374 0.500000
O O9 0.641754 0.729019 0.258303
O O10 0.686422 0.812992 0.227599
O O11 0.136354 0.079236 0.500000
O O12 0.131394 0.132289 0.768353
O O13 0.187093 0.058319 0.763740
O O14 0.838974 0.177025 0.500000
O O15 0.782616 0.171473 0.235191
O O16 0.500000 0.949726 0.740531
O O17 0.579072 0.000000 0.732404
O O18 0.559428 0.949694 0.000000
O O19 0.271595 0.847486 0.500000
O O20 0.273471 0.901992 0.765364
O O21 0.238234 0.500000 0.731354
O O22 0.254846 0.551164 0.000000
#
# Coordination Sequence:
#
# PCOD9519027 Si02
#       8
#    16   8  16  16  16  16  16  16
#     4   9  18  31  45  63  90 125 162 196 231 274
#     4  11  23  35  49  75 109 137 161 195 240 289
#     4  10  19  31  47  68  97 130 164 199 239 288
#     4   9  17  32  53  74  94 123 165 203 238 286
#     4   9  18  32  52  75  96 119 155 202 248 290
#     4   8  14  26  45  67  87 109 145 192 236 276
#     4   8  15  27  44  70  99 123 153 197 243 290
#     4   8  12  22  45  72  94 119 155 198 242 287
#
# _framework density 19.956897999999999
#
# number of rings (size 3 to 8) (size 9 to 14) (size 15 to 20)
#    0.000    3.133    0.667    2.600    0.000    1.867 
#    0.000    2.667    0.000    5.600    0.000    0.000 
#    0.000    0.000    0.000    0.000    0.000    0.000 
#
# Total GULP energy -334321.979924 kJ/mol
# GULP energy per Si atom -5572.032999 kJ/mol
# Density = 1.991147 g / cm^3
# Si number density = 19.956898 Si / 1000 Ang^3
#
#
#
# Elastic Constant Matrix: (Units=GPa)
#
#
# Indices 1 2 3 4 5 6 
#
# 1 71.0914 75.8837 6.7690 0.0000 0.0000 0.0000
# 2 75.8837 213.1695 3.0146 0.0000 0.0000 0.0000
# 3 6.7690 3.0146 24.3493 0.0000 0.0000 0.0000
# 4 0.0000 0.0000 0.0000 28.3666 0.0000 0.0000
# 5 0.0000 0.0000 0.0000 0.0000 -10.3511 0.0000
# 6 0.0000 0.0000 0.0000 0.0000 0.0000 44.1404
#
#
#
# Elastic Compliance Matrix: (Units=1/GPa)
#
#
# Indices 1 2 3 4 5 6 
#
# 1 0.023395 -0.008251 -0.005482 0.000000 0.000000 0.000000
# 2 -0.008251 0.007609 0.001352 0.000000 0.000000 0.000000
# 3 -0.005482 0.001352 0.042426 0.000000 0.000000 0.000000
# 4 0.000000 0.000000 0.000000 0.035253 0.000000 0.000000
# 5 0.000000 0.000000 0.000000 0.000000 -0.096608 0.000000
# 6 0.000000 0.000000 0.000000 0.000000 0.000000 0.022655
#
#
# Mechanical properties :
#
#
# Convention : Reuss Voigt Hill
#
# Bulk Modulus (GPa) = 20.54770 53.32722 36.93746
# Shear Modulus (GPa) = 66.03728 27.29403 46.66565
#
# Velocity S-wave (km/s) = 5.75863 3.70219 4.84087
# Velocity P-wave (km/s) = 7.38472 6.71224 7.05649
#
# Compressibility (1/GPa) = 0.04866724
#
# Stress axis : x y z
#
# Youngs Moduli (GPa) = 42.74372 131.42242 23.57060
#
# Poissons Ratio (x) = 1.08432 0.12922
# Poissons Ratio (y) = 0.35266 -0.03186
# Poissons Ratio (z) = 0.23434 -0.17763
#
# Static dielectric constant tensor:
#      x y z
#    x 1.711620 0.000000 0.000000 
#    y 0.000000 1.738590 0.000000 
#    z 0.000000 0.000000 1.738810 
# 
# From -- ./inp_files/15615.got.cif
#   From: 2010.05.17/outbox.cif.g08.bks.cpg/sg71_8_cif.got.tgz:15615.got - 2010.06.03 16:22:01.
