data_PCOD9519654
_publ_section_title
;
Structure prediction by ZEFSAII (Michael W. Deem and Ramdas Pophale) SiO2 
 PCOD9519654
Probable space group: I M M M
;
_chemical_formula_sum "Si O2"
_cell_formula_units_Z 88
_cell_length_a 21.673119
_cell_length_b 19.762088
_cell_length_c 12.188347
_cell_angle_alpha 90.000000
_cell_angle_beta 90.000000
_cell_angle_gamma 90.000000
_cell_volume 5220.343185
_symmetry_space_group_name_H-M "I M M M"
_symmetry_group_IT_number 71
_symmetry_cell_setting 'orthorhombic'
loop_
_space_group_symop_operation_xyz
x,y,z
-x,-y,z
x,-y,-z
-x,y,-z
-x,-y,-z
x,y,-z
-x,y,z
x,-y,z
1/2+x,1/2+y,1/2+z
1/2-x,1/2-y,1/2+z
1/2+x,1/2-y,1/2-z
1/2-x,1/2+y,1/2-z
1/2-x,1/2-y,1/2-z
1/2+x,1/2+y,1/2-z
1/2-x,1/2+y,1/2+z
1/2+x,1/2-y,1/2+z
loop_
_atom_site_type_symbol
_atom_site_label
_atom_site_fract_x
_atom_site_fract_y
_atom_site_fract_z
Si Si1 0.700242 0.202767 0.125987
Si Si2 0.070986 0.280297 0.000000
Si Si3 0.624134 0.922410 0.500000
Si Si4 0.707100 0.076714 0.716482
Si Si5 0.156866 0.212276 0.178362
Si Si6 0.851913 0.078642 0.285997
Si Si7 0.569917 0.581893 0.000000
O O1 0.693453 0.132005 0.191016
O O2 0.773682 0.219442 0.130639
O O3 0.663875 0.256879 0.199695
O O4 0.680808 0.200147 0.000000
O O5 0.076022 0.361626 0.000000
O O6 0.108254 0.251596 0.895477
O O7 0.000000 0.259149 0.000000
O O8 0.666426 0.913642 0.391922
O O9 0.600715 0.000000 0.500000
O O10 0.779230 0.082890 0.684887
O O11 0.697433 0.000000 0.756747
O O12 0.139724 0.133395 0.190192
O O13 0.892887 0.099011 0.390171
O O14 0.864873 0.000000 0.257514
O O15 0.567225 0.500000 0.000000
O O16 0.500000 0.608055 0.000000
#
# Coordination Sequence:
#
# PCOD9519654 Si02
#       7
#    16   8   8  16  16  16   8
#     4  10  19  32  55  81 110 139 176 224 274 338
#     4  12  24  40  58  79 113 149 189 227 266 325
#     4  10  19  35  57  82 112 141 183 228 275 323
#     4   9  17  30  52  82 112 139 170 221 276 333
#     4  10  21  35  53  79 108 142 181 221 277 319
#     4   9  18  31  49  76 106 140 177 219 272 323
#     4   9  17  29  46  68  97 134 178 223 260 303
#
# _framework density 16.857130000000002
#
# number of rings (size 3 to 8) (size 9 to 14) (size 15 to 20)
#    0.000    2.273    2.727    0.545    1.273    3.455 
#    0.000    0.455    0.000    0.545    0.000    0.000 
#    0.000    2.909    0.000    0.000    0.000    0.000 
#
# Total GULP energy -245274.689625 kJ/mol
# GULP energy per Si atom -5574.424764 kJ/mol
# Density = 1.681876 g / cm^3
# Si number density = 16.857130 Si / 1000 Ang^3
#
#
#
# Elastic Constant Matrix: (Units=GPa)
#
#
# Indices 1 2 3 4 5 6 
#
# 1 51.3299 40.9770 31.1511 0.0000 0.0000 0.0000
# 2 40.9770 96.9445 42.1902 0.0000 0.0000 0.0000
# 3 31.1511 42.1902 99.1766 0.0000 0.0000 0.0000
# 4 0.0000 0.0000 0.0000 16.7763 0.0000 0.0000
# 5 0.0000 0.0000 0.0000 0.0000 13.2408 0.0000
# 6 0.0000 0.0000 0.0000 0.0000 0.0000 14.9970
#
#
#
# Elastic Compliance Matrix: (Units=1/GPa)
#
#
# Indices 1 2 3 4 5 6 
#
# 1 0.031432 -0.011032 -0.005180 0.000000 0.000000 0.000000
# 2 -0.011032 0.016530 -0.003567 0.000000 0.000000 0.000000
# 3 -0.005180 -0.003567 0.013227 0.000000 0.000000 0.000000
# 4 0.000000 0.000000 0.000000 0.059608 0.000000 0.000000
# 5 0.000000 0.000000 0.000000 0.000000 0.075524 0.000000
# 6 0.000000 0.000000 0.000000 0.000000 0.000000 0.066680
#
#
# Mechanical properties :
#
#
# Convention : Reuss Voigt Hill
#
# Bulk Modulus (GPa) = 46.22601 52.89859 49.56230
# Shear Modulus (GPa) = 16.14103 17.87835 17.00969
#
# Velocity S-wave (km/s) = 3.09774 3.26019 3.18000
# Velocity P-wave (km/s) = 6.34637 6.75429 6.55350
#
# Compressibility (1/GPa) = 0.02163284
#
# Stress axis : x y z
#
# Youngs Moduli (GPa) = 31.81479 60.49433 75.60023
#
# Poissons Ratio (x) = 0.66735 0.39159
# Poissons Ratio (y) = 0.35097 0.26968
# Poissons Ratio (z) = 0.16479 0.21579
#
# Static dielectric constant tensor:
#      x y z
#    x 1.545000 0.000000 0.000000 
#    y 0.000000 1.614290 0.000000 
#    z 0.000000 0.000000 1.550070 
# 
# From -- ./inp_files/23993.got.cif
#   From: 2010.05.17/outbox.cif.g08.bks.cpg/sg71_12_cif.got.tgz:23993.got - 2010.06.03 16:22:01.
