data_PCOD9519325
_publ_section_title
;
Structure prediction by ZEFSAII (Michael W. Deem and Ramdas Pophale) SiO2 
 PCOD9519325
Probable space group: I M M M
;
_chemical_formula_sum "Si O2"
_cell_formula_units_Z 116
_cell_length_a 7.579597
_cell_length_b 28.749070
_cell_length_c 26.933902
_cell_angle_alpha 90.000000
_cell_angle_beta 90.000000
_cell_angle_gamma 90.000000
_cell_volume 5869.068673
_symmetry_space_group_name_H-M "I M M M"
_symmetry_group_IT_number 71
_symmetry_cell_setting 'orthorhombic'
loop_
_space_group_symop_operation_xyz
x,y,z
-x,-y,z
x,-y,-z
-x,y,-z
-x,-y,-z
x,y,-z
-x,y,z
x,-y,z
1/2+x,1/2+y,1/2+z
1/2-x,1/2-y,1/2+z
1/2+x,1/2-y,1/2-z
1/2-x,1/2+y,1/2-z
1/2-x,1/2-y,1/2-z
1/2+x,1/2+y,1/2-z
1/2-x,1/2+y,1/2+z
1/2+x,1/2-y,1/2+z
loop_
_atom_site_type_symbol
_atom_site_label
_atom_site_fract_x
_atom_site_fract_y
_atom_site_fract_z
Si Si1 0.702984 0.204304 0.554620
Si Si2 0.786082 0.104013 0.654520
Si Si3 0.785606 0.944707 0.445026
Si Si4 0.708866 0.551718 0.254012
Si Si5 0.707518 0.858615 0.195710
Si Si6 0.788192 0.227615 0.858287
Si Si7 0.500000 0.343169 0.000000
Si Si8 0.707925 0.805691 0.708839
O O1 0.700090 0.227990 0.500000
O O2 0.500000 0.189640 0.565070
O O3 0.766067 0.242504 0.594025
O O4 0.844339 0.163768 0.543422
O O5 0.720455 0.081224 0.603756
O O6 0.722573 0.074915 0.702885
O O7 0.729250 0.156782 0.664578
O O8 0.000000 0.102687 0.654218
O O9 0.720752 0.930665 0.500000
O O10 0.000000 0.938575 0.447288
O O11 0.753997 0.000000 0.439700
O O12 0.500000 0.547649 0.246541
O O13 0.780547 0.500000 0.262329
O O14 0.731949 0.588557 0.298425
O O15 0.500000 0.860938 0.203221
O O16 0.740380 0.826080 0.148494
O O17 0.788020 0.830312 0.242850
O O18 0.717926 0.257174 0.810969
O O19 0.000000 0.229728 0.857944
O O20 0.500000 0.799073 0.717303
#
# Coordination Sequence:
#
# PCOD9519325 Si02
#       8
#    16  16  16  16  16  16   4  16
#     4   8  16  29  46  68  91 122 159 196 235 276
#     4   9  16  27  43  64  84 109 150 193 230 276
#     4   8  13  22  39  62  86 109 139 188 245 289
#     4   9  17  30  47  64  87 119 151 183 223 274
#     4  10  20  30  46  70  94 117 151 192 233 280
#     4  10  19  32  49  65  91 126 158 190 228 279
#     4   8  14  28  48  66  96 116 151 210 229 278
#     4   9  19  33  44  61  89 123 155 189 233 280
#
# _framework density 19.764634000000001
#
# number of rings (size 3 to 8) (size 9 to 14) (size 15 to 20)
#    0.414    2.621    0.000    1.655    0.966    3.034 
#    0.000    0.690    0.000    2.483    0.000    0.966 
#    0.000    0.552    0.000    7.103    0.000    4.552 
#
# Total GULP energy -322914.779942 kJ/mol
# GULP energy per Si atom -5567.496206 kJ/mol
# Density = 1.971965 g / cm^3
# Si number density = 19.764634 Si / 1000 Ang^3
#
#
#
# Elastic Constant Matrix: (Units=GPa)
#
#
# Indices 1 2 3 4 5 6 
#
# 1 64.8629 3.2247 4.1017 0.0000 0.0000 0.0000
# 2 3.2247 127.8510 33.3099 0.0000 0.0000 0.0000
# 3 4.1017 33.3099 42.6834 0.0000 0.0000 0.0000
# 4 0.0000 0.0000 0.0000 22.1475 0.0000 0.0000
# 5 0.0000 0.0000 0.0000 0.0000 7.1062 0.0000
# 6 0.0000 0.0000 0.0000 0.0000 0.0000 12.0754
#
#
#
# Elastic Compliance Matrix: (Units=1/GPa)
#
#
# Indices 1 2 3 4 5 6 
#
# 1 0.015511 -0.000004 -0.001488 0.000000 0.000000 0.000000
# 2 -0.000004 0.009818 -0.007661 0.000000 0.000000 0.000000
# 3 -0.001488 -0.007661 0.029550 0.000000 0.000000 0.000000
# 4 0.000000 0.000000 0.000000 0.045152 0.000000 0.000000
# 5 0.000000 0.000000 0.000000 0.000000 0.140721 0.000000
# 6 0.000000 0.000000 0.000000 0.000000 0.000000 0.082813
#
#
# Mechanical properties :
#
#
# Convention : Reuss Voigt Hill
#
# Bulk Modulus (GPa) = 27.34195 35.18553 31.26374
# Shear Modulus (GPa) = 14.12181 21.24989 17.68585
#
# Velocity S-wave (km/s) = 2.67591 3.28250 2.99460
# Velocity P-wave (km/s) = 4.83851 5.67515 5.27345
#
# Compressibility (1/GPa) = 0.03657384
#
# Stress axis : x y z
#
# Youngs Moduli (GPa) = 64.46869 101.85608 33.84070
#
# Poissons Ratio (x) = 0.00037 0.05035
# Poissons Ratio (y) = 0.00023 0.25927
# Poissons Ratio (z) = 0.09591 0.78036
#
# Static dielectric constant tensor:
#      x y z
#    x 1.731060 0.000000 0.000000 
#    y 0.000000 1.754250 0.000000 
#    z 0.000000 0.000000 1.738750 
# 
# From -- ./inp_files/63971.got.cif
#   From: 2010.05.17/outbox.cif.g08.bks.cpg/sg71_32_cif.got.tgz:63971.got - 2010.06.03 16:22:01.
