data_PCOD9519640
_publ_section_title
;
Structure prediction by ZEFSAII (Michael W. Deem and Ramdas Pophale) SiO2 
 PCOD9519640
Probable space group: I M M M
;
_chemical_formula_sum "Si O2"
_cell_formula_units_Z 96
_cell_length_a 24.213545
_cell_length_b 26.069703
_cell_length_c 8.654283
_cell_angle_alpha 90.000000
_cell_angle_beta 90.000000
_cell_angle_gamma 90.000000
_cell_volume 5462.928967
_symmetry_space_group_name_H-M "I M M M"
_symmetry_group_IT_number 71
_symmetry_cell_setting 'orthorhombic'
loop_
_space_group_symop_operation_xyz
x,y,z
-x,-y,z
x,-y,-z
-x,y,-z
-x,-y,-z
x,y,-z
-x,y,z
x,-y,z
1/2+x,1/2+y,1/2+z
1/2-x,1/2-y,1/2+z
1/2+x,1/2-y,1/2-z
1/2-x,1/2+y,1/2-z
1/2-x,1/2-y,1/2-z
1/2+x,1/2+y,1/2-z
1/2-x,1/2+y,1/2+z
1/2+x,1/2-y,1/2+z
loop_
_atom_site_type_symbol
_atom_site_label
_atom_site_fract_x
_atom_site_fract_y
_atom_site_fract_z
Si Si1 0.436217 0.309351 0.815104
Si Si2 0.064204 0.000000 0.314635
Si Si3 0.634036 0.901237 0.686871
Si Si4 0.369103 0.596517 0.314690
Si Si5 0.251778 0.059901 0.186493
Si Si6 0.436727 0.000000 0.688420
Si Si7 0.436156 0.196606 0.313755
O O1 0.500000 0.320842 0.767956
O O2 0.394788 0.350565 0.744334
O O3 0.423945 0.251697 0.759725
O O4 0.433722 0.311987 0.000000
O O5 0.094222 0.949881 0.250042
O O6 0.067510 0.000000 0.500000
O O7 0.000000 0.000000 0.269834
O O8 0.635420 0.901430 0.500000
O O9 0.695174 0.910948 0.748713
O O10 0.605064 0.848379 0.736150
O O11 0.596124 0.949266 0.736922
O O12 0.370846 0.595293 0.500000
O O13 0.305921 0.585822 0.265941
O O14 0.252680 0.000000 0.236309
O O15 0.254015 0.060217 0.000000
O O16 0.500000 0.000000 0.740923
O O17 0.437592 0.000000 0.500000
O O18 0.432927 0.201194 0.500000
O O19 0.500000 0.183029 0.276135
#
# Coordination Sequence:
#
# PCOD9519640 Si02
#       7
#    16   8  16  16  16   8  16
#     4  10  21  37  57  83 113 143 178 224 278 330
#     4  11  23  36  53  82 116 143 172 219 276 329
#     4  10  19  32  54  83 109 140 185 226 267 322
#     4  11  22  38  58  80 107 144 188 226 269 325
#     4  10  21  38  55  75 108 147 183 223 271 320
#     4   9  16  27  47  78 112 139 168 217 272 317
#     4   9  18  34  56  82 112 146 183 224 270 324
#
# _framework density 17.572990999999998
#
# number of rings (size 3 to 8) (size 9 to 14) (size 15 to 20)
#    0.000    2.000    1.667    2.250    0.000    7.667 
#    0.000    0.833    0.000    2.000    0.000    0.000 
#    0.000    0.000    0.000    0.000    0.000    0.000 
#
# Total GULP energy -268010.249137 kJ/mol
# GULP energy per Si atom -5583.546857 kJ/mol
# Density = 1.753299 g / cm^3
# Si number density = 17.572991 Si / 1000 Ang^3
#
#
#
# Elastic Constant Matrix: (Units=GPa)
#
#
# Indices 1 2 3 4 5 6 
#
# 1 186.6456 114.3942 41.9150 0.0000 0.0000 0.0000
# 2 114.3942 143.6396 35.5687 0.0000 0.0000 0.0000
# 3 41.9150 35.5687 23.1050 0.0000 0.0000 0.0000
# 4 0.0000 0.0000 0.0000 16.8929 0.0000 0.0000
# 5 0.0000 0.0000 0.0000 0.0000 21.2051 0.0000
# 6 0.0000 0.0000 0.0000 0.0000 0.0000 12.4675
#
#
#
# Elastic Compliance Matrix: (Units=1/GPa)
#
#
# Indices 1 2 3 4 5 6 
#
# 1 0.012102 -0.006790 -0.011502 0.000000 0.000000 0.000000
# 2 -0.006790 0.015060 -0.010866 0.000000 0.000000 0.000000
# 3 -0.011502 -0.010866 0.080875 0.000000 0.000000 0.000000
# 4 0.000000 0.000000 0.000000 0.059196 0.000000 0.000000
# 5 0.000000 0.000000 0.000000 0.000000 0.047158 0.000000
# 6 0.000000 0.000000 0.000000 0.000000 0.000000 0.080208
#
#
# Mechanical properties :
#
#
# Convention : Reuss Voigt Hill
#
# Bulk Modulus (GPa) = 20.11252 81.90513 51.00882
# Shear Modulus (GPa) = 13.53212 20.88059 17.20635
#
# Velocity S-wave (km/s) = 2.77799 3.45080 3.13251
# Velocity P-wave (km/s) = 4.66472 7.91120 6.49410
#
# Compressibility (1/GPa) = 0.04972028
#
# Stress axis : x y z
#
# Youngs Moduli (GPa) = 82.62816 66.39981 12.36480
#
# Poissons Ratio (x) = 0.45086 0.14222
# Poissons Ratio (y) = 0.56106 0.13436
# Poissons Ratio (z) = 0.95040 0.72152
#
# Static dielectric constant tensor:
#      x y z
#    x 1.582370 0.000000 0.000000 
#    y 0.000000 1.574370 0.000000 
#    z 0.000000 0.000000 1.597120 
# 
# From -- ./inp_files/12950.got.cif
#   From: 2010.05.17/outbox.cif.g08.bks.cpg/sg71_7_cif.got.tgz:12950.got - 2010.06.03 16:22:01.
