data_PCOD9519133
_publ_section_title
;
Structure prediction by ZEFSAII (Michael W. Deem and Ramdas Pophale) SiO2 
 PCOD9519133
Probable space group: I M M M
;
_chemical_formula_sum "Si O2"
_cell_formula_units_Z 96
_cell_length_a 27.691568
_cell_length_b 9.447196
_cell_length_c 20.251799
_cell_angle_alpha 90.000000
_cell_angle_beta 90.000000
_cell_angle_gamma 90.000000
_cell_volume 5298.025959
_symmetry_space_group_name_H-M "I M M M"
_symmetry_group_IT_number 71
_symmetry_cell_setting 'orthorhombic'
loop_
_space_group_symop_operation_xyz
x,y,z
-x,-y,z
x,-y,-z
-x,y,-z
-x,-y,-z
x,y,-z
-x,y,z
x,-y,z
1/2+x,1/2+y,1/2+z
1/2-x,1/2-y,1/2+z
1/2+x,1/2-y,1/2-z
1/2-x,1/2+y,1/2-z
1/2-x,1/2-y,1/2-z
1/2+x,1/2+y,1/2-z
1/2-x,1/2+y,1/2+z
1/2+x,1/2-y,1/2+z
loop_
_atom_site_type_symbol
_atom_site_label
_atom_site_fract_x
_atom_site_fract_y
_atom_site_fract_z
Si Si1 0.057895 0.160223 0.200745
Si Si2 0.112609 0.665840 0.695498
Si Si3 0.657026 0.666991 0.076671
Si Si4 0.058926 0.337117 0.925668
Si Si5 0.728269 0.170630 0.572272
Si Si6 0.292685 0.833237 0.285578
O O1 0.071933 0.250359 0.264640
O O2 0.075160 0.238473 0.134001
O O3 0.000000 0.154194 0.196178
O O4 0.076714 0.000000 0.205245
O O5 0.101523 0.500000 0.687840
O O6 0.126844 0.738484 0.626775
O O7 0.159287 0.680217 0.742960
O O8 0.651257 0.500000 0.092174
O O9 0.714438 0.699165 0.081908
O O10 0.643738 0.688331 0.000000
O O11 0.074371 0.500000 0.914321
O O12 0.000000 0.337246 0.925637
O O13 0.074000 0.295519 0.000000
O O14 0.713468 0.226541 0.500000
O O15 0.701991 0.218087 0.638783
O O16 0.723164 0.000000 0.568960
O O17 0.250000 0.750000 0.250000
O O18 0.279877 0.000000 0.287978
#
# Coordination Sequence:
#
# PCOD9519133 Si02
#       6
#    16  16  16  16  16  16
#     4  10  21  36  54  75 100 136 181 225 266 309
#     4  11  22  33  50  79 109 138 171 212 267 318
#     4   9  17  31  53  77 100 133 175 213 251 302
#     4   8  14  27  49  75 101 129 163 207 259 311
#     4   8  14  27  48  71  97 133 174 210 243 287
#     4  10  19  31  49  74 103 134 169 207 250 303
#
# _framework density 18.119955999999998
#
# number of rings (size 3 to 8) (size 9 to 14) (size 15 to 20)
#    0.000    2.667    1.667    2.500    0.000    2.333 
#    0.000    2.500    0.000    4.000    0.000    3.500 
#    0.000    0.000    0.000    0.000    0.000    0.000 
#
# Total GULP energy -267615.372614 kJ/mol
# GULP energy per Si atom -5575.320263 kJ/mol
# Density = 1.807871 g / cm^3
# Si number density = 18.119956 Si / 1000 Ang^3
#
#
#
# Elastic Constant Matrix: (Units=GPa)
#
#
# Indices 1 2 3 4 5 6 
#
# 1 14.0263 20.6050 14.6964 0.0000 0.0000 0.0000
# 2 20.6050 80.7223 58.5165 0.0000 0.0000 0.0000
# 3 14.6964 58.5165 123.9235 0.0000 0.0000 0.0000
# 4 0.0000 0.0000 0.0000 34.4112 0.0000 0.0000
# 5 0.0000 0.0000 0.0000 0.0000 19.7846 0.0000
# 6 0.0000 0.0000 0.0000 0.0000 0.0000 15.4259
#
#
#
# Elastic Compliance Matrix: (Units=1/GPa)
#
#
# Indices 1 2 3 4 5 6 
#
# 1 0.114077 -0.029363 0.000336 0.000000 0.000000 0.000000
# 2 -0.029363 0.026394 -0.008981 0.000000 0.000000 0.000000
# 3 0.000336 -0.008981 0.012270 0.000000 0.000000 0.000000
# 4 0.000000 0.000000 0.000000 0.029060 0.000000 0.000000
# 5 0.000000 0.000000 0.000000 0.000000 0.050544 0.000000
# 6 0.000000 0.000000 0.000000 0.000000 0.000000 0.064826
#
#
# Mechanical properties :
#
#
# Convention : Reuss Voigt Hill
#
# Bulk Modulus (GPa) = 13.03334 45.14534 29.08934
# Shear Modulus (GPa) = 12.53882 22.24795 17.39339
#
# Velocity S-wave (km/s) = 2.63342 3.50782 3.10159
# Velocity P-wave (km/s) = 4.05647 6.43236 5.37728
#
# Compressibility (1/GPa) = 0.07672631
#
# Stress axis : x y z
#
# Youngs Moduli (GPa) = 8.76601 37.88803 81.49759
#
# Poissons Ratio (x) = 1.11251 -0.02742
# Poissons Ratio (y) = 0.25740 0.73191
# Poissons Ratio (z) = -0.00295 0.34026
#
# Static dielectric constant tensor:
#      x y z
#    x 1.637050 0.000000 0.000000 
#    y 0.000000 1.617160 0.000000 
#    z 0.000000 0.000000 1.636930 
# 
# From -- ./inp_files/56126.got.cif
#   From: 2010.05.17/outbox.cif.g08.bks.cpg/sg71_29_cif.got.tgz:56126.got - 2010.06.03 16:22:01.
