data_PCOD9519732
_publ_section_title
;
Structure prediction by ZEFSAII (Michael W. Deem and Ramdas Pophale) SiO2 
 PCOD9519732
Probable space group: I M M M
;
_chemical_formula_sum "Si O2"
_cell_formula_units_Z 64
_cell_length_a 22.832945
_cell_length_b 7.359350
_cell_length_c 17.304500
_cell_angle_alpha 90.000000
_cell_angle_beta 90.000000
_cell_angle_gamma 90.000000
_cell_volume 2907.772625
_symmetry_space_group_name_H-M "I M M M"
_symmetry_group_IT_number 71
_symmetry_cell_setting 'orthorhombic'
loop_
_space_group_symop_operation_xyz
x,y,z
-x,-y,z
x,-y,-z
-x,y,-z
-x,-y,-z
x,y,-z
-x,y,z
x,-y,z
1/2+x,1/2+y,1/2+z
1/2-x,1/2-y,1/2+z
1/2+x,1/2-y,1/2-z
1/2-x,1/2+y,1/2-z
1/2-x,1/2-y,1/2-z
1/2+x,1/2+y,1/2-z
1/2-x,1/2+y,1/2+z
1/2+x,1/2-y,1/2+z
loop_
_atom_site_type_symbol
_atom_site_label
_atom_site_fract_x
_atom_site_fract_y
_atom_site_fract_z
Si Si1 0.432746 0.778533 0.500000
Si Si2 0.111907 0.287627 0.684274
Si Si3 0.500000 0.222823 0.089069
Si Si4 0.644314 0.222296 0.353287
Si Si5 0.728876 0.280786 0.911088
O O1 0.500000 0.719318 0.500000
O O2 0.397630 0.722435 0.423527
O O3 0.432803 0.000000 0.500000
O O4 0.098516 0.500000 0.695441
O O5 0.122220 0.212926 0.770075
O O6 0.171756 0.273406 0.636282
O O7 0.057810 0.214980 0.634608
O O8 0.500000 0.000000 0.087328
O O9 0.500000 0.281119 0.000000
O O10 0.710751 0.279872 0.371412
O O11 0.644877 0.000000 0.352337
O O12 0.730174 0.500000 0.912554
O O13 0.726363 0.218579 0.000000
#
# Coordination Sequence:
#
# PCOD9519732 Si02
#       5
#     8  16   8  16  16
#     4   9  16  26  46  74 105 134 161 198 246 299
#     4  10  20  32  51  75  99 128 167 208 244 289
#     4   9  18  32  47  68 100 130 155 197 253 291
#     4   9  17  30  47  72 102 131 162 201 248 293
#     4  10  19  33  51  71 100 134 163 198 249 297
#
# _framework density 22.009976000000002
#
# number of rings (size 3 to 8) (size 9 to 14) (size 15 to 20)
#    0.000    2.500    1.250    1.500    1.750    1.500 
#    0.000    0.625    0.000    2.250    0.000    0.000 
#    0.000    4.000    0.000    0.000    0.000    0.000 
#
# Total GULP energy -178877.841031 kJ/mol
# GULP energy per Si atom -5589.932532 kJ/mol
# Density = 2.195988 g / cm^3
# Si number density = 22.009976 Si / 1000 Ang^3
#
#
#
# Elastic Constant Matrix: (Units=GPa)
#
#
# Indices 1 2 3 4 5 6 
#
# 1 230.7211 -7.1089 145.2098 0.0000 0.0000 0.0000
# 2 -7.1089 77.3068 2.7717 0.0000 0.0000 0.0000
# 3 145.2098 2.7717 259.6710 0.0000 0.0000 0.0000
# 4 0.0000 0.0000 0.0000 0.3127 0.0000 0.0000
# 5 0.0000 0.0000 0.0000 0.0000 16.5029 0.0000
# 6 0.0000 0.0000 0.0000 0.0000 0.0000-1307.9664
#
#
#
# Elastic Compliance Matrix: (Units=1/GPa)
#
#
# Indices 1 2 3 4 5 6 
#
# 1 0.006732 0.000754 -0.003773 0.000000 0.000000 0.000000
# 2 0.000754 0.013025 -0.000561 0.000000 0.000000 0.000000
# 3 -0.003773 -0.000561 0.005967 0.000000 0.000000 0.000000
# 4 0.000000 0.000000 0.000000 3.198181 0.000000 0.000000
# 5 0.000000 0.000000 0.000000 0.000000 0.060595 0.000000
# 6 0.000000 0.000000 0.000000 0.000000 0.000000 -0.000765
#
#
# Mechanical properties :
#
#
# Convention : Reuss Voigt Hill
#
# Bulk Modulus (GPa) = 53.86404 94.38266 74.12335
# Shear Modulus (GPa) = 1.51649 -229.77507 -114.12929
#
# Velocity S-wave (km/s) = 0.83096 -10.22851 -7.20875
# Velocity P-wave (km/s) = 5.04444 9.82455 5.96135
#
# Compressibility (1/GPa) = 0.01856526
#
# Stress axis : x y z
#
# Youngs Moduli (GPa) = 148.54856 76.77576 167.59872
#
# Poissons Ratio (x) = -0.05791 0.63227
# Poissons Ratio (y) = -0.11205 0.09399
# Poissons Ratio (z) = 0.56040 0.04306
#
# Static dielectric constant tensor:
#      x y z
#    x 1.738490 0.000000 0.000000 
#    y 0.000000 1.877070 0.000000 
#    z 0.000000 0.000000 1.756850 
# 
# From -- ./inp_files/5554.got.cif
#   From: 2010.05.17/outbox.cif.g08.bks.cpg/sg71_3_cif.got.tgz:5554.got - 2010.06.03 16:22:01.
