data_PCOD9519488
_publ_section_title
;
Structure prediction by ZEFSAII (Michael W. Deem and Ramdas Pophale) SiO2 
 PCOD9519488
Probable space group: I M M M
;
_chemical_formula_sum "Si O2"
_cell_formula_units_Z 104
_cell_length_a 17.520622
_cell_length_b 25.395660
_cell_length_c 13.977426
_cell_angle_alpha 90.000000
_cell_angle_beta 90.000000
_cell_angle_gamma 90.000000
_cell_volume 6219.224379
_symmetry_space_group_name_H-M "I M M M"
_symmetry_group_IT_number 71
_symmetry_cell_setting 'orthorhombic'
loop_
_space_group_symop_operation_xyz
x,y,z
-x,-y,z
x,-y,-z
-x,y,-z
-x,-y,-z
x,y,-z
-x,y,z
x,-y,z
1/2+x,1/2+y,1/2+z
1/2-x,1/2-y,1/2+z
1/2+x,1/2-y,1/2-z
1/2-x,1/2+y,1/2-z
1/2-x,1/2-y,1/2-z
1/2+x,1/2+y,1/2-z
1/2-x,1/2+y,1/2+z
1/2+x,1/2-y,1/2+z
loop_
_atom_site_type_symbol
_atom_site_label
_atom_site_fract_x
_atom_site_fract_y
_atom_site_fract_z
Si Si1 0.413835 0.413574 0.611608
Si Si2 0.857916 0.204425 0.889717
Si Si3 0.415770 0.000000 0.615195
Si Si4 0.816915 0.397394 0.112676
Si Si5 0.409140 0.193115 0.284330
Si Si6 0.237108 0.060876 0.217218
Si Si7 0.809778 0.343690 0.612176
O O1 0.399755 0.427328 0.500000
O O2 0.500000 0.428690 0.635966
O O3 0.403451 0.350375 0.618469
O O4 0.348326 0.437243 0.676992
O O5 0.888374 0.248168 0.817994
O O6 0.769016 0.189314 0.873632
O O7 0.865977 0.222883 0.000000
O O8 0.371578 0.946710 0.637417
O O9 0.500000 0.000000 0.657610
O O10 0.421557 0.000000 0.500000
O O11 0.862187 0.345686 0.145099
O O12 0.745069 0.409553 0.180706
O O13 0.800328 0.396902 0.000000
O O14 0.500000 0.184560 0.289852
O O15 0.375073 0.179671 0.179988
O O16 0.288487 0.097241 0.147287
O O17 0.260896 0.000000 0.222326
O O18 0.827925 0.343097 0.500000
#
# Coordination Sequence:
#
# PCOD9519488 Si02
#       7
#    16  16   8  16  16  16  16
#     4   9  18  32  51  77 106 131 157 199 256 301
#     4   9  17  32  53  74  99 130 161 196 242 296
#     4   9  16  28  46  64  88 121 152 192 244 285
#     4  10  20  33  48  71 100 130 163 201 246 295
#     4  11  21  31  50  78 102 128 165 206 246 291
#     4  10  19  32  52  75  97 128 171 207 242 293
#     4   9  20  36  51  70  99 134 168 202 244 293
#
# _framework density 16.722342000000001
#
# number of rings (size 3 to 8) (size 9 to 14) (size 15 to 20)
#    0.000    2.385    0.769    3.231    0.000    4.308 
#    0.000    0.769    0.000    0.462    0.000    3.231 
#    0.000    0.000    0.000    0.000    0.000    0.000 
#
# Total GULP energy -289867.010799 kJ/mol
# GULP energy per Si atom -5574.365592 kJ/mol
# Density = 1.668428 g / cm^3
# Si number density = 16.722342 Si / 1000 Ang^3
#
#
#
# Elastic Constant Matrix: (Units=GPa)
#
#
# Indices 1 2 3 4 5 6 
#
# 1 79.1853 23.4365 50.0953 0.0000 0.0000 0.0000
# 2 23.4365 66.7791 39.5981 0.0000 0.0000 0.0000
# 3 50.0953 39.5981 110.4226 -0.0001 0.0000 0.0000
# 4 0.0000 0.0000 -0.0001 19.3459 0.0000 0.0000
# 5 0.0000 0.0000 0.0000 0.0000 21.4950 0.0000
# 6 0.0000 0.0000 0.0000 0.0000 0.0000 -4.8638
#
#
#
# Elastic Compliance Matrix: (Units=1/GPa)
#
#
# Indices 1 2 3 4 5 6 
#
# 1 0.017893 -0.001862 -0.007450 0.000000 0.000000 0.000000
# 2 -0.001862 0.019213 -0.006045 0.000000 0.000000 0.000000
# 3 -0.007450 -0.006045 0.014604 0.000000 0.000000 0.000000
# 4 0.000000 0.000000 0.000000 0.051691 0.000000 0.000000
# 5 0.000000 0.000000 0.000000 0.000000 0.046522 0.000000
# 6 0.000000 0.000000 0.000000 0.000000 0.000000 -0.205600
#
#
# Mechanical properties :
#
#
# Convention : Reuss Voigt Hill
#
# Bulk Modulus (GPa) = 47.62922 53.62744 50.62833
# Shear Modulus (GPa) = -278.29805 16.74589 -130.77608
#
# Velocity S-wave (km/s) = -12.91449 3.16794 -8.85292
# Velocity P-wave (km/s) = 13.92245 6.74685 8.61146
#
# Compressibility (1/GPa) = 0.02099551
#
# Stress axis : x y z
#
# Youngs Moduli (GPa) = 55.88911 52.04862 68.47664
#
# Poissons Ratio (x) = 0.09692 0.51012
# Poissons Ratio (y) = 0.10407 0.41394
# Poissons Ratio (z) = 0.41635 0.31464
#
# Static dielectric constant tensor:
#      x y z
#    x 1.568660 0.000000 0.000000 
#    y 0.000000 1.574760 0.000000 
#    z 0.000000 0.000000 1.561490 
# 
# From -- ./inp_files/36916.got.cif
#   From: 2010.05.17/outbox.cif.g08.bks.cpg/sg71_19_cif.got.tgz:36916.got - 2010.06.03 16:22:01.
