data_PCOD9519473
_publ_section_title
;
Structure prediction by ZEFSAII (Michael W. Deem and Ramdas Pophale) SiO2 
 PCOD9519473
Probable space group: I M M M
;
_chemical_formula_sum "Si O2"
_cell_formula_units_Z 72
_cell_length_a 9.653886
_cell_length_b 18.072961
_cell_length_c 19.553052
_cell_angle_alpha 90.000000
_cell_angle_beta 90.000000
_cell_angle_gamma 90.000000
_cell_volume 3411.505162
_symmetry_space_group_name_H-M "I M M M"
_symmetry_group_IT_number 71
_symmetry_cell_setting 'orthorhombic'
loop_
_space_group_symop_operation_xyz
x,y,z
-x,-y,z
x,-y,-z
-x,y,-z
-x,-y,-z
x,y,-z
-x,y,z
x,-y,z
1/2+x,1/2+y,1/2+z
1/2-x,1/2-y,1/2+z
1/2+x,1/2-y,1/2-z
1/2-x,1/2+y,1/2-z
1/2-x,1/2-y,1/2-z
1/2+x,1/2+y,1/2-z
1/2-x,1/2+y,1/2+z
1/2+x,1/2-y,1/2+z
loop_
_atom_site_type_symbol
_atom_site_label
_atom_site_fract_x
_atom_site_fract_y
_atom_site_fract_z
Si Si1 0.845299 0.000000 0.266307
Si Si2 0.844996 0.365723 0.233255
Si Si3 0.838311 0.355639 0.602560
Si Si4 0.837902 0.284866 0.100940
Si Si5 0.839297 0.000000 0.100302
Si Si6 0.333190 0.084532 0.500000
O O1 0.764890 0.927042 0.286869
O O2 0.845518 0.000000 0.183300
O O3 0.000000 0.000000 0.292109
O O4 0.835754 0.352608 0.314128
O O5 0.828485 0.296937 0.182663
O O6 0.000000 0.395353 0.220008
O O7 0.761371 0.281411 0.579328
O O8 0.748335 0.427099 0.581424
O O9 0.000000 0.360892 0.582644
O O10 0.799801 0.362204 0.064305
O O11 0.000000 0.268657 0.085050
O O12 0.000000 0.000000 0.077373
O O13 0.500000 0.078022 0.500000
O O14 0.278272 0.000000 0.500000
#
# Coordination Sequence:
#
# PCOD9519473 Si02
#       6
#     8  16  16  16   8   8
#     4   9  17  27  43  70 105 140 174 214 263 321
#     4   9  18  30  48  75 106 142 180 222 272 332
#     4  10  19  32  51  80 115 145 175 217 277 338
#     4  10  20  34  55  78 103 140 187 235 277 319
#     4   9  17  31  51  76 109 144 175 208 254 323
#     4   9  20  38  59  82 105 140 195 245 272 303
#
# _framework density 21.105055
#
# number of rings (size 3 to 8) (size 9 to 14) (size 15 to 20)
#    0.000    2.556    0.000    2.000    1.556    4.444 
#    0.000    0.556    0.000    1.333    0.000    4.667 
#    0.000    0.000    0.000    0.000    0.000    0.000 
#
# Total GULP energy -200885.981262 kJ/mol
# GULP energy per Si atom -5580.166146 kJ/mol
# Density = 2.105702 g / cm^3
# Si number density = 21.105055 Si / 1000 Ang^3
#
#
#
# Elastic Constant Matrix: (Units=GPa)
#
#
# Indices 1 2 3 4 5 6 
#
# 1 174.7299 106.9787 21.9235 0.0000 0.0000 0.0000
# 2 106.9787 168.3327 22.2858 0.0000 0.0000 0.0000
# 3 21.9235 22.2858 92.0721 0.0000 0.0000 0.0000
# 4 0.0000 0.0000 0.0000 3.0203 0.0000 0.0000
# 5 0.0000 0.0000 0.0000 0.0000 -6.8355 0.0000
# 6 0.0000 0.0000 0.0000 0.0000 0.0000 35.4805
#
#
#
# Elastic Compliance Matrix: (Units=1/GPa)
#
#
# Indices 1 2 3 4 5 6 
#
# 1 0.009428 -0.005883 -0.000821 0.000000 0.000000 0.000000
# 2 -0.005883 0.009808 -0.000973 0.000000 0.000000 0.000000
# 3 -0.000821 -0.000973 0.011292 0.000000 0.000000 0.000000
# 4 0.000000 0.000000 0.000000 0.331089 0.000000 0.000000
# 5 0.000000 0.000000 0.000000 0.000000 -0.146296 0.000000
# 6 0.000000 0.000000 0.000000 0.000000 0.000000 0.028184
#
#
# Mechanical properties :
#
#
# Convention : Reuss Voigt Hill
#
# Bulk Modulus (GPa) = 65.90247 81.94563 73.92405
# Shear Modulus (GPa) = 18.94526 25.26286 22.10406
#
# Velocity S-wave (km/s) = 2.99936 3.46353 3.23977
# Velocity P-wave (km/s) = 6.57940 7.40989 7.00696
#
# Compressibility (1/GPa) = 0.01517394
#
# Stress axis : x y z
#
# Youngs Moduli (GPa) = 106.06713 101.95541 88.55749
#
# Poissons Ratio (x) = 0.59980 0.07270
# Poissons Ratio (y) = 0.62399 0.08619
# Poissons Ratio (z) = 0.08708 0.09923
#
# Static dielectric constant tensor:
#      x y z
#    x 1.717390 0.000000 0.000000 
#    y 0.000000 1.729860 0.000000 
#    z 0.000000 0.000000 1.804810 
# 
# From -- ./inp_files/57328.got.cif
#   From: 2010.05.17/outbox.cif.g08.bks.cpg/sg71_29_cif.got.tgz:57328.got - 2010.06.03 16:22:01.
