data_PCOD9519093
_publ_section_title
;
Structure prediction by ZEFSAII (Michael W. Deem and Ramdas Pophale) SiO2 
 PCOD9519093
Probable space group: I M M M
;
_chemical_formula_sum "Si O2"
_cell_formula_units_Z 104
_cell_length_a 9.964320
_cell_length_b 20.653263
_cell_length_c 27.808194
_cell_angle_alpha 90.000000
_cell_angle_beta 90.000000
_cell_angle_gamma 90.000000
_cell_volume 5722.807350
_symmetry_space_group_name_H-M "I M M M"
_symmetry_group_IT_number 71
_symmetry_cell_setting 'orthorhombic'
loop_
_space_group_symop_operation_xyz
x,y,z
-x,-y,z
x,-y,-z
-x,y,-z
-x,-y,-z
x,y,-z
-x,y,z
x,-y,z
1/2+x,1/2+y,1/2+z
1/2-x,1/2-y,1/2+z
1/2+x,1/2-y,1/2-z
1/2-x,1/2+y,1/2-z
1/2-x,1/2-y,1/2-z
1/2+x,1/2+y,1/2-z
1/2-x,1/2+y,1/2+z
1/2+x,1/2-y,1/2+z
loop_
_atom_site_type_symbol
_atom_site_label
_atom_site_fract_x
_atom_site_fract_y
_atom_site_fract_z
Si Si1 0.646628 0.766729 0.676455
Si Si2 0.337828 0.075181 0.500000
Si Si3 0.846620 0.074681 0.090928
Si Si4 0.642467 0.573685 0.706863
Si Si5 0.344369 0.190594 0.057230
Si Si6 0.351678 0.174508 0.217088
Si Si7 0.158701 0.316423 0.077097
O O1 0.500000 0.736611 0.665404
O O2 0.641383 0.791705 0.730925
O O3 0.766381 0.715659 0.678744
O O4 0.666506 0.820305 0.635293
O O5 0.500000 0.070953 0.500000
O O6 0.301839 0.120087 0.546369
O O7 0.288752 0.000000 0.500000
O O8 0.851007 0.074381 0.149028
O O9 0.738804 0.128185 0.075718
O O10 0.000000 0.089993 0.074511
O O11 0.816233 0.000000 0.075974
O O12 0.500000 0.604116 0.721943
O O13 0.643127 0.500000 0.722493
O O14 0.768789 0.610474 0.726178
O O15 0.500000 0.195116 0.075109
O O16 0.254579 0.255261 0.066055
O O17 0.352460 0.183608 0.000000
O O18 0.500000 0.162999 0.199055
O O19 0.000000 0.303342 0.065378
#
# Coordination Sequence:
#
# PCOD9519093 Si02
#       7
#    16   8  16  16  16  16  16
#     4   9  19  33  50  74 105 136 167 207 257 308
#     4   9  18  34  59  87 106 125 166 223 275 322
#     4   9  19  35  53  73  99 136 182 223 257 297
#     4   9  18  33  51  70  96 132 171 210 250 293
#     4  11  23  35  49  74 107 137 168 212 263 310
#     4  10  19  31  48  75 106 136 171 210 255 306
#     4  10  19  35  58  80 102 134 176 218 261 318
#
# _framework density 18.172899000000001
#
# number of rings (size 3 to 8) (size 9 to 14) (size 15 to 20)
#    0.000    2.385    0.769    2.769    0.000    7.385 
#    0.000    3.846    0.000    3.692    0.000    0.000 
#    0.000    0.000    0.000    0.000    0.000    0.000 
#
# Total GULP energy -289505.084014 kJ/mol
# GULP energy per Si atom -5567.405462 kJ/mol
# Density = 1.813154 g / cm^3
# Si number density = 18.172899 Si / 1000 Ang^3
#
#
#
# Elastic Constant Matrix: (Units=GPa)
#
#
# Indices 1 2 3 4 5 6 
#
# 1 142.0145 66.3208 16.8601 0.0000 0.0000 0.0000
# 2 66.3208 110.2938 11.4747 0.0000 0.0000 0.0000
# 3 16.8601 11.4747 32.2214 0.0000 0.0000 0.0000
# 4 0.0000 0.0000 0.0000 13.8632 0.0000 0.0000
# 5 0.0000 0.0000 0.0000 0.0000 12.7925 0.0000
# 6 0.0000 0.0000 0.0000 0.0000 0.0000 13.7229
#
#
#
# Elastic Compliance Matrix: (Units=1/GPa)
#
#
# Indices 1 2 3 4 5 6 
#
# 1 0.010107 -0.005740 -0.003245 0.000000 0.000000 0.000000
# 2 -0.005740 0.012675 -0.001510 0.000000 0.000000 0.000000
# 3 -0.003245 -0.001510 0.033271 0.000000 0.000000 0.000000
# 4 0.000000 0.000000 0.000000 0.072133 0.000000 0.000000
# 5 0.000000 0.000000 0.000000 0.000000 0.078171 0.000000
# 6 0.000000 0.000000 0.000000 0.000000 0.000000 0.072871
#
#
# Mechanical properties :
#
#
# Convention : Reuss Voigt Hill
#
# Bulk Modulus (GPa) = 28.51970 52.64899 40.58435
# Shear Modulus (GPa) = 16.03044 20.73400 18.38222
#
# Velocity S-wave (km/s) = 2.97325 3.38143 3.18389
# Velocity P-wave (km/s) = 5.24543 6.65428 5.99141
#
# Compressibility (1/GPa) = 0.03506348
#
# Stress axis : x y z
#
# Youngs Moduli (GPa) = 98.93768 78.89279 30.05627
#
# Poissons Ratio (x) = 0.45285 0.09752
# Poissons Ratio (y) = 0.56791 0.04540
# Poissons Ratio (z) = 0.32101 0.11916
#
# Static dielectric constant tensor:
#      x y z
#    x 1.667010 0.000000 0.000000 
#    y 0.000000 1.635420 0.000000 
#    z 0.000000 0.000000 1.651900 
# 
# From -- ./inp_files/66400.got.cif
#   From: 2010.05.17/outbox.cif.g08.bks.cpg/sg71_34_cif.got.tgz:66400.got - 2010.06.03 16:22:01.
