data_PCOD9519542
_publ_section_title
;
Structure prediction by ZEFSAII (Michael W. Deem and Ramdas Pophale) SiO2 
 PCOD9519542
Probable space group: I M M M
;
_chemical_formula_sum "Si O2"
_cell_formula_units_Z 104
_cell_length_a 20.298758
_cell_length_b 8.617932
_cell_length_c 32.609670
_cell_angle_alpha 90.000000
_cell_angle_beta 90.000000
_cell_angle_gamma 90.000000
_cell_volume 5704.517711
_symmetry_space_group_name_H-M "I M M M"
_symmetry_group_IT_number 71
_symmetry_cell_setting 'orthorhombic'
loop_
_space_group_symop_operation_xyz
x,y,z
-x,-y,z
x,-y,-z
-x,y,-z
-x,-y,-z
x,y,-z
-x,y,z
x,-y,z
1/2+x,1/2+y,1/2+z
1/2-x,1/2-y,1/2+z
1/2+x,1/2-y,1/2-z
1/2-x,1/2+y,1/2-z
1/2-x,1/2-y,1/2-z
1/2+x,1/2+y,1/2-z
1/2-x,1/2+y,1/2+z
1/2+x,1/2-y,1/2+z
loop_
_atom_site_type_symbol
_atom_site_label
_atom_site_fract_x
_atom_site_fract_y
_atom_site_fract_z
Si Si1 0.573301 0.688945 0.452403
Si Si2 0.423236 0.813748 0.000000
Si Si3 0.340020 0.185968 0.773588
Si Si4 0.206630 0.316114 0.187949
Si Si5 0.200376 0.185399 0.097637
Si Si6 0.574923 0.813554 0.151205
Si Si7 0.658340 0.684120 0.923143
O O1 0.581991 0.733255 0.500000
O O2 0.500000 0.739568 0.438995
O O3 0.573337 0.500000 0.451218
O O4 0.634568 0.741825 0.425330
O O5 0.384293 0.755341 0.960063
O O6 0.500000 0.762052 0.000000
O O7 0.423216 0.000000 0.000000
O O8 0.278301 0.272402 0.794110
O O9 0.342301 0.225909 0.725517
O O10 0.402203 0.218495 0.802327
O O11 0.327084 0.000000 0.775674
O O12 0.203200 0.500000 0.180485
O O13 0.196520 0.229375 0.145429
O O14 0.266786 0.255812 0.078458
O O15 0.204737 0.000000 0.093676
O O16 0.500000 0.764786 0.143833
O O17 0.623854 0.734570 0.119281
O O18 0.579067 0.000000 0.145126
O O19 0.658270 0.500000 0.926884
#
# Coordination Sequence:
#
# PCOD9519542 Si02
#       7
#    16   8  16  16  16  16  16
#     4   8  16  33  57  84 110 139 181 230 278 329
#     4  11  25  45  65  83 110 153 198 237 283 340
#     4   9  18  33  53  76 105 144 186 228 278 335
#     4  10  19  32  52  79 110 144 182 229 280 331
#     4  11  21  34  57  86 115 150 189 233 282 337
#     4  10  20  36  58  82 110 148 195 241 283 336
#     4  12  25  39  57  85 118 151 189 237 287 336
#
# _framework density 18.231165000000001
#
# number of rings (size 3 to 8) (size 9 to 14) (size 15 to 20)
#    0.000    1.923    1.538    3.462    1.077    3.385 
#    0.000    0.769    0.000    2.769    0.000    4.308 
#    0.000    0.000    0.000    0.000    0.000    0.000 
#
# Total GULP energy -290214.689399 kJ/mol
# GULP energy per Si atom -5581.051719 kJ/mol
# Density = 1.818967 g / cm^3
# Si number density = 18.231165 Si / 1000 Ang^3
#
#
#
# Elastic Constant Matrix: (Units=GPa)
#
#
# Indices 1 2 3 4 5 6 
#
# 1 146.3601 37.2598 72.4838 0.0000 0.0000 0.0000
# 2 37.2598 44.5446 28.2145 0.0000 0.0000 0.0000
# 3 72.4838 28.2145 100.6192 0.0000 0.0000 0.0000
# 4 0.0000 0.0000 0.0000 21.4022 0.0000 0.0000
# 5 0.0000 0.0000 0.0000 0.0000 22.8669 0.0000
# 6 0.0000 0.0000 0.0000 0.0000 0.0000 5.7989
#
#
#
# Elastic Compliance Matrix: (Units=1/GPa)
#
#
# Indices 1 2 3 4 5 6 
#
# 1 0.011585 -0.005356 -0.006844 0.000000 0.000000 0.000000
# 2 -0.005356 0.029774 -0.004491 0.000000 0.000000 0.000000
# 3 -0.006844 -0.004491 0.016128 0.000000 0.000000 0.000000
# 4 0.000000 0.000000 0.000000 0.046724 0.000000 0.000000
# 5 0.000000 0.000000 0.000000 0.000000 0.043731 0.000000
# 6 0.000000 0.000000 0.000000 0.000000 0.000000 0.172448
#
#
# Mechanical properties :
#
#
# Convention : Reuss Voigt Hill
#
# Bulk Modulus (GPa) = 41.48318 63.04889 52.26603
# Shear Modulus (GPa) = 13.81955 20.25130 17.03542
#
# Velocity S-wave (km/s) = 2.75620 3.33649 3.06013
# Velocity P-wave (km/s) = 5.73866 7.03570 6.42002
#
# Compressibility (1/GPa) = 0.02410616
#
# Stress axis : x y z
#
# Youngs Moduli (GPa) = 86.31581 33.58675 62.00397
#
# Poissons Ratio (x) = 0.17988 0.42436
# Poissons Ratio (y) = 0.46228 0.27844
# Poissons Ratio (z) = 0.59075 0.15083
#
# Static dielectric constant tensor:
#      x y z
#    x 1.618460 0.000000 0.000000 
#    y 0.000000 1.617620 0.000000 
#    z 0.000000 0.000000 1.626660 
# 
# From -- ./inp_files/70708.got.cif
#   From: 2010.05.17/outbox.cif.g08.bks.cpg/sg71_36_cif.got.tgz:70708.got - 2010.06.03 16:22:01.
