data_PCOD9519526
_publ_section_title
;
Structure prediction by ZEFSAII (Michael W. Deem and Ramdas Pophale) SiO2 
 PCOD9519526
Probable space group: I M M M
;
_chemical_formula_sum "Si O2"
_cell_formula_units_Z 104
_cell_length_a 26.970925
_cell_length_b 21.291339
_cell_length_c 8.722452
_cell_angle_alpha 90.000000
_cell_angle_beta 90.000000
_cell_angle_gamma 90.000000
_cell_volume 5008.842830
_symmetry_space_group_name_H-M "I M M M"
_symmetry_group_IT_number 71
_symmetry_cell_setting 'orthorhombic'
loop_
_space_group_symop_operation_xyz
x,y,z
-x,-y,z
x,-y,-z
-x,y,-z
-x,-y,-z
x,y,-z
-x,y,z
x,-y,z
1/2+x,1/2+y,1/2+z
1/2-x,1/2-y,1/2+z
1/2+x,1/2-y,1/2-z
1/2-x,1/2+y,1/2-z
1/2-x,1/2-y,1/2-z
1/2+x,1/2+y,1/2-z
1/2-x,1/2+y,1/2+z
1/2+x,1/2-y,1/2+z
loop_
_atom_site_type_symbol
_atom_site_label
_atom_site_fract_x
_atom_site_fract_y
_atom_site_fract_z
Si Si1 0.000000 0.425104 0.318640
Si Si2 0.692709 0.603284 0.176003
Si Si3 0.656440 0.747000 0.175253
Si Si4 0.444807 0.297080 0.316193
Si Si5 0.702675 0.863387 0.314580
Si Si6 0.585790 0.569282 0.186476
Si Si7 0.101005 0.426522 0.816350
O O1 0.050816 0.398357 0.251923
O O2 0.000000 0.500000 0.276359
O O3 0.000000 0.420553 0.500000
O O4 0.678132 0.676751 0.174179
O O5 0.747666 0.602704 0.245286
O O6 0.643497 0.571022 0.240025
O O7 0.696845 0.580492 0.000000
O O8 0.601760 0.741329 0.249164
O O9 0.694069 0.792174 0.263325
O O10 0.651904 0.768318 0.000000
O O11 0.441213 0.296133 0.500000
O O12 0.500000 0.274579 0.271416
O O13 0.439219 0.369284 0.257929
O O14 0.705492 0.865248 0.500000
O O15 0.651960 0.896104 0.263814
O O16 0.565035 0.500000 0.221575
O O17 0.585235 0.576712 0.000000
O O18 0.103042 0.500000 0.776606
O O19 0.098301 0.421039 0.000000
#
# Coordination Sequence:
#
# PCOD9519526 Si02
#       7
#     8  16  16  16  16  16  16
#     4   9  17  31  51  69  89 123 161 197 240 289
#     4   8  16  31  51  75 104 138 173 209 252 301
#     4  10  20  35  54  76 103 135 173 216 262 314
#     4  10  21  37  56  77 104 139 178 223 271 316
#     4  10  19  32  52  78 105 135 172 213 256 305
#     4   9  18  33  54  81 112 145 180 217 259 311
#     4   9  18  32  50  73 100 130 164 203 248 298
#
# _framework density 20.763279000000001
#
# number of rings (size 3 to 8) (size 9 to 14) (size 15 to 20)
#    0.000    2.692    0.000    2.538    0.000    4.000 
#    1.385    7.692    0.000    0.000    0.000    4.308 
#    0.000    0.000    0.000    0.000    0.000    0.000 
#
# Total GULP energy -289962.139625 kJ/mol
# GULP energy per Si atom -5576.194993 kJ/mol
# Density = 2.071602 g / cm^3
# Si number density = 20.763279 Si / 1000 Ang^3
#
#
#
# Elastic Constant Matrix: (Units=GPa)
#
#
# Indices 1 2 3 4 5 6 
#
# 1 127.9792 -2.1309 15.9327 0.0000 0.0000 0.0000
# 2 -2.1309 16.0232 -2.4363 0.0000 0.0000 0.0000
# 3 15.9327 -2.4363 7.1475 0.0000 0.0000 0.0000
# 4 0.0000 0.0000 0.0000 13.3004 0.0000 0.0000
# 5 0.0000 0.0000 0.0000 0.0000 15.2145 0.0000
# 6 0.0000 0.0000 0.0000 0.0000 0.0000 10.2283
#
#
#
# Elastic Compliance Matrix: (Units=1/GPa)
#
#
# Indices 1 2 3 4 5 6 
#
# 1 0.010900 -0.002367 -0.025104 0.000000 0.000000 0.000000
# 2 -0.002367 0.066335 0.027888 0.000000 0.000000 0.000000
# 3 -0.025104 0.027888 0.205375 0.000000 0.000000 0.000000
# 4 0.000000 0.000000 0.000000 0.075186 0.000000 0.000000
# 5 0.000000 0.000000 0.000000 0.000000 0.065727 0.000000
# 6 0.000000 0.000000 0.000000 0.000000 0.000000 0.097768
#
#
# Mechanical properties :
#
#
# Convention : Reuss Voigt Hill
#
# Bulk Modulus (GPa) = 3.52805 19.32011 11.42408
# Shear Modulus (GPa) = 8.13091 17.06760 12.59925
#
# Velocity S-wave (km/s) = 1.98104 2.87018 2.46601
# Velocity P-wave (km/s) = 2.63354 4.50656 3.69084
#
# Compressibility (1/GPa) = 0.28344281
#
# Stress axis : x y z
#
# Youngs Moduli (GPa) = 91.74618 15.07506 4.86914
#
# Poissons Ratio (x) = 0.03569 0.12223
# Poissons Ratio (y) = 0.21720 -0.13579
# Poissons Ratio (z) = 2.30317 -0.42041
#
# Static dielectric constant tensor:
#      x y z
#    x 1.784300 0.000000 0.000000 
#    y 0.000000 1.794180 0.000000 
#    z 0.000000 0.000000 1.707200 
# 
# From -- ./inp_files/15001.got.cif
#   From: 2010.05.17/outbox.cif.g08.bks.cpg/sg71_8_cif.got.tgz:15001.got - 2010.06.03 16:22:01.
