data_PCOD9519279
_publ_section_title
;
Structure prediction by ZEFSAII (Michael W. Deem and Ramdas Pophale) SiO2 
 PCOD9519279
Probable space group: I M M M
;
_chemical_formula_sum "Si O2"
_cell_formula_units_Z 88
_cell_length_a 20.107883
_cell_length_b 7.629649
_cell_length_c 29.553258
_cell_angle_alpha 90.000000
_cell_angle_beta 90.000000
_cell_angle_gamma 90.000000
_cell_volume 4533.945272
_symmetry_space_group_name_H-M "I M M M"
_symmetry_group_IT_number 71
_symmetry_cell_setting 'orthorhombic'
loop_
_space_group_symop_operation_xyz
x,y,z
-x,-y,z
x,-y,-z
-x,y,-z
-x,-y,-z
x,y,-z
-x,y,z
x,-y,z
1/2+x,1/2+y,1/2+z
1/2-x,1/2-y,1/2+z
1/2+x,1/2-y,1/2-z
1/2-x,1/2+y,1/2-z
1/2-x,1/2-y,1/2-z
1/2+x,1/2+y,1/2-z
1/2-x,1/2+y,1/2+z
1/2+x,1/2-y,1/2+z
loop_
_atom_site_type_symbol
_atom_site_label
_atom_site_fract_x
_atom_site_fract_y
_atom_site_fract_z
Si Si1 0.074650 0.705877 0.877212
Si Si2 0.425224 0.000000 0.946173
Si Si3 0.184503 0.713798 0.052013
Si Si4 0.670270 0.290560 0.091123
Si Si5 0.349553 0.701618 0.712212
Si Si6 0.697734 0.288489 0.805772
O O1 0.069423 0.500000 0.887743
O O2 0.127309 0.778515 0.913757
O O3 0.105919 0.717467 0.827075
O O4 0.000000 0.780533 0.879065
O O5 0.385392 0.171970 0.931117
O O6 0.500000 0.000000 0.927734
O O7 0.427890 0.000000 0.000000
O O8 0.182605 0.500000 0.052257
O O9 0.257414 0.759205 0.070960
O O10 0.175964 0.770583 0.000000
O O11 0.661386 0.500000 0.084231
O O12 0.670417 0.253707 0.144711
O O13 0.370276 0.500000 0.714814
O O14 0.346566 0.774633 0.763432
O O15 0.272175 0.714148 0.697675
O O16 0.704536 0.500000 0.801108
#
# Coordination Sequence:
#
# PCOD9519279 Si02
#       6
#    16   8  16  16  16  16
#     4  10  20  34  51  74 111 153 190 235 288 340
#     4  11  26  44  62  90 123 151 189 239 299 375
#     4   9  17  31  54  82 109 143 192 242 285 336
#     4  10  20  38  64  90 118 154 194 242 294 347
#     4  10  19  31  52  81 111 148 188 235 288 342
#     4   9  18  33  55  84 113 142 186 237 284 341
#
# _framework density 19.409146
#
# number of rings (size 3 to 8) (size 9 to 14) (size 15 to 20)
#    0.000    2.273    1.818    1.091    1.273    2.909 
#    0.000    3.636    0.000    3.273    0.000    1.273 
#    0.000    0.000    0.000    0.000    0.000    0.000 
#
# Total GULP energy -245479.231852 kJ/mol
# GULP energy per Si atom -5579.073451 kJ/mol
# Density = 1.936497 g / cm^3
# Si number density = 19.409146 Si / 1000 Ang^3
#
#
#
# Elastic Constant Matrix: (Units=GPa)
#
#
# Indices 1 2 3 4 5 6 
#
# 1 154.2865 33.1192 85.9856 0.0000 0.0000 0.0000
# 2 33.1192 45.0453 27.0715 0.0000 0.0000 0.0000
# 3 85.9856 27.0715 142.6380 0.0000 0.0000 0.0000
# 4 0.0000 0.0000 0.0000 20.4749 0.0000 0.0000
# 5 0.0000 0.0000 0.0000 0.0000 18.6691 0.0000
# 6 0.0000 0.0000 0.0000 0.0000 0.0000 16.4092
#
#
#
# Elastic Compliance Matrix: (Units=1/GPa)
#
#
# Indices 1 2 3 4 5 6 
#
# 1 0.010484 -0.004414 -0.005483 0.000000 0.000000 0.000000
# 2 -0.004414 0.026916 -0.002448 0.000000 0.000000 0.000000
# 3 -0.005483 -0.002448 0.010780 0.000000 0.000000 0.000000
# 4 0.000000 0.000000 0.000000 0.048840 0.000000 0.000000
# 5 0.000000 0.000000 0.000000 0.000000 0.053565 0.000000
# 6 0.000000 0.000000 0.000000 0.000000 0.000000 0.060941
#
#
# Mechanical properties :
#
#
# Convention : Reuss Voigt Hill
#
# Bulk Modulus (GPa) = 42.56625 70.48025 56.52325
# Shear Modulus (GPa) = 20.48794 24.16353 22.32574
#
# Velocity S-wave (km/s) = 3.25250 3.53222 3.39524
# Velocity P-wave (km/s) = 6.00696 7.28198 6.67498
#
# Compressibility (1/GPa) = 0.02349279
#
# Stress axis : x y z
#
# Youngs Moduli (GPa) = 95.38004 37.15258 92.76140
#
# Poissons Ratio (x) = 0.16398 0.50857
# Poissons Ratio (y) = 0.42097 0.22706
# Poissons Ratio (z) = 0.52293 0.09094
#
# Static dielectric constant tensor:
#      x y z
#    x 1.648210 0.000000 0.000000 
#    y 0.000000 1.795770 0.000000 
#    z 0.000000 0.000000 1.689690 
# 
# From -- ./inp_files/70370.got.cif
#   From: 2010.05.17/outbox.cif.g08.bks.cpg/sg71_36_cif.got.tgz:70370.got - 2010.06.03 16:22:01.
