data_PCOD9519141
_publ_section_title
;
Structure prediction by ZEFSAII (Michael W. Deem and Ramdas Pophale) SiO2 
 PCOD9519141
Probable space group: I M M M
;
_chemical_formula_sum "Si O2"
_cell_formula_units_Z 104
_cell_length_a 24.504119
_cell_length_b 7.588929
_cell_length_c 26.207885
_cell_angle_alpha 90.000000
_cell_angle_beta 90.000000
_cell_angle_gamma 90.000000
_cell_volume 4873.618800
_symmetry_space_group_name_H-M "I M M M"
_symmetry_group_IT_number 71
_symmetry_cell_setting 'orthorhombic'
loop_
_space_group_symop_operation_xyz
x,y,z
-x,-y,z
x,-y,-z
-x,y,-z
-x,-y,-z
x,y,-z
-x,y,z
x,-y,z
1/2+x,1/2+y,1/2+z
1/2-x,1/2-y,1/2+z
1/2+x,1/2-y,1/2-z
1/2-x,1/2+y,1/2-z
1/2-x,1/2-y,1/2-z
1/2+x,1/2+y,1/2-z
1/2-x,1/2+y,1/2+z
1/2+x,1/2-y,1/2+z
loop_
_atom_site_type_symbol
_atom_site_label
_atom_site_fract_x
_atom_site_fract_y
_atom_site_fract_z
Si Si1 0.933749 0.200740 0.500000
Si Si2 0.562668 0.786447 0.658150
Si Si3 0.624597 0.206177 0.443392
Si Si4 0.275405 0.708547 0.380773
Si Si5 0.166048 0.792161 0.219855
Si Si6 0.438041 0.283647 0.111146
Si Si7 0.166752 0.212054 0.332210
O O1 0.920226 0.279586 0.445271
O O2 0.000000 0.191707 0.500000
O O3 0.912514 0.000000 0.500000
O O4 0.500000 0.729347 0.663141
O O5 0.589575 0.722334 0.604524
O O6 0.602835 0.728760 0.703619
O O7 0.563493 0.000000 0.657526
O O8 0.615871 0.282247 0.500000
O O9 0.687979 0.218487 0.426498
O O10 0.610369 0.000000 0.446195
O O11 0.284563 0.500000 0.382280
O O12 0.300660 0.783947 0.327893
O O13 0.211533 0.741306 0.374552
O O14 0.179691 0.718589 0.275508
O O15 0.178374 0.000000 0.221408
O O16 0.500000 0.228236 0.121648
O O17 0.438681 0.500000 0.109236
O O18 0.393117 0.227713 0.151341
O O19 0.165349 0.000000 0.329315
#
# Coordination Sequence:
#
# PCOD9519141 Si02
#       7
#     8  16  16  16  16  16  16
#     4   7  10  20  38  58  83 113 139 167 214 271
#     4   9  18  32  51  77 106 134 166 206 254 307
#     4   9  18  34  55  76 100 132 169 210 254 300
#     4  10  20  34  50  69  97 132 167 203 251 305
#     4   9  19  33  49  69  96 133 170 206 248 295
#     4   8  14  25  42  65  92 119 148 189 239 284
#     4  10  19  31  49  74  98 123 165 213 250 289
#
# _framework density 21.339379000000001
#
# number of rings (size 3 to 8) (size 9 to 14) (size 15 to 20)
#    0.000    3.000    0.000    1.846    0.000    2.769 
#    1.385    3.077    0.000    0.462    0.000    4.308 
#    0.000    1.846    0.000    0.000    0.000    0.000 
#
# Total GULP energy -289882.591565 kJ/mol
# GULP energy per Si atom -5574.665222 kJ/mol
# Density = 2.129081 g / cm^3
# Si number density = 21.339379 Si / 1000 Ang^3
#
#
#
# Elastic Constant Matrix: (Units=GPa)
#
#
# Indices 1 2 3 4 5 6 
#
# 1 71.9146 -14.4281 -14.9559 0.0000 0.0000 0.0000
# 2 -14.4281 48.5787 -3.7595 0.0000 0.0000 0.0000
# 3 -14.9559 -3.7595 23.9306 0.0000 0.0000 0.0000
# 4 0.0000 0.0000 0.0000 2.9347 0.0000 0.0000
# 5 0.0000 0.0000 0.0000 0.0000 15.8880 0.0000
# 6 0.0000 0.0000 0.0000 0.0000 0.0000 12.9693
#
#
#
# Elastic Compliance Matrix: (Units=1/GPa)
#
#
# Indices 1 2 3 4 5 6 
#
# 1 0.017636 0.006166 0.011991 0.000000 0.000000 0.000000
# 2 0.006166 0.022994 0.007466 0.000000 0.000000 0.000000
# 3 0.011991 0.007466 0.050454 0.000000 0.000000 0.000000
# 4 0.000000 0.000000 0.000000 0.340750 0.000000 0.000000
# 5 0.000000 0.000000 0.000000 0.000000 0.062941 0.000000
# 6 0.000000 0.000000 0.000000 0.000000 0.000000 0.077105
#
#
# Mechanical properties :
#
#
# Convention : Reuss Voigt Hill
#
# Bulk Modulus (GPa) = 7.02591 8.68186 7.85389
# Shear Modulus (GPa) = 8.80160 18.19623 13.49892
#
# Velocity S-wave (km/s) = 2.03311 2.92328 2.51785
# Velocity P-wave (km/s) = 2.96833 3.93337 3.48442
#
# Compressibility (1/GPa) = 0.14233024
#
# Stress axis : x y z
#
# Youngs Moduli (GPa) = 56.70172 43.48908 19.81993
#
# Poissons Ratio (x) = -0.26815 -0.23766
# Poissons Ratio (y) = -0.34962 -0.14798
# Poissons Ratio (z) = -0.67990 -0.32469
#
# Static dielectric constant tensor:
#      x y z
#    x 1.771220 0.000000 0.000000 
#    y 0.000000 1.794560 0.000000 
#    z 0.000000 0.000000 1.795930 
# 
# From -- ./inp_files/66788.got.cif
#   From: 2010.05.17/outbox.cif.g08.bks.cpg/sg71_34_cif.got.tgz:66788.got - 2010.06.03 16:22:01.
