data_PCOD9519973
_publ_section_title
;
Structure prediction by ZEFSAII (Michael W. Deem and Ramdas Pophale) SiO2 
 PCOD9519973
Probable space group: I M M M
;
_chemical_formula_sum "Si O2"
_cell_formula_units_Z 88
_cell_length_a 20.486866
_cell_length_b 23.774872
_cell_length_c 7.674795
_cell_angle_alpha 90.000000
_cell_angle_beta 90.000000
_cell_angle_gamma 90.000000
_cell_volume 3738.182484
_symmetry_space_group_name_H-M "I M M M"
_symmetry_group_IT_number 71
_symmetry_cell_setting 'orthorhombic'
loop_
_space_group_symop_operation_xyz
x,y,z
-x,-y,z
x,-y,-z
-x,y,-z
-x,-y,-z
x,y,-z
-x,y,z
x,-y,z
1/2+x,1/2+y,1/2+z
1/2-x,1/2-y,1/2+z
1/2+x,1/2-y,1/2-z
1/2-x,1/2+y,1/2-z
1/2-x,1/2-y,1/2-z
1/2+x,1/2+y,1/2-z
1/2-x,1/2+y,1/2+z
1/2+x,1/2-y,1/2+z
loop_
_atom_site_type_symbol
_atom_site_label
_atom_site_fract_x
_atom_site_fract_y
_atom_site_fract_z
Si Si1 0.117398 0.282180 0.787163
Si Si2 0.403800 0.336592 0.299402
Si Si3 0.000000 0.066132 0.787042
Si Si4 0.428355 0.905670 0.711178
Si Si5 0.791098 0.440150 0.299603
Si Si6 0.757103 0.176718 0.696754
O O1 0.082291 0.225553 0.722431
O O2 0.082506 0.340075 0.740021
O O3 0.194405 0.287927 0.734329
O O4 0.118680 0.280191 0.000000
O O5 0.424611 0.334946 0.500000
O O6 0.438314 0.393547 0.231599
O O7 0.325168 0.332952 0.294078
O O8 0.000000 0.000000 0.727780
O O9 0.000000 0.062121 0.000000
O O10 0.423643 0.909454 0.500000
O O11 0.500000 0.924279 0.763019
O O12 0.369143 0.939158 0.792171
O O13 0.770047 0.432889 0.500000
O O14 0.766086 0.500000 0.235036
O O15 0.770874 0.386437 0.192667
O O16 0.770874 0.194363 0.500000
#
# Coordination Sequence:
#
# PCOD9519973 Si02
#       6
#    16  16   8  16  16  16
#     4   8  16  30  51  80 108 137 176 219 266 323
#     4  10  19  33  56  80 105 143 182 218 268 322
#     4   9  20  36  53  79 111 141 182 231 266 308
#     4   9  18  32  51  76 108 141 176 221 267 315
#     4  10  21  36  53  74 102 138 181 223 262 314
#     4  10  20  35  54  80 110 136 171 225 280 329
#
# _framework density 23.540849999999999
#
# number of rings (size 3 to 8) (size 9 to 14) (size 15 to 20)
#    0.000    2.636    0.000    2.727    1.273    2.909 
#    0.000    7.727    0.000    0.545    0.000    0.000 
#    0.000    0.000    0.000    0.000    0.000    0.000 
#
# Total GULP energy -245294.942445 kJ/mol
# GULP energy per Si atom -5574.885056 kJ/mol
# Density = 2.348727 g / cm^3
# Si number density = 23.540850 Si / 1000 Ang^3
#
#
#
# Elastic Constant Matrix: (Units=GPa)
#
#
# Indices 1 2 3 4 5 6 
#
# 1 89.7385 25.2493 5.8558 0.0000 0.0000 0.0000
# 2 25.2493 182.6238 22.5249 0.0000 0.0000 0.0000
# 3 5.8558 22.5249 56.7440 0.0000 0.0000 0.0000
# 4 0.0000 0.0000 0.0000 18.0445 0.0000 0.0000
# 5 0.0000 0.0000 0.0000 0.0000 16.2418 0.0000
# 6 0.0000 0.0000 0.0000 0.0000 0.0000 2.0277
#
#
#
# Elastic Compliance Matrix: (Units=1/GPa)
#
#
# Indices 1 2 3 4 5 6 
#
# 1 0.011613 -0.001533 -0.000590 0.000000 0.000000 0.000000
# 2 -0.001533 0.005960 -0.002208 0.000000 0.000000 0.000000
# 3 -0.000590 -0.002208 0.018560 0.000000 0.000000 0.000000
# 4 0.000000 0.000000 0.000000 0.055419 0.000000 0.000000
# 5 0.000000 0.000000 0.000000 0.000000 0.061570 0.000000
# 6 0.000000 0.000000 0.000000 0.000000 0.000000 0.493179
#
#
# Mechanical properties :
#
#
# Convention : Reuss Voigt Hill
#
# Bulk Modulus (GPa) = 36.40004 48.48514 42.44259
# Shear Modulus (GPa) = 7.52877 25.62787 16.57832
#
# Velocity S-wave (km/s) = 1.79028 3.30306 2.65662
# Velocity P-wave (km/s) = 4.44630 5.93193 5.24201
#
# Compressibility (1/GPa) = 0.02747249
#
# Stress axis : x y z
#
# Youngs Moduli (GPa) = 86.10834 167.78626 53.87862
#
# Poissons Ratio (x) = 0.25719 0.03179
# Poissons Ratio (y) = 0.13199 0.11895
# Poissons Ratio (z) = 0.05080 0.37041
#
# Static dielectric constant tensor:
#      x y z
#    x 1.936440 0.000000 0.000000 
#    y 0.000000 1.940920 0.000000 
#    z 0.000000 0.000000 1.945760 
# 
# From -- ./inp_files/10488.got.cif
#   From: 2010.05.17/outbox.cif.g08.bks.cpg/sg71_6_cif.got.tgz:10488.got - 2010.06.03 16:22:01.
