data_PCOD9519102
_publ_section_title
;
Structure prediction by ZEFSAII (Michael W. Deem and Ramdas Pophale) SiO2 
 PCOD9519102
Probable space group: I M M M
;
_chemical_formula_sum "Si O2"
_cell_formula_units_Z 104
_cell_length_a 30.121802
_cell_length_b 20.372672
_cell_length_c 7.326622
_cell_angle_alpha 90.000000
_cell_angle_beta 90.000000
_cell_angle_gamma 90.000000
_cell_volume 4496.066522
_symmetry_space_group_name_H-M "I M M M"
_symmetry_group_IT_number 71
_symmetry_cell_setting 'orthorhombic'
loop_
_space_group_symop_operation_xyz
x,y,z
-x,-y,z
x,-y,-z
-x,y,-z
-x,-y,-z
x,y,-z
-x,y,z
x,-y,z
1/2+x,1/2+y,1/2+z
1/2-x,1/2-y,1/2+z
1/2+x,1/2-y,1/2-z
1/2-x,1/2+y,1/2-z
1/2-x,1/2-y,1/2-z
1/2+x,1/2+y,1/2-z
1/2-x,1/2+y,1/2+z
1/2+x,1/2-y,1/2+z
loop_
_atom_site_type_symbol
_atom_site_label
_atom_site_fract_x
_atom_site_fract_y
_atom_site_fract_z
Si Si1 0.786310 0.304034 0.716556
Si Si2 0.773018 0.923726 0.777510
Si Si3 0.879663 0.287843 0.278845
Si Si4 0.500000 0.920982 0.202453
Si Si5 0.374007 0.424870 0.719083
Si Si6 0.949277 0.183715 0.715851
Si Si7 0.903797 0.427367 0.277419
O O1 0.793590 0.314781 0.500000
O O2 0.750000 0.250000 0.750000
O O3 0.764776 0.372579 0.784981
O O4 0.831129 0.267760 0.783552
O O5 0.823824 0.905930 0.719538
O O6 0.765044 0.000000 0.725874
O O7 0.772776 0.922053 0.000000
O O8 0.883464 0.284194 0.500000
O O9 0.921324 0.246195 0.210072
O O10 0.876173 0.364677 0.228978
O O11 0.546923 0.908346 0.289269
O O12 0.500000 0.000000 0.181881
O O13 0.500000 0.889838 0.000000
O O14 0.372148 0.425785 0.500000
O O15 0.382130 0.500000 0.780386
O O16 0.414796 0.376921 0.765284
O O17 0.954263 0.193816 0.500000
O O18 0.000000 0.175485 0.787075
O O19 0.906275 0.430495 0.500000
O O20 0.891133 0.500000 0.216027
#
# Coordination Sequence:
#
# PCOD9519102 Si02
#       7
#    16  16  16   8  16  16  16
#     4  10  19  31  49  71  95 124 157 193 233 280
#     4   8  15  29  50  75  99 123 154 194 241 289
#     4   9  18  29  42  64  94 127 161 195 231 274
#     4   7  10  16  28  48  74 108 146 177 208 250
#     4   9  18  34  55  75  94 119 155 199 243 288
#     4  10  21  34  47  67  99 135 163 192 236 286
#     4   8  13  21  35  57  85 118 155 190 222 259
#
# _framework density 23.131329000000001
#
# number of rings (size 3 to 8) (size 9 to 14) (size 15 to 20)
#    0.000    3.154    0.000    2.769    1.077    1.538 
#    0.000    4.615    0.000    1.385    0.000    0.000 
#    0.000    1.846    0.000    1.385    0.000    1.538 
#
# Total GULP energy -289589.440461 kJ/mol
# GULP energy per Si atom -5569.027701 kJ/mol
# Density = 2.307868 g / cm^3
# Si number density = 23.131329 Si / 1000 Ang^3
#
#
#
# Elastic Constant Matrix: (Units=GPa)
#
#
# Indices 1 2 3 4 5 6 
#
# 1 88.4773 35.6164 7.0165 0.0000 0.0000 0.0000
# 2 35.6164 103.6310 -2.2604 0.0000 0.0000 0.0000
# 3 7.0165 -2.2604 90.2113 0.0000 0.0000 0.0000
# 4 0.0000 0.0000 0.0000 -47.1879 0.0000 0.0000
# 5 0.0000 0.0000 0.0000 0.0000 8.4314 0.0000
# 6 0.0000 0.0000 0.0000 0.0000 0.0000 32.2428
#
#
#
# Elastic Compliance Matrix: (Units=1/GPa)
#
#
# Indices 1 2 3 4 5 6 
#
# 1 0.013234 -0.004573 -0.001144 0.000000 0.000000 0.000000
# 2 -0.004573 0.011235 0.000637 0.000000 0.000000 0.000000
# 3 -0.001144 0.000637 0.011190 0.000000 0.000000 0.000000
# 4 0.000000 0.000000 0.000000 -0.021192 0.000000 0.000000
# 5 0.000000 0.000000 0.000000 0.000000 0.118604 0.000000
# 6 0.000000 0.000000 0.000000 0.000000 0.000000 0.031015
#
#
# Mechanical properties :
#
#
# Convention : Reuss Voigt Hill
#
# Bulk Modulus (GPa) = 39.21662 40.34049 39.77856
# Shear Modulus (GPa) = 27.36044 14.82707 21.09375
#
# Velocity S-wave (km/s) = 3.44296 2.53453 3.02307
# Velocity P-wave (km/s) = 5.72678 5.10321 5.42396
#
# Compressibility (1/GPa) = 0.02549939
#
# Stress axis : x y z
#
# Youngs Moduli (GPa) = 75.56283 89.00528 89.36536
#
# Poissons Ratio (x) = 0.40705 0.10223
# Poissons Ratio (y) = 0.34557 -0.05695
# Poissons Ratio (z) = 0.08644 -0.05672
#
# Static dielectric constant tensor:
#      x y z
#    x 1.948390 0.000000 0.000000 
#    y 0.000000 1.944240 0.000000 
#    z 0.000000 0.000000 1.628600 
# 
# From -- ./inp_files/28919.got.cif
#   From: 2010.05.17/outbox.cif.g08.bks.cpg/sg71_15_cif.got.tgz:28919.got - 2010.06.03 16:22:01.
