data_PCOD9519487
_publ_section_title
;
Structure prediction by ZEFSAII (Michael W. Deem and Ramdas Pophale) SiO2 
 PCOD9519487
Probable space group: I M M M
;
_chemical_formula_sum "Si O2"
_cell_formula_units_Z 80
_cell_length_a 24.015062
_cell_length_b 7.364623
_cell_length_c 20.993617
_cell_angle_alpha 90.000000
_cell_angle_beta 90.000000
_cell_angle_gamma 90.000000
_cell_volume 3712.970528
_symmetry_space_group_name_H-M "I M M M"
_symmetry_group_IT_number 71
_symmetry_cell_setting 'orthorhombic'
loop_
_space_group_symop_operation_xyz
x,y,z
-x,-y,z
x,-y,-z
-x,y,-z
-x,-y,-z
x,y,-z
-x,y,z
x,-y,z
1/2+x,1/2+y,1/2+z
1/2-x,1/2-y,1/2+z
1/2+x,1/2-y,1/2-z
1/2-x,1/2+y,1/2-z
1/2-x,1/2-y,1/2-z
1/2+x,1/2+y,1/2-z
1/2-x,1/2+y,1/2+z
1/2+x,1/2-y,1/2+z
loop_
_atom_site_type_symbol
_atom_site_label
_atom_site_fract_x
_atom_site_fract_y
_atom_site_fract_z
Si Si1 0.631528 0.221765 0.875643
Si Si2 0.936274 0.714741 0.746831
Si Si3 0.936624 0.278897 0.500000
Si Si4 0.063492 0.778219 0.000000
Si Si5 0.369612 0.281703 0.376215
Si Si6 0.750920 0.778417 0.925170
O O1 0.600618 0.285937 0.811957
O O2 0.595534 0.276652 0.936767
O O3 0.694785 0.279513 0.889331
O O4 0.632667 0.000000 0.873878
O O5 0.941744 0.500000 0.735538
O O6 0.901462 0.735824 0.811579
O O7 0.000000 0.786373 0.750936
O O8 0.936837 0.500000 0.500000
O O9 0.000000 0.217858 0.500000
O O10 0.094868 0.718400 0.936719
O O11 0.000000 0.719930 0.000000
O O12 0.064178 0.000000 0.000000
O O13 0.367846 0.500000 0.378694
O O14 0.306366 0.219315 0.387909
O O15 0.750798 0.000000 0.926417
O O16 0.751644 0.723303 0.000000
#
# Coordination Sequence:
#
# PCOD9519487 Si02
#       6
#    16  16   8   8  16  16
#     4   9  16  27  45  69  99 132 162 199 248 292
#     4  10  21  35  48  69 105 139 163 195 244 298
#     4   9  14  21  39  67  95 127 168 205 238 284
#     4   9  16  27  46  70  91 115 156 206 244 273
#     4  10  19  32  52  75  97 126 166 208 248 290
#     4   9  15  27  48  74  99 122 158 210 255 288
#
# _framework density 21.546088999999998
#
# number of rings (size 3 to 8) (size 9 to 14) (size 15 to 20)
#    0.000    2.600    2.000    1.200    0.000    4.400 
#    0.000    0.500    0.000    1.800    0.000    0.700 
#    0.000    2.400    0.000    0.000    0.000    0.000 
#
# Total GULP energy -223412.191983 kJ/mol
# GULP energy per Si atom -5585.304800 kJ/mol
# Density = 2.149705 g / cm^3
# Si number density = 21.546089 Si / 1000 Ang^3
#
#
#
# Elastic Constant Matrix: (Units=GPa)
#
#
# Indices 1 2 3 4 5 6 
#
# 1 280.0647 7.5340 147.1724 0.0000 0.0000 0.0000
# 2 7.5340 77.2886 -0.9038 0.0000 0.0000 0.0000
# 3 147.1724 -0.9038 220.6624 0.0000 0.0000 0.0000
# 4 0.0000 0.0000 0.0000 16.6647 0.0000 0.0000
# 5 0.0000 0.0000 0.0000 0.0000 70.1354 0.0000
# 6 0.0000 0.0000 0.0000 0.0000 0.0000 -2.4492
#
#
#
# Elastic Compliance Matrix: (Units=1/GPa)
#
#
# Indices 1 2 3 4 5 6 
#
# 1 0.005523 -0.000582 -0.003686 0.000000 0.000000 0.000000
# 2 -0.000582 0.013000 0.000441 0.000000 0.000000 0.000000
# 3 -0.003686 0.000441 0.006992 0.000000 0.000000 0.000000
# 4 0.000000 0.000000 0.000000 0.060007 0.000000 0.000000
# 5 0.000000 0.000000 0.000000 0.000000 0.014258 0.000000
# 6 0.000000 0.000000 0.000000 0.000000 0.000000 -0.408303
#
#
# Mechanical properties :
#
#
# Convention : Reuss Voigt Hill
#
# Bulk Modulus (GPa) = 55.98293 98.40233 77.19263
# Shear Modulus (GPa) = -16.95407 45.15105 14.09849
#
# Velocity S-wave (km/s) = -2.80817 4.58269 2.56078
# Velocity P-wave (km/s) = 3.94016 8.58902 6.68192
#
# Compressibility (1/GPa) = 0.01786259
#
# Stress axis : x y z
#
# Youngs Moduli (GPa) = 181.05031 76.92096 143.01738
#
# Poissons Ratio (x) = 0.04473 0.52719
# Poissons Ratio (y) = 0.10528 -0.06308
# Poissons Ratio (z) = 0.66739 -0.03393
#
# Static dielectric constant tensor:
#      x y z
#    x 1.758920 0.000000 0.000000 
#    y 0.000000 1.868810 0.000000 
#    z 0.000000 0.000000 1.720780 
# 
# From -- ./inp_files/12395.got.cif
#   From: 2010.05.17/outbox.cif.g08.bks.cpg/sg71_7_cif.got.tgz:12395.got - 2010.06.03 16:22:01.
