data_PCOD9519848
_publ_section_title
;
Structure prediction by ZEFSAII (Michael W. Deem and Ramdas Pophale) SiO2 
 PCOD9519848
Probable space group: I M M M
;
_chemical_formula_sum "Si O2"
_cell_formula_units_Z 104
_cell_length_a 20.276658
_cell_length_b 7.669230
_cell_length_c 33.160772
_cell_angle_alpha 90.000000
_cell_angle_beta 90.000000
_cell_angle_gamma 90.000000
_cell_volume 5156.710744
_symmetry_space_group_name_H-M "I M M M"
_symmetry_group_IT_number 71
_symmetry_cell_setting 'orthorhombic'
loop_
_space_group_symop_operation_xyz
x,y,z
-x,-y,z
x,-y,-z
-x,y,-z
-x,-y,-z
x,y,-z
-x,y,z
x,-y,z
1/2+x,1/2+y,1/2+z
1/2-x,1/2-y,1/2+z
1/2+x,1/2-y,1/2-z
1/2-x,1/2+y,1/2-z
1/2-x,1/2-y,1/2-z
1/2+x,1/2+y,1/2-z
1/2-x,1/2+y,1/2+z
1/2+x,1/2-y,1/2+z
loop_
_atom_site_type_symbol
_atom_site_label
_atom_site_fract_x
_atom_site_fract_y
_atom_site_fract_z
Si Si1 0.573641 0.711030 0.847405
Si Si2 0.076683 0.713706 0.500000
Si Si3 0.192139 0.294231 0.101070
Si Si4 0.208474 0.292538 0.190869
Si Si5 0.837229 0.294996 0.423706
Si Si6 0.573760 0.213158 0.546410
Si Si7 0.846547 0.210349 0.271896
O O1 0.500000 0.773241 0.856679
O O2 0.573267 0.500000 0.847479
O O3 0.624711 0.765730 0.881728
O O4 0.597359 0.767748 0.803013
O O5 0.075259 0.500000 0.500000
O O6 0.117108 0.771803 0.460338
O O7 0.000000 0.770027 0.500000
O O8 0.178623 0.500000 0.105237
O O9 0.195135 0.220512 0.146476
O O10 0.263629 0.278077 0.080397
O O11 0.132871 0.221777 0.074243
O O12 0.217809 0.500000 0.186643
O O13 0.153858 0.263785 0.225276
O O14 0.277481 0.223609 0.208913
O O15 0.829554 0.500000 0.430336
O O16 0.583022 0.267007 0.500000
O O17 0.500000 0.264901 0.559499
O O18 0.575001 0.000000 0.546393
O O19 0.845908 0.000000 0.272177
#
# Coordination Sequence:
#
# PCOD9519848 Si02
#       7
#    16   8  16  16  16  16  16
#     4  10  20  36  56  77 105 139 175 220 269 311
#     4   9  20  38  53  69 102 143 174 210 263 313
#     4  10  19  33  53  79 109 137 171 220 267 307
#     4   9  17  30  48  71 101 132 164 206 255 302
#     4  11  22  35  54  78 105 139 180 219 258 313
#     4   8  15  29  51  79 106 134 169 208 256 312
#     4   9  17  31  49  71  99 131 168 207 251 303
#
# _framework density 20.167894
#
# number of rings (size 3 to 8) (size 9 to 14) (size 15 to 20)
#    0.000    2.538    1.538    1.385    1.077    2.154 
#    0.000    1.923    0.000    4.154    0.000    1.077 
#    0.000    0.000    0.000    0.000    0.000    0.000 
#
# Total GULP energy -290070.283816 kJ/mol
# GULP energy per Si atom -5578.274689 kJ/mol
# Density = 2.012199 g / cm^3
# Si number density = 20.167894 Si / 1000 Ang^3
#
#
#
# Elastic Constant Matrix: (Units=GPa)
#
#
# Indices 1 2 3 4 5 6 
#
# 1 132.6551 -8.3897 81.7131 0.0000 0.0000 0.0000
# 2 -8.3897 29.5665 -1.3786 0.0000 0.0000 0.0000
# 3 81.7131 -1.3786 131.0815 0.0000 0.0000 0.0000
# 4 0.0000 0.0000 0.0000 10.8030 0.0000 0.0000
# 5 0.0000 0.0000 0.0000 0.0000 29.0537 0.0000
# 6 0.0000 0.0000 0.0000 0.0000 0.0000 6.5257
#
#
#
# Elastic Compliance Matrix: (Units=1/GPa)
#
#
# Indices 1 2 3 4 5 6 
#
# 1 0.012532 0.003193 -0.007778 0.000000 0.000000 0.000000
# 2 0.003193 0.034652 -0.001626 0.000000 0.000000 0.000000
# 3 -0.007778 -0.001626 0.012461 0.000000 0.000000 0.000000
# 4 0.000000 0.000000 0.000000 0.092567 0.000000 0.000000
# 5 0.000000 0.000000 0.000000 0.000000 0.034419 0.000000
# 6 0.000000 0.000000 0.000000 0.000000 0.000000 0.153240
#
#
# Mechanical properties :
#
#
# Convention : Reuss Voigt Hill
#
# Bulk Modulus (GPa) = 21.17654 48.57699 34.87677
# Shear Modulus (GPa) = 13.58570 24.03369 18.80969
#
# Velocity S-wave (km/s) = 2.59825 3.45582 3.05725
# Velocity P-wave (km/s) = 4.41861 6.32947 5.45831
#
# Compressibility (1/GPa) = 0.04722206
#
# Stress axis : x y z
#
# Youngs Moduli (GPa) = 79.79820 28.85805 80.25320
#
# Poissons Ratio (x) = -0.09215 0.62424
# Poissons Ratio (y) = -0.25482 0.13050
# Poissons Ratio (z) = 0.62070 0.04693
#
# Static dielectric constant tensor:
#      x y z
#    x 1.700850 0.000000 0.000000 
#    y 0.000000 1.751540 0.000000 
#    z 0.000000 0.000000 1.723000 
# 
# From -- ./inp_files/70755.got.cif
#   From: 2010.05.17/outbox.cif.g08.bks.cpg/sg71_36_cif.got.tgz:70755.got - 2010.06.03 16:22:01.
