data_PCOD9519545
_publ_section_title
;
Structure prediction by ZEFSAII (Michael W. Deem and Ramdas Pophale) SiO2 
 PCOD9519545
Probable space group: I M M M
;
_chemical_formula_sum "Si O2"
_cell_formula_units_Z 56
_cell_length_a 8.830881
_cell_length_b 23.331044
_cell_length_c 13.608952
_cell_angle_alpha 90.000000
_cell_angle_beta 90.000000
_cell_angle_gamma 90.000000
_cell_volume 2803.902369
_symmetry_space_group_name_H-M "I M M M"
_symmetry_group_IT_number 71
_symmetry_cell_setting 'orthorhombic'
loop_
_space_group_symop_operation_xyz
x,y,z
-x,-y,z
x,-y,-z
-x,y,-z
-x,-y,-z
x,y,-z
-x,y,z
x,-y,z
1/2+x,1/2+y,1/2+z
1/2-x,1/2-y,1/2+z
1/2+x,1/2-y,1/2-z
1/2-x,1/2+y,1/2-z
1/2-x,1/2-y,1/2-z
1/2+x,1/2+y,1/2-z
1/2-x,1/2+y,1/2+z
1/2+x,1/2-y,1/2+z
loop_
_atom_site_type_symbol
_atom_site_label
_atom_site_fract_x
_atom_site_fract_y
_atom_site_fract_z
Si Si1 0.318847 0.365075 0.109707
Si Si2 0.175413 0.238612 0.886077
Si Si3 0.675454 0.431487 0.500000
Si Si4 0.180086 0.374617 0.308659
O O1 0.500000 0.364222 0.119173
O O2 0.254946 0.300188 0.113547
O O3 0.246610 0.395255 0.204323
O O4 0.280858 0.387548 0.000000
O O5 0.263029 0.190673 0.825448
O O6 0.000000 0.243465 0.854465
O O7 0.176025 0.219121 0.000000
O O8 0.679124 0.500000 0.500000
O O9 0.500000 0.412324 0.500000
O O10 0.755430 0.408850 0.598356
O O11 0.000000 0.376485 0.307297
#
# Coordination Sequence:
#
# PCOD9519545 Si02
#       4
#    16  16   8  16
#     4  10  21  36  55  81 117 158 200 238 280 339
#     4  10  19  32  52  79 116 157 198 239 283 339
#     4  11  25  45  67  89 113 145 191 245 298 349
#     4  12  23  36  58  84 116 152 190 238 293 349
#
# _framework density 19.972165
#
# number of rings (size 3 to 8) (size 9 to 14) (size 15 to 20)
#    0.000    1.286    1.429    5.571    0.000    4.000 
#    0.000    0.000    0.000    0.857    0.000    6.000 
#    0.000    0.000    0.000    0.000    0.000    0.000 
#
# Total GULP energy -156524.971239 kJ/mol
# GULP energy per Si atom -5590.177544 kJ/mol
# Density = 1.992671 g / cm^3
# Si number density = 19.972165 Si / 1000 Ang^3
#
#
#
# Elastic Constant Matrix: (Units=GPa)
#
#
# Indices 1 2 3 4 5 6 
#
# 1 161.5594 13.3031 91.1214 0.0000 0.0000 0.0000
# 2 13.3031 21.0578 28.0930 0.0000 0.0000 0.0000
# 3 91.1214 28.0930 209.8852 -0.0001 0.0000 0.0000
# 4 0.0000 0.0000 -0.0001 9.4963 0.0000 0.0000
# 5 0.0000 0.0000 0.0000 0.0000 35.8806 0.0000
# 6 0.0000 0.0000 0.0000 0.0000 0.0000 17.7024
#
#
#
# Elastic Compliance Matrix: (Units=1/GPa)
#
#
# Indices 1 2 3 4 5 6 
#
# 1 0.008202 -0.000525 -0.003490 0.000000 0.000000 0.000000
# 2 -0.000525 0.057845 -0.007515 0.000000 0.000000 0.000000
# 3 -0.003490 -0.007515 0.007286 0.000000 0.000000 0.000000
# 4 0.000000 0.000000 0.000000 0.105304 0.000000 0.000000
# 5 0.000000 0.000000 0.000000 0.000000 0.027870 0.000000
# 6 0.000000 0.000000 0.000000 0.000000 0.000000 0.056489
#
#
# Mechanical properties :
#
#
# Convention : Reuss Voigt Hill
#
# Bulk Modulus (GPa) = 19.89154 73.05973 46.47564
# Shear Modulus (GPa) = 16.51180 29.94818 23.22999
#
# Velocity S-wave (km/s) = 2.87843 3.87653 3.41415
# Velocity P-wave (km/s) = 4.58567 7.52973 6.23399
#
# Compressibility (1/GPa) = 0.05027262
#
# Stress axis : x y z
#
# Youngs Moduli (GPa) = 121.92834 17.28755 137.25461
#
# Poissons Ratio (x) = 0.00907 0.47908
# Poissons Ratio (y) = 0.06397 1.03143
# Poissons Ratio (z) = 0.42559 0.12991
#
# Static dielectric constant tensor:
#      x y z
#    x 1.665350 0.000000 0.000000 
#    y 0.000000 1.672870 0.000000 
#    z 0.000000 0.000000 1.785780 
# 
# From -- ./inp_files/5774.got.cif
#   From: 2010.05.17/outbox.cif.g08.bks.cpg/sg71_3_cif.got.tgz:5774.got - 2010.06.03 16:22:01.
