data_PCOD9519904
_publ_section_title
;
Structure prediction by ZEFSAII (Michael W. Deem and Ramdas Pophale) SiO2 
 PCOD9519904
Probable space group: I M M M
;
_chemical_formula_sum "Si O2"
_cell_formula_units_Z 88
_cell_length_a 28.274280
_cell_length_b 8.792259
_cell_length_c 19.979214
_cell_angle_alpha 90.000000
_cell_angle_beta 90.000000
_cell_angle_gamma 90.000000
_cell_volume 4966.728565
_symmetry_space_group_name_H-M "I M M M"
_symmetry_group_IT_number 71
_symmetry_cell_setting 'orthorhombic'
loop_
_space_group_symop_operation_xyz
x,y,z
-x,-y,z
x,-y,-z
-x,y,-z
-x,-y,-z
x,y,-z
-x,y,z
x,-y,z
1/2+x,1/2+y,1/2+z
1/2-x,1/2-y,1/2+z
1/2+x,1/2-y,1/2-z
1/2-x,1/2+y,1/2-z
1/2-x,1/2-y,1/2-z
1/2+x,1/2+y,1/2-z
1/2-x,1/2+y,1/2+z
1/2+x,1/2-y,1/2+z
loop_
_atom_site_type_symbol
_atom_site_label
_atom_site_fract_x
_atom_site_fract_y
_atom_site_fract_z
Si Si1 0.713484 0.318500 0.657021
Si Si2 0.054456 0.682279 0.187156
Si Si3 0.811685 0.817077 0.309755
Si Si4 0.000000 0.317707 0.578170
Si Si5 0.081633 0.182286 0.330386
Si Si6 0.370090 0.183539 0.575833
O O1 0.712700 0.500000 0.652103
O O2 0.767015 0.258667 0.654565
O O3 0.693073 0.275786 0.730869
O O4 0.679652 0.245917 0.602081
O O5 0.060115 0.500000 0.197099
O O6 0.065860 0.764158 0.256687
O O7 0.089845 0.732137 0.128643
O O8 0.000000 0.710124 0.168741
O O9 0.863165 0.772984 0.337034
O O10 0.807358 0.000000 0.313981
O O11 0.046164 0.254217 0.616062
O O12 0.000000 0.500000 0.583461
O O13 0.000000 0.275022 0.500000
O O14 0.078624 0.000000 0.334334
O O15 0.379908 0.232782 0.500000
O O16 0.368865 0.000000 0.576744
#
# Coordination Sequence:
#
# PCOD9519904 Si02
#       6
#    16  16  16   8  16  16
#     4  10  19  33  54  81 111 144 187 235 282 334
#     4  10  20  34  55  83 113 149 193 237 282 331
#     4   9  19  34  54  83 113 142 181 231 283 334
#     4  11  25  43  61  85 118 151 184 225 277 338
#     4  11  21  36  60  88 116 146 185 232 280 336
#     4  10  21  36  54  78 114 158 197 236 284 337
#
# _framework density 17.7179
#
# number of rings (size 3 to 8) (size 9 to 14) (size 15 to 20)
#    0.000    1.909    2.727    1.364    0.000    3.636 
#    0.000    2.727    0.000    1.091    0.000    2.545 
#    0.000    0.000    0.000    0.000    0.000    0.000 
#
# Total GULP energy -245641.402230 kJ/mol
# GULP energy per Si atom -5582.759142 kJ/mol
# Density = 1.767757 g / cm^3
# Si number density = 17.717900 Si / 1000 Ang^3
#
#
#
# Elastic Constant Matrix: (Units=GPa)
#
#
# Indices 1 2 3 4 5 6 
#
# 1 158.0516 41.2798 84.9208 0.0000 0.0000 0.0000
# 2 41.2798 23.7719 39.3931 0.0000 0.0000 0.0000
# 3 84.9208 39.3931 135.5771 0.0000 0.0000 0.0000
# 4 0.0000 0.0000 0.0000 16.4063 0.0000 0.0000
# 5 0.0000 0.0000 0.0000 0.0000 25.8524 0.0000
# 6 0.0000 0.0000 0.0000 0.0000 0.0000 25.8238
#
#
#
# Elastic Compliance Matrix: (Units=1/GPa)
#
#
# Indices 1 2 3 4 5 6 
#
# 1 0.012123 -0.016332 -0.002848 0.000000 0.000000 0.000000
# 2 -0.016332 0.103132 -0.019736 0.000000 0.000000 0.000000
# 3 -0.002848 -0.019736 0.014894 0.000000 0.000000 0.000000
# 4 0.000000 0.000000 0.000000 0.060952 0.000000 0.000000
# 5 0.000000 0.000000 0.000000 0.000000 0.038681 0.000000
# 6 0.000000 0.000000 0.000000 0.000000 0.000000 0.038724
#
#
# Mechanical properties :
#
#
# Convention : Reuss Voigt Hill
#
# Bulk Modulus (GPa) = 19.11421 72.06533 45.58977
# Shear Modulus (GPa) = 13.74469 23.73695 18.74082
#
# Velocity S-wave (km/s) = 2.78825 3.66418 3.25581
# Velocity P-wave (km/s) = 4.60188 7.65922 6.31827
#
# Compressibility (1/GPa) = 0.05231711
#
# Stress axis : x y z
#
# Youngs Moduli (GPa) = 82.48968 9.69633 67.13989
#
# Poissons Ratio (x) = 0.15836 0.19121
# Poissons Ratio (y) = 1.34719 1.32509
# Poissons Ratio (z) = 0.23493 0.19137
#
# Static dielectric constant tensor:
#      x y z
#    x 1.602750 0.000000 0.000000 
#    y 0.000000 1.589430 0.000000 
#    z 0.000000 0.000000 1.582820 
# 
# From -- ./inp_files/8806.got.cif
#   From: 2010.05.17/outbox.cif.g08.bks.cpg/sg71_5_cif.got.tgz:8806.got - 2010.06.03 16:22:01.
