data_PCOD9519668
_publ_section_title
;
Structure prediction by ZEFSAII (Michael W. Deem and Ramdas Pophale) SiO2 
 PCOD9519668
Probable space group: I M M M
;
_chemical_formula_sum "Si O2"
_cell_formula_units_Z 120
_cell_length_a 22.834694
_cell_length_b 29.301032
_cell_length_c 10.596767
_cell_angle_alpha 90.000000
_cell_angle_beta 90.000000
_cell_angle_gamma 90.000000
_cell_volume 7090.085920
_symmetry_space_group_name_H-M "I M M M"
_symmetry_group_IT_number 71
_symmetry_cell_setting 'orthorhombic'
loop_
_space_group_symop_operation_xyz
x,y,z
-x,-y,z
x,-y,-z
-x,y,-z
-x,-y,-z
x,y,-z
-x,y,z
x,-y,z
1/2+x,1/2+y,1/2+z
1/2-x,1/2-y,1/2+z
1/2+x,1/2-y,1/2-z
1/2-x,1/2+y,1/2-z
1/2-x,1/2-y,1/2-z
1/2+x,1/2+y,1/2-z
1/2-x,1/2+y,1/2+z
1/2+x,1/2-y,1/2+z
loop_
_atom_site_type_symbol
_atom_site_label
_atom_site_fract_x
_atom_site_fract_y
_atom_site_fract_z
Si Si1 0.699613 0.552035 0.153363
Si Si2 0.106545 0.695429 0.145617
Si Si3 0.258034 0.788748 0.355382
Si Si4 0.432707 0.106347 0.251807
Si Si5 0.854371 0.146055 0.649278
Si Si6 0.570243 0.948238 0.000000
Si Si7 0.169355 0.449668 0.148017
Si Si8 0.929919 0.199531 0.853750
O O1 0.684826 0.500000 0.191786
O O2 0.657809 0.593718 0.188340
O O3 0.766173 0.562101 0.199528
O O4 0.699288 0.552524 0.000000
O O5 0.176665 0.691233 0.158360
O O6 0.074859 0.660506 0.238724
O O7 0.089034 0.747828 0.166755
O O8 0.090228 0.684346 0.000000
O O9 0.254583 0.770405 0.500000
O O10 0.250000 0.750000 0.250000
O O11 0.207276 0.826412 0.342879
O O12 0.500000 0.094422 0.282861
O O13 0.382989 0.085434 0.339616
O O14 0.416239 0.082244 0.120901
O O15 0.872135 0.148030 0.500000
O O16 0.898460 0.169532 0.747158
O O17 0.500000 0.952833 0.000000
O O18 0.594369 0.000000 0.000000
O O19 0.151903 0.500000 0.197421
O O20 0.179439 0.454096 0.000000
O O21 0.000000 0.196076 0.844302
O O22 0.913309 0.188101 0.000000
#
# Coordination Sequence:
#
# PCOD9519668 Si02
#       8
#    16  16  16  16  16   8  16  16
#     4   8  15  30  53  79 106 134 164 205 265 325
#     4  10  20  35  54  75 105 137 170 218 267 315
#     4  10  19  33  53  79 109 141 179 219 265 316
#     4  11  21  33  49  70  95 135 184 222 260 310
#     4  10  19  32  55  84 107 134 177 223 262 306
#     4   9  20  38  52  62  88 136 186 226 266 312
#     4   9  17  29  48  75 102 128 163 212 266 312
#     4  10  21  37  55  75 105 148 182 206 256 326
#
# _framework density 16.925042000000001
#
# number of rings (size 3 to 8) (size 9 to 14) (size 15 to 20)
#    0.000    2.333    1.333    2.800    0.000    4.800 
#    2.400    0.667    4.400    0.800    0.000    2.800 
#    0.000    0.000    0.000    0.000    0.000    0.000 
#
# Total GULP energy -334074.135736 kJ/mol
# GULP energy per Si atom -5567.902262 kJ/mol
# Density = 1.688652 g / cm^3
# Si number density = 16.925042 Si / 1000 Ang^3
#
#
#
# Elastic Constant Matrix: (Units=GPa)
#
#
# Indices 1 2 3 4 5 6 
#
# 1 70.9594 43.8211 36.5090 0.0000 0.0000 0.0000
# 2 43.8211 106.6902 54.0971 0.0000 0.0000 0.0000
# 3 36.5090 54.0971 69.0512 0.0000 0.0000 0.0000
# 4 0.0000 0.0000 0.0000 73.0060 0.0000 0.0000
# 5 0.0000 0.0000 0.0000 0.0000 17.7532 0.0000
# 6 0.0000 0.0000 0.0000 0.0000 0.0000 23.8186
#
#
#
# Elastic Compliance Matrix: (Units=1/GPa)
#
#
# Indices 1 2 3 4 5 6 
#
# 1 0.020810 -0.004925 -0.007144 0.000000 0.000000 0.000000
# 2 -0.004925 0.016715 -0.010492 0.000000 0.000000 0.000000
# 3 -0.007144 -0.010492 0.026479 0.000000 0.000000 0.000000
# 4 0.000000 0.000000 0.000000 0.013698 0.000000 0.000000
# 5 0.000000 0.000000 0.000000 0.000000 0.056328 0.000000
# 6 0.000000 0.000000 0.000000 0.000000 0.000000 0.041984
#
#
# Mechanical properties :
#
#
# Convention : Reuss Voigt Hill
#
# Bulk Modulus (GPa) = 52.95887 57.28391 55.12139
# Shear Modulus (GPa) = 21.98490 30.40048 26.19269
#
# Velocity S-wave (km/s) = 3.60801 4.24274 3.93818
# Velocity P-wave (km/s) = 6.97963 7.61053 7.30190
#
# Compressibility (1/GPa) = 0.01888258
#
# Stress axis : x y z
#
# Youngs Moduli (GPa) = 48.05472 59.82514 37.76583
#
# Poissons Ratio (x) = 0.29461 0.26982
# Poissons Ratio (y) = 0.23665 0.39623
# Poissons Ratio (z) = 0.34332 0.62766
#
# Static dielectric constant tensor:
#      x y z
#    x 1.568520 0.000000 0.000000 
#    y 0.000000 1.599410 0.000000 
#    z 0.000000 0.000000 1.640110 
# 
# From -- ./inp_files/26635.got.cif
#   From: 2010.05.17/outbox.cif.g08.bks.cpg/sg71_14_cif.got.tgz:26635.got - 2010.06.03 16:22:01.
