data_PCOD9519025
_publ_section_title
;
Structure prediction by ZEFSAII (Michael W. Deem and Ramdas Pophale) SiO2 
 PCOD9519025
Probable space group: I M M M
;
_chemical_formula_sum "Si O2"
_cell_formula_units_Z 128
_cell_length_a 31.421085
_cell_length_b 10.354850
_cell_length_c 24.624033
_cell_angle_alpha 90.000000
_cell_angle_beta 90.000000
_cell_angle_gamma 90.000000
_cell_volume 8011.690693
_symmetry_space_group_name_H-M "I M M M"
_symmetry_group_IT_number 71
_symmetry_cell_setting 'orthorhombic'
loop_
_space_group_symop_operation_xyz
x,y,z
-x,-y,z
x,-y,-z
-x,y,-z
-x,-y,-z
x,y,-z
-x,y,z
x,-y,z
1/2+x,1/2+y,1/2+z
1/2-x,1/2-y,1/2+z
1/2+x,1/2-y,1/2-z
1/2-x,1/2+y,1/2-z
1/2-x,1/2-y,1/2-z
1/2+x,1/2+y,1/2-z
1/2-x,1/2+y,1/2+z
1/2+x,1/2-y,1/2+z
loop_
_atom_site_type_symbol
_atom_site_label
_atom_site_fract_x
_atom_site_fract_y
_atom_site_fract_z
Si Si1 0.952250 0.843181 0.726116
Si Si2 0.212414 0.852673 0.749957
Si Si3 0.427596 0.351834 0.650846
Si Si4 0.672429 0.359380 0.368365
Si Si5 0.279060 0.149321 0.434979
Si Si6 0.949122 0.644151 0.060707
Si Si7 0.319123 0.656925 0.938096
Si Si8 0.865475 0.156790 0.330486
O O1 0.943777 0.812754 0.789497
O O2 0.911639 0.797665 0.690851
O O3 0.000000 0.799599 0.710414
O O4 0.952113 0.000000 0.722965
O O5 0.250000 0.750000 0.750000
O O6 0.197148 0.857426 0.811822
O O7 0.172654 0.813165 0.711672
O O8 0.224951 0.000000 0.733508
O O9 0.442051 0.500000 0.640792
O O10 0.376639 0.351299 0.648610
O O11 0.440573 0.252657 0.604594
O O12 0.679257 0.500000 0.395153
O O13 0.688597 0.244106 0.405620
O O14 0.284185 0.154032 0.500000
O O15 0.229923 0.189003 0.423649
O O16 0.284461 0.000000 0.417829
O O17 0.933056 0.500000 0.075379
O O18 0.000000 0.635269 0.056967
O O19 0.932749 0.675803 0.000000
O O20 0.320437 0.500000 0.939256
O O21 0.350771 0.700549 0.890453
O O22 0.328185 0.700673 0.000000
O O23 0.867624 0.000000 0.331605
#
# Coordination Sequence:
#
# PCOD9519025 Si02
#       8
#    16  16  16  16  16  16  16  16
#     4   9  16  27  45  67  89 117 155 196 238 284
#     4  10  19  31  47  68  95 127 159 194 236 282
#     4  10  19  32  48  68  93 120 156 200 238 279
#     4  10  20  32  45  65  96 124 153 197 243 283
#     4   9  18  32  48  67  91 123 167 205 230 275
#     4   9  19  35  51  67  89 117 151 193 241 289
#     4   8  14  25  43  66  89 116 153 193 228 269
#     4   9  15  26  44  65  91 120 151 191 236 279
#
# _framework density 15.976652
#
# number of rings (size 3 to 8) (size 9 to 14) (size 15 to 20)
#    0.000    2.750    1.250    2.250    0.000    3.750 
#    0.000    3.125    0.000    0.375    0.000    2.625 
#    0.000    0.000    0.000    0.000    0.000    0.000 
#
# Total GULP energy -356311.024215 kJ/mol
# GULP energy per Si atom -5567.359753 kJ/mol
# Density = 1.594029 g / cm^3
# Si number density = 15.976652 Si / 1000 Ang^3
#
#
#
# Elastic Constant Matrix: (Units=GPa)
#
#
# Indices 1 2 3 4 5 6 
#
# 1 91.3737 30.3948 27.1832 0.0000 0.0000 0.0000
# 2 30.3948 39.5165 17.5347 0.0000 0.0000 0.0000
# 3 27.1832 17.5347 32.6294 0.0000 0.0000 0.0000
# 4 0.0000 0.0000 0.0000 8.8881 0.0000 0.0000
# 5 0.0000 0.0000 0.0000 0.0000 279.6395 0.0000
# 6 0.0000 0.0000 0.0000 0.0000 0.0000 12.1343
#
#
#
# Elastic Compliance Matrix: (Units=1/GPa)
#
#
# Indices 1 2 3 4 5 6 
#
# 1 0.016544 -0.008679 -0.009119 0.000000 0.000000 0.000000
# 2 -0.008679 0.037782 -0.013074 0.000000 0.000000 0.000000
# 3 -0.009119 -0.013074 0.045269 0.000000 0.000000 0.000000
# 4 0.000000 0.000000 0.000000 0.112510 0.000000 0.000000
# 5 0.000000 0.000000 0.000000 0.000000 0.003576 0.000000
# 6 0.000000 0.000000 0.000000 0.000000 0.000000 0.082411
#
#
# Mechanical properties :
#
#
# Convention : Reuss Voigt Hill
#
# Bulk Modulus (GPa) = 26.41755 34.86055 30.63905
# Shear Modulus (GPa) = 13.42456 66.02618 39.72537
#
# Velocity S-wave (km/s) = 2.90187 6.43556 4.99186
# Velocity P-wave (km/s) = 5.27246 8.78003 7.24181
#
# Compressibility (1/GPa) = 0.03785362
#
# Stress axis : x y z
#
# Youngs Moduli (GPa) = 60.44600 26.46737 22.08997
#
# Poissons Ratio (x) = 0.22970 0.20143
# Poissons Ratio (y) = 0.52459 0.28880
# Poissons Ratio (z) = 0.55118 0.34603
#
# Static dielectric constant tensor:
#      x y z
#    x 1.546470 0.000000 0.000000 
#    y 0.000000 1.543150 0.000000 
#    z 0.000000 0.000000 1.545700 
# 
# From -- ./inp_files/62161.got.cif
#   From: 2010.05.17/outbox.cif.g08.bks.cpg/sg71_32_cif.got.tgz:62161.got - 2010.06.03 16:22:01.
