data_PCOD9519094
_publ_section_title
;
Structure prediction by ZEFSAII (Michael W. Deem and Ramdas Pophale) SiO2 
 PCOD9519094
Probable space group: I M M M
;
_chemical_formula_sum "Si O2"
_cell_formula_units_Z 72
_cell_length_a 23.156472
_cell_length_b 7.582218
_cell_length_c 26.410646
_cell_angle_alpha 90.000000
_cell_angle_beta 90.000000
_cell_angle_gamma 90.000000
_cell_volume 4637.113054
_symmetry_space_group_name_H-M "I M M M"
_symmetry_group_IT_number 71
_symmetry_cell_setting 'orthorhombic'
loop_
_space_group_symop_operation_xyz
x,y,z
-x,-y,z
x,-y,-z
-x,y,-z
-x,-y,-z
x,y,-z
-x,y,z
x,-y,z
1/2+x,1/2+y,1/2+z
1/2-x,1/2-y,1/2+z
1/2+x,1/2-y,1/2-z
1/2-x,1/2+y,1/2-z
1/2-x,1/2-y,1/2-z
1/2+x,1/2+y,1/2-z
1/2-x,1/2+y,1/2+z
1/2+x,1/2-y,1/2+z
loop_
_atom_site_type_symbol
_atom_site_label
_atom_site_fract_x
_atom_site_fract_y
_atom_site_fract_z
Si Si1 0.436656 0.500000 0.663783
Si Si2 0.156514 0.701680 0.722805
Si Si3 0.932490 0.714109 0.000000
Si Si4 0.128862 0.289258 0.104488
Si Si5 0.433905 0.500000 0.215510
Si Si6 0.226208 0.711418 0.175919
O O1 0.500000 0.500000 0.641295
O O2 0.407251 0.323662 0.644016
O O3 0.438725 0.500000 0.723735
O O4 0.137003 0.500000 0.729516
O O5 0.184984 0.764379 0.776507
O O6 0.211178 0.708134 0.684985
O O7 0.105514 0.828792 0.704480
O O8 0.895680 0.763883 0.049700
O O9 0.935181 0.500000 0.000000
O O10 0.000000 0.774484 0.000000
O O11 0.120669 0.500000 0.109905
O O12 0.194275 0.250564 0.122911
O O13 0.500000 0.500000 0.195477
O O14 0.232592 0.500000 0.180317
#
# Coordination Sequence:
#
# PCOD9519094 Si02
#       6
#     8  16   8  16   8  16
#     4  11  22  31  46  65  90 124 161 197 236 276
#     4  10  19  31  49  69  89 121 151 192 240 282
#     4   9  18  33  49  63  90 129 165 199 237 274
#     4  10  20  33  48  67  88 119 162 206 242 271
#     4  11  22  34  45  68 101 123 151 194 234 281
#     4   9  17  29  48  69  91 113 156 201 237 278
#
# _framework density 15.526902
#
# number of rings (size 3 to 8) (size 9 to 14) (size 15 to 20)
#    0.000    2.111    3.333    0.667    3.111    2.222 
#    0.000    3.333    0.000    0.000    0.000    0.000 
#    0.000    0.000    0.000    2.000    0.000    2.889 
#
# Total GULP energy -200467.905038 kJ/mol
# GULP energy per Si atom -5568.552918 kJ/mol
# Density = 1.549156 g / cm^3
# Si number density = 15.526902 Si / 1000 Ang^3
#
#
#
# Elastic Constant Matrix: (Units=GPa)
#
#
# Indices 1 2 3 4 5 6 
#
# 1 117.6490 41.9503 35.0923 0.0000 0.0000 0.0000
# 2 41.9503 53.3035 5.3543 0.0000 0.0000 0.0000
# 3 35.0923 5.3543 60.0734 0.0000 0.0000 0.0000
# 4 0.0000 0.0000 0.0000 3.1469 0.0000 0.0000
# 5 0.0000 0.0000 0.0000 0.0000 21.9080 0.0000
# 6 0.0000 0.0000 0.0000 0.0000 0.0000 18.3256
#
#
#
# Elastic Compliance Matrix: (Units=1/GPa)
#
#
# Indices 1 2 3 4 5 6 
#
# 1 0.014573 -0.010710 -0.007559 0.000000 0.000000 0.000000
# 2 -0.010710 0.026801 0.003868 0.000000 0.000000 0.000000
# 3 -0.007559 0.003868 0.020717 0.000000 0.000000 0.000000
# 4 0.000000 0.000000 0.000000 0.317775 0.000000 0.000000
# 5 0.000000 0.000000 0.000000 0.000000 0.045645 0.000000
# 6 0.000000 0.000000 0.000000 0.000000 0.000000 0.054569
#
#
# Mechanical properties :
#
#
# Convention : Reuss Voigt Hill
#
# Bulk Modulus (GPa) = 30.03977 43.97997 37.00987
# Shear Modulus (GPa) = 9.61578 18.58470 14.10024
#
# Velocity S-wave (km/s) = 2.49127 3.46343 3.01677
# Velocity P-wave (km/s) = 5.25967 6.66185 6.00185
#
# Compressibility (1/GPa) = 0.03328920
#
# Stress axis : x y z
#
# Youngs Moduli (GPa) = 68.61848 37.31215 48.26966
#
# Poissons Ratio (x) = 0.39962 0.36485
# Poissons Ratio (y) = 0.73491 -0.18669
# Poissons Ratio (z) = 0.51865 -0.14431
#
# Static dielectric constant tensor:
#      x y z
#    x 1.547860 0.000000 0.000000 
#    y 0.000000 1.497030 0.000000 
#    z 0.000000 0.000000 1.517550 
# 
# From -- ./inp_files/66271.got.cif
#   From: 2010.05.17/outbox.cif.g08.bks.cpg/sg71_34_cif.got.tgz:66271.got - 2010.06.03 16:22:01.
