data_PCOD9519875
_publ_section_title
;
Structure prediction by ZEFSAII (Michael W. Deem and Ramdas Pophale) SiO2 
 PCOD9519875
Probable space group: I M M M
;
_chemical_formula_sum "Si O2"
_cell_formula_units_Z 88
_cell_length_a 18.985800
_cell_length_b 29.183593
_cell_length_c 7.478034
_cell_angle_alpha 90.000000
_cell_angle_beta 90.000000
_cell_angle_gamma 90.000000
_cell_volume 4143.383163
_symmetry_space_group_name_H-M "I M M M"
_symmetry_group_IT_number 71
_symmetry_cell_setting 'orthorhombic'
loop_
_space_group_symop_operation_xyz
x,y,z
-x,-y,z
x,-y,-z
-x,y,-z
-x,-y,-z
x,y,-z
-x,y,z
x,-y,z
1/2+x,1/2+y,1/2+z
1/2-x,1/2-y,1/2+z
1/2+x,1/2-y,1/2-z
1/2-x,1/2+y,1/2-z
1/2-x,1/2-y,1/2-z
1/2+x,1/2+y,1/2-z
1/2-x,1/2+y,1/2+z
1/2+x,1/2-y,1/2+z
loop_
_atom_site_type_symbol
_atom_site_label
_atom_site_fract_x
_atom_site_fract_y
_atom_site_fract_z
Si Si1 0.500000 0.946522 0.218484
Si Si2 0.578596 0.552477 0.784436
Si Si3 0.819264 0.779855 0.786306
Si Si4 0.707998 0.618416 0.711677
Si Si5 0.919154 0.701472 0.217146
Si Si6 0.859862 0.396495 0.706501
O O1 0.428441 0.921952 0.284001
O O2 0.500000 0.000000 0.263520
O O3 0.500000 0.942524 0.000000
O O4 0.500000 0.566996 0.724560
O O5 0.589895 0.500000 0.724481
O O6 0.641705 0.585321 0.730626
O O7 0.577498 0.551936 0.000000
O O8 0.750000 0.750000 0.750000
O O9 0.809740 0.831100 0.714196
O O10 0.884032 0.748832 0.721459
O O11 0.828179 0.783774 0.000000
O O12 0.721184 0.624691 0.500000
O O13 0.781558 0.598183 0.785414
O O14 0.876450 0.657639 0.285158
O O15 0.000000 0.697423 0.272838
O O16 0.916572 0.699960 0.000000
O O17 0.856732 0.411928 0.500000
#
# Coordination Sequence:
#
# PCOD9519875 Si02
#       6
#     8  16  16  16  16  16
#     4   9  18  32  51  75 105 141 179 225 276 315
#     4   9  20  40  62  82 108 144 184 225 275 336
#     4  10  20  34  52  77 109 144 179 219 266 317
#     4  10  21  34  54  86 115 141 181 230 276 326
#     4  10  20  33  51  75 104 142 182 217 263 319
#     4  10  19  33  54  78 104 140 185 226 266 319
#
# _framework density 21.238682000000001
#
# number of rings (size 3 to 8) (size 9 to 14) (size 15 to 20)
#    0.000    2.273    2.727    0.545    0.000    3.636 
#    0.000    4.545    0.000    1.091    0.000    0.000 
#    0.000    0.000    0.000    0.000    0.000    0.000 
#
# Total GULP energy -245615.493282 kJ/mol
# GULP energy per Si atom -5582.170302 kJ/mol
# Density = 2.119034 g / cm^3
# Si number density = 21.238682 Si / 1000 Ang^3
#
#
#
# Elastic Constant Matrix: (Units=GPa)
#
#
# Indices 1 2 3 4 5 6 
#
# 1 188.2780 89.8068 -7.8712 0.0000 0.0000 0.0000
# 2 89.8068 119.7078 -6.6925 0.0000 0.0000 0.0000
# 3 -7.8712 -6.6925 56.9936 -0.0001 -0.0003 0.0000
# 4 0.0000 0.0000 -0.0001 16.3362 0.0000 0.0000
# 5 0.0000 0.0000 -0.0003 0.0000 8.9900 0.0000
# 6 0.0000 0.0000 0.0000 0.0000 0.0000 37.9945
#
#
#
# Elastic Compliance Matrix: (Units=1/GPa)
#
#
# Indices 1 2 3 4 5 6 
#
# 1 0.008281 -0.006189 0.000417 0.000000 0.000000 0.000000
# 2 -0.006189 0.013035 0.000676 0.000000 0.000000 0.000000
# 3 0.000417 0.000676 0.017683 0.000000 0.000001 0.000000
# 4 0.000000 0.000000 0.000000 0.061214 0.000000 0.000000
# 5 0.000000 0.000000 0.000001 0.000000 0.111235 0.000000
# 6 0.000000 0.000000 0.000000 0.000000 0.000000 0.026320
#
#
# Mechanical properties :
#
#
# Convention : Reuss Voigt Hill
#
# Bulk Modulus (GPa) = 34.71566 57.27395 45.99480
# Shear Modulus (GPa) = 19.41285 31.97990 25.69638
#
# Velocity S-wave (km/s) = 3.02658 3.88459 3.48211
# Velocity P-wave (km/s) = 5.34739 6.86625 6.15386
#
# Compressibility (1/GPa) = 0.02880545
#
# Stress axis : x y z
#
# Youngs Moduli (GPa) = 120.75993 76.71849 56.55228
#
# Poissons Ratio (x) = 0.47482 -0.02358
# Poissons Ratio (y) = 0.74740 -0.03822
# Poissons Ratio (z) = -0.05034 -0.05185
#
# Static dielectric constant tensor:
#      x y z
#    x 1.770240 0.000000 0.000000 
#    y 0.000000 1.727780 0.000000 
#    z 0.000000 0.000000 1.805390 
# 
# From -- ./inp_files/8744.got.cif
#   From: 2010.05.17/outbox.cif.g08.bks.cpg/sg71_5_cif.got.tgz:8744.got - 2010.06.03 16:22:01.
