data_PCOD9519481
_publ_section_title
;
Structure prediction by ZEFSAII (Michael W. Deem and Ramdas Pophale) SiO2 
 PCOD9519481
Probable space group: I M M M
;
_chemical_formula_sum "Si O2"
_cell_formula_units_Z 104
_cell_length_a 22.092700
_cell_length_b 7.538522
_cell_length_c 28.770898
_cell_angle_alpha 90.000000
_cell_angle_beta 90.000000
_cell_angle_gamma 90.000000
_cell_volume 4791.686753
_symmetry_space_group_name_H-M "I M M M"
_symmetry_group_IT_number 71
_symmetry_cell_setting 'orthorhombic'
loop_
_space_group_symop_operation_xyz
x,y,z
-x,-y,z
x,-y,-z
-x,y,-z
-x,-y,-z
x,y,-z
-x,y,z
x,-y,z
1/2+x,1/2+y,1/2+z
1/2-x,1/2-y,1/2+z
1/2+x,1/2-y,1/2-z
1/2-x,1/2+y,1/2-z
1/2-x,1/2-y,1/2-z
1/2+x,1/2+y,1/2-z
1/2-x,1/2+y,1/2+z
1/2+x,1/2-y,1/2+z
loop_
_atom_site_type_symbol
_atom_site_label
_atom_site_fract_x
_atom_site_fract_y
_atom_site_fract_z
Si Si1 0.734893 0.204537 0.860437
Si Si2 0.683988 0.216026 0.447719
Si Si3 0.599579 0.783212 0.872907
Si Si4 0.934703 0.713369 0.270021
Si Si5 0.567337 0.207616 0.603134
Si Si6 0.649797 0.708009 0.688971
Si Si7 0.000000 0.282972 0.553650
O O1 0.770447 0.213241 0.909107
O O2 0.668652 0.281784 0.869337
O O3 0.783588 0.282077 0.823574
O O4 0.724057 0.000000 0.846346
O O5 0.698989 0.267916 0.500000
O O6 0.616871 0.278587 0.432976
O O7 0.685273 0.000000 0.444906
O O8 0.570319 0.733655 0.823623
O O9 0.558837 0.726127 0.916472
O O10 0.600015 0.000000 0.875211
O O11 0.934991 0.500000 0.268570
O O12 0.877103 0.769209 0.239969
O O13 0.000000 0.775641 0.250933
O O14 0.500000 0.285319 0.603192
O O15 0.599964 0.218098 0.653174
O O16 0.561469 0.000000 0.592130
O O17 0.653207 0.500000 0.678599
O O18 0.000000 0.500000 0.553163
O O19 0.000000 0.224984 0.500000
#
# Coordination Sequence:
#
# PCOD9519481 Si02
#       7
#    16  16  16  16  16  16   8
#     4   9  19  34  51  71 100 133 165 204 249 298
#     4   9  18  32  49  70  97 128 163 205 250 295
#     4   9  17  32  51  74 102 129 160 202 251 298
#     4  10  19  32  52  74  99 132 167 205 250 298
#     4   9  17  30  48  69  94 127 169 210 247 290
#     4  10  20  32  46  70 102 135 168 203 244 292
#     4   9  16  28  50  80 107 127 157 207 260 305
#
# _framework density 21.704256999999998
#
# number of rings (size 3 to 8) (size 9 to 14) (size 15 to 20)
#    0.000    2.692    0.769    0.923    0.000    4.923 
#    0.000    3.846    0.000    0.000    0.000    4.308 
#    0.000    2.462    0.000    0.000    0.000    0.000 
#
# Total GULP energy -290034.713169 kJ/mol
# GULP energy per Si atom -5577.590638 kJ/mol
# Density = 2.165486 g / cm^3
# Si number density = 21.704257 Si / 1000 Ang^3
#
#
#
# Elastic Constant Matrix: (Units=GPa)
#
#
# Indices 1 2 3 4 5 6 
#
# 1 193.1144 4.3274 61.1595 0.0000 0.0000 0.0000
# 2 4.3274 50.6488 -7.4483 0.0000 0.0000 0.0000
# 3 61.1595 -7.4483 117.1489 0.0000 0.0000 0.0000
# 4 0.0000 0.0000 0.0000 19.8744 0.0000 0.0000
# 5 0.0000 0.0000 0.0000 0.0000 9.3991 0.0000
# 6 0.0000 0.0000 0.0000 0.0000 0.0000 2.1970
#
#
#
# Elastic Compliance Matrix: (Units=1/GPa)
#
#
# Indices 1 2 3 4 5 6 
#
# 1 0.006256 -0.001024 -0.003331 0.000000 0.000000 0.000000
# 2 -0.001024 0.020098 0.001813 0.000000 0.000000 0.000000
# 3 -0.003331 0.001813 0.010391 0.000000 0.000000 0.000000
# 4 0.000000 0.000000 0.000000 0.050316 0.000000 0.000000
# 5 0.000000 0.000000 0.000000 0.000000 0.106393 0.000000
# 6 0.000000 0.000000 0.000000 0.000000 0.000000 0.455176
#
#
# Mechanical properties :
#
#
# Convention : Reuss Voigt Hill
#
# Bulk Modulus (GPa) = 31.58707 52.99880 42.29294
# Shear Modulus (GPa) = 7.52708 26.48567 17.00637
#
# Velocity S-wave (km/s) = 1.86428 3.49707 2.80223
# Velocity P-wave (km/s) = 4.38395 6.38573 5.47707
#
# Compressibility (1/GPa) = 0.03165853
#
# Stress axis : x y z
#
# Youngs Moduli (GPa) = 159.83978 49.75644 96.24117
#
# Poissons Ratio (x) = 0.05097 0.32061
# Poissons Ratio (y) = 0.16374 -0.17445
# Poissons Ratio (z) = 0.53248 -0.09019
#
# Static dielectric constant tensor:
#      x y z
#    x 1.825980 0.000000 0.000000 
#    y 0.000000 1.867160 0.000000 
#    z 0.000000 0.000000 1.756220 
# 
# From -- ./inp_files/66853.got.cif
#   From: 2010.05.17/outbox.cif.g08.bks.cpg/sg71_34_cif.got.tgz:66853.got - 2010.06.03 16:22:01.
