data_PCOD9519306
_publ_section_title
;
Structure prediction by ZEFSAII (Michael W. Deem and Ramdas Pophale) SiO2 
 PCOD9519306
Probable space group: I M M M
;
_chemical_formula_sum "Si O2"
_cell_formula_units_Z 88
_cell_length_a 12.638532
_cell_length_b 30.082051
_cell_length_c 13.598464
_cell_angle_alpha 90.000000
_cell_angle_beta 90.000000
_cell_angle_gamma 90.000000
_cell_volume 5170.040337
_symmetry_space_group_name_H-M "I M M M"
_symmetry_group_IT_number 71
_symmetry_cell_setting 'orthorhombic'
loop_
_space_group_symop_operation_xyz
x,y,z
-x,-y,z
x,-y,-z
-x,y,-z
-x,-y,-z
x,y,-z
-x,y,z
x,-y,z
1/2+x,1/2+y,1/2+z
1/2-x,1/2-y,1/2+z
1/2+x,1/2-y,1/2-z
1/2-x,1/2+y,1/2-z
1/2-x,1/2-y,1/2-z
1/2+x,1/2+y,1/2-z
1/2-x,1/2+y,1/2+z
1/2+x,1/2-y,1/2+z
loop_
_atom_site_type_symbol
_atom_site_label
_atom_site_fract_x
_atom_site_fract_y
_atom_site_fract_z
Si Si1 0.337943 0.791680 0.117247
Si Si2 0.233227 0.084793 0.618981
Si Si3 0.384070 0.841671 0.700464
Si Si4 0.500000 0.389040 0.119629
Si Si5 0.376003 0.000000 0.380581
Si Si6 0.114515 0.757707 0.118255
Si Si7 0.000000 0.214110 0.381126
O O1 0.380826 0.831356 0.183549
O O2 0.216227 0.785490 0.146824
O O3 0.399789 0.745811 0.142702
O O4 0.348836 0.798336 0.000000
O O5 0.235543 0.086980 0.500000
O O6 0.291604 0.127568 0.662502
O O7 0.109532 0.086750 0.648990
O O8 0.305500 0.042752 0.648660
O O9 0.500000 0.860014 0.672797
O O10 0.374449 0.792970 0.652325
O O11 0.500000 0.337023 0.152734
O O12 0.500000 0.388511 0.000000
O O13 0.500000 0.000000 0.347624
O O14 0.380006 0.000000 0.500000
O O15 0.000000 0.774516 0.152850
O O16 0.114342 0.757447 0.000000
O O17 0.000000 0.210840 0.500000
#
# Coordination Sequence:
#
# PCOD9519306 Si02
#       7
#    16  16  16   8   8  16   8
#     4  10  19  32  46  62  91 129 170 209 243 285
#     4  10  20  34  51  74 101 128 160 199 245 298
#     4  11  20  30  46  69  93 124 166 204 245 291
#     4   9  18  31  48  71  99 133 165 195 235 284
#     4   9  18  33  53  75 100 129 157 192 243 298
#     4   9  18  30  43  62  89 122 160 203 246 286
#     4   9  16  28  45  62  88 126 166 204 236 272
#
# _framework density 17.021144
#
# number of rings (size 3 to 8) (size 9 to 14) (size 15 to 20)
#    0.000    2.273    0.909    2.727    0.000    5.091 
#    1.636    1.818    0.000    0.000    0.000    0.636 
#    0.000    2.182    0.000    1.636    0.000    0.545 
#
# Total GULP energy -245288.442180 kJ/mol
# GULP energy per Si atom -5574.737322 kJ/mol
# Density = 1.698240 g / cm^3
# Si number density = 17.021144 Si / 1000 Ang^3
#
#
#
# Elastic Constant Matrix: (Units=GPa)
#
#
# Indices 1 2 3 4 5 6 
#
# 1 160.6229 42.9418 17.0809 0.0000 0.0000 0.0000
# 2 42.9418 52.4848 3.7268 0.0000 0.0000 0.0000
# 3 17.0809 3.7268 23.1877 0.0000 0.0000 0.0000
# 4 0.0000 0.0000 0.0000 12.4735 0.0000 0.0000
# 5 0.0000 0.0000 0.0000 0.0000 17.1981 0.0000
# 6 0.0000 0.0000 0.0000 0.0000 0.0000 15.8151
#
#
#
# Elastic Compliance Matrix: (Units=1/GPa)
#
#
# Indices 1 2 3 4 5 6 
#
# 1 0.008554 -0.006627 -0.005236 0.000000 0.000000 0.000000
# 2 -0.006627 0.024407 0.000959 0.000000 0.000000 0.000000
# 3 -0.005236 0.000959 0.046829 0.000000 0.000000 0.000000
# 4 0.000000 0.000000 0.000000 0.080170 0.000000 0.000000
# 5 0.000000 0.000000 0.000000 0.000000 0.058146 0.000000
# 6 0.000000 0.000000 0.000000 0.000000 0.000000 0.063231
#
#
# Mechanical properties :
#
#
# Convention : Reuss Voigt Hill
#
# Bulk Modulus (GPa) = 17.24670 40.42159 28.83414
# Shear Modulus (GPa) = 15.50513 20.60039 18.05276
#
# Velocity S-wave (km/s) = 3.02144 3.48269 3.26023
# Velocity P-wave (km/s) = 4.72511 6.32231 5.58114
#
# Compressibility (1/GPa) = 0.05798212
#
# Stress axis : x y z
#
# Youngs Moduli (GPa) = 116.89975 40.97150 21.35410
#
# Poissons Ratio (x) = 0.27152 0.11182
# Poissons Ratio (y) = 0.77471 -0.02048
# Poissons Ratio (z) = 0.61212 -0.03929
#
# Static dielectric constant tensor:
#      x y z
#    x 1.638230 0.000000 0.000000 
#    y 0.000000 1.545440 0.000000 
#    z 0.000000 0.000000 1.590880 
# 
# From -- ./inp_files/33157.got.cif
#   From: 2010.05.17/outbox.cif.g08.bks.cpg/sg71_17_cif.got.tgz:33157.got - 2010.06.03 16:22:01.
