data_PCOD9519637
_publ_section_title
;
Structure prediction by ZEFSAII (Michael W. Deem and Ramdas Pophale) SiO2 
 PCOD9519637
Probable space group: I M M M
;
_chemical_formula_sum "Si O2"
_cell_formula_units_Z 112
_cell_length_a 15.189913
_cell_length_b 13.895352
_cell_length_c 25.114603
_cell_angle_alpha 90.000000
_cell_angle_beta 90.000000
_cell_angle_gamma 90.000000
_cell_volume 5300.918862
_symmetry_space_group_name_H-M "I M M M"
_symmetry_group_IT_number 71
_symmetry_cell_setting 'orthorhombic'
loop_
_space_group_symop_operation_xyz
x,y,z
-x,-y,z
x,-y,-z
-x,y,-z
-x,-y,-z
x,y,-z
-x,y,z
x,-y,z
1/2+x,1/2+y,1/2+z
1/2-x,1/2-y,1/2+z
1/2+x,1/2-y,1/2-z
1/2-x,1/2+y,1/2-z
1/2-x,1/2-y,1/2-z
1/2+x,1/2+y,1/2-z
1/2-x,1/2+y,1/2+z
1/2+x,1/2-y,1/2+z
loop_
_atom_site_type_symbol
_atom_site_label
_atom_site_fract_x
_atom_site_fract_y
_atom_site_fract_z
Si Si1 0.101515 0.115417 0.346229
Si Si2 0.601493 0.885132 0.910407
Si Si3 0.593772 0.782016 0.682076
Si Si4 0.621582 0.107756 0.785524
Si Si5 0.895436 0.611943 0.920490
Si Si6 0.327847 0.392763 0.272144
Si Si7 0.712185 0.292036 0.058280
O O1 0.136419 0.134877 0.286395
O O2 0.164454 0.156624 0.392009
O O3 0.000000 0.148613 0.351798
O O4 0.101988 0.000000 0.351313
O O5 0.500000 0.864313 0.927801
O O6 0.606266 0.865606 0.846732
O O7 0.676080 0.817610 0.936241
O O8 0.616423 0.000000 0.918050
O O9 0.500000 0.742837 0.664078
O O10 0.587153 0.821761 0.741181
O O11 0.613355 0.869585 0.642895
O O12 0.654467 0.689669 0.684772
O O13 0.723935 0.103067 0.771460
O O14 0.588130 0.000000 0.778940
O O15 0.877414 0.500000 0.933755
O O16 0.817058 0.682500 0.940320
O O17 0.000000 0.629609 0.934533
O O18 0.362950 0.500000 0.284803
O O19 0.681371 0.327250 0.000000
#
# Coordination Sequence:
#
# PCOD9519637 Si02
#       7
#    16  16  16  16  16  16  16
#     4  10  21  36  54  82 124 168 207 252 310 371
#     4  10  22  40  62  92 131 169 204 248 303 359
#     4  11  20  31  53  82 114 151 188 229 281 348
#     4  10  19  32  54  82 113 152 197 242 287 342
#     4  10  23  43  65  92 125 156 192 248 318 382
#     4  10  20  34  54  81 117 161 202 239 284 344
#     4  12  25  41  64  88 111 150 207 263 314 369
#
# _framework density 21.128411
#
# number of rings (size 3 to 8) (size 9 to 14) (size 15 to 20)
#    0.000    1.571    0.000    5.143    0.000    6.286 
#    0.000    2.143    0.000    1.286    0.000    1.000 
#    0.000    0.000    0.000    0.000    0.000    0.000 
#
# Total GULP energy -312244.438076 kJ/mol
# GULP energy per Si atom -5575.793537 kJ/mol
# Density = 2.108032 g / cm^3
# Si number density = 21.128411 Si / 1000 Ang^3
#
#
#
# Elastic Constant Matrix: (Units=GPa)
#
#
# Indices 1 2 3 4 5 6 
#
# 1 140.0666 52.5643 26.2459 0.0000 0.0000 0.0000
# 2 52.5643 89.2538 37.1966 0.0000 0.0000 0.0000
# 3 26.2459 37.1966 55.7326 0.0000 0.0000 0.0000
# 4 0.0000 0.0000 0.0000 -1.7150 0.0000 0.0000
# 5 0.0000 0.0000 0.0000 0.0000 3.8656 0.0000
# 6 0.0000 0.0000 0.0000 0.0000 0.0000 39.5294
#
#
#
# Elastic Compliance Matrix: (Units=1/GPa)
#
#
# Indices 1 2 3 4 5 6 
#
# 1 0.009205 -0.005007 -0.000993 0.000000 0.000000 0.000000
# 2 -0.005007 0.018245 -0.009819 0.000000 0.000000 0.000000
# 3 -0.000993 -0.009819 0.024964 0.000000 0.000000 0.000000
# 4 0.000000 0.000000 0.000000 -0.583075 0.000000 0.000000
# 5 0.000000 0.000000 0.000000 0.000000 0.258689 0.000000
# 6 0.000000 0.000000 0.000000 0.000000 0.000000 0.025298
#
#
# Mechanical properties :
#
#
# Convention : Reuss Voigt Hill
#
# Bulk Modulus (GPa) = 48.13388 57.45185 52.79287
# Shear Modulus (GPa) = -24.02549 19.60574 -2.20988
#
# Velocity S-wave (km/s) = -3.37578 3.04950 -1.02382
# Velocity P-wave (km/s) = 2.76343 6.29683 4.86244
#
# Compressibility (1/GPa) = 0.02077539
#
# Stress axis : x y z
#
# Youngs Moduli (GPa) = 108.64173 54.81000 40.05829
#
# Poissons Ratio (x) = 0.27444 0.03977
# Poissons Ratio (y) = 0.54398 0.39333
# Poissons Ratio (z) = 0.10787 0.53817
#
# Static dielectric constant tensor:
#      x y z
#    x 1.756060 0.000000 0.000000 
#    y 0.000000 1.797940 0.000000 
#    z 0.000000 0.000000 1.756570 
# 
# From -- ./inp_files/39284.got.cif
#   From: 2010.05.17/outbox.cif.g08.bks.cpg/sg71_20_cif.got.tgz:39284.got - 2010.06.03 16:22:01.
