data_PCOD9519953
_publ_section_title
;
Structure prediction by ZEFSAII (Michael W. Deem and Ramdas Pophale) SiO2 
 PCOD9519953
Probable space group: I M M M
;
_chemical_formula_sum "Si O2"
_cell_formula_units_Z 108
_cell_length_a 26.472289
_cell_length_b 15.278614
_cell_length_c 15.125138
_cell_angle_alpha 90.000000
_cell_angle_beta 90.000000
_cell_angle_gamma 90.000000
_cell_volume 6117.511581
_symmetry_space_group_name_H-M "I M M M"
_symmetry_group_IT_number 71
_symmetry_cell_setting 'orthorhombic'
loop_
_space_group_symop_operation_xyz
x,y,z
-x,-y,z
x,-y,-z
-x,y,-z
-x,-y,-z
x,y,-z
-x,y,z
x,-y,z
1/2+x,1/2+y,1/2+z
1/2-x,1/2-y,1/2+z
1/2+x,1/2-y,1/2-z
1/2-x,1/2+y,1/2-z
1/2-x,1/2-y,1/2-z
1/2+x,1/2+y,1/2-z
1/2-x,1/2+y,1/2+z
1/2+x,1/2-y,1/2+z
loop_
_atom_site_type_symbol
_atom_site_label
_atom_site_fract_x
_atom_site_fract_y
_atom_site_fract_z
Si Si1 0.080920 0.398621 0.601192
Si Si2 0.702176 0.334821 0.399180
Si Si3 0.107560 0.898948 0.813170
Si Si4 0.149736 0.500000 0.000000
Si Si5 0.151333 0.346673 0.854137
Si Si6 0.806395 0.601263 0.663064
Si Si7 0.441996 0.768415 0.257144
Si Si8 0.443345 0.605506 0.500000
O O1 0.064968 0.385769 0.500000
O O2 0.068962 0.500000 0.626691
O O3 0.141741 0.389821 0.608468
O O4 0.059500 0.327808 0.669140
O O5 0.695933 0.367659 0.500000
O O6 0.667213 0.387942 0.330049
O O7 0.680952 0.236814 0.392086
O O8 0.760400 0.341687 0.372590
O O9 0.084082 0.827304 0.747326
O O10 0.095040 0.000000 0.793695
O O11 0.084351 0.872619 0.909102
O O12 0.150023 0.576033 0.076913
O O13 0.178621 0.374638 0.763058
O O14 0.094685 0.317593 0.826307
O O15 0.790497 0.500000 0.657857
O O16 0.500000 0.758421 0.285581
O O17 0.445794 0.500000 0.500000
O O18 0.500000 0.641034 0.500000
#
# Coordination Sequence:
#
# PCOD9519953 Si02
#       8
#    16  16  16   4  16  16  16   8
#     4   9  19  37  59  84 112 142 179 229 287 343
#     4  11  20  32  53  83 112 142 180 230 276 319
#     4  10  20  34  52  79 114 150 187 228 278 330
#     4  12  20  42  65  70 108 160 184 226 269 336
#     4  10  22  38  56  78 109 147 186 226 272 330
#     4  10  19  33  55  83 110 140 177 220 274 331
#     4  10  22  37  56  83 112 143 186 236 279 331
#     4   9  16  27  46  69  99 141 185 220 256 308
#
# _framework density 17.654236999999998
#
# number of rings (size 3 to 8) (size 9 to 14) (size 15 to 20)
#    0.000    2.000    2.222    1.778    1.037    2.963 
#    0.000    2.222    0.000    0.444    0.000    1.037 
#    0.000    0.000    0.000    0.000    0.000    0.000 
#
# Total GULP energy -300673.834076 kJ/mol
# GULP energy per Si atom -5568.033964 kJ/mol
# Density = 1.761405 g / cm^3
# Si number density = 17.654237 Si / 1000 Ang^3
#
#
#
# Elastic Constant Matrix: (Units=GPa)
#
#
# Indices 1 2 3 4 5 6 
#
# 1 91.6174 31.5138 16.9600 0.0000 0.0000 0.0000
# 2 31.5138 122.0623 43.0732 0.0000 0.0000 0.0000
# 3 16.9600 43.0732 72.8412 0.0000 0.0000 0.0000
# 4 0.0000 0.0000 0.0000 58.4535 0.0000 0.0000
# 5 0.0000 0.0000 0.0000 0.0000 1.2907 0.0000
# 6 0.0000 0.0000 0.0000 0.0000 0.0000 10.9566
#
#
#
# Elastic Compliance Matrix: (Units=1/GPa)
#
#
# Indices 1 2 3 4 5 6 
#
# 1 0.012064 -0.002683 -0.001222 0.000000 0.000000 0.000000
# 2 -0.002683 0.010950 -0.005850 0.000000 0.000000 0.000000
# 3 -0.001222 -0.005850 0.017472 0.000000 0.000000 0.000000
# 4 0.000000 0.000000 0.000000 0.017108 0.000000 0.000000
# 5 0.000000 0.000000 0.000000 0.000000 0.774790 0.000000
# 6 0.000000 0.000000 0.000000 0.000000 0.000000 0.091269
#
#
# Mechanical properties :
#
#
# Convention : Reuss Voigt Hill
#
# Bulk Modulus (GPa) = 47.67600 52.17944 49.92772
# Shear Modulus (GPa) = 5.26229 27.13842 16.20036
#
# Velocity S-wave (km/s) = 1.72836 3.92499 3.03256
# Velocity P-wave (km/s) = 5.57198 7.08246 6.37214
#
# Compressibility (1/GPa) = 0.02097491
#
# Stress axis : x y z
#
# Youngs Moduli (GPa) = 82.88965 91.32653 57.23309
#
# Poissons Ratio (x) = 0.24507 0.06995
# Poissons Ratio (y) = 0.22243 0.33482
# Poissons Ratio (z) = 0.10131 0.53427
#
# Static dielectric constant tensor:
#      x y z
#    x 1.624080 0.000000 0.000000 
#    y 0.000000 1.603060 0.000000 
#    z 0.000000 0.000000 1.593120 
# 
# From -- ./inp_files/40394.got.cif
#   From: 2010.05.17/outbox.cif.g08.bks.cpg/sg71_21_cif.got.tgz:40394.got - 2010.06.03 16:22:01.
