data_PCOD9519880
_publ_section_title
;
Structure prediction by ZEFSAII (Michael W. Deem and Ramdas Pophale) SiO2 
 PCOD9519880
Probable space group: I M M M
;
_chemical_formula_sum "Si O2"
_cell_formula_units_Z 56
_cell_length_a 13.243356
_cell_length_b 24.884517
_cell_length_c 7.889807
_cell_angle_alpha 90.000000
_cell_angle_beta 90.000000
_cell_angle_gamma 90.000000
_cell_volume 2600.121539
_symmetry_space_group_name_H-M "I M M M"
_symmetry_group_IT_number 71
_symmetry_cell_setting 'orthorhombic'
loop_
_space_group_symop_operation_xyz
x,y,z
-x,-y,z
x,-y,-z
-x,y,-z
-x,-y,-z
x,y,-z
-x,y,z
x,-y,z
1/2+x,1/2+y,1/2+z
1/2-x,1/2-y,1/2+z
1/2+x,1/2-y,1/2-z
1/2-x,1/2+y,1/2-z
1/2-x,1/2-y,1/2-z
1/2+x,1/2+y,1/2-z
1/2-x,1/2+y,1/2+z
1/2+x,1/2-y,1/2+z
loop_
_atom_site_type_symbol
_atom_site_label
_atom_site_fract_x
_atom_site_fract_y
_atom_site_fract_z
Si Si1 0.675863 0.332035 0.197399
Si Si2 0.610914 0.216128 0.794392
Si Si3 0.888439 0.435980 0.000000
Si Si4 0.761220 0.938364 0.808822
O O1 0.618284 0.278821 0.258208
O O2 0.793213 0.314081 0.218647
O O3 0.661314 0.389053 0.288092
O O4 0.652410 0.339571 0.000000
O O5 0.500000 0.195023 0.750360
O O6 0.621346 0.214444 0.000000
O O7 0.822940 0.426032 0.167696
O O8 0.900077 0.500000 0.000000
O O9 0.000000 0.411728 0.000000
O O10 0.797736 0.000000 0.781054
O O11 0.719995 0.936157 0.000000
#
# Coordination Sequence:
#
# PCOD9519880 Si02
#       4
#    16  16   8  16
#     4  10  19  33  54  78 107 141 178 222 268 318
#     4   9  19  35  54  77 105 139 179 222 270 321
#     4   9  18  32  48  70 101 135 175 219 259 308
#     4  10  20  34  53  76 104 142 180 216 265 319
#
# _framework density 21.537455000000001
#
# number of rings (size 3 to 8) (size 9 to 14) (size 15 to 20)
#    0.000    2.429    1.429    0.857    0.000    3.429 
#    0.000    2.857    0.000    0.857    0.000    6.000 
#    0.000    0.000    0.000    0.000    0.000    0.000 
#
# Total GULP energy -156110.859024 kJ/mol
# GULP energy per Si atom -5575.387822 kJ/mol
# Density = 2.148843 g / cm^3
# Si number density = 21.537455 Si / 1000 Ang^3
#
#
#
# Elastic Constant Matrix: (Units=GPa)
#
#
# Indices 1 2 3 4 5 6 
#
# 1 27.0503 -3.3592 -12.1941 -0.0003 -0.0002 -0.0001
# 2 -3.3592 146.2954 25.3518 -0.0019 -0.0011 0.0000
# 3 -12.1941 25.3518 81.8962 -0.0052 -0.0035 0.0001
# 4 -0.0003 -0.0019 -0.0052 31.3722 -0.0016 0.0001
# 5 -0.0002 -0.0011 -0.0035 -0.0016 -12.8125 -0.0001
# 6 -0.0001 0.0000 0.0001 0.0001 -0.0001 6.4885
#
#
#
# Elastic Compliance Matrix: (Units=1/GPa)
#
#
# Indices 1 2 3 4 5 6 
#
# 1 0.039630 -0.000119 0.005938 0.000001 -0.000002 0.000001
# 2 -0.000119 0.007223 -0.002254 0.000000 0.000000 0.000000
# 3 0.005938 -0.002254 0.013792 0.000002 -0.000004 0.000000
# 4 0.000001 0.000000 0.000002 0.031875 -0.000004 -0.000001
# 5 -0.000002 0.000000 -0.000004 -0.000004 -0.078049 -0.000001
# 6 0.000001 0.000000 0.000000 -0.000001 -0.000001 0.154118
#
#
# Mechanical properties :
#
#
# Convention : Reuss Voigt Hill
#
# Bulk Modulus (GPa) = 14.75458 30.53764 22.64611
# Shear Modulus (GPa) = 27.16608 21.37253 24.26930
#
# Velocity S-wave (km/s) = 3.55539 3.15356 3.36049
# Velocity P-wave (km/s) = 4.87031 5.24114 5.05913
#
# Compressibility (1/GPa) = 0.06777556
#
# Stress axis : x y z
#
# Youngs Moduli (GPa) = 25.23337 138.44067 72.50394
#
# Poissons Ratio (x) = 0.01647 -0.43050
# Poissons Ratio (y) = 0.00300 0.16341
# Poissons Ratio (z) = -0.14983 0.31201
#
# Static dielectric constant tensor:
#      x y z
#    x 1.776530 0.000000 0.000000 
#    y 0.000000 1.827350 0.000000 
#    z 0.000000 0.000000 1.831040 
# 
# From -- ./inp_files/5756.got.cif
#   From: 2010.05.17/outbox.cif.g08.bks.cpg/sg71_3_cif.got.tgz:5756.got - 2010.06.03 16:22:01.
