data_PCOD9519302
_publ_section_title
;
Structure prediction by ZEFSAII (Michael W. Deem and Ramdas Pophale) SiO2 
 PCOD9519302
Probable space group: I M M M
;
_chemical_formula_sum "Si O2"
_cell_formula_units_Z 72
_cell_length_a 23.988015
_cell_length_b 11.684587
_cell_length_c 15.326551
_cell_angle_alpha 90.000000
_cell_angle_beta 90.000000
_cell_angle_gamma 90.000000
_cell_volume 4295.879719
_symmetry_space_group_name_H-M "I M M M"
_symmetry_group_IT_number 71
_symmetry_cell_setting 'orthorhombic'
loop_
_space_group_symop_operation_xyz
x,y,z
-x,-y,z
x,-y,-z
-x,y,-z
-x,-y,-z
x,y,-z
-x,y,z
x,-y,z
1/2+x,1/2+y,1/2+z
1/2-x,1/2-y,1/2+z
1/2+x,1/2-y,1/2-z
1/2-x,1/2+y,1/2-z
1/2-x,1/2-y,1/2-z
1/2+x,1/2+y,1/2-z
1/2-x,1/2+y,1/2+z
1/2+x,1/2-y,1/2+z
loop_
_atom_site_type_symbol
_atom_site_label
_atom_site_fract_x
_atom_site_fract_y
_atom_site_fract_z
Si Si1 0.500000 0.287225 0.104831
Si Si2 0.802632 0.861949 0.500000
Si Si3 0.500000 0.135150 0.729862
Si Si4 0.877749 0.135122 0.337254
Si Si5 0.826878 0.361161 0.000000
Si Si6 0.890517 0.757112 0.840080
Si Si7 0.061980 0.000000 0.103322
O O1 0.500000 0.177707 0.169421
O O2 0.442414 0.350492 0.132322
O O3 0.500000 0.268710 0.000000
O O4 0.837497 0.827723 0.584686
O O5 0.738329 0.827785 0.500000
O O6 0.803011 0.000000 0.500000
O O7 0.553809 0.186239 0.681485
O O8 0.500000 0.000000 0.725773
O O9 0.864532 0.214208 0.254188
O O10 0.869283 0.000000 0.317982
O O11 0.855415 0.307980 0.086447
O O12 0.831859 0.500000 0.000000
O O13 0.907869 0.883303 0.872068
O O14 0.000000 0.000000 0.144450
O O15 0.056692 0.000000 0.000000
#
# Coordination Sequence:
#
# PCOD9519302 Si02
#       7
#     8   8   8  16   8  16   8
#     4  10  19  31  55  88 114 147 180 217 277 329
#     4   9  20  37  54  79 110 147 191 233 273 326
#     4  10  22  36  51  81 117 150 186 214 264 334
#     4  10  19  32  56  87 118 142 174 229 288 337
#     4  11  24  40  55  75 107 154 202 229 264 323
#     4  11  21  35  58  84 112 147 178 233 280 332
#     4  11  20  34  54  85 121 139 175 222 298 342
#
# _framework density 16.760245999999999
#
# number of rings (size 3 to 8) (size 9 to 14) (size 15 to 20)
#    0.000    1.667    4.444    1.000    0.000    2.000 
#    0.000    1.111    0.000    0.000   14.444    0.000 
#    0.000    0.000    0.000    0.000    0.000    0.000 
#
# Total GULP energy -200680.221372 kJ/mol
# GULP energy per Si atom -5574.450594 kJ/mol
# Density = 1.672210 g / cm^3
# Si number density = 16.760246 Si / 1000 Ang^3
#
#
#
# Elastic Constant Matrix: (Units=GPa)
#
#
# Indices 1 2 3 4 5 6 
#
# 1 99.3151 44.6095 77.8752 0.0000 0.0000 0.0000
# 2 44.6095 109.1257 50.7751 0.0000 0.0000 0.0000
# 3 77.8752 50.7751 158.5983 0.0000 0.0000 0.0000
# 4 0.0000 0.0000 0.0000 7.6834 0.0000 0.0000
# 5 0.0000 0.0000 0.0000 0.0000 11.7887 0.0000
# 6 0.0000 0.0000 0.0000 0.0000 0.0000 38.1895
#
#
#
# Elastic Compliance Matrix: (Units=1/GPa)
#
#
# Indices 1 2 3 4 5 6 
#
# 1 0.017572 -0.003723 -0.007436 0.000000 0.000000 0.000000
# 2 -0.003723 0.011557 -0.001872 0.000000 0.000000 0.000000
# 3 -0.007436 -0.001872 0.010556 0.000000 0.000000 0.000000
# 4 0.000000 0.000000 0.000000 0.130150 0.000000 0.000000
# 5 0.000000 0.000000 0.000000 0.000000 0.084827 0.000000
# 6 0.000000 0.000000 0.000000 0.000000 0.000000 0.026185
#
#
# Mechanical properties :
#
#
# Convention : Reuss Voigt Hill
#
# Bulk Modulus (GPa) = 73.40947 79.28430 76.34688
# Shear Modulus (GPa) = 16.05391 24.45095 20.25243
#
# Velocity S-wave (km/s) = 3.09828 3.82365 3.47992
# Velocity P-wave (km/s) = 7.52954 8.17933 7.86115
#
# Compressibility (1/GPa) = 0.01362222
#
# Stress axis : x y z
#
# Youngs Moduli (GPa) = 56.90727 86.53023 94.73388
#
# Poissons Ratio (x) = 0.32218 0.70448
# Poissons Ratio (y) = 0.21188 0.17731
# Poissons Ratio (z) = 0.42319 0.16195
#
# Static dielectric constant tensor:
#      x y z
#    x 1.565770 0.000000 0.000000 
#    y 0.000000 1.540800 0.000000 
#    z 0.000000 0.000000 1.591910 
# 
# From -- ./inp_files/38940.got.cif
#   From: 2010.05.17/outbox.cif.g08.bks.cpg/sg71_20_cif.got.tgz:38940.got - 2010.06.03 16:22:01.
