data_PCOD9519998
_publ_section_title
;
Structure prediction by ZEFSAII (Michael W. Deem and Ramdas Pophale) SiO2 
 PCOD9519998
Probable space group: I M M M
;
_chemical_formula_sum "Si O2"
_cell_formula_units_Z 104
_cell_length_a 7.940801
_cell_length_b 28.454606
_cell_length_c 21.829035
_cell_angle_alpha 90.000000
_cell_angle_beta 90.000000
_cell_angle_gamma 90.000000
_cell_volume 4932.322057
_symmetry_space_group_name_H-M "I M M M"
_symmetry_group_IT_number 71
_symmetry_cell_setting 'orthorhombic'
loop_
_space_group_symop_operation_xyz
x,y,z
-x,-y,z
x,-y,-z
-x,y,-z
-x,-y,-z
x,y,-z
-x,y,z
x,-y,z
1/2+x,1/2+y,1/2+z
1/2-x,1/2-y,1/2+z
1/2+x,1/2-y,1/2-z
1/2-x,1/2+y,1/2-z
1/2-x,1/2-y,1/2-z
1/2+x,1/2+y,1/2-z
1/2-x,1/2+y,1/2+z
1/2+x,1/2-y,1/2+z
loop_
_atom_site_type_symbol
_atom_site_label
_atom_site_fract_x
_atom_site_fract_y
_atom_site_fract_z
Si Si1 0.195065 0.736123 0.183000
Si Si2 0.705575 0.447195 0.228755
Si Si3 0.794118 0.274180 0.500000
Si Si4 0.693885 0.418513 0.637170
Si Si5 0.298721 0.364652 0.136253
Si Si6 0.801497 0.056385 0.000000
Si Si7 0.699929 0.163100 0.500000
Si Si8 0.309580 0.178020 0.117262
O O1 0.250000 0.750000 0.250000
O O2 0.223056 0.682467 0.165687
O O3 0.313488 0.770845 0.146277
O O4 0.000000 0.747940 0.171974
O O5 0.500000 0.444152 0.231351
O O6 0.750756 0.500000 0.209686
O O7 0.765851 0.439618 0.299382
O O8 0.759934 0.408726 0.178060
O O9 0.749505 0.218947 0.500000
O O10 0.729048 0.306208 0.445444
O O11 0.000000 0.275624 0.500000
O O12 0.500000 0.434973 0.633581
O O13 0.765037 0.427116 0.567704
O O14 0.705052 0.362646 0.648699
O O15 0.500000 0.362411 0.141773
O O16 0.259347 0.361525 0.063327
O O17 0.000000 0.069640 0.000000
O O18 0.786791 0.000000 0.000000
O O19 0.500000 0.162003 0.500000
O O20 0.500000 0.159951 0.111682
#
# Coordination Sequence:
#
# PCOD9519998 Si02
#       8
#    16  16   8  16  16   8   8  16
#     4  12  24  38  57  84 119 158 200 243 294 358
#     4   9  19  37  62  89 116 153 203 256 310 369
#     4  10  21  37  57  80 115 160 202 241 291 352
#     4  10  19  33  56  87 123 162 206 256 306 361
#     4  11  22  39  63  90 121 157 203 260 318 375
#     4   9  17  30  53  86 121 159 207 261 308 355
#     4  12  24  39  62  89 119 157 199 251 311 383
#     4  11  22  36  55  81 117 157 197 241 290 352
#
# _framework density 21.085402999999999
#
# number of rings (size 3 to 8) (size 9 to 14) (size 15 to 20)
#    0.000    1.462    1.538    4.846    0.000    3.692 
#    0.000    1.154    0.000    8.308    0.000    0.000 
#    0.000    0.000    0.000    0.000    0.000    0.000 
#
# Total GULP energy -289709.794222 kJ/mol
# GULP energy per Si atom -5571.342197 kJ/mol
# Density = 2.103741 g / cm^3
# Si number density = 21.085403 Si / 1000 Ang^3
#
#
#
# Elastic Constant Matrix: (Units=GPa)
#
#
# Indices 1 2 3 4 5 6 
#
# 1 59.3034 5.8080 10.7934 0.0000 0.0000 0.0000
# 2 5.8080 123.3545 53.9968 0.0000 0.0000 0.0000
# 3 10.7934 53.9968 112.2086 0.0000 0.0000 0.0000
# 4 0.0000 0.0000 0.0000 30.4935 0.0000 0.0000
# 5 0.0000 0.0000 0.0000 0.0000 8.8888 0.0000
# 6 0.0000 0.0000 0.0000 0.0000 0.0000 16.1274
#
#
#
# Elastic Compliance Matrix: (Units=1/GPa)
#
#
# Indices 1 2 3 4 5 6 
#
# 1 0.017164 -0.000108 -0.001599 0.000000 0.000000 0.000000
# 2 -0.000108 0.010271 -0.004932 0.000000 0.000000 0.000000
# 3 -0.001599 -0.004932 0.011439 0.000000 0.000000 0.000000
# 4 0.000000 0.000000 0.000000 0.032794 0.000000 0.000000
# 5 0.000000 0.000000 0.000000 0.000000 0.112501 0.000000
# 6 0.000000 0.000000 0.000000 0.000000 0.000000 0.062006
#
#
# Mechanical properties :
#
#
# Convention : Reuss Voigt Hill
#
# Bulk Modulus (GPa) = 39.06935 48.45144 43.76040
# Shear Modulus (GPa) = 18.65775 26.05317 22.35546
#
# Velocity S-wave (km/s) = 2.97790 3.51893 3.25966
# Velocity P-wave (km/s) = 5.51300 6.28801 5.91321
#
# Compressibility (1/GPa) = 0.02559551
#
# Stress axis : x y z
#
# Youngs Moduli (GPa) = 58.26132 97.36379 87.41894
#
# Poissons Ratio (x) = 0.01054 0.13978
# Poissons Ratio (y) = 0.00631 0.43116
# Poissons Ratio (z) = 0.09316 0.48020
#
# Static dielectric constant tensor:
#      x y z
#    x 1.766560 0.000000 0.000000 
#    y 0.000000 1.699850 0.000000 
#    z 0.000000 0.000000 1.374590 
# 
# From -- ./inp_files/51234.got.cif
#   From: 2010.05.17/outbox.cif.g08.bks.cpg/sg71_26_cif.got.tgz:51234.got - 2010.06.03 16:22:01.
