data_PCOD9519885
_publ_section_title
;
Structure prediction by ZEFSAII (Michael W. Deem and Ramdas Pophale) SiO2 
 PCOD9519885
Probable space group: I M M M
;
_chemical_formula_sum "Si O2"
_cell_formula_units_Z 96
_cell_length_a 28.255655
_cell_length_b 18.727204
_cell_length_c 11.212662
_cell_angle_alpha 90.000000
_cell_angle_beta 90.000000
_cell_angle_gamma 90.000000
_cell_volume 5933.173542
_symmetry_space_group_name_H-M "I M M M"
_symmetry_group_IT_number 71
_symmetry_cell_setting 'orthorhombic'
loop_
_space_group_symop_operation_xyz
x,y,z
-x,-y,z
x,-y,-z
-x,y,-z
-x,-y,-z
x,y,-z
-x,y,z
x,-y,z
1/2+x,1/2+y,1/2+z
1/2-x,1/2-y,1/2+z
1/2+x,1/2-y,1/2-z
1/2-x,1/2+y,1/2-z
1/2-x,1/2-y,1/2-z
1/2+x,1/2+y,1/2-z
1/2-x,1/2+y,1/2+z
1/2+x,1/2-y,1/2+z
loop_
_atom_site_type_symbol
_atom_site_label
_atom_site_fract_x
_atom_site_fract_y
_atom_site_fract_z
Si Si1 0.395911 0.867185 0.260290
Si Si2 0.944890 0.079908 0.644860
Si Si3 0.556567 0.915757 0.500000
Si Si4 0.798631 0.582440 0.139311
Si Si5 0.885403 0.783683 0.358883
Si Si6 0.772584 0.206814 0.361039
Si Si7 0.446415 0.000000 0.859039
O O1 0.422587 0.877329 0.384906
O O2 0.340651 0.883976 0.283229
O O3 0.400699 0.788689 0.206458
O O4 0.418529 0.929535 0.180466
O O5 0.942793 0.079350 0.500000
O O6 0.912797 0.145788 0.685087
O O7 0.000000 0.090413 0.677133
O O8 0.930295 0.000000 0.684362
O O9 0.500000 0.913838 0.500000
O O10 0.571164 0.000000 0.500000
O O11 0.791654 0.500000 0.171378
O O12 0.751373 0.628998 0.147912
O O13 0.813755 0.585033 0.000000
O O14 0.895471 0.775299 0.500000
O O15 0.828995 0.793735 0.346582
O O16 0.762773 0.231818 0.500000
O O17 0.750000 0.250000 0.250000
O O18 0.500000 0.000000 0.806555
O O19 0.450143 0.000000 0.000000
#
# Coordination Sequence:
#
# PCOD9519885 Si02
#       7
#    16  16   8  16  16  16   8
#     4  12  20  34  54  74 105 141 181 224 271 313
#     4   8  15  30  52  77 106 137 169 211 266 322
#     4  11  22  36  54  76 103 141 189 237 269 301
#     4  10  19  33  54  79 102 135 180 221 265 316
#     4  10  21  34  53  82 112 141 175 218 270 326
#     4  10  20  35  54  77 107 140 175 220 270 318
#     4  11  24  37  49  71 105 148 187 221 270 325
#
# _framework density 16.180211
#
# number of rings (size 3 to 8) (size 9 to 14) (size 15 to 20)
#    0.000    1.833    4.167    1.500    0.000    2.000 
#    0.000    5.000    0.000    0.000    0.000    0.583 
#    0.000    2.000    0.000    0.000    0.000    0.000 
#
# Total GULP energy -267530.186760 kJ/mol
# GULP energy per Si atom -5573.545557 kJ/mol
# Density = 1.614338 g / cm^3
# Si number density = 16.180211 Si / 1000 Ang^3
#
#
#
# Elastic Constant Matrix: (Units=GPa)
#
#
# Indices 1 2 3 4 5 6 
#
# 1 77.2117 72.4972 36.0989 0.0000 0.0000 0.0000
# 2 72.4972 168.8503 54.9660 0.0000 0.0000 0.0000
# 3 36.0989 54.9660 67.8950 0.0000 0.0000 0.0000
# 4 0.0000 0.0000 0.0000 18.1413 0.0000 0.0000
# 5 0.0000 0.0000 0.0000 0.0000 17.6270 0.0000
# 6 0.0000 0.0000 0.0000 0.0000 0.0000 30.8665
#
#
#
# Elastic Compliance Matrix: (Units=1/GPa)
#
#
# Indices 1 2 3 4 5 6 
#
# 1 0.023277 -0.008100 -0.005819 0.000000 0.000000 0.000000
# 2 -0.008100 0.010860 -0.004486 0.000000 0.000000 0.000000
# 3 -0.005819 -0.004486 0.021454 0.000000 0.000000 0.000000
# 4 0.000000 0.000000 0.000000 0.055123 0.000000 0.000000
# 5 0.000000 0.000000 0.000000 0.000000 0.056731 0.000000
# 6 0.000000 0.000000 0.000000 0.000000 0.000000 0.032398
#
#
# Mechanical properties :
#
#
# Convention : Reuss Voigt Hill
#
# Bulk Modulus (GPa) = 53.24012 71.23125 62.23568
# Shear Modulus (GPa) = 20.58350 23.35328 21.96839
#
# Velocity S-wave (km/s) = 3.57058 3.80323 3.68874
# Velocity P-wave (km/s) = 7.06927 7.96275 7.52927
#
# Compressibility (1/GPa) = 0.01878283
#
# Stress axis : x y z
#
# Youngs Moduli (GPa) = 42.96011 92.07692 46.61198
#
# Poissons Ratio (x) = 0.74584 0.27122
# Poissons Ratio (y) = 0.34799 0.20908
# Poissons Ratio (z) = 0.24997 0.41302
#
# Static dielectric constant tensor:
#      x y z
#    x 1.544530 0.000000 0.000000 
#    y 0.000000 1.532860 0.000000 
#    z 0.000000 0.000000 1.622120 
# 
# From -- ./inp_files/29954.got.cif
#   From: 2010.05.17/outbox.cif.g08.bks.cpg/sg71_15_cif.got.tgz:29954.got - 2010.06.03 16:22:01.
