data_PCOD9519032
_publ_section_title
;
Structure prediction by ZEFSAII (Michael W. Deem and Ramdas Pophale) SiO2 
 PCOD9519032
Probable space group: I M M M
;
_chemical_formula_sum "Si O2"
_cell_formula_units_Z 96
_cell_length_a 20.848849
_cell_length_b 30.553149
_cell_length_c 7.506221
_cell_angle_alpha 90.000000
_cell_angle_beta 90.000000
_cell_angle_gamma 90.000000
_cell_volume 4781.447689
_symmetry_space_group_name_H-M "I M M M"
_symmetry_group_IT_number 71
_symmetry_cell_setting 'orthorhombic'
loop_
_space_group_symop_operation_xyz
x,y,z
-x,-y,z
x,-y,-z
-x,y,-z
-x,-y,-z
x,y,-z
-x,y,z
x,-y,z
1/2+x,1/2+y,1/2+z
1/2-x,1/2-y,1/2+z
1/2+x,1/2-y,1/2-z
1/2-x,1/2+y,1/2-z
1/2-x,1/2-y,1/2-z
1/2+x,1/2+y,1/2-z
1/2-x,1/2+y,1/2+z
1/2+x,1/2-y,1/2+z
loop_
_atom_site_type_symbol
_atom_site_label
_atom_site_fract_x
_atom_site_fract_y
_atom_site_fract_z
Si Si1 0.291883 0.293349 0.285968
Si Si2 0.570294 0.162711 0.214422
Si Si3 0.703645 0.128470 0.212157
Si Si4 0.931184 0.052964 0.287333
Si Si5 0.929213 0.233800 0.212868
Si Si6 0.207494 0.049846 0.714399
O O1 0.296707 0.297202 0.500000
O O2 0.250000 0.250000 0.250000
O O3 0.252639 0.334901 0.216261
O O4 0.364592 0.288660 0.216610
O O5 0.500000 0.149301 0.282402
O O6 0.632129 0.136773 0.282361
O O7 0.578500 0.214186 0.255284
O O8 0.568634 0.158593 0.000000
O O9 0.734513 0.081442 0.241071
O O10 0.699978 0.135599 0.000000
O O11 0.932458 0.061207 0.500000
O O12 0.861773 0.067897 0.218822
O O13 0.000000 0.068818 0.214633
O O14 0.930231 0.000000 0.265855
O O15 0.000000 0.220976 0.282882
O O16 0.930750 0.227070 0.000000
O O17 0.202623 0.048027 0.500000
O O18 0.216042 0.000000 0.777900
#
# Coordination Sequence:
#
# PCOD9519032 Si02
#       6
#    16  16  16  16  16  16
#     4  10  19  31  47  69  97 126 158 194 232 279
#     4   9  17  30  48  69  94 123 157 197 235 277
#     4  10  20  32  47  71  99 126 158 194 240 290
#     4   7  10  20  41  66  88 111 144 188 232 270
#     4   9  17  29  46  68  95 128 162 194 231 277
#     4   9  18  32  50  72  95 122 160 202 242 284
#
# _framework density 20.077598999999999
#
# number of rings (size 3 to 8) (size 9 to 14) (size 15 to 20)
#    0.000    3.000    1.667    1.500    0.000    1.667 
#    0.000    0.833    0.000    2.000    0.000    5.833 
#    0.000    0.000    0.000    0.000    0.000    0.000 
#
# Total GULP energy -267514.857265 kJ/mol
# GULP energy per Si atom -5573.226193 kJ/mol
# Density = 2.003190 g / cm^3
# Si number density = 20.077599 Si / 1000 Ang^3
#
#
#
# Elastic Constant Matrix: (Units=GPa)
#
#
# Indices 1 2 3 4 5 6 
#
# 1 233.7821 70.6572 17.6948 0.0000 0.0000 0.0000
# 2 70.6572 58.7408 -2.0157 0.0000 0.0000 0.0000
# 3 17.6948 -2.0157 53.1424 0.0000 0.0000 0.0000
# 4 0.0000 0.0000 0.0000 -11.2549 0.0000 0.0000
# 5 0.0000 0.0000 0.0000 0.0000 -6.3080 0.0000
# 6 0.0000 0.0000 0.0000 0.0000 0.0000 35.0533
#
#
#
# Elastic Compliance Matrix: (Units=1/GPa)
#
#
# Indices 1 2 3 4 5 6 
#
# 1 0.007084 -0.008613 -0.002685 0.000000 0.000000 0.000000
# 2 -0.008613 0.027519 0.003912 0.000000 0.000000 0.000000
# 3 -0.002685 0.003912 0.019860 0.000000 0.000000 0.000000
# 4 0.000000 0.000000 0.000000 -0.088850 0.000000 0.000000
# 5 0.000000 0.000000 0.000000 0.000000 -0.158529 0.000000
# 6 0.000000 0.000000 0.000000 0.000000 0.000000 0.028528
#
#
# Mechanical properties :
#
#
# Convention : Reuss Voigt Hill
#
# Bulk Modulus (GPa) = 25.19609 57.59310 41.39459
# Shear Modulus (GPa) = -36.66085 20.78667 -7.93709
#
# Velocity S-wave (km/s) = -4.27776 3.22112 -1.99042
# Velocity P-wave (km/s) = 3.43837 6.52547 3.92169
#
# Compressibility (1/GPa) = 0.03968870
#
# Stress axis : x y z
#
# Youngs Moduli (GPa) = 141.16413 36.33898 50.35269
#
# Poissons Ratio (x) = 0.31299 0.13522
# Poissons Ratio (y) = 1.21587 -0.19697
# Poissons Ratio (z) = 0.37909 -0.14215
#
# Static dielectric constant tensor:
#      x y z
#    x 1.780520 0.000000 0.000000 
#    y 0.000000 1.675070 0.000000 
#    z 0.000000 0.000000 1.747750 
# 
# From -- ./inp_files/14836.got.cif
#   From: 2010.05.17/outbox.cif.g08.bks.cpg/sg71_8_cif.got.tgz:14836.got - 2010.06.03 16:22:01.
