data_PCOD9519525
_publ_section_title
;
Structure prediction by ZEFSAII (Michael W. Deem and Ramdas Pophale) SiO2 
 PCOD9519525
Probable space group: I M M M
;
_chemical_formula_sum "Si O2"
_cell_formula_units_Z 64
_cell_length_a 7.458460
_cell_length_b 15.396051
_cell_length_c 26.662308
_cell_angle_alpha 90.000000
_cell_angle_beta 90.000000
_cell_angle_gamma 90.000000
_cell_volume 3061.654972
_symmetry_space_group_name_H-M "I M M M"
_symmetry_group_IT_number 71
_symmetry_cell_setting 'orthorhombic'
loop_
_space_group_symop_operation_xyz
x,y,z
-x,-y,z
x,-y,-z
-x,y,-z
-x,-y,-z
x,y,-z
-x,y,z
x,-y,z
1/2+x,1/2+y,1/2+z
1/2-x,1/2-y,1/2+z
1/2+x,1/2-y,1/2-z
1/2-x,1/2+y,1/2-z
1/2-x,1/2-y,1/2-z
1/2+x,1/2+y,1/2-z
1/2-x,1/2+y,1/2+z
1/2+x,1/2-y,1/2+z
loop_
_atom_site_type_symbol
_atom_site_label
_atom_site_fract_x
_atom_site_fract_y
_atom_site_fract_z
Si Si1 0.718375 0.399109 0.000000
Si Si2 0.284325 0.000000 0.212802
Si Si3 0.279983 0.332628 0.108099
Si Si4 0.215118 0.000000 0.942786
Si Si5 0.789856 0.355832 0.638050
Si Si6 0.286482 0.500000 0.830371
O O1 0.775002 0.352131 0.050996
O O2 0.774697 0.500000 0.000000
O O3 0.500000 0.399938 0.000000
O O4 0.215341 0.914838 0.183281
O O5 0.246233 0.000000 0.271281
O O6 0.500000 0.000000 0.206445
O O7 0.500000 0.331208 0.108167
O O8 0.215581 0.239622 0.127970
O O9 0.220098 0.412737 0.142679
O O10 0.274448 0.084166 0.911341
O O11 0.000000 0.000000 0.943237
O O12 0.279567 0.000000 0.000000
O O13 0.000000 0.343406 0.648916
O O14 0.500000 0.500000 0.838281
#
# Coordination Sequence:
#
# PCOD9519525 Si02
#       6
#     8   8  16   8  16   8
#     4   9  14  24  44  73 108 133 153 202 264 301
#     4   9  19  35  49  67 100 135 172 220 261 291
#     4   9  17  29  48  78 107 130 164 211 256 298
#     4  10  21  35  50  73 106 137 166 207 256 304
#     4   9  19  35  54  75 100 132 173 216 251 294
#     4  10  19  32  52  78 105 132 169 212 256 305
#
# _framework density 20.903728000000001
#
# number of rings (size 3 to 8) (size 9 to 14) (size 15 to 20)
#    0.000    2.750    1.250    1.125    1.750    4.000 
#    0.000    1.250    0.000    0.000    0.000    0.875 
#    0.000    0.000    0.000    0.000    0.000    0.000 
#
# Total GULP energy -178631.533449 kJ/mol
# GULP energy per Si atom -5582.235420 kJ/mol
# Density = 2.085615 g / cm^3
# Si number density = 20.903728 Si / 1000 Ang^3
#
#
#
# Elastic Constant Matrix: (Units=GPa)
#
#
# Indices 1 2 3 4 5 6 
#
# 1 60.8288 6.1744 -6.5666 0.0000 0.0000 0.0000
# 2 6.1744 240.7194 123.6506 0.0000 0.0000 0.0000
# 3 -6.5666 123.6506 200.0143 0.0000 0.0000 0.0000
# 4 0.0000 0.0000 0.0000 -1.4045 0.0000 0.0000
# 5 0.0000 0.0000 0.0000 0.0000 21.2256 0.0000
# 6 0.0000 0.0000 0.0000 0.0000 0.0000 -59.7697
#
#
#
# Elastic Compliance Matrix: (Units=1/GPa)
#
#
# Indices 1 2 3 4 5 6 
#
# 1 0.016673 -0.001039 0.001190 0.000000 0.000000 0.000000
# 2 -0.001039 0.006152 -0.003837 0.000000 0.000000 0.000000
# 3 0.001190 -0.003837 0.007411 0.000000 0.000000 0.000000
# 4 0.000000 0.000000 0.000000 -0.711986 0.000000 0.000000
# 5 0.000000 0.000000 0.000000 0.000000 0.047113 0.000000
# 6 0.000000 0.000000 0.000000 0.000000 0.000000 -0.016731
#
#
# Mechanical properties :
#
#
# Convention : Reuss Voigt Hill
#
# Bulk Modulus (GPa) = 43.73800 83.11992 63.42896
# Shear Modulus (GPa) = -7.85702 17.23055 4.68676
#
# Velocity S-wave (km/s) = -1.94083 2.87414 1.49898
# Velocity P-wave (km/s) = 3.99331 7.13189 5.77972
#
# Compressibility (1/GPa) = 0.02286341
#
# Stress axis : x y z
#
# Youngs Moduli (GPa) = 59.97567 162.54954 134.93545
#
# Poissons Ratio (x) = 0.16884 -0.16051
# Poissons Ratio (y) = 0.06230 0.51779
# Poissons Ratio (z) = -0.07134 0.62375
#
# Static dielectric constant tensor:
#      x y z
#    x 1.793670 0.000000 0.000000 
#    y 0.000000 1.730440 0.000000 
#    z 0.000000 0.000000 1.708920 
# 
# From -- ./inp_files/12048.got.cif
#   From: 2010.05.17/outbox.cif.g08.bks.cpg/sg71_7_cif.got.tgz:12048.got - 2010.06.03 16:22:01.
