data_PCOD9519378
_publ_section_title
;
Structure prediction by ZEFSAII (Michael W. Deem and Ramdas Pophale) SiO2 
 PCOD9519378
Probable space group: I M M M
;
_chemical_formula_sum "Si O2"
_cell_formula_units_Z 88
_cell_length_a 18.677473
_cell_length_b 18.802355
_cell_length_c 13.976125
_cell_angle_alpha 90.000000
_cell_angle_beta 90.000000
_cell_angle_gamma 90.000000
_cell_volume 4908.142256
_symmetry_space_group_name_H-M "I M M M"
_symmetry_group_IT_number 71
_symmetry_cell_setting 'orthorhombic'
loop_
_space_group_symop_operation_xyz
x,y,z
-x,-y,z
x,-y,-z
-x,y,-z
-x,-y,-z
x,y,-z
-x,y,z
x,-y,z
1/2+x,1/2+y,1/2+z
1/2-x,1/2-y,1/2+z
1/2+x,1/2-y,1/2-z
1/2-x,1/2+y,1/2-z
1/2-x,1/2-y,1/2-z
1/2+x,1/2+y,1/2-z
1/2-x,1/2+y,1/2+z
1/2+x,1/2-y,1/2+z
loop_
_atom_site_type_symbol
_atom_site_label
_atom_site_fract_x
_atom_site_fract_y
_atom_site_fract_z
Si Si1 0.585672 0.310196 0.829855
Si Si2 0.282635 0.326372 0.721876
Si Si3 0.280800 0.085355 0.394120
Si Si4 0.850666 0.341229 0.392235
Si Si5 0.080024 0.414622 0.209668
Si Si6 0.414242 0.419689 0.000000
O O1 0.500000 0.304363 0.816871
O O2 0.631740 0.321338 0.732534
O O3 0.617948 0.238336 0.876697
O O4 0.600843 0.373874 0.905034
O O5 0.250000 0.250000 0.750000
O O6 0.260415 0.380044 0.806338
O O7 0.234848 0.344957 0.629652
O O8 0.258798 0.109787 0.500000
O O9 0.363596 0.104891 0.372727
O O10 0.274898 0.000000 0.390623
O O11 0.865891 0.364116 0.500000
O O12 0.889097 0.386792 0.310030
O O13 0.077868 0.500000 0.212763
O O14 0.000000 0.387227 0.194137
O O15 0.383499 0.500000 0.000000
O O16 0.500000 0.426634 0.000000
#
# Coordination Sequence:
#
# PCOD9519378 Si02
#       6
#    16  16  16  16  16   8
#     4  10  19  32  50  72  98 128 163 203 253 308
#     4   9  20  33  48  71  98 131 168 208 247 299
#     4   9  18  32  50  72  99 133 169 205 251 306
#     4  10  19  33  51  69  95 133 174 208 246 293
#     4   9  18  31  47  72 103 131 166 210 251 295
#     4   9  18  30  46  74 105 127 152 194 251 312
#
# _framework density 17.929390000000001
#
# number of rings (size 3 to 8) (size 9 to 14) (size 15 to 20)
#    0.000    2.636    0.909    0.545    1.273    3.273 
#    0.000    2.727    0.000    0.545    0.000    0.000 
#    0.000    0.000    0.000   13.636    0.000    3.455 
#
# Total GULP energy -244998.031066 kJ/mol
# GULP energy per Si atom -5568.137070 kJ/mol
# Density = 1.788858 g / cm^3
# Si number density = 17.929390 Si / 1000 Ang^3
#
#
#
# Elastic Constant Matrix: (Units=GPa)
#
#
# Indices 1 2 3 4 5 6 
#
# 1 123.0491 12.3473 22.6612 0.0000 0.0000 0.0000
# 2 12.3473 23.9788 12.2285 0.0000 0.0000 0.0000
# 3 22.6612 12.2285 41.7460 0.0000 0.0000 0.0000
# 4 0.0000 0.0000 0.0000 17.1844 0.0000 0.0000
# 5 0.0000 0.0000 0.0000 0.0000 20.7197 0.0000
# 6 0.0000 0.0000 0.0000 0.0000 0.0000 16.8091
#
#
#
# Elastic Compliance Matrix: (Units=1/GPa)
#
#
# Indices 1 2 3 4 5 6 
#
# 1 0.009162 -0.002564 -0.004222 0.000000 0.000000 0.000000
# 2 -0.002564 0.049745 -0.013180 0.000000 0.000000 0.000000
# 3 -0.004222 -0.013180 0.030107 0.000000 0.000000 0.000000
# 4 0.000000 0.000000 0.000000 0.058192 0.000000 0.000000
# 5 0.000000 0.000000 0.000000 0.000000 0.048263 0.000000
# 6 0.000000 0.000000 0.000000 0.000000 0.000000 0.059492
#
#
# Mechanical properties :
#
#
# Convention : Reuss Voigt Hill
#
# Bulk Modulus (GPa) = 20.37427 31.47200 25.92314
# Shear Modulus (GPa) = 16.06404 20.37842 18.22123
#
# Velocity S-wave (km/s) = 2.99651 3.37500 3.19137
# Velocity P-wave (km/s) = 4.83326 5.72528 5.29808
#
# Compressibility (1/GPa) = 0.04908151
#
# Stress axis : x y z
#
# Youngs Moduli (GPa) = 109.14978 20.10241 33.21487
#
# Poissons Ratio (x) = 0.05155 0.14024
# Poissons Ratio (y) = 0.27991 0.43776
# Poissons Ratio (z) = 0.46084 0.26494
#
# Static dielectric constant tensor:
#      x y z
#    x 1.692870 0.000000 0.000000 
#    y 0.000000 1.613400 0.000000 
#    z 0.000000 0.000000 1.587010 
# 
# From -- ./inp_files/36350.got.cif
#   From: 2010.05.17/outbox.cif.g08.bks.cpg/sg71_19_cif.got.tgz:36350.got - 2010.06.03 16:22:01.
