data_PCOD9519730
_publ_section_title
;
Structure prediction by ZEFSAII (Michael W. Deem and Ramdas Pophale) SiO2 
 PCOD9519730
Probable space group: I M M M
;
_chemical_formula_sum "Si O2"
_cell_formula_units_Z 104
_cell_length_a 30.361511
_cell_length_b 23.175119
_cell_length_c 9.303376
_cell_angle_alpha 90.000000
_cell_angle_beta 90.000000
_cell_angle_gamma 90.000000
_cell_volume 6546.149624
_symmetry_space_group_name_H-M "I M M M"
_symmetry_group_IT_number 71
_symmetry_cell_setting 'orthorhombic'
loop_
_space_group_symop_operation_xyz
x,y,z
-x,-y,z
x,-y,-z
-x,y,-z
-x,-y,-z
x,y,-z
-x,y,z
x,-y,z
1/2+x,1/2+y,1/2+z
1/2-x,1/2-y,1/2+z
1/2+x,1/2-y,1/2-z
1/2-x,1/2+y,1/2-z
1/2-x,1/2-y,1/2-z
1/2+x,1/2+y,1/2-z
1/2-x,1/2+y,1/2+z
1/2+x,1/2-y,1/2+z
loop_
_atom_site_type_symbol
_atom_site_label
_atom_site_fract_x
_atom_site_fract_y
_atom_site_fract_z
Si Si1 0.552539 0.000000 0.171050
Si Si2 0.449223 0.342330 0.172811
Si Si3 0.399597 0.894316 0.327063
Si Si4 0.785496 0.070170 0.165180
Si Si5 0.125696 0.067433 0.672519
Si Si6 0.697965 0.068814 0.669912
Si Si7 0.551582 0.776618 0.329018
O O1 0.574076 0.944037 0.244570
O O2 0.500000 0.000000 0.193892
O O3 0.560942 0.000000 0.000000
O O4 0.500000 0.355627 0.212970
O O5 0.415320 0.392527 0.213870
O O6 0.437082 0.281595 0.244919
O O7 0.447762 0.336498 0.000000
O O8 0.404509 0.903061 0.500000
O O9 0.347851 0.900465 0.293584
O O10 0.419246 0.831890 0.290544
O O11 0.829412 0.086950 0.250691
O O12 0.740345 0.088763 0.241351
O O13 0.784756 0.000000 0.168114
O O14 0.787312 0.088718 0.000000
O O15 0.131460 0.070759 0.500000
O O16 0.117749 0.000000 0.708240
O O17 0.706610 0.076071 0.500000
O O18 0.691498 0.000000 0.694664
O O19 0.556000 0.766680 0.500000
O O20 0.500000 0.789788 0.300126
#
# Coordination Sequence:
#
# PCOD9519730 Si02
#       7
#     8  16  16  16  16  16  16
#     4  11  23  33  43  67 101 131 159 201 256 299
#     4   9  18  32  50  72  98 127 158 194 236 282
#     4  10  19  33  51  70  92 125 167 206 243 289
#     4   9  17  28  44  68  97 127 155 188 234 286
#     4   9  17  30  49  73  99 127 158 191 231 281
#     4   9  16  28  46  68  93 121 156 197 241 286
#     4   9  18  32  50  70  92 124 165 202 236 281
#
# _framework density 15.887200999999999
#
# number of rings (size 3 to 8) (size 9 to 14) (size 15 to 20)
#    0.000    2.692    0.769    1.154    0.000    5.231 
#    0.000    3.077    0.000    0.923    0.000    4.308 
#    0.000    0.000    0.000    0.000    0.000    0.000 
#
# Total GULP energy -289828.829779 kJ/mol
# GULP energy per Si atom -5573.631342 kJ/mol
# Density = 1.585104 g / cm^3
# Si number density = 15.887201 Si / 1000 Ang^3
#
#
#
# Elastic Constant Matrix: (Units=GPa)
#
#
# Indices 1 2 3 4 5 6 
#
# 1 146.5911 88.2570 65.0205 0.0000 0.0000 0.0000
# 2 88.2570 90.7517 46.7921 0.0000 0.0000 0.0000
# 3 65.0205 46.7921 41.9779 0.0000 0.0000 0.0000
# 4 0.0000 0.0000 0.0000 22.8704 0.0000 0.0000
# 5 0.0000 0.0000 0.0000 0.0000 20.4103 0.0000
# 6 0.0000 0.0000 0.0000 0.0000 0.0000 12.7983
#
#
#
# Elastic Compliance Matrix: (Units=1/GPa)
#
#
# Indices 1 2 3 4 5 6 
#
# 1 0.025363 -0.010370 -0.027726 0.000000 0.000000 0.000000
# 2 -0.010370 0.030151 -0.017547 0.000000 0.000000 0.000000
# 3 -0.027726 -0.017547 0.086326 0.000000 0.000000 0.000000
# 4 0.000000 0.000000 0.000000 0.043725 0.000000 0.000000
# 5 0.000000 0.000000 0.000000 0.000000 0.048995 0.000000
# 6 0.000000 0.000000 0.000000 0.000000 0.000000 0.078135
#
#
# Mechanical properties :
#
#
# Convention : Reuss Voigt Hill
#
# Bulk Modulus (GPa) = 32.72767 75.49555 54.11161
# Shear Modulus (GPa) = 11.51635 16.49921 14.00778
#
# Velocity S-wave (km/s) = 2.69528 3.22611 2.97257
# Velocity P-wave (km/s) = 5.50734 7.84219 6.77609
#
# Compressibility (1/GPa) = 0.03055518
#
# Stress axis : x y z
#
# Youngs Moduli (GPa) = 39.42766 33.16601 11.58400
#
# Poissons Ratio (x) = 0.34394 0.32117
# Poissons Ratio (y) = 0.40887 0.20326
# Poissons Ratio (z) = 1.09316 0.58195
#
# Static dielectric constant tensor:
#      x y z
#    x 1.524160 0.000000 0.000000 
#    y 0.000000 1.502100 0.000000 
#    z 0.000000 0.000000 1.530710 
# 
# From -- ./inp_files/15248.got.cif
#   From: 2010.05.17/outbox.cif.g08.bks.cpg/sg71_8_cif.got.tgz:15248.got - 2010.06.03 16:22:01.
