data_PCOD9519224
_publ_section_title
;
Structure prediction by ZEFSAII (Michael W. Deem and Ramdas Pophale) SiO2 
 PCOD9519224
Probable space group: I M M M
;
_chemical_formula_sum "Si O2"
_cell_formula_units_Z 120
_cell_length_a 13.739878
_cell_length_b 22.446384
_cell_length_c 21.341087
_cell_angle_alpha 90.000000
_cell_angle_beta 90.000000
_cell_angle_gamma 90.000000
_cell_volume 6581.816970
_symmetry_space_group_name_H-M "I M M M"
_symmetry_group_IT_number 71
_symmetry_cell_setting 'orthorhombic'
loop_
_space_group_symop_operation_xyz
x,y,z
-x,-y,z
x,-y,-z
-x,y,-z
-x,-y,-z
x,y,-z
-x,y,z
x,-y,z
1/2+x,1/2+y,1/2+z
1/2-x,1/2-y,1/2+z
1/2+x,1/2-y,1/2-z
1/2-x,1/2+y,1/2-z
1/2-x,1/2-y,1/2-z
1/2+x,1/2+y,1/2-z
1/2-x,1/2+y,1/2+z
1/2+x,1/2-y,1/2+z
loop_
_atom_site_type_symbol
_atom_site_label
_atom_site_fract_x
_atom_site_fract_y
_atom_site_fract_z
Si Si1 0.882047 0.312648 0.762126
Si Si2 0.883368 0.569070 0.688424
Si Si3 0.733338 0.751347 0.851717
Si Si4 0.116883 0.858440 0.380359
Si Si5 0.217441 0.631136 0.570687
Si Si6 0.618375 0.568326 0.240842
Si Si7 0.118229 0.933758 0.500000
Si Si8 0.890793 0.071282 0.120355
O O1 0.859775 0.382114 0.743194
O O2 0.826100 0.283167 0.821517
O O3 0.835402 0.275668 0.704465
O O4 0.000000 0.306086 0.765768
O O5 0.847872 0.500000 0.695765
O O6 0.849719 0.597110 0.621813
O O7 0.000000 0.566387 0.687690
O O8 0.668973 0.703570 0.887953
O O9 0.749600 0.806501 0.897916
O O10 0.146581 0.887905 0.314424
O O11 0.146036 0.900715 0.437007
O O12 0.000000 0.852275 0.380197
O O13 0.177905 0.637210 0.500000
O O14 0.315573 0.592664 0.569946
O O15 0.500000 0.567124 0.242377
O O16 0.648783 0.500000 0.229164
O O17 0.647364 0.589155 0.310176
O O18 0.000000 0.935966 0.500000
O O19 0.156623 0.000000 0.500000
O O20 0.000000 0.094164 0.111527
O O21 0.895217 0.000000 0.122340
#
# Coordination Sequence:
#
# PCOD9519224 Si02
#       8
#    16  16  16  16  16  16   8  16
#     4   9  19  37  57  80 108 135 170 221 276 325
#     4   9  19  37  59  82 108 137 174 226 281 328
#     4  10  22  35  53  78 105 143 180 216 260 317
#     4  10  19  31  51  76 106 142 177 214 257 315
#     4  11  24  38  52  74 107 148 185 224 262 312
#     4   8  15  28  48  75 104 132 162 203 257 314
#     4   9  18  32  50  76 111 145 174 211 267 327
#     4   9  19  35  54  78 107 135 168 214 266 319
#
# _framework density 18.232047000000001
#
# number of rings (size 3 to 8) (size 9 to 14) (size 15 to 20)
#    0.000    2.600    0.000    2.000    6.533    4.267 
#    0.000    2.000    0.000    0.000    0.000    0.000 
#    0.000    0.533    0.000    0.000    0.000    0.000 
#
# Total GULP energy -334383.595254 kJ/mol
# GULP energy per Si atom -5573.059921 kJ/mol
# Density = 1.819055 g / cm^3
# Si number density = 18.232047 Si / 1000 Ang^3
#
#
#
# Elastic Constant Matrix: (Units=GPa)
#
#
# Indices 1 2 3 4 5 6 
#
# 1 66.0962 29.2977 21.6009 0.0000 0.0000 0.0000
# 2 29.2977 102.1882 37.6365 0.0000 0.0000 0.0000
# 3 21.6009 37.6365 75.6787 0.0000 0.0000 0.0000
# 4 0.0000 0.0000 0.0000 20.6633 0.0000 0.0000
# 5 0.0000 0.0000 0.0000 0.0000 16.2285 0.0000
# 6 0.0000 0.0000 0.0000 0.0000 0.0000 24.9871
#
#
#
# Elastic Compliance Matrix: (Units=1/GPa)
#
#
# Indices 1 2 3 4 5 6 
#
# 1 0.017919 -0.003983 -0.003134 0.000000 0.000000 0.000000
# 2 -0.003983 0.012866 -0.005261 0.000000 0.000000 0.000000
# 3 -0.003134 -0.005261 0.016725 0.000000 0.000000 0.000000
# 4 0.000000 0.000000 0.000000 0.048395 0.000000 0.000000
# 5 0.000000 0.000000 0.000000 0.000000 0.061620 0.000000
# 6 0.000000 0.000000 0.000000 0.000000 0.000000 0.040021
#
#
# Mechanical properties :
#
#
# Convention : Reuss Voigt Hill
#
# Bulk Modulus (GPa) = 43.95046 46.78147 45.36597
# Shear Modulus (GPa) = 21.74988 22.73767 22.24378
#
# Velocity S-wave (km/s) = 3.45765 3.53530 3.49669
# Velocity P-wave (km/s) = 6.33238 6.50992 6.42176
#
# Compressibility (1/GPa) = 0.02275289
#
# Stress axis : x y z
#
# Youngs Moduli (GPa) = 55.80603 77.72604 59.79149
#
# Poissons Ratio (x) = 0.30961 0.18737
# Poissons Ratio (y) = 0.22230 0.31459
# Poissons Ratio (z) = 0.17488 0.40895
#
# Static dielectric constant tensor:
#      x y z
#    x 1.639220 0.000000 0.000000 
#    y 0.000000 1.636400 0.000000 
#    z 0.000000 0.000000 1.633500 
# 
# From -- ./inp_files/38447.got.cif
#   From: 2010.05.17/outbox.cif.g08.bks.cpg/sg71_20_cif.got.tgz:38447.got - 2010.06.03 16:22:01.
