data_PCOD9519669
_publ_section_title
;
Structure prediction by ZEFSAII (Michael W. Deem and Ramdas Pophale) SiO2 
 PCOD9519669
Probable space group: I M M M
;
_chemical_formula_sum "Si O2"
_cell_formula_units_Z 90
_cell_length_a 22.639793
_cell_length_b 11.644501
_cell_length_c 21.483883
_cell_angle_alpha 90.000000
_cell_angle_beta 90.000000
_cell_angle_gamma 90.000000
_cell_volume 5663.776573
_symmetry_space_group_name_H-M "I M M M"
_symmetry_group_IT_number 71
_symmetry_cell_setting 'orthorhombic'
loop_
_space_group_symop_operation_xyz
x,y,z
-x,-y,z
x,-y,-z
-x,y,-z
-x,-y,-z
x,y,-z
-x,y,z
x,-y,z
1/2+x,1/2+y,1/2+z
1/2-x,1/2-y,1/2+z
1/2+x,1/2-y,1/2-z
1/2-x,1/2+y,1/2-z
1/2-x,1/2-y,1/2-z
1/2+x,1/2+y,1/2-z
1/2-x,1/2+y,1/2+z
1/2+x,1/2-y,1/2+z
loop_
_atom_site_type_symbol
_atom_site_label
_atom_site_fract_x
_atom_site_fract_y
_atom_site_fract_z
Si Si1 0.723035 0.293886 0.155257
Si Si2 0.000000 0.639588 0.429302
Si Si3 0.612334 0.134133 0.849596
Si Si4 0.269676 0.000000 0.574246
Si Si5 0.430310 0.203429 0.287038
Si Si6 0.177431 0.866897 0.790437
Si Si7 0.000000 0.500000 0.000000
Si Si8 0.593397 0.000000 0.384807
O O1 0.669407 0.210332 0.138076
O O2 0.739098 0.388631 0.104697
O O3 0.779663 0.214778 0.169785
O O4 0.702381 0.353893 0.219896
O O5 0.941625 0.674138 0.392484
O O6 0.000000 0.500000 0.429250
O O7 0.000000 0.679696 0.500000
O O8 0.591406 0.148217 0.778137
O O9 0.624548 0.000000 0.860989
O O10 0.265602 0.000000 0.500000
O O11 0.338173 0.000000 0.595356
O O12 0.500000 0.229105 0.283732
O O13 0.388126 0.313774 0.294929
O O14 0.419421 0.111345 0.341753
O O15 0.179695 0.000000 0.808456
O O16 0.051450 0.500000 0.055221
#
# Coordination Sequence:
#
# PCOD9519669 Si02
#       8
#    16   8  16   8  16  16   2   8
#     4  10  21  35  54  83 112 147 188 230 283 341
#     4   9  18  31  49  75 108 139 182 230 272 331
#     4  10  19  32  55  84 112 148 185 231 292 333
#     4  12  24  40  58  83 118 156 193 228 279 348
#     4  11  20  32  56  84 116 144 184 242 289 346
#     4  10  20  34  56  82 116 143 182 238 295 337
#     4  12  24  36  60  88 118 152 190 250 276 350
#     4  12  22  36  56  90 113 143 190 243 294 332
#
# _framework density 15.890458000000001
#
# number of rings (size 3 to 8) (size 9 to 14) (size 15 to 20)
#    0.000    1.511    5.778    0.533    0.000    1.067 
#    0.000    0.000    0.000    2.133    0.000    1.867 
#    0.000    0.000    0.000    0.000    0.000    0.000 
#
# Total GULP energy -250813.288483 kJ/mol
# GULP energy per Si atom -5573.628633 kJ/mol
# Density = 1.585429 g / cm^3
# Si number density = 15.890458 Si / 1000 Ang^3
#
#
#
# Elastic Constant Matrix: (Units=GPa)
#
#
# Indices 1 2 3 4 5 6 
#
# 1 149.7722 63.8347 51.1954 0.0000 0.0000 0.0000
# 2 63.8347 105.8949 41.8423 0.0000 0.0000 0.0000
# 3 51.1954 41.8423 107.4169 0.0000 0.0000 0.0000
# 4 0.0000 0.0000 0.0000 10.8312 0.0000 0.0000
# 5 0.0000 0.0000 0.0000 0.0000 18.4319 0.0000
# 6 0.0000 0.0000 0.0000 0.0000 0.0000 17.7357
#
#
#
# Elastic Compliance Matrix: (Units=1/GPa)
#
#
# Indices 1 2 3 4 5 6 
#
# 1 0.009627 -0.004716 -0.002751 0.000000 0.000000 0.000000
# 2 -0.004716 0.013472 -0.003000 0.000000 0.000000 0.000000
# 3 -0.002751 -0.003000 0.011789 0.000000 0.000000 0.000000
# 4 0.000000 0.000000 0.000000 0.092326 0.000000 0.000000
# 5 0.000000 0.000000 0.000000 0.000000 0.054254 0.000000
# 6 0.000000 0.000000 0.000000 0.000000 0.000000 0.056383
#
#
# Mechanical properties :
#
#
# Convention : Reuss Voigt Hill
#
# Bulk Modulus (GPa) = 71.66667 75.20318 73.43492
# Shear Modulus (GPa) = 18.97981 23.14720 21.06351
#
# Velocity S-wave (km/s) = 3.45978 3.82078 3.64475
# Velocity P-wave (km/s) = 7.82039 8.17883 8.00161
#
# Compressibility (1/GPa) = 0.01395349
#
# Stress axis : x y z
#
# Youngs Moduli (GPa) = 103.86962 74.22936 84.82253
#
# Poissons Ratio (x) = 0.35010 0.23337
# Poissons Ratio (y) = 0.48989 0.25445
# Poissons Ratio (z) = 0.28578 0.22267
#
# Static dielectric constant tensor:
#      x y z
#    x 1.528940 0.000000 0.000000 
#    y 0.000000 1.508630 0.000000 
#    z 0.000000 0.000000 1.515380 
# 
# From -- ./inp_files/25720.got.cif
#   From: 2010.05.17/outbox.cif.g08.bks.cpg/sg71_13_cif.got.tgz:25720.got - 2010.06.03 16:22:01.
