data_PCOD9519425
_publ_section_title
;
Structure prediction by ZEFSAII (Michael W. Deem and Ramdas Pophale) SiO2 
 PCOD9519425
Probable space group: I M M M
;
_chemical_formula_sum "Si O2"
_cell_formula_units_Z 96
_cell_length_a 11.709725
_cell_length_b 22.176460
_cell_length_c 24.729849
_cell_angle_alpha 90.000000
_cell_angle_beta 90.000000
_cell_angle_gamma 90.000000
_cell_volume 6421.853323
_symmetry_space_group_name_H-M "I M M M"
_symmetry_group_IT_number 71
_symmetry_cell_setting 'orthorhombic'
loop_
_space_group_symop_operation_xyz
x,y,z
-x,-y,z
x,-y,-z
-x,y,-z
-x,-y,-z
x,y,-z
-x,y,z
x,-y,z
1/2+x,1/2+y,1/2+z
1/2-x,1/2-y,1/2+z
1/2+x,1/2-y,1/2-z
1/2-x,1/2+y,1/2-z
1/2-x,1/2-y,1/2-z
1/2+x,1/2+y,1/2-z
1/2-x,1/2+y,1/2+z
1/2+x,1/2-y,1/2+z
loop_
_atom_site_type_symbol
_atom_site_label
_atom_site_fract_x
_atom_site_fract_y
_atom_site_fract_z
Si Si1 0.287425 0.651414 0.263680
Si Si2 0.500000 0.428903 0.741085
Si Si3 0.000000 0.069558 0.889315
Si Si4 0.134802 0.570323 0.342063
Si Si5 0.865994 0.274569 0.819150
Si Si6 0.767516 0.879257 0.061531
Si Si7 0.365268 0.249288 0.440305
O O1 0.388477 0.608767 0.241960
O O2 0.205221 0.609758 0.299558
O O3 0.214966 0.683396 0.216700
O O4 0.338158 0.705433 0.301255
O O5 0.500000 0.500000 0.755885
O O6 0.500000 0.425736 0.675458
O O7 0.113991 0.097900 0.913113
O O8 0.000000 0.000000 0.904337
O O9 0.169559 0.500000 0.339102
O O10 0.167986 0.596370 0.400577
O O11 0.000000 0.574548 0.332474
O O12 0.846566 0.283795 0.883354
O O13 0.000000 0.285284 0.807745
O O14 0.783416 0.807268 0.061206
O O15 0.755977 0.900121 0.000000
O O16 0.350056 0.219990 0.500000
O O17 0.500000 0.268315 0.438554
#
# Coordination Sequence:
#
# PCOD9519425 Si02
#       7
#    16   8   8  16  16  16  16
#     4  11  20  33  50  73  98 129 165 205 251 292
#     4  11  20  33  54  75  99 128 164 208 252 292
#     4  11  19  28  45  68  92 119 160 213 253 280
#     4  11  23  36  47  62  91 132 174 211 250 294
#     4  10  19  32  51  74 102 129 161 201 243 305
#     4  11  20  31  46  65  91 125 167 211 252 290
#     4   9  16  29  49  72  97 123 154 197 247 291
#
# _framework density 14.948956000000001
#
# number of rings (size 3 to 8) (size 9 to 14) (size 15 to 20)
#    0.000    1.500    5.000    1.750    0.000    2.000 
#    0.000    0.833    0.000    0.000    0.000    0.000 
#    0.000    3.333    0.000   18.833    0.000    0.000 
#
# Total GULP energy -267630.443231 kJ/mol
# GULP energy per Si atom -5575.634234 kJ/mol
# Density = 1.491493 g / cm^3
# Si number density = 14.948956 Si / 1000 Ang^3
#
#
#
# Elastic Constant Matrix: (Units=GPa)
#
#
# Indices 1 2 3 4 5 6 
#
# 1 70.3481 36.9465 33.3008 0.0000 0.0000 0.0000
# 2 36.9465 59.6325 31.2129 0.0000 0.0000 0.0000
# 3 33.3008 31.2129 82.9578 0.0000 0.0000 0.0000
# 4 0.0000 0.0000 0.0000 17.3048 0.0000 0.0000
# 5 0.0000 0.0000 0.0000 0.0000 35.2434 0.0000
# 6 0.0000 0.0000 0.0000 0.0000 0.0000 21.5610
#
#
#
# Elastic Compliance Matrix: (Units=1/GPa)
#
#
# Indices 1 2 3 4 5 6 
#
# 1 0.022456 -0.011450 -0.004706 0.000000 0.000000 0.000000
# 2 -0.011450 0.026720 -0.005457 0.000000 0.000000 0.000000
# 3 -0.004706 -0.005457 0.015997 0.000000 0.000000 0.000000
# 4 0.000000 0.000000 0.000000 0.057787 0.000000 0.000000
# 5 0.000000 0.000000 0.000000 0.000000 0.028374 0.000000
# 6 0.000000 0.000000 0.000000 0.000000 0.000000 0.046380
#
#
# Mechanical properties :
#
#
# Convention : Reuss Voigt Hill
#
# Bulk Modulus (GPa) = 45.56611 46.20655 45.88633
# Shear Modulus (GPa) = 20.14048 22.25374 21.19711
#
# Velocity S-wave (km/s) = 3.67452 3.86249 3.76967
# Velocity P-wave (km/s) = 6.96779 7.13221 7.05048
#
# Compressibility (1/GPa) = 0.02194614
#
# Stress axis : x y z
#
# Youngs Moduli (GPa) = 44.53095 37.42550 62.51252
#
# Poissons Ratio (x) = 0.42852 0.29421
# Poissons Ratio (y) = 0.50987 0.34114
# Poissons Ratio (z) = 0.20958 0.20424
#
# Static dielectric constant tensor:
#      x y z
#    x 1.488160 0.000000 0.000000 
#    y 0.000000 1.491420 0.000000 
#    z 0.000000 0.000000 1.505500 
# 
# From -- ./inp_files/24253.got.cif
#   From: 2010.05.17/outbox.cif.g08.bks.cpg/sg71_13_cif.got.tgz:24253.got - 2010.06.03 16:22:01.
