data_PCOD9519988
_publ_section_title
;
Structure prediction by ZEFSAII (Michael W. Deem and Ramdas Pophale) SiO2 
 PCOD9519988
Probable space group: I M M M
;
_chemical_formula_sum "Si O2"
_cell_formula_units_Z 88
_cell_length_a 8.168890
_cell_length_b 19.041430
_cell_length_c 29.382447
_cell_angle_alpha 90.000000
_cell_angle_beta 90.000000
_cell_angle_gamma 90.000000
_cell_volume 4570.361683
_symmetry_space_group_name_H-M "I M M M"
_symmetry_group_IT_number 71
_symmetry_cell_setting 'orthorhombic'
loop_
_space_group_symop_operation_xyz
x,y,z
-x,-y,z
x,-y,-z
-x,y,-z
-x,-y,-z
x,y,-z
-x,y,z
x,-y,z
1/2+x,1/2+y,1/2+z
1/2-x,1/2-y,1/2+z
1/2+x,1/2-y,1/2-z
1/2-x,1/2+y,1/2-z
1/2-x,1/2-y,1/2-z
1/2+x,1/2+y,1/2-z
1/2-x,1/2+y,1/2+z
1/2+x,1/2-y,1/2+z
loop_
_atom_site_type_symbol
_atom_site_label
_atom_site_fract_x
_atom_site_fract_y
_atom_site_fract_z
Si Si1 0.192242 0.794056 0.446524
Si Si2 0.690901 0.347823 0.205050
Si Si3 0.184967 0.847778 0.904479
Si Si4 0.692872 0.919879 0.615201
Si Si5 0.693452 0.690802 0.302128
Si Si6 0.500000 0.083583 0.051302
O O1 0.233292 0.800404 0.500000
O O2 0.293839 0.731857 0.422858
O O3 0.221993 0.865784 0.419151
O O4 0.000000 0.775589 0.442835
O O5 0.500000 0.366558 0.202215
O O6 0.781610 0.391745 0.166552
O O7 0.747083 0.352710 0.257663
O O8 0.713629 0.264810 0.195038
O O9 0.206700 0.847166 0.850088
O O10 0.333425 0.890623 0.925653
O O11 0.000000 0.871871 0.915384
O O12 0.500000 0.918605 0.605112
O O13 0.752383 0.000000 0.611165
O O14 0.500000 0.707459 0.295118
O O15 0.500000 0.000000 0.050461
O O16 0.500000 0.112190 0.000000
#
# Coordination Sequence:
#
# PCOD9519988 Si02
#       6
#    16  16  16  16  16   8
#     4  11  23  39  61  90 121 156 209 266 310 365
#     4  10  19  33  56  85 116 154 197 247 302 361
#     4  11  22  40  67  96 127 163 205 257 312 367
#     4  11  24  40  56  81 122 166 209 258 313 375
#     4   9  19  34  56  89 120 149 196 249 299 361
#     4  11  26  46  66  94 129 161 203 253 311 387
#
# _framework density 19.254491999999999
#
# number of rings (size 3 to 8) (size 9 to 14) (size 15 to 20)
#    0.000    1.545    2.727    2.182    1.273    5.455 
#    0.000    3.636    0.000    3.273    0.000    0.000 
#    0.000    0.000    0.000    0.000    0.000    0.000 
#
# Total GULP energy -245731.105820 kJ/mol
# GULP energy per Si atom -5584.797860 kJ/mol
# Density = 1.921067 g / cm^3
# Si number density = 19.254492 Si / 1000 Ang^3
#
#
#
# Elastic Constant Matrix: (Units=GPa)
#
#
# Indices 1 2 3 4 5 6 
#
# 1 82.1045 18.8072 42.3106 0.0000 0.0000 0.0000
# 2 18.8072 54.7825 22.4334 0.0000 0.0000 0.0000
# 3 42.3106 22.4334 112.8484 0.0000 0.0000 0.0000
# 4 0.0000 0.0000 0.0000 19.4922 0.0000 0.0000
# 5 0.0000 0.0000 0.0000 0.0000 24.1185 0.0000
# 6 0.0000 0.0000 0.0000 0.0000 0.0000 20.3367
#
#
#
# Elastic Compliance Matrix: (Units=1/GPa)
#
#
# Indices 1 2 3 4 5 6 
#
# 1 0.015602 -0.003223 -0.005209 0.000000 0.000000 0.000000
# 2 -0.003223 0.020538 -0.002874 0.000000 0.000000 0.000000
# 3 -0.005209 -0.002874 0.011386 0.000000 0.000000 0.000000
# 4 0.000000 0.000000 0.000000 0.051303 0.000000 0.000000
# 5 0.000000 0.000000 0.000000 0.000000 0.041462 0.000000
# 6 0.000000 0.000000 0.000000 0.000000 0.000000 0.049172
#
#
# Mechanical properties :
#
#
# Convention : Reuss Voigt Hill
#
# Bulk Modulus (GPa) = 40.14021 46.31531 43.22776
# Shear Modulus (GPa) = 22.68812 23.86843 23.27827
#
# Velocity S-wave (km/s) = 3.43640 3.52466 3.48081
# Velocity P-wave (km/s) = 6.05290 6.37736 6.21725
#
# Compressibility (1/GPa) = 0.02491267
#
# Stress axis : x y z
#
# Youngs Moduli (GPa) = 64.09312 48.69132 87.82821
#
# Poissons Ratio (x) = 0.15694 0.45750
# Poissons Ratio (y) = 0.20659 0.25244
# Poissons Ratio (z) = 0.33387 0.13995
#
# Static dielectric constant tensor:
#      x y z
#    x 1.671510 0.000000 0.000000 
#    y 0.000000 1.645190 0.000000 
#    z 0.000000 0.000000 1.682190 
# 
# From -- ./inp_files/68017.got.cif
#   From: 2010.05.17/outbox.cif.g08.bks.cpg/sg71_35_cif.got.tgz:68017.got - 2010.06.03 16:22:01.
