data_PCOD9519983
_publ_section_title
;
Structure prediction by ZEFSAII (Michael W. Deem and Ramdas Pophale) SiO2 
 PCOD9519983
Probable space group: I M M M
;
_chemical_formula_sum "Si O2"
_cell_formula_units_Z 96
_cell_length_a 22.284722
_cell_length_b 22.842581
_cell_length_c 9.856151
_cell_angle_alpha 90.000000
_cell_angle_beta 90.000000
_cell_angle_gamma 90.000000
_cell_volume 5017.180697
_symmetry_space_group_name_H-M "I M M M"
_symmetry_group_IT_number 71
_symmetry_cell_setting 'orthorhombic'
loop_
_space_group_symop_operation_xyz
x,y,z
-x,-y,z
x,-y,-z
-x,y,-z
-x,-y,-z
x,y,-z
-x,y,z
x,-y,z
1/2+x,1/2+y,1/2+z
1/2-x,1/2-y,1/2+z
1/2+x,1/2-y,1/2-z
1/2-x,1/2+y,1/2-z
1/2-x,1/2-y,1/2-z
1/2+x,1/2+y,1/2-z
1/2-x,1/2+y,1/2+z
1/2+x,1/2-y,1/2+z
loop_
_atom_site_type_symbol
_atom_site_label
_atom_site_fract_x
_atom_site_fract_y
_atom_site_fract_z
Si Si1 0.842447 0.755578 0.341001
Si Si2 0.427166 0.565870 0.000000
Si Si3 0.572119 0.353002 0.248064
Si Si4 0.426806 0.432134 0.500000
Si Si5 0.067748 0.429115 0.155188
Si Si6 0.680381 0.070150 0.159036
Si Si7 0.225089 0.663060 0.841410
O O1 0.852650 0.739302 0.500000
O O2 0.897833 0.790638 0.276628
O O3 0.821775 0.703091 0.243457
O O4 0.787206 0.801508 0.339713
O O5 0.409840 0.604702 0.873941
O O6 0.403840 0.500000 0.000000
O O7 0.500000 0.561970 0.000000
O O8 0.500000 0.346729 0.251357
O O9 0.591364 0.391735 0.375161
O O10 0.405914 0.500000 0.500000
O O11 0.500000 0.435661 0.500000
O O12 0.066172 0.500000 0.152159
O O13 0.116854 0.414451 0.268186
O O14 0.000000 0.408749 0.186282
O O15 0.082701 0.410608 0.000000
O O16 0.727789 0.103782 0.253769
O O17 0.687577 0.000000 0.165929
O O18 0.682565 0.087021 0.000000
O O19 0.209288 0.654043 0.000000
#
# Coordination Sequence:
#
# PCOD9519983 Si02
#       7
#    16   8  16   8  16  16  16
#     4  10  21  39  60  83 109 141 189 235 278 337
#     4   9  16  28  50  79 112 150 185 216 266 338
#     4  10  19  33  56  84 115 149 184 231 284 329
#     4   9  18  32  50  77 116 158 193 222 264 330
#     4   8  14  26  47  75 106 140 175 211 259 324
#     4  10  20  35  56  82 113 145 180 227 282 333
#     4  10  22  39  61  81 103 146 192 232 278 335
#
# _framework density 19.134252
#
# number of rings (size 3 to 8) (size 9 to 14) (size 15 to 20)
#    0.000    2.500    0.833    2.000    1.167    4.000 
#    0.000    4.167    0.000    3.000    0.000    0.000 
#    0.000    0.000    0.000    0.000    0.000    0.000 
#
# Total GULP energy -267423.932682 kJ/mol
# GULP energy per Si atom -5571.331931 kJ/mol
# Density = 1.909070 g / cm^3
# Si number density = 19.134252 Si / 1000 Ang^3
#
#
#
# Elastic Constant Matrix: (Units=GPa)
#
#
# Indices 1 2 3 4 5 6 
#
# 1 21.5598 23.9609 19.6544 0.0000 0.0000 0.0000
# 2 23.9609 62.5560 44.4663 0.0000 0.0000 0.0000
# 3 19.6544 44.4663 176.0214 0.0000 0.0000 0.0000
# 4 0.0000 0.0000 0.0000 33.6523 0.0000 0.0000
# 5 0.0000 0.0000 0.0000 0.0000 24.2358 0.0000
# 6 0.0000 0.0000 0.0000 0.0000 0.0000 23.1157
#
#
#
# Elastic Compliance Matrix: (Units=1/GPa)
#
#
# Indices 1 2 3 4 5 6 
#
# 1 0.081074 -0.030007 -0.001472 0.000000 0.000000 0.000000
# 2 -0.030007 0.030591 -0.004377 0.000000 0.000000 0.000000
# 3 -0.001472 -0.004377 0.006951 0.000000 0.000000 0.000000
# 4 0.000000 0.000000 0.000000 0.029716 0.000000 0.000000
# 5 0.000000 0.000000 0.000000 0.000000 0.041261 0.000000
# 6 0.000000 0.000000 0.000000 0.000000 0.000000 0.043261
#
#
# Mechanical properties :
#
#
# Convention : Reuss Voigt Hill
#
# Bulk Modulus (GPa) = 21.32082 48.47783 34.89932
# Shear Modulus (GPa) = 15.61516 27.67112 21.64314
#
# Velocity S-wave (km/s) = 2.85982 3.80696 3.36686
# Velocity P-wave (km/s) = 4.69805 6.68690 5.77868
#
# Compressibility (1/GPa) = 0.04690252
#
# Stress axis : x y z
#
# Youngs Moduli (GPa) = 12.33441 32.68948 143.85827
#
# Poissons Ratio (x) = 0.98093 0.21179
# Poissons Ratio (y) = 0.37012 0.62970
# Poissons Ratio (z) = 0.01816 0.14309
#
# Static dielectric constant tensor:
#      x y z
#    x 1.688070 0.000000 0.000000 
#    y 0.000000 1.691060 0.000000 
#    z 0.000000 0.000000 40.195560 
# 
# From -- ./inp_files/12954.got.cif
#   From: 2010.05.17/outbox.cif.g08.bks.cpg/sg71_7_cif.got.tgz:12954.got - 2010.06.03 16:22:01.
