data_PCOD9519855
_publ_section_title
;
Structure prediction by ZEFSAII (Michael W. Deem and Ramdas Pophale) SiO2 
 PCOD9519855
Probable space group: I M M M
;
_chemical_formula_sum "Si O2"
_cell_formula_units_Z 104
_cell_length_a 27.696424
_cell_length_b 11.809475
_cell_length_c 17.468442
_cell_angle_alpha 90.000000
_cell_angle_beta 90.000000
_cell_angle_gamma 90.000000
_cell_volume 5713.581972
_symmetry_space_group_name_H-M "I M M M"
_symmetry_group_IT_number 71
_symmetry_cell_setting 'orthorhombic'
loop_
_space_group_symop_operation_xyz
x,y,z
-x,-y,z
x,-y,-z
-x,y,-z
-x,-y,-z
x,y,-z
-x,y,z
x,-y,z
1/2+x,1/2+y,1/2+z
1/2-x,1/2-y,1/2+z
1/2+x,1/2-y,1/2-z
1/2-x,1/2+y,1/2-z
1/2-x,1/2-y,1/2-z
1/2+x,1/2+y,1/2-z
1/2-x,1/2+y,1/2+z
1/2+x,1/2-y,1/2+z
loop_
_atom_site_type_symbol
_atom_site_label
_atom_site_fract_x
_atom_site_fract_y
_atom_site_fract_z
Si Si1 0.684276 0.631752 0.587554
Si Si2 0.769633 0.236960 0.662900
Si Si3 0.643216 0.135178 0.911729
Si Si4 0.000000 0.863629 0.084587
Si Si5 0.196750 0.000000 0.593593
Si Si6 0.555748 0.261735 0.842580
Si Si7 0.590522 0.634915 0.310394
Si Si8 0.918253 0.000000 0.409750
O O1 0.667759 0.649274 0.500000
O O2 0.699395 0.500000 0.593891
O O3 0.728584 0.710356 0.608797
O O4 0.641116 0.649796 0.647244
O O5 0.750000 0.250000 0.750000
O O6 0.818358 0.307031 0.644945
O O7 0.781006 0.110069 0.634716
O O8 0.589843 0.178780 0.890614
O O9 0.646204 0.000000 0.906570
O O10 0.654273 0.169315 0.000000
O O11 0.952093 0.836411 0.130828
O O12 0.000000 0.000000 0.078597
O O13 0.000000 0.814541 0.000000
O O14 0.139044 0.000000 0.609342
O O15 0.203291 0.000000 0.500000
O O16 0.500000 0.225879 0.834752
O O17 0.581488 0.285591 0.761557
O O18 0.557647 0.386070 0.879961
O O19 0.586101 0.500000 0.289693
O O20 0.921501 0.000000 0.500000
#
# Coordination Sequence:
#
# PCOD9519855 Si02
#       8
#    16  16  16   8   8  16  16   8
#     4  10  21  36  58  86 120 161 206 252 302 365
#     4  12  25  40  65  93 126 160 204 257 310 368
#     4  11  25  45  66  86 119 163 207 253 309 374
#     4   9  16  28  50  78 117 160 195 233 292 362
#     4  11  24  43  66  91 126 166 205 253 315 378
#     4  12  23  37  60  89 122 157 201 255 310 365
#     4  10  19  33  53  84 123 157 197 245 302 358
#     4  11  23  38  59  86 119 159 202 249 307 374
#
# _framework density 18.202241999999998
#
# number of rings (size 3 to 8) (size 9 to 14) (size 15 to 20)
#    0.000    1.154    3.077    3.923    2.154    4.923 
#    0.000    0.769    0.000    0.000    0.000    0.000 
#    0.000    0.615    0.000    0.000    0.000    0.000 
#
# Total GULP energy -290468.101344 kJ/mol
# GULP energy per Si atom -5585.925026 kJ/mol
# Density = 1.816081 g / cm^3
# Si number density = 18.202242 Si / 1000 Ang^3
#
#
#
# Elastic Constant Matrix: (Units=GPa)
#
#
# Indices 1 2 3 4 5 6 
#
# 1 97.7572 39.7751 33.4509 0.0000 0.0000 0.0000
# 2 39.7751 70.5366 35.7022 0.0000 0.0000 0.0000
# 3 33.4509 35.7022 100.9003 0.0000 0.0000 0.0000
# 4 0.0000 0.0000 0.0000 24.0393 0.0000 0.0000
# 5 0.0000 0.0000 0.0000 0.0000 70.9555 0.0000
# 6 0.0000 0.0000 0.0000 0.0000 0.0000 20.7150
#
#
#
# Elastic Compliance Matrix: (Units=1/GPa)
#
#
# Indices 1 2 3 4 5 6 
#
# 1 0.013664 -0.006593 -0.002197 0.000000 0.000000 0.000000
# 2 -0.006593 0.020451 -0.005051 0.000000 0.000000 0.000000
# 3 -0.002197 -0.005051 0.012426 0.000000 0.000000 0.000000
# 4 0.000000 0.000000 0.000000 0.041599 0.000000 0.000000
# 5 0.000000 0.000000 0.000000 0.000000 0.014093 0.000000
# 6 0.000000 0.000000 0.000000 0.000000 0.000000 0.048274
#
#
# Mechanical properties :
#
#
# Convention : Reuss Voigt Hill
#
# Bulk Modulus (GPa) = 53.02237 54.11669 53.56953
# Shear Modulus (GPa) = 27.10394 33.82634 30.46514
#
# Velocity S-wave (km/s) = 3.86300 4.31555 4.09553
# Velocity P-wave (km/s) = 7.00641 7.39103 7.20129
#
# Compressibility (1/GPa) = 0.01885996
#
# Stress axis : x y z
#
# Youngs Moduli (GPa) = 73.18669 48.89716 80.47469
#
# Poissons Ratio (x) = 0.32237 0.17681
# Poissons Ratio (y) = 0.48251 0.40645
# Poissons Ratio (z) = 0.16080 0.24696
#
# Static dielectric constant tensor:
#      x y z
#    x 1.615700 0.000000 0.000000 
#    y 0.000000 1.568940 0.000000 
#    z 0.000000 0.000000 1.653190 
# 
# From -- ./inp_files/48904.got.cif
#   From: 2010.05.17/outbox.cif.g08.bks.cpg/sg71_25_cif.got.tgz:48904.got - 2010.06.03 16:22:01.
