data_PCOD9519700
_publ_section_title
;
Structure prediction by ZEFSAII (Michael W. Deem and Ramdas Pophale) SiO2 
 PCOD9519700
Probable space group: I M M M
;
_chemical_formula_sum "Si O2"
_cell_formula_units_Z 104
_cell_length_a 33.106444
_cell_length_b 24.602302
_cell_length_c 7.603627
_cell_angle_alpha 90.000000
_cell_angle_beta 90.000000
_cell_angle_gamma 90.000000
_cell_volume 6193.114146
_symmetry_space_group_name_H-M "I M M M"
_symmetry_group_IT_number 71
_symmetry_cell_setting 'orthorhombic'
loop_
_space_group_symop_operation_xyz
x,y,z
-x,-y,z
x,-y,-z
-x,y,-z
-x,-y,-z
x,y,-z
-x,y,z
x,-y,z
1/2+x,1/2+y,1/2+z
1/2-x,1/2-y,1/2+z
1/2+x,1/2-y,1/2-z
1/2-x,1/2+y,1/2-z
1/2-x,1/2-y,1/2-z
1/2+x,1/2+y,1/2-z
1/2-x,1/2+y,1/2+z
1/2+x,1/2-y,1/2+z
loop_
_atom_site_type_symbol
_atom_site_label
_atom_site_fract_x
_atom_site_fract_y
_atom_site_fract_z
Si Si1 0.880324 0.935145 0.708226
Si Si2 0.953657 0.738782 0.787612
Si Si3 0.839497 0.564798 0.208997
Si Si4 0.683608 0.434090 0.500000
Si Si5 0.500000 0.938123 0.210149
Si Si6 0.724615 0.065872 0.000000
Si Si7 0.918879 0.628040 0.208901
Si Si8 0.545594 0.362237 0.208775
O O1 0.873837 0.924212 0.500000
O O2 0.842297 0.918922 0.827928
O O3 0.920066 0.903148 0.772090
O O4 0.886471 0.000000 0.727133
O O5 0.926866 0.688768 0.721357
O O6 0.941784 0.799672 0.736866
O O7 0.000000 0.730509 0.727273
O O8 0.954064 0.736563 0.000000
O O9 0.846439 0.500000 0.231212
O O10 0.801299 0.580798 0.327699
O O11 0.879326 0.596640 0.272890
O O12 0.832942 0.574038 0.000000
O O13 0.685521 0.500000 0.500000
O O14 0.729497 0.413580 0.500000
O O15 0.459662 0.906432 0.264648
O O16 0.500000 0.000000 0.278406
O O17 0.500000 0.940210 0.000000
O O18 0.726678 0.000000 0.000000
O O19 0.913073 0.632811 0.000000
O O20 0.500000 0.368858 0.282056
O O21 0.542803 0.371432 0.000000
#
# Coordination Sequence:
#
# PCOD9519700 Si02
#       8
#    16  16  16   8   8   8  16  16
#     4   9  18  32  50  75 106 133 163 200 234 286
#     4   9  17  30  46  65  91 125 165 208 240 275
#     4   9  18  31  48  70  96 125 159 201 250 300
#     4   9  18  32  51  76 102 130 159 194 246 299
#     4  11  23  31  41  65  93 129 168 203 250 299
#     4   9  18  32  50  72 100 126 154 198 249 306
#     4  10  19  33  48  64  91 126 166 207 248 294
#     4   9  18  31  47  70 101 134 166 198 237 278
#
# _framework density 16.792843000000001
#
# number of rings (size 3 to 8) (size 9 to 14) (size 15 to 20)
#    0.000    2.692    0.769    0.692    2.154    2.769 
#    0.000    4.615    0.000    1.385    0.000    1.077 
#    0.000    0.000    0.000    0.000    0.000    0.000 
#
# Total GULP energy -289774.093270 kJ/mol
# GULP energy per Si atom -5572.578717 kJ/mol
# Density = 1.675462 g / cm^3
# Si number density = 16.792843 Si / 1000 Ang^3
#
#
#
# Elastic Constant Matrix: (Units=GPa)
#
#
# Indices 1 2 3 4 5 6 
#
# 1 153.9384 66.5759 46.5153 0.0000 0.0000 0.0000
# 2 66.5759 57.4380 25.2668 0.0000 0.0000 0.0000
# 3 46.5153 25.2668 59.3703 0.0000 0.0000 0.0000
# 4 0.0000 0.0000 0.0000 15.0496 0.0000 0.0000
# 5 0.0000 0.0000 0.0000 0.0000 31.8737 0.0000
# 6 0.0000 0.0000 0.0000 0.0000 0.0000 7.4319
#
#
#
# Elastic Compliance Matrix: (Units=1/GPa)
#
#
# Indices 1 2 3 4 5 6 
#
# 1 0.014160 -0.014189 -0.005056 0.000000 0.000000 0.000000
# 2 -0.014189 0.035638 -0.004050 0.000000 0.000000 0.000000
# 3 -0.005056 -0.004050 0.022528 0.000000 0.000000 0.000000
# 4 0.000000 0.000000 0.000000 0.066447 0.000000 0.000000
# 5 0.000000 0.000000 0.000000 0.000000 0.031374 0.000000
# 6 0.000000 0.000000 0.000000 0.000000 0.000000 0.134555
#
#
# Mechanical properties :
#
#
# Convention : Reuss Voigt Hill
#
# Bulk Modulus (GPa) = 38.85469 60.82917 49.84193
# Shear Modulus (GPa) = 13.89385 19.69694 16.79540
#
# Velocity S-wave (km/s) = 2.87952 3.42853 3.16595
# Velocity P-wave (km/s) = 5.85179 7.20937 6.56576
#
# Compressibility (1/GPa) = 0.02573692
#
# Stress axis : x y z
#
# Youngs Moduli (GPa) = 70.61948 28.05971 44.38904
#
# Poissons Ratio (x) = 0.39815 0.22442
# Poissons Ratio (y) = 1.00204 0.17977
# Poissons Ratio (z) = 0.35703 0.11364
#
# Static dielectric constant tensor:
#      x y z
#    x 1.626980 0.000000 0.000000 
#    y 0.000000 1.561820 0.000000 
#    z 0.000000 0.000000 1.604710 
# 
# From -- ./inp_files/13383.got.cif
#   From: 2010.05.17/outbox.cif.g08.bks.cpg/sg71_7_cif.got.tgz:13383.got - 2010.06.03 16:22:01.
