data_PCOD9519938
_publ_section_title
;
Structure prediction by ZEFSAII (Michael W. Deem and Ramdas Pophale) SiO2 
 PCOD9519938
Probable space group: I M M M
;
_chemical_formula_sum "Si O2"
_cell_formula_units_Z 58
_cell_length_a 10.822125
_cell_length_b 7.544898
_cell_length_c 34.176616
_cell_angle_alpha 90.000000
_cell_angle_beta 90.000000
_cell_angle_gamma 90.000000
_cell_volume 2790.583215
_symmetry_space_group_name_H-M "I M M M"
_symmetry_group_IT_number 71
_symmetry_cell_setting 'orthorhombic'
loop_
_space_group_symop_operation_xyz
x,y,z
-x,-y,z
x,-y,-z
-x,y,-z
-x,-y,-z
x,y,-z
-x,y,z
x,-y,z
1/2+x,1/2+y,1/2+z
1/2-x,1/2-y,1/2+z
1/2+x,1/2-y,1/2-z
1/2-x,1/2+y,1/2-z
1/2-x,1/2-y,1/2-z
1/2+x,1/2+y,1/2-z
1/2-x,1/2+y,1/2+z
1/2+x,1/2-y,1/2+z
loop_
_atom_site_type_symbol
_atom_site_label
_atom_site_fract_x
_atom_site_fract_y
_atom_site_fract_z
Si Si1 0.000000 0.000000 0.500000
Si Si2 0.242710 0.791197 0.165703
Si Si3 0.000000 0.214269 0.790019
Si Si4 0.142847 0.714586 0.918158
Si Si5 0.500000 0.211422 0.801874
Si Si6 0.756614 0.302756 0.000000
O O1 0.888733 0.151865 0.500000
O O2 0.218814 0.772807 0.119696
O O3 0.373592 0.715617 0.179591
O O4 0.123479 0.717661 0.188592
O O5 0.245623 0.000000 0.175175
O O6 0.000000 0.259737 0.744500
O O7 0.000000 0.000000 0.793608
O O8 0.146859 0.500000 0.917827
O O9 0.199448 0.779168 0.959237
O O10 0.000000 0.770100 0.914319
O O11 0.500000 0.000000 0.809364
O O12 0.818982 0.500000 0.000000
#
# Coordination Sequence:
#
# PCOD9519938 Si02
#       6
#     2  16   8  16   8   8
#     4   8  16  32  50  76 110 148 176 206 286 316
#     4  10  21  37  54  78 112 146 177 223 279 328
#     4  10  20  36  57  76 105 143 183 225 273 329
#     4  10  19  33  55  81 107 139 182 228 267 315
#     4  10  22  37  55  79 106 142 182 226 277 328
#     4   8  17  32  51  77 110 139 175 217 267 312
#
# _framework density 20.784185999999998
#
# number of rings (size 3 to 8) (size 9 to 14) (size 15 to 20)
#    0.414    1.931    1.379    1.241    0.000    4.966 
#    0.000    0.690    0.000    1.655    0.000    3.862 
#    0.000    0.000    0.000    0.000    0.000    0.000 
#
# Total GULP energy -161525.766911 kJ/mol
# GULP energy per Si atom -5569.854031 kJ/mol
# Density = 2.073688 g / cm^3
# Si number density = 20.784186 Si / 1000 Ang^3
#
#
#
# Elastic Constant Matrix: (Units=GPa)
#
#
# Indices 1 2 3 4 5 6 
#
# 1 200.9078 15.7634 122.2204 0.0000 0.0000 0.0000
# 2 15.7634 45.1569 -19.8613 0.0000 0.0000 0.0000
# 3 122.2204 -19.8613 175.3182 0.0000 0.0000 0.0000
# 4 0.0000 0.0000 0.0000 22.2075 0.0000 0.0000
# 5 0.0000 0.0000 0.0000 0.0000 126.0870 0.0000
# 6 0.0000 0.0000 0.0000 0.0000 0.0000 -5.4283
#
#
#
# Elastic Compliance Matrix: (Units=1/GPa)
#
#
# Indices 1 2 3 4 5 6 
#
# 1 0.010496 -0.007243 -0.008138 0.000000 0.000000 0.000000
# 2 -0.007243 0.028305 0.008256 0.000000 0.000000 0.000000
# 3 -0.008138 0.008256 0.012313 0.000000 0.000000 0.000000
# 4 0.000000 0.000000 0.000000 0.045030 0.000000 0.000000
# 5 0.000000 0.000000 0.000000 0.000000 0.007931 0.000000
# 6 0.000000 0.000000 0.000000 0.000000 0.000000 -0.184219
#
#
# Mechanical properties :
#
#
# Convention : Reuss Voigt Hill
#
# Bulk Modulus (GPa) = 27.12719 73.06977 50.09848
# Shear Modulus (GPa) = -93.27271 48.79060 -22.24106
#
# Velocity S-wave (km/s) = -6.70628 4.85034 -3.27478
# Velocity P-wave (km/s) = 6.84729 8.16091 3.13967
#
# Compressibility (1/GPa) = 0.03686339
#
# Stress axis : x y z
#
# Youngs Moduli (GPa) = 95.27064 35.32963 81.21809
#
# Poissons Ratio (x) = 0.25591 0.66095
# Poissons Ratio (y) = 0.69009 -0.67055
# Poissons Ratio (z) = 0.77531 -0.29169
#
# Static dielectric constant tensor:
#      x y z
#    x 1.738920 0.000000 0.000000 
#    y 0.000000 1.808010 0.000000 
#    z 0.000000 0.000000 1.713090 
# 
# From -- ./inp_files/16126.got.cif
#   From: 2010.05.17/outbox.cif.g08.bks.cpg/sg71_9_cif.got.tgz:16126.got - 2010.06.03 16:22:01.
