data_PCOD9519475
_publ_section_title
;
Structure prediction by ZEFSAII (Michael W. Deem and Ramdas Pophale) SiO2 
 PCOD9519475
Probable space group: I M M M
;
_chemical_formula_sum "Si O2"
_cell_formula_units_Z 74
_cell_length_a 19.892449
_cell_length_b 19.405582
_cell_length_c 9.177445
_cell_angle_alpha 90.000000
_cell_angle_beta 90.000000
_cell_angle_gamma 90.000000
_cell_volume 3542.719079
_symmetry_space_group_name_H-M "I M M M"
_symmetry_group_IT_number 71
_symmetry_cell_setting 'orthorhombic'
loop_
_space_group_symop_operation_xyz
x,y,z
-x,-y,z
x,-y,-z
-x,y,-z
-x,-y,-z
x,y,-z
-x,y,z
x,-y,z
1/2+x,1/2+y,1/2+z
1/2-x,1/2-y,1/2+z
1/2+x,1/2-y,1/2-z
1/2-x,1/2+y,1/2-z
1/2-x,1/2-y,1/2-z
1/2+x,1/2+y,1/2-z
1/2-x,1/2+y,1/2+z
1/2+x,1/2-y,1/2+z
loop_
_atom_site_type_symbol
_atom_site_label
_atom_site_fract_x
_atom_site_fract_y
_atom_site_fract_z
Si Si1 0.500000 0.000000 0.500000
Si Si2 0.365906 0.610132 0.667935
Si Si3 0.861908 0.500000 0.161826
Si Si4 0.500000 0.391913 0.833918
Si Si5 0.500000 0.776254 0.831105
Si Si6 0.283328 0.884814 0.175384
Si Si7 0.363399 0.223114 0.330798
O O1 0.559774 0.000000 0.624799
O O2 0.374453 0.589411 0.500000
O O3 0.430957 0.586845 0.756191
O O4 0.291374 0.589843 0.717930
O O5 0.362793 0.693911 0.671881
O O6 0.837403 0.564947 0.253597
O O7 0.828783 0.500000 0.000000
O O8 0.500000 0.307715 0.830731
O O9 0.500000 0.414168 0.000000
O O10 0.433314 0.798432 0.745517
O O11 0.500000 0.798214 0.000000
O O12 0.303071 0.810947 0.241347
O O13 0.285843 0.883072 0.000000
O O14 0.361595 0.201212 0.500000
#
# Coordination Sequence:
#
# PCOD9519475 Si02
#       7
#     2  16   8   8   8  16  16
#     4   8  24  48  70  80 108 142 198 248 296 354
#     4   9  19  34  54  81 119 158 191 230 286 354
#     4  10  23  45  65  82 106 145 192 244 294 349
#     4   9  17  29  50  79 114 151 192 226 271 330
#     4   9  17  30  46  71 108 150 189 233 274 335
#     4  11  22  37  58  85 113 146 192 246 297 349
#     4  10  19  32  51  80 115 154 191 232 288 351
#
# _framework density 20.887910000000002
#
# number of rings (size 3 to 8) (size 9 to 14) (size 15 to 20)
#    0.324    1.946    0.000    2.919    0.000    6.054 
#    0.000    2.162    0.000    0.649    0.000    4.541 
#    0.000    0.000    0.000    0.000    0.000    0.000 
#
# Total GULP energy -206316.018194 kJ/mol
# GULP energy per Si atom -5576.108600 kJ/mol
# Density = 2.084037 g / cm^3
# Si number density = 20.887910 Si / 1000 Ang^3
#
#
#
# Elastic Constant Matrix: (Units=GPa)
#
#
# Indices 1 2 3 4 5 6 
#
# 1 196.7394 23.8159 85.5420 0.0000 0.0000 0.0000
# 2 23.8159 51.7891 20.0826 0.0000 0.0000 0.0000
# 3 85.5420 20.0826 121.4477 0.0000 0.0000 0.0000
# 4 0.0000 0.0000 0.0000 3.5939 0.0000 0.0000
# 5 0.0000 0.0000 0.0000 0.0000 37.2732 0.0000
# 6 0.0000 0.0000 0.0000 0.0000 0.0000 -7.2701
#
#
#
# Elastic Compliance Matrix: (Units=1/GPa)
#
#
# Indices 1 2 3 4 5 6 
#
# 1 0.007432 -0.001483 -0.004989 0.000000 0.000000 0.000000
# 2 -0.001483 0.020928 -0.002416 0.000000 0.000000 0.000000
# 3 -0.004989 -0.002416 0.012148 0.000000 0.000000 0.000000
# 4 0.000000 0.000000 0.000000 0.278246 0.000000 0.000000
# 5 0.000000 0.000000 0.000000 0.000000 0.026829 0.000000
# 6 0.000000 0.000000 0.000000 0.000000 0.000000 -0.137550
#
#
# Mechanical properties :
#
#
# Convention : Reuss Voigt Hill
#
# Bulk Modulus (GPa) = 43.99339 69.87302 56.93320
# Shear Modulus (GPa) = 21.42373 22.75513 22.08943
#
# Velocity S-wave (km/s) = 3.20606 3.30418 3.25548
# Velocity P-wave (km/s) = 5.90021 6.93403 6.43790
#
# Compressibility (1/GPa) = 0.02273069
#
# Stress axis : x y z
#
# Youngs Moduli (GPa) = 134.55808 47.78300 82.31938
#
# Poissons Ratio (x) = 0.07085 0.41072
# Poissons Ratio (y) = 0.19953 0.19890
# Poissons Ratio (z) = 0.67136 0.11545
#
# Static dielectric constant tensor:
#      x y z
#    x 1.735770 0.000000 0.000000 
#    y 0.000000 1.881340 0.000000 
#    z 0.000000 0.000000 1.694310 
# 
# From -- ./inp_files/10031.got.cif
#   From: 2010.05.17/outbox.cif.g08.bks.cpg/sg71_6_cif.got.tgz:10031.got - 2010.06.03 16:22:01.
