data_PCOD9519489
_publ_section_title
;
Structure prediction by ZEFSAII (Michael W. Deem and Ramdas Pophale) SiO2 
 PCOD9519489
Probable space group: I M M M
;
_chemical_formula_sum "Si O2"
_cell_formula_units_Z 80
_cell_length_a 27.127649
_cell_length_b 8.457550
_cell_length_c 19.599711
_cell_angle_alpha 90.000000
_cell_angle_beta 90.000000
_cell_angle_gamma 90.000000
_cell_volume 4496.829271
_symmetry_space_group_name_H-M "I M M M"
_symmetry_group_IT_number 71
_symmetry_cell_setting 'orthorhombic'
loop_
_space_group_symop_operation_xyz
x,y,z
-x,-y,z
x,-y,-z
-x,y,-z
-x,-y,-z
x,y,-z
-x,y,z
x,-y,z
1/2+x,1/2+y,1/2+z
1/2-x,1/2-y,1/2+z
1/2+x,1/2-y,1/2-z
1/2-x,1/2+y,1/2-z
1/2-x,1/2-y,1/2-z
1/2+x,1/2+y,1/2-z
1/2-x,1/2+y,1/2+z
1/2+x,1/2-y,1/2+z
loop_
_atom_site_type_symbol
_atom_site_label
_atom_site_fract_x
_atom_site_fract_y
_atom_site_fract_z
Si Si1 0.891623 0.311431 0.327108
Si Si2 0.801908 0.190749 0.078581
Si Si3 0.500000 0.313436 0.335512
Si Si4 0.107307 0.192336 0.828254
Si Si5 0.000000 0.690239 0.682520
Si Si6 0.195324 0.188703 0.421652
O O1 0.886820 0.500000 0.326792
O O2 0.887286 0.250771 0.249347
O O3 0.947574 0.272308 0.351557
O O4 0.849458 0.241434 0.374457
O O5 0.846890 0.244733 0.125788
O O6 0.748254 0.247009 0.102591
O O7 0.802170 0.000000 0.078721
O O8 0.808121 0.244057 0.000000
O O9 0.500000 0.500000 0.350257
O O10 0.446111 0.252060 0.357162
O O11 0.500000 0.282284 0.254196
O O12 0.106612 0.000000 0.827081
O O13 0.000000 0.500000 0.696487
O O14 0.188404 0.245124 0.500000
O O15 0.197671 0.000000 0.422257
#
# Coordination Sequence:
#
# PCOD9519489 Si02
#       6
#    16  16   8  16   8  16
#     4  10  19  32  52  75  98 125 158 196 236 281
#     4   9  18  33  51  70  95 129 165 199 238 283
#     4   8  14  26  45  69  97 128 157 189 235 282
#     4   9  17  30  49  73 100 128 160 198 237 280
#     4   8  16  30  47  70  97 124 155 190 231 278
#     4  10  21  36  52  70  94 125 160 198 241 287
#
# _framework density 17.790312
#
# number of rings (size 3 to 8) (size 9 to 14) (size 15 to 20)
#    0.000    2.800    0.000    1.200    0.000    3.600 
#    0.000    1.000    0.000    6.000    0.000    0.000 
#    0.000   11.200    0.000    0.000    0.000    0.000 
#
# Total GULP energy -222782.629334 kJ/mol
# GULP energy per Si atom -5569.565733 kJ/mol
# Density = 1.774982 g / cm^3
# Si number density = 17.790312 Si / 1000 Ang^3
#
#
#
# Elastic Constant Matrix: (Units=GPa)
#
#
# Indices 1 2 3 4 5 6 
#
# 1 212.4574 25.4257 79.6286 0.0000 0.0000 0.0000
# 2 25.4257 13.7142 9.9642 0.0000 0.0000 0.0000
# 3 79.6286 9.9642 50.7747 0.0000 0.0000 0.0000
# 4 0.0000 0.0000 0.0000 14.4606 0.0000 0.0000
# 5 0.0000 0.0000 0.0000 0.0000 -35.9916 0.0000
# 6 0.0000 0.0000 0.0000 0.0000 0.0000 17.0709
#
#
#
# Elastic Compliance Matrix: (Units=1/GPa)
#
#
# Indices 1 2 3 4 5 6 
#
# 1 0.012593 -0.010494 -0.017689 0.000000 0.000000 0.000000
# 2 -0.010494 0.093787 -0.001948 0.000000 0.000000 0.000000
# 3 -0.017689 -0.001948 0.047819 0.000000 0.000000 0.000000
# 4 0.000000 0.000000 0.000000 0.069153 0.000000 0.000000
# 5 0.000000 0.000000 0.000000 0.000000 -0.027784 0.000000
# 6 0.000000 0.000000 0.000000 0.000000 0.000000 0.058579
#
#
# Mechanical properties :
#
#
# Convention : Reuss Voigt Hill
#
# Bulk Modulus (GPa) = 10.64546 56.33147 33.48847
# Shear Modulus (GPa) = 14.46252 9.90317 12.18285
#
# Velocity S-wave (km/s) = 2.85431 2.36193 2.61971
# Velocity P-wave (km/s) = 4.10605 6.25868 5.29295
#
# Compressibility (1/GPa) = 0.09393675
#
# Stress axis : x y z
#
# Youngs Moduli (GPa) = 79.41187 10.66242 20.91232
#
# Poissons Ratio (x) = 0.11189 0.36992
# Poissons Ratio (y) = 0.83334 0.04073
# Poissons Ratio (z) = 1.40474 0.02077
#
# Static dielectric constant tensor:
#      x y z
#    x 1.642960 0.000000 0.000000 
#    y 0.000000 1.605960 0.000000 
#    z 0.000000 0.000000 1.577920 
# 
# From -- ./inp_files/10226.got.cif
#   From: 2010.05.17/outbox.cif.g08.bks.cpg/sg71_6_cif.got.tgz:10226.got - 2010.06.03 16:22:01.
