data_PCOD9519239
_publ_section_title
;
Structure prediction by ZEFSAII (Michael W. Deem and Ramdas Pophale) SiO2 
 PCOD9519239
Probable space group: I M M M
;
_chemical_formula_sum "Si O2"
_cell_formula_units_Z 96
_cell_length_a 21.466926
_cell_length_b 13.441937
_cell_length_c 18.045390
_cell_angle_alpha 90.000000
_cell_angle_beta 90.000000
_cell_angle_gamma 90.000000
_cell_volume 5207.124809
_symmetry_space_group_name_H-M "I M M M"
_symmetry_group_IT_number 71
_symmetry_cell_setting 'orthorhombic'
loop_
_space_group_symop_operation_xyz
x,y,z
-x,-y,z
x,-y,-z
-x,y,-z
-x,-y,-z
x,y,-z
-x,y,z
x,-y,z
1/2+x,1/2+y,1/2+z
1/2-x,1/2-y,1/2+z
1/2+x,1/2-y,1/2-z
1/2-x,1/2+y,1/2-z
1/2-x,1/2-y,1/2-z
1/2+x,1/2+y,1/2-z
1/2-x,1/2+y,1/2+z
1/2+x,1/2-y,1/2+z
loop_
_atom_site_type_symbol
_atom_site_label
_atom_site_fract_x
_atom_site_fract_y
_atom_site_fract_z
Si Si1 0.427225 0.806132 0.339816
Si Si2 0.302579 0.116425 0.709724
Si Si3 0.255163 0.691374 0.638365
Si Si4 0.500000 0.121535 0.915013
Si Si5 0.071081 0.618215 0.000000
Si Si6 0.368617 0.112012 0.087673
Si Si7 0.886101 0.115902 0.086200
O O1 0.500000 0.832485 0.326072
O O2 0.375250 0.848748 0.283846
O O3 0.404753 0.848910 0.420164
O O4 0.420166 0.688436 0.355658
O O5 0.274630 0.194841 0.651181
O O6 0.262154 0.139740 0.783133
O O7 0.300078 0.000000 0.691762
O O8 0.190469 0.680526 0.596682
O O9 0.312501 0.636037 0.599187
O O10 0.565844 0.150144 0.880189
O O11 0.500000 0.000000 0.916290
O O12 0.500000 0.158210 0.000000
O O13 0.071106 0.500000 0.000000
O O14 0.000000 0.656225 0.000000
O O15 0.355167 0.000000 0.117032
O O16 0.379237 0.101238 0.000000
O O17 0.899832 0.000000 0.097570
O O18 0.901724 0.140327 0.000000
#
# Coordination Sequence:
#
# PCOD9519239 Si02
#       7
#    16  16  16   8   8  16  16
#     4  10  20  34  50  72 100 131 168 207 251 301
#     4  10  21  36  51  69  97 131 166 205 247 291
#     4  10  20  33  51  73  97 130 167 202 243 296
#     4   7  12  22  38  66  99 125 145 174 227 286
#     4   9  16  28  47  65  85 121 162 199 243 290
#     4   9  15  26  47  73 101 128 155 193 241 291
#     4  10  19  31  51  78 105 133 168 210 253 300
#
# _framework density 18.436278000000001
#
# number of rings (size 3 to 8) (size 9 to 14) (size 15 to 20)
#    0.000    2.500    0.833    3.500    0.000    2.667 
#    1.500    0.833    0.000    0.000    0.000    0.583 
#    0.000    2.000    0.000    0.000    0.000    0.000 
#
# Total GULP energy -267242.031288 kJ/mol
# GULP energy per Si atom -5567.542318 kJ/mol
# Density = 1.839432 g / cm^3
# Si number density = 18.436278 Si / 1000 Ang^3
#
#
#
# Elastic Constant Matrix: (Units=GPa)
#
#
# Indices 1 2 3 4 5 6 
#
# 1 110.2512 27.6990 1.0156 0.0000 0.0000 0.0000
# 2 27.6990 104.0680 6.9757 0.0000 0.0000 0.0000
# 3 1.0156 6.9757 17.3460 0.0000 0.0000 0.0000
# 4 0.0000 0.0000 0.0000 14.5581 0.0000 0.0000
# 5 0.0000 0.0000 0.0000 0.0000 57.5826 0.0000
# 6 0.0000 0.0000 0.0000 0.0000 0.0000 18.5012
#
#
#
# Elastic Compliance Matrix: (Units=1/GPa)
#
#
# Indices 1 2 3 4 5 6 
#
# 1 0.009724 -0.002621 0.000485 0.000000 0.000000 0.000000
# 2 -0.002621 0.010582 -0.004102 0.000000 0.000000 0.000000
# 3 0.000485 -0.004102 0.059272 0.000000 0.000000 0.000000
# 4 0.000000 0.000000 0.000000 0.068690 0.000000 0.000000
# 5 0.000000 0.000000 0.000000 0.000000 0.017366 0.000000
# 6 0.000000 0.000000 0.000000 0.000000 0.000000 0.054051
#
#
# Mechanical properties :
#
#
# Convention : Reuss Voigt Hill
#
# Bulk Modulus (GPa) = 14.90290 33.67176 24.28733
# Shear Modulus (GPa) = 19.64425 31.19337 25.41881
#
# Velocity S-wave (km/s) = 3.26777 4.11780 3.71717
# Velocity P-wave (km/s) = 4.72639 6.39624 5.62364
#
# Compressibility (1/GPa) = 0.06710104
#
# Stress axis : x y z
#
# Youngs Moduli (GPa) = 102.83684 94.50374 16.87151
#
# Poissons Ratio (x) = 0.24766 -0.00818
# Poissons Ratio (y) = 0.26950 0.06921
# Poissons Ratio (z) = -0.04983 0.38765
#
# Static dielectric constant tensor:
#      x y z
#    x 1.687900 0.000000 0.000000 
#    y 0.000000 1.636120 0.000000 
#    z 0.000000 0.000000 1.738320 
# 
# From -- ./inp_files/54927.got.cif
#   From: 2010.05.17/outbox.cif.g08.bks.cpg/sg71_28_cif.got.tgz:54927.got - 2010.06.03 16:22:01.
