data_PCOD9519386
_publ_section_title
;
Structure prediction by ZEFSAII (Michael W. Deem and Ramdas Pophale) SiO2 
 PCOD9519386
Probable space group: I M M M
;
_chemical_formula_sum "Si O2"
_cell_formula_units_Z 120
_cell_length_a 8.816427
_cell_length_b 29.225912
_cell_length_c 27.737746
_cell_angle_alpha 90.000000
_cell_angle_beta 90.000000
_cell_angle_gamma 90.000000
_cell_volume 7147.132855
_symmetry_space_group_name_H-M "I M M M"
_symmetry_group_IT_number 71
_symmetry_cell_setting 'orthorhombic'
loop_
_space_group_symop_operation_xyz
x,y,z
-x,-y,z
x,-y,-z
-x,y,-z
-x,-y,-z
x,y,-z
-x,y,z
x,-y,z
1/2+x,1/2+y,1/2+z
1/2-x,1/2-y,1/2+z
1/2+x,1/2-y,1/2-z
1/2-x,1/2+y,1/2-z
1/2-x,1/2-y,1/2-z
1/2+x,1/2+y,1/2-z
1/2-x,1/2+y,1/2+z
1/2+x,1/2-y,1/2+z
loop_
_atom_site_type_symbol
_atom_site_label
_atom_site_fract_x
_atom_site_fract_y
_atom_site_fract_z
Si Si1 0.171797 0.500000 0.943057
Si Si2 0.179116 0.915321 0.607254
Si Si3 0.818871 0.864710 0.234836
Si Si4 0.181963 0.303512 0.341798
Si Si5 0.172223 0.677051 0.083645
Si Si6 0.318026 0.054069 0.291426
Si Si7 0.674108 0.789463 0.305859
Si Si8 0.182364 0.729652 0.447171
O O1 0.262333 0.456263 0.925441
O O2 0.000000 0.500000 0.922219
O O3 0.160804 0.500000 0.000000
O O4 0.229353 0.868431 0.582278
O O5 0.259625 0.923931 0.658628
O O6 0.000000 0.916201 0.614700
O O7 0.758138 0.846830 0.183569
O O8 0.753622 0.913937 0.250262
O O9 0.755566 0.826722 0.272567
O O10 0.000000 0.865030 0.236497
O O11 0.239090 0.258553 0.312477
O O12 0.226474 0.296802 0.398060
O O13 0.000000 0.306119 0.338708
O O14 0.168500 0.690465 0.140159
O O15 0.244568 0.720216 0.057140
O O16 0.000000 0.668655 0.067451
O O17 0.500000 0.057316 0.289634
O O18 0.276653 0.000000 0.289521
O O19 0.500000 0.781985 0.289521
O O20 0.222283 0.709945 0.500000
O O21 0.000000 0.734174 0.445187
#
# Coordination Sequence:
#
# PCOD9519386 Si02
#       8
#     8  16  16  16  16  16  16  16
#     4  11  25  43  59  73  93 125 169 223 278 325
#     4  12  23  36  57  78 101 130 168 218 271 326
#     4  12  23  34  52  77 108 140 176 214 259 315
#     4  10  20  34  52  75 107 140 176 217 264 315
#     4  10  20  33  52  75 102 135 173 214 258 311
#     4  11  23  39  59  80 106 138 175 217 267 325
#     4  10  19  32  50  73 104 138 175 214 257 308
#     4   9  19  36  56  77 103 137 178 222 264 308
#
# _framework density 16.789950999999999
#
# number of rings (size 3 to 8) (size 9 to 14) (size 15 to 20)
#    0.000    1.400    2.000    4.600    0.000    3.733 
#    0.000    0.000    0.000    0.000    0.000    0.000 
#    0.000    0.533    0.000    6.133    0.000    1.733 
#
# Total GULP energy -335142.856383 kJ/mol
# GULP energy per Si atom -5585.714273 kJ/mol
# Density = 1.675174 g / cm^3
# Si number density = 16.789951 Si / 1000 Ang^3
#
#
#
# Elastic Constant Matrix: (Units=GPa)
#
#
# Indices 1 2 3 4 5 6 
#
# 1 83.3367 23.4758 25.9563 0.0000 0.0000 0.0000
# 2 23.4758 47.0301 30.6584 0.0000 0.0000 0.0000
# 3 25.9563 30.6584 87.8713 0.0000 0.0000 0.0000
# 4 0.0000 0.0000 0.0000 20.4527 0.0000 0.0000
# 5 0.0000 0.0000 0.0000 0.0000 15.7058 0.0000
# 6 0.0000 0.0000 0.0000 0.0000 0.0000 25.6089
#
#
#
# Elastic Compliance Matrix: (Units=1/GPa)
#
#
# Indices 1 2 3 4 5 6 
#
# 1 0.014297 -0.005674 -0.002243 0.000000 0.000000 0.000000
# 2 -0.005674 0.029775 -0.008712 0.000000 0.000000 0.000000
# 3 -0.002243 -0.008712 0.015083 0.000000 0.000000 0.000000
# 4 0.000000 0.000000 0.000000 0.048893 0.000000 0.000000
# 5 0.000000 0.000000 0.000000 0.000000 0.063671 0.000000
# 6 0.000000 0.000000 0.000000 0.000000 0.000000 0.039049
#
#
# Mechanical properties :
#
#
# Convention : Reuss Voigt Hill
#
# Bulk Modulus (GPa) = 38.61817 42.04656 40.33237
# Shear Modulus (GPa) = 19.78960 21.56332 20.67646
#
# Velocity S-wave (km/s) = 3.43688 3.58760 3.51305
# Velocity P-wave (km/s) = 6.22898 6.50063 6.36626
#
# Compressibility (1/GPa) = 0.02589455
#
# Stress axis : x y z
#
# Youngs Moduli (GPa) = 69.94678 33.58554 66.30094
#
# Poissons Ratio (x) = 0.19056 0.14874
# Poissons Ratio (y) = 0.39687 0.57764
# Poissons Ratio (z) = 0.15692 0.29261
#
# Static dielectric constant tensor:
#      x y z
#    x 1.569470 0.000000 0.000000 
#    y 0.000000 1.546110 0.000000 
#    z 0.000000 0.000000 1.597750 
# 
# From -- ./inp_files/63842.got.cif
#   From: 2010.05.17/outbox.cif.g08.bks.cpg/sg71_32_cif.got.tgz:63842.got - 2010.06.03 16:22:01.
