data_PCOD9519674
_publ_section_title
;
Structure prediction by ZEFSAII (Michael W. Deem and Ramdas Pophale) SiO2 
 PCOD9519674
Probable space group: I M M M
;
_chemical_formula_sum "Si O2"
_cell_formula_units_Z 88
_cell_length_a 19.981819
_cell_length_b 8.764709
_cell_length_c 28.237250
_cell_angle_alpha 90.000000
_cell_angle_beta 90.000000
_cell_angle_gamma 90.000000
_cell_volume 4945.325945
_symmetry_space_group_name_H-M "I M M M"
_symmetry_group_IT_number 71
_symmetry_cell_setting 'orthorhombic'
loop_
_space_group_symop_operation_xyz
x,y,z
-x,-y,z
x,-y,-z
-x,y,-z
-x,-y,-z
x,y,-z
-x,y,z
x,-y,z
1/2+x,1/2+y,1/2+z
1/2-x,1/2-y,1/2+z
1/2+x,1/2-y,1/2-z
1/2-x,1/2+y,1/2-z
1/2-x,1/2-y,1/2-z
1/2+x,1/2+y,1/2-z
1/2-x,1/2+y,1/2+z
1/2+x,1/2-y,1/2+z
loop_
_atom_site_type_symbol
_atom_site_label
_atom_site_fract_x
_atom_site_fract_y
_atom_site_fract_z
Si Si1 0.667158 0.683056 0.915844
Si Si2 0.182170 0.316248 0.054146
Si Si3 0.839531 0.183297 0.784058
Si Si4 0.311128 0.818065 0.184748
Si Si5 0.924169 0.815940 0.126962
Si Si6 0.578406 0.816936 0.000000
O O1 0.662646 0.500000 0.917740
O O2 0.742584 0.728855 0.931248
O O3 0.659699 0.740439 0.862095
O O4 0.615660 0.752567 0.953503
O O5 0.179201 0.500000 0.056740
O O6 0.127284 0.247545 0.088717
O O7 0.170169 0.269674 0.000000
O O8 0.767597 0.223459 0.807730
O O9 0.844795 0.262980 0.733411
O O10 0.896726 0.226343 0.821129
O O11 0.839605 0.000000 0.777299
O O12 0.315274 0.000000 0.179987
O O13 0.000000 0.763671 0.119241
O O14 0.922874 0.000000 0.124553
O O15 0.500000 0.774747 0.000000
O O16 0.583470 0.000000 0.000000
#
# Coordination Sequence:
#
# PCOD9519674 Si02
#       6
#    16  16  16  16  16   8
#     4  11  21  37  61  88 117 151 191 234 281 339
#     4  10  21  37  56  82 113 147 192 238 280 332
#     4   9  18  33  52  79 112 147 188 236 289 341
#     4  10  19  32  55  85 112 144 188 239 289 335
#     4  10  21  37  56  80 113 152 193 237 287 343
#     4  11  25  43  63  89 120 151 184 229 287 346
#
# _framework density 17.79458
#
# number of rings (size 3 to 8) (size 9 to 14) (size 15 to 20)
#    0.000    1.909    2.727    1.364    0.000    4.000 
#    0.000    2.727    0.000    3.273    0.000    0.000 
#    0.000    0.000    0.000    0.000    0.000    0.000 
#
# Total GULP energy -245659.766671 kJ/mol
# GULP energy per Si atom -5583.176515 kJ/mol
# Density = 1.775408 g / cm^3
# Si number density = 17.794580 Si / 1000 Ang^3
#
#
#
# Elastic Constant Matrix: (Units=GPa)
#
#
# Indices 1 2 3 4 5 6 
#
# 1 133.2291 41.9371 87.2724 0.0000 0.0000 0.0000
# 2 41.9371 33.4897 48.1019 0.0000 0.0000 0.0000
# 3 87.2724 48.1019 168.2207 0.0000 0.0000 0.0000
# 4 0.0000 0.0000 0.0000 35.9465 0.0000 0.0000
# 5 0.0000 0.0000 0.0000 0.0000 25.9250 0.0000
# 6 0.0000 0.0000 0.0000 0.0000 0.0000 18.8771
#
#
#
# Elastic Compliance Matrix: (Units=1/GPa)
#
#
# Indices 1 2 3 4 5 6 
#
# 1 0.013635 -0.011733 -0.003719 0.000000 0.000000 0.000000
# 2 -0.011733 0.060767 -0.011289 0.000000 0.000000 0.000000
# 3 -0.003719 -0.011289 0.011102 0.000000 0.000000 0.000000
# 4 0.000000 0.000000 0.000000 0.027819 0.000000 0.000000
# 5 0.000000 0.000000 0.000000 0.000000 0.038573 0.000000
# 6 0.000000 0.000000 0.000000 0.000000 0.000000 0.052974
#
#
# Mechanical properties :
#
#
# Convention : Reuss Voigt Hill
#
# Bulk Modulus (GPa) = 31.22809 76.61804 53.92307
# Shear Modulus (GPa) = 18.58551 26.65823 22.62187
#
# Velocity S-wave (km/s) = 3.23530 3.87474 3.56937
# Velocity P-wave (km/s) = 5.61636 7.94787 6.88157
#
# Compressibility (1/GPa) = 0.03202245
#
# Stress axis : x y z
#
# Youngs Moduli (GPa) = 73.33950 16.45625 90.07396
#
# Poissons Ratio (x) = 0.19308 0.33498
# Poissons Ratio (y) = 0.86049 1.01685
# Poissons Ratio (z) = 0.27274 0.18578
#
# Static dielectric constant tensor:
#      x y z
#    x 1.596680 0.000000 0.000000 
#    y 0.000000 1.601620 0.000000 
#    z 0.000000 0.000000 1.589130 
# 
# From -- ./inp_files/10466.got.cif
#   From: 2010.05.17/outbox.cif.g08.bks.cpg/sg71_6_cif.got.tgz:10466.got - 2010.06.03 16:22:01.
