data_PCOD9519853
_publ_section_title
;
Structure prediction by ZEFSAII (Michael W. Deem and Ramdas Pophale) SiO2 
 PCOD9519853
Probable space group: I M M M
;
_chemical_formula_sum "Si O2"
_cell_formula_units_Z 100
_cell_length_a 7.302149
_cell_length_b 19.971245
_cell_length_c 29.275293
_cell_angle_alpha 90.000000
_cell_angle_beta 90.000000
_cell_angle_gamma 90.000000
_cell_volume 4269.304000
_symmetry_space_group_name_H-M "I M M M"
_symmetry_group_IT_number 71
_symmetry_cell_setting 'orthorhombic'
loop_
_space_group_symop_operation_xyz
x,y,z
-x,-y,z
x,-y,-z
-x,y,-z
-x,-y,-z
x,y,-z
-x,y,z
x,-y,z
1/2+x,1/2+y,1/2+z
1/2-x,1/2-y,1/2+z
1/2+x,1/2-y,1/2-z
1/2-x,1/2+y,1/2-z
1/2-x,1/2-y,1/2-z
1/2+x,1/2+y,1/2-z
1/2-x,1/2+y,1/2+z
1/2+x,1/2-y,1/2+z
loop_
_atom_site_type_symbol
_atom_site_label
_atom_site_fract_x
_atom_site_fract_y
_atom_site_fract_z
Si Si1 0.500000 0.602673 0.500000
Si Si2 0.716141 0.137157 0.179704
Si Si3 0.723022 0.716322 0.190506
Si Si4 0.779001 0.284029 0.500000
Si Si5 0.218026 0.926749 0.727561
Si Si6 0.220667 0.426561 0.946895
Si Si7 0.206602 0.787607 0.589762
Si Si8 0.000000 0.921644 0.890389
O O1 0.312880 0.644661 0.500000
O O2 0.500000 0.576788 0.446377
O O3 0.500000 0.141968 0.169455
O O4 0.771981 0.207669 0.205859
O O5 0.748713 0.081637 0.218376
O O6 0.829162 0.116646 0.134418
O O7 0.500000 0.713116 0.192851
O O8 0.790020 0.643241 0.206399
O O9 0.789480 0.724186 0.138382
O O10 0.712006 0.245291 0.544924
O O11 0.000000 0.284571 0.500000
O O12 0.000000 0.927073 0.719524
O O13 0.287465 0.000000 0.711990
O O14 0.277723 0.500000 0.931509
O O15 0.297213 0.366548 0.918198
O O16 0.000000 0.423500 0.945532
O O17 0.274458 0.418378 0.000000
O O18 0.000000 0.761484 0.592619
O O19 0.000000 0.000000 0.876443
#
# Coordination Sequence:
#
# PCOD9519853 Si02
#       8
#     4  16  16   8  16  16  16   8
#     4  12  27  44  72  98 131 182 208 256 337 384
#     4  11  23  44  72  99 134 175 222 273 330 396
#     4   9  20  37  59  91 130 170 215 271 335 395
#     4  10  22  39  62  94 129 166 225 277 320 386
#     4  10  20  38  64  94 130 173 223 278 334 397
#     4   9  18  31  45  65  98 144 200 259 314 377
#     4  10  19  33  53  81 116 157 209 270 326 385
#     4  12  27  48  72 106 139 171 224 272 323 401
#
# _framework density 23.423020999999999
#
# number of rings (size 3 to 8) (size 9 to 14) (size 15 to 20)
#    0.000    1.920    1.600    2.520    1.120    4.160 
#    2.880    2.400    0.000    1.440    0.000    0.000 
#    0.000    0.000    0.000    0.000    0.000    0.000 
#
# Total GULP energy -278856.796519 kJ/mol
# GULP energy per Si atom -5577.135930 kJ/mol
# Density = 2.336971 g / cm^3
# Si number density = 23.423021 Si / 1000 Ang^3
#
#
#
# Elastic Constant Matrix: (Units=GPa)
#
#
# Indices 1 2 3 4 5 6 
#
# 1 112.6043 17.1610 5.9865 0.0000 0.0000 0.0000
# 2 17.1610 166.5099 37.9607 0.0000 0.0000 0.0000
# 3 5.9865 37.9607 64.6985 0.0000 0.0000 0.0000
# 4 0.0000 0.0000 0.0000 -128.5341 0.0000 0.0000
# 5 0.0000 0.0000 0.0000 0.0000 -7.3564 0.0000
# 6 0.0000 0.0000 0.0000 0.0000 0.0000 10.4411
#
#
#
# Elastic Compliance Matrix: (Units=1/GPa)
#
#
# Indices 1 2 3 4 5 6 
#
# 1 0.009029 -0.000854 -0.000334 0.000000 0.000000 0.000000
# 2 -0.000854 0.007014 -0.004036 0.000000 0.000000 0.000000
# 3 -0.000334 -0.004036 0.017855 0.000000 0.000000 0.000000
# 4 0.000000 0.000000 0.000000 -0.007780 0.000000 0.000000
# 5 0.000000 0.000000 0.000000 0.000000 -0.135935 0.000000
# 6 0.000000 0.000000 0.000000 0.000000 0.000000 0.095776
#
#
# Mechanical properties :
#
#
# Convention : Reuss Voigt Hill
#
# Bulk Modulus (GPa) = 42.64664 51.78103 47.21384
# Shear Modulus (GPa) = 1183.76622 -6.24293 588.76164
#
# Velocity S-wave (km/s) = 22.50518 -1.63434 15.87154
# Velocity P-wave (km/s) = 26.33548 4.31201 18.86996
#
# Compressibility (1/GPa) = 0.02344850
#
# Stress axis : x y z
#
# Youngs Moduli (GPa) = 110.75891 142.57464 56.00541
#
# Poissons Ratio (x) = 0.12181 0.01871
# Poissons Ratio (y) = 0.09463 0.22605
# Poissons Ratio (z) = 0.03701 0.57546
#
# Static dielectric constant tensor:
#      x y z
#    x 1.871030 0.000000 0.000000 
#    y 0.000000 1.894740 0.000000 
#    z 0.000000 0.000000 1.935740 
# 
# From -- ./inp_files/68340.got.cif
#   From: 2010.05.17/outbox.cif.g08.bks.cpg/sg71_35_cif.got.tgz:68340.got - 2010.06.03 16:22:01.
