data_PCOD9519220
_publ_section_title
;
Structure prediction by ZEFSAII (Michael W. Deem and Ramdas Pophale) SiO2 
 PCOD9519220
Probable space group: I M M M
;
_chemical_formula_sum "Si O2"
_cell_formula_units_Z 88
_cell_length_a 29.109134
_cell_length_b 7.698939
_cell_length_c 22.089710
_cell_angle_alpha 90.000000
_cell_angle_beta 90.000000
_cell_angle_gamma 90.000000
_cell_volume 4950.512693
_symmetry_space_group_name_H-M "I M M M"
_symmetry_group_IT_number 71
_symmetry_cell_setting 'orthorhombic'
loop_
_space_group_symop_operation_xyz
x,y,z
-x,-y,z
x,-y,-z
-x,y,-z
-x,-y,-z
x,y,-z
-x,y,z
x,-y,z
1/2+x,1/2+y,1/2+z
1/2-x,1/2-y,1/2+z
1/2+x,1/2-y,1/2-z
1/2-x,1/2+y,1/2-z
1/2-x,1/2-y,1/2-z
1/2+x,1/2+y,1/2-z
1/2-x,1/2+y,1/2+z
1/2+x,1/2-y,1/2+z
loop_
_atom_site_type_symbol
_atom_site_label
_atom_site_fract_x
_atom_site_fract_y
_atom_site_fract_z
Si Si1 0.052205 0.792461 0.000000
Si Si2 0.946071 0.199456 0.367457
Si Si3 0.218003 0.500000 0.573380
Si Si4 0.387508 0.207061 0.617103
Si Si5 0.387460 0.000000 0.927387
Si Si6 0.288543 0.204462 0.427008
Si Si7 0.552548 0.789108 0.271562
O O1 0.080026 0.738056 0.940530
O O2 0.000000 0.723967 0.000000
O O3 0.050164 0.000000 0.000000
O O4 0.913978 0.332343 0.402428
O O5 0.938164 0.219327 0.295428
O O6 0.000000 0.242246 0.377543
O O7 0.938492 0.000000 0.385347
O O8 0.216793 0.500000 0.500000
O O9 0.165468 0.500000 0.594039
O O10 0.246727 0.671078 0.591168
O O11 0.336083 0.268433 0.602778
O O12 0.412346 0.273967 0.677362
O O13 0.383419 0.000000 0.624029
O O14 0.388257 0.000000 0.000000
O O15 0.294472 0.216699 0.500000
O O16 0.280850 0.000000 0.413288
O O17 0.500000 0.742533 0.288321
O O18 0.554516 0.000000 0.268425
#
# Coordination Sequence:
#
# PCOD9519220 Si02
#       7
#     8  16   8  16   8  16  16
#     4  11  23  31  39  67 113 153 187 245 305 339
#     4  10  21  38  61  88 119 153 183 215 262 330
#     4   9  20  35  56  81 108 146 179 228 288 331
#     4  10  19  31  51  76 102 146 198 242 289 333
#     4  11  23  40  63  92 118 143 178 220 278 339
#     4   9  17  31  51  77 106 141 191 238 285 335
#     4   9  17  32  54  79 108 148 194 232 269 327
#
# _framework density 17.775936999999999
#
# number of rings (size 3 to 8) (size 9 to 14) (size 15 to 20)
#    0.000    2.273    1.818    1.091    1.273    4.000 
#    0.000    4.545    0.000    1.091    0.000    0.000 
#    0.000    0.000    0.000    0.000    0.000    0.000 
#
# Total GULP energy -245526.313395 kJ/mol
# GULP energy per Si atom -5580.143486 kJ/mol
# Density = 1.773548 g / cm^3
# Si number density = 17.775937 Si / 1000 Ang^3
#
#
#
# Elastic Constant Matrix: (Units=GPa)
#
#
# Indices 1 2 3 4 5 6 
#
# 1 166.5999 76.1011 66.8625 0.0000 0.0000 0.0000
# 2 76.1011 79.4079 33.2524 0.0000 0.0000 0.0000
# 3 66.8625 33.2524 56.6818 0.0000 0.0000 0.0000
# 4 0.0000 0.0000 0.0000 -13.0710 0.0000 0.0000
# 5 0.0000 0.0000 0.0000 0.0000 17.7151 0.0000
# 6 0.0000 0.0000 0.0000 0.0000 0.0000 16.4052
#
#
#
# Elastic Compliance Matrix: (Units=1/GPa)
#
#
# Indices 1 2 3 4 5 6 
#
# 1 0.015378 -0.009467 -0.012587 0.000000 0.000000 0.000000
# 2 -0.009467 0.022523 -0.002045 0.000000 0.000000 0.000000
# 3 -0.012587 -0.002045 0.033689 0.000000 0.000000 0.000000
# 4 0.000000 0.000000 0.000000 -0.076505 0.000000 0.000000
# 5 0.000000 0.000000 0.000000 0.000000 0.056449 0.000000
# 6 0.000000 0.000000 0.000000 0.000000 0.000000 0.060956
#
#
# Mechanical properties :
#
#
# Convention : Reuss Voigt Hill
#
# Bulk Modulus (GPa) = 42.74896 72.79130 57.77013
# Shear Modulus (GPa) = 29.67605 12.64144 21.15874
#
# Velocity S-wave (km/s) = 4.09032 2.66964 3.45382
# Velocity P-wave (km/s) = 6.81239 7.10921 6.96238
#
# Compressibility (1/GPa) = 0.02339238
#
# Stress axis : x y z
#
# Youngs Moduli (GPa) = 65.02615 44.39957 29.68296
#
# Poissons Ratio (x) = 0.42035 0.37361
# Poissons Ratio (y) = 0.61563 0.06071
# Poissons Ratio (z) = 0.81845 0.09081
#
# Static dielectric constant tensor:
#      x y z
#    x 1.601190 0.000000 0.000000 
#    y 0.000000 1.636140 0.000000 
#    z 0.000000 0.000000 1.576070 
# 
# From -- ./inp_files/55614.got.cif
#   From: 2010.05.17/outbox.cif.g08.bks.cpg/sg71_28_cif.got.tgz:55614.got - 2010.06.03 16:22:01.
