data_PCOD9519311
_publ_section_title
;
Structure prediction by ZEFSAII (Michael W. Deem and Ramdas Pophale) SiO2 
 PCOD9519311
Probable space group: I M M M
;
_chemical_formula_sum "Si O2"
_cell_formula_units_Z 104
_cell_length_a 28.930438
_cell_length_b 14.853092
_cell_length_c 11.317170
_cell_angle_alpha 90.000000
_cell_angle_beta 90.000000
_cell_angle_gamma 90.000000
_cell_volume 4863.061026
_symmetry_space_group_name_H-M "I M M M"
_symmetry_group_IT_number 71
_symmetry_cell_setting 'orthorhombic'
loop_
_space_group_symop_operation_xyz
x,y,z
-x,-y,z
x,-y,-z
-x,y,-z
-x,-y,-z
x,y,-z
-x,y,z
x,-y,z
1/2+x,1/2+y,1/2+z
1/2-x,1/2-y,1/2+z
1/2+x,1/2-y,1/2-z
1/2-x,1/2+y,1/2-z
1/2-x,1/2-y,1/2-z
1/2+x,1/2+y,1/2-z
1/2-x,1/2+y,1/2+z
1/2+x,1/2-y,1/2+z
loop_
_atom_site_type_symbol
_atom_site_label
_atom_site_fract_x
_atom_site_fract_y
_atom_site_fract_z
Si Si1 0.198157 0.390235 0.129736
Si Si2 0.645923 0.390774 0.625809
Si Si3 0.555200 0.500000 0.873070
Si Si4 0.552559 0.334176 0.294076
Si Si5 0.193094 0.109133 0.370161
Si Si6 0.847241 0.603742 0.630566
Si Si7 0.449725 0.160286 0.133584
O O1 0.194018 0.500000 0.129503
O O2 0.252501 0.368881 0.135406
O O3 0.173856 0.356324 0.249339
O O4 0.180327 0.359957 0.000000
O O5 0.670541 0.371788 0.500000
O O6 0.640852 0.500000 0.631466
O O7 0.595591 0.345506 0.621246
O O8 0.669620 0.360888 0.748085
O O9 0.500000 0.500000 0.885517
O O10 0.564930 0.589631 0.802285
O O11 0.578179 0.500000 0.000000
O O12 0.500000 0.351729 0.338325
O O13 0.552236 0.239302 0.228547
O O14 0.175218 0.139515 0.500000
O O15 0.189744 0.000000 0.370054
O O16 0.836091 0.643191 0.500000
O O17 0.831558 0.500000 0.626495
O O18 0.902848 0.604869 0.642886
O O19 0.500000 0.113977 0.146252
O O20 0.449348 0.199400 0.000000
#
# Coordination Sequence:
#
# PCOD9519311 Si02
#       7
#    16  16   8  16  16  16  16
#     4   8  14  27  48  73 101 130 162 201 246 295
#     4  10  20  32  46  70 102 133 165 203 250 298
#     4   9  16  26  43  67  89 113 155 207 245 275
#     4  10  19  32  47  66  93 129 170 207 243 291
#     4   8  15  28  46  70  98 129 164 202 245 293
#     4   9  17  29  49  78 105 130 164 202 244 296
#     4   9  18  32  49  71 102 136 167 205 251 293
#
# _framework density 21.385707
#
# number of rings (size 3 to 8) (size 9 to 14) (size 15 to 20)
#    0.000    3.000    0.769    1.385    0.000    4.308 
#    0.000    6.154    0.000    2.308    0.000    2.154 
#    0.000    0.000    0.000    0.000    0.000    0.000 
#
# Total GULP energy -289606.563246 kJ/mol
# GULP energy per Si atom -5569.356986 kJ/mol
# Density = 2.133703 g / cm^3
# Si number density = 21.385707 Si / 1000 Ang^3
#
#
#
# Elastic Constant Matrix: (Units=GPa)
#
#
# Indices 1 2 3 4 5 6 
#
# 1 66.9257 -1.1276 80.4929 0.0000 0.0000 0.0000
# 2 -1.1276 43.1099 13.4485 0.0000 0.0000 0.0000
# 3 80.4929 13.4485 220.9042 0.0000 0.0000 0.0000
# 4 0.0000 0.0000 0.0000 0.5896 0.0000 0.0000
# 5 0.0000 0.0000 0.0000 0.0000 24.2092 0.0000
# 6 0.0000 0.0000 0.0000 0.0000 0.0000 -1.6044
#
#
#
# Elastic Compliance Matrix: (Units=1/GPa)
#
#
# Indices 1 2 3 4 5 6 
#
# 1 0.027221 0.003880 -0.010155 0.000000 0.000000 0.000000
# 2 0.003880 0.024199 -0.002887 0.000000 0.000000 0.000000
# 3 -0.010155 -0.002887 0.008403 0.000000 0.000000 0.000000
# 4 0.000000 0.000000 0.000000 1.696053 0.000000 0.000000
# 5 0.000000 0.000000 0.000000 0.000000 0.041307 0.000000
# 6 0.000000 0.000000 0.000000 0.000000 0.000000 -0.623276
#
#
# Mechanical properties :
#
#
# Convention : Reuss Voigt Hill
#
# Bulk Modulus (GPa) = 24.09732 57.39638 40.74685
# Shear Modulus (GPa) = 4.14572 20.51393 12.32983
#
# Velocity S-wave (km/s) = 1.39383 3.10051 2.40374
# Velocity P-wave (km/s) = 3.72596 6.30194 5.17674
#
# Compressibility (1/GPa) = 0.04149840
#
# Stress axis : x y z
#
# Youngs Moduli (GPa) = 36.73652 41.32467 119.00723
#
# Poissons Ratio (x) = -0.16034 1.20851
# Poissons Ratio (y) = -0.14253 0.34357
# Poissons Ratio (z) = 0.37306 0.11930
#
# Static dielectric constant tensor:
#      x y z
#    x 1.784590 0.000000 0.000000 
#    y 0.000000 1.748000 0.000000 
#    z 0.000000 0.000000 1.852820 
# 
# From -- ./inp_files/28920.got.cif
#   From: 2010.05.17/outbox.cif.g08.bks.cpg/sg71_15_cif.got.tgz:28920.got - 2010.06.03 16:22:01.
