data_PCOD9519106
_publ_section_title
;
Structure prediction by ZEFSAII (Michael W. Deem and Ramdas Pophale) SiO2 
 PCOD9519106
Probable space group: I M M M
;
_chemical_formula_sum "Si O2"
_cell_formula_units_Z 104
_cell_length_a 25.099237
_cell_length_b 7.452554
_cell_length_c 24.468346
_cell_angle_alpha 90.000000
_cell_angle_beta 90.000000
_cell_angle_gamma 90.000000
_cell_volume 4576.887779
_symmetry_space_group_name_H-M "I M M M"
_symmetry_group_IT_number 71
_symmetry_cell_setting 'orthorhombic'
loop_
_space_group_symop_operation_xyz
x,y,z
-x,-y,z
x,-y,-z
-x,y,-z
-x,-y,-z
x,y,-z
-x,y,z
x,-y,z
1/2+x,1/2+y,1/2+z
1/2-x,1/2-y,1/2+z
1/2+x,1/2-y,1/2-z
1/2-x,1/2+y,1/2-z
1/2-x,1/2-y,1/2-z
1/2+x,1/2+y,1/2-z
1/2-x,1/2+y,1/2+z
1/2+x,1/2-y,1/2+z
loop_
_atom_site_type_symbol
_atom_site_label
_atom_site_fract_x
_atom_site_fract_y
_atom_site_fract_z
Si Si1 0.500000 0.214311 0.563038
Si Si2 0.382511 0.709676 0.438285
Si Si3 0.216178 0.707575 0.325907
Si Si4 0.165982 0.221272 0.829357
Si Si5 0.607331 0.298509 0.227997
Si Si6 0.940920 0.219397 0.617902
Si Si7 0.668272 0.717229 0.061425
O O1 0.500000 0.277805 0.500000
O O2 0.443090 0.276836 0.584158
O O3 0.500000 0.000000 0.564066
O O4 0.380000 0.786960 0.500000
O O5 0.369839 0.500000 0.443176
O O6 0.345583 0.784074 0.390685
O O7 0.211720 0.500000 0.309803
O O8 0.274759 0.775948 0.311849
O O9 0.166095 0.806550 0.299687
O O10 0.207768 0.718317 0.391353
O O11 0.120897 0.282895 0.786730
O O12 0.165531 0.000000 0.828671
O O13 0.586869 0.500000 0.237444
O O14 0.571493 0.217550 0.179942
O O15 0.891468 0.273501 0.579944
O O16 0.000000 0.273774 0.600387
O O17 0.939774 0.000000 0.619162
O O18 0.669365 0.500000 0.062140
O O19 0.680321 0.776907 0.000000
#
# Coordination Sequence:
#
# PCOD9519106 Si02
#       7
#     8  16  16  16  16  16  16
#     4   9  17  31  49  67  91 123 155 187 228 281
#     4   9  17  31  50  70  93 123 159 198 242 288
#     4  10  19  31  49  71  98 130 162 197 243 292
#     4   9  18  31  48  73  97 123 163 206 242 283
#     4   9  17  32  50  69  96 125 160 202 241 285
#     4   8  14  26  46  71  95 120 153 197 245 282
#     4   9  18  32  49  70  97 129 164 201 242 290
#
# _framework density 22.722864000000001
#
# number of rings (size 3 to 8) (size 9 to 14) (size 15 to 20)
#    0.000    3.000    0.000    2.077    0.000    2.154 
#    1.385    6.154    0.000    9.231    0.000    4.308 
#    0.000    0.000    0.000    0.000    0.000    0.000 
#
# Total GULP energy -290031.460967 kJ/mol
# GULP energy per Si atom -5577.528096 kJ/mol
# Density = 2.267115 g / cm^3
# Si number density = 22.722864 Si / 1000 Ang^3
#
#
#
# Elastic Constant Matrix: (Units=GPa)
#
#
# Indices 1 2 3 4 5 6 
#
# 1 25.3072 -7.4882 -13.2916 0.0000 0.0000 0.0000
# 2 -7.4882 77.5777 0.8566 0.0000 0.0000 0.0000
# 3 -13.2916 0.8566 93.7193 0.0000 0.0000 0.0000
# 4 0.0000 0.0000 0.0000 6.1622 0.0000 0.0000
# 5 0.0000 0.0000 0.0000 0.0000 21.9503 0.0000
# 6 0.0000 0.0000 0.0000 0.0000 0.0000 61.6003
#
#
#
# Elastic Compliance Matrix: (Units=1/GPa)
#
#
# Indices 1 2 3 4 5 6 
#
# 1 0.044009 0.004179 0.006203 0.000000 0.000000 0.000000
# 2 0.004179 0.013289 0.000471 0.000000 0.000000 0.000000
# 3 0.006203 0.000471 0.011546 0.000000 0.000000 0.000000
# 4 0.000000 0.000000 0.000000 0.162280 0.000000 0.000000
# 5 0.000000 0.000000 0.000000 0.000000 0.045558 0.000000
# 6 0.000000 0.000000 0.000000 0.000000 0.000000 0.016234
#
#
# Mechanical properties :
#
#
# Convention : Reuss Voigt Hill
#
# Bulk Modulus (GPa) = 11.04345 17.41754 14.23049
# Shear Modulus (GPa) = 16.58980 32.37771 24.48375
#
# Velocity S-wave (km/s) = 2.70495 3.77887 3.28608
# Velocity P-wave (km/s) = 3.82444 5.16930 4.54687
#
# Compressibility (1/GPa) = 0.09055143
#
# Stress axis : x y z
#
# Youngs Moduli (GPa) = 22.72257 75.25288 86.61282
#
# Poissons Ratio (x) = -0.31452 -0.53729
# Poissons Ratio (y) = -0.09497 -0.04082
# Poissons Ratio (z) = -0.14096 -0.03547
#
# Static dielectric constant tensor:
#      x y z
#    x 1.815680 0.000000 0.000000 
#    y 0.000000 1.876240 0.000000 
#    z 0.000000 0.000000 1.876320 
# 
# From -- ./inp_files/15259.got.cif
#   From: 2010.05.17/outbox.cif.g08.bks.cpg/sg71_8_cif.got.tgz:15259.got - 2010.06.03 16:22:01.
