data_PCOD9519335
_publ_section_title
;
Structure prediction by ZEFSAII (Michael W. Deem and Ramdas Pophale) SiO2 
 PCOD9519335
Probable space group: I M M M
;
_chemical_formula_sum "Si O2"
_cell_formula_units_Z 104
_cell_length_a 20.342600
_cell_length_b 27.875860
_cell_length_c 7.837079
_cell_angle_alpha 90.000000
_cell_angle_beta 90.000000
_cell_angle_gamma 90.000000
_cell_volume 4444.152558
_symmetry_space_group_name_H-M "I M M M"
_symmetry_group_IT_number 71
_symmetry_cell_setting 'orthorhombic'
loop_
_space_group_symop_operation_xyz
x,y,z
-x,-y,z
x,-y,-z
-x,y,-z
-x,-y,-z
x,y,-z
-x,y,z
x,-y,z
1/2+x,1/2+y,1/2+z
1/2-x,1/2-y,1/2+z
1/2+x,1/2-y,1/2-z
1/2-x,1/2+y,1/2-z
1/2-x,1/2-y,1/2-z
1/2+x,1/2+y,1/2-z
1/2-x,1/2+y,1/2+z
1/2+x,1/2-y,1/2+z
loop_
_atom_site_type_symbol
_atom_site_label
_atom_site_fract_x
_atom_site_fract_y
_atom_site_fract_z
Si Si1 0.919307 0.945709 0.500000
Si Si2 0.281490 0.947049 0.293186
Si Si3 0.075389 0.888432 0.186389
Si Si4 0.753985 0.659551 0.701911
Si Si5 0.397104 0.184599 0.695467
Si Si6 0.878484 0.787598 0.206406
Si Si7 0.571177 0.919996 0.291287
O O1 0.893922 0.919713 0.667014
O O2 0.000000 0.943221 0.500000
O O3 0.899426 0.000000 0.500000
O O4 0.278650 0.945301 0.500000
O O5 0.248362 0.897881 0.228198
O O6 0.359245 0.943130 0.241744
O O7 0.257021 0.000000 0.239235
O O8 0.075651 0.833005 0.238164
O O9 0.000000 0.904226 0.171069
O O10 0.107121 0.892049 0.000000
O O11 0.763370 0.668055 0.500000
O O12 0.818887 0.675697 0.800313
O O13 0.692564 0.691893 0.760826
O O14 0.420991 0.186757 0.500000
O O15 0.404182 0.237174 0.775981
O O16 0.425882 0.135567 0.769111
O O17 0.874651 0.781474 0.000000
O O18 0.572304 0.920125 0.500000
O O19 0.500000 0.940459 0.240093
#
# Coordination Sequence:
#
# PCOD9519335 Si02
#       7
#     8  16  16  16  16  16  16
#     4   9  18  34  54  76 102 132 170 210 250 306
#     4   9  18  33  51  70  95 128 166 208 254 303
#     4   9  18  34  54  77 106 136 169 213 264 316
#     4  10  19  32  49  70  99 129 166 210 251 302
#     4   9  17  31  49  71 100 130 166 207 246 297
#     4   9  18  32  50  73 100 132 168 205 252 306
#     4   8  14  25  45  74 101 124 156 201 247 291
#
# _framework density 23.401536
#
# number of rings (size 3 to 8) (size 9 to 14) (size 15 to 20)
#    0.000    3.000    0.000    1.846    0.000    1.538 
#    4.154    6.923    0.000   10.154    0.000    4.308 
#    0.000    0.000    0.000    0.000    0.000    0.000 
#
# Total GULP energy -290031.969488 kJ/mol
# GULP energy per Si atom -5577.537875 kJ/mol
# Density = 2.334827 g / cm^3
# Si number density = 23.401536 Si / 1000 Ang^3
#
#
#
# Elastic Constant Matrix: (Units=GPa)
#
#
# Indices 1 2 3 4 5 6 
#
# 1 61.8788 -20.9192 5.3672 0.0000 0.0000 0.0000
# 2 -20.9192 142.4648 37.7350 0.0000 0.0000 0.0000
# 3 5.3672 37.7350 52.8076 0.0000 0.0000 0.0000
# 4 0.0000 0.0000 0.0000 20.7105 0.0000 0.0000
# 5 0.0000 0.0000 0.0000 0.0000 17.8378 0.0000
# 6 0.0000 0.0000 0.0000 0.0000 0.0000 11.1878
#
#
#
# Elastic Compliance Matrix: (Units=1/GPa)
#
#
# Indices 1 2 3 4 5 6 
#
# 1 0.017848 0.003825 -0.004548 0.000000 0.000000 0.000000
# 2 0.003825 0.009478 -0.007161 0.000000 0.000000 0.000000
# 3 -0.004548 -0.007161 0.024516 0.000000 0.000000 0.000000
# 4 0.000000 0.000000 0.000000 0.048285 0.000000 0.000000
# 5 0.000000 0.000000 0.000000 0.000000 0.056061 0.000000
# 6 0.000000 0.000000 0.000000 0.000000 0.000000 0.089383
#
#
# Mechanical properties :
#
#
# Convention : Reuss Voigt Hill
#
# Bulk Modulus (GPa) = 27.71994 33.50191 30.61092
# Shear Modulus (GPa) = 18.29070 25.61177 21.95123
#
# Velocity S-wave (km/s) = 2.79875 3.31183 3.06604
# Velocity P-wave (km/s) = 4.72388 5.38252 5.06392
#
# Compressibility (1/GPa) = 0.03607512
#
# Stress axis : x y z
#
# Youngs Moduli (GPa) = 56.02782 105.50928 40.78927
#
# Poissons Ratio (x) = -0.40361 0.18549
# Poissons Ratio (y) = -0.21432 0.29211
# Poissons Ratio (z) = 0.25479 0.75560
#
# Static dielectric constant tensor:
#      x y z
#    x 1.916830 0.000000 0.000000 
#    y 0.000000 1.874490 0.000000 
#    z 0.000000 0.000000 1.859160 
# 
# From -- ./inp_files/13294.got.cif
#   From: 2010.05.17/outbox.cif.g08.bks.cpg/sg71_7_cif.got.tgz:13294.got - 2010.06.03 16:22:01.
