data_PCOD9519077
_publ_section_title
;
Structure prediction by ZEFSAII (Michael W. Deem and Ramdas Pophale) SiO2 
 PCOD9519077
Probable space group: I M M M
;
_chemical_formula_sum "Si O2"
_cell_formula_units_Z 96
_cell_length_a 26.193657
_cell_length_b 8.754837
_cell_length_c 25.911372
_cell_angle_alpha 90.000000
_cell_angle_beta 90.000000
_cell_angle_gamma 90.000000
_cell_volume 5942.026855
_symmetry_space_group_name_H-M "I M M M"
_symmetry_group_IT_number 71
_symmetry_cell_setting 'orthorhombic'
loop_
_space_group_symop_operation_xyz
x,y,z
-x,-y,z
x,-y,-z
-x,y,-z
-x,-y,-z
x,y,-z
-x,y,z
x,-y,z
1/2+x,1/2+y,1/2+z
1/2-x,1/2-y,1/2+z
1/2+x,1/2-y,1/2-z
1/2-x,1/2+y,1/2-z
1/2-x,1/2-y,1/2-z
1/2+x,1/2+y,1/2-z
1/2-x,1/2+y,1/2+z
1/2+x,1/2-y,1/2+z
loop_
_atom_site_type_symbol
_atom_site_label
_atom_site_fract_x
_atom_site_fract_y
_atom_site_fract_z
Si Si1 0.940149 0.817192 0.390539
Si Si2 0.438020 0.324001 0.500000
Si Si3 0.359068 0.816558 0.188177
Si Si4 0.561895 0.824381 0.000000
Si Si5 0.252834 0.316518 0.807892
Si Si6 0.558994 0.184468 0.391426
Si Si7 0.859727 0.685307 0.191885
O O1 0.904574 0.745133 0.346902
O O2 0.923207 0.758372 0.447032
O O3 0.000000 0.774553 0.383405
O O4 0.936774 0.000000 0.388986
O O5 0.422321 0.500000 0.500000
O O6 0.500000 0.317909 0.500000
O O7 0.422424 0.243055 0.552984
O O8 0.304271 0.753569 0.168959
O O9 0.365131 0.766084 0.248289
O O10 0.358129 0.000000 0.187244
O O11 0.500000 0.823491 0.000000
O O12 0.579044 0.000000 0.000000
O O13 0.257072 0.500000 0.806537
O O14 0.250000 0.250000 0.750000
O O15 0.196774 0.275260 0.829350
O O16 0.500000 0.232768 0.383792
O O17 0.595521 0.239315 0.345531
O O18 0.559549 0.000000 0.392100
O O19 0.861844 0.500000 0.192993
#
# Coordination Sequence:
#
# PCOD9519077 Si02
#       7
#    16   8  16   8  16  16  16
#     4  10  20  33  49  71  99 129 159 192 233 282
#     4   9  17  29  43  62  89 118 149 185 225 269
#     4  10  19  31  48  71  97 125 158 195 237 281
#     4   9  17  31  51  72  93 122 161 199 233 273
#     4   9  16  29  47  66  91 123 160 198 235 278
#     4   9  16  28  47  68  89 117 153 188 223 268
#     4   8  16  29  46  69  94 121 155 194 233 275
#
# _framework density 16.156103000000002
#
# number of rings (size 3 to 8) (size 9 to 14) (size 15 to 20)
#    0.000    2.833    0.000    3.000    0.000    3.667 
#    0.000    6.667    0.000    3.000    0.000    4.667 
#    0.000    0.000    0.000    0.000    0.000    0.000 
#
# Total GULP energy -267245.287831 kJ/mol
# GULP energy per Si atom -5567.610163 kJ/mol
# Density = 1.611933 g / cm^3
# Si number density = 16.156103 Si / 1000 Ang^3
#
#
#
# Elastic Constant Matrix: (Units=GPa)
#
#
# Indices 1 2 3 4 5 6 
#
# 1 110.6493 37.0811 73.7716 0.0000 0.0000 0.0000
# 2 37.0811 46.9058 30.3650 0.0000 0.0000 0.0000
# 3 73.7716 30.3650 104.9945 0.0000 0.0000 0.0000
# 4 0.0000 0.0000 0.0000 19.5503 0.0000 0.0000
# 5 0.0000 0.0000 0.0000 0.0000 -1.8350 0.0000
# 6 0.0000 0.0000 0.0000 0.0000 0.0000 22.2926
#
#
#
# Elastic Compliance Matrix: (Units=1/GPa)
#
#
# Indices 1 2 3 4 5 6 
#
# 1 0.019116 -0.007895 -0.011148 0.000000 0.000000 0.000000
# 2 -0.007895 0.029491 -0.002982 0.000000 0.000000 0.000000
# 3 -0.011148 -0.002982 0.018219 0.000000 0.000000 0.000000
# 4 0.000000 0.000000 0.000000 0.051150 0.000000 0.000000
# 5 0.000000 0.000000 0.000000 0.000000 -0.544957 0.000000
# 6 0.000000 0.000000 0.000000 0.000000 0.000000 0.044858
#
#
# Mechanical properties :
#
#
# Convention : Reuss Voigt Hill
#
# Bulk Modulus (GPa) = 43.90430 60.55390 52.22910
# Shear Modulus (GPa) = -15.12946 16.09037 0.48045
#
# Velocity S-wave (km/s) = -3.06348 3.15926 0.54592
# Velocity P-wave (km/s) = 3.83678 7.13231 5.72672
#
# Compressibility (1/GPa) = 0.02277681
#
# Stress axis : x y z
#
# Youngs Moduli (GPa) = 52.31225 33.90862 54.88647
#
# Poissons Ratio (x) = 0.26772 0.61187
# Poissons Ratio (y) = 0.41302 0.16365
# Poissons Ratio (z) = 0.58318 0.10110
#
# Static dielectric constant tensor:
#      x y z
#    x 1.566510 0.000000 0.000000 
#    y 0.000000 1.543280 0.000000 
#    z 0.000000 0.000000 1.534960 
# 
# From -- ./inp_files/61880.got.cif
#   From: 2010.05.17/outbox.cif.g08.bks.cpg/sg71_31_cif.got.tgz:61880.got - 2010.06.03 16:22:01.
