data_PCOD9519303
_publ_section_title
;
Structure prediction by ZEFSAII (Michael W. Deem and Ramdas Pophale) SiO2 
 PCOD9519303
Probable space group: I M M M
;
_chemical_formula_sum "Si O2"
_cell_formula_units_Z 68
_cell_length_a 7.613807
_cell_length_b 17.686478
_cell_length_c 22.434689
_cell_angle_alpha 90.000000
_cell_angle_beta 90.000000
_cell_angle_gamma 90.000000
_cell_volume 3021.087302
_symmetry_space_group_name_H-M "I M M M"
_symmetry_group_IT_number 71
_symmetry_cell_setting 'orthorhombic'
loop_
_space_group_symop_operation_xyz
x,y,z
-x,-y,z
x,-y,-z
-x,y,-z
-x,-y,-z
x,y,-z
-x,y,z
x,-y,z
1/2+x,1/2+y,1/2+z
1/2-x,1/2-y,1/2+z
1/2+x,1/2-y,1/2-z
1/2-x,1/2+y,1/2-z
1/2-x,1/2-y,1/2-z
1/2+x,1/2+y,1/2-z
1/2-x,1/2+y,1/2+z
1/2+x,1/2-y,1/2+z
loop_
_atom_site_type_symbol
_atom_site_label
_atom_site_fract_x
_atom_site_fract_y
_atom_site_fract_z
Si Si1 0.704668 0.584851 0.843172
Si Si2 0.289676 0.858021 0.212913
Si Si3 0.289981 0.000000 0.128604
Si Si4 0.297420 0.336025 0.500000
Si Si5 0.713382 0.740310 0.882560
Si Si6 0.749640 0.500000 0.500000
O O1 0.500000 0.578137 0.859336
O O2 0.781519 0.500000 0.845905
O O3 0.712787 0.617007 0.775859
O O4 0.778737 0.653927 0.882122
O O5 0.500000 0.852623 0.221071
O O6 0.227349 0.783454 0.177906
O O7 0.254580 0.926449 0.167438
O O8 0.500000 0.000000 0.113620
O O9 0.184877 0.000000 0.067798
O O10 0.500000 0.361366 0.500000
O O11 0.264992 0.286763 0.440988
O O12 0.183861 0.412500 0.500000
O O13 0.500000 0.740074 0.880686
#
# Coordination Sequence:
#
# PCOD9519303 Si02
#       6
#    16  16   8   8  16   4
#     4  10  21  37  58  86 116 149 188 236 290 337
#     4  10  19  34  56  85 116 150 192 232 274 333
#     4  10  19  31  55  88 117 153 194 228 268 329
#     4  12  26  41  59  86 116 145 186 234 286 338
#     4  10  22  40  60  82 113 153 195 232 277 339
#     4  12  22  40  58  82 121 156 187 224 281 336
#
# _framework density 22.508451999999998
#
# number of rings (size 3 to 8) (size 9 to 14) (size 15 to 20)
#    0.000    1.647    3.529    1.412    0.000    2.824 
#    0.000    0.588    0.000    3.529    0.000    0.000 
#    0.000    0.000    0.000    0.000    0.000    0.000 
#
# Total GULP energy -189754.539370 kJ/mol
# GULP energy per Si atom -5581.015864 kJ/mol
# Density = 2.245722 g / cm^3
# Si number density = 22.508452 Si / 1000 Ang^3
#
#
#
# Elastic Constant Matrix: (Units=GPa)
#
#
# Indices 1 2 3 4 5 6 
#
# 1 61.4393 20.6093 2.5799 0.0000 0.0000 0.0000
# 2 20.6093 229.6107 56.8216 0.0000 0.0000 0.0000
# 3 2.5799 56.8216 76.6841 0.0000 0.0000 0.0000
# 4 0.0000 0.0000 0.0000 31.3953 0.0000 0.0000
# 5 0.0000 0.0000 0.0000 0.0000 21.0084 0.0000
# 6 0.0000 0.0000 0.0000 0.0000 0.0000 3.5032
#
#
#
# Elastic Compliance Matrix: (Units=1/GPa)
#
#
# Indices 1 2 3 4 5 6 
#
# 1 0.016810 -0.001676 0.000677 0.000000 0.000000 0.000000
# 2 -0.001676 0.005500 -0.004019 0.000000 0.000000 0.000000
# 3 0.000677 -0.004019 0.015996 0.000000 0.000000 0.000000
# 4 0.000000 0.000000 0.000000 0.031852 0.000000 0.000000
# 5 0.000000 0.000000 0.000000 0.000000 0.047600 0.000000
# 6 0.000000 0.000000 0.000000 0.000000 0.000000 0.285456
#
#
# Mechanical properties :
#
#
# Convention : Reuss Voigt Hill
#
# Bulk Modulus (GPa) = 35.37515 58.63951 47.00733
# Shear Modulus (GPa) = 11.82943 30.36292 21.09618
#
# Velocity S-wave (km/s) = 2.29499 3.67680 3.06478
# Velocity P-wave (km/s) = 4.77212 6.64334 5.78390
#
# Compressibility (1/GPa) = 0.02826843
#
# Stress axis : x y z
#
# Youngs Moduli (GPa) = 59.48807 181.80855 62.51587
#
# Poissons Ratio (x) = 0.30476 -0.04229
# Poissons Ratio (y) = 0.09972 0.25127
# Poissons Ratio (z) = -0.04025 0.73073
#
# Static dielectric constant tensor:
#      x y z
#    x 1.924140 0.000000 0.000000 
#    y 0.000000 1.863570 0.000000 
#    z 0.000000 0.000000 1.771700 
# 
# From -- ./inp_files/12223.got.cif
#   From: 2010.05.17/outbox.cif.g08.bks.cpg/sg71_7_cif.got.tgz:12223.got - 2010.06.03 16:22:01.
