data_PCOD9519598
_publ_section_title
;
Structure prediction by ZEFSAII (Michael W. Deem and Ramdas Pophale) SiO2 
 PCOD9519598
Probable space group: I M M M
;
_chemical_formula_sum "Si O2"
_cell_formula_units_Z 88
_cell_length_a 15.827612
_cell_length_b 26.762748
_cell_length_c 10.951203
_cell_angle_alpha 90.000000
_cell_angle_beta 90.000000
_cell_angle_gamma 90.000000
_cell_volume 4638.824365
_symmetry_space_group_name_H-M "I M M M"
_symmetry_group_IT_number 71
_symmetry_cell_setting 'orthorhombic'
loop_
_space_group_symop_operation_xyz
x,y,z
-x,-y,z
x,-y,-z
-x,y,-z
-x,-y,-z
x,y,-z
-x,y,z
x,-y,z
1/2+x,1/2+y,1/2+z
1/2-x,1/2-y,1/2+z
1/2+x,1/2-y,1/2-z
1/2-x,1/2+y,1/2-z
1/2-x,1/2-y,1/2-z
1/2+x,1/2+y,1/2-z
1/2-x,1/2+y,1/2+z
1/2+x,1/2-y,1/2+z
loop_
_atom_site_type_symbol
_atom_site_label
_atom_site_fract_x
_atom_site_fract_y
_atom_site_fract_z
Si Si1 0.811118 0.730012 0.857217
Si Si2 0.674989 0.439571 0.257613
Si Si3 0.500000 0.150327 0.860990
Si Si4 0.661207 0.883107 0.735176
Si Si5 0.500000 0.555508 0.357548
Si Si6 0.101431 0.443321 0.000000
Si Si7 0.000000 0.271052 0.139335
Si Si8 0.402651 0.559831 0.000000
O O1 0.750000 0.750000 0.750000
O O2 0.821426 0.671489 0.822592
O O3 0.906718 0.753501 0.851972
O O4 0.782554 0.735342 0.000000
O O5 0.686192 0.500000 0.274008
O O6 0.756609 0.408516 0.292857
O O7 0.589340 0.422077 0.323213
O O8 0.652014 0.427735 0.117685
O O9 0.414739 0.120385 0.831683
O O10 0.500000 0.191838 0.754233
O O11 0.500000 0.168902 0.000000
O O12 0.632697 0.916619 0.621436
O O13 0.500000 0.500000 0.295322
O O14 0.500000 0.549592 0.500000
O O15 0.132861 0.500000 0.000000
O O16 0.000000 0.442682 0.000000
O O17 0.000000 0.294131 0.000000
O O18 0.410918 0.500000 0.000000
O O19 0.500000 0.579432 0.000000
#
# Coordination Sequence:
#
# PCOD9519598 Si02
#       8
#    16  16   8  16   8   8   8   8
#     4  10  21  38  62  90 121 159 203 255 305 370
#     4  10  19  32  53  80 109 145 188 239 298 357
#     4  10  22  36  56  86 121 162 204 242 305 381
#     4  11  21  37  60  85 124 157 203 251 311 365
#     4   9  18  33  50  69 100 149 200 232 269 345
#     4  11  21  35  63  98 125 159 212 265 308 369
#     4   8  18  38  67  87 113 156 204 256 306 370
#     4   9  15  27  49  78 107 135 178 233 289 345
#
# _framework density 18.970324000000002
#
# number of rings (size 3 to 8) (size 9 to 14) (size 15 to 20)
#    0.000    2.091    2.727    1.091    1.273    4.364 
#    0.000    0.909    0.000    4.909    0.000    0.000 
#    0.000    0.000    0.000    0.000    0.000    0.000 
#
# Total GULP energy -245009.280996 kJ/mol
# GULP energy per Si atom -5568.392750 kJ/mol
# Density = 1.892715 g / cm^3
# Si number density = 18.970324 Si / 1000 Ang^3
#
#
#
# Elastic Constant Matrix: (Units=GPa)
#
#
# Indices 1 2 3 4 5 6 
#
# 1 145.0362 18.7375 62.5989 -0.0003 0.0025 0.0016
# 2 18.7375 41.4472 23.7428 -0.0009 0.0017 0.0007
# 3 62.5989 23.7428 120.6644 -0.0035 -0.0075 -0.0043
# 4 -0.0003 -0.0009 -0.0035 -12.7947 0.0001 0.0007
# 5 0.0025 0.0017 -0.0075 0.0001 -0.8271 -0.0091
# 6 0.0016 0.0007 -0.0043 0.0007 -0.0091 -19.2001
#
#
#
# Elastic Compliance Matrix: (Units=1/GPa)
#
#
# Indices 1 2 3 4 5 6 
#
# 1 0.008973 -0.001567 -0.004347 0.000001 0.000064 0.000002
# 2 -0.001567 0.027466 -0.004592 -0.000001 0.000093 0.000002
# 3 -0.004347 -0.004592 0.011446 -0.000003 -0.000127 -0.000003
# 4 0.000001 -0.000001 -0.000003 -0.078158 -0.000014 -0.000003
# 5 0.000064 0.000093 -0.000127 -0.000014 -1.209012 0.000576
# 6 0.000002 0.000002 -0.000003 -0.000003 0.000576 -0.052083
#
#
# Mechanical properties :
#
#
# Convention : Reuss Voigt Hill
#
# Bulk Modulus (GPa) = 37.20969 57.47847 47.34408
# Shear Modulus (GPa) = -3.96385 6.90686 1.47150
#
# Velocity S-wave (km/s) = -1.44708 1.91018 0.88169
# Velocity P-wave (km/s) = 4.10673 5.93548 5.10368
#
# Compressibility (1/GPa) = 0.02687472
#
# Stress axis : x y z
#
# Youngs Moduli (GPa) = 111.44010 36.40918 87.36598
#
# Poissons Ratio (x) = 0.05704 0.37978
# Poissons Ratio (y) = 0.17458 0.40115
# Poissons Ratio (z) = 0.48443 0.16718
#
# Static dielectric constant tensor:
#      x y z
#    x 1.772260 0.000000 0.000000 
#    y 0.000000 1.672360 0.000000 
#    z 0.000000 0.000000 1.655410 
# 
# From -- ./inp_files/22401.got.cif
#   From: 2010.05.17/outbox.cif.g08.bks.cpg/sg71_12_cif.got.tgz:22401.got - 2010.06.03 16:22:01.
