data_PCOD9519091
_publ_section_title
;
Structure prediction by ZEFSAII (Michael W. Deem and Ramdas Pophale) SiO2 
 PCOD9519091
Probable space group: I M M M
;
_chemical_formula_sum "Si O2"
_cell_formula_units_Z 104
_cell_length_a 28.273927
_cell_length_b 7.392892
_cell_length_c 27.327684
_cell_angle_alpha 90.000000
_cell_angle_beta 90.000000
_cell_angle_gamma 90.000000
_cell_volume 5712.198900
_symmetry_space_group_name_H-M "I M M M"
_symmetry_group_IT_number 71
_symmetry_cell_setting 'orthorhombic'
loop_
_space_group_symop_operation_xyz
x,y,z
-x,-y,z
x,-y,-z
-x,y,-z
-x,-y,-z
x,y,-z
-x,y,z
x,-y,z
1/2+x,1/2+y,1/2+z
1/2-x,1/2-y,1/2+z
1/2+x,1/2-y,1/2-z
1/2-x,1/2+y,1/2-z
1/2-x,1/2-y,1/2-z
1/2+x,1/2+y,1/2-z
1/2-x,1/2+y,1/2+z
1/2+x,1/2-y,1/2+z
loop_
_atom_site_type_symbol
_atom_site_label
_atom_site_fract_x
_atom_site_fract_y
_atom_site_fract_z
Si Si1 0.775942 0.210515 0.368129
Si Si2 0.100870 0.717126 0.753765
Si Si3 0.144365 0.000000 0.114348
Si Si4 0.765544 0.000000 0.942598
Si Si5 0.114026 0.282538 0.353745
Si Si6 0.688126 0.786031 0.687084
Si Si7 0.944467 0.000000 0.827005
Si Si8 0.945248 0.720455 0.445815
O O1 0.757424 0.331314 0.413214
O O2 0.830761 0.239326 0.357813
O O3 0.743164 0.259516 0.320848
O O4 0.768210 0.000000 0.379043
O O5 0.093318 0.500000 0.758155
O O6 0.092639 0.776507 0.698140
O O7 0.156497 0.756534 0.765692
O O8 0.070783 0.828647 0.793189
O O9 0.177350 0.000000 0.066392
O O10 0.162599 0.825428 0.144322
O O11 0.088124 0.000000 0.123870
O O12 0.754862 0.000000 0.000000
O O13 0.110391 0.500000 0.353481
O O14 0.086354 0.214804 0.401156
O O15 0.683373 0.000000 0.680168
O O16 0.000000 0.000000 0.836750
O O17 0.929181 0.777278 0.500000
O O18 0.944142 0.500000 0.445467
O O19 0.000000 0.772582 0.439805
#
# Coordination Sequence:
#
# PCOD9519091 Si02
#       8
#    16  16   8   8  16  16   8  16
#     4  10  20  33  50  74 104 136 169 205 251 301
#     4   9  19  33  49  73 104 136 171 209 252 299
#     4   8  16  32  52  73 102 136 168 206 252 304
#     4  10  20  36  56  77 103 136 175 213 252 304
#     4  10  19  31  48  74 100 128 166 215 256 299
#     4   8  15  30  48  68  99 137 170 199 237 302
#     4  10  20  34  54  79 105 136 173 211 258 312
#     4   8  15  29  48  66  84 115 159 202 249 302
#
# _framework density 18.206648999999999
#
# number of rings (size 3 to 8) (size 9 to 14) (size 15 to 20)
#    0.000    2.923    0.769    0.462    1.077    2.462 
#    0.000    1.538    0.000    0.231    0.000    1.077 
#    0.000    0.000    0.000   22.615    0.000    0.000 
#
# Total GULP energy -289544.710847 kJ/mol
# GULP energy per Si atom -5568.167516 kJ/mol
# Density = 1.816521 g / cm^3
# Si number density = 18.206649 Si / 1000 Ang^3
#
#
#
# Elastic Constant Matrix: (Units=GPa)
#
#
# Indices 1 2 3 4 5 6 
#
# 1 57.8288 -7.2069 -13.8905 0.0000 0.0000 0.0000
# 2 -7.2069 52.3784 2.4727 0.0000 0.0000 0.0000
# 3 -13.8905 2.4727 23.4717 0.0000 0.0000 0.0000
# 4 0.0000 0.0000 0.0000 -16.5531 0.0000 0.0000
# 5 0.0000 0.0000 0.0000 0.0000 22.5267 0.0000
# 6 0.0000 0.0000 0.0000 0.0000 0.0000 447.5558
#
#
#
# Elastic Compliance Matrix: (Units=1/GPa)
#
#
# Indices 1 2 3 4 5 6 
#
# 1 0.020418 0.002250 0.011846 0.000000 0.000000 0.000000
# 2 0.002250 0.019435 -0.000716 0.000000 0.000000 0.000000
# 3 0.011846 -0.000716 0.049691 0.000000 0.000000 0.000000
# 4 0.000000 0.000000 0.000000 -0.060412 0.000000 0.000000
# 5 0.000000 0.000000 0.000000 0.000000 0.044392 0.000000
# 6 0.000000 0.000000 0.000000 0.000000 0.000000 0.002234
#
#
# Mechanical properties :
#
#
# Convention : Reuss Voigt Hill
#
# Bulk Modulus (GPa) = 8.59803 10.71441 9.65622
# Shear Modulus (GPa) = 56.96990 100.85945 78.91467
#
# Velocity S-wave (km/s) = 5.59988 7.45099 6.59075
# Velocity P-wave (km/s) = 6.82233 8.93984 7.95189
#
# Compressibility (1/GPa) = 0.11630570
#
# Stress axis : x y z
#
# Youngs Moduli (GPa) = 48.97552 51.45297 20.12455
#
# Poissons Ratio (x) = -0.11578 -0.23840
# Poissons Ratio (y) = -0.11020 0.01441
# Poissons Ratio (z) = -0.58019 0.03683
#
# Static dielectric constant tensor:
#      x y z
#    x 1.644560 0.000000 0.000000 
#    y 0.000000 1.663450 0.000000 
#    z 0.000000 0.000000 1.616290 
# 
# From -- ./inp_files/66887.got.cif
#   From: 2010.05.17/outbox.cif.g08.bks.cpg/sg71_34_cif.got.tgz:66887.got - 2010.06.03 16:22:01.
