data_PCOD9519185
_publ_section_title
;
Structure prediction by ZEFSAII (Michael W. Deem and Ramdas Pophale) SiO2 
 PCOD9519185
Probable space group: I M M M
;
_chemical_formula_sum "Si O2"
_cell_formula_units_Z 120
_cell_length_a 23.669679
_cell_length_b 14.224015
_cell_length_c 22.049902
_cell_angle_alpha 90.000000
_cell_angle_beta 90.000000
_cell_angle_gamma 90.000000
_cell_volume 7423.714020
_symmetry_space_group_name_H-M "I M M M"
_symmetry_group_IT_number 71
_symmetry_cell_setting 'orthorhombic'
loop_
_space_group_symop_operation_xyz
x,y,z
-x,-y,z
x,-y,-z
-x,y,-z
-x,-y,-z
x,y,-z
-x,y,z
x,-y,z
1/2+x,1/2+y,1/2+z
1/2-x,1/2-y,1/2+z
1/2+x,1/2-y,1/2-z
1/2-x,1/2+y,1/2-z
1/2-x,1/2-y,1/2-z
1/2+x,1/2+y,1/2-z
1/2-x,1/2+y,1/2+z
1/2+x,1/2-y,1/2+z
loop_
_atom_site_type_symbol
_atom_site_label
_atom_site_fract_x
_atom_site_fract_y
_atom_site_fract_z
Si Si1 0.763134 0.610555 0.753987
Si Si2 0.065482 0.744744 0.666914
Si Si3 0.393246 0.886972 0.932325
Si Si4 0.771659 0.610414 0.607829
Si Si5 0.645471 0.385465 0.610136
Si Si6 0.564169 0.386190 0.500000
Si Si7 0.068620 0.108026 0.566996
Si Si8 0.655726 0.272580 0.730723
O O1 0.764639 0.500000 0.769246
O O2 0.774864 0.618786 0.681077
O O3 0.701857 0.658294 0.762472
O O4 0.808957 0.678181 0.785222
O O5 0.071535 0.655000 0.622959
O O6 0.086083 0.828104 0.622498
O O7 0.105622 0.743979 0.724677
O O8 0.000000 0.758691 0.683270
O O9 0.328597 0.851689 0.922140
O O10 0.393479 0.000000 0.928770
O O11 0.413308 0.861206 0.000000
O O12 0.771904 0.500000 0.592804
O O13 0.709142 0.643329 0.589932
O O14 0.645778 0.500000 0.619601
O O15 0.599780 0.361080 0.559550
O O16 0.634958 0.330587 0.672508
O O17 0.561847 0.500000 0.500000
O O18 0.500000 0.350779 0.500000
O O19 0.087901 0.138863 0.500000
O O20 0.000000 0.111499 0.566125
O O21 0.085100 0.000000 0.575296
#
# Coordination Sequence:
#
# PCOD9519185 Si02
#       8
#    16  16  16  16  16   8  16  16
#     4   9  17  32  52  71  99 131 163 205 254 305
#     4  11  22  33  46  68 100 134 168 207 246 293
#     4  10  20  32  48  71 100 135 172 211 250 288
#     4   8  14  27  46  68  94 124 160 203 244 282
#     4   9  18  31  50  76 104 131 161 200 246 305
#     4   9  18  32  50  74 107 143 166 188 242 315
#     4   8  15  29  46  60  79 117 167 208 239 274
#     4  10  19  31  50  75  99 129 168 202 254 301
#
# _framework density 16.164415999999999
#
# number of rings (size 3 to 8) (size 9 to 14) (size 15 to 20)
#    0.000    2.733    1.333    2.000    0.933    2.667 
#    0.000    0.667    0.000    0.000    0.000    0.467 
#    0.000    0.533    0.000    0.000    0.000    0.000 
#
# Total GULP energy -334047.367515 kJ/mol
# GULP energy per Si atom -5567.456125 kJ/mol
# Density = 1.612763 g / cm^3
# Si number density = 16.164416 Si / 1000 Ang^3
#
#
#
# Elastic Constant Matrix: (Units=GPa)
#
#
# Indices 1 2 3 4 5 6 
#
# 1 70.4447 20.3515 43.0927 0.0000 0.0000 0.0000
# 2 20.3515 73.5299 23.4799 0.0000 0.0000 0.0000
# 3 43.0927 23.4799 66.9031 0.0000 0.0000 0.0000
# 4 0.0000 0.0000 0.0000 49.9452 0.0000 0.0000
# 5 0.0000 0.0000 0.0000 0.0000 12.9258 0.0000
# 6 0.0000 0.0000 0.0000 0.0000 0.0000 15.9593
#
#
#
# Elastic Compliance Matrix: (Units=1/GPa)
#
#
# Indices 1 2 3 4 5 6 
#
# 1 0.023658 -0.001894 -0.014573 0.000000 0.000000 0.000000
# 2 -0.001894 0.015468 -0.004208 0.000000 0.000000 0.000000
# 3 -0.014573 -0.004208 0.025811 0.000000 0.000000 0.000000
# 4 0.000000 0.000000 0.000000 0.020022 0.000000 0.000000
# 5 0.000000 0.000000 0.000000 0.000000 0.077365 0.000000
# 6 0.000000 0.000000 0.000000 0.000000 0.000000 0.062659
#
#
# Mechanical properties :
#
#
# Convention : Reuss Voigt Hill
#
# Bulk Modulus (GPa) = 42.40088 42.74731 42.57410
# Shear Modulus (GPa) = 18.23516 24.02962 21.13239
#
# Velocity S-wave (km/s) = 3.36237 3.85980 3.61964
# Velocity P-wave (km/s) = 6.43133 6.80931 6.62302
#
# Compressibility (1/GPa) = 0.02358442
#
# Stress axis : x y z
#
# Youngs Moduli (GPa) = 42.26983 64.64931 38.74380
#
# Poissons Ratio (x) = 0.12247 0.56462
# Poissons Ratio (y) = 0.08007 0.16305
# Poissons Ratio (z) = 0.61600 0.27207
#
# Static dielectric constant tensor:
#      x y z
#    x 1.565330 0.000000 0.000000 
#    y 0.000000 1.558360 0.000000 
#    z 0.000000 0.000000 1.553970 
# 
# From -- ./inp_files/55905.got.cif
#   From: 2010.05.17/outbox.cif.g08.bks.cpg/sg71_28_cif.got.tgz:55905.got - 2010.06.03 16:22:01.
