data_PCOD9519030
_publ_section_title
;
Structure prediction by ZEFSAII (Michael W. Deem and Ramdas Pophale) SiO2 
 PCOD9519030
Probable space group: I M M M
;
_chemical_formula_sum "Si O2"
_cell_formula_units_Z 96
_cell_length_a 27.422865
_cell_length_b 14.183634
_cell_length_c 13.823732
_cell_angle_alpha 90.000000
_cell_angle_beta 90.000000
_cell_angle_gamma 90.000000
_cell_volume 5376.821850
_symmetry_space_group_name_H-M "I M M M"
_symmetry_group_IT_number 71
_symmetry_cell_setting 'orthorhombic'
loop_
_space_group_symop_operation_xyz
x,y,z
-x,-y,z
x,-y,-z
-x,y,-z
-x,-y,-z
x,y,-z
-x,y,z
x,-y,z
1/2+x,1/2+y,1/2+z
1/2-x,1/2-y,1/2+z
1/2+x,1/2-y,1/2-z
1/2-x,1/2+y,1/2-z
1/2-x,1/2-y,1/2-z
1/2+x,1/2+y,1/2-z
1/2-x,1/2+y,1/2+z
1/2+x,1/2-y,1/2+z
loop_
_atom_site_type_symbol
_atom_site_label
_atom_site_fract_x
_atom_site_fract_y
_atom_site_fract_z
Si Si1 0.943307 0.385850 0.893579
Si Si2 0.901201 0.609657 0.689549
Si Si3 0.749320 0.213137 0.613835
Si Si4 0.553686 0.709435 0.886079
Si Si5 0.788262 0.610251 0.708509
Si Si6 0.650047 0.393007 0.117289
O O1 0.942622 0.500000 0.896763
O O2 0.911916 0.360382 0.800538
O O3 0.000000 0.358284 0.879284
O O4 0.927208 0.352213 0.000000
O O5 0.915392 0.500000 0.678018
O O6 0.932149 0.681322 0.626086
O O7 0.843645 0.617108 0.669936
O O8 0.739845 0.202136 0.500000
O O9 0.753580 0.322160 0.645290
O O10 0.713882 0.154415 0.683603
O O11 0.802770 0.169710 0.638183
O O12 0.500000 0.690481 0.844264
O O13 0.599512 0.651001 0.845583
O O14 0.551353 0.687740 0.000000
O O15 0.774870 0.500000 0.710000
O O16 0.656887 0.500000 0.150878
O O17 0.647213 0.394836 0.000000
#
# Coordination Sequence:
#
# PCOD9519030 Si02
#       6
#    16  16  16  16  16  16
#     4   8  14  25  41  61  87 123 164 200 236 280
#     4  10  19  31  47  69 100 134 164 200 248 300
#     4  10  20  36  55  76 105 138 172 211 259 313
#     4  10  20  32  46  69 101 134 171 210 245 292
#     4  10  21  34  52  79 105 133 172 214 257 310
#     4   9  17  31  51  71  93 127 167 207 254 300
#
# _framework density 17.854413999999998
#
# number of rings (size 3 to 8) (size 9 to 14) (size 15 to 20)
#    0.000    2.500    1.667    1.500    0.000    3.667 
#    0.000    5.833    0.000    0.000    0.000    0.000 
#    0.000    0.667    0.000    3.500    0.000    0.333 
#
# Total GULP energy -267363.868108 kJ/mol
# GULP energy per Si atom -5570.080586 kJ/mol
# Density = 1.781378 g / cm^3
# Si number density = 17.854414 Si / 1000 Ang^3
#
#
#
# Elastic Constant Matrix: (Units=GPa)
#
#
# Indices 1 2 3 4 5 6 
#
# 1 34.7535 1.8856 -5.0279 0.0000 0.0000 0.0000
# 2 1.8856 71.3270 -4.5302 0.0000 0.0000 0.0000
# 3 -5.0279 -4.5302 16.0051 0.0000 0.0000 0.0000
# 4 0.0000 0.0000 0.0000 15.3489 0.0000 0.0000
# 5 0.0000 0.0000 0.0000 0.0000 20.8081 0.0000
# 6 0.0000 0.0000 0.0000 0.0000 0.0000 7.3221
#
#
#
# Elastic Compliance Matrix: (Units=1/GPa)
#
#
# Indices 1 2 3 4 5 6 
#
# 1 0.030147 -0.000199 0.009414 0.000000 0.000000 0.000000
# 2 -0.000199 0.014278 0.003979 0.000000 0.000000 0.000000
# 3 0.009414 0.003979 0.066564 0.000000 0.000000 0.000000
# 4 0.000000 0.000000 0.000000 0.065151 0.000000 0.000000
# 5 0.000000 0.000000 0.000000 0.000000 0.048058 0.000000
# 6 0.000000 0.000000 0.000000 0.000000 0.000000 0.136572
#
#
# Mechanical properties :
#
#
# Convention : Reuss Voigt Hill
#
# Bulk Modulus (GPa) = 7.27926 11.86005 9.56965
# Shear Modulus (GPa) = 13.15185 17.34637 15.24911
#
# Velocity S-wave (km/s) = 2.71701 3.12034 2.92564
# Velocity P-wave (km/s) = 3.73212 4.43160 4.09682
#
# Compressibility (1/GPa) = 0.13737664
#
# Stress axis : x y z
#
# Youngs Moduli (GPa) = 33.17097 70.03825 15.02316
#
# Poissons Ratio (x) = 0.01394 -0.14143
# Poissons Ratio (y) = 0.00660 -0.05977
# Poissons Ratio (z) = -0.31228 -0.27867
#
# Static dielectric constant tensor:
#      x y z
#    x 1.636160 0.000000 0.000000 
#    y 0.000000 1.616950 0.000000 
#    z 0.000000 0.000000 1.638870 
# 
# From -- ./inp_files/35278.got.cif
#   From: 2010.05.17/outbox.cif.g08.bks.cpg/sg71_18_cif.got.tgz:35278.got - 2010.06.03 16:22:01.
