data_PCOD9519851
_publ_section_title
;
Structure prediction by ZEFSAII (Michael W. Deem and Ramdas Pophale) SiO2 
 PCOD9519851
Probable space group: I M M M
;
_chemical_formula_sum "Si O2"
_cell_formula_units_Z 90
_cell_length_a 7.856914
_cell_length_b 28.512848
_cell_length_c 21.296852
_cell_angle_alpha 90.000000
_cell_angle_beta 90.000000
_cell_angle_gamma 90.000000
_cell_volume 4770.984561
_symmetry_space_group_name_H-M "I M M M"
_symmetry_group_IT_number 71
_symmetry_cell_setting 'orthorhombic'
loop_
_space_group_symop_operation_xyz
x,y,z
-x,-y,z
x,-y,-z
-x,y,-z
-x,-y,-z
x,y,-z
-x,y,z
x,-y,z
1/2+x,1/2+y,1/2+z
1/2-x,1/2-y,1/2+z
1/2+x,1/2-y,1/2-z
1/2-x,1/2+y,1/2-z
1/2-x,1/2-y,1/2-z
1/2+x,1/2+y,1/2-z
1/2-x,1/2+y,1/2+z
1/2+x,1/2-y,1/2+z
loop_
_atom_site_type_symbol
_atom_site_label
_atom_site_fract_x
_atom_site_fract_y
_atom_site_fract_z
Si Si1 0.706642 0.053937 0.169886
Si Si2 0.500000 0.500000 0.000000
Si Si3 0.205422 0.187371 0.699881
Si Si4 0.297550 0.131044 0.070779
Si Si5 0.689191 0.000000 0.399052
Si Si6 0.201862 0.786692 0.839761
Si Si7 0.798266 0.082764 0.689120
O O1 0.500000 0.055538 0.171587
O O2 0.768654 0.090003 0.116616
O O3 0.770586 0.070144 0.237929
O O4 0.756803 0.000000 0.158182
O O5 0.348006 0.500000 0.945945
O O6 0.268736 0.196496 0.771276
O O7 0.258620 0.231502 0.657966
O O8 0.261738 0.136099 0.678567
O O9 0.000000 0.186940 0.702251
O O10 0.500000 0.123520 0.066403
O O11 0.271302 0.180568 0.105508
O O12 0.227589 0.130325 0.000000
O O13 0.707007 0.954750 0.354242
O O14 0.500000 0.000000 0.427334
O O15 0.000000 0.792911 0.839442
O O16 0.000000 0.080369 0.676127
#
# Coordination Sequence:
#
# PCOD9519851 Si02
#       7
#    16   2  16  16   8  16  16
#     4  10  20  33  53  84 118 154 203 258 308 359
#     4  12  26  52  68  98 132 168 208 248 296 390
#     4   9  19  33  55  84 117 147 185 245 311 359
#     4  10  21  36  54  76 113 164 210 250 305 374
#     4  12  25  43  71  98 128 168 209 249 306 373
#     4  10  19  33  53  81 110 147 194 248 303 362
#     4  11  20  36  60  93 126 156 198 253 311 367
#
# _framework density 18.864031000000001
#
# number of rings (size 3 to 8) (size 9 to 14) (size 15 to 20)
#    0.000    1.778    3.556    1.200    0.000    2.844 
#    0.000    1.778    1.956    0.000    0.000    2.489 
#    0.000    0.000    0.000    0.000    0.000    0.000 
#
# Total GULP energy -250952.768736 kJ/mol
# GULP energy per Si atom -5576.728194 kJ/mol
# Density = 1.882110 g / cm^3
# Si number density = 18.864031 Si / 1000 Ang^3
#
#
#
# Elastic Constant Matrix: (Units=GPa)
#
#
# Indices 1 2 3 4 5 6 
#
# 1 59.8610 17.0775 19.4435 0.0000 0.0000 0.0000
# 2 17.0775 150.5513 61.7009 0.0000 0.0000 0.0000
# 3 19.4435 61.7009 110.1648 0.0000 0.0000 0.0000
# 4 0.0000 0.0000 0.0000 -33.4075 0.0000 0.0000
# 5 0.0000 0.0000 0.0000 0.0000 23.7327 0.0000
# 6 0.0000 0.0000 0.0000 0.0000 0.0000 12.1798
#
#
#
# Elastic Compliance Matrix: (Units=1/GPa)
#
#
# Indices 1 2 3 4 5 6 
#
# 1 0.017826 -0.000951 -0.002614 0.000000 0.000000 0.000000
# 2 -0.000951 0.008672 -0.004689 0.000000 0.000000 0.000000
# 3 -0.002614 -0.004689 0.012165 0.000000 0.000000 0.000000
# 4 0.000000 0.000000 0.000000 -0.029933 0.000000 0.000000
# 5 0.000000 0.000000 0.000000 0.000000 0.042136 0.000000
# 6 0.000000 0.000000 0.000000 0.000000 0.000000 0.082103
#
#
# Mechanical properties :
#
#
# Convention : Reuss Voigt Hill
#
# Bulk Modulus (GPa) = 45.13612 57.44676 51.29144
# Shear Modulus (GPa) = 31.87558 15.32470 23.60014
#
# Velocity S-wave (km/s) = 4.11512 2.85331 3.54088
# Velocity P-wave (km/s) = 6.82334 6.43229 6.63070
#
# Compressibility (1/GPa) = 0.02215521
#
# Stress axis : x y z
#
# Youngs Moduli (GPa) = 56.09926 115.31546 82.20416
#
# Poissons Ratio (x) = 0.10965 0.21484
# Poissons Ratio (y) = 0.05334 0.38546
# Poissons Ratio (z) = 0.14662 0.54072
#
# Static dielectric constant tensor:
#      x y z
#    x 1.671720 0.000000 0.000000 
#    y 0.000000 1.657740 0.000000 
#    z 0.000000 0.000000 1.625940 
# 
# From -- ./inp_files/50850.got.cif
#   From: 2010.05.17/outbox.cif.g08.bks.cpg/sg71_26_cif.got.tgz:50850.got - 2010.06.03 16:22:01.
