data_PCOD9519775
_publ_section_title
;
Structure prediction by ZEFSAII (Michael W. Deem and Ramdas Pophale) SiO2 
 PCOD9519775
Probable space group: I M M M
;
_chemical_formula_sum "Si O2"
_cell_formula_units_Z 88
_cell_length_a 10.603417
_cell_length_b 30.252102
_cell_length_c 13.827409
_cell_angle_alpha 90.000000
_cell_angle_beta 90.000000
_cell_angle_gamma 90.000000
_cell_volume 4435.496146
_symmetry_space_group_name_H-M "I M M M"
_symmetry_group_IT_number 71
_symmetry_cell_setting 'orthorhombic'
loop_
_space_group_symop_operation_xyz
x,y,z
-x,-y,z
x,-y,-z
-x,y,-z
-x,-y,-z
x,y,-z
-x,y,z
x,-y,z
1/2+x,1/2+y,1/2+z
1/2-x,1/2-y,1/2+z
1/2+x,1/2-y,1/2-z
1/2-x,1/2+y,1/2-z
1/2-x,1/2-y,1/2-z
1/2+x,1/2+y,1/2-z
1/2-x,1/2+y,1/2+z
1/2+x,1/2-y,1/2+z
loop_
_atom_site_type_symbol
_atom_site_label
_atom_site_fract_x
_atom_site_fract_y
_atom_site_fract_z
Si Si1 0.852184 0.360385 0.383693
Si Si2 0.645082 0.048587 0.793251
Si Si3 0.236491 0.407055 0.884452
Si Si4 0.853854 0.688604 0.116770
Si Si5 0.853407 0.787812 0.881944
Si Si6 0.000000 0.949968 0.616746
O O1 0.853438 0.360322 0.500000
O O2 0.804111 0.408224 0.347661
O O3 0.754300 0.322389 0.351903
O O4 0.000000 0.353921 0.353082
O O5 0.500000 0.045966 0.824880
O O6 0.649280 0.061730 0.680303
O O7 0.702939 0.000000 0.808589
O O8 0.217706 0.356005 0.856220
O O9 0.375427 0.423500 0.858011
O O10 0.215770 0.411541 0.000000
O O11 0.817397 0.737794 0.148549
O O12 0.000000 0.682170 0.142456
O O13 0.846809 0.689872 0.000000
O O14 0.000000 0.796541 0.851602
O O15 0.855777 0.788507 0.000000
O O16 0.000000 0.953002 0.500000
O O17 0.000000 0.000000 0.654892
#
# Coordination Sequence:
#
# PCOD9519775 Si02
#       6
#    16  16  16  16  16   8
#     4   9  18  34  54  76 104 138 172 211 261 311
#     4  10  21  35  52  76 102 129 169 218 262 305
#     4  10  19  33  52  74 102 136 172 209 252 304
#     4   8  14  26  47  75 104 133 164 203 254 305
#     4   8  14  28  51  77 104 135 171 210 254 308
#     4   9  18  32  48  66  95 139 181 211 247 297
#
# _framework density 19.839946000000001
#
# number of rings (size 3 to 8) (size 9 to 14) (size 15 to 20)
#    0.000    3.000    0.000    2.182    0.000    2.545 
#    3.273    3.636    0.000    0.000    0.000    2.545 
#    0.000    0.000    0.000    0.000    0.000    0.000 
#
# Total GULP energy -245107.901922 kJ/mol
# GULP energy per Si atom -5570.634135 kJ/mol
# Density = 1.979479 g / cm^3
# Si number density = 19.839946 Si / 1000 Ang^3
#
#
#
# Elastic Constant Matrix: (Units=GPa)
#
#
# Indices 1 2 3 4 5 6 
#
# 1 79.4928 94.6128 1.8401 0.0000 0.0002 0.0000
# 2 94.6128 226.7062 23.3447 0.0000 0.0003 0.0000
# 3 1.8401 23.3447 38.4765 0.0001 0.0012 -0.0001
# 4 0.0000 0.0000 0.0001 21.2572 0.0004 0.0000
# 5 0.0002 0.0003 0.0012 0.0004 -54.0100 0.0000
# 6 0.0000 0.0000 -0.0001 0.0000 0.0000 19.9679
#
#
#
# Elastic Compliance Matrix: (Units=1/GPa)
#
#
# Indices 1 2 3 4 5 6 
#
# 1 0.026126 -0.011493 0.005723 0.000000 0.000000 0.000000
# 2 -0.011493 0.009760 -0.005372 0.000000 0.000000 0.000000
# 3 0.005723 -0.005372 0.028976 0.000000 0.000001 0.000000
# 4 0.000000 0.000000 0.000000 0.047043 0.000000 0.000000
# 5 0.000000 0.000000 0.000001 0.000000 -0.018515 0.000000
# 6 0.000000 0.000000 0.000000 0.000000 0.000000 0.050080
#
#
# Mechanical properties :
#
#
# Convention : Reuss Voigt Hill
#
# Bulk Modulus (GPa) = 23.48576 64.91896 44.20236
# Shear Modulus (GPa) = 27.78605 12.43488 20.11047
#
# Velocity S-wave (km/s) = 3.74640 2.50623 3.18722
# Velocity P-wave (km/s) = 5.52968 6.41618 5.98935
#
# Compressibility (1/GPa) = 0.04257900
#
# Stress axis : x y z
#
# Youngs Moduli (GPa) = 38.27621 102.45377 34.51170
#
# Poissons Ratio (x) = 1.17746 -0.19753
# Poissons Ratio (y) = 0.43989 0.18541
# Poissons Ratio (z) = -0.21907 0.55041
#
# Static dielectric constant tensor:
#      x y z
#    x 1.743460 0.000000 0.000000 
#    y 0.000000 1.717720 0.000000 
#    z 0.000000 0.000000 1.728860 
# 
# From -- ./inp_files/22264.got.cif
#   From: 2010.05.17/outbox.cif.g08.bks.cpg/sg71_12_cif.got.tgz:22264.got - 2010.06.03 16:22:01.
