data_PCOD9519162
_publ_section_title
;
Structure prediction by ZEFSAII (Michael W. Deem and Ramdas Pophale) SiO2 
 PCOD9519162
Probable space group: I M M M
;
_chemical_formula_sum "Si O2"
_cell_formula_units_Z 80
_cell_length_a 15.775734
_cell_length_b 16.308556
_cell_length_c 15.962818
_cell_angle_alpha 90.000000
_cell_angle_beta 90.000000
_cell_angle_gamma 90.000000
_cell_volume 4106.904898
_symmetry_space_group_name_H-M "I M M M"
_symmetry_group_IT_number 71
_symmetry_cell_setting 'orthorhombic'
loop_
_space_group_symop_operation_xyz
x,y,z
-x,-y,z
x,-y,-z
-x,y,-z
-x,-y,-z
x,y,-z
-x,y,z
x,-y,z
1/2+x,1/2+y,1/2+z
1/2-x,1/2-y,1/2+z
1/2+x,1/2-y,1/2-z
1/2-x,1/2+y,1/2-z
1/2-x,1/2-y,1/2-z
1/2+x,1/2+y,1/2-z
1/2-x,1/2+y,1/2+z
1/2+x,1/2-y,1/2+z
loop_
_atom_site_type_symbol
_atom_site_label
_atom_site_fract_x
_atom_site_fract_y
_atom_site_fract_z
Si Si1 0.091730 0.901367 0.725787
Si Si2 0.871511 0.094103 0.090673
Si Si3 0.749624 0.693954 0.166634
Si Si4 0.815653 0.648506 0.591387
Si Si5 0.400835 0.098366 0.264796
O O1 0.096954 0.869434 0.822034
O O2 0.171831 0.868164 0.676771
O O3 0.000000 0.877158 0.690739
O O4 0.096070 0.000000 0.728960
O O5 0.769578 0.094391 0.097233
O O6 0.900771 0.000000 0.089003
O O7 0.893953 0.131426 0.000000
O O8 0.750000 0.750000 0.250000
O O9 0.723782 0.759810 0.097200
O O10 0.837836 0.645056 0.170994
O O11 0.855571 0.635606 0.500000
O O12 0.873682 0.628249 0.671142
O O13 0.500000 0.115807 0.278896
O O14 0.387762 0.000000 0.269141
#
# Coordination Sequence:
#
# PCOD9519162 Si02
#       5
#    16  16  16  16  16
#     4  10  19  31  50  73  97 131 172 211 256 304
#     4   9  16  28  47  71 102 134 162 197 244 302
#     4  10  19  33  51  75 103 137 171 219 258 311
#     4  10  20  34  51  76 107 140 172 210 264 317
#     4  10  20  34  55  81 107 141 182 219 260 313
#
# _framework density 19.479389000000001
#
# number of rings (size 3 to 8) (size 9 to 14) (size 15 to 20)
#    0.000    2.200    4.000    1.200    0.000    5.200 
#    0.000    3.000    0.000    3.000    0.000    2.800 
#    0.000    0.000    0.000    0.000    0.000    0.000 
#
# Total GULP energy -222799.033558 kJ/mol
# GULP energy per Si atom -5569.975839 kJ/mol
# Density = 1.943505 g / cm^3
# Si number density = 19.479389 Si / 1000 Ang^3
#
#
#
# Elastic Constant Matrix: (Units=GPa)
#
#
# Indices 1 2 3 4 5 6 
#
# 1 130.7981 48.2969 4.0648 0.0000 0.0000 0.0000
# 2 48.2969 70.4598 8.9884 0.0000 0.0000 0.0000
# 3 4.0648 8.9884 19.1295 0.0000 0.0000 0.0000
# 4 0.0000 0.0000 0.0000 14.1838 0.0000 0.0000
# 5 0.0000 0.0000 0.0000 0.0000 10.3369 0.0000
# 6 0.0000 0.0000 0.0000 0.0000 0.0000 8.0028
#
#
#
# Elastic Compliance Matrix: (Units=1/GPa)
#
#
# Indices 1 2 3 4 5 6 
#
# 1 0.010262 -0.007187 0.001196 0.000000 0.000000 0.000000
# 2 -0.007187 0.020130 -0.007932 0.000000 0.000000 0.000000
# 3 0.001196 -0.007932 0.055748 0.000000 0.000000 0.000000
# 4 0.000000 0.000000 0.000000 0.070503 0.000000 0.000000
# 5 0.000000 0.000000 0.000000 0.000000 0.096741 0.000000
# 6 0.000000 0.000000 0.000000 0.000000 0.000000 0.124956
#
#
# Mechanical properties :
#
#
# Convention : Reuss Voigt Hill
#
# Bulk Modulus (GPa) = 17.15379 38.12083 27.63731
# Shear Modulus (GPa) = 11.74770 17.10720 14.42745
#
# Velocity S-wave (km/s) = 2.45844 2.96669 2.72444
# Velocity P-wave (km/s) = 4.10899 5.59887 4.91076
#
# Compressibility (1/GPa) = 0.05829616
#
# Stress axis : x y z
#
# Youngs Moduli (GPa) = 97.44850 49.67616 17.93793
#
# Poissons Ratio (x) = 0.35700 -0.02146
# Poissons Ratio (y) = 0.70032 0.14228
# Poissons Ratio (z) = -0.11657 0.39401
#
# Static dielectric constant tensor:
#      x y z
#    x 1.706050 0.000000 0.000000 
#    y 0.000000 1.747900 0.000000 
#    z 0.000000 0.000000 1.701750 
# 
# From -- ./inp_files/34261.got.cif
#   From: 2010.05.17/outbox.cif.g08.bks.cpg/sg71_18_cif.got.tgz:34261.got - 2010.06.03 16:22:01.
