data_PCOD9519770
_publ_section_title
;
Structure prediction by ZEFSAII (Michael W. Deem and Ramdas Pophale) SiO2 
 PCOD9519770
Probable space group: I M M M
;
_chemical_formula_sum "Si O2"
_cell_formula_units_Z 80
_cell_length_a 28.391997
_cell_length_b 14.714374
_cell_length_c 8.406785
_cell_angle_alpha 90.000000
_cell_angle_beta 90.000000
_cell_angle_gamma 90.000000
_cell_volume 3512.106457
_symmetry_space_group_name_H-M "I M M M"
_symmetry_group_IT_number 71
_symmetry_cell_setting 'orthorhombic'
loop_
_space_group_symop_operation_xyz
x,y,z
-x,-y,z
x,-y,-z
-x,y,-z
-x,-y,-z
x,y,-z
-x,y,z
x,-y,z
1/2+x,1/2+y,1/2+z
1/2-x,1/2-y,1/2+z
1/2+x,1/2-y,1/2-z
1/2-x,1/2+y,1/2-z
1/2-x,1/2-y,1/2-z
1/2+x,1/2+y,1/2-z
1/2-x,1/2+y,1/2+z
1/2+x,1/2-y,1/2+z
loop_
_atom_site_type_symbol
_atom_site_label
_atom_site_fract_x
_atom_site_fract_y
_atom_site_fract_z
Si Si1 0.199188 0.353442 0.182391
Si Si2 0.395780 0.394068 0.824783
Si Si3 0.097779 0.609425 0.181611
Si Si4 0.500000 0.106134 0.187941
Si Si5 0.055226 0.888732 0.000000
Si Si6 0.297248 0.635309 0.321388
O O1 0.148129 0.369777 0.259191
O O2 0.245019 0.392310 0.268295
O O3 0.203785 0.244765 0.175991
O O4 0.198581 0.387878 0.000000
O O5 0.410066 0.500000 0.831574
O O6 0.419807 0.356303 0.663640
O O7 0.339680 0.391274 0.793862
O O8 0.406589 0.353750 0.000000
O O9 0.095102 0.500000 0.180799
O O10 0.049437 0.645706 0.254203
O O11 0.100011 0.642379 0.000000
O O12 0.500000 0.000000 0.242282
O O13 0.500000 0.106412 0.000000
O O14 0.000000 0.865319 0.000000
O O15 0.058876 0.000000 0.000000
O O16 0.308000 0.603658 0.500000
#
# Coordination Sequence:
#
# PCOD9519770 Si02
#       6
#    16  16  16   8   8  16
#     4   9  19  33  50  74 102 138 178 214 261 315
#     4  10  20  34  55  81 108 140 177 220 267 314
#     4   9  17  31  51  73  98 130 170 212 254 305
#     4   9  17  29  47  71  99 129 162 205 258 307
#     4   9  18  34  56  82 110 138 173 216 266 322
#     4  10  19  33  52  73 104 142 177 217 263 316
#
# _framework density 22.778352000000002
#
# number of rings (size 3 to 8) (size 9 to 14) (size 15 to 20)
#    0.000    2.600    1.000    0.900    0.000    4.000 
#    0.000    4.000    2.200    0.000    0.000    0.000 
#    0.000    0.000    0.000    0.000    0.000    0.000 
#
# Total GULP energy -223232.283748 kJ/mol
# GULP energy per Si atom -5580.807094 kJ/mol
# Density = 2.272651 g / cm^3
# Si number density = 22.778352 Si / 1000 Ang^3
#
#
#
# Elastic Constant Matrix: (Units=GPa)
#
#
# Indices 1 2 3 4 5 6 
#
# 1 199.4296 0.7740 74.9831 0.0000 0.0000 0.0000
# 2 0.7740 52.4787 9.9262 0.0000 0.0000 0.0000
# 3 74.9831 9.9262 119.5500 0.0000 0.0000 0.0000
# 4 0.0000 0.0000 0.0000 9.3719 0.0000 0.0000
# 5 0.0000 0.0000 0.0000 0.0000 36.1942 0.0000
# 6 0.0000 0.0000 0.0000 0.0000 0.0000 25.0782
#
#
#
# Elastic Compliance Matrix: (Units=1/GPa)
#
#
# Indices 1 2 3 4 5 6 
#
# 1 0.006587 0.000695 -0.004189 0.000000 0.000000 0.000000
# 2 0.000695 0.019433 -0.002050 0.000000 0.000000 0.000000
# 3 -0.004189 -0.002050 0.011162 0.000000 0.000000 0.000000
# 4 0.000000 0.000000 0.000000 0.106702 0.000000 0.000000
# 5 0.000000 0.000000 0.000000 0.000000 0.027629 0.000000
# 6 0.000000 0.000000 0.000000 0.000000 0.000000 0.039875
#
#
# Mechanical properties :
#
#
# Convention : Reuss Voigt Hill
#
# Bulk Modulus (GPa) = 38.32145 60.31389 49.31767
# Shear Modulus (GPa) = 21.62891 33.18054 27.40473
#
# Velocity S-wave (km/s) = 3.08480 3.82078 3.47234
# Velocity P-wave (km/s) = 5.43582 6.78237 6.14608
#
# Compressibility (1/GPa) = 0.02609505
#
# Stress axis : x y z
#
# Youngs Moduli (GPa) = 151.82390 51.45950 89.58815
#
# Poissons Ratio (x) = -0.03577 0.37528
# Poissons Ratio (y) = -0.10554 0.18361
# Poissons Ratio (z) = 0.63597 0.10547
#
# Static dielectric constant tensor:
#      x y z
#    x 1.861260 0.000000 0.000000 
#    y 0.000000 1.877080 0.000000 
#    z 0.000000 0.000000 1.842550 
# 
# From -- ./inp_files/12405.got.cif
#   From: 2010.05.17/outbox.cif.g08.bks.cpg/sg71_7_cif.got.tgz:12405.got - 2010.06.03 16:22:01.
