data_PCOD9519053
_publ_section_title
;
Structure prediction by ZEFSAII (Michael W. Deem and Ramdas Pophale) SiO2 
 PCOD9519053
Probable space group: I M M M
;
_chemical_formula_sum "Si O2"
_cell_formula_units_Z 72
_cell_length_a 8.920189
_cell_length_b 19.554223
_cell_length_c 28.219361
_cell_angle_alpha 90.000000
_cell_angle_beta 90.000000
_cell_angle_gamma 90.000000
_cell_volume 4922.228779
_symmetry_space_group_name_H-M "I M M M"
_symmetry_group_IT_number 71
_symmetry_cell_setting 'orthorhombic'
loop_
_space_group_symop_operation_xyz
x,y,z
-x,-y,z
x,-y,-z
-x,y,-z
-x,-y,-z
x,y,-z
-x,y,z
x,-y,z
1/2+x,1/2+y,1/2+z
1/2-x,1/2-y,1/2+z
1/2+x,1/2-y,1/2-z
1/2-x,1/2+y,1/2-z
1/2-x,1/2-y,1/2-z
1/2+x,1/2+y,1/2-z
1/2-x,1/2+y,1/2+z
1/2+x,1/2-y,1/2+z
loop_
_atom_site_type_symbol
_atom_site_label
_atom_site_fract_x
_atom_site_fract_y
_atom_site_fract_z
Si Si1 0.179881 0.771385 0.321773
Si Si2 0.824901 0.500000 0.150241
Si Si3 0.673924 0.000000 0.236001
Si Si4 0.820125 0.127455 0.597587
Si Si5 0.821010 0.144575 0.227401
Si Si6 0.320078 0.918605 0.500000
O O1 0.217295 0.804581 0.372365
O O2 0.220604 0.824800 0.279499
O O3 0.260112 0.700725 0.309347
O O4 0.000000 0.762095 0.319244
O O5 0.817567 0.500000 0.206765
O O6 0.742164 0.434567 0.129133
O O7 0.000000 0.500000 0.135549
O O8 0.751620 0.929926 0.219992
O O9 0.500000 0.000000 0.222185
O O10 0.746141 0.117393 0.546535
O O11 0.000000 0.122949 0.593722
O O12 0.000000 0.140545 0.225484
O O13 0.500000 0.915071 0.500000
O O14 0.278939 0.000000 0.500000
#
# Coordination Sequence:
#
# PCOD9519053 Si02
#       6
#    16   8   8  16  16   8
#     4   9  19  33  47  67  93 122 157 196 238 282
#     4  11  21  30  44  67  93 125 161 199 240 279
#     4  11  21  31  46  68  97 128 160 198 238 279
#     4  11  21  34  51  67  90 125 163 201 240 282
#     4  10  19  31  48  69  93 123 159 195 234 281
#     4  11  23  35  47  69  96 123 160 203 242 278
#
# _framework density 14.627520000000001
#
# number of rings (size 3 to 8) (size 9 to 14) (size 15 to 20)
#    0.000    1.667    3.333    2.333    0.000    4.000 
#    0.000    0.000    0.000    0.000    0.000    0.000 
#    0.000    0.889    0.000    9.333    0.000    4.444 
#
# Total GULP energy -200906.854042 kJ/mol
# GULP energy per Si atom -5580.745946 kJ/mol
# Density = 1.459423 g / cm^3
# Si number density = 14.627520 Si / 1000 Ang^3
#
#
#
# Elastic Constant Matrix: (Units=GPa)
#
#
# Indices 1 2 3 4 5 6 
#
# 1 62.9552 60.2561 45.0245 0.0000 0.0000 0.0000
# 2 60.2561 134.9793 55.2589 0.0000 0.0000 0.0000
# 3 45.0245 55.2589 85.5412 0.0000 0.0000 0.0000
# 4 0.0000 0.0000 0.0000 29.1873 0.0000 0.0000
# 5 0.0000 0.0000 0.0000 0.0000 20.6794 0.0000
# 6 0.0000 0.0000 0.0000 0.0000 0.0000 27.4939
#
#
#
# Elastic Compliance Matrix: (Units=1/GPa)
#
#
# Indices 1 2 3 4 5 6 
#
# 1 0.033932 -0.010653 -0.010978 0.000000 0.000000 0.000000
# 2 -0.010653 0.013417 -0.003060 0.000000 0.000000 0.000000
# 3 -0.010978 -0.003060 0.019445 0.000000 0.000000 0.000000
# 4 0.000000 0.000000 0.000000 0.034261 0.000000 0.000000
# 5 0.000000 0.000000 0.000000 0.000000 0.048357 0.000000
# 6 0.000000 0.000000 0.000000 0.000000 0.000000 0.036372
#
#
# Mechanical properties :
#
#
# Convention : Reuss Voigt Hill
#
# Bulk Modulus (GPa) = 57.43277 67.17273 62.30275
# Shear Modulus (GPa) = 20.74928 23.66787 22.20857
#
# Velocity S-wave (km/s) = 3.77040 4.02685 3.90073
# Velocity P-wave (km/s) = 7.63566 8.22451 7.93555
#
# Compressibility (1/GPa) = 0.01741166
#
# Stress axis : x y z
#
# Youngs Moduli (GPa) = 29.47032 74.53228 51.42625
#
# Poissons Ratio (x) = 0.79402 0.56457
# Poissons Ratio (y) = 0.31396 0.15736
# Poissons Ratio (z) = 0.32353 0.22806
#
# Static dielectric constant tensor:
#      x y z
#    x 1.488130 0.000000 0.000000 
#    y 0.000000 1.470260 0.000000 
#    z 0.000000 0.000000 1.477450 
# 
# From -- ./inp_files/8210.got.cif
#   From: 2010.05.17/outbox.cif.g08.bks.cpg/sg71_5_cif.got.tgz:8210.got - 2010.06.03 16:22:01.
