data_PCOD9519267
_publ_section_title
;
Structure prediction by ZEFSAII (Michael W. Deem and Ramdas Pophale) SiO2 
 PCOD9519267
Probable space group: I M M M
;
_chemical_formula_sum "Si O2"
_cell_formula_units_Z 116
_cell_length_a 9.650494
_cell_length_b 28.609888
_cell_length_c 22.801929
_cell_angle_alpha 90.000000
_cell_angle_beta 90.000000
_cell_angle_gamma 90.000000
_cell_volume 6295.602393
_symmetry_space_group_name_H-M "I M M M"
_symmetry_group_IT_number 71
_symmetry_cell_setting 'orthorhombic'
loop_
_space_group_symop_operation_xyz
x,y,z
-x,-y,z
x,-y,-z
-x,y,-z
-x,-y,-z
x,y,-z
-x,y,z
x,-y,z
1/2+x,1/2+y,1/2+z
1/2-x,1/2-y,1/2+z
1/2+x,1/2-y,1/2-z
1/2-x,1/2+y,1/2-z
1/2-x,1/2-y,1/2-z
1/2+x,1/2+y,1/2-z
1/2-x,1/2+y,1/2+z
1/2+x,1/2-y,1/2+z
loop_
_atom_site_type_symbol
_atom_site_label
_atom_site_fract_x
_atom_site_fract_y
_atom_site_fract_z
Si Si1 0.337607 0.374646 0.433510
Si Si2 0.335646 0.132580 0.650383
Si Si3 0.500000 0.000000 0.186245
Si Si4 0.662630 0.274967 0.632328
Si Si5 0.155478 0.315332 0.269763
Si Si6 0.162853 0.194075 0.429813
Si Si7 0.280968 0.915971 0.821848
Si Si8 0.346474 0.555558 0.208310
O O1 0.283540 0.374889 0.500000
O O2 0.500000 0.386461 0.435081
O O3 0.328775 0.323114 0.404866
O O4 0.263584 0.409356 0.388732
O O5 0.500000 0.129012 0.639378
O O6 0.316385 0.171320 0.702252
O O7 0.245540 0.149782 0.595837
O O8 0.271819 0.084563 0.675086
O O9 0.617808 0.958886 0.185843
O O10 0.500000 0.261629 0.636046
O O11 0.729477 0.285721 0.695900
O O12 0.756097 0.237719 0.598404
O O13 0.156830 0.366311 0.301209
O O14 0.000000 0.295432 0.275345
O O15 0.171529 0.196136 0.500000
O O16 0.000000 0.193614 0.413298
O O17 0.159570 0.926609 0.775429
O O18 0.500000 0.565872 0.184347
O O19 0.323850 0.500000 0.205816
#
# Coordination Sequence:
#
# PCOD9519267 Si02
#       8
#    16  16   4  16  16  16  16  16
#     4   9  18  34  53  73 100 138 187 240 287 334
#     4  10  22  37  59  87 117 152 186 227 277 324
#     4  12  20  32  51  74 104 148 183 242 282 340
#     4  10  20  34  58  85 109 143 187 233 281 331
#     4   9  18  34  54  80 113 144 181 226 279 331
#     4  11  24  41  60  83 114 150 186 225 272 329
#     4  10  19  31  52  75 106 142 185 229 288 329
#     4  10  20  34  57  86 115 144 182 226 273 334
#
# _framework density 18.425560000000001
#
# number of rings (size 3 to 8) (size 9 to 14) (size 15 to 20)
#    0.000    2.069    1.379    2.069    0.966    6.345 
#    0.000    1.034    0.000    1.241    0.000    2.897 
#    0.000    0.000    0.000    0.000    0.000    0.000 
#
# Total GULP energy -323086.465838 kJ/mol
# GULP energy per Si atom -5570.456308 kJ/mol
# Density = 1.838362 g / cm^3
# Si number density = 18.425560 Si / 1000 Ang^3
#
#
#
# Elastic Constant Matrix: (Units=GPa)
#
#
# Indices 1 2 3 4 5 6 
#
# 1 143.7841 44.2639 50.8127 0.0000 0.0000 0.0000
# 2 44.2639 49.6120 22.3121 0.0000 0.0000 0.0000
# 3 50.8127 22.3121 68.2050 -0.0001 0.0001 0.0001
# 4 0.0000 0.0000 -0.0001 12.7152 0.0000 0.0000
# 5 0.0000 0.0000 0.0001 0.0000 8.9476 0.0000
# 6 0.0000 0.0000 0.0001 0.0000 0.0000 -16.6452
#
#
#
# Elastic Compliance Matrix: (Units=1/GPa)
#
#
# Indices 1 2 3 4 5 6 
#
# 1 0.011380 -0.007434 -0.006046 0.000000 0.000000 0.000000
# 2 -0.007434 0.028490 -0.003782 0.000000 0.000000 0.000000
# 3 -0.006046 -0.003782 0.020403 0.000000 0.000000 0.000000
# 4 0.000000 0.000000 0.000000 0.078646 0.000000 0.000000
# 5 0.000000 0.000000 0.000000 0.000000 0.111762 0.000000
# 6 0.000000 0.000000 0.000000 0.000000 0.000000 -0.060077
#
#
# Mechanical properties :
#
#
# Convention : Reuss Voigt Hill
#
# Bulk Modulus (GPa) = 38.83597 55.15316 46.99457
# Shear Modulus (GPa) = 21.39394 10.61767 16.00581
#
# Velocity S-wave (km/s) = 3.41119 2.40312 2.95053
# Velocity P-wave (km/s) = 6.05293 6.13986 6.09655
#
# Compressibility (1/GPa) = 0.02574932
#
# Stress axis : x y z
#
# Youngs Moduli (GPa) = 87.87168 35.10010 49.01192
#
# Poissons Ratio (x) = 0.26094 0.29634
# Poissons Ratio (y) = 0.65326 0.18534
# Poissons Ratio (z) = 0.53130 0.13273
#
# Static dielectric constant tensor:
#      x y z
#    x 1.666860 0.000000 0.000000 
#    y 0.000000 1.633800 0.000000 
#    z 0.000000 0.000000 1.640330 
# 
# From -- ./inp_files/58295.got.cif
#   From: 2010.05.17/outbox.cif.g08.bks.cpg/sg71_30_cif.got.tgz:58295.got - 2010.06.03 16:22:01.
