data_PCOD9519924
_publ_section_title
;
Structure prediction by ZEFSAII (Michael W. Deem and Ramdas Pophale) SiO2 
 PCOD9519924
Probable space group: I M M M
;
_chemical_formula_sum "Si O2"
_cell_formula_units_Z 104
_cell_length_a 22.258880
_cell_length_b 7.630734
_cell_length_c 30.252364
_cell_angle_alpha 90.000000
_cell_angle_beta 90.000000
_cell_angle_gamma 90.000000
_cell_volume 5138.412200
_symmetry_space_group_name_H-M "I M M M"
_symmetry_group_IT_number 71
_symmetry_cell_setting 'orthorhombic'
loop_
_space_group_symop_operation_xyz
x,y,z
-x,-y,z
x,-y,-z
-x,y,-z
-x,-y,-z
x,y,-z
-x,y,z
x,-y,z
1/2+x,1/2+y,1/2+z
1/2-x,1/2-y,1/2+z
1/2+x,1/2-y,1/2-z
1/2-x,1/2+y,1/2-z
1/2-x,1/2-y,1/2-z
1/2+x,1/2+y,1/2-z
1/2-x,1/2+y,1/2+z
1/2+x,1/2-y,1/2+z
loop_
_atom_site_type_symbol
_atom_site_label
_atom_site_fract_x
_atom_site_fract_y
_atom_site_fract_z
Si Si1 0.742647 0.707428 0.868865
Si Si2 0.125820 0.705744 0.141201
Si Si3 0.432987 0.000000 0.946649
Si Si4 0.811056 0.708162 0.722730
Si Si5 0.662249 0.709487 0.948169
Si Si6 0.066995 0.285368 0.229397
Si Si7 0.069954 0.788502 0.951779
O O1 0.751276 0.500000 0.874935
O O2 0.807489 0.784705 0.856587
O O3 0.698984 0.732923 0.827479
O O4 0.714540 0.768876 0.914882
O O5 0.131356 0.500000 0.151681
O O6 0.080665 0.771498 0.178756
O O7 0.103080 0.723461 0.091461
O O8 0.395308 0.826204 0.935663
O O9 0.500000 0.000000 0.928058
O O10 0.437235 0.000000 0.000000
O O11 0.815500 0.500000 0.723153
O O12 0.750000 0.750000 0.750000
O O13 0.873731 0.774155 0.743671
O O14 0.651968 0.500000 0.943006
O O15 0.676169 0.740698 0.000000
O O16 0.065686 0.500000 0.231641
O O17 0.000000 0.226847 0.242968
O O18 0.000000 0.736789 0.949184
O O19 0.072075 0.000000 0.951090
O O20 0.093442 0.730523 0.000000
#
# Coordination Sequence:
#
# PCOD9519924 Si02
#       7
#    16  16   8  16  16  16  16
#     4  10  21  37  57  83 113 145 188 233 281 344
#     4  10  19  33  55  80 104 137 185 235 275 324
#     4   9  18  34  58  86 114 148 197 245 283 349
#     4  11  21  36  59  83 112 149 189 233 285 342
#     4   9  19  36  57  83 120 159 190 237 298 346
#     4   9  18  34  55  80 109 140 178 227 280 328
#     4   9  19  35  50  69 106 148 181 221 274 328
#
# _framework density 20.239716999999999
#
# number of rings (size 3 to 8) (size 9 to 14) (size 15 to 20)
#    0.000    2.385    1.538    1.385    1.077    2.769 
#    0.000    4.615    0.000    3.692    0.000    0.000 
#    0.000    0.000    0.000    0.000    0.000    0.000 
#
# Total GULP energy -289927.094742 kJ/mol
# GULP energy per Si atom -5575.521053 kJ/mol
# Density = 2.019365 g / cm^3
# Si number density = 20.239717 Si / 1000 Ang^3
#
#
#
# Elastic Constant Matrix: (Units=GPa)
#
#
# Indices 1 2 3 4 5 6 
#
# 1 136.8559 5.7933 49.8484 0.0000 0.0000 0.0000
# 2 5.7933 36.5483 -12.8782 0.0000 0.0000 0.0000
# 3 49.8484 -12.8782 81.6652 0.0000 0.0000 0.0000
# 4 0.0000 0.0000 0.0000 21.0991 0.0000 0.0000
# 5 0.0000 0.0000 0.0000 0.0000 25.6553 0.0000
# 6 0.0000 0.0000 0.0000 0.0000 0.0000 59.8674
#
#
#
# Elastic Compliance Matrix: (Units=1/GPa)
#
#
# Indices 1 2 3 4 5 6 
#
# 1 0.009898 -0.003915 -0.006659 0.000000 0.000000 0.000000
# 2 -0.003915 0.030520 0.007203 0.000000 0.000000 0.000000
# 3 -0.006659 0.007203 0.017446 0.000000 0.000000 0.000000
# 4 0.000000 0.000000 0.000000 0.047395 0.000000 0.000000
# 5 0.000000 0.000000 0.000000 0.000000 0.038978 0.000000
# 6 0.000000 0.000000 0.000000 0.000000 0.000000 0.016704
#
#
# Mechanical properties :
#
#
# Convention : Reuss Voigt Hill
#
# Bulk Modulus (GPa) = 19.56190 37.84404 28.70297
# Shear Modulus (GPa) = 27.06724 35.47809 31.27266
#
# Velocity S-wave (km/s) = 3.66092 4.19130 3.93506
# Velocity P-wave (km/s) = 5.24937 6.49316 5.90411
#
# Compressibility (1/GPa) = 0.05111979
#
# Stress axis : x y z
#
# Youngs Moduli (GPa) = 101.02720 32.76573 57.32013
#
# Poissons Ratio (x) = 0.12829 0.38172
# Poissons Ratio (y) = 0.39557 -0.41287
# Poissons Ratio (z) = 0.67278 -0.23601
#
# Static dielectric constant tensor:
#      x y z
#    x 1.735270 0.000000 0.000000 
#    y 0.000000 1.743850 0.000000 
#    z 0.000000 0.000000 1.705460 
# 
# From -- ./inp_files/70722.got.cif
#   From: 2010.05.17/outbox.cif.g08.bks.cpg/sg71_36_cif.got.tgz:70722.got - 2010.06.03 16:22:01.
