data_PCOD9519496
_publ_section_title
;
Structure prediction by ZEFSAII (Michael W. Deem and Ramdas Pophale) SiO2 
 PCOD9519496
Probable space group: I M M M
;
_chemical_formula_sum "Si O2"
_cell_formula_units_Z 88
_cell_length_a 7.379109
_cell_length_b 18.812982
_cell_length_c 25.659756
_cell_angle_alpha 90.000000
_cell_angle_beta 90.000000
_cell_angle_gamma 90.000000
_cell_volume 3562.165457
_symmetry_space_group_name_H-M "I M M M"
_symmetry_group_IT_number 71
_symmetry_cell_setting 'orthorhombic'
loop_
_space_group_symop_operation_xyz
x,y,z
-x,-y,z
x,-y,-z
-x,y,-z
-x,-y,-z
x,y,-z
-x,y,z
x,-y,z
1/2+x,1/2+y,1/2+z
1/2-x,1/2-y,1/2+z
1/2+x,1/2-y,1/2-z
1/2-x,1/2+y,1/2-z
1/2-x,1/2-y,1/2-z
1/2+x,1/2+y,1/2-z
1/2-x,1/2+y,1/2+z
1/2+x,1/2-y,1/2+z
loop_
_atom_site_type_symbol
_atom_site_label
_atom_site_fract_x
_atom_site_fract_y
_atom_site_fract_z
Si Si1 0.784129 0.000000 0.060534
Si Si2 0.780028 0.282552 0.661990
Si Si3 0.791395 0.625089 0.168794
Si Si4 0.221554 0.423329 0.722002
Si Si5 0.781797 0.415146 0.056545
Si Si6 0.288508 0.157270 0.058344
O O1 0.722118 0.076457 0.080460
O O2 0.000000 0.000000 0.061548
O O3 0.721073 0.000000 0.000000
O O4 0.714587 0.207966 0.683690
O O5 0.719120 0.352785 0.692224
O O6 0.714419 0.291101 0.602275
O O7 0.000000 0.281447 0.662693
O O8 0.716383 0.583078 0.218043
O O9 0.711108 0.616008 0.111015
O O10 0.000000 0.601428 0.164237
O O11 0.277095 0.500000 0.699841
O O12 0.000000 0.421852 0.721595
O O13 0.749792 0.500000 0.058258
O O14 0.000000 0.404543 0.055619
O O15 0.714045 0.388323 0.000000
O O16 0.500000 0.173528 0.053516
O O17 0.208814 0.159325 0.000000
#
# Coordination Sequence:
#
# PCOD9519496 Si02
#       6
#     8  16  16  16  16  16
#     4   9  17  29  47  71  97 125 159 205 256 293
#     4  10  21  34  51  73 100 134 168 205 247 296
#     4  10  19  32  52  76 102 130 161 203 253 299
#     4   9  18  33  54  76  95 123 168 213 249 293
#     4   8  14  26  47  76 105 131 164 204 243 289
#     4   9  18  32  49  69  95 131 172 205 237 286
#
# _framework density 24.704075
#
# number of rings (size 3 to 8) (size 9 to 14) (size 15 to 20)
#    0.000    2.818    0.000    1.909    1.273    4.727 
#    0.000    0.000    0.000    3.273    0.000    1.273 
#    0.000    0.000    0.000    0.000    0.000    0.000 
#
# Total GULP energy -245749.400081 kJ/mol
# GULP energy per Si atom -5585.213638 kJ/mol
# Density = 2.464785 g / cm^3
# Si number density = 24.704075 Si / 1000 Ang^3
#
#
#
# Elastic Constant Matrix: (Units=GPa)
#
#
# Indices 1 2 3 4 5 6 
#
# 1 91.3799 -11.8425 5.9676 0.0000 0.0000 0.0000
# 2 -11.8425 81.1724 24.1176 0.0000 0.0000 0.0000
# 3 5.9676 24.1176 108.4059 0.0000 0.0000 0.0000
# 4 0.0000 0.0000 0.0000 -50.2944 0.0000 0.0000
# 5 0.0000 0.0000 0.0000 0.0000 -12.1654 0.0000
# 6 0.0000 0.0000 0.0000 0.0000 0.0000 -10.7022
#
#
#
# Elastic Compliance Matrix: (Units=1/GPa)
#
#
# Indices 1 2 3 4 5 6 
#
# 1 0.011266 0.001957 -0.001056 0.000000 0.000000 0.000000
# 2 0.001957 0.013531 -0.003118 0.000000 0.000000 0.000000
# 3 -0.001056 -0.003118 0.009976 0.000000 0.000000 0.000000
# 4 0.000000 0.000000 0.000000 -0.019883 0.000000 0.000000
# 5 0.000000 0.000000 0.000000 0.000000 -0.082200 0.000000
# 6 0.000000 0.000000 0.000000 0.000000 0.000000 -0.093438
#
#
# Mechanical properties :
#
#
# Convention : Reuss Voigt Hill
#
# Bulk Modulus (GPa) = 32.95897 35.27153 34.11525
# Shear Modulus (GPa) = -34.19944 2.88195 -15.65874
#
# Velocity S-wave (km/s) = -3.72474 1.08126 -2.52037
# Velocity P-wave (km/s) = 2.26446 3.98340 2.31729
#
# Compressibility (1/GPa) = 0.03034075
#
# Stress axis : x y z
#
# Youngs Moduli (GPa) = 88.76331 73.90186 100.23638
#
# Poissons Ratio (x) = -0.14465 0.10581
# Poissons Ratio (y) = -0.17373 0.31255
# Poissons Ratio (z) = 0.09370 0.23044
#
# Static dielectric constant tensor:
#      x y z
#    x 1.925130 0.000000 0.000000 
#    y 0.000000 1.926560 0.000000 
#    z 0.000000 0.000000 2.000310 
# 
# From -- ./inp_files/12495.got.cif
#   From: 2010.05.17/outbox.cif.g08.bks.cpg/sg71_7_cif.got.tgz:12495.got - 2010.06.03 16:22:01.
