data_PCOD9519797
_publ_section_title
;
Structure prediction by ZEFSAII (Michael W. Deem and Ramdas Pophale) SiO2 
 PCOD9519797
Probable space group: I M M M
;
_chemical_formula_sum "Si O2"
_cell_formula_units_Z 104
_cell_length_a 18.586838
_cell_length_b 24.979881
_cell_length_c 12.018101
_cell_angle_alpha 90.000000
_cell_angle_beta 90.000000
_cell_angle_gamma 90.000000
_cell_volume 5579.968257
_symmetry_space_group_name_H-M "I M M M"
_symmetry_group_IT_number 71
_symmetry_cell_setting 'orthorhombic'
loop_
_space_group_symop_operation_xyz
x,y,z
-x,-y,z
x,-y,-z
-x,y,-z
-x,-y,-z
x,y,-z
-x,y,z
x,-y,z
1/2+x,1/2+y,1/2+z
1/2-x,1/2-y,1/2+z
1/2+x,1/2-y,1/2-z
1/2-x,1/2+y,1/2-z
1/2-x,1/2-y,1/2-z
1/2+x,1/2+y,1/2-z
1/2-x,1/2+y,1/2+z
1/2+x,1/2-y,1/2+z
loop_
_atom_site_type_symbol
_atom_site_label
_atom_site_fract_x
_atom_site_fract_y
_atom_site_fract_z
Si Si1 0.272255 0.270744 0.624546
Si Si2 0.267000 0.103454 0.872890
Si Si3 0.640936 0.561456 0.231441
Si Si4 0.081147 0.252355 0.209148
Si Si5 0.581384 0.144558 0.131467
Si Si6 0.582643 0.344066 0.879985
Si Si7 0.000000 0.064507 0.875932
O O1 0.241435 0.255259 0.500000
O O2 0.250000 0.250000 0.750000
O O3 0.260246 0.334717 0.630908
O O4 0.354929 0.252107 0.622792
O O5 0.215528 0.069280 0.795055
O O6 0.351520 0.106015 0.843271
O O7 0.259727 0.084703 0.000000
O O8 0.630745 0.500000 0.197050
O O9 0.634133 0.605658 0.136403
O O10 0.574008 0.577302 0.312680
O O11 0.088615 0.303346 0.290960
O O12 0.090241 0.199996 0.285992
O O13 0.000000 0.252758 0.163869
O O14 0.500000 0.123310 0.146750
O O15 0.588448 0.158967 0.000000
O O16 0.500000 0.363657 0.877160
O O17 0.593676 0.318274 0.000000
O O18 0.000000 0.000000 0.883664
O O19 0.000000 0.087619 0.000000
#
# Coordination Sequence:
#
# PCOD9519797 Si02
#       7
#    16  16  16  16  16  16   8
#     4  11  22  36  54  80 114 147 181 222 273 330
#     4  10  20  34  52  75 104 139 180 224 274 327
#     4  11  21  34  50  72 101 135 183 232 278 329
#     4  10  19  33  52  77 109 145 183 219 263 319
#     4   9  17  31  54  80 106 139 178 220 270 334
#     4  10  20  33  50  74 107 145 186 228 269 321
#     4   9  18  32  49  67  91 129 172 216 267 323
#
# _framework density 18.638097999999999
#
# number of rings (size 3 to 8) (size 9 to 14) (size 15 to 20)
#    0.000    1.923    3.846    0.923    0.000    4.000 
#    0.000    0.769    0.000    0.462    0.000    2.154 
#    0.000    0.000    0.000    1.385    0.000    0.000 
#
# Total GULP energy -289659.100528 kJ/mol
# GULP energy per Si atom -5570.367318 kJ/mol
# Density = 1.859568 g / cm^3
# Si number density = 18.638098 Si / 1000 Ang^3
#
#
#
# Elastic Constant Matrix: (Units=GPa)
#
#
# Indices 1 2 3 4 5 6 
#
# 1 112.8448 3.5860 20.7671 0.0000 0.0000 0.0000
# 2 3.5860 19.2351 5.2107 0.0000 0.0000 0.0000
# 3 20.7671 5.2107 70.1354 0.0000 0.0000 0.0000
# 4 0.0000 0.0000 0.0000 0.3354 0.0000 0.0000
# 5 0.0000 0.0000 0.0000 0.0000 23.5701 0.0000
# 6 0.0000 0.0000 0.0000 0.0000 0.0000 22.7853
#
#
#
# Elastic Compliance Matrix: (Units=1/GPa)
#
#
# Indices 1 2 3 4 5 6 
#
# 1 0.009392 -0.001018 -0.002705 0.000000 0.000000 0.000000
# 2 -0.001018 0.053166 -0.003649 0.000000 0.000000 0.000000
# 3 -0.002705 -0.003649 0.015330 0.000000 0.000000 0.000000
# 4 0.000000 0.000000 0.000000 2.981479 0.000000 0.000000
# 5 0.000000 0.000000 0.000000 0.000000 0.042427 0.000000
# 6 0.000000 0.000000 0.000000 0.000000 0.000000 0.043888
#
#
# Mechanical properties :
#
#
# Convention : Reuss Voigt Hill
#
# Bulk Modulus (GPa) = 15.83664 29.03810 22.43737
# Shear Modulus (GPa) = 1.57160 20.84825 11.20993
#
# Velocity S-wave (km/s) = 0.91927 3.34815 2.45511
# Velocity P-wave (km/s) = 3.10517 5.52816 4.48345
#
# Compressibility (1/GPa) = 0.06314472
#
# Stress axis : x y z
#
# Youngs Moduli (GPa) = 106.47423 18.80887 65.23050
#
# Poissons Ratio (x) = 0.01915 0.17647
# Poissons Ratio (y) = 0.10840 0.23800
# Poissons Ratio (z) = 0.28805 0.06862
#
# Static dielectric constant tensor:
#      x y z
#    x 1.708720 0.000000 0.000000 
#    y 0.000000 1.620820 0.000000 
#    z 0.000000 0.000000 1.685440 
# 
# From -- ./inp_files/24529.got.cif
#   From: 2010.05.17/outbox.cif.g08.bks.cpg/sg71_13_cif.got.tgz:24529.got - 2010.06.03 16:22:01.
