data_PCOD9519158
_publ_section_title
;
Structure prediction by ZEFSAII (Michael W. Deem and Ramdas Pophale) SiO2 
 PCOD9519158
Probable space group: I M M M
;
_chemical_formula_sum "Si O2"
_cell_formula_units_Z 100
_cell_length_a 8.135374
_cell_length_b 30.908942
_cell_length_c 22.682849
_cell_angle_alpha 90.000000
_cell_angle_beta 90.000000
_cell_angle_gamma 90.000000
_cell_volume 5703.734012
_symmetry_space_group_name_H-M "I M M M"
_symmetry_group_IT_number 71
_symmetry_cell_setting 'orthorhombic'
loop_
_space_group_symop_operation_xyz
x,y,z
-x,-y,z
x,-y,-z
-x,y,-z
-x,-y,-z
x,y,-z
-x,y,z
x,-y,z
1/2+x,1/2+y,1/2+z
1/2-x,1/2-y,1/2+z
1/2+x,1/2-y,1/2-z
1/2-x,1/2+y,1/2-z
1/2-x,1/2-y,1/2-z
1/2+x,1/2+y,1/2-z
1/2-x,1/2+y,1/2+z
1/2+x,1/2-y,1/2+z
loop_
_atom_site_type_symbol
_atom_site_label
_atom_site_fract_x
_atom_site_fract_y
_atom_site_fract_z
Si Si1 0.000000 0.000000 0.243183
Si Si2 0.686615 0.722769 0.609935
Si Si3 0.808252 0.432454 0.244084
Si Si4 0.188582 0.796602 0.683307
Si Si5 0.306881 0.611222 0.871856
Si Si6 0.312096 0.276414 0.000000
Si Si7 0.691189 0.839203 0.799375
Si Si8 0.691433 0.873936 0.500000
O O1 0.150966 0.962991 0.244492
O O2 0.500000 0.715899 0.591886
O O3 0.699104 0.757593 0.662865
O O4 0.777887 0.746530 0.556544
O O5 0.758911 0.678735 0.636878
O O6 0.791628 0.416896 0.175738
O O7 0.786286 0.389701 0.284921
O O8 0.000000 0.447525 0.252756
O O9 0.226556 0.838598 0.643743
O O10 0.211051 0.813175 0.749330
O O11 0.000000 0.783497 0.673355
O O12 0.500000 0.603466 0.861369
O O13 0.267301 0.606527 0.940401
O O14 0.213455 0.321542 0.000000
O O15 0.500000 0.290868 0.000000
O O16 0.500000 0.829372 0.789843
O O17 0.500000 0.883371 0.500000
#
# Coordination Sequence:
#
# PCOD9519158 Si02
#       8
#     4  16  16  16  16   8  16   8
#     4  12  22  40  68  87 122 141 178 236 304 364
#     4  12  23  34  51  73 108 149 192 235 276 322
#     4  10  22  39  62  90 115 144 183 227 292 360
#     4  10  19  31  50  73 105 146 190 231 276 321
#     4  10  19  34  54  78 108 148 191 239 285 336
#     4  12  24  38  50  72 106 153 204 243 280 319
#     4  10  21  36  54  78 110 145 184 228 276 337
#     4  12  22  32  52  76 107 147 198 248 282 325
#
# _framework density 17.532374000000001
#
# number of rings (size 3 to 8) (size 9 to 14) (size 15 to 20)
#    0.000    1.280    2.400    5.040    2.240    1.280 
#    0.000    0.000    0.000    0.960    0.000    1.680 
#    0.000    1.280    0.000    4.560    0.000    0.000 
#
# Total GULP energy -278458.181326 kJ/mol
# GULP energy per Si atom -5569.163627 kJ/mol
# Density = 1.749247 g / cm^3
# Si number density = 17.532374 Si / 1000 Ang^3
#
#
#
# Elastic Constant Matrix: (Units=GPa)
#
#
# Indices 1 2 3 4 5 6 
#
# 1 80.8650 38.9633 3.1813 0.0000 0.0000 0.0000
# 2 38.9633 53.5317 19.0890 0.0000 0.0000 0.0000
# 3 3.1813 19.0890 17.8350 0.0000 0.0000 0.0000
# 4 0.0000 0.0000 0.0000 -2.1121 0.0000 0.0000
# 5 0.0000 0.0000 0.0000 0.0000 18.0111 0.0000
# 6 0.0000 0.0000 0.0000 0.0000 0.0000 29.0187
#
#
#
# Elastic Compliance Matrix: (Units=1/GPa)
#
#
# Indices 1 2 3 4 5 6 
#
# 1 0.023754 -0.025517 0.023075 0.000000 0.000000 0.000000
# 2 -0.025517 0.057623 -0.057123 0.000000 0.000000 0.000000
# 3 0.023075 -0.057123 0.113094 0.000000 0.000000 0.000000
# 4 0.000000 0.000000 0.000000 -0.473473 0.000000 0.000000
# 5 0.000000 0.000000 0.000000 0.000000 0.055521 0.000000
# 6 0.000000 0.000000 0.000000 0.000000 0.000000 0.034461
#
#
# Mechanical properties :
#
#
# Convention : Reuss Voigt Hill
#
# Bulk Modulus (GPa) = 13.27346 30.52209 21.89778
# Shear Modulus (GPa) = -111.66659 15.05009 -48.30825
#
# Velocity S-wave (km/s) = -7.98936 2.93305 -5.25486
# Velocity P-wave (km/s) = 8.80450 5.37747 4.92961
#
# Compressibility (1/GPa) = 0.07533829
#
# Stress axis : x y z
#
# Youngs Moduli (GPa) = 42.09891 17.35412 8.84222
#
# Poissons Ratio (x) = 0.44283 -0.20403
# Poissons Ratio (y) = 1.07425 0.50510
# Poissons Ratio (z) = -0.97142 0.99133
#
# Static dielectric constant tensor:
#      x y z
#    x 1.602160 0.000000 0.000000 
#    y 0.000000 1.604240 0.000000 
#    z 0.000000 0.000000 1.639860 
# 
# From -- ./inp_files/51226.got.cif
#   From: 2010.05.17/outbox.cif.g08.bks.cpg/sg71_26_cif.got.tgz:51226.got - 2010.06.03 16:22:01.
