data_PCOD9519083
_publ_section_title
;
Structure prediction by ZEFSAII (Michael W. Deem and Ramdas Pophale) SiO2 
 PCOD9519083
Probable space group: I M M M
;
_chemical_formula_sum "Si O2"
_cell_formula_units_Z 88
_cell_length_a 19.029545
_cell_length_b 8.290472
_cell_length_c 30.180623
_cell_angle_alpha 90.000000
_cell_angle_beta 90.000000
_cell_angle_gamma 90.000000
_cell_volume 4761.413091
_symmetry_space_group_name_H-M "I M M M"
_symmetry_group_IT_number 71
_symmetry_cell_setting 'orthorhombic'
loop_
_space_group_symop_operation_xyz
x,y,z
-x,-y,z
x,-y,-z
-x,y,-z
-x,-y,-z
x,y,-z
-x,y,z
x,-y,z
1/2+x,1/2+y,1/2+z
1/2-x,1/2-y,1/2+z
1/2+x,1/2-y,1/2-z
1/2-x,1/2+y,1/2-z
1/2-x,1/2-y,1/2-z
1/2+x,1/2+y,1/2-z
1/2-x,1/2+y,1/2+z
1/2+x,1/2-y,1/2+z
loop_
_atom_site_type_symbol
_atom_site_label
_atom_site_fract_x
_atom_site_fract_y
_atom_site_fract_z
Si Si1 0.500000 0.692656 0.448527
Si Si2 0.150719 0.692751 0.051026
Si Si3 0.421371 0.303418 0.244692
Si Si4 0.080618 0.194538 0.356677
Si Si5 0.210133 0.805435 0.206184
Si Si6 0.225503 0.693083 0.614081
O O1 0.500000 0.500000 0.448187
O O2 0.500000 0.751541 0.500000
O O3 0.575200 0.749582 0.429723
O O4 0.149867 0.500000 0.050734
O O5 0.219348 0.749876 0.077312
O O6 0.154640 0.751943 0.000000
O O7 0.500000 0.250288 0.253625
O O8 0.420182 0.500000 0.243574
O O9 0.403448 0.251668 0.194264
O O10 0.368775 0.251395 0.282917
O O11 0.144249 0.252316 0.387497
O O12 0.000000 0.245898 0.367078
O O13 0.080576 0.000000 0.356883
O O14 0.250000 0.750000 0.250000
O O15 0.243732 0.743731 0.161066
O O16 0.211880 0.000000 0.204212
O O17 0.226000 0.500000 0.614390
#
# Coordination Sequence:
#
# PCOD9519083 Si02
#       6
#     8  16  16  16  16  16
#     4   9  17  33  59  87 113 139 171 217 269 317
#     4  10  21  38  60  82 106 141 183 222 262 315
#     4   8  14  27  47  67  91 130 177 216 250 295
#     4   9  17  31  53  76  98 135 184 224 261 313
#     4  10  19  31  48  72 102 137 175 213 260 313
#     4  11  22  33  50  81 112 141 176 219 277 325
#
# _framework density 18.481907
#
# number of rings (size 3 to 8) (size 9 to 14) (size 15 to 20)
#    0.000    2.455    1.818    2.455    0.000    3.273 
#    1.636    0.000    0.000    1.091    0.000    3.818 
#    0.000    0.000    0.000    0.000    0.000    0.000 
#
# Total GULP energy -245140.819517 kJ/mol
# GULP energy per Si atom -5571.382262 kJ/mol
# Density = 1.843984 g / cm^3
# Si number density = 18.481907 Si / 1000 Ang^3
#
#
#
# Elastic Constant Matrix: (Units=GPa)
#
#
# Indices 1 2 3 4 5 6 
#
# 1 172.0347 25.6781 55.8465 0.0000 0.0000 0.0000
# 2 25.6781 23.0287 9.8790 0.0000 0.0000 0.0000
# 3 55.8465 9.8790 56.2561 0.0000 0.0000 0.0000
# 4 0.0000 0.0000 0.0000 15.3174 0.0000 0.0000
# 5 0.0000 0.0000 0.0000 0.0000 32.3365 0.0000
# 6 0.0000 0.0000 0.0000 0.0000 0.0000 27.1044
#
#
#
# Elastic Compliance Matrix: (Units=1/GPa)
#
#
# Indices 1 2 3 4 5 6 
#
# 1 0.009545 -0.007114 -0.008226 0.000000 0.000000 0.000000
# 2 -0.007114 0.052264 -0.002116 0.000000 0.000000 0.000000
# 3 -0.008226 -0.002116 0.026314 0.000000 0.000000 0.000000
# 4 0.000000 0.000000 0.000000 0.065285 0.000000 0.000000
# 5 0.000000 0.000000 0.000000 0.000000 0.030925 0.000000
# 6 0.000000 0.000000 0.000000 0.000000 0.000000 0.036894
#
#
# Mechanical properties :
#
#
# Convention : Reuss Voigt Hill
#
# Bulk Modulus (GPa) = 18.79314 48.23629 33.51472
# Shear Modulus (GPa) = 18.25639 25.61272 21.93455
#
# Velocity S-wave (km/s) = 3.14633 3.72671 3.44875
# Velocity P-wave (km/s) = 4.83629 6.68384 5.83367
#
# Compressibility (1/GPa) = 0.05321090
#
# Stress axis : x y z
#
# Youngs Moduli (GPa) = 104.76577 19.13351 38.00297
#
# Poissons Ratio (x) = 0.13612 0.31262
# Poissons Ratio (y) = 0.74533 0.08040
# Poissons Ratio (z) = 0.86183 0.04048
#
# Static dielectric constant tensor:
#      x y z
#    x 1.697770 0.000000 0.000000 
#    y 0.000000 1.635570 0.000000 
#    z 0.000000 0.000000 1.636010 
# 
# From -- ./inp_files/42451.got.cif
#   From: 2010.05.17/outbox.cif.g08.bks.cpg/sg71_22_cif.got.tgz:42451.got - 2010.06.03 16:22:01.
