data_PCOD9519538
_publ_section_title
;
Structure prediction by ZEFSAII (Michael W. Deem and Ramdas Pophale) SiO2 
 PCOD9519538
Probable space group: I M M M
;
_chemical_formula_sum "Si O2"
_cell_formula_units_Z 80
_cell_length_a 11.325846
_cell_length_b 23.967164
_cell_length_c 17.598582
_cell_angle_alpha 90.000000
_cell_angle_beta 90.000000
_cell_angle_gamma 90.000000
_cell_volume 4777.107076
_symmetry_space_group_name_H-M "I M M M"
_symmetry_group_IT_number 71
_symmetry_cell_setting 'orthorhombic'
loop_
_space_group_symop_operation_xyz
x,y,z
-x,-y,z
x,-y,-z
-x,y,-z
-x,-y,-z
x,y,-z
-x,y,z
x,-y,z
1/2+x,1/2+y,1/2+z
1/2-x,1/2-y,1/2+z
1/2+x,1/2-y,1/2-z
1/2-x,1/2+y,1/2-z
1/2-x,1/2-y,1/2-z
1/2+x,1/2+y,1/2-z
1/2-x,1/2+y,1/2+z
1/2+x,1/2-y,1/2+z
loop_
_atom_site_type_symbol
_atom_site_label
_atom_site_fract_x
_atom_site_fract_y
_atom_site_fract_z
Si Si1 0.269364 0.933455 0.816298
Si Si2 0.860320 0.846580 0.084934
Si Si3 0.361846 0.887229 0.339404
Si Si4 0.856728 0.564651 0.000000
Si Si5 0.860219 0.256342 0.808060
Si Si6 0.500000 0.067297 0.086349
O O1 0.172735 0.896824 0.858996
O O2 0.290695 0.914346 0.730039
O O3 0.386353 0.917863 0.864469
O O4 0.250754 0.000000 0.820387
O O5 0.832615 0.787873 0.125362
O O6 0.000000 0.847188 0.076996
O O7 0.807770 0.852387 0.000000
O O8 0.500000 0.904734 0.330886
O O9 0.318225 0.906977 0.421674
O O10 0.358114 0.820484 0.334184
O O11 0.823302 0.500000 0.000000
O O12 0.000000 0.568009 0.000000
O O13 0.750000 0.250000 0.750000
O O14 0.000000 0.245961 0.783052
O O15 0.500000 0.000000 0.081203
O O16 0.500000 0.089051 0.000000
#
# Coordination Sequence:
#
# PCOD9519538 Si02
#       6
#    16  16  16   8  16   8
#     4  11  20  32  52  76 106 144 180 217 269 326
#     4  10  22  38  55  77 107 143 184 229 271 317
#     4  10  19  32  52  79 109 142 178 223 274 329
#     4   9  18  30  48  78 113 141 172 220 277 328
#     4  10  20  36  58  81 107 141 184 229 274 323
#     4   9  18  30  46  71 103 137 173 214 262 321
#
# _framework density 16.746537
#
# number of rings (size 3 to 8) (size 9 to 14) (size 15 to 20)
#    0.000    2.000    3.000    1.200    1.400    2.400 
#    0.000    1.000    0.000    0.000    0.000    2.100 
#    0.000    4.800    0.000    0.000    0.000    0.000 
#
# Total GULP energy -222750.556300 kJ/mol
# GULP energy per Si atom -5568.763907 kJ/mol
# Density = 1.670842 g / cm^3
# Si number density = 16.746537 Si / 1000 Ang^3
#
#
#
# Elastic Constant Matrix: (Units=GPa)
#
#
# Indices 1 2 3 4 5 6 
#
# 1 34.3703 22.5008 40.8500 0.0000 0.0000 0.0000
# 2 22.5008 93.2689 60.7304 0.0000 0.0000 0.0000
# 3 40.8500 60.7304 167.8862 0.0000 0.0000 0.0000
# 4 0.0000 0.0000 0.0000 23.6354 0.0000 0.0000
# 5 0.0000 0.0000 0.0000 0.0000 22.9808 0.0000
# 6 0.0000 0.0000 0.0000 0.0000 0.0000 23.2589
#
#
#
# Elastic Compliance Matrix: (Units=1/GPa)
#
#
# Indices 1 2 3 4 5 6 
#
# 1 0.042384 -0.004591 -0.008652 0.000000 0.000000 0.000000
# 2 -0.004591 0.014523 -0.004136 0.000000 0.000000 0.000000
# 3 -0.008652 -0.004136 0.009558 0.000000 0.000000 0.000000
# 4 0.000000 0.000000 0.000000 0.042309 0.000000 0.000000
# 5 0.000000 0.000000 0.000000 0.000000 0.043515 0.000000
# 6 0.000000 0.000000 0.000000 0.000000 0.000000 0.042994
#
#
# Mechanical properties :
#
#
# Convention : Reuss Voigt Hill
#
# Bulk Modulus (GPa) = 31.54066 60.40975 45.97521
# Shear Modulus (GPa) = 20.78056 25.40463 23.09260
#
# Velocity S-wave (km/s) = 3.52644 3.89910 3.71745
# Velocity P-wave (km/s) = 5.95450 7.51146 6.77783
#
# Compressibility (1/GPa) = 0.03170511
#
# Stress axis : x y z
#
# Youngs Moduli (GPa) = 23.59403 68.85866 104.62678
#
# Poissons Ratio (x) = 0.31615 0.90522
# Poissons Ratio (y) = 0.10833 0.43275
# Poissons Ratio (z) = 0.20413 0.28481
#
# Static dielectric constant tensor:
#      x y z
#    x 1.587290 0.000000 0.000000 
#    y 0.000000 1.542440 0.000000 
#    z 0.000000 0.000000 1.598910 
# 
# From -- ./inp_files/27112.got.cif
#   From: 2010.05.17/outbox.cif.g08.bks.cpg/sg71_14_cif.got.tgz:27112.got - 2010.06.03 16:22:01.
