data_PCOD9519932
_publ_section_title
;
Structure prediction by ZEFSAII (Michael W. Deem and Ramdas Pophale) SiO2 
 PCOD9519932
Probable space group: I M M M
;
_chemical_formula_sum "Si O2"
_cell_formula_units_Z 82
_cell_length_a 25.998403
_cell_length_b 20.571630
_cell_length_c 8.120523
_cell_angle_alpha 90.000000
_cell_angle_beta 90.000000
_cell_angle_gamma 90.000000
_cell_volume 4343.095476
_symmetry_space_group_name_H-M "I M M M"
_symmetry_group_IT_number 71
_symmetry_cell_setting 'orthorhombic'
loop_
_space_group_symop_operation_xyz
x,y,z
-x,-y,z
x,-y,-z
-x,y,-z
-x,-y,-z
x,y,-z
-x,y,z
x,-y,z
1/2+x,1/2+y,1/2+z
1/2-x,1/2-y,1/2+z
1/2+x,1/2-y,1/2-z
1/2-x,1/2+y,1/2-z
1/2-x,1/2-y,1/2-z
1/2+x,1/2+y,1/2-z
1/2-x,1/2+y,1/2+z
1/2+x,1/2-y,1/2+z
loop_
_atom_site_type_symbol
_atom_site_label
_atom_site_fract_x
_atom_site_fract_y
_atom_site_fract_z
Si Si1 0.500000 0.000000 0.000000
Si Si2 0.000000 0.073847 0.201426
Si Si3 0.295952 0.574115 0.801806
Si Si4 0.500000 0.136087 0.821010
Si Si5 0.780686 0.684481 0.199491
Si Si6 0.603124 0.202688 0.302100
Si Si7 0.898770 0.148373 0.800444
O O1 0.500000 0.941041 0.858936
O O2 0.949040 0.110326 0.255475
O O3 0.000000 0.000000 0.256735
O O4 0.000000 0.074131 0.000000
O O5 0.294727 0.500000 0.738810
O O6 0.250387 0.621193 0.742103
O O7 0.348434 0.610811 0.757854
O O8 0.292265 0.571026 0.000000
O O9 0.446611 0.159717 0.741014
O O10 0.500000 0.169174 0.000000
O O11 0.750000 0.750000 0.250000
O O12 0.839968 0.681721 0.256824
O O13 0.781058 0.684541 0.000000
O O14 0.605338 0.203913 0.500000
O O15 0.597703 0.277179 0.244535
O O16 0.897696 0.148810 0.000000
#
# Coordination Sequence:
#
# PCOD9519932 Si02
#       7
#     2   8  16   8  16  16  16
#     4   8  24  48  62  84 128 156 188 256 316 370
#     4   9  17  28  44  71 104 142 178 219 272 326
#     4  10  21  36  52  77 116 156 189 230 289 355
#     4  10  22  42  64  84 119 153 191 241 308 358
#     4  10  20  36  58  84 117 152 196 244 297 349
#     4  10  20  36  61  90 113 147 197 252 294 352
#     4  10  19  33  55  80 110 144 190 240 284 333
#
# _framework density 18.880542999999999
#
# number of rings (size 3 to 8) (size 9 to 14) (size 15 to 20)
#    0.293    1.854    1.951    1.463    0.000    4.293 
#    1.756    1.463    0.000    1.756    0.000    0.000 
#    0.000    0.000    0.000    0.000    0.000    0.000 
#
# Total GULP energy -228327.339103 kJ/mol
# GULP energy per Si atom -5568.959490 kJ/mol
# Density = 1.883757 g / cm^3
# Si number density = 18.880543 Si / 1000 Ang^3
#
#
#
# Elastic Constant Matrix: (Units=GPa)
#
#
# Indices 1 2 3 4 5 6 
#
# 1 208.8158 121.6837 13.6303 0.0000 0.0000 0.0000
# 2 121.6837 201.3008 13.4876 0.0000 0.0000 0.0000
# 3 13.6303 13.4876 8.3680 0.0000 0.0000 0.0000
# 4 0.0000 0.0000 0.0000 14.9065 0.0000 0.0000
# 5 0.0000 0.0000 0.0000 0.0000 37.6401 0.0000
# 6 0.0000 0.0000 0.0000 0.0000 0.0000 -2.8027
#
#
#
# Elastic Compliance Matrix: (Units=1/GPa)
#
#
# Indices 1 2 3 4 5 6 
#
# 1 0.007620 -0.004231 -0.005591 0.000000 0.000000 0.000000
# 2 -0.004231 0.007919 -0.005871 0.000000 0.000000 0.000000
# 3 -0.005591 -0.005871 0.138073 0.000000 0.000000 0.000000
# 4 0.000000 0.000000 0.000000 0.067085 0.000000 0.000000
# 5 0.000000 0.000000 0.000000 0.000000 0.026567 0.000000
# 6 0.000000 0.000000 0.000000 0.000000 0.000000 -0.356796
#
#
# Mechanical properties :
#
#
# Convention : Reuss Voigt Hill
#
# Bulk Modulus (GPa) = 8.18171 79.56532 43.87351
# Shear Modulus (GPa) = -133.68068 27.92763 -52.87653
#
# Velocity S-wave (km/s) = -8.42360 3.85018 -5.29779
# Velocity P-wave (km/s) = 9.50088 7.87389 3.75956
#
# Compressibility (1/GPa) = 0.12222380
#
# Stress axis : x y z
#
# Youngs Moduli (GPa) = 131.24056 126.28056 7.24254
#
# Poissons Ratio (x) = 0.53433 0.04049
# Poissons Ratio (y) = 0.55532 0.04252
# Poissons Ratio (z) = 0.73378 0.74145
#
# Static dielectric constant tensor:
#      x y z
#    x 1.662880 0.000000 0.000000 
#    y 0.000000 1.637060 0.000000 
#    z 0.000000 0.000000 1.685190 
# 
# From -- ./inp_files/12453.got.cif
#   From: 2010.05.17/outbox.cif.g08.bks.cpg/sg71_7_cif.got.tgz:12453.got - 2010.06.03 16:22:01.
