data_PCOD9519438
_publ_section_title
;
Structure prediction by ZEFSAII (Michael W. Deem and Ramdas Pophale) SiO2 
 PCOD9519438
Probable space group: I M M M
;
_chemical_formula_sum "Si O2"
_cell_formula_units_Z 72
_cell_length_a 13.955122
_cell_length_b 7.463091
_cell_length_c 30.675816
_cell_angle_alpha 90.000000
_cell_angle_beta 90.000000
_cell_angle_gamma 90.000000
_cell_volume 3194.835480
_symmetry_space_group_name_H-M "I M M M"
_symmetry_group_IT_number 71
_symmetry_cell_setting 'orthorhombic'
loop_
_space_group_symop_operation_xyz
x,y,z
-x,-y,z
x,-y,-z
-x,y,-z
-x,-y,-z
x,y,-z
-x,y,z
x,-y,z
1/2+x,1/2+y,1/2+z
1/2-x,1/2-y,1/2+z
1/2+x,1/2-y,1/2-z
1/2-x,1/2+y,1/2-z
1/2-x,1/2-y,1/2-z
1/2+x,1/2+y,1/2-z
1/2-x,1/2+y,1/2+z
1/2+x,1/2-y,1/2+z
loop_
_atom_site_type_symbol
_atom_site_label
_atom_site_fract_x
_atom_site_fract_y
_atom_site_fract_z
Si Si1 0.887068 0.285068 0.000000
Si Si2 0.891559 0.716596 0.449722
Si Si3 0.691212 0.211006 0.315794
Si Si4 0.892854 0.717140 0.724811
Si Si5 0.196570 0.707619 0.089489
O O1 0.845027 0.211034 0.954929
O O2 0.865749 0.500000 0.000000
O O3 0.000000 0.261776 0.000000
O O4 0.870887 0.771225 0.500000
O O5 0.888999 0.500000 0.448680
O O6 0.810731 0.786340 0.417699
O O7 0.000000 0.772217 0.439371
O O8 0.804340 0.228377 0.305485
O O9 0.634908 0.281896 0.273645
O O10 0.670390 0.287142 0.363631
O O11 0.668885 0.000000 0.317466
O O12 0.892515 0.500000 0.725221
O O13 0.000000 0.775389 0.712634
O O14 0.165052 0.500000 0.090382
#
# Coordination Sequence:
#
# PCOD9519438 Si02
#       5
#     8  16  16  16  16
#     4   9  18  32  50  73 100 130 165 203 242 285
#     4   9  18  32  49  69  95 130 168 203 243 289
#     4   9  19  33  50  75 103 129 161 204 251 295
#     4   9  18  34  54  74  98 130 166 203 246 298
#     4  10  19  32  51  75 102 131 165 205 247 290
#
# _framework density 22.536370999999999
#
# number of rings (size 3 to 8) (size 9 to 14) (size 15 to 20)
#    0.000    2.778    1.111    0.667    0.000    3.556 
#    0.000   10.000    0.000    1.333    0.000    3.111 
#    0.000    0.000    0.000    0.000    0.000    0.000 
#
# Total GULP energy -200927.300679 kJ/mol
# GULP energy per Si atom -5581.313908 kJ/mol
# Density = 2.248508 g / cm^3
# Si number density = 22.536371 Si / 1000 Ang^3
#
#
#
# Elastic Constant Matrix: (Units=GPa)
#
#
# Indices 1 2 3 4 5 6 
#
# 1 14.6663 -9.0397 -2.7765 0.0000 0.0000 0.0000
# 2 -9.0397 67.9186 4.0935 0.0000 0.0000 0.0000
# 3 -2.7765 4.0935 129.7109 0.0000 0.0000 0.0000
# 4 0.0000 0.0000 0.0000 10.3559 0.0000 0.0000
# 5 0.0000 0.0000 0.0000 0.0000 3.4432 0.0000
# 6 0.0000 0.0000 0.0000 0.0000 0.0000 32.8193
#
#
#
# Elastic Compliance Matrix: (Units=1/GPa)
#
#
# Indices 1 2 3 4 5 6 
#
# 1 0.074490 0.009837 0.001284 0.000000 0.000000 0.000000
# 2 0.009837 0.016051 -0.000296 0.000000 0.000000 0.000000
# 3 0.001284 -0.000296 0.007746 0.000000 0.000000 0.000000
# 4 0.000000 0.000000 0.000000 0.096563 0.000000 0.000000
# 5 0.000000 0.000000 0.000000 0.000000 0.290430 0.000000
# 6 0.000000 0.000000 0.000000 0.000000 0.000000 0.030470
#
#
# Mechanical properties :
#
#
# Convention : Reuss Voigt Hill
#
# Bulk Modulus (GPa) = 8.33774 21.87226 15.10500
# Shear Modulus (GPa) = 9.36192 23.99157 16.67675
#
# Velocity S-wave (km/s) = 2.04038 3.26632 2.72323
# Velocity P-wave (km/s) = 3.04279 4.89403 4.07493
#
# Compressibility (1/GPa) = 0.11993652
#
# Stress axis : x y z
#
# Youngs Moduli (GPa) = 13.42468 62.30297 129.09422
#
# Poissons Ratio (x) = -0.61287 -0.16576
# Poissons Ratio (y) = -0.13206 0.03821
# Poissons Ratio (z) = -0.01724 0.01844
#
# Static dielectric constant tensor:
#      x y z
#    x 1.800870 0.000000 0.000000 
#    y 0.000000 1.895700 0.000000 
#    z 0.000000 0.000000 1.856140 
# 
# From -- ./inp_files/6442.got.cif
#   From: 2010.05.17/outbox.cif.g08.bks.cpg/sg71_4_cif.got.tgz:6442.got - 2010.06.03 16:22:01.
