data_PCOD9519358
_publ_section_title
;
Structure prediction by ZEFSAII (Michael W. Deem and Ramdas Pophale) SiO2 
 PCOD9519358
Probable space group: I M M M
;
_chemical_formula_sum "Si O2"
_cell_formula_units_Z 112
_cell_length_a 7.247311
_cell_length_b 20.545653
_cell_length_c 30.988058
_cell_angle_alpha 90.000000
_cell_angle_beta 90.000000
_cell_angle_gamma 90.000000
_cell_volume 4614.144674
_symmetry_space_group_name_H-M "I M M M"
_symmetry_group_IT_number 71
_symmetry_cell_setting 'orthorhombic'
loop_
_space_group_symop_operation_xyz
x,y,z
-x,-y,z
x,-y,-z
-x,y,-z
-x,-y,-z
x,y,-z
-x,y,z
x,-y,z
1/2+x,1/2+y,1/2+z
1/2-x,1/2-y,1/2+z
1/2+x,1/2-y,1/2-z
1/2-x,1/2+y,1/2-z
1/2-x,1/2-y,1/2-z
1/2+x,1/2+y,1/2-z
1/2-x,1/2+y,1/2+z
1/2+x,1/2-y,1/2+z
loop_
_atom_site_type_symbol
_atom_site_label
_atom_site_fract_x
_atom_site_fract_y
_atom_site_fract_z
Si Si1 0.718905 0.202445 0.710947
Si Si2 0.224819 0.211696 0.134194
Si Si3 0.223705 0.426813 0.913612
Si Si4 0.775434 0.713618 0.950849
Si Si5 0.724360 0.572740 0.357918
Si Si6 0.276039 0.930369 0.312404
Si Si7 0.710511 0.421623 0.545269
O O1 0.500000 0.197952 0.705600
O O2 0.750000 0.250000 0.750000
O O3 0.787401 0.231961 0.666196
O O4 0.789174 0.129628 0.715774
O O5 0.281698 0.233836 0.085818
O O6 0.277555 0.144004 0.158740
O O7 0.000000 0.209985 0.132558
O O8 0.281748 0.500000 0.928582
O O9 0.281818 0.360394 0.937571
O O10 0.273037 0.421948 0.862870
O O11 0.000000 0.426928 0.915833
O O12 0.000000 0.713663 0.950311
O O13 0.718576 0.728133 0.000000
O O14 0.500000 0.569100 0.357697
O O15 0.786604 0.500000 0.344177
O O16 0.788078 0.585768 0.407434
O O17 0.500000 0.932081 0.311699
O O18 0.210087 0.000000 0.296946
O O19 0.792975 0.398465 0.500000
O O20 0.500000 0.396115 0.546711
O O21 0.699738 0.500000 0.542280
#
# Coordination Sequence:
#
# PCOD9519358 Si02
#       7
#    16  16  16  16  16  16  16
#     4  10  19  32  50  70  92 119 152 190 233 278
#     4   9  16  26  37  52  78 109 140 176 219 268
#     4   8  12  19  32  50  74 106 142 177 214 258
#     4   9  15  21  30  48  77 111 142 173 216 268
#     4   8  13  20  30  43  62  94 133 168 206 254
#     4   8  13  24  44  65  85 115 154 189 222 269
#     4   7   9  13  21  34  53  80 120 165 194 217
#
# _framework density 24.273188999999999
#
# number of rings (size 3 to 8) (size 9 to 14) (size 15 to 20)
#    0.000    3.571    1.429    2.143    0.000    0.857 
#    0.000    5.000    0.000    1.286    0.000    0.000 
#    0.000    0.571    0.000    0.000    0.000    4.571 
#
# Total GULP energy -311888.083451 kJ/mol
# GULP energy per Si atom -5569.430062 kJ/mol
# Density = 2.421794 g / cm^3
# Si number density = 24.273189 Si / 1000 Ang^3
#
#
#
# Elastic Constant Matrix: (Units=GPa)
#
#
# Indices 1 2 3 4 5 6 
#
# 1 107.8988 3.7644 -5.3245 0.0000 0.0000 0.0000
# 2 3.7644 228.6231 51.5378 0.0000 0.0000 0.0000
# 3 -5.3245 51.5378 52.2451 0.0000 0.0000 0.0000
# 4 0.0000 0.0000 0.0000 27.2718 0.0000 0.0000
# 5 0.0000 0.0000 0.0000 0.0000 -0.2535 0.0000
# 6 0.0000 0.0000 0.0000 0.0000 0.0000 2.2794
#
#
#
# Elastic Compliance Matrix: (Units=1/GPa)
#
#
# Indices 1 2 3 4 5 6 
#
# 1 0.009355 -0.000474 0.001421 0.000000 0.000000 0.000000
# 2 -0.000474 0.005649 -0.005621 0.000000 0.000000 0.000000
# 3 0.001421 -0.005621 0.024830 0.000000 0.000000 0.000000
# 4 0.000000 0.000000 0.000000 0.036668 0.000000 0.000000
# 5 0.000000 0.000000 0.000000 0.000000 -3.944851 0.000000
# 6 0.000000 0.000000 0.000000 0.000000 0.000000 0.438719
#
#
# Mechanical properties :
#
#
# Convention : Reuss Voigt Hill
#
# Bulk Modulus (GPa) = 32.80199 54.30248 43.55224
# Shear Modulus (GPa) = -1.46622 28.44547 13.48962
#
# Velocity S-wave (km/s) = -0.77805 3.42700 2.35998
# Velocity P-wave (km/s) = 3.56873 6.17082 5.04058
#
# Compressibility (1/GPa) = 0.03048596
#
# Stress axis : x y z
#
# Youngs Moduli (GPa) = 106.89889 177.02571 40.27370
#
# Poissons Ratio (x) = 0.08399 -0.05724
# Poissons Ratio (y) = 0.05072 0.22637
# Poissons Ratio (z) = -0.15194 0.99502
#
# Static dielectric constant tensor:
#      x y z
#    x 2.182680 0.000000 0.000000 
#    y 0.000000 1.979860 0.000000 
#    z 0.000000 0.000000 1.936320 
# 
# From -- ./inp_files/64807.got.cif
#   From: 2010.05.17/outbox.cif.g08.bks.cpg/sg71_33_cif.got.tgz:64807.got - 2010.06.03 16:22:01.
