data_PCOD9519856
_publ_section_title
;
Structure prediction by ZEFSAII (Michael W. Deem and Ramdas Pophale) SiO2 
 PCOD9519856
Probable space group: I M M M
;
_chemical_formula_sum "Si O2"
_cell_formula_units_Z 64
_cell_length_a 21.781584
_cell_length_b 18.884679
_cell_length_c 8.412468
_cell_angle_alpha 90.000000
_cell_angle_beta 90.000000
_cell_angle_gamma 90.000000
_cell_volume 3460.369629
_symmetry_space_group_name_H-M "I M M M"
_symmetry_group_IT_number 71
_symmetry_cell_setting 'orthorhombic'
loop_
_space_group_symop_operation_xyz
x,y,z
-x,-y,z
x,-y,-z
-x,y,-z
-x,-y,-z
x,y,-z
-x,y,z
x,-y,z
1/2+x,1/2+y,1/2+z
1/2-x,1/2-y,1/2+z
1/2+x,1/2-y,1/2-z
1/2-x,1/2+y,1/2-z
1/2-x,1/2-y,1/2-z
1/2+x,1/2+y,1/2-z
1/2-x,1/2+y,1/2+z
1/2+x,1/2-y,1/2+z
loop_
_atom_site_type_symbol
_atom_site_label
_atom_site_fract_x
_atom_site_fract_y
_atom_site_fract_z
Si Si1 0.000000 0.080989 0.190089
Si Si2 0.000000 0.581448 0.305319
Si Si3 0.252642 0.331153 0.309529
Si Si4 0.881598 0.668797 0.306267
Si Si5 0.382796 0.666724 0.189888
O O1 0.939323 0.121702 0.246834
O O2 0.000000 0.000000 0.248924
O O3 0.000000 0.080043 0.000000
O O4 0.938920 0.622509 0.252358
O O5 0.000000 0.500000 0.255607
O O6 0.000000 0.582517 0.500000
O O7 0.255958 0.332191 0.500000
O O8 0.250000 0.250000 0.250000
O O9 0.185769 0.360352 0.260245
O O10 0.315982 0.361562 0.242651
O O11 0.882568 0.669605 0.500000
O O12 0.887851 0.750962 0.255152
O O13 0.384927 0.667465 0.000000
#
# Coordination Sequence:
#
# PCOD9519856 Si02
#       5
#     8   8  16  16  16
#     4  11  24  39  53  73 102 131 162 208 262 315
#     4   9  15  24  40  64  96 131 164 196 234 283
#     4   9  16  28  47  73 104 132 165 211 257 300
#     4   8  15  27  45  71 100 131 166 205 247 288
#     4  10  19  33  54  75  98 130 167 208 253 305
#
# _framework density 18.495134
#
# number of rings (size 3 to 8) (size 9 to 14) (size 15 to 20)
#    0.000    2.750    0.000    4.125    0.000    3.000 
#    0.000    1.250    0.000    4.500    0.000    0.000 
#    0.000   82.000    0.000    0.000    0.000    0.000 
#
# Total GULP energy -178317.149452 kJ/mol
# GULP energy per Si atom -5572.410920 kJ/mol
# Density = 1.845304 g / cm^3
# Si number density = 18.495134 Si / 1000 Ang^3
#
#
#
# Elastic Constant Matrix: (Units=GPa)
#
#
# Indices 1 2 3 4 5 6 
#
# 1 240.0700 91.2936 31.3202 0.0000 0.0000 0.0000
# 2 91.2936 82.8949 17.2271 0.0000 0.0000 0.0000
# 3 31.3202 17.2271 31.9408 0.0000 0.0000 0.0000
# 4 0.0000 0.0000 0.0000 14.2000 0.0000 0.0000
# 5 0.0000 0.0000 0.0000 0.0000 28.4463 0.0000
# 6 0.0000 0.0000 0.0000 0.0000 0.0000 -5.2554
#
#
#
# Elastic Compliance Matrix: (Units=1/GPa)
#
#
# Indices 1 2 3 4 5 6 
#
# 1 0.007454 -0.007535 -0.003245 0.000000 0.000000 0.000000
# 2 -0.007535 0.021203 -0.004047 0.000000 0.000000 0.000000
# 3 -0.003245 -0.004047 0.036673 0.000000 0.000000 0.000000
# 4 0.000000 0.000000 0.000000 0.070422 0.000000 0.000000
# 5 0.000000 0.000000 0.000000 0.000000 0.035154 0.000000
# 6 0.000000 0.000000 0.000000 0.000000 0.000000 -0.190279
#
#
# Mechanical properties :
#
#
# Convention : Reuss Voigt Hill
#
# Bulk Modulus (GPa) = 28.03065 70.50971 49.27018
# Shear Modulus (GPa) = 225.48756 21.81584 123.65170
#
# Velocity S-wave (km/s) = 11.05359 3.43818 8.18544
# Velocity P-wave (km/s) = 13.34533 7.34626 10.77185
#
# Compressibility (1/GPa) = 0.03567524
#
# Stress axis : x y z
#
# Youngs Moduli (GPa) = 134.15076 47.16303 27.26794
#
# Poissons Ratio (x) = 0.35538 0.08850
# Poissons Ratio (y) = 1.01084 0.11035
# Poissons Ratio (z) = 0.43538 0.19087
#
# Static dielectric constant tensor:
#      x y z
#    x 1.667040 0.000000 0.000000 
#    y 0.000000 1.610290 0.000000 
#    z 0.000000 0.000000 1.635140 
# 
# From -- ./inp_files/9531.got.cif
#   From: 2010.05.17/outbox.cif.g08.bks.cpg/sg71_5_cif.got.tgz:9531.got - 2010.06.03 16:22:01.
