data_PCOD9519155
_publ_section_title
;
Structure prediction by ZEFSAII (Michael W. Deem and Ramdas Pophale) SiO2 
 PCOD9519155
Probable space group: I M M M
;
_chemical_formula_sum "Si O2"
_cell_formula_units_Z 72
_cell_length_a 22.780515
_cell_length_b 7.851101
_cell_length_c 26.281413
_cell_angle_alpha 90.000000
_cell_angle_beta 90.000000
_cell_angle_gamma 90.000000
_cell_volume 4700.486539
_symmetry_space_group_name_H-M "I M M M"
_symmetry_group_IT_number 71
_symmetry_cell_setting 'orthorhombic'
loop_
_space_group_symop_operation_xyz
x,y,z
-x,-y,z
x,-y,-z
-x,y,-z
-x,-y,-z
x,y,-z
-x,y,z
x,-y,z
1/2+x,1/2+y,1/2+z
1/2-x,1/2-y,1/2+z
1/2+x,1/2-y,1/2-z
1/2-x,1/2+y,1/2-z
1/2-x,1/2-y,1/2-z
1/2+x,1/2+y,1/2-z
1/2-x,1/2+y,1/2+z
1/2+x,1/2-y,1/2+z
loop_
_atom_site_type_symbol
_atom_site_label
_atom_site_fract_x
_atom_site_fract_y
_atom_site_fract_z
Si Si1 0.845218 0.195312 0.722999
Si Si2 0.127910 0.196231 0.894060
Si Si3 0.930474 0.294233 0.000000
Si Si4 0.271344 0.701603 0.324329
Si Si5 0.564413 0.000000 0.660175
Si Si6 0.567214 0.000000 0.218439
O O1 0.789593 0.204715 0.685040
O O2 0.815918 0.245781 0.777739
O O3 0.894533 0.330859 0.706938
O O4 0.866336 0.000000 0.726953
O O5 0.195612 0.228486 0.877810
O O6 0.094095 0.330448 0.859792
O O7 0.116103 0.000000 0.880170
O O8 0.104642 0.228120 0.950712
O O9 0.929131 0.500000 0.000000
O O10 0.000000 0.243347 0.000000
O O11 0.259490 0.500000 0.318545
O O12 0.562504 0.000000 0.720431
O O13 0.500000 0.000000 0.637085
O O14 0.500000 0.000000 0.198428
#
# Coordination Sequence:
#
# PCOD9519155 Si02
#       6
#    16  16   8  16   8   8
#     4  10  19  31  50  72  93 126 158 199 247 293
#     4  11  22  35  51  70  90 122 167 214 253 285
#     4  11  23  37  51  66  93 133 172 206 247 291
#     4   9  18  31  50  72  94 116 161 208 248 292
#     4  11  22  33  48  67  94 128 167 205 246 288
#     4  11  22  34  47  70 105 131 157 202 244 289
#
# _framework density 15.317563
#
# number of rings (size 3 to 8) (size 9 to 14) (size 15 to 20)
#    0.000    1.667    4.444    1.000    3.111    2.667 
#    0.000    2.222    0.000    0.000    0.000    0.000 
#    0.000    0.000    0.000    2.000    0.000    4.667 
#
# Total GULP energy -200589.731027 kJ/mol
# GULP energy per Si atom -5571.936973 kJ/mol
# Density = 1.528270 g / cm^3
# Si number density = 15.317563 Si / 1000 Ang^3
#
#
#
# Elastic Constant Matrix: (Units=GPa)
#
#
# Indices 1 2 3 4 5 6 
#
# 1 102.2931 57.0546 31.5143 0.0000 0.0000 0.0000
# 2 57.0546 89.0495 12.5757 0.0000 0.0000 0.0000
# 3 31.5143 12.5757 54.5071 0.0000 0.0000 0.0000
# 4 0.0000 0.0000 0.0000 16.9180 0.0000 0.0000
# 5 0.0000 0.0000 0.0000 0.0000 22.2404 0.0000
# 6 0.0000 0.0000 0.0000 0.0000 0.0000 23.1439
#
#
#
# Elastic Compliance Matrix: (Units=1/GPa)
#
#
# Indices 1 2 3 4 5 6 
#
# 1 0.018082 -0.010449 -0.008044 0.000000 0.000000 0.000000
# 2 -0.010449 0.017646 0.001970 0.000000 0.000000 0.000000
# 3 -0.008044 0.001970 0.022542 0.000000 0.000000 0.000000
# 4 0.000000 0.000000 0.000000 0.059109 0.000000 0.000000
# 5 0.000000 0.000000 0.000000 0.000000 0.044963 0.000000
# 6 0.000000 0.000000 0.000000 0.000000 0.000000 0.043208
#
#
# Mechanical properties :
#
#
# Convention : Reuss Voigt Hill
#
# Bulk Modulus (GPa) = 39.64306 49.79322 44.71814
# Shear Modulus (GPa) = 20.24252 22.10747 21.17499
#
# Velocity S-wave (km/s) = 3.63922 3.80317 3.72210
# Velocity P-wave (km/s) = 6.60269 7.20162 6.90865
#
# Compressibility (1/GPa) = 0.02522510
#
# Stress axis : x y z
#
# Youngs Moduli (GPa) = 55.30321 56.66849 44.36112
#
# Poissons Ratio (x) = 0.59215 0.35683
# Poissons Ratio (y) = 0.57789 -0.08740
# Poissons Ratio (z) = 0.44484 -0.11165
#
# Static dielectric constant tensor:
#      x y z
#    x 1.537490 0.000000 0.000000 
#    y 0.000000 1.528050 0.000000 
#    z 0.000000 0.000000 1.511660 
# 
# From -- ./inp_files/66276.got.cif
#   From: 2010.05.17/outbox.cif.g08.bks.cpg/sg71_34_cif.got.tgz:66276.got - 2010.06.03 16:22:01.
