data_PCOD9519731
_publ_section_title
;
Structure prediction by ZEFSAII (Michael W. Deem and Ramdas Pophale) SiO2 
 PCOD9519731
Probable space group: I M M M
;
_chemical_formula_sum "Si O2"
_cell_formula_units_Z 104
_cell_length_a 9.315886
_cell_length_b 28.840164
_cell_length_c 24.514007
_cell_angle_alpha 90.000000
_cell_angle_beta 90.000000
_cell_angle_gamma 90.000000
_cell_volume 6586.219445
_symmetry_space_group_name_H-M "I M M M"
_symmetry_group_IT_number 71
_symmetry_cell_setting 'orthorhombic'
loop_
_space_group_symop_operation_xyz
x,y,z
-x,-y,z
x,-y,-z
-x,y,-z
-x,-y,-z
x,y,-z
-x,y,z
x,-y,z
1/2+x,1/2+y,1/2+z
1/2-x,1/2-y,1/2+z
1/2+x,1/2-y,1/2-z
1/2-x,1/2+y,1/2-z
1/2-x,1/2-y,1/2-z
1/2+x,1/2+y,1/2-z
1/2-x,1/2+y,1/2+z
1/2+x,1/2-y,1/2+z
loop_
_atom_site_type_symbol
_atom_site_label
_atom_site_fract_x
_atom_site_fract_y
_atom_site_fract_z
Si Si1 0.832088 0.944785 0.242949
Si Si2 0.671757 0.680916 0.436172
Si Si3 0.334736 0.727195 0.066255
Si Si4 0.173045 0.876762 0.435628
Si Si5 0.829621 0.500000 0.434808
Si Si6 0.670710 0.945146 0.646119
Si Si7 0.672745 0.414302 0.377386
O O1 0.735172 0.932822 0.294629
O O2 0.796521 0.918829 0.186928
O O3 0.000000 0.936576 0.256192
O O4 0.816333 0.000000 0.232116
O O5 0.711219 0.673747 0.500000
O O6 0.500000 0.685717 0.433790
O O7 0.743126 0.728595 0.416450
O O8 0.712234 0.635586 0.401961
O O9 0.500000 0.732946 0.083251
O O10 0.285158 0.675627 0.082198
O O11 0.332856 0.726663 0.000000
O O12 0.205969 0.882178 0.500000
O O13 0.251892 0.914599 0.399454
O O14 0.000000 0.880218 0.430066
O O15 0.809582 0.500000 0.500000
O O16 0.755042 0.454894 0.408925
O O17 0.000000 0.500000 0.423330
O O18 0.500000 0.938301 0.644994
O O19 0.699871 0.000000 0.637579
O O20 0.500000 0.420807 0.384195
#
# Coordination Sequence:
#
# PCOD9519731 Si02
#       7
#    16  16  16  16   8  16  16
#     4   9  17  32  52  70  89 122 169 208 240 284
#     4   9  17  28  45  71  99 126 158 198 245 294
#     4   8  15  29  48  69  95 126 159 195 235 283
#     4   9  18  33  53  76 100 129 163 195 232 281
#     4  11  23  33  43  67 101 133 164 203 254 303
#     4  10  21  34  49  73 103 131 157 193 242 289
#     4  10  19  33  51  70  93 127 169 209 247 292
#
# _framework density 15.790546000000001
#
# number of rings (size 3 to 8) (size 9 to 14) (size 15 to 20)
#    0.000    2.692    0.769    2.077    0.000    4.615 
#    0.000    4.615    0.000    0.923    0.000    0.000 
#    0.000    0.000    0.000    0.000    0.000    0.000 
#
# Total GULP energy -289811.007661 kJ/mol
# GULP energy per Si atom -5573.288609 kJ/mol
# Density = 1.575461 g / cm^3
# Si number density = 15.790546 Si / 1000 Ang^3
#
#
#
# Elastic Constant Matrix: (Units=GPa)
#
#
# Indices 1 2 3 4 5 6 
#
# 1 49.1571 66.8796 55.0425 0.0000 0.0000 0.0000
# 2 66.8796 129.6228 80.9058 0.0000 0.0000 0.0000
# 3 55.0425 80.9058 93.6451 0.0000 0.0000 0.0000
# 4 0.0000 0.0000 0.0000 3.9343 0.0000 0.0000
# 5 0.0000 0.0000 0.0000 0.0000 19.9950 0.0000
# 6 0.0000 0.0000 0.0000 0.0000 0.0000 28.4176
#
#
#
# Elastic Compliance Matrix: (Units=1/GPa)
#
#
# Indices 1 2 3 4 5 6 
#
# 1 0.094775 -0.030667 -0.029212 0.000000 0.000000 0.000000
# 2 -0.030667 0.026667 -0.005014 0.000000 0.000000 0.000000
# 3 -0.029212 -0.005014 0.032180 0.000000 0.000000 0.000000
# 4 0.000000 0.000000 0.000000 0.254173 0.000000 0.000000
# 5 0.000000 0.000000 0.000000 0.000000 0.050012 0.000000
# 6 0.000000 0.000000 0.000000 0.000000 0.000000 0.035189
#
#
# Mechanical properties :
#
#
# Convention : Reuss Voigt Hill
#
# Bulk Modulus (GPa) = 41.95063 75.34233 58.64648
# Shear Modulus (GPa) = 7.92735 15.10920 11.51827
#
# Velocity S-wave (km/s) = 2.24304 3.09666 2.70375
# Velocity P-wave (km/s) = 5.77346 7.78478 6.85331
#
# Compressibility (1/GPa) = 0.02383754
#
# Stress axis : x y z
#
# Youngs Moduli (GPa) = 10.55129 37.49954 31.07486
#
# Poissons Ratio (x) = 1.15000 0.90775
# Poissons Ratio (y) = 0.32358 0.15581
# Poissons Ratio (z) = 0.30822 0.18802
#
# Static dielectric constant tensor:
#      x y z
#    x 1.525140 0.000000 0.000000 
#    y 0.000000 1.518370 0.000000 
#    z 0.000000 0.000000 1.508380 
# 
# From -- ./inp_files/63703.got.cif
#   From: 2010.05.17/outbox.cif.g08.bks.cpg/sg71_32_cif.got.tgz:63703.got - 2010.06.03 16:22:01.
