data_PCOD9519836
_publ_section_title
;
Structure prediction by ZEFSAII (Michael W. Deem and Ramdas Pophale) SiO2 
 PCOD9519836
Probable space group: I M M M
;
_chemical_formula_sum "Si O2"
_cell_formula_units_Z 72
_cell_length_a 10.825031
_cell_length_b 19.918601
_cell_length_c 14.701690
_cell_angle_alpha 90.000000
_cell_angle_beta 90.000000
_cell_angle_gamma 90.000000
_cell_volume 3169.970654
_symmetry_space_group_name_H-M "I M M M"
_symmetry_group_IT_number 71
_symmetry_cell_setting 'orthorhombic'
loop_
_space_group_symop_operation_xyz
x,y,z
-x,-y,z
x,-y,-z
-x,y,-z
-x,-y,-z
x,y,-z
-x,y,z
x,-y,z
1/2+x,1/2+y,1/2+z
1/2-x,1/2-y,1/2+z
1/2+x,1/2-y,1/2-z
1/2-x,1/2+y,1/2-z
1/2-x,1/2-y,1/2-z
1/2+x,1/2+y,1/2-z
1/2-x,1/2+y,1/2+z
1/2+x,1/2-y,1/2+z
loop_
_atom_site_type_symbol
_atom_site_label
_atom_site_fract_x
_atom_site_fract_y
_atom_site_fract_z
Si Si1 0.500000 0.422915 0.611710
Si Si2 0.500000 0.077491 0.146536
Si Si3 0.637546 0.285209 0.888587
Si Si4 0.773801 0.076147 0.604708
Si Si5 0.500000 0.923073 0.363908
Si Si6 0.755732 0.153702 0.107536
O O1 0.500000 0.500000 0.642220
O O2 0.500000 0.424058 0.500000
O O3 0.624879 0.385695 0.642311
O O4 0.500000 0.078195 0.255650
O O5 0.627237 0.113185 0.117926
O O6 0.500000 0.000000 0.115495
O O7 0.500000 0.261320 0.865936
O O8 0.654541 0.361063 0.854294
O O9 0.733081 0.228841 0.856190
O O10 0.645305 0.287948 0.000000
O O11 0.814245 0.069406 0.500000
O O12 0.632052 0.102399 0.604561
O O13 0.779023 0.000000 0.644590
O O14 0.500000 0.000000 0.396155
O O15 0.776641 0.160941 0.000000
#
# Coordination Sequence:
#
# PCOD9519836 Si02
#       6
#     8   8  16  16   8  16
#     4   9  18  31  48  74 103 129 174 232 263 294
#     4  11  21  33  54  76 103 143 180 216 260 315
#     4   9  17  30  50  77 107 134 168 218 264 310
#     4   9  17  31  54  78 101 134 174 217 267 321
#     4   9  19  34  50  74 106 132 170 223 267 309
#     4  10  19  33  53  77 107 142 176 215 264 310
#
# _framework density 22.713144
#
# number of rings (size 3 to 8) (size 9 to 14) (size 15 to 20)
#    0.000    2.556    1.111    1.333    0.000    4.444 
#    0.000    6.667    2.444    0.000    0.000    0.000 
#    0.000    0.000    0.000    0.000    0.000    0.000 
#
# Total GULP energy -200797.419687 kJ/mol
# GULP energy per Si atom -5577.706102 kJ/mol
# Density = 2.266145 g / cm^3
# Si number density = 22.713144 Si / 1000 Ang^3
#
#
#
# Elastic Constant Matrix: (Units=GPa)
#
#
# Indices 1 2 3 4 5 6 
#
# 1 139.6015 86.8085 -2.5023 0.0000 0.0000 0.0000
# 2 86.8085 187.3959 7.9366 0.0000 0.0000 0.0000
# 3 -2.5023 7.9366 52.2576 0.0001 0.0002 0.0000
# 4 0.0000 0.0000 0.0001 2.7456 0.0001 0.0000
# 5 0.0000 0.0000 0.0002 0.0001 12.2213 0.0000
# 6 0.0000 0.0000 0.0000 0.0000 0.0000 36.3702
#
#
#
# Elastic Compliance Matrix: (Units=1/GPa)
#
#
# Indices 1 2 3 4 5 6 
#
# 1 0.010136 -0.004747 0.001206 0.000000 0.000000 0.000000
# 2 -0.004747 0.007594 -0.001381 0.000000 0.000000 0.000000
# 3 0.001206 -0.001381 0.019403 0.000000 0.000000 0.000000
# 4 0.000000 0.000000 0.000000 0.364213 -0.000002 0.000000
# 5 0.000000 0.000000 0.000000 -0.000002 0.081824 0.000000
# 6 0.000000 0.000000 0.000000 0.000000 0.000000 0.027495
#
#
# Mechanical properties :
#
#
# Convention : Reuss Voigt Hill
#
# Bulk Modulus (GPa) = 36.64137 62.63785 49.63961
# Shear Modulus (GPa) = 9.44099 29.40159 19.42129
#
# Velocity S-wave (km/s) = 2.04099 3.60178 2.92733
# Velocity P-wave (km/s) = 4.66063 6.70334 5.77305
#
# Compressibility (1/GPa) = 0.02729155
#
# Stress axis : x y z
#
# Youngs Moduli (GPa) = 98.65347 131.69000 51.53738
#
# Poissons Ratio (x) = 0.62509 -0.06217
# Poissons Ratio (y) = 0.46828 0.07115
# Poissons Ratio (z) = -0.11900 0.18181
#
# Static dielectric constant tensor:
#      x y z
#    x 1.915250 0.000000 0.000000 
#    y 0.000000 1.849780 0.000000 
#    z 0.000000 0.000000 1.824720 
# 
# From -- ./inp_files/50224.got.cif
#   From: 2010.05.17/outbox.cif.g08.bks.cpg/sg71_26_cif.got.tgz:50224.got - 2010.06.03 16:22:01.
