data_PCOD9519440
_publ_section_title
;
Structure prediction by ZEFSAII (Michael W. Deem and Ramdas Pophale) SiO2 
 PCOD9519440
Probable space group: I M M M
;
_chemical_formula_sum "Si O2"
_cell_formula_units_Z 104
_cell_length_a 7.458949
_cell_length_b 29.280630
_cell_length_c 21.865069
_cell_angle_alpha 90.000000
_cell_angle_beta 90.000000
_cell_angle_gamma 90.000000
_cell_volume 4775.390671
_symmetry_space_group_name_H-M "I M M M"
_symmetry_group_IT_number 71
_symmetry_cell_setting 'orthorhombic'
loop_
_space_group_symop_operation_xyz
x,y,z
-x,-y,z
x,-y,-z
-x,y,-z
-x,-y,-z
x,y,-z
-x,y,z
x,-y,z
1/2+x,1/2+y,1/2+z
1/2-x,1/2-y,1/2+z
1/2+x,1/2-y,1/2-z
1/2-x,1/2+y,1/2-z
1/2-x,1/2-y,1/2-z
1/2+x,1/2+y,1/2-z
1/2-x,1/2+y,1/2+z
1/2+x,1/2-y,1/2+z
loop_
_atom_site_type_symbol
_atom_site_label
_atom_site_fract_x
_atom_site_fract_y
_atom_site_fract_z
Si Si1 0.216643 0.447924 0.368957
Si Si2 0.210455 0.804648 0.817894
Si Si3 0.279875 0.447131 0.000000
Si Si4 0.709591 0.642089 0.433235
Si Si5 0.218051 0.198439 0.681093
Si Si6 0.793854 0.112155 0.614064
Si Si7 0.716350 0.946852 0.268761
O O1 0.274960 0.500000 0.379685
O O2 0.279555 0.411372 0.417693
O O3 0.273942 0.434015 0.300027
O O4 0.000000 0.447963 0.369090
O O5 0.290037 0.832127 0.874690
O O6 0.283188 0.813882 0.749794
O O7 0.228612 0.750607 0.829869
O O8 0.000000 0.816162 0.814400
O O9 0.218756 0.419192 0.940059
O O10 0.221479 0.500000 0.000000
O O11 0.500000 0.448757 0.000000
O O12 0.787710 0.651796 0.500000
O O13 0.500000 0.655051 0.435753
O O14 0.283811 0.161511 0.631964
O O15 0.000000 0.197019 0.681741
O O16 0.789589 0.083842 0.677123
O O17 0.000000 0.120459 0.596270
O O18 0.500000 0.944063 0.270834
O O19 0.765264 0.000000 0.278080
#
# Coordination Sequence:
#
# PCOD9519440 Si02
#       7
#    16  16   8  16  16  16  16
#     4   9  19  35  53  75 104 136 170 210 255 303
#     4   9  18  34  53  73 100 132 164 204 257 310
#     4   9  18  32  49  71 103 141 175 209 254 307
#     4  10  21  36  53  75 104 137 172 209 250 297
#     4   9  18  32  52  77 100 124 163 214 259 298
#     4  10  19  32  51  75 102 134 174 215 256 308
#     4   9  18  32  50  74 103 132 166 212 261 304
#
# _framework density 21.778321999999999
#
# number of rings (size 3 to 8) (size 9 to 14) (size 15 to 20)
#    0.000    2.692    0.000    2.308    0.000    4.923 
#    1.385    6.538    0.000    1.385    0.000    0.000 
#    0.000    0.000    0.000    0.000    0.000    0.000 
#
# Total GULP energy -290305.269119 kJ/mol
# GULP energy per Si atom -5582.793637 kJ/mol
# Density = 2.172875 g / cm^3
# Si number density = 21.778322 Si / 1000 Ang^3
#
#
#
# Elastic Constant Matrix: (Units=GPa)
#
#
# Indices 1 2 3 4 5 6 
#
# 1 64.9109 -8.4771 -1.1755 0.0000 0.0000 0.0000
# 2 -8.4771 88.7876 66.9018 0.0000 0.0000 0.0000
# 3 -1.1755 66.9018 106.9695 0.0000 0.0000 0.0000
# 4 0.0000 0.0000 0.0000 26.8198 0.0000 0.0000
# 5 0.0000 0.0000 0.0000 0.0000 10.9779 0.0000
# 6 0.0000 0.0000 0.0000 0.0000 0.0000 16.5854
#
#
#
# Elastic Compliance Matrix: (Units=1/GPa)
#
#
# Indices 1 2 3 4 5 6 
#
# 1 0.015718 0.002592 -0.001448 0.000000 0.000000 0.000000
# 2 0.002592 0.021729 -0.013561 0.000000 0.000000 0.000000
# 3 -0.001448 -0.013561 0.017814 0.000000 0.000000 0.000000
# 4 0.000000 0.000000 0.000000 0.037286 0.000000 0.000000
# 5 0.000000 0.000000 0.000000 0.000000 0.091092 0.000000
# 6 0.000000 0.000000 0.000000 0.000000 0.000000 0.060294
#
#
# Mechanical properties :
#
#
# Convention : Reuss Voigt Hill
#
# Bulk Modulus (GPa) = 32.86697 41.68515 37.27606
# Shear Modulus (GPa) = 17.92693 24.43789 21.18241
#
# Velocity S-wave (km/s) = 2.87218 3.35344 3.12210
# Velocity P-wave (km/s) = 5.11112 5.84605 5.49090
#
# Compressibility (1/GPa) = 0.03042568
#
# Stress axis : x y z
#
# Youngs Moduli (GPa) = 63.62120 46.02167 56.13488
#
# Poissons Ratio (x) = -0.11929 0.08131
# Poissons Ratio (y) = -0.16491 0.76127
# Poissons Ratio (z) = 0.09215 0.62412
#
# Static dielectric constant tensor:
#      x y z
#    x 1.850680 0.000000 0.000000 
#    y 0.000000 1.774620 0.000000 
#    z 0.000000 0.000000 1.789170 
# 
# From -- ./inp_files/16942.got.cif
#   From: 2010.05.17/outbox.cif.g08.bks.cpg/sg71_9_cif.got.tgz:16942.got - 2010.06.03 16:22:01.
