data_PCOD9519390
_publ_section_title
;
Structure prediction by ZEFSAII (Michael W. Deem and Ramdas Pophale) SiO2 
 PCOD9519390
Probable space group: I M M M
;
_chemical_formula_sum "Si O2"
_cell_formula_units_Z 88
_cell_length_a 19.569187
_cell_length_b 29.887079
_cell_length_c 7.488272
_cell_angle_alpha 90.000000
_cell_angle_beta 90.000000
_cell_angle_gamma 90.000000
_cell_volume 4379.634477
_symmetry_space_group_name_H-M "I M M M"
_symmetry_group_IT_number 71
_symmetry_cell_setting 'orthorhombic'
loop_
_space_group_symop_operation_xyz
x,y,z
-x,-y,z
x,-y,-z
-x,y,-z
-x,-y,-z
x,y,-z
-x,y,z
x,-y,z
1/2+x,1/2+y,1/2+z
1/2-x,1/2-y,1/2+z
1/2+x,1/2-y,1/2-z
1/2-x,1/2+y,1/2-z
1/2-x,1/2-y,1/2-z
1/2+x,1/2+y,1/2-z
1/2-x,1/2+y,1/2+z
1/2+x,1/2-y,1/2+z
loop_
_atom_site_type_symbol
_atom_site_label
_atom_site_fract_x
_atom_site_fract_y
_atom_site_fract_z
Si Si1 0.421451 0.449212 0.217678
Si Si2 0.578027 0.053214 0.000000
Si Si3 0.658843 0.105051 0.704665
Si Si4 0.921033 0.304591 0.282847
Si Si5 0.313255 0.374912 0.218308
Si Si6 0.177139 0.773273 0.286297
O O1 0.500000 0.440736 0.271704
O O2 0.402918 0.500000 0.272363
O O3 0.369237 0.411026 0.277523
O O4 0.420635 0.448898 0.000000
O O5 0.616954 0.072003 0.171182
O O6 0.500000 0.070175 0.000000
O O7 0.577467 0.000000 0.000000
O O8 0.659629 0.089917 0.500000
O O9 0.621829 0.153104 0.716085
O O10 0.736700 0.110789 0.768280
O O11 0.919213 0.306189 0.500000
O O12 0.882631 0.259597 0.222692
O O13 0.000000 0.306435 0.228005
O O14 0.325627 0.324115 0.280985
O O15 0.314559 0.374151 0.000000
O O16 0.170415 0.775944 0.500000
O O17 0.250000 0.750000 0.250000
#
# Coordination Sequence:
#
# PCOD9519390 Si02
#       6
#    16   8  16  16  16  16
#     4   8  14  26  46  74 110 148 183 228 287 344
#     4  11  26  46  64  86 119 153 195 251 301 355
#     4  11  22  38  62  89 117 154 196 242 299 357
#     4  10  20  34  54  80 112 153 199 243 289 348
#     4   9  18  31  51  81 115 151 194 242 290 345
#     4  10  19  32  50  74 109 148 184 230 284 335
#
# _framework density 20.093
#
# number of rings (size 3 to 8) (size 9 to 14) (size 15 to 20)
#    0.000    2.273    2.727    1.091    0.000    3.273 
#    0.000    6.364    0.000    0.000    0.000    0.636 
#    0.000    2.182    0.000    0.182    0.000    0.000 
#
# Total GULP energy -245818.868316 kJ/mol
# GULP energy per Si atom -5586.792462 kJ/mol
# Density = 2.004727 g / cm^3
# Si number density = 20.093000 Si / 1000 Ang^3
#
#
#
# Elastic Constant Matrix: (Units=GPa)
#
#
# Indices 1 2 3 4 5 6 
#
# 1 165.6650 101.0207 14.7440 0.0000 0.0000 0.0000
# 2 101.0207 153.6266 19.1130 0.0000 0.0000 0.0000
# 3 14.7440 19.1130 69.4459 0.0000 0.0001 0.0000
# 4 0.0000 0.0000 0.0000 -3.6431 0.0000 0.0000
# 5 0.0000 0.0000 0.0001 0.0000 12.1786 0.0000
# 6 0.0000 0.0000 0.0000 0.0000 0.0000 45.5470
#
#
#
# Elastic Compliance Matrix: (Units=1/GPa)
#
#
# Indices 1 2 3 4 5 6 
#
# 1 0.010084 -0.006590 -0.000327 0.000000 0.000000 0.000000
# 2 -0.006590 0.011047 -0.001641 0.000000 0.000000 0.000000
# 3 -0.000327 -0.001641 0.014921 0.000000 0.000000 0.000000
# 4 0.000000 0.000000 0.000000 -0.274492 0.000000 0.000000
# 5 0.000000 0.000000 0.000000 0.000000 0.082111 0.000000
# 6 0.000000 0.000000 0.000000 0.000000 0.000000 0.021955
#
#
# Mechanical properties :
#
#
# Convention : Reuss Voigt Hill
#
# Bulk Modulus (GPa) = 52.81315 73.16587 62.98951
# Shear Modulus (GPa) = -45.06779 27.74048 -8.66366
#
# Velocity S-wave (km/s) = -4.74113 3.71968 -2.07873
# Velocity P-wave (km/s) = 1.90516 7.41220 5.06513
#
# Compressibility (1/GPa) = 0.01893468
#
# Stress axis : x y z
#
# Youngs Moduli (GPa) = 99.16588 90.52141 67.02030
#
# Poissons Ratio (x) = 0.59657 0.02193
# Poissons Ratio (y) = 0.65354 0.10999
# Poissons Ratio (z) = 0.03244 0.14857
#
# Static dielectric constant tensor:
#      x y z
#    x 1.671530 0.000000 0.000000 
#    y 0.000000 1.683450 0.000000 
#    z 0.000000 0.000000 1.730740 
# 
# From -- ./inp_files/8781.got.cif
#   From: 2010.05.17/outbox.cif.g08.bks.cpg/sg71_5_cif.got.tgz:8781.got - 2010.06.03 16:22:01.
