data_PCOD9519173
_publ_section_title
;
Structure prediction by ZEFSAII (Michael W. Deem and Ramdas Pophale) SiO2 
 PCOD9519173
Probable space group: I M M M
;
_chemical_formula_sum "Si O2"
_cell_formula_units_Z 88
_cell_length_a 29.972140
_cell_length_b 7.450448
_cell_length_c 18.625766
_cell_angle_alpha 90.000000
_cell_angle_beta 90.000000
_cell_angle_gamma 90.000000
_cell_volume 4159.242891
_symmetry_space_group_name_H-M "I M M M"
_symmetry_group_IT_number 71
_symmetry_cell_setting 'orthorhombic'
loop_
_space_group_symop_operation_xyz
x,y,z
-x,-y,z
x,-y,-z
-x,y,-z
-x,-y,-z
x,y,-z
-x,y,z
x,-y,z
1/2+x,1/2+y,1/2+z
1/2-x,1/2-y,1/2+z
1/2+x,1/2-y,1/2-z
1/2-x,1/2+y,1/2-z
1/2-x,1/2-y,1/2-z
1/2+x,1/2+y,1/2-z
1/2-x,1/2+y,1/2+z
1/2+x,1/2-y,1/2+z
loop_
_atom_site_type_symbol
_atom_site_label
_atom_site_fract_x
_atom_site_fract_y
_atom_site_fract_z
Si Si1 0.899919 0.780852 0.856011
Si Si2 0.948297 0.780326 0.290892
Si Si3 0.551106 0.280549 0.500000
Si Si4 0.697912 0.282204 0.680250
Si Si5 0.794121 0.291654 0.348962
Si Si6 0.386426 0.708672 0.920002
O O1 0.925260 0.723876 0.783637
O O2 0.848374 0.724791 0.854394
O O3 0.900199 0.000000 0.855377
O O4 0.924530 0.721908 0.927713
O O5 0.918667 0.716071 0.358143
O O6 0.000000 0.726592 0.295085
O O7 0.947418 0.000000 0.290645
O O8 0.551658 0.500000 0.500000
O O9 0.500000 0.224109 0.500000
O O10 0.699565 0.500000 0.680370
O O11 0.743762 0.218093 0.643556
O O12 0.697003 0.226004 0.763656
O O13 0.793211 0.500000 0.368796
O O14 0.835488 0.212924 0.392090
O O15 0.399014 0.500000 0.925467
O O16 0.390044 0.787095 0.000000
#
# Coordination Sequence:
#
# PCOD9519173 Si02
#       6
#    16  16   8  16  16  16
#     4   9  15  26  44  67  99 131 157 194 245 299
#     4   9  16  27  47  72  95 123 163 209 251 293
#     4   9  16  24  38  68 105 131 153 191 250 305
#     4   9  17  31  51  74  99 131 166 203 247 294
#     4  10  19  31  50  75 100 130 167 209 250 295
#     4  10  20  34  51  71 101 137 169 207 254 302
#
# _framework density 21.157698
#
# number of rings (size 3 to 8) (size 9 to 14) (size 15 to 20)
#    0.000    2.636    1.818    1.091    0.000    3.636 
#    1.636    1.818    0.000    0.545    0.000    1.273 
#    0.000    0.727    0.000    0.000    0.000    0.000 
#
# Total GULP energy -245602.608568 kJ/mol
# GULP energy per Si atom -5581.877467 kJ/mol
# Density = 2.110954 g / cm^3
# Si number density = 21.157698 Si / 1000 Ang^3
#
#
#
# Elastic Constant Matrix: (Units=GPa)
#
#
# Indices 1 2 3 4 5 6 
#
# 1 214.1747 0.6882 118.5443 0.0000 0.0000 0.0000
# 2 0.6882 62.3253 2.7053 0.0000 0.0000 0.0000
# 3 118.5443 2.7053 169.7911 0.0000 0.0000 0.0000
# 4 0.0000 0.0000 0.0000 -2.4633 0.0000 0.0000
# 5 0.0000 0.0000 0.0000 0.0000 21.7558 0.0000
# 6 0.0000 0.0000 0.0000 0.0000 0.0000 10.6594
#
#
#
# Elastic Compliance Matrix: (Units=1/GPa)
#
#
# Indices 1 2 3 4 5 6 
#
# 1 0.007611 0.000147 -0.005316 0.000000 0.000000 0.000000
# 2 0.000147 0.016059 -0.000358 0.000000 0.000000 0.000000
# 3 -0.005316 -0.000358 0.009607 0.000000 0.000000 0.000000
# 4 0.000000 0.000000 0.000000 -0.405962 0.000000 0.000000
# 5 0.000000 0.000000 0.000000 0.000000 0.045965 0.000000
# 6 0.000000 0.000000 0.000000 0.000000 0.000000 0.093814
#
#
# Mechanical properties :
#
#
# Convention : Reuss Voigt Hill
#
# Bulk Modulus (GPa) = 45.00202 76.68518 60.84360
# Shear Modulus (GPa) = -23.31608 27.61393 2.14893
#
# Velocity S-wave (km/s) = -3.32326 3.61660 1.00890
# Velocity P-wave (km/s) = 2.56721 7.33233 5.49334
#
# Compressibility (1/GPa) = 0.02222123
#
# Stress axis : x y z
#
# Youngs Moduli (GPa) = 131.38664 62.27121 104.09090
#
# Poissons Ratio (x) = -0.00914 0.55337
# Poissons Ratio (y) = -0.01928 0.03730
# Poissons Ratio (z) = 0.69848 0.02231
#
# Static dielectric constant tensor:
#      x y z
#    x 1.745600 0.000000 0.000000 
#    y 0.000000 1.920260 0.000000 
#    z 0.000000 0.000000 1.717810 
# 
# From -- ./inp_files/16684.got.cif
#   From: 2010.05.17/outbox.cif.g08.bks.cpg/sg71_9_cif.got.tgz:16684.got - 2010.06.03 16:22:01.
