data_PCOD9519007
_publ_section_title
;
Structure prediction by ZEFSAII (Michael W. Deem and Ramdas Pophale) SiO2 
 PCOD9519007
Probable space group: I M M M
;
_chemical_formula_sum "Si O2"
_cell_formula_units_Z 88
_cell_length_a 16.124563
_cell_length_b 22.678794
_cell_length_c 14.338635
_cell_angle_alpha 90.000000
_cell_angle_beta 90.000000
_cell_angle_gamma 90.000000
_cell_volume 5243.432954
_symmetry_space_group_name_H-M "I M M M"
_symmetry_group_IT_number 71
_symmetry_cell_setting 'orthorhombic'
loop_
_space_group_symop_operation_xyz
x,y,z
-x,-y,z
x,-y,-z
-x,y,-z
-x,-y,-z
x,y,-z
-x,y,z
x,-y,z
1/2+x,1/2+y,1/2+z
1/2-x,1/2-y,1/2+z
1/2+x,1/2-y,1/2-z
1/2-x,1/2+y,1/2-z
1/2-x,1/2-y,1/2-z
1/2+x,1/2+y,1/2-z
1/2-x,1/2+y,1/2+z
1/2+x,1/2-y,1/2+z
loop_
_atom_site_type_symbol
_atom_site_label
_atom_site_fract_x
_atom_site_fract_y
_atom_site_fract_z
Si Si1 0.595118 0.139758 0.387809
Si Si2 0.297956 0.386078 0.388959
Si Si3 0.909637 0.000000 0.111422
Si Si4 0.593012 0.428552 0.109814
Si Si5 0.736678 0.929116 0.287263
Si Si6 0.406252 0.273882 0.386925
O O1 0.597549 0.138832 0.500000
O O2 0.500000 0.126797 0.359883
O O3 0.662122 0.094979 0.349148
O O4 0.614407 0.207296 0.357620
O O5 0.278765 0.386866 0.500000
O O6 0.361033 0.440297 0.368775
O O7 0.226903 0.401003 0.315561
O O8 0.341791 0.324792 0.363463
O O9 0.000000 0.000000 0.156235
O O10 0.918231 0.000000 0.000000
O O11 0.500000 0.408535 0.139562
O O12 0.592261 0.500000 0.114616
O O13 0.674327 0.409996 0.167720
O O14 0.603067 0.413086 0.000000
O O15 0.735864 0.000000 0.282517
O O16 0.409024 0.273534 0.500000
O O17 0.500000 0.288325 0.355252
#
# Coordination Sequence:
#
# PCOD9519007 Si02
#       6
#    16  16   8  16  16  16
#     4   9  19  36  56  76  97 122 162 220 273 307
#     4  10  19  31  46  69 102 137 165 198 244 293
#     4   9  16  26  42  66  96 129 162 194 232 281
#     4   8  15  28  43  61  91 129 162 193 235 293
#     4  11  21  31  47  74 101 133 170 208 249 301
#     4   8  15  30  51  73  98 130 167 208 254 300
#
# _framework density 16.782897999999999
#
# number of rings (size 3 to 8) (size 9 to 14) (size 15 to 20)
#    0.000    2.818    0.909    2.727    0.000    5.818 
#    0.000    0.909    0.000    0.545    0.000    1.273 
#    0.000    1.455    0.000    0.000    0.000    0.000 
#
# Total GULP energy -244949.998930 kJ/mol
# GULP energy per Si atom -5567.045430 kJ/mol
# Density = 1.674470 g / cm^3
# Si number density = 16.782898 Si / 1000 Ang^3
#
#
#
# Elastic Constant Matrix: (Units=GPa)
#
#
# Indices 1 2 3 4 5 6 
#
# 1 74.8983 39.4942 37.6888 0.0000 0.0000 0.0000
# 2 39.4942 56.3415 27.3013 0.0000 0.0000 0.0000
# 3 37.6888 27.3013 56.2261 -0.0001 0.0000 0.0000
# 4 0.0000 0.0000 -0.0001 16.2047 0.0000 0.0000
# 5 0.0000 0.0000 0.0000 0.0000 12.3436 0.0000
# 6 0.0000 0.0000 0.0000 0.0000 0.0000 34.9592
#
#
#
# Elastic Compliance Matrix: (Units=1/GPa)
#
#
# Indices 1 2 3 4 5 6 
#
# 1 0.025504 -0.012546 -0.011004 0.000000 0.000000 0.000000
# 2 -0.012546 0.029381 -0.005857 0.000000 0.000000 0.000000
# 3 -0.011004 -0.005857 0.028005 0.000000 0.000000 0.000000
# 4 0.000000 0.000000 0.000000 0.061711 0.000000 0.000000
# 5 0.000000 0.000000 0.000000 0.000000 0.081014 0.000000
# 6 0.000000 0.000000 0.000000 0.000000 0.000000 0.028605
#
#
# Mechanical properties :
#
#
# Convention : Reuss Voigt Hill
#
# Bulk Modulus (GPa) = 41.53248 44.04826 42.79037
# Shear Modulus (GPa) = 15.57351 18.23359 16.90355
#
# Velocity S-wave (km/s) = 3.04951 3.29969 3.17707
# Velocity P-wave (km/s) = 6.09918 6.38907 6.24581
#
# Compressibility (1/GPa) = 0.02407754
#
# Stress axis : x y z
#
# Youngs Moduli (GPa) = 39.20971 34.03535 35.70766
#
# Poissons Ratio (x) = 0.42699 0.39292
# Poissons Ratio (y) = 0.49191 0.20914
# Poissons Ratio (z) = 0.43145 0.19934
#
# Static dielectric constant tensor:
#      x y z
#    x 1.579640 0.000000 0.000000 
#    y 0.000000 1.563470 0.000000 
#    z 0.000000 0.000000 1.601920 
# 
# From -- ./inp_files/34664.got.cif
#   From: 2010.05.17/outbox.cif.g08.bks.cpg/sg71_18_cif.got.tgz:34664.got - 2010.06.03 16:22:01.
