data_PCOD9519273
_publ_section_title
;
Structure prediction by ZEFSAII (Michael W. Deem and Ramdas Pophale) SiO2 
 PCOD9519273
Probable space group: I M M M
;
_chemical_formula_sum "Si O2"
_cell_formula_units_Z 96
_cell_length_a 29.200727
_cell_length_b 7.995233
_cell_length_c 21.089576
_cell_angle_alpha 90.000000
_cell_angle_beta 90.000000
_cell_angle_gamma 90.000000
_cell_volume 4923.711944
_symmetry_space_group_name_H-M "I M M M"
_symmetry_group_IT_number 71
_symmetry_cell_setting 'orthorhombic'
loop_
_space_group_symop_operation_xyz
x,y,z
-x,-y,z
x,-y,-z
-x,y,-z
-x,-y,-z
x,y,-z
-x,y,z
x,-y,z
1/2+x,1/2+y,1/2+z
1/2-x,1/2-y,1/2+z
1/2+x,1/2-y,1/2-z
1/2-x,1/2+y,1/2-z
1/2-x,1/2-y,1/2-z
1/2+x,1/2+y,1/2-z
1/2-x,1/2+y,1/2+z
1/2+x,1/2-y,1/2+z
loop_
_atom_site_type_symbol
_atom_site_label
_atom_site_fract_x
_atom_site_fract_y
_atom_site_fract_z
Si Si1 0.216804 0.796524 0.338189
Si Si2 0.134787 0.200253 0.571807
Si Si3 0.051879 0.302552 0.662799
Si Si4 0.585683 0.691952 0.299936
Si Si5 0.685950 0.805516 0.699204
Si Si6 0.054770 0.197195 0.932395
O O1 0.180895 0.742061 0.391827
O O2 0.270729 0.756691 0.344408
O O3 0.201801 0.715370 0.271955
O O4 0.214003 0.000000 0.331645
O O5 0.130722 0.266490 0.500000
O O6 0.090265 0.234786 0.614811
O O7 0.138868 0.000000 0.567811
O O8 0.049955 0.500000 0.652142
O O9 0.068626 0.272793 0.734861
O O10 0.000000 0.234369 0.654540
O O11 0.569364 0.500000 0.297088
O O12 0.640336 0.698913 0.305328
O O13 0.568916 0.772956 0.365451
O O14 0.674888 0.000000 0.687478
O O15 0.000000 0.200986 0.933803
O O16 0.068514 0.000000 0.931187
O O17 0.071505 0.268011 0.000000
#
# Coordination Sequence:
#
# PCOD9519273 Si02
#       6
#    16  16  16  16  16  16
#     4   9  18  34  54  78 105 138 177 217 262 316
#     4  10  21  38  60  83 108 142 187 235 280 330
#     4  11  24  39  55  79 111 145 184 232 284 336
#     4  11  20  32  54  83 111 142 181 226 273 321
#     4  10  19  31  52  80 110 140 173 215 264 317
#     4   8  15  29  49  73 101 135 176 220 265 313
#
# _framework density 19.497482999999999
#
# number of rings (size 3 to 8) (size 9 to 14) (size 15 to 20)
#    0.000    2.167    1.667    2.500    0.000    3.333 
#    0.000    2.500    0.000    3.000    0.000    5.833 
#    0.000    0.000    0.000    0.000    0.000    0.000 
#
# Total GULP energy -267523.798272 kJ/mol
# GULP energy per Si atom -5573.412464 kJ/mol
# Density = 1.945311 g / cm^3
# Si number density = 19.497483 Si / 1000 Ang^3
#
#
#
# Elastic Constant Matrix: (Units=GPa)
#
#
# Indices 1 2 3 4 5 6 
#
# 1 94.8206 0.2510 56.1804 0.0000 0.0000 0.0000
# 2 0.2510 18.8263 0.9992 0.0000 0.0000 0.0000
# 3 56.1804 0.9992 143.1196 0.0000 0.0000 0.0000
# 4 0.0000 0.0000 0.0000 0.1277 0.0000 0.0000
# 5 0.0000 0.0000 0.0000 0.0000 21.3110 0.0000
# 6 0.0000 0.0000 0.0000 0.0000 0.0000 12.4080
#
#
#
# Elastic Compliance Matrix: (Units=1/GPa)
#
#
# Indices 1 2 3 4 5 6 
#
# 1 0.013743 0.000103 -0.005395 0.000000 0.000000 0.000000
# 2 0.000103 0.053138 -0.000411 0.000000 0.000000 0.000000
# 3 -0.005395 -0.000411 0.009108 0.000000 0.000000 0.000000
# 4 0.000000 0.000000 0.000000 7.830043 0.000000 0.000000
# 5 0.000000 0.000000 0.000000 0.000000 0.046924 0.000000
# 6 0.000000 0.000000 0.000000 0.000000 0.000000 0.080593
#
#
# Mechanical properties :
#
#
# Convention : Reuss Voigt Hill
#
# Bulk Modulus (GPa) = 15.48448 41.29197 28.38822
# Shear Modulus (GPa) = 0.61985 20.05840 10.33913
#
# Velocity S-wave (km/s) = 0.56445 3.21092 2.30528
# Velocity P-wave (km/s) = 2.89548 5.91361 4.65589
#
# Compressibility (1/GPa) = 0.06458080
#
# Stress axis : x y z
#
# Youngs Moduli (GPa) = 72.76639 18.81910 109.79485
#
# Poissons Ratio (x) = -0.00194 0.59237
# Poissons Ratio (y) = -0.00750 0.04518
# Poissons Ratio (z) = 0.39259 0.00774
#
# Static dielectric constant tensor:
#      x y z
#    x 1.713480 0.000000 0.000000 
#    y 0.000000 1.695900 0.000000 
#    z 0.000000 0.000000 1.700540 
# 
# From -- ./inp_files/10810.got.cif
#   From: 2010.05.17/outbox.cif.g08.bks.cpg/sg71_6_cif.got.tgz:10810.got - 2010.06.03 16:22:01.
