data_PCOD9519952
_publ_section_title
;
Structure prediction by ZEFSAII (Michael W. Deem and Ramdas Pophale) SiO2 
 PCOD9519952
Probable space group: I M M M
;
_chemical_formula_sum "Si O2"
_cell_formula_units_Z 64
_cell_length_a 13.879844
_cell_length_b 27.862857
_cell_length_c 8.211577
_cell_angle_alpha 90.000000
_cell_angle_beta 90.000000
_cell_angle_gamma 90.000000
_cell_volume 3175.680488
_symmetry_space_group_name_H-M "I M M M"
_symmetry_group_IT_number 71
_symmetry_cell_setting 'orthorhombic'
loop_
_space_group_symop_operation_xyz
x,y,z
-x,-y,z
x,-y,-z
-x,y,-z
-x,-y,-z
x,y,-z
-x,y,z
x,-y,z
1/2+x,1/2+y,1/2+z
1/2-x,1/2-y,1/2+z
1/2+x,1/2-y,1/2-z
1/2-x,1/2+y,1/2-z
1/2-x,1/2-y,1/2-z
1/2+x,1/2+y,1/2-z
1/2-x,1/2+y,1/2+z
1/2+x,1/2-y,1/2+z
loop_
_atom_site_type_symbol
_atom_site_label
_atom_site_fract_x
_atom_site_fract_y
_atom_site_fract_z
Si Si1 0.617153 0.198138 0.000000
Si Si2 0.617422 0.745859 0.678207
Si Si3 0.387954 0.644506 0.188022
Si Si4 0.613507 0.914834 0.000000
Si Si5 0.718365 0.446678 0.312644
O O1 0.650731 0.223950 0.834361
O O2 0.500000 0.201977 0.000000
O O3 0.638595 0.141690 0.000000
O O4 0.649446 0.763140 0.500000
O O5 0.500000 0.748205 0.680005
O O6 0.640916 0.689894 0.703678
O O7 0.500000 0.633406 0.222634
O O8 0.326535 0.597068 0.216463
O O9 0.381896 0.660157 0.000000
O O10 0.667985 0.938116 0.845665
O O11 0.500000 0.921343 0.000000
O O12 0.679305 0.444417 0.500000
O O13 0.700227 0.500000 0.247601
#
# Coordination Sequence:
#
# PCOD9519952 Si02
#       5
#     8  16  16   8  16
#     4   9  16  31  54  82 113 148 193 238 288 348
#     4   9  16  28  51  81 115 156 192 225 275 341
#     4  10  19  33  55  82 119 161 192 224 277 348
#     4   9  19  38  62  80 104 145 191 251 311 349
#     4   9  20  36  55  81 109 141 189 246 289 338
#
# _framework density 20.153161000000001
#
# number of rings (size 3 to 8) (size 9 to 14) (size 15 to 20)
#    0.750    2.000    1.250    0.750    0.000    3.500 
#    0.000    5.000    0.000    2.250    0.000    1.750 
#    0.000    0.000    0.000    0.000    0.000    0.000 
#
# Total GULP energy -178475.780821 kJ/mol
# GULP energy per Si atom -5577.368151 kJ/mol
# Density = 2.010729 g / cm^3
# Si number density = 20.153161 Si / 1000 Ang^3
#
#
#
# Elastic Constant Matrix: (Units=GPa)
#
#
# Indices 1 2 3 4 5 6 
#
# 1 75.2770 11.3090 11.5777 -0.0001 -0.0001 0.0000
# 2 11.3090 70.0608 31.7815 0.0005 -0.0002 0.0001
# 3 11.5777 31.7815 86.5138 0.0006 -0.0007 -0.0001
# 4 -0.0001 0.0005 0.0006 22.4739 -0.0003 0.0001
# 5 -0.0001 -0.0002 -0.0007 -0.0003 12.6609 0.0006
# 6 0.0000 0.0001 -0.0001 0.0001 0.0006 24.5409
#
#
#
# Elastic Compliance Matrix: (Units=1/GPa)
#
#
# Indices 1 2 3 4 5 6 
#
# 1 0.013722 -0.001658 -0.001227 0.000000 0.000000 0.000000
# 2 -0.001658 0.017328 -0.006144 0.000000 0.000000 0.000000
# 3 -0.001227 -0.006144 0.013980 0.000000 0.000001 0.000000
# 4 0.000000 0.000000 0.000000 0.044496 0.000001 0.000000
# 5 0.000000 0.000000 0.000001 0.000001 0.078983 -0.000002
# 6 0.000000 0.000000 0.000000 0.000000 -0.000002 0.040748
#
#
# Mechanical properties :
#
#
# Convention : Reuss Voigt Hill
#
# Bulk Modulus (GPa) = 37.07572 37.90979 37.49276
# Shear Modulus (GPa) = 21.15896 23.74737 22.45316
#
# Velocity S-wave (km/s) = 3.24374 3.43643 3.34147
# Velocity P-wave (km/s) = 5.69790 5.88193 5.79064
#
# Compressibility (1/GPa) = 0.02697183
#
# Stress axis : x y z
#
# Youngs Moduli (GPa) = 72.87490 57.71035 71.53090
#
# Poissons Ratio (x) = 0.09570 0.08778
# Poissons Ratio (y) = 0.12085 0.43946
# Poissons Ratio (z) = 0.08943 0.35455
#
# Static dielectric constant tensor:
#      x y z
#    x 1.744260 0.000000 0.000000 
#    y 0.000000 1.678030 0.000000 
#    z 0.000000 0.000000 1.723430 
# 
# From -- ./inp_files/5578.got.cif
#   From: 2010.05.17/outbox.cif.g08.bks.cpg/sg71_3_cif.got.tgz:5578.got - 2010.06.03 16:22:01.
