data_PCOD9519140
_publ_section_title
;
Structure prediction by ZEFSAII (Michael W. Deem and Ramdas Pophale) SiO2 
 PCOD9519140
Probable space group: I M M M
;
_chemical_formula_sum "Si O2"
_cell_formula_units_Z 72
_cell_length_a 31.805254
_cell_length_b 13.187567
_cell_length_c 8.863040
_cell_angle_alpha 90.000000
_cell_angle_beta 90.000000
_cell_angle_gamma 90.000000
_cell_volume 3717.459593
_symmetry_space_group_name_H-M "I M M M"
_symmetry_group_IT_number 71
_symmetry_cell_setting 'orthorhombic'
loop_
_space_group_symop_operation_xyz
x,y,z
-x,-y,z
x,-y,-z
-x,y,-z
-x,-y,-z
x,y,-z
-x,y,z
x,-y,z
1/2+x,1/2+y,1/2+z
1/2-x,1/2-y,1/2+z
1/2+x,1/2-y,1/2-z
1/2-x,1/2+y,1/2-z
1/2-x,1/2-y,1/2-z
1/2+x,1/2+y,1/2-z
1/2-x,1/2+y,1/2+z
1/2+x,1/2-y,1/2+z
loop_
_atom_site_type_symbol
_atom_site_label
_atom_site_fract_x
_atom_site_fract_y
_atom_site_fract_z
Si Si1 0.451323 0.000000 0.680185
Si Si2 0.185692 0.378514 0.830818
Si Si3 0.770989 0.876752 0.173624
Si Si4 0.638771 0.617261 0.818303
Si Si5 0.398431 0.180525 0.177099
O O1 0.428225 0.101257 0.738899
O O2 0.500000 0.000000 0.727316
O O3 0.448865 0.000000 0.500000
O O4 0.187100 0.500000 0.838850
O O5 0.231519 0.344552 0.775779
O O6 0.149190 0.353047 0.713851
O O7 0.175321 0.341732 0.000000
O O8 0.817139 0.853846 0.239190
O O9 0.769496 0.000000 0.173966
O O10 0.765844 0.844980 0.000000
O O11 0.628918 0.500000 0.780392
O O12 0.603330 0.700384 0.778346
O O13 0.644911 0.622718 0.000000
O O14 0.407163 0.173097 0.000000
#
# Coordination Sequence:
#
# PCOD9519140 Si02
#       5
#     8  16  16  16  16
#     4  11  25  45  67  91 119 147 177 223 289 359
#     4  10  19  31  49  74 110 153 194 239 291 342
#     4   9  17  29  47  73 107 150 200 248 285 324
#     4   9  19  36  55  79 114 154 195 235 280 332
#     4  11  22  36  60  88 113 145 186 235 285 339
#
# _framework density 19.368065999999999
#
# number of rings (size 3 to 8) (size 9 to 14) (size 15 to 20)
#    0.000    2.111    1.111    2.333    0.000    7.111 
#    0.000    0.000    0.000    0.667    0.000    4.667 
#    0.000    0.000    0.000    0.000    0.000    0.000 
#
# Total GULP energy -201021.607593 kJ/mol
# GULP energy per Si atom -5583.933544 kJ/mol
# Density = 1.932398 g / cm^3
# Si number density = 19.368066 Si / 1000 Ang^3
#
#
#
# Elastic Constant Matrix: (Units=GPa)
#
#
# Indices 1 2 3 4 5 6 
#
# 1 84.1912 55.7145 20.3121 0.0000 0.0000 0.0000
# 2 55.7145 113.1764 23.9028 0.0000 0.0000 0.0000
# 3 20.3121 23.9028 42.9520 0.0000 0.0000 0.0000
# 4 0.0000 0.0000 0.0000 19.9619 0.0000 0.0000
# 5 0.0000 0.0000 0.0000 0.0000 20.2070 0.0000
# 6 0.0000 0.0000 0.0000 0.0000 0.0000 18.3437
#
#
#
# Elastic Compliance Matrix: (Units=1/GPa)
#
#
# Indices 1 2 3 4 5 6 
#
# 1 0.018236 -0.008109 -0.004111 0.000000 0.000000 0.000000
# 2 -0.008109 0.013618 -0.003744 0.000000 0.000000 0.000000
# 3 -0.004111 -0.003744 0.027309 0.000000 0.000000 0.000000
# 4 0.000000 0.000000 0.000000 0.050095 0.000000 0.000000
# 5 0.000000 0.000000 0.000000 0.000000 0.049488 0.000000
# 6 0.000000 0.000000 0.000000 0.000000 0.000000 0.054515
#
#
# Mechanical properties :
#
#
# Convention : Reuss Voigt Hill
#
# Bulk Modulus (GPa) = 36.71649 48.90873 42.81261
# Shear Modulus (GPa) = 19.66434 21.06188 20.36311
#
# Velocity S-wave (km/s) = 3.18983 3.30123 3.24601
# Velocity P-wave (km/s) = 5.70658 6.31173 6.01677
#
# Compressibility (1/GPa) = 0.02723572
#
# Stress axis : x y z
#
# Youngs Moduli (GPa) = 54.83756 73.43070 36.61733
#
# Poissons Ratio (x) = 0.59543 0.15054
# Poissons Ratio (y) = 0.44467 0.13709
# Poissons Ratio (z) = 0.22545 0.27492
#
# Static dielectric constant tensor:
#      x y z
#    x 1.612500 0.000000 0.000000 
#    y 0.000000 1.798300 0.000000 
#    z 0.000000 0.000000 1.657360 
# 
# From -- ./inp_files/14320.got.cif
#   From: 2010.05.17/outbox.cif.g08.bks.cpg/sg71_8_cif.got.tgz:14320.got - 2010.06.03 16:22:01.
