data_PCOD9519798
_publ_section_title
;
Structure prediction by ZEFSAII (Michael W. Deem and Ramdas Pophale) SiO2 
 PCOD9519798
Probable space group: I M M M
;
_chemical_formula_sum "Si O2"
_cell_formula_units_Z 112
_cell_length_a 15.154836
_cell_length_b 27.552260
_cell_length_c 14.030580
_cell_angle_alpha 90.000000
_cell_angle_beta 90.000000
_cell_angle_gamma 90.000000
_cell_volume 5858.468423
_symmetry_space_group_name_H-M "I M M M"
_symmetry_group_IT_number 71
_symmetry_cell_setting 'orthorhombic'
loop_
_space_group_symop_operation_xyz
x,y,z
-x,-y,z
x,-y,-z
-x,y,-z
-x,-y,-z
x,y,-z
-x,y,z
x,-y,z
1/2+x,1/2+y,1/2+z
1/2-x,1/2-y,1/2+z
1/2+x,1/2-y,1/2-z
1/2-x,1/2+y,1/2-z
1/2-x,1/2-y,1/2-z
1/2+x,1/2+y,1/2-z
1/2-x,1/2+y,1/2+z
1/2+x,1/2-y,1/2+z
loop_
_atom_site_type_symbol
_atom_site_label
_atom_site_fract_x
_atom_site_fract_y
_atom_site_fract_z
Si Si1 0.602405 0.865523 0.107346
Si Si2 0.593464 0.811506 0.384361
Si Si3 0.645332 0.759205 0.888826
Si Si4 0.348341 0.708319 0.389845
Si Si5 0.734909 0.889758 0.614019
Si Si6 0.396404 0.656125 0.209455
Si Si7 0.894377 0.444207 0.239309
O O1 0.500000 0.877487 0.096846
O O2 0.606263 0.810458 0.146249
O O3 0.635994 0.906308 0.178972
O O4 0.642802 0.865385 0.000000
O O5 0.594772 0.812299 0.500000
O O6 0.500000 0.833329 0.352843
O O7 0.596739 0.755401 0.358125
O O8 0.678548 0.841777 0.356396
O O9 0.749218 0.770859 0.883658
O O10 0.620377 0.709154 0.838976
O O11 0.619911 0.754172 0.000000
O O12 0.367023 0.696773 0.500000
O O13 0.367415 0.664836 0.318715
O O14 0.742986 0.891135 0.500000
O O15 0.830606 0.882244 0.660469
O O16 0.670888 0.932177 0.651778
O O17 0.500000 0.644613 0.201950
O O18 0.884090 0.500000 0.269346
O O19 0.000000 0.437729 0.218745
#
# Coordination Sequence:
#
# PCOD9519798 Si02
#       7
#    16  16  16  16  16  16  16
#     4   9  18  32  52  81 117 155 190 225 274 339
#     4   9  17  30  48  71 101 139 181 223 270 324
#     4  10  19  33  52  77 113 155 196 235 273 321
#     4  10  20  34  50  73 108 148 192 238 280 325
#     4  11  23  39  56  78 110 147 189 237 288 341
#     4  12  24  35  54  82 115 158 199 235 275 329
#     4  10  22  39  61  89 115 142 185 242 301 356
#
# _framework density 19.117623999999999
#
# number of rings (size 3 to 8) (size 9 to 14) (size 15 to 20)
#    0.000    1.857    1.429    3.000    2.000    4.000 
#    0.000    2.143    0.000    0.429    0.000    1.000 
#    0.000    0.000    0.000    8.000    0.000    0.143 
#
# Total GULP energy -312478.031595 kJ/mol
# GULP energy per Si atom -5579.964850 kJ/mol
# Density = 1.907411 g / cm^3
# Si number density = 19.117624 Si / 1000 Ang^3
#
#
#
# Elastic Constant Matrix: (Units=GPa)
#
#
# Indices 1 2 3 4 5 6 
#
# 1 81.3690 9.4015 14.5440 0.0000 0.0000 0.0000
# 2 9.4015 55.9506 26.9964 0.0000 0.0000 0.0000
# 3 14.5440 26.9964 79.1971 0.0000 0.0000 0.0000
# 4 0.0000 0.0000 0.0000 17.8623 0.0000 0.0000
# 5 0.0000 0.0000 0.0000 0.0000 15.3649 0.0000
# 6 0.0000 0.0000 0.0000 0.0000 0.0000 20.9665
#
#
#
# Elastic Compliance Matrix: (Units=1/GPa)
#
#
# Indices 1 2 3 4 5 6 
#
# 1 0.012775 -0.001214 -0.001932 0.000000 0.000000 0.000000
# 2 -0.001214 0.021507 -0.007108 0.000000 0.000000 0.000000
# 3 -0.001932 -0.007108 0.015405 0.000000 0.000000 0.000000
# 4 0.000000 0.000000 0.000000 0.055984 0.000000 0.000000
# 5 0.000000 0.000000 0.000000 0.000000 0.065083 0.000000
# 6 0.000000 0.000000 0.000000 0.000000 0.000000 0.047695
#
#
# Mechanical properties :
#
#
# Convention : Reuss Voigt Hill
#
# Bulk Modulus (GPa) = 34.27325 35.37784 34.82554
# Shear Modulus (GPa) = 20.10585 21.87707 20.99146
#
# Velocity S-wave (km/s) = 3.24650 3.38648 3.31723
# Velocity P-wave (km/s) = 5.65858 5.81692 5.73829
#
# Compressibility (1/GPa) = 0.02917727
#
# Stress axis : x y z
#
# Youngs Moduli (GPa) = 78.27572 46.49722 64.91598
#
# Poissons Ratio (x) = 0.05647 0.12543
# Poissons Ratio (y) = 0.09506 0.46143
# Poissons Ratio (z) = 0.15124 0.33051
#
# Static dielectric constant tensor:
#      x y z
#    x 1.726460 0.000000 0.000000 
#    y 0.000000 1.649430 0.000000 
#    z 0.000000 0.000000 1.746520 
# 
# From -- ./inp_files/35083.got.cif
#   From: 2010.05.17/outbox.cif.g08.bks.cpg/sg71_18_cif.got.tgz:35083.got - 2010.06.03 16:22:01.
