data_PCOD9519515
_publ_section_title
;
Structure prediction by ZEFSAII (Michael W. Deem and Ramdas Pophale) SiO2 
 PCOD9519515
Probable space group: I M M M
;
_chemical_formula_sum "Si O2"
_cell_formula_units_Z 104
_cell_length_a 28.329050
_cell_length_b 23.298094
_cell_length_c 7.594657
_cell_angle_alpha 90.000000
_cell_angle_beta 90.000000
_cell_angle_gamma 90.000000
_cell_volume 5012.571362
_symmetry_space_group_name_H-M "I M M M"
_symmetry_group_IT_number 71
_symmetry_cell_setting 'orthorhombic'
loop_
_space_group_symop_operation_xyz
x,y,z
-x,-y,z
x,-y,-z
-x,y,-z
-x,-y,-z
x,y,-z
-x,y,z
x,-y,z
1/2+x,1/2+y,1/2+z
1/2-x,1/2-y,1/2+z
1/2+x,1/2-y,1/2-z
1/2-x,1/2+y,1/2-z
1/2-x,1/2-y,1/2-z
1/2+x,1/2+y,1/2-z
1/2-x,1/2+y,1/2+z
1/2+x,1/2-y,1/2+z
loop_
_atom_site_type_symbol
_atom_site_label
_atom_site_fract_x
_atom_site_fract_y
_atom_site_fract_z
Si Si1 0.500000 0.435627 0.289466
Si Si2 0.691077 0.400847 0.802327
Si Si3 0.866063 0.334478 0.785822
Si Si4 0.053577 0.256575 0.789970
Si Si5 0.698745 0.727457 0.708410
Si Si6 0.094300 0.132148 0.706526
Si Si7 0.204717 0.434353 0.214892
O O1 0.500000 0.500000 0.219272
O O2 0.500000 0.437236 0.500000
O O3 0.453523 0.402128 0.234301
O O4 0.693986 0.331951 0.807309
O O5 0.638909 0.403982 0.716506
O O6 0.741404 0.420677 0.723665
O O7 0.689545 0.426155 0.000000
O O8 0.917840 0.313001 0.725288
O O9 0.835188 0.278889 0.739893
O O10 0.835811 0.389671 0.724862
O O11 0.867928 0.339164 0.000000
O O12 0.083312 0.197463 0.765900
O O13 0.000000 0.250424 0.719773
O O14 0.049920 0.262983 0.000000
O O15 0.692521 0.716543 0.500000
O O16 0.750000 0.750000 0.750000
O O17 0.103892 0.135989 0.500000
O O18 0.193330 0.500000 0.259666
O O19 0.206362 0.429339 0.000000
#
# Coordination Sequence:
#
# PCOD9519515 Si02
#       7
#     8  16  16  16  16  16  16
#     4  11  25  43  59  73  99 147 196 223 254 315
#     4  10  20  33  50  79 109 135 172 215 265 321
#     4   9  17  29  48  75 102 134 176 216 261 321
#     4  10  19  32  52  77 107 139 172 216 273 333
#     4  11  19  29  48  74 105 136 170 213 261 315
#     4  11  22  34  54  82 110 134 171 230 277 313
#     4   9  17  31  51  73 102 141 181 217 257 315
#
# _framework density 20.747834999999998
#
# number of rings (size 3 to 8) (size 9 to 14) (size 15 to 20)
#    0.000    1.923    3.846    1.154    0.000    1.846 
#    0.000    1.538    0.000    0.923    0.000    3.231 
#    0.000    0.000    0.000    1.385    0.000    1.538 
#
# Total GULP energy -289810.746337 kJ/mol
# GULP energy per Si atom -5573.283583 kJ/mol
# Density = 2.070061 g / cm^3
# Si number density = 20.747835 Si / 1000 Ang^3
#
#
#
# Elastic Constant Matrix: (Units=GPa)
#
#
# Indices 1 2 3 4 5 6 
#
# 1 128.7848 61.4544 5.4173 0.0000 0.0000 0.0000
# 2 61.4544 127.6577 5.8183 0.0000 0.0000 0.0000
# 3 5.4173 5.8183 47.7205 0.0000 0.0000 0.0000
# 4 0.0000 0.0000 0.0000 3.4893 0.0000 0.0000
# 5 0.0000 0.0000 0.0000 0.0000 3.3608 0.0000
# 6 0.0000 0.0000 0.0000 0.0000 0.0000 16.7267
#
#
#
# Elastic Compliance Matrix: (Units=1/GPa)
#
#
# Indices 1 2 3 4 5 6 
#
# 1 0.010095 -0.004834 -0.000557 0.000000 0.000000 0.000000
# 2 -0.004834 0.010192 -0.000694 0.000000 0.000000 0.000000
# 3 -0.000557 -0.000694 0.021103 0.000000 0.000000 0.000000
# 4 0.000000 0.000000 0.000000 0.286594 0.000000 0.000000
# 5 0.000000 0.000000 0.000000 0.000000 0.297550 0.000000
# 6 0.000000 0.000000 0.000000 0.000000 0.000000 0.059785
#
#
# Mechanical properties :
#
#
# Convention : Reuss Voigt Hill
#
# Bulk Modulus (GPa) = 34.22211 49.94924 42.08567
# Shear Modulus (GPa) = 7.06984 20.14688 13.60836
#
# Velocity S-wave (km/s) = 1.84795 3.11952 2.56382
# Velocity P-wave (km/s) = 4.59166 6.09114 5.39376
#
# Compressibility (1/GPa) = 0.02922087
#
# Stress axis : x y z
#
# Youngs Moduli (GPa) = 99.05643 98.11235 47.38631
#
# Poissons Ratio (x) = 0.47432 0.02637
# Poissons Ratio (y) = 0.47889 0.03288
# Poissons Ratio (z) = 0.05513 0.06808
#
# Static dielectric constant tensor:
#      x y z
#    x 1.797070 0.000000 0.000000 
#    y 0.000000 1.742380 0.000000 
#    z 0.000000 0.000000 1.810450 
# 
# From -- ./inp_files/17027.got.cif
#   From: 2010.05.17/outbox.cif.g08.bks.cpg/sg71_9_cif.got.tgz:17027.got - 2010.06.03 16:22:01.
