data_PCOD9519017
_publ_section_title
;
Structure prediction by ZEFSAII (Michael W. Deem and Ramdas Pophale) SiO2 
 PCOD9519017
Probable space group: I M M M
;
_chemical_formula_sum "Si O2"
_cell_formula_units_Z 104
_cell_length_a 19.977292
_cell_length_b 29.797154
_cell_length_c 10.315469
_cell_angle_alpha 90.000000
_cell_angle_beta 90.000000
_cell_angle_gamma 90.000000
_cell_volume 6140.452573
_symmetry_space_group_name_H-M "I M M M"
_symmetry_group_IT_number 71
_symmetry_cell_setting 'orthorhombic'
loop_
_space_group_symop_operation_xyz
x,y,z
-x,-y,z
x,-y,-z
-x,y,-z
-x,-y,-z
x,y,-z
-x,y,z
x,-y,z
1/2+x,1/2+y,1/2+z
1/2-x,1/2-y,1/2+z
1/2+x,1/2-y,1/2-z
1/2-x,1/2+y,1/2-z
1/2-x,1/2-y,1/2-z
1/2+x,1/2+y,1/2-z
1/2-x,1/2+y,1/2+z
1/2+x,1/2-y,1/2+z
loop_
_atom_site_type_symbol
_atom_site_label
_atom_site_fract_x
_atom_site_fract_y
_atom_site_fract_z
Si Si1 0.885219 0.053592 0.851490
Si Si2 0.000000 0.735299 0.147572
Si Si3 0.734677 0.379161 0.647957
Si Si4 0.733018 0.695324 0.139305
Si Si5 0.886830 0.372843 0.353789
Si Si6 0.361602 0.227953 0.771975
Si Si7 0.500000 0.445418 0.849548
Si Si8 0.500000 0.126127 0.649939
O O1 0.816128 0.080061 0.835753
O O2 0.936288 0.067751 0.738419
O O3 0.876041 0.000000 0.842059
O O4 0.909870 0.062436 0.000000
O O5 0.931072 0.747581 0.218892
O O6 0.000000 0.680660 0.144364
O O7 0.000000 0.751667 0.000000
O O8 0.728689 0.362451 0.500000
O O9 0.719060 0.339253 0.746177
O O10 0.812364 0.391990 0.665894
O O11 0.680995 0.736170 0.148139
O O12 0.808484 0.713715 0.160504
O O13 0.728380 0.672899 0.000000
O O14 0.910290 0.383734 0.500000
O O15 0.878284 0.318559 0.344671
O O16 0.936053 0.386475 0.237871
O O17 0.500000 0.500000 0.853366
O O18 0.500000 0.430034 0.000000
O O19 0.500000 0.110537 0.500000
#
# Coordination Sequence:
#
# PCOD9519017 Si02
#       8
#    16   8  16  16  16  16   8   8
#     4   9  17  32  53  73  94 122 153 185 227 279
#     4   9  16  27  42  62  85 110 146 191 231 260
#     4   9  19  32  47  70  95 118 149 189 228 272
#     4  10  19  31  47  66  90 122 155 186 226 274
#     4   9  16  28  45  65  91 119 148 185 228 266
#     4   9  18  29  45  65  87 116 154 191 224 265
#     4   9  17  29  48  75 100 119 146 187 230 273
#     4   9  17  27  41  64  91 118 151 188 223 262
#
# _framework density 16.936862000000001
#
# number of rings (size 3 to 8) (size 9 to 14) (size 15 to 20)
#    0.000    2.846    0.000    1.385    0.000    9.538 
#    0.000    1.923    0.000    0.000    0.000    0.538 
#    0.000    4.308    0.000    0.000    0.000    0.000 
#
# Total GULP energy -289504.796828 kJ/mol
# GULP energy per Si atom -5567.399939 kJ/mol
# Density = 1.689831 g / cm^3
# Si number density = 16.936862 Si / 1000 Ang^3
#
#
#
# Elastic Constant Matrix: (Units=GPa)
#
#
# Indices 1 2 3 4 5 6 
#
# 1 117.3655 25.6165 76.3035 0.0000 0.0000 0.0000
# 2 25.6165 17.1962 28.2482 0.0000 0.0000 0.0000
# 3 76.3035 28.2482 149.3878 0.0000 0.0000 0.0000
# 4 0.0000 0.0000 0.0000 19.2555 0.0000 0.0000
# 5 0.0000 0.0000 0.0000 0.0000 6.7703 0.0000
# 6 0.0000 0.0000 0.0000 0.0000 0.0000 18.9028
#
#
#
# Elastic Compliance Matrix: (Units=1/GPa)
#
#
# Indices 1 2 3 4 5 6 
#
# 1 0.014742 -0.013913 -0.004899 0.000000 0.000000 0.000000
# 2 -0.013913 0.097486 -0.011327 0.000000 0.000000 0.000000
# 3 -0.004899 -0.011327 0.011338 0.000000 0.000000 0.000000
# 4 0.000000 0.000000 0.000000 0.051933 0.000000 0.000000
# 5 0.000000 0.000000 0.000000 0.000000 0.147704 0.000000
# 6 0.000000 0.000000 0.000000 0.000000 0.000000 0.052902
#
#
# Mechanical properties :
#
#
# Convention : Reuss Voigt Hill
#
# Bulk Modulus (GPa) = 15.80105 60.47621 38.13863
# Shear Modulus (GPa) = 10.92944 19.23782 15.08363
#
# Velocity S-wave (km/s) = 2.54304 3.37390 2.98750
# Velocity P-wave (km/s) = 4.23938 7.13877 5.87088
#
# Compressibility (1/GPa) = 0.06328693
#
# Stress axis : x y z
#
# Youngs Moduli (GPa) = 67.83277 10.25792 88.19731
#
# Poissons Ratio (x) = 0.14272 0.43208
# Poissons Ratio (y) = 0.94377 0.99905
# Poissons Ratio (z) = 0.33231 0.11620
#
# Static dielectric constant tensor:
#      x y z
#    x 1.588430 0.000000 0.000000 
#    y 0.000000 1.538350 0.000000 
#    z 0.000000 0.000000 1.596500 
# 
# From -- ./inp_files/11566.got.cif
#   From: 2010.05.17/outbox.cif.g08.bks.cpg/sg71_6_cif.got.tgz:11566.got - 2010.06.03 16:22:01.
