data_PCOD9519826
_publ_section_title
;
Structure prediction by ZEFSAII (Michael W. Deem and Ramdas Pophale) SiO2 
 PCOD9519826
Probable space group: I M M M
;
_chemical_formula_sum "Si O2"
_cell_formula_units_Z 88
_cell_length_a 19.574605
_cell_length_b 8.854885
_cell_length_c 28.385683
_cell_angle_alpha 90.000000
_cell_angle_beta 90.000000
_cell_angle_gamma 90.000000
_cell_volume 4920.115306
_symmetry_space_group_name_H-M "I M M M"
_symmetry_group_IT_number 71
_symmetry_cell_setting 'orthorhombic'
loop_
_space_group_symop_operation_xyz
x,y,z
-x,-y,z
x,-y,-z
-x,y,-z
-x,-y,-z
x,y,-z
-x,y,z
x,-y,z
1/2+x,1/2+y,1/2+z
1/2-x,1/2-y,1/2+z
1/2+x,1/2-y,1/2-z
1/2-x,1/2+y,1/2-z
1/2-x,1/2-y,1/2-z
1/2+x,1/2+y,1/2-z
1/2-x,1/2+y,1/2+z
1/2+x,1/2-y,1/2+z
loop_
_atom_site_type_symbol
_atom_site_label
_atom_site_fract_x
_atom_site_fract_y
_atom_site_fract_z
Si Si1 0.421957 0.183637 0.500000
Si Si2 0.164541 0.316959 0.908230
Si Si3 0.802140 0.680835 0.445139
Si Si4 0.582975 0.326166 0.219795
Si Si5 0.079784 0.182857 0.615151
Si Si6 0.920986 0.318454 0.817442
O O1 0.500000 0.237000 0.500000
O O2 0.381747 0.228757 0.453034
O O3 0.423708 0.000000 0.500000
O O4 0.169334 0.500000 0.908111
O O5 0.238865 0.248464 0.916160
O O6 0.126999 0.268709 0.860272
O O7 0.794754 0.725473 0.500000
O O8 0.801579 0.500000 0.442495
O O9 0.871754 0.744974 0.423457
O O10 0.500000 0.325134 0.218752
O O11 0.604935 0.500000 0.224479
O O12 0.603147 0.269413 0.167949
O O13 0.603390 0.236376 0.266269
O O14 0.000000 0.223049 0.608931
O O15 0.084029 0.000000 0.613754
O O16 0.922024 0.500000 0.817783
O O17 0.000000 0.267462 0.824436
#
# Coordination Sequence:
#
# PCOD9519826 Si02
#       6
#     8  16  16  16  16  16
#     4   9  16  28  51  79 102 131 178 229 265 296
#     4  10  19  33  53  76 104 142 183 219 259 309
#     4  11  24  39  54  75 107 142 174 215 268 321
#     4   8  15  30  52  78 107 137 168 207 259 314
#     4   9  19  37  61  85 105 130 172 219 259 313
#     4   9  17  29  49  80 112 139 174 220 263 306
#
# _framework density 17.885760000000001
#
# number of rings (size 3 to 8) (size 9 to 14) (size 15 to 20)
#    0.000    2.636    0.909    2.182    0.000    5.455 
#    0.000    4.545    0.000    2.182    0.000    0.000 
#    0.000    0.000    0.000    0.000    0.000    0.000 
#
# Total GULP energy -245312.641432 kJ/mol
# GULP energy per Si atom -5575.287305 kJ/mol
# Density = 1.784505 g / cm^3
# Si number density = 17.885760 Si / 1000 Ang^3
#
#
#
# Elastic Constant Matrix: (Units=GPa)
#
#
# Indices 1 2 3 4 5 6 
#
# 1 85.0506 22.0252 40.7408 0.0000 0.0000 0.0000
# 2 22.0252 13.4223 23.9135 0.0000 0.0000 0.0000
# 3 40.7408 23.9135 84.1768 0.0000 0.0000 0.0000
# 4 0.0000 0.0000 0.0000 28.8663 0.0000 0.0000
# 5 0.0000 0.0000 0.0000 0.0000 -7.8459 0.0000
# 6 0.0000 0.0000 0.0000 0.0000 0.0000 14.2011
#
#
#
# Elastic Compliance Matrix: (Units=1/GPa)
#
#
# Indices 1 2 3 4 5 6 
#
# 1 0.020469 -0.032272 -0.000739 0.000000 0.000000 0.000000
# 2 -0.032272 0.201738 -0.041692 0.000000 0.000000 0.000000
# 3 -0.000739 -0.041692 0.024081 0.000000 0.000000 0.000000
# 4 0.000000 0.000000 0.000000 0.034643 0.000000 0.000000
# 5 0.000000 0.000000 0.000000 0.000000 -0.127456 0.000000
# 6 0.000000 0.000000 0.000000 0.000000 0.000000 0.070417
#
#
# Mechanical properties :
#
#
# Convention : Reuss Voigt Hill
#
# Bulk Modulus (GPa) = 10.32171 39.55654 24.93912
# Shear Modulus (GPa) = 12.32769 13.44232 12.88501
#
# Velocity S-wave (km/s) = 2.62820 2.74444 2.68695
# Velocity P-wave (km/s) = 3.87212 5.67511 4.85799
#
# Compressibility (1/GPa) = 0.09688318
#
# Stress axis : x y z
#
# Youngs Moduli (GPa) = 48.85468 4.95693 41.52589
#
# Poissons Ratio (x) = 0.15997 0.03068
# Poissons Ratio (y) = 1.57664 1.73129
# Poissons Ratio (z) = 0.03609 0.20666
#
# Static dielectric constant tensor:
#      x y z
#    x 1.596880 0.000000 0.000000 
#    y 0.000000 1.604490 0.000000 
#    z 0.000000 0.000000 1.613890 
# 
# From -- ./inp_files/10381.got.cif
#   From: 2010.05.17/outbox.cif.g08.bks.cpg/sg71_6_cif.got.tgz:10381.got - 2010.06.03 16:22:01.
