data_PCOD9519846
_publ_section_title
;
Structure prediction by ZEFSAII (Michael W. Deem and Ramdas Pophale) SiO2 
 PCOD9519846
Probable space group: I M M M
;
_chemical_formula_sum "Si O2"
_cell_formula_units_Z 104
_cell_length_a 22.340836
_cell_length_b 26.084502
_cell_length_c 8.444154
_cell_angle_alpha 90.000000
_cell_angle_beta 90.000000
_cell_angle_gamma 90.000000
_cell_volume 4920.827208
_symmetry_space_group_name_H-M "I M M M"
_symmetry_group_IT_number 71
_symmetry_cell_setting 'orthorhombic'
loop_
_space_group_symop_operation_xyz
x,y,z
-x,-y,z
x,-y,-z
-x,y,-z
-x,-y,-z
x,y,-z
-x,y,z
x,-y,z
1/2+x,1/2+y,1/2+z
1/2-x,1/2-y,1/2+z
1/2+x,1/2-y,1/2-z
1/2-x,1/2+y,1/2-z
1/2-x,1/2-y,1/2-z
1/2+x,1/2+y,1/2-z
1/2-x,1/2+y,1/2+z
1/2+x,1/2-y,1/2+z
loop_
_atom_site_type_symbol
_atom_site_label
_atom_site_fract_x
_atom_site_fract_y
_atom_site_fract_z
Si Si1 0.875096 0.778599 0.317837
Si Si2 0.000000 0.734359 0.676292
Si Si3 0.000000 0.624693 0.187608
Si Si4 0.000000 0.939883 0.189959
Si Si5 0.290380 0.204078 0.313398
Si Si6 0.758714 0.590411 0.193595
Si Si7 0.889381 0.442881 0.807620
Si Si8 0.372413 0.605163 0.807605
O O1 0.853403 0.776450 0.500000
O O2 0.853858 0.726865 0.232978
O O3 0.861478 0.835436 0.256399
O O4 0.945067 0.772274 0.312020
O O5 0.000000 0.685419 0.787734
O O6 0.000000 0.710965 0.500000
O O7 0.061508 0.598325 0.249741
O O8 0.000000 0.614249 0.000000
O O9 0.063282 0.915378 0.248684
O O10 0.000000 0.000000 0.237208
O O11 0.000000 0.936488 0.000000
O O12 0.286005 0.200836 0.500000
O O13 0.250000 0.250000 0.250000
O O14 0.272119 0.148814 0.252626
O O15 0.819903 0.562452 0.245222
O O16 0.690111 0.576678 0.240106
O O17 0.757896 0.588324 0.000000
O O18 0.910992 0.500000 0.769748
O O19 0.886610 0.438111 0.000000
O O20 0.375261 0.605257 0.000000
#
# Coordination Sequence:
#
# PCOD9519846 Si02
#       8
#    16   8   8   8  16  16  16  16
#     4  10  20  36  55  81 114 148 187 231 276 328
#     4  10  21  34  52  76 110 149 180 222 278 332
#     4  10  19  33  53  78 112 149 188 232 273 325
#     4  11  26  45  61  82 112 141 178 236 299 357
#     4  11  20  33  53  80 115 152 186 222 269 329
#     4   9  18  32  52  82 116 145 183 236 280 322
#     4   9  17  30  51  80 110 141 181 233 287 326
#     4  10  20  38  62  84 109 144 187 232 280 342
#
# _framework density 21.134657000000001
#
# number of rings (size 3 to 8) (size 9 to 14) (size 15 to 20)
#    0.000    2.077    1.538    2.308    0.000    5.846 
#    0.000    2.308    0.000    1.846    0.000    0.000 
#    0.000    0.000    0.000    0.000    0.000    0.000 
#
# Total GULP energy -289553.390722 kJ/mol
# GULP energy per Si atom -5568.334437 kJ/mol
# Density = 2.108655 g / cm^3
# Si number density = 21.134657 Si / 1000 Ang^3
#
#
#
# Elastic Constant Matrix: (Units=GPa)
#
#
# Indices 1 2 3 4 5 6 
#
# 1 136.0184 16.5023 12.4700 0.0000 0.0000 0.0000
# 2 16.5023 64.4889 2.8971 0.0000 0.0000 0.0000
# 3 12.4700 2.8971 4.9298 0.0000 0.0000 0.0000
# 4 0.0000 0.0000 0.0000 15.1531 0.0000 0.0000
# 5 0.0000 0.0000 0.0000 0.0000 17.5957 0.0000
# 6 0.0000 0.0000 0.0000 0.0000 0.0000 27.2976
#
#
#
# Elastic Compliance Matrix: (Units=1/GPa)
#
#
# Indices 1 2 3 4 5 6 
#
# 1 0.009696 -0.001417 -0.023694 0.000000 0.000000 0.000000
# 2 -0.001417 0.016134 -0.005898 0.000000 0.000000 0.000000
# 3 -0.023694 -0.005898 0.266250 0.000000 0.000000 0.000000
# 4 0.000000 0.000000 0.000000 0.065993 0.000000 0.000000
# 5 0.000000 0.000000 0.000000 0.000000 0.056832 0.000000
# 6 0.000000 0.000000 0.000000 0.000000 0.000000 0.036633
#
#
# Mechanical properties :
#
#
# Convention : Reuss Voigt Hill
#
# Bulk Modulus (GPa) = 4.34665 29.90843 17.12754
# Shear Modulus (GPa) = 8.47109 23.58046 16.02578
#
# Velocity S-wave (km/s) = 2.00421 3.34387 2.75666
# Velocity P-wave (km/s) = 2.72340 5.39358 4.27245
#
# Compressibility (1/GPa) = 0.23006249
#
# Stress axis : x y z
#
# Youngs Moduli (GPa) = 103.13456 61.98074 3.75587
#
# Poissons Ratio (x) = 0.08781 0.08899
# Poissons Ratio (y) = 0.14611 0.02215
# Poissons Ratio (z) = 2.44367 0.36556
#
# Static dielectric constant tensor:
#      x y z
#    x 2.979790 0.000000 0.000000 
#    y 0.000000 1.715450 0.000000 
#    z 0.000000 0.000000 1.791150 
# 
# From -- ./inp_files/11227.got.cif
#   From: 2010.05.17/outbox.cif.g08.bks.cpg/sg71_6_cif.got.tgz:11227.got - 2010.06.03 16:22:01.
