data_PCOD9519469
_publ_section_title
;
Structure prediction by ZEFSAII (Michael W. Deem and Ramdas Pophale) SiO2 
 PCOD9519469
Probable space group: I M M M
;
_chemical_formula_sum "Si O2"
_cell_formula_units_Z 56
_cell_length_a 13.641914
_cell_length_b 8.068027
_cell_length_c 28.468858
_cell_angle_alpha 90.000000
_cell_angle_beta 90.000000
_cell_angle_gamma 90.000000
_cell_volume 3133.377327
_symmetry_space_group_name_H-M "I M M M"
_symmetry_group_IT_number 71
_symmetry_cell_setting 'orthorhombic'
loop_
_space_group_symop_operation_xyz
x,y,z
-x,-y,z
x,-y,-z
-x,y,-z
-x,-y,-z
x,y,-z
-x,y,z
x,-y,z
1/2+x,1/2+y,1/2+z
1/2-x,1/2-y,1/2+z
1/2+x,1/2-y,1/2-z
1/2-x,1/2+y,1/2-z
1/2-x,1/2-y,1/2-z
1/2+x,1/2+y,1/2-z
1/2-x,1/2+y,1/2+z
1/2+x,1/2-y,1/2+z
loop_
_atom_site_type_symbol
_atom_site_label
_atom_site_fract_x
_atom_site_fract_y
_atom_site_fract_z
Si Si1 0.500000 0.188727 0.056545
Si Si2 0.615526 0.000000 0.808094
Si Si3 0.384141 0.000000 0.696028
Si Si4 0.784558 0.195091 0.554113
Si Si5 0.714218 0.318678 0.350756
O O1 0.601409 0.278040 0.067821
O O2 0.500000 0.000000 0.074529
O O3 0.500000 0.180084 0.000000
O O4 0.630355 0.000000 0.752137
O O5 0.675456 0.154056 0.830358
O O6 0.500000 0.000000 0.817485
O O7 0.336601 0.835616 0.673801
O O8 0.500000 0.000000 0.686617
O O9 0.771678 0.252554 0.500000
O O10 0.722608 0.287516 0.593631
O O11 0.762735 0.000000 0.555676
O O12 0.667267 0.500000 0.341532
#
# Coordination Sequence:
#
# PCOD9519469 Si02
#       5
#     8   8   8  16  16
#     4   9  17  27  43  71 111 157 195 230 277 351
#     4   9  22  40  62  90 126 156 190 244 302 365
#     4  11  22  44  64  84 117 157 204 258 305 342
#     4  10  19  32  51  78 117 159 198 237 292 356
#     4  10  22  36  63  88 119 153 199 241 297 358
#
# _framework density 17.87209
#
# number of rings (size 3 to 8) (size 9 to 14) (size 15 to 20)
#    0.857    1.286    1.429    2.143    2.000    4.000 
#    0.000    0.714    0.000    1.714    0.000    2.000 
#    0.000    0.000    0.000    0.000    0.000    0.000 
#
# Total GULP energy -155946.034091 kJ/mol
# GULP energy per Si atom -5569.501218 kJ/mol
# Density = 1.783141 g / cm^3
# Si number density = 17.872090 Si / 1000 Ang^3
#
#
#
# Elastic Constant Matrix: (Units=GPa)
#
#
# Indices 1 2 3 4 5 6 
#
# 1 62.3431 42.0957 46.3028 0.0000 0.0000 0.0000
# 2 42.0957 120.8445 54.1165 0.0000 0.0000 0.0000
# 3 46.3028 54.1165 127.2422 0.0000 0.0000 0.0000
# 4 0.0000 0.0000 0.0000 19.8247 0.0000 0.0000
# 5 0.0000 0.0000 0.0000 0.0000 -9.8050 0.0000
# 6 0.0000 0.0000 0.0000 0.0000 0.0000 18.2038
#
#
#
# Elastic Compliance Matrix: (Units=1/GPa)
#
#
# Indices 1 2 3 4 5 6 
#
# 1 0.024775 -0.005674 -0.006602 0.000000 0.000000 0.000000
# 2 -0.005674 0.011521 -0.002835 0.000000 0.000000 0.000000
# 3 -0.006602 -0.002835 0.011468 0.000000 0.000000 0.000000
# 4 0.000000 0.000000 0.000000 0.050442 0.000000 0.000000
# 5 0.000000 0.000000 0.000000 0.000000 -0.101988 0.000000
# 6 0.000000 0.000000 0.000000 0.000000 0.000000 0.054934
#
#
# Mechanical properties :
#
#
# Convention : Reuss Voigt Hill
#
# Bulk Modulus (GPa) = 57.01007 66.16222 61.58614
# Shear Modulus (GPa) = 57.32575 16.83901 37.08238
#
# Velocity S-wave (km/s) = 5.66967 3.07285 4.56002
# Velocity P-wave (km/s) = 8.65034 7.04912 7.89046
#
# Compressibility (1/GPa) = 0.01754076
#
# Stress axis : x y z
#
# Youngs Moduli (GPa) = 40.36344 86.79639 87.20249
#
# Poissons Ratio (x) = 0.49244 0.57575
# Poissons Ratio (y) = 0.22900 0.24726
# Poissons Ratio (z) = 0.26650 0.24611
#
# Static dielectric constant tensor:
#      x y z
#    x 1.599240 0.000000 0.000000 
#    y 0.000000 1.613860 0.000000 
#    z 0.000000 0.000000 1.625730 
# 
# From -- ./inp_files/68787.got.cif
#   From: 2010.05.17/outbox.cif.g08.bks.cpg/sg71_35_cif.got.tgz:68787.got - 2010.06.03 16:22:01.
