data_PCOD9519143
_publ_section_title
;
Structure prediction by ZEFSAII (Michael W. Deem and Ramdas Pophale) SiO2 
 PCOD9519143
Probable space group: I M M M
;
_chemical_formula_sum "Si O2"
_cell_formula_units_Z 56
_cell_length_a 8.783920
_cell_length_b 24.403205
_cell_length_c 13.685781
_cell_angle_alpha 90.000000
_cell_angle_beta 90.000000
_cell_angle_gamma 90.000000
_cell_volume 2933.626541
_symmetry_space_group_name_H-M "I M M M"
_symmetry_group_IT_number 71
_symmetry_cell_setting 'orthorhombic'
loop_
_space_group_symop_operation_xyz
x,y,z
-x,-y,z
x,-y,-z
-x,y,-z
-x,-y,-z
x,y,-z
-x,y,z
x,-y,z
1/2+x,1/2+y,1/2+z
1/2-x,1/2-y,1/2+z
1/2+x,1/2-y,1/2-z
1/2-x,1/2+y,1/2-z
1/2-x,1/2-y,1/2-z
1/2+x,1/2+y,1/2-z
1/2-x,1/2+y,1/2+z
1/2+x,1/2-y,1/2+z
loop_
_atom_site_type_symbol
_atom_site_label
_atom_site_fract_x
_atom_site_fract_y
_atom_site_fract_z
Si Si1 0.185605 0.562986 0.000000
Si Si2 0.324496 0.261513 0.113824
Si Si3 0.682017 0.359463 0.390893
Si Si4 0.182122 0.370567 0.807509
O O1 0.233444 0.593634 0.900716
O O2 0.234564 0.500000 0.000000
O O3 0.000000 0.564113 0.000000
O O4 0.500000 0.256030 0.146285
O O5 0.242512 0.203001 0.115843
O O6 0.239587 0.308863 0.172110
O O7 0.324875 0.278601 0.000000
O O8 0.725360 0.379643 0.500000
O O9 0.500000 0.359587 0.384156
O O10 0.751988 0.389128 0.296782
O O11 0.000000 0.371136 0.803515
#
# Coordination Sequence:
#
# PCOD9519143 Si02
#       4
#     8  16  16  16
#     4   9  20  38  59  83 107 135 175 225 278 325
#     4  10  19  31  49  75 109 145 181 217 257 314
#     4  10  21  35  51  74 108 146 182 216 256 313
#     4  11  20  33  55  78 105 138 176 222 270 319
#
# _framework density 19.088999999999999
#
# number of rings (size 3 to 8) (size 9 to 14) (size 15 to 20)
#    0.000    1.857    1.429    3.429    0.000    2.857 
#    0.000    0.000    0.000    7.714    0.000    6.000 
#    0.000    0.000    0.000    0.000    0.000    0.000 
#
# Total GULP energy -156310.737551 kJ/mol
# GULP energy per Si atom -5582.526341 kJ/mol
# Density = 1.904555 g / cm^3
# Si number density = 19.089000 Si / 1000 Ang^3
#
#
#
# Elastic Constant Matrix: (Units=GPa)
#
#
# Indices 1 2 3 4 5 6 
#
# 1 65.0521 5.8900 49.8648 0.0000 0.0000 0.0000
# 2 5.8900 29.0247 39.2790 0.0000 0.0000 0.0000
# 3 49.8648 39.2790 199.7412 -0.0001 0.0000 0.0000
# 4 0.0000 0.0000 -0.0001 8.5178 0.0000 0.0000
# 5 0.0000 0.0000 0.0000 0.0000 36.0390 0.0000
# 6 0.0000 0.0000 0.0000 0.0000 0.0000 7.8422
#
#
#
# Elastic Compliance Matrix: (Units=1/GPa)
#
#
# Indices 1 2 3 4 5 6 
#
# 1 0.019274 0.003543 -0.005508 0.000000 0.000000 0.000000
# 2 0.003543 0.047599 -0.010245 0.000000 0.000000 0.000000
# 3 -0.005508 -0.010245 0.008396 0.000000 0.000000 0.000000
# 4 0.000000 0.000000 0.000000 0.117401 0.000000 0.000000
# 5 0.000000 0.000000 0.000000 0.000000 0.027748 0.000000
# 6 0.000000 0.000000 0.000000 0.000000 0.000000 0.127515
#
#
# Mechanical properties :
#
#
# Convention : Reuss Voigt Hill
#
# Bulk Modulus (GPa) = 19.66614 53.76509 36.71562
# Shear Modulus (GPa) = 12.84351 23.73208 18.28780
#
# Velocity S-wave (km/s) = 2.59670 3.52978 3.09856
# Velocity P-wave (km/s) = 4.39490 6.69620 5.66367
#
# Compressibility (1/GPa) = 0.05084882
#
# Stress axis : x y z
#
# Youngs Moduli (GPa) = 51.88357 21.00901 119.10016
#
# Poissons Ratio (x) = -0.07444 0.65606
# Poissons Ratio (y) = -0.18384 1.22016
# Poissons Ratio (z) = 0.28580 0.21523
#
# Static dielectric constant tensor:
#      x y z
#    x 1.648830 0.000000 0.000000 
#    y 0.000000 1.617000 0.000000 
#    z 0.000000 0.000000 1.753720 
# 
# From -- ./inp_files/11899.got.cif
#   From: 2010.05.17/outbox.cif.g08.bks.cpg/sg71_6_cif.got.tgz:11899.got - 2010.06.03 16:22:01.
