data_PCOD9519428
_publ_section_title
;
Structure prediction by ZEFSAII (Michael W. Deem and Ramdas Pophale) SiO2 
 PCOD9519428
Probable space group: I M M M
;
_chemical_formula_sum "Si O2"
_cell_formula_units_Z 112
_cell_length_a 14.655910
_cell_length_b 23.329627
_cell_length_c 17.455092
_cell_angle_alpha 90.000000
_cell_angle_beta 90.000000
_cell_angle_gamma 90.000000
_cell_volume 5968.191184
_symmetry_space_group_name_H-M "I M M M"
_symmetry_group_IT_number 71
_symmetry_cell_setting 'orthorhombic'
loop_
_space_group_symop_operation_xyz
x,y,z
-x,-y,z
x,-y,-z
-x,y,-z
-x,-y,-z
x,y,-z
-x,y,z
x,-y,z
1/2+x,1/2+y,1/2+z
1/2-x,1/2-y,1/2+z
1/2+x,1/2-y,1/2-z
1/2-x,1/2+y,1/2-z
1/2-x,1/2-y,1/2-z
1/2+x,1/2+y,1/2-z
1/2-x,1/2+y,1/2+z
1/2+x,1/2-y,1/2+z
loop_
_atom_site_type_symbol
_atom_site_label
_atom_site_fract_x
_atom_site_fract_y
_atom_site_fract_z
Si Si1 0.201814 0.178731 0.413012
Si Si2 0.391966 0.065988 0.225451
Si Si3 0.102114 0.665193 0.159465
Si Si4 0.394753 0.611646 0.689234
Si Si5 0.762838 0.569275 0.586974
Si Si6 0.645492 0.733891 0.236446
Si Si7 0.109574 0.934694 0.355746
O O1 0.188286 0.196395 0.500000
O O2 0.310135 0.180853 0.392070
O O3 0.143659 0.216680 0.352646
O O4 0.165373 0.113961 0.399852
O O5 0.500000 0.068428 0.210830
O O6 0.373608 0.105953 0.297962
O O7 0.338302 0.085657 0.150017
O O8 0.366825 0.000000 0.241120
O O9 0.095891 0.711952 0.227660
O O10 0.000000 0.661529 0.124059
O O11 0.500000 0.601770 0.670671
O O12 0.330214 0.595349 0.619590
O O13 0.380966 0.677102 0.716433
O O14 0.371000 0.574576 0.765050
O O15 0.782496 0.587360 0.500000
O O16 0.756764 0.500000 0.587290
O O17 0.750000 0.750000 0.250000
O O18 0.000000 0.925467 0.365412
O O19 0.130390 0.000000 0.377858
#
# Coordination Sequence:
#
# PCOD9519428 Si02
#       7
#    16  16  16  16  16  16  16
#     4  10  21  35  53  80 111 139 167 210 266 313
#     4   9  18  34  56  78  99 129 174 225 270 312
#     4  10  20  36  58  79 102 137 178 215 253 306
#     4  10  19  32  51  74 102 137 176 215 254 302
#     4  10  20  32  48  73 105 139 174 217 270 321
#     4   9  18  35  56  75  98 133 175 214 249 295
#     4   9  18  33  54  78 103 137 180 218 254 304
#
# _framework density 18.766155000000001
#
# number of rings (size 3 to 8) (size 9 to 14) (size 15 to 20)
#    0.000    2.429    0.000    3.429    0.000    4.571 
#    0.000    9.286    0.000    4.286    0.000    3.000 
#    0.000    0.000    0.000    0.000    0.000    0.000 
#
# Total GULP energy -312240.606919 kJ/mol
# GULP energy per Si atom -5575.725124 kJ/mol
# Density = 1.872344 g / cm^3
# Si number density = 18.766155 Si / 1000 Ang^3
#
#
#
# Elastic Constant Matrix: (Units=GPa)
#
#
# Indices 1 2 3 4 5 6 
#
# 1 31.7233 0.9146 -9.5421 0.0000 0.0000 0.0000
# 2 0.9146 40.3199 6.9532 0.0001 0.0000 0.0000
# 3 -9.5421 6.9532 36.4068 0.0003 0.0000 0.0000
# 4 0.0000 0.0001 0.0003 5.7711 0.0000 0.0000
# 5 0.0000 0.0000 0.0000 0.0000 8.1383 0.0000
# 6 0.0000 0.0000 0.0000 0.0000 0.0000 25.1061
#
#
#
# Elastic Compliance Matrix: (Units=1/GPa)
#
#
# Indices 1 2 3 4 5 6 
#
# 1 0.034447 -0.002418 0.009490 -0.000001 0.000000 0.000000
# 2 -0.002418 0.025816 -0.005564 0.000000 0.000000 0.000000
# 3 0.009490 -0.005564 0.031017 -0.000002 0.000000 0.000000
# 4 -0.000001 0.000000 -0.000002 0.173278 0.000000 0.000000
# 5 0.000000 0.000000 0.000000 0.000000 0.122876 0.000000
# 6 0.000000 0.000000 0.000000 0.000000 0.000000 0.039831
#
#
# Mechanical properties :
#
#
# Convention : Reuss Voigt Hill
#
# Bulk Modulus (GPa) = 10.60488 11.67794 11.14141
# Shear Modulus (GPa) = 10.97259 15.14471 13.05865
#
# Velocity S-wave (km/s) = 2.42068 2.84390 2.64078
# Velocity P-wave (km/s) = 3.67100 4.12554 3.90489
#
# Compressibility (1/GPa) = 0.09429624
#
# Stress axis : x y z
#
# Youngs Moduli (GPa) = 29.03023 38.73557 32.23993
#
# Poissons Ratio (x) = 0.09366 -0.30596
# Poissons Ratio (y) = 0.07019 0.17939
# Poissons Ratio (z) = -0.27550 0.21553
#
# Static dielectric constant tensor:
#      x y z
#    x 1.645710 0.000000 0.000000 
#    y 0.000000 1.659310 0.000000 
#    z 0.000000 0.000000 1.633850 
# 
# From -- ./inp_files/34870.got.cif
#   From: 2010.05.17/outbox.cif.g08.bks.cpg/sg71_18_cif.got.tgz:34870.got - 2010.06.03 16:22:01.
