data_PCOD9519995
_publ_section_title
;
Structure prediction by ZEFSAII (Michael W. Deem and Ramdas Pophale) SiO2 
 PCOD9519995
Probable space group: I M M M
;
_chemical_formula_sum "Si O2"
_cell_formula_units_Z 80
_cell_length_a 21.726356
_cell_length_b 22.109692
_cell_length_c 9.014320
_cell_angle_alpha 90.000000
_cell_angle_beta 90.000000
_cell_angle_gamma 90.000000
_cell_volume 4330.146154
_symmetry_space_group_name_H-M "I M M M"
_symmetry_group_IT_number 71
_symmetry_cell_setting 'orthorhombic'
loop_
_space_group_symop_operation_xyz
x,y,z
-x,-y,z
x,-y,-z
-x,y,-z
-x,-y,-z
x,y,-z
-x,y,z
x,-y,z
1/2+x,1/2+y,1/2+z
1/2-x,1/2-y,1/2+z
1/2+x,1/2-y,1/2-z
1/2-x,1/2+y,1/2-z
1/2-x,1/2-y,1/2-z
1/2+x,1/2+y,1/2-z
1/2-x,1/2+y,1/2+z
1/2+x,1/2-y,1/2+z
loop_
_atom_site_type_symbol
_atom_site_label
_atom_site_fract_x
_atom_site_fract_y
_atom_site_fract_z
Si Si1 0.182635 0.737774 0.320327
Si Si2 0.929209 0.500000 0.823035
Si Si3 0.850052 0.602393 0.326750
Si Si4 0.708451 0.569717 0.334286
Si Si5 0.500000 0.428543 0.677967
Si Si6 0.887750 0.143068 0.326380
O O1 0.190012 0.738501 0.500000
O O2 0.250000 0.750000 0.250000
O O3 0.157567 0.671762 0.277141
O O4 0.132644 0.789256 0.280965
O O5 0.895160 0.440527 0.762521
O O6 0.000000 0.500000 0.774729
O O7 0.926527 0.500000 0.000000
O O8 0.868409 0.602207 0.500000
O O9 0.781390 0.574985 0.318644
O O10 0.692683 0.593992 0.500000
O O11 0.689660 0.500000 0.330022
O O12 0.673980 0.605588 0.207577
O O13 0.500000 0.500000 0.724674
O O14 0.500000 0.428169 0.500000
O O15 0.558951 0.391730 0.738224
O O16 0.903457 0.143308 0.500000
#
# Coordination Sequence:
#
# PCOD9519995 Si02
#       6
#    16   8  16  16   8  16
#     4  10  21  37  60  91 125 158 196 244 298 359
#     4  11  25  43  61  87 123 156 199 260 313 357
#     4  10  20  38  62  87 117 158 201 243 294 359
#     4  10  19  33  56  86 117 151 197 246 294 355
#     4  11  25  45  65  85 115 164 215 252 297 361
#     4  11  23  38  59  89 123 158 198 250 308 357
#
# _framework density 18.475125999999999
#
# number of rings (size 3 to 8) (size 9 to 14) (size 15 to 20)
#    0.000    1.600    3.000    1.800    0.000    6.800 
#    1.800    0.000    0.000    0.000    0.000    0.000 
#    0.000    0.000    0.000    0.000    0.000    0.000 
#
# Total GULP energy -223250.208947 kJ/mol
# GULP energy per Si atom -5581.255224 kJ/mol
# Density = 1.843308 g / cm^3
# Si number density = 18.475126 Si / 1000 Ang^3
#
#
#
# Elastic Constant Matrix: (Units=GPa)
#
#
# Indices 1 2 3 4 5 6 
#
# 1 93.1341 62.7468 39.5247 0.0000 0.0000 0.0000
# 2 62.7468 157.9890 43.4258 0.0000 0.0000 0.0000
# 3 39.5247 43.4258 39.5487 0.0000 0.0000 0.0000
# 4 0.0000 0.0000 0.0000 23.2475 0.0000 0.0000
# 5 0.0000 0.0000 0.0000 0.0000 31.3240 0.0000
# 6 0.0000 0.0000 0.0000 0.0000 0.0000 24.1706
#
#
#
# Elastic Compliance Matrix: (Units=1/GPa)
#
#
# Indices 1 2 3 4 5 6 
#
# 1 0.019904 -0.003491 -0.016059 0.000000 0.000000 0.000000
# 2 -0.003491 0.009678 -0.007138 0.000000 0.000000 0.000000
# 3 -0.016059 -0.007138 0.049172 0.000000 0.000000 0.000000
# 4 0.000000 0.000000 0.000000 0.043015 0.000000 0.000000
# 5 0.000000 0.000000 0.000000 0.000000 0.031924 0.000000
# 6 0.000000 0.000000 0.000000 0.000000 0.000000 0.041373
#
#
# Mechanical properties :
#
#
# Convention : Reuss Voigt Hill
#
# Bulk Modulus (GPa) = 39.40311 64.67405 52.03858
# Shear Modulus (GPa) = 19.46268 25.41340 22.43804
#
# Velocity S-wave (km/s) = 3.24922 3.71286 3.48875
# Velocity P-wave (km/s) = 5.95403 7.31180 6.66757
#
# Compressibility (1/GPa) = 0.02537871
#
# Stress axis : x y z
#
# Youngs Moduli (GPa) = 50.23997 103.32680 20.33682
#
# Poissons Ratio (x) = 0.36073 0.32659
# Poissons Ratio (y) = 0.17540 0.14516
# Poissons Ratio (z) = 0.80680 0.73752
#
# Static dielectric constant tensor:
#      x y z
#    x 1.620720 0.000000 0.000000 
#    y 0.000000 1.659350 0.000000 
#    z 0.000000 0.000000 1.637880 
# 
# From -- ./inp_files/10277.got.cif
#   From: 2010.05.17/outbox.cif.g08.bks.cpg/sg71_6_cif.got.tgz:10277.got - 2010.06.03 16:22:01.
