data_PCOD9519718
_publ_section_title
;
Structure prediction by ZEFSAII (Michael W. Deem and Ramdas Pophale) SiO2 
 PCOD9519718
Probable space group: I M M M
;
_chemical_formula_sum "Si O2"
_cell_formula_units_Z 68
_cell_length_a 7.887161
_cell_length_b 25.883658
_cell_length_c 20.193090
_cell_angle_alpha 90.000000
_cell_angle_beta 90.000000
_cell_angle_gamma 90.000000
_cell_volume 4122.390607
_symmetry_space_group_name_H-M "I M M M"
_symmetry_group_IT_number 71
_symmetry_cell_setting 'orthorhombic'
loop_
_space_group_symop_operation_xyz
x,y,z
-x,-y,z
x,-y,-z
-x,y,-z
-x,-y,-z
x,y,-z
-x,y,z
x,-y,z
1/2+x,1/2+y,1/2+z
1/2-x,1/2-y,1/2+z
1/2+x,1/2-y,1/2-z
1/2-x,1/2+y,1/2-z
1/2-x,1/2-y,1/2-z
1/2+x,1/2+y,1/2-z
1/2-x,1/2+y,1/2+z
1/2+x,1/2-y,1/2+z
loop_
_atom_site_type_symbol
_atom_site_label
_atom_site_fract_x
_atom_site_fract_y
_atom_site_fract_z
Si Si1 0.703206 0.170915 0.747673
Si Si2 0.186192 0.714022 0.500000
Si Si3 0.000000 0.862580 0.000000
Si Si4 0.300409 0.942525 0.220829
Si Si5 0.500000 0.443375 0.384455
Si Si6 0.799181 0.246837 0.860374
O O1 0.500000 0.177321 0.750829
O O2 0.737904 0.110112 0.739343
O O3 0.772501 0.194985 0.816274
O O4 0.763603 0.206979 0.687423
O O5 0.334638 0.672508 0.500000
O O6 0.209814 0.744662 0.431232
O O7 0.000000 0.690034 0.500000
O O8 0.000000 0.898058 0.063920
O O9 0.500000 0.939104 0.201147
O O10 0.167835 0.940658 0.160830
O O11 0.278819 0.000000 0.252034
O O12 0.500000 0.500000 0.416735
O O13 0.000000 0.252829 0.871959
#
# Coordination Sequence:
#
# PCOD9519718 Si02
#       6
#    16   8   4  16   8  16
#     4   9  18  31  51  76 101 131 166 206 254 306
#     4  12  24  37  51  71 101 137 175 212 255 307
#     4  12  23  36  52  68  96 138 173 214 250 294
#     4   9  18  33  51  73 101 129 161 207 254 297
#     4  10  21  34  50  72  98 131 172 210 248 295
#     4  10  19  33  50  73 103 132 167 210 254 301
#
# _framework density 16.495283000000001
#
# number of rings (size 3 to 8) (size 9 to 14) (size 15 to 20)
#    0.000    2.118    1.176    2.294    1.647    3.765 
#    0.000    0.000    0.000    3.529    0.000    0.824 
#    0.000    6.588    0.000    0.000    0.000    0.000 
#
# Total GULP energy -189433.500812 kJ/mol
# GULP energy per Si atom -5571.573553 kJ/mol
# Density = 1.645774 g / cm^3
# Si number density = 16.495283 Si / 1000 Ang^3
#
#
#
# Elastic Constant Matrix: (Units=GPa)
#
#
# Indices 1 2 3 4 5 6 
#
# 1 64.2018 26.5706 21.3009 0.0000 0.0000 0.0000
# 2 26.5706 126.8212 44.6774 0.0000 0.0000 0.0000
# 3 21.3009 44.6774 87.2172 -0.0001 0.0000 0.0001
# 4 0.0000 0.0000 -0.0001 24.4467 0.0000 0.0000
# 5 0.0000 0.0000 0.0000 0.0000 17.7712 0.0000
# 6 0.0000 0.0000 0.0001 0.0000 0.0000 -61.5876
#
#
#
# Elastic Compliance Matrix: (Units=1/GPa)
#
#
# Indices 1 2 3 4 5 6 
#
# 1 0.017655 -0.002660 -0.002949 0.000000 0.000000 0.000000
# 2 -0.002660 0.010022 -0.004484 0.000000 0.000000 0.000000
# 3 -0.002949 -0.004484 0.014483 0.000000 0.000000 0.000000
# 4 0.000000 0.000000 0.000000 0.040905 0.000000 0.000000
# 5 0.000000 0.000000 0.000000 0.000000 0.056271 0.000000
# 6 0.000000 0.000000 0.000000 0.000000 0.000000 -0.016237
#
#
# Mechanical properties :
#
#
# Convention : Reuss Voigt Hill
#
# Bulk Modulus (GPa) = 45.50974 51.48200 48.49587
# Shear Modulus (GPa) = 33.19808 8.50547 20.85177
#
# Velocity S-wave (km/s) = 4.49105 2.27321 3.55928
# Velocity P-wave (km/s) = 7.38526 6.17802 6.80845
#
# Compressibility (1/GPa) = 0.02197332
#
# Stress axis : x y z
#
# Youngs Moduli (GPa) = 56.64030 99.77894 69.04637
#
# Poissons Ratio (x) = 0.26541 0.20364
# Poissons Ratio (y) = 0.15066 0.30962
# Poissons Ratio (z) = 0.16705 0.44743
#
# Static dielectric constant tensor:
#      x y z
#    x 1.619580 0.000000 0.000000 
#    y 0.000000 1.597360 0.000000 
#    z 0.000000 0.000000 1.538260 
# 
# From -- ./inp_files/42107.got.cif
#   From: 2010.05.17/outbox.cif.g08.bks.cpg/sg71_22_cif.got.tgz:42107.got - 2010.06.03 16:22:01.
