data_PCOD9519991
_publ_section_title
;
Structure prediction by ZEFSAII (Michael W. Deem and Ramdas Pophale) SiO2 
 PCOD9519991
Probable space group: I M M M
;
_chemical_formula_sum "Si O2"
_cell_formula_units_Z 48
_cell_length_a 7.759687
_cell_length_b 18.532764
_cell_length_c 15.441342
_cell_angle_alpha 90.000000
_cell_angle_beta 90.000000
_cell_angle_gamma 90.000000
_cell_volume 2220.595426
_symmetry_space_group_name_H-M "I M M M"
_symmetry_group_IT_number 71
_symmetry_cell_setting 'orthorhombic'
loop_
_space_group_symop_operation_xyz
x,y,z
-x,-y,z
x,-y,-z
-x,y,-z
-x,-y,-z
x,y,-z
-x,y,z
x,-y,z
1/2+x,1/2+y,1/2+z
1/2-x,1/2-y,1/2+z
1/2+x,1/2-y,1/2-z
1/2-x,1/2+y,1/2-z
1/2-x,1/2-y,1/2-z
1/2+x,1/2+y,1/2-z
1/2-x,1/2+y,1/2+z
1/2+x,1/2-y,1/2+z
loop_
_atom_site_type_symbol
_atom_site_label
_atom_site_fract_x
_atom_site_fract_y
_atom_site_fract_z
Si Si1 0.500000 0.582304 0.893772
Si Si2 0.500000 0.412825 0.606206
Si Si3 0.297902 0.807763 0.828428
Si Si4 0.690392 0.170888 0.597675
O O1 0.500000 0.500000 0.871331
O O2 0.669223 0.620783 0.858305
O O3 0.500000 0.588696 0.000000
O O4 0.500000 0.500000 0.619826
O O5 0.500000 0.401272 0.500000
O O6 0.334354 0.372705 0.650690
O O7 0.500000 0.827517 0.825049
O O8 0.250000 0.750000 0.750000
O O9 0.264106 0.750895 0.905216
O O10 0.674259 0.143710 0.500000
O O11 0.500000 0.169572 0.635863
#
# Coordination Sequence:
#
# PCOD9519991 Si02
#       4
#     8   8  16  16
#     4   9  18  31  49  79 115 149 194 256 318 377
#     4  11  26  47  73 111 154 189 234 306 377 436
#     4  12  23  41  69  99 136 184 239 293 355 434
#     4  10  19  33  56  85 117 162 217 272 337 412
#
# _framework density 21.615824
#
# number of rings (size 3 to 8) (size 9 to 14) (size 15 to 20)
#    0.000    1.333    5.000    1.000    0.000    3.333 
#    0.000    8.333    0.000    4.000    0.000    0.000 
#    0.000    0.000    0.000    0.000    0.000    0.000 
#
# Total GULP energy -133635.138088 kJ/mol
# GULP energy per Si atom -5568.130754 kJ/mol
# Density = 2.156662 g / cm^3
# Si number density = 21.615824 Si / 1000 Ang^3
#
#
#
# Elastic Constant Matrix: (Units=GPa)
#
#
# Indices 1 2 3 4 5 6 
#
# 1 239.0875 102.3251 44.8874 0.0000 0.0000 0.0000
# 2 102.3251 169.7187 32.1446 0.0000 0.0000 0.0000
# 3 44.8874 32.1446 107.1967 0.0000 0.0000 0.0000
# 4 0.0000 0.0000 0.0000 24.6632 0.0000 0.0000
# 5 0.0000 0.0000 0.0000 0.0000 18.8130 0.0000
# 6 0.0000 0.0000 0.0000 0.0000 0.0000 13.5617
#
#
#
# Elastic Compliance Matrix: (Units=1/GPa)
#
#
# Indices 1 2 3 4 5 6 
#
# 1 0.005849 -0.003247 -0.001476 0.000000 0.000000 0.000000
# 2 -0.003247 0.008049 -0.001054 0.000000 0.000000 0.000000
# 3 -0.001476 -0.001054 0.010263 0.000000 0.000000 0.000000
# 4 0.000000 0.000000 0.000000 0.040546 0.000000 0.000000
# 5 0.000000 0.000000 0.000000 0.000000 0.053155 0.000000
# 6 0.000000 0.000000 0.000000 0.000000 0.000000 0.073737
#
#
# Mechanical properties :
#
#
# Convention : Reuss Voigt Hill
#
# Bulk Modulus (GPa) = 79.31616 97.19078 88.25347
# Shear Modulus (GPa) = 24.11314 33.85063 28.98188
#
# Velocity S-wave (km/s) = 3.34358 3.96158 3.66563
# Velocity P-wave (km/s) = 7.18883 8.12317 7.67024
#
# Compressibility (1/GPa) = 0.01260777
#
# Stress axis : x y z
#
# Youngs Moduli (GPa) = 170.95979 124.23174 97.44094
#
# Poissons Ratio (x) = 0.40340 0.14379
# Poissons Ratio (y) = 0.55513 0.10271
# Poissons Ratio (z) = 0.25227 0.13095
#
# Static dielectric constant tensor:
#      x y z
#    x 1.852510 0.000000 0.000000 
#    y 0.000000 1.734870 0.000000 
#    z 0.000000 0.000000 2.010950 
# 
# From -- ./inp_files/41571.got.cif
#   From: 2010.05.17/outbox.cif.g08.bks.cpg/sg71_21_cif.got.tgz:41571.got - 2010.06.03 16:22:01.
