data_PCOD9519916
_publ_section_title
;
Structure prediction by ZEFSAII (Michael W. Deem and Ramdas Pophale) SiO2 
 PCOD9519916
Probable space group: I M M M
;
_chemical_formula_sum "Si O2"
_cell_formula_units_Z 104
_cell_length_a 17.579327
_cell_length_b 25.573293
_cell_length_c 14.074287
_cell_angle_alpha 90.000000
_cell_angle_beta 90.000000
_cell_angle_gamma 90.000000
_cell_volume 6327.254480
_symmetry_space_group_name_H-M "I M M M"
_symmetry_group_IT_number 71
_symmetry_cell_setting 'orthorhombic'
loop_
_space_group_symop_operation_xyz
x,y,z
-x,-y,z
x,-y,-z
-x,y,-z
-x,-y,-z
x,y,-z
-x,y,z
x,-y,z
1/2+x,1/2+y,1/2+z
1/2-x,1/2-y,1/2+z
1/2+x,1/2-y,1/2-z
1/2-x,1/2+y,1/2-z
1/2-x,1/2-y,1/2-z
1/2+x,1/2+y,1/2-z
1/2-x,1/2+y,1/2+z
1/2+x,1/2-y,1/2+z
loop_
_atom_site_type_symbol
_atom_site_label
_atom_site_fract_x
_atom_site_fract_y
_atom_site_fract_z
Si Si1 0.411091 0.062610 0.889723
Si Si2 0.086299 0.729386 0.796805
Si Si3 0.778792 0.211044 0.891077
Si Si4 0.586901 0.500000 0.115388
Si Si5 0.132449 0.782232 0.607575
Si Si6 0.183257 0.101260 0.387611
Si Si7 0.810789 0.366613 0.746483
O O1 0.500000 0.075266 0.871501
O O2 0.356664 0.093307 0.819208
O O3 0.402686 0.000000 0.880478
O O4 0.395156 0.076400 0.000000
O O5 0.140119 0.767689 0.857415
O O6 0.087786 0.752661 0.689687
O O7 0.129088 0.673907 0.791704
O O8 0.000000 0.725659 0.830655
O O9 0.718329 0.259017 0.885822
O O10 0.745273 0.167652 0.820589
O O11 0.780395 0.193016 0.000000
O O12 0.500000 0.500000 0.149775
O O13 0.632523 0.447945 0.142953
O O14 0.584123 0.500000 0.000000
O O15 0.105302 0.771857 0.500000
O O16 0.137525 0.844189 0.623142
O O17 0.200641 0.096206 0.500000
O O18 0.259187 0.106235 0.325853
#
# Coordination Sequence:
#
# PCOD9519916 Si02
#       7
#    16  16  16   8  16  16  16
#     4   9  19  35  54  78 106 134 169 216 268 312
#     4  11  21  32  47  74 106 135 168 207 254 306
#     4  10  19  34  51  71 101 135 171 210 247 297
#     4   9  20  36  52  76 104 129 160 206 262 307
#     4   9  17  33  53  72  97 132 169 206 249 298
#     4  10  19  33  55  77 103 135 169 209 253 305
#     4  11  19  34  53  79 101 135 173 215 254 303
#
# _framework density 16.436828999999999
#
# number of rings (size 3 to 8) (size 9 to 14) (size 15 to 20)
#    0.000    2.077    3.077    2.308    1.077    1.846 
#    0.000    1.538    0.000    1.385    0.000    1.077 
#    0.000    1.231    0.000    0.000    0.000    0.000 
#
# Total GULP energy -290086.055014 kJ/mol
# GULP energy per Si atom -5578.577981 kJ/mol
# Density = 1.639942 g / cm^3
# Si number density = 16.436829 Si / 1000 Ang^3
#
#
#
# Elastic Constant Matrix: (Units=GPa)
#
#
# Indices 1 2 3 4 5 6 
#
# 1 118.0602 48.5370 37.3100 0.0000 0.0000 0.0000
# 2 48.5370 78.8067 31.4260 0.0000 0.0000 0.0000
# 3 37.3100 31.4260 48.3083 0.0000 0.0000 0.0000
# 4 0.0000 0.0000 0.0000 25.0191 0.0000 0.0000
# 5 0.0000 0.0000 0.0000 0.0000 17.4527 0.0000
# 6 0.0000 0.0000 0.0000 0.0000 0.0000 12.2838
#
#
#
# Elastic Compliance Matrix: (Units=1/GPa)
#
#
# Indices 1 2 3 4 5 6 
#
# 1 0.012633 -0.005253 -0.006340 0.000000 0.000000 0.000000
# 2 -0.005253 0.019318 -0.008510 0.000000 0.000000 0.000000
# 3 -0.006340 -0.008510 0.031133 0.000000 0.000000 0.000000
# 4 0.000000 0.000000 0.000000 0.039970 0.000000 0.000000
# 5 0.000000 0.000000 0.000000 0.000000 0.057298 0.000000
# 6 0.000000 0.000000 0.000000 0.000000 0.000000 0.081408
#
#
# Mechanical properties :
#
#
# Convention : Reuss Voigt Hill
#
# Bulk Modulus (GPa) = 43.70882 53.30234 48.50558
# Shear Modulus (GPa) = 17.26568 19.47793 18.37181
#
# Velocity S-wave (km/s) = 3.24454 3.44614 3.34686
# Velocity P-wave (km/s) = 6.37854 6.95223 6.67156
#
# Compressibility (1/GPa) = 0.02287868
#
# Stress axis : x y z
#
# Youngs Moduli (GPa) = 79.15550 51.76528 32.12007
#
# Poissons Ratio (x) = 0.27190 0.20365
# Poissons Ratio (y) = 0.41577 0.27335
# Poissons Ratio (z) = 0.50186 0.44053
#
# Static dielectric constant tensor:
#      x y z
#    x 1.543890 0.000000 0.000000 
#    y 0.000000 1.546180 0.000000 
#    z 0.000000 0.000000 1.559110 
# 
# From -- ./inp_files/36909.got.cif
#   From: 2010.05.17/outbox.cif.g08.bks.cpg/sg71_19_cif.got.tgz:36909.got - 2010.06.03 16:22:01.
