data_PCOD9519463
_publ_section_title
;
Structure prediction by ZEFSAII (Michael W. Deem and Ramdas Pophale) SiO2 
 PCOD9519463
Probable space group: I M M M
;
_chemical_formula_sum "Si O2"
_cell_formula_units_Z 104
_cell_length_a 26.354066
_cell_length_b 8.545086
_cell_length_c 27.687528
_cell_angle_alpha 90.000000
_cell_angle_beta 90.000000
_cell_angle_gamma 90.000000
_cell_volume 6235.169297
_symmetry_space_group_name_H-M "I M M M"
_symmetry_group_IT_number 71
_symmetry_cell_setting 'orthorhombic'
loop_
_space_group_symop_operation_xyz
x,y,z
-x,-y,z
x,-y,-z
-x,y,-z
-x,-y,-z
x,y,-z
-x,y,z
x,-y,z
1/2+x,1/2+y,1/2+z
1/2-x,1/2-y,1/2+z
1/2+x,1/2-y,1/2-z
1/2-x,1/2+y,1/2-z
1/2-x,1/2-y,1/2-z
1/2+x,1/2+y,1/2-z
1/2-x,1/2+y,1/2+z
1/2+x,1/2-y,1/2+z
loop_
_atom_site_type_symbol
_atom_site_label
_atom_site_fract_x
_atom_site_fract_y
_atom_site_fract_z
Si Si1 0.220093 0.814659 0.944293
Si Si2 0.440369 0.000000 0.778697
Si Si3 0.440584 0.000000 0.662537
Si Si4 0.374687 0.311320 0.793895
Si Si5 0.941560 0.000000 0.942550
Si Si6 0.373381 0.257105 0.388701
Si Si7 0.695105 0.672784 0.298848
Si Si8 0.219511 0.819357 0.640354
O O1 0.172362 0.713067 0.925101
O O2 0.264441 0.783033 0.905712
O O3 0.205775 0.000000 0.941541
O O4 0.232419 0.780894 0.000000
O O5 0.436827 0.000000 0.720297
O O6 0.414403 0.833903 0.794802
O O7 0.500000 0.000000 0.791936
O O8 0.409743 0.859260 0.639288
O O9 0.500000 0.000000 0.649734
O O10 0.390894 0.500000 0.791469
O O11 0.339415 0.283306 0.746564
O O12 0.336670 0.295623 0.839162
O O13 0.911325 0.143582 0.920698
O O14 0.000000 0.000000 0.927359
O O15 0.939205 0.000000 0.000000
O O16 0.341921 0.334795 0.345103
O O17 0.716623 0.500000 0.289415
O O18 0.740807 0.782273 0.316194
O O19 0.225636 0.000000 0.626947
#
# Coordination Sequence:
#
# PCOD9519463 Si02
#       8
#    16   8   8  16   8  16  16  16
#     4  10  21  36  54  77 106 141 182 224 274 342
#     4  11  24  40  61  82 114 158 194 237 289 332
#     4  11  24  38  51  75 104 137 192 246 289 339
#     4  10  22  37  55  84 117 147 187 230 277 340
#     4  11  22  36  53  68  86 123 179 238 292 337
#     4  11  19  35  52  71  97 132 176 230 283 330
#     4  10  19  32  51  77 105 142 179 218 272 337
#     4  10  21  33  52  82 112 144 179 223 275 334
#
# _framework density 16.679580000000001
#
# number of rings (size 3 to 8) (size 9 to 14) (size 15 to 20)
#    0.000    1.615    3.077    2.769    7.538    0.615 
#    0.000    1.154    0.000    2.769    0.000    0.000 
#    0.000    1.231    0.000    3.385    0.000    0.000 
#
# Total GULP energy -289524.913175 kJ/mol
# GULP energy per Si atom -5567.786792 kJ/mol
# Density = 1.664162 g / cm^3
# Si number density = 16.679580 Si / 1000 Ang^3
#
#
#
# Elastic Constant Matrix: (Units=GPa)
#
#
# Indices 1 2 3 4 5 6 
#
# 1 87.3329 55.5394 40.9335 0.0000 0.0000 0.0000
# 2 55.5394 75.9508 19.1270 0.0000 0.0000 0.0000
# 3 40.9335 19.1270 67.3419 0.0000 0.0000 0.0000
# 4 0.0000 0.0000 0.0000 19.7440 0.0000 0.0000
# 5 0.0000 0.0000 0.0000 0.0000 20.0930 0.0000
# 6 0.0000 0.0000 0.0000 0.0000 0.0000 -8.1625
#
#
#
# Elastic Compliance Matrix: (Units=1/GPa)
#
#
# Indices 1 2 3 4 5 6 
#
# 1 0.028485 -0.017738 -0.012276 0.000000 0.000000 0.000000
# 2 -0.017738 0.025227 0.003617 0.000000 0.000000 0.000000
# 3 -0.012276 0.003617 0.021284 0.000000 0.000000 0.000000
# 4 0.000000 0.000000 0.000000 0.050648 0.000000 0.000000
# 5 0.000000 0.000000 0.000000 0.000000 0.049769 0.000000
# 6 0.000000 0.000000 0.000000 0.000000 0.000000 -0.122512
#
#
# Mechanical properties :
#
#
# Convention : Reuss Voigt Hill
#
# Bulk Modulus (GPa) = 45.04304 51.31394 48.17849
# Shear Modulus (GPa) = 44.21000 14.00328 29.10664
#
# Velocity S-wave (km/s) = 5.15393 2.90064 4.18191
# Velocity P-wave (km/s) = 7.90448 6.48456 7.22947
#
# Compressibility (1/GPa) = 0.02220099
#
# Stress axis : x y z
#
# Youngs Moduli (GPa) = 35.10609 39.64053 46.98276
#
# Poissons Ratio (x) = 0.70315 0.57678
# Poissons Ratio (y) = 0.62272 -0.16994
# Poissons Ratio (z) = 0.43098 -0.14338
#
# Static dielectric constant tensor:
#      x y z
#    x 1.548590 0.000000 0.000000 
#    y 0.000000 1.625760 0.000000 
#    z 0.000000 0.000000 1.557880 
# 
# From -- ./inp_files/67112.got.cif
#   From: 2010.05.17/outbox.cif.g08.bks.cpg/sg71_34_cif.got.tgz:67112.got - 2010.06.03 16:22:01.
