data_PCOD9519307
_publ_section_title
;
Structure prediction by ZEFSAII (Michael W. Deem and Ramdas Pophale) SiO2 
 PCOD9519307
Probable space group: I M M M
;
_chemical_formula_sum "Si O2"
_cell_formula_units_Z 88
_cell_length_a 13.941790
_cell_length_b 14.213215
_cell_length_c 26.584072
_cell_angle_alpha 90.000000
_cell_angle_beta 90.000000
_cell_angle_gamma 90.000000
_cell_volume 5267.837468
_symmetry_space_group_name_H-M "I M M M"
_symmetry_group_IT_number 71
_symmetry_cell_setting 'orthorhombic'
loop_
_space_group_symop_operation_xyz
x,y,z
-x,-y,z
x,-y,-z
-x,y,-z
-x,-y,-z
x,y,-z
-x,y,z
x,-y,z
1/2+x,1/2+y,1/2+z
1/2-x,1/2-y,1/2+z
1/2+x,1/2-y,1/2-z
1/2-x,1/2+y,1/2-z
1/2-x,1/2-y,1/2-z
1/2+x,1/2+y,1/2-z
1/2-x,1/2+y,1/2+z
1/2+x,1/2-y,1/2+z
loop_
_atom_site_type_symbol
_atom_site_label
_atom_site_fract_x
_atom_site_fract_y
_atom_site_fract_z
Si Si1 0.383833 0.893266 0.194543
Si Si2 0.884221 0.271358 0.402247
Si Si3 0.114422 0.106266 0.748676
Si Si4 0.116411 0.608173 0.500000
Si Si5 0.385389 0.204534 0.300522
Si Si6 0.776125 0.889818 0.642265
O O1 0.500000 0.895739 0.192598
O O2 0.355204 0.827469 0.148381
O O3 0.360492 0.851822 0.249119
O O4 0.349206 0.000000 0.189249
O O5 0.856664 0.334011 0.450219
O O6 0.832948 0.170995 0.398660
O O7 0.000000 0.260278 0.402237
O O8 0.141365 0.187690 0.787743
O O9 0.164346 0.118502 0.694754
O O10 0.000000 0.116666 0.740317
O O11 0.133080 0.000000 0.766328
O O12 0.150641 0.500000 0.500000
O O13 0.000000 0.603847 0.500000
O O14 0.500000 0.198412 0.308196
O O15 0.325334 0.158196 0.344927
O O16 0.767297 0.000000 0.630598
#
# Coordination Sequence:
#
# PCOD9519307 Si02
#       6
#    16  16  16   8  16  16
#     4   9  16  26  42  65  94 128 163 196 230 273
#     4  10  19  32  49  71  98 127 159 196 239 293
#     4   9  17  29  44  63  91 128 166 201 236 278
#     4   9  18  34  55  77 102 129 155 193 247 297
#     4  10  19  32  46  65  97 133 170 207 239 275
#     4  11  21  31  46  68  96 132 169 202 240 285
#
# _framework density 16.705147
#
# number of rings (size 3 to 8) (size 9 to 14) (size 15 to 20)
#    0.000    2.273    1.818    2.182    0.000    4.364 
#    0.000    1.364    0.000    1.636    0.000    0.636 
#    0.000    2.182    0.000    0.000    0.000    0.000 
#
# Total GULP energy -245540.164747 kJ/mol
# GULP energy per Si atom -5580.458290 kJ/mol
# Density = 1.666712 g / cm^3
# Si number density = 16.705147 Si / 1000 Ang^3
#
#
#
# Elastic Constant Matrix: (Units=GPa)
#
#
# Indices 1 2 3 4 5 6 
#
# 1 55.9287 31.8036 20.6938 0.0000 0.0000 0.0000
# 2 31.8036 152.6044 35.4391 0.0000 0.0000 0.0000
# 3 20.6938 35.4391 46.8311 0.0000 0.0000 0.0000
# 4 0.0000 0.0000 0.0000 21.3082 0.0000 0.0000
# 5 0.0000 0.0000 0.0000 0.0000 14.9318 0.0000
# 6 0.0000 0.0000 0.0000 0.0000 0.0000 17.1759
#
#
#
# Elastic Compliance Matrix: (Units=1/GPa)
#
#
# Indices 1 2 3 4 5 6 
#
# 1 0.022365 -0.002870 -0.007711 0.000000 0.000000 0.000000
# 2 -0.002870 0.008318 -0.005027 0.000000 0.000000 0.000000
# 3 -0.007711 -0.005027 0.028564 0.000000 0.000000 0.000000
# 4 0.000000 0.000000 0.000000 0.046930 0.000000 0.000000
# 5 0.000000 0.000000 0.000000 0.000000 0.066971 0.000000
# 6 0.000000 0.000000 0.000000 0.000000 0.000000 0.058221
#
#
# Mechanical properties :
#
#
# Convention : Reuss Voigt Hill
#
# Bulk Modulus (GPa) = 35.67247 47.91524 41.79386
# Shear Modulus (GPa) = 18.38714 21.84504 20.11609
#
# Velocity S-wave (km/s) = 3.32126 3.62011 3.47390
# Velocity P-wave (km/s) = 6.00901 6.79844 6.41588
#
# Compressibility (1/GPa) = 0.02803282
#
# Stress axis : x y z
#
# Youngs Moduli (GPa) = 44.71255 120.21542 35.00876
#
# Poissons Ratio (x) = 0.34507 0.26994
# Poissons Ratio (y) = 0.12834 0.17597
# Poissons Ratio (z) = 0.34476 0.60427
#
# Static dielectric constant tensor:
#      x y z
#    x 1.592430 0.000000 0.000000 
#    y 0.000000 1.600850 0.000000 
#    z 0.000000 0.000000 1.526960 
# 
# From -- ./inp_files/39131.got.cif
#   From: 2010.05.17/outbox.cif.g08.bks.cpg/sg71_20_cif.got.tgz:39131.got - 2010.06.03 16:22:01.
