data_PCOD9519354
_publ_section_title
;
Structure prediction by ZEFSAII (Michael W. Deem and Ramdas Pophale) SiO2 
 PCOD9519354
Probable space group: I M M M
;
_chemical_formula_sum "Si O2"
_cell_formula_units_Z 88
_cell_length_a 11.985350
_cell_length_b 16.632064
_cell_length_c 26.576984
_cell_angle_alpha 90.000000
_cell_angle_beta 90.000000
_cell_angle_gamma 90.000000
_cell_volume 5297.885445
_symmetry_space_group_name_H-M "I M M M"
_symmetry_group_IT_number 71
_symmetry_cell_setting 'orthorhombic'
loop_
_space_group_symop_operation_xyz
x,y,z
-x,-y,z
x,-y,-z
-x,y,-z
-x,-y,-z
x,y,-z
-x,y,z
x,-y,z
1/2+x,1/2+y,1/2+z
1/2-x,1/2-y,1/2+z
1/2+x,1/2-y,1/2-z
1/2-x,1/2+y,1/2-z
1/2-x,1/2-y,1/2-z
1/2+x,1/2+y,1/2-z
1/2-x,1/2+y,1/2+z
1/2+x,1/2-y,1/2+z
loop_
_atom_site_type_symbol
_atom_site_label
_atom_site_fract_x
_atom_site_fract_y
_atom_site_fract_z
Si Si1 0.000000 0.401258 0.203964
Si Si2 0.372746 0.500000 0.376028
Si Si3 0.500000 0.902446 0.826275
Si Si4 0.125562 0.169839 0.736567
Si Si5 0.128894 0.000000 0.756240
Si Si6 0.679522 0.228628 0.672270
Si Si7 0.367185 0.906044 0.000000
Si Si8 0.785761 0.649758 0.606091
O O1 0.895293 0.351749 0.178961
O O2 0.000000 0.500000 0.197268
O O3 0.000000 0.385754 0.265375
O O4 0.500000 0.500000 0.394595
O O5 0.374534 0.500000 0.315707
O O6 0.303640 0.578182 0.390396
O O7 0.388806 0.869079 0.854865
O O8 0.500000 0.000000 0.831841
O O9 0.180181 0.081952 0.738115
O O10 0.203748 0.219406 0.701090
O O11 0.121312 0.203767 0.792975
O O12 0.000000 0.168158 0.717204
O O13 0.000000 0.000000 0.739311
O O14 0.717792 0.269055 0.620244
O O15 0.331973 0.858480 0.049930
O O16 0.500000 0.911988 0.000000
O O17 0.325379 0.000000 0.000000
#
# Coordination Sequence:
#
# PCOD9519354 Si02
#       8
#     8   8   8  16   8  16   8  16
#     4  11  26  40  57  84 121 163 205 246 304 365
#     4  11  22  34  52  79 118 165 206 241 294 346
#     4  11  20  35  58  91 123 167 210 239 284 360
#     4  10  19  32  49  77 111 151 196 238 285 344
#     4   9  18  30  48  70 107 155 189 224 280 347
#     4  11  23  34  53  77 116 155 202 249 290 347
#     4  11  22  40  62  90 124 159 205 251 293 349
#     4  12  23  37  59  85 120 164 210 249 296 345
#
# _framework density 16.610399999999998
#
# number of rings (size 3 to 8) (size 9 to 14) (size 15 to 20)
#    0.000    1.182    5.455    2.182    3.818    0.000 
#    0.000    0.909    0.000    0.000    0.000    1.273 
#    0.000    0.727    0.000    0.000    0.000    0.000 
#
# Total GULP energy -244970.192465 kJ/mol
# GULP energy per Si atom -5567.504374 kJ/mol
# Density = 1.657259 g / cm^3
# Si number density = 16.610400 Si / 1000 Ang^3
#
#
#
# Elastic Constant Matrix: (Units=GPa)
#
#
# Indices 1 2 3 4 5 6 
#
# 1 100.1977 37.1012 35.3494 0.0000 0.0000 0.0000
# 2 37.1012 92.0822 45.4615 0.0000 0.0000 0.0000
# 3 35.3494 45.4615 84.2409 0.0000 0.0000 0.0000
# 4 0.0000 0.0000 0.0000-1358.0974 0.0000 0.0000
# 5 0.0000 0.0000 0.0000 0.0000 16.7484 0.0000
# 6 0.0000 0.0000 0.0000 0.0000 0.0000 44.8173
#
#
#
# Elastic Compliance Matrix: (Units=1/GPa)
#
#
# Indices 1 2 3 4 5 6 
#
# 1 0.012414 -0.003313 -0.003422 0.000000 0.000000 0.000000
# 2 -0.003313 0.015688 -0.007076 0.000000 0.000000 0.000000
# 3 -0.003422 -0.007076 0.017125 0.000000 0.000000 0.000000
# 4 0.000000 0.000000 0.000000 -0.000736 0.000000 0.000000
# 5 0.000000 0.000000 0.000000 0.000000 0.059707 0.000000
# 6 0.000000 0.000000 0.000000 0.000000 0.000000 0.022313
#
#
# Mechanical properties :
#
#
# Convention : Reuss Voigt Hill
#
# Bulk Modulus (GPa) = 56.79660 56.92722 56.86191
# Shear Modulus (GPa) = 31.24994 -248.73243 -108.74125
#
# Velocity S-wave (km/s) = 4.34216 -12.25031 -8.09987
# Velocity P-wave (km/s) = 7.70758 12.87428 7.29179
#
# Compressibility (1/GPa) = 0.01760669
#
# Stress axis : x y z
#
# Youngs Moduli (GPa) = 80.55467 63.74263 58.39333
#
# Poissons Ratio (x) = 0.21115 0.19980
# Poissons Ratio (y) = 0.26684 0.41320
# Poissons Ratio (z) = 0.27562 0.45106
#
# Static dielectric constant tensor:
#      x y z
#    x 1.618940 0.000000 0.000000 
#    y 0.000000 1.628340 0.000000 
#    z 0.000000 0.000000 1.542120 
# 
# From -- ./inp_files/64522.got.cif
#   From: 2010.05.17/outbox.cif.g08.bks.cpg/sg71_33_cif.got.tgz:64522.got - 2010.06.03 16:22:01.
