data_PCOD9519464
_publ_section_title
;
Structure prediction by ZEFSAII (Michael W. Deem and Ramdas Pophale) SiO2 
 PCOD9519464
Probable space group: I M M M
;
_chemical_formula_sum "Si O2"
_cell_formula_units_Z 88
_cell_length_a 28.296549
_cell_length_b 12.492232
_cell_length_c 15.832796
_cell_angle_alpha 90.000000
_cell_angle_beta 90.000000
_cell_angle_gamma 90.000000
_cell_volume 5596.688429
_symmetry_space_group_name_H-M "I M M M"
_symmetry_group_IT_number 71
_symmetry_cell_setting 'orthorhombic'
loop_
_space_group_symop_operation_xyz
x,y,z
-x,-y,z
x,-y,-z
-x,y,-z
-x,-y,-z
x,y,-z
-x,y,z
x,-y,z
1/2+x,1/2+y,1/2+z
1/2-x,1/2-y,1/2+z
1/2+x,1/2-y,1/2-z
1/2-x,1/2+y,1/2-z
1/2-x,1/2-y,1/2-z
1/2+x,1/2+y,1/2-z
1/2-x,1/2+y,1/2+z
1/2+x,1/2-y,1/2+z
loop_
_atom_site_type_symbol
_atom_site_label
_atom_site_fract_x
_atom_site_fract_y
_atom_site_fract_z
Si Si1 0.810355 0.250939 0.836356
Si Si2 0.100380 0.627762 0.900345
Si Si3 0.500000 0.870599 0.866906
Si Si4 0.223804 0.873168 0.000000
Si Si5 0.500000 0.869761 0.673992
Si Si6 0.287916 0.372408 0.833519
Si Si7 0.679009 0.747371 0.000000
Si Si8 0.079940 0.370343 0.500000
O O1 0.859422 0.311412 0.849093
O O2 0.800386 0.175312 0.916644
O O3 0.767082 0.335825 0.836347
O O4 0.808246 0.183392 0.750453
O O5 0.104329 0.500000 0.885767
O O6 0.047995 0.662368 0.872648
O O7 0.107270 0.646305 0.000000
O O8 0.500000 0.832415 0.770965
O O9 0.546893 0.841779 0.919613
O O10 0.500000 0.000000 0.865169
O O11 0.278078 0.832922 0.000000
O O12 0.221609 0.000000 0.000000
O O13 0.500000 0.000000 0.674228
O O14 0.291665 0.500000 0.830656
O O15 0.312999 0.324294 0.916545
O O16 0.629091 0.807985 0.000000
O O17 0.087178 0.500000 0.500000
#
# Coordination Sequence:
#
# PCOD9519464 Si02
#       8
#    16  16   8   8   8  16   8   8
#     4  10  20  34  53  77 101 137 177 201 252 308
#     4  10  19  32  51  77 108 135 162 203 252 309
#     4   8  16  30  48  70 101 135 163 201 256 305
#     4  10  19  34  51  75 106 133 167 212 250 294
#     4   9  18  30  48  75 103 132 163 202 253 305
#     4  10  21  36  51  73 106 137 172 217 249 293
#     4  10  21  32  52  78 101 138 174 205 255 304
#     4   9  17  31  48  73 106 134 164 204 251 306
#
# _framework density 15.723584000000001
#
# number of rings (size 3 to 8) (size 9 to 14) (size 15 to 20)
#    0.000    2.364    0.909    2.455    2.545    1.091 
#    0.000    1.818    0.000    0.000    0.000   10.818 
#    0.000    0.000    0.000    0.000    0.000    0.000 
#
# Total GULP energy -245377.103862 kJ/mol
# GULP energy per Si atom -5576.752360 kJ/mol
# Density = 1.568780 g / cm^3
# Si number density = 15.723584 Si / 1000 Ang^3
#
#
#
# Elastic Constant Matrix: (Units=GPa)
#
#
# Indices 1 2 3 4 5 6 
#
# 1 131.1016 60.6741 56.5879 0.0000 0.0000 0.0000
# 2 60.6741 84.6105 53.8790 0.0000 0.0000 0.0000
# 3 56.5879 53.8790 116.0025 0.0000 0.0000 0.0000
# 4 0.0000 0.0000 0.0000 11.5536 0.0000 0.0000
# 5 0.0000 0.0000 0.0000 0.0000 13.9192 0.0000
# 6 0.0000 0.0000 0.0000 0.0000 0.0000 23.4301
#
#
#
# Elastic Compliance Matrix: (Units=1/GPa)
#
#
# Indices 1 2 3 4 5 6 
#
# 1 0.011955 -0.006900 -0.002627 0.000000 0.000000 0.000000
# 2 -0.006900 0.020765 -0.006279 0.000000 0.000000 0.000000
# 3 -0.002627 -0.006279 0.012818 0.000000 0.000000 0.000000
# 4 0.000000 0.000000 0.000000 0.086553 0.000000 0.000000
# 5 0.000000 0.000000 0.000000 0.000000 0.071843 0.000000
# 6 0.000000 0.000000 0.000000 0.000000 0.000000 0.042680
#
#
# Mechanical properties :
#
#
# Convention : Reuss Voigt Hill
#
# Bulk Modulus (GPa) = 71.80401 74.88853 73.34627
# Shear Modulus (GPa) = 17.67605 20.48547 19.08076
#
# Velocity S-wave (km/s) = 3.35651 3.61342 3.48733
# Velocity P-wave (km/s) = 7.79661 8.07097 7.93498
#
# Compressibility (1/GPa) = 0.01392680
#
# Stress axis : x y z
#
# Youngs Moduli (GPa) = 83.64758 48.15779 78.01394
#
# Poissons Ratio (x) = 0.33229 0.20494
# Poissons Ratio (y) = 0.57717 0.48983
# Poissons Ratio (z) = 0.21974 0.30237
#
# Static dielectric constant tensor:
#      x y z
#    x 1.507480 0.000000 0.000000 
#    y 0.000000 1.488130 0.000000 
#    z 0.000000 0.000000 1.532070 
# 
# From -- ./inp_files/40230.got.cif
#   From: 2010.05.17/outbox.cif.g08.bks.cpg/sg71_21_cif.got.tgz:40230.got - 2010.06.03 16:22:01.
