data_PCOD9519688
_publ_section_title
;
Structure prediction by ZEFSAII (Michael W. Deem and Ramdas Pophale) SiO2 
 PCOD9519688
Probable space group: I M M M
;
_chemical_formula_sum "Si O2"
_cell_formula_units_Z 80
_cell_length_a 15.919768
_cell_length_b 29.486989
_cell_length_c 8.888129
_cell_angle_alpha 90.000000
_cell_angle_beta 90.000000
_cell_angle_gamma 90.000000
_cell_volume 4172.319056
_symmetry_space_group_name_H-M "I M M M"
_symmetry_group_IT_number 71
_symmetry_cell_setting 'orthorhombic'
loop_
_space_group_symop_operation_xyz
x,y,z
-x,-y,z
x,-y,-z
-x,y,-z
-x,-y,-z
x,y,-z
-x,y,z
x,-y,z
1/2+x,1/2+y,1/2+z
1/2-x,1/2-y,1/2+z
1/2+x,1/2-y,1/2-z
1/2-x,1/2+y,1/2-z
1/2-x,1/2-y,1/2-z
1/2+x,1/2+y,1/2-z
1/2-x,1/2+y,1/2+z
1/2+x,1/2-y,1/2+z
loop_
_atom_site_type_symbol
_atom_site_label
_atom_site_fract_x
_atom_site_fract_y
_atom_site_fract_z
Si Si1 0.165608 0.300338 0.320646
Si Si2 0.253431 0.552900 0.179803
Si Si3 0.849416 0.800677 0.321777
Si Si4 0.906569 0.108546 0.820679
Si Si5 0.906171 0.602305 0.680446
O O1 0.186478 0.300437 0.500000
O O2 0.125300 0.251320 0.288402
O O3 0.251772 0.304143 0.227680
O O4 0.109676 0.344249 0.290564
O O5 0.258391 0.500000 0.221240
O O6 0.332513 0.579987 0.245688
O O7 0.167934 0.574530 0.242680
O O8 0.254194 0.556863 0.000000
O O9 0.857680 0.808394 0.500000
O O10 0.897419 0.839647 0.233562
O O11 0.000000 0.091837 0.780730
O O12 0.896812 0.106718 0.000000
O O13 0.900499 0.596056 0.500000
O O14 0.000000 0.589354 0.729258
#
# Coordination Sequence:
#
# PCOD9519688 Si02
#       5
#    16  16  16  16  16
#     4   9  18  33  55  85 123 163 201 241 286 342
#     4  11  25  44  65  89 117 150 193 249 309 363
#     4  10  19  32  56  88 122 160 201 243 289 343
#     4  11  24  41  62  89 121 157 199 245 295 357
#     4  10  21  38  62  91 122 159 202 243 288 348
#
# _framework density 19.17399
#
# number of rings (size 3 to 8) (size 9 to 14) (size 15 to 20)
#    0.000    1.800    2.000    1.800    0.000    6.000 
#    0.000    6.000    0.000    0.000    0.000    0.000 
#    0.000    0.000    0.000    0.000    0.000    0.000 
#
# Total GULP energy -223447.596907 kJ/mol
# GULP energy per Si atom -5586.189923 kJ/mol
# Density = 1.913035 g / cm^3
# Si number density = 19.173990 Si / 1000 Ang^3
#
#
#
# Elastic Constant Matrix: (Units=GPa)
#
#
# Indices 1 2 3 4 5 6 
#
# 1 137.7364 73.3003 44.5550 0.0012 -0.0003 -0.0001
# 2 73.3003 117.7651 45.0728 -0.0006 0.0000 -0.0001
# 3 44.5550 45.0728 34.9049 -0.0065 -0.0001 -0.0003
# 4 0.0012 -0.0006 -0.0065 29.3794 0.0006 0.0002
# 5 -0.0003 0.0000 -0.0001 0.0006 7.6688 -0.0005
# 6 -0.0001 -0.0001 -0.0003 0.0002 -0.0005 -4.6960
#
#
#
# Elastic Compliance Matrix: (Units=1/GPa)
#
#
# Indices 1 2 3 4 5 6 
#
# 1 0.013040 -0.003452 -0.012188 -0.000003 0.000000 0.000001
# 2 -0.003452 0.017703 -0.018454 -0.000004 0.000000 0.000001
# 3 -0.012188 -0.018454 0.068036 0.000015 0.000000 -0.000004
# 4 -0.000003 -0.000004 0.000015 0.034038 -0.000003 0.000001
# 5 0.000000 0.000000 0.000000 -0.000003 0.130398 -0.000014
# 6 0.000001 0.000001 -0.000004 0.000001 -0.000014 -0.212947
#
#
# Mechanical properties :
#
#
# Convention : Reuss Voigt Hill
#
# Bulk Modulus (GPa) = 32.68803 68.47362 50.58082
# Shear Modulus (GPa) = 38.86501 14.96897 26.91699
#
# Velocity S-wave (km/s) = 4.50707 2.79712 3.75083
# Velocity P-wave (km/s) = 6.64605 6.79861 6.72276
#
# Compressibility (1/GPa) = 0.03059224
#
# Stress axis : x y z
#
# Youngs Moduli (GPa) = 76.68993 56.48829 14.69814
#
# Poissons Ratio (x) = 0.19497 0.17913
# Poissons Ratio (y) = 0.26470 0.27124
# Poissons Ratio (z) = 0.93466 1.04243
#
# Static dielectric constant tensor:
#      x y z
#    x 1.656230 0.000000 0.000000 
#    y 0.000000 1.667820 0.000000 
#    z 0.000000 0.000000 1.639250 
# 
# From -- ./inp_files/8645.got.cif
#   From: 2010.05.17/outbox.cif.g08.bks.cpg/sg71_5_cif.got.tgz:8645.got - 2010.06.03 16:22:01.
