data_PCOD9519456
_publ_section_title
;
Structure prediction by ZEFSAII (Michael W. Deem and Ramdas Pophale) SiO2 
 PCOD9519456
Probable space group: I M M M
;
_chemical_formula_sum "Si O2"
_cell_formula_units_Z 96
_cell_length_a 24.982880
_cell_length_b 7.588595
_cell_length_c 23.474088
_cell_angle_alpha 90.000000
_cell_angle_beta 90.000000
_cell_angle_gamma 90.000000
_cell_volume 4450.333994
_symmetry_space_group_name_H-M "I M M M"
_symmetry_group_IT_number 71
_symmetry_cell_setting 'orthorhombic'
loop_
_space_group_symop_operation_xyz
x,y,z
-x,-y,z
x,-y,-z
-x,y,-z
-x,-y,-z
x,y,-z
-x,y,z
x,-y,z
1/2+x,1/2+y,1/2+z
1/2-x,1/2-y,1/2+z
1/2+x,1/2-y,1/2-z
1/2-x,1/2+y,1/2-z
1/2-x,1/2-y,1/2-z
1/2+x,1/2+y,1/2-z
1/2-x,1/2+y,1/2+z
1/2+x,1/2-y,1/2+z
loop_
_atom_site_type_symbol
_atom_site_label
_atom_site_fract_x
_atom_site_fract_y
_atom_site_fract_z
Si Si1 0.500000 0.208594 0.209312
Si Si2 0.802721 0.711313 0.900970
Si Si3 0.384755 0.216865 0.172118
Si Si4 0.691259 0.789304 0.273052
Si Si5 0.081083 0.208516 0.938594
Si Si6 0.682065 0.791107 0.937028
Si Si7 0.000000 0.786906 0.843595
O O1 0.445462 0.277107 0.181179
O O2 0.500000 0.229124 0.278015
O O3 0.500000 0.000000 0.198658
O O4 0.801075 0.500000 0.900285
O O5 0.811693 0.780619 0.836882
O O6 0.855444 0.766061 0.934479
O O7 0.745088 0.769601 0.923691
O O8 0.351488 0.276164 0.227499
O O9 0.353941 0.277142 0.115211
O O10 0.383902 0.000000 0.171842
O O11 0.750000 0.750000 0.250000
O O12 0.684470 0.000000 0.276336
O O13 0.050672 0.274513 0.882051
O O14 0.069900 0.000000 0.939544
O O15 0.063038 0.281248 0.000000
O O16 0.671772 0.000000 0.939205
O O17 0.670779 0.717256 0.000000
O O18 0.000000 0.000000 0.840777
#
# Coordination Sequence:
#
# PCOD9519456 Si02
#       7
#     8  16  16  16  16  16   8
#     4  10  20  37  60  81 108 144 173 216 280 335
#     4  11  22  34  52  82 113 142 179 224 274 324
#     4   9  18  34  55  79 107 138 176 218 265 320
#     4  10  19  32  51  76 105 137 174 215 263 316
#     4  10  21  37  56  77 106 148 189 222 262 315
#     4  10  20  35  55  77 105 144 185 222 265 322
#     4  10  21  38  58  81 107 137 181 232 268 309
#
# _framework density 21.571414000000001
#
# number of rings (size 3 to 8) (size 9 to 14) (size 15 to 20)
#    0.000    2.000    1.667    2.250    0.000    6.333 
#    0.000    2.083    0.000    4.000    0.000    0.000 
#    0.000    2.000    0.000    0.000    0.000    0.000 
#
# Total GULP energy -268111.861871 kJ/mol
# GULP energy per Si atom -5585.663789 kJ/mol
# Density = 2.152232 g / cm^3
# Si number density = 21.571414 Si / 1000 Ang^3
#
#
#
# Elastic Constant Matrix: (Units=GPa)
#
#
# Indices 1 2 3 4 5 6 
#
# 1 156.5689 -12.0656 66.7221 0.0000 0.0000 0.0000
# 2 -12.0656 46.2515 -1.9251 0.0000 0.0000 0.0000
# 3 66.7221 -1.9251 154.4155 0.0000 0.0000 0.0000
# 4 0.0000 0.0000 0.0000 14.0636 0.0000 0.0000
# 5 0.0000 0.0000 0.0000 0.0000 38.1494 0.0000
# 6 0.0000 0.0000 0.0000 0.0000 0.0000 6.2935
#
#
#
# Elastic Compliance Matrix: (Units=1/GPa)
#
#
# Indices 1 2 3 4 5 6 
#
# 1 0.007999 0.001944 -0.003432 0.000000 0.000000 0.000000
# 2 0.001944 0.022105 -0.000564 0.000000 0.000000 0.000000
# 3 -0.003432 -0.000564 0.007952 0.000000 0.000000 0.000000
# 4 0.000000 0.000000 0.000000 0.071106 0.000000 0.000000
# 5 0.000000 0.000000 0.000000 0.000000 0.026213 0.000000
# 6 0.000000 0.000000 0.000000 0.000000 0.000000 0.158894
#
#
# Mechanical properties :
#
#
# Convention : Reuss Voigt Hill
#
# Bulk Modulus (GPa) = 29.45452 51.41095 40.43274
# Shear Modulus (GPa) = 16.14511 32.00159 24.07335
#
# Velocity S-wave (km/s) = 2.73875 3.85583 3.34426
# Velocity P-wave (km/s) = 4.86673 6.61119 5.80486
#
# Compressibility (1/GPa) = 0.03395064
#
# Stress axis : x y z
#
# Youngs Moduli (GPa) = 125.00866 45.23951 125.75342
#
# Poissons Ratio (x) = -0.08794 0.43162
# Poissons Ratio (y) = -0.24301 0.07098
# Poissons Ratio (z) = 0.42907 0.02553
#
# Static dielectric constant tensor:
#      x y z
#    x 1.762850 0.000000 0.000000 
#    y 0.000000 1.822400 0.000000 
#    z 0.000000 0.000000 1.778910 
# 
# From -- ./inp_files/61565.got.cif
#   From: 2010.05.17/outbox.cif.g08.bks.cpg/sg71_31_cif.got.tgz:61565.got - 2010.06.03 16:22:01.
