data_PCOD9519766
_publ_section_title
;
Structure prediction by ZEFSAII (Michael W. Deem and Ramdas Pophale) SiO2 
 PCOD9519766
Probable space group: I M M M
;
_chemical_formula_sum "Si O2"
_cell_formula_units_Z 72
_cell_length_a 13.053390
_cell_length_b 19.646156
_cell_length_c 17.231073
_cell_angle_alpha 90.000000
_cell_angle_beta 90.000000
_cell_angle_gamma 90.000000
_cell_volume 4418.890342
_symmetry_space_group_name_H-M "I M M M"
_symmetry_group_IT_number 71
_symmetry_cell_setting 'orthorhombic'
loop_
_space_group_symop_operation_xyz
x,y,z
-x,-y,z
x,-y,-z
-x,y,-z
-x,-y,-z
x,y,-z
-x,y,z
x,-y,z
1/2+x,1/2+y,1/2+z
1/2-x,1/2-y,1/2+z
1/2+x,1/2-y,1/2-z
1/2-x,1/2+y,1/2-z
1/2-x,1/2-y,1/2-z
1/2+x,1/2+y,1/2-z
1/2-x,1/2+y,1/2+z
1/2+x,1/2-y,1/2+z
loop_
_atom_site_type_symbol
_atom_site_label
_atom_site_fract_x
_atom_site_fract_y
_atom_site_fract_z
Si Si1 0.620873 0.368137 0.339420
Si Si2 0.121097 0.500000 0.731489
Si Si3 0.731830 0.500000 0.591388
Si Si4 0.621281 0.500000 0.907161
Si Si5 0.745966 0.386633 0.814646
Si Si6 0.619291 0.219577 0.408190
O O1 0.500000 0.379347 0.328823
O O2 0.668629 0.433039 0.383098
O O3 0.675792 0.361295 0.256264
O O4 0.635555 0.298593 0.386892
O O5 0.166908 0.500000 0.644675
O O6 0.168439 0.564856 0.775778
O O7 0.000000 0.500000 0.732653
O O8 0.750805 0.500000 0.500000
O O9 0.500000 0.500000 0.888860
O O10 0.676569 0.434458 0.869674
O O11 0.633320 0.500000 0.000000
O O12 0.802706 0.327444 0.861127
O O13 0.632508 0.209375 0.500000
O O14 0.500000 0.203386 0.388843
#
# Coordination Sequence:
#
# PCOD9519766 Si02
#       6
#    16   8   8   8  16  16
#     4  10  20  33  51  75 101 130 166 206 247 295
#     4   9  19  33  50  72  96 126 165 204 242 292
#     4  10  20  33  52  76 101 131 165 205 251 294
#     4  10  20  33  51  76 103 132 166 204 248 295
#     4  10  19  33  52  72  99 131 166 203 245 295
#     4  10  20  33  50  73 100 130 164 204 250 295
#
# _framework density 16.293683999999999
#
# number of rings (size 3 to 8) (size 9 to 14) (size 15 to 20)
#    0.000    2.111    0.000    4.333    0.000    2.000 
#    0.000    0.000    0.000    6.667    0.000    0.000 
#    0.000    0.000    0.000    0.000    0.000    0.000 
#
# Total GULP energy -200910.481666 kJ/mol
# GULP energy per Si atom -5580.846713 kJ/mol
# Density = 1.625660 g / cm^3
# Si number density = 16.293684 Si / 1000 Ang^3
#
#
#
# Elastic Constant Matrix: (Units=GPa)
#
#
# Indices 1 2 3 4 5 6 
#
# 1 127.1709 47.6123 61.5106 0.0000 0.0000 0.0000
# 2 47.6123 73.7718 41.5705 0.0000 0.0000 0.0000
# 3 61.5106 41.5705 112.2139 0.0000 0.0000 0.0000
# 4 0.0000 0.0000 0.0000 24.5520 0.0000 0.0000
# 5 0.0000 0.0000 0.0000 0.0000 17.6577 0.0000
# 6 0.0000 0.0000 0.0000 0.0000 0.0000 20.8705
#
#
#
# Elastic Compliance Matrix: (Units=1/GPa)
#
#
# Indices 1 2 3 4 5 6 
#
# 1 0.012063 -0.005131 -0.004712 0.000000 0.000000 0.000000
# 2 -0.005131 0.019314 -0.004343 0.000000 0.000000 0.000000
# 3 -0.004712 -0.004343 0.013103 0.000000 0.000000 0.000000
# 4 0.000000 0.000000 0.000000 0.040730 0.000000 0.000000
# 5 0.000000 0.000000 0.000000 0.000000 0.056633 0.000000
# 6 0.000000 0.000000 0.000000 0.000000 0.000000 0.047915
#
#
# Mechanical properties :
#
#
# Convention : Reuss Voigt Hill
#
# Bulk Modulus (GPa) = 62.07291 68.28260 65.17776
# Shear Modulus (GPa) = 22.37165 23.44692 22.90929
#
# Velocity S-wave (km/s) = 3.70946 3.79756 3.75376
# Velocity P-wave (km/s) = 7.51836 7.82477 7.67309
#
# Compressibility (1/GPa) = 0.01611009
#
# Stress axis : x y z
#
# Youngs Moduli (GPa) = 82.89548 51.77703 76.31750
#
# Poissons Ratio (x) = 0.26564 0.35961
# Poissons Ratio (y) = 0.42530 0.33141
# Poissons Ratio (z) = 0.39060 0.22484
#
# Static dielectric constant tensor:
#      x y z
#    x 1.519060 0.000000 0.000000 
#    y 0.000000 1.527830 0.000000 
#    z 0.000000 0.000000 1.528690 
# 
# From -- ./inp_files/43114.got.cif
#   From: 2010.05.17/outbox.cif.g08.bks.cpg/sg71_22_cif.got.tgz:43114.got - 2010.06.03 16:22:01.
