data_PCOD9519739
_publ_section_title
;
Structure prediction by ZEFSAII (Michael W. Deem and Ramdas Pophale) SiO2 
 PCOD9519739
Probable space group: I M M M
;
_chemical_formula_sum "Si O2"
_cell_formula_units_Z 80
_cell_length_a 20.755551
_cell_length_b 9.542293
_cell_length_c 18.345066
_cell_angle_alpha 90.000000
_cell_angle_beta 90.000000
_cell_angle_gamma 90.000000
_cell_volume 3633.342118
_symmetry_space_group_name_H-M "I M M M"
_symmetry_group_IT_number 71
_symmetry_cell_setting 'orthorhombic'
loop_
_space_group_symop_operation_xyz
x,y,z
-x,-y,z
x,-y,-z
-x,y,-z
-x,-y,-z
x,y,-z
-x,y,z
x,-y,z
1/2+x,1/2+y,1/2+z
1/2-x,1/2-y,1/2+z
1/2+x,1/2-y,1/2-z
1/2-x,1/2+y,1/2-z
1/2-x,1/2-y,1/2-z
1/2+x,1/2+y,1/2-z
1/2-x,1/2+y,1/2+z
1/2+x,1/2-y,1/2+z
loop_
_atom_site_type_symbol
_atom_site_label
_atom_site_fract_x
_atom_site_fract_y
_atom_site_fract_z
Si Si1 0.757930 0.340854 0.000000
Si Si2 0.898811 0.836450 0.500000
Si Si3 0.104792 0.337168 0.643834
Si Si4 0.260210 0.657200 0.637379
Si Si5 0.077193 0.656426 0.916766
Si Si6 0.383408 0.336889 0.282462
O O1 0.679435 0.337850 0.000000
O O2 0.777530 0.265861 0.074414
O O3 0.778061 0.500000 0.000000
O O4 0.916961 0.749967 0.572701
O O5 0.919626 0.000000 0.500000
O O6 0.084415 0.500000 0.641504
O O7 0.183330 0.336587 0.646192
O O8 0.087783 0.255716 0.717619
O O9 0.274960 0.500000 0.610222
O O10 0.305400 0.675327 0.707973
O O11 0.099965 0.500000 0.893464
O O12 0.093529 0.775079 0.858992
O O13 0.000000 0.649609 0.919074
O O14 0.098349 0.682666 0.000000
O O15 0.398804 0.500000 0.271917
#
# Coordination Sequence:
#
# PCOD9519739 Si02
#       6
#     8   8  16  16  16  16
#     4   9  17  27  43  65  90 129 176 215 251 298
#     4   9  17  31  49  69  98 133 172 215 257 299
#     4  10  19  33  51  72 102 143 183 216 255 310
#     4   9  19  32  45  66 102 141 175 215 260 308
#     4   9  20  40  61  79 103 136 176 223 272 323
#     4  11  22  33  50  77 106 135 172 220 270 317
#
# _framework density 22.018295999999999
#
# number of rings (size 3 to 8) (size 9 to 14) (size 15 to 20)
#    0.000    2.400    0.000    3.000    1.400    5.600 
#    0.000    1.000    0.000    0.000    0.000    0.700 
#    0.000    5.600    0.000    0.000    0.000    0.000 
#
# Total GULP energy -223383.853320 kJ/mol
# GULP energy per Si atom -5584.596333 kJ/mol
# Density = 2.196818 g / cm^3
# Si number density = 22.018296 Si / 1000 Ang^3
#
#
#
# Elastic Constant Matrix: (Units=GPa)
#
#
# Indices 1 2 3 4 5 6 
#
# 1 40.6706 7.4749 -2.0706 0.0000 0.0000 0.0000
# 2 7.4749 196.9798 103.6032 0.0000 0.0000 0.0000
# 3 -2.0706 103.6032 125.7402 0.0000 0.0000 0.0000
# 4 0.0000 0.0000 0.0000 42.1872 0.0000 0.0000
# 5 0.0000 0.0000 0.0000 0.0000 7.6277 0.0000
# 6 0.0000 0.0000 0.0000 0.0000 0.0000 8.0158
#
#
#
# Elastic Compliance Matrix: (Units=1/GPa)
#
#
# Indices 1 2 3 4 5 6 
#
# 1 0.025074 -0.002063 0.002112 0.000000 0.000000 0.000000
# 2 -0.002063 0.009129 -0.007556 0.000000 0.000000 0.000000
# 3 0.002112 -0.007556 0.014213 0.000000 0.000000 0.000000
# 4 0.000000 0.000000 0.000000 0.023704 0.000000 0.000000
# 5 0.000000 0.000000 0.000000 0.000000 0.131101 0.000000
# 6 0.000000 0.000000 0.000000 0.000000 0.000000 0.124754
#
#
# Mechanical properties :
#
#
# Convention : Reuss Voigt Hill
#
# Bulk Modulus (GPa) = 29.93588 64.60062 47.26825
# Shear Modulus (GPa) = 14.11941 28.52500 21.32221
#
# Velocity S-wave (km/s) = 2.53505 3.60323 3.11527
# Velocity P-wave (km/s) = 4.71106 6.83478 5.86977
#
# Compressibility (1/GPa) = 0.03340473
#
# Stress axis : x y z
#
# Youngs Moduli (GPa) = 39.88128 109.54193 70.35714
#
# Poissons Ratio (x) = 0.22593 -0.14862
# Poissons Ratio (y) = 0.08226 0.53160
# Poissons Ratio (z) = -0.08424 0.82767
#
# Static dielectric constant tensor:
#      x y z
#    x 1.879830 0.000000 0.000000 
#    y 0.000000 1.761650 0.000000 
#    z 0.000000 0.000000 1.764990 
# 
# From -- ./inp_files/14577.got.cif
#   From: 2010.05.17/outbox.cif.g08.bks.cpg/sg71_8_cif.got.tgz:14577.got - 2010.06.03 16:22:01.
