data_PCOD9519153
_publ_section_title
;
Structure prediction by ZEFSAII (Michael W. Deem and Ramdas Pophale) SiO2 
 PCOD9519153
Probable space group: I M M M
;
_chemical_formula_sum "Si O2"
_cell_formula_units_Z 64
_cell_length_a 7.375155
_cell_length_b 18.368573
_cell_length_c 22.606649
_cell_angle_alpha 90.000000
_cell_angle_beta 90.000000
_cell_angle_gamma 90.000000
_cell_volume 3062.546997
_symmetry_space_group_name_H-M "I M M M"
_symmetry_group_IT_number 71
_symmetry_cell_setting 'orthorhombic'
loop_
_space_group_symop_operation_xyz
x,y,z
-x,-y,z
x,-y,-z
-x,y,-z
-x,-y,-z
x,y,-z
-x,y,z
x,-y,z
1/2+x,1/2+y,1/2+z
1/2-x,1/2-y,1/2+z
1/2+x,1/2-y,1/2-z
1/2-x,1/2+y,1/2-z
1/2-x,1/2-y,1/2-z
1/2+x,1/2+y,1/2-z
1/2-x,1/2+y,1/2+z
1/2+x,1/2-y,1/2+z
loop_
_atom_site_type_symbol
_atom_site_label
_atom_site_fract_x
_atom_site_fract_y
_atom_site_fract_z
Si Si1 0.277673 0.584081 0.000000
Si Si2 0.781240 0.417691 0.760828
Si Si3 0.706800 0.818239 0.156597
Si Si4 0.500000 0.913780 0.070270
Si Si5 0.785513 0.163444 0.381974
O O1 0.215407 0.625844 0.058755
O O2 0.221044 0.500000 0.000000
O O3 0.500000 0.583289 0.000000
O O4 0.715690 0.500000 0.752166
O O5 0.710912 0.361646 0.711356
O O6 0.738487 0.388671 0.825849
O O7 0.000000 0.419893 0.754393
O O8 0.500000 0.798393 0.176767
O O9 0.669197 0.874034 0.102501
O O10 0.790245 0.742916 0.134926
O O11 0.500000 0.000000 0.082658
O O12 0.500000 0.902374 0.000000
O O13 0.000000 0.174029 0.392894
#
# Coordination Sequence:
#
# PCOD9519153 Si02
#       5
#     8  16  16   8  16
#     4   9  18  30  45  67  95 123 155 196 246 286
#     4  10  19  32  48  67  97 131 160 195 245 293
#     4   8  17  28  46  67  96 124 156 190 243 284
#     4   9  16  26  46  74 102 129 159 195 238 292
#     4  10  19  31  50  71  94 125 163 205 240 286
#
# _framework density 20.897639999999999
#
# number of rings (size 3 to 8) (size 9 to 14) (size 15 to 20)
#    0.750    2.000    0.000    2.250    1.750    1.500 
#    0.000    0.625    0.000    2.250    0.000    0.000 
#    0.000    0.000    0.000    8.000    0.000    0.000 
#
# Total GULP energy -178407.089433 kJ/mol
# GULP energy per Si atom -5575.221545 kJ/mol
# Density = 2.085008 g / cm^3
# Si number density = 20.897640 Si / 1000 Ang^3
#
#
#
# Elastic Constant Matrix: (Units=GPa)
#
#
# Indices 1 2 3 4 5 6 
#
# 1 65.1475 7.4852 3.4979 0.0000 0.0000 0.0000
# 2 7.4852 198.2864 117.1817 0.0000 0.0000 0.0000
# 3 3.4979 117.1817 190.1362 0.0000 0.0000 0.0000
# 4 0.0000 0.0000 0.0000 88.7092 0.0000 0.0000
# 5 0.0000 0.0000 0.0000 0.0000 4.8620 0.0000
# 6 0.0000 0.0000 0.0000 0.0000 0.0000 2.2762
#
#
#
# Elastic Compliance Matrix: (Units=1/GPa)
#
#
# Indices 1 2 3 4 5 6 
#
# 1 0.015418 -0.000652 0.000118 0.000000 0.000000 0.000000
# 2 -0.000652 0.007960 -0.004894 0.000000 0.000000 0.000000
# 3 0.000118 -0.004894 0.008273 0.000000 0.000000 0.000000
# 4 0.000000 0.000000 0.000000 0.011273 0.000000 0.000000
# 5 0.000000 0.000000 0.000000 0.000000 0.205675 0.000000
# 6 0.000000 0.000000 0.000000 0.000000 0.000000 0.439325
#
#
# Mechanical properties :
#
#
# Convention : Reuss Voigt Hill
#
# Bulk Modulus (GPa) = 48.08495 78.87773 63.48134
# Shear Modulus (GPa) = 7.08505 40.86319 23.97412
#
# Velocity S-wave (km/s) = 1.84329 4.42678 3.39073
# Velocity P-wave (km/s) = 5.25262 7.99721 6.76555
#
# Compressibility (1/GPa) = 0.02079653
#
# Stress axis : x y z
#
# Youngs Moduli (GPa) = 64.85787 125.63046 120.87192
#
# Poissons Ratio (x) = 0.08189 -0.01427
# Poissons Ratio (y) = 0.04227 0.59151
# Poissons Ratio (z) = -0.00766 0.61480
#
# Static dielectric constant tensor:
#      x y z
#    x 1.811630 0.000000 0.000000 
#    y 0.000000 1.747110 0.000000 
#    z 0.000000 0.000000 1.712050 
# 
# From -- ./inp_files/50162.got.cif
#   From: 2010.05.17/outbox.cif.g08.bks.cpg/sg71_26_cif.got.tgz:50162.got - 2010.06.03 16:22:01.
