data_PCOD9519339
_publ_section_title
;
Structure prediction by ZEFSAII (Michael W. Deem and Ramdas Pophale) SiO2 
 PCOD9519339
Probable space group: I M M M
;
_chemical_formula_sum "Si O2"
_cell_formula_units_Z 112
_cell_length_a 16.096830
_cell_length_b 26.595307
_cell_length_c 14.045365
_cell_angle_alpha 90.000000
_cell_angle_beta 90.000000
_cell_angle_gamma 90.000000
_cell_volume 6012.822661
_symmetry_space_group_name_H-M "I M M M"
_symmetry_group_IT_number 71
_symmetry_cell_setting 'orthorhombic'
loop_
_space_group_symop_operation_xyz
x,y,z
-x,-y,z
x,-y,-z
-x,y,-z
-x,-y,-z
x,y,-z
-x,y,z
x,-y,z
1/2+x,1/2+y,1/2+z
1/2-x,1/2-y,1/2+z
1/2+x,1/2-y,1/2-z
1/2-x,1/2+y,1/2-z
1/2-x,1/2-y,1/2-z
1/2+x,1/2+y,1/2-z
1/2-x,1/2+y,1/2+z
1/2+x,1/2-y,1/2+z
loop_
_atom_site_type_symbol
_atom_site_label
_atom_site_fract_x
_atom_site_fract_y
_atom_site_fract_z
Si Si1 0.695930 0.860988 0.242535
Si Si2 0.908748 0.939842 0.705690
Si Si3 0.408484 0.276037 0.363731
Si Si4 0.843577 0.112556 0.109525
Si Si5 0.591828 0.225553 0.163446
Si Si6 0.735278 0.940017 0.388524
Si Si7 0.755293 0.213401 0.600605
O O1 0.751835 0.878734 0.153979
O O2 0.618296 0.828749 0.205444
O O3 0.680921 0.906856 0.315430
O O4 0.749776 0.821839 0.307062
O O5 0.888310 0.922690 0.813130
O O6 0.830782 0.925667 0.639177
O O7 0.000000 0.920000 0.677382
O O8 0.912016 0.000000 0.702597
O O9 0.500000 0.261874 0.399086
O O10 0.389317 0.333654 0.385923
O O11 0.411359 0.264201 0.251752
O O12 0.331450 0.243289 0.399166
O O13 0.842301 0.095264 0.000000
O O14 0.500000 0.223999 0.119587
O O15 0.669847 0.246935 0.105981
O O16 0.718839 0.931286 0.500000
O O17 0.726234 0.000000 0.371150
O O18 0.762598 0.185159 0.500000
#
# Coordination Sequence:
#
# PCOD9519339 Si02
#       7
#    16  16  16  16  16  16  16
#     4  10  19  36  53  75 105 137 172 220 265 313
#     4   9  19  33  47  69 103 136 170 215 258 301
#     4  10  19  32  49  71 101 134 170 210 251 303
#     4  11  20  31  50  70  95 134 178 215 253 302
#     4  10  20  35  53  73 100 137 176 218 264 313
#     4   9  18  33  55  80 104 137 177 213 260 319
#     4  11  20  33  52  76 105 139 175 216 264 313
#
# _framework density 18.626859
#
# number of rings (size 3 to 8) (size 9 to 14) (size 15 to 20)
#    0.000    2.000    2.857    2.143    0.000    2.857 
#    0.000    2.143    0.000    3.429    0.000    1.000 
#    0.000    0.000    0.000    8.429    0.000    0.000 
#
# Total GULP energy -312041.080646 kJ/mol
# GULP energy per Si atom -5572.162154 kJ/mol
# Density = 1.858446 g / cm^3
# Si number density = 18.626859 Si / 1000 Ang^3
#
#
#
# Elastic Constant Matrix: (Units=GPa)
#
#
# Indices 1 2 3 4 5 6 
#
# 1 83.9371 18.6254 12.7030 0.0000 0.0000 0.0000
# 2 18.6254 44.0689 1.1023 0.0000 0.0000 0.0000
# 3 12.7030 1.1023 68.5743 0.0000 0.0000 0.0000
# 4 0.0000 0.0000 0.0000 12.0359 0.0000 0.0000
# 5 0.0000 0.0000 0.0000 0.0000 -41.8944 0.0000
# 6 0.0000 0.0000 0.0000 0.0000 0.0000 15.4232
#
#
#
# Elastic Compliance Matrix: (Units=1/GPa)
#
#
# Indices 1 2 3 4 5 6 
#
# 1 0.013535 -0.005660 -0.002416 0.000000 0.000000 0.000000
# 2 -0.005660 0.025068 0.000646 0.000000 0.000000 0.000000
# 3 -0.002416 0.000646 0.015020 0.000000 0.000000 0.000000
# 4 0.000000 0.000000 0.000000 0.083085 0.000000 0.000000
# 5 0.000000 0.000000 0.000000 0.000000 -0.023870 0.000000
# 6 0.000000 0.000000 0.000000 0.000000 0.000000 0.064838
#
#
# Mechanical properties :
#
#
# Convention : Reuss Voigt Hill
#
# Bulk Modulus (GPa) = 25.79900 29.04908 27.42404
# Shear Modulus (GPa) = 24.33581 8.05623 16.19602
#
# Velocity S-wave (km/s) = 3.61846 2.08193 2.95192
# Velocity P-wave (km/s) = 5.59805 4.62692 5.13549
#
# Compressibility (1/GPa) = 0.03876119
#
# Stress axis : x y z
#
# Youngs Moduli (GPa) = 73.88062 39.89176 66.57804
#
# Poissons Ratio (x) = 0.22579 0.16088
# Poissons Ratio (y) = 0.41818 -0.04298
# Poissons Ratio (z) = 0.17852 -0.02575
#
# Static dielectric constant tensor:
#      x y z
#    x 1.668340 0.000000 0.000000 
#    y 0.000000 1.647850 0.000000 
#    z 0.000000 0.000000 1.674420 
# 
# From -- ./inp_files/35141.got.cif
#   From: 2010.05.17/outbox.cif.g08.bks.cpg/sg71_18_cif.got.tgz:35141.got - 2010.06.03 16:22:01.
