data_PCOD9519226
_publ_section_title
;
Structure prediction by ZEFSAII (Michael W. Deem and Ramdas Pophale) SiO2 
 PCOD9519226
Probable space group: I M M M
;
_chemical_formula_sum "Si O2"
_cell_formula_units_Z 104
_cell_length_a 7.454577
_cell_length_b 23.741432
_cell_length_c 27.292122
_cell_angle_alpha 90.000000
_cell_angle_beta 90.000000
_cell_angle_gamma 90.000000
_cell_volume 4830.223422
_symmetry_space_group_name_H-M "I M M M"
_symmetry_group_IT_number 71
_symmetry_cell_setting 'orthorhombic'
loop_
_space_group_symop_operation_xyz
x,y,z
-x,-y,z
x,-y,-z
-x,y,-z
-x,-y,-z
x,y,-z
-x,y,z
x,-y,z
1/2+x,1/2+y,1/2+z
1/2-x,1/2-y,1/2+z
1/2+x,1/2-y,1/2-z
1/2-x,1/2+y,1/2-z
1/2-x,1/2-y,1/2-z
1/2+x,1/2+y,1/2-z
1/2-x,1/2+y,1/2+z
1/2+x,1/2-y,1/2+z
loop_
_atom_site_type_symbol
_atom_site_label
_atom_site_fract_x
_atom_site_fract_y
_atom_site_fract_z
Si Si1 0.781323 0.562860 0.326606
Si Si2 0.207686 0.266149 0.055376
Si Si3 0.700565 0.850152 0.635038
Si Si4 0.284166 0.565749 0.053863
Si Si5 0.718941 0.936560 0.712624
Si Si6 0.783923 0.064519 0.000000
Si Si7 0.706995 0.856515 0.090264
O O1 0.724841 0.500000 0.343147
O O2 0.732104 0.569014 0.269699
O O3 0.717049 0.612779 0.361615
O O4 0.000000 0.563329 0.328692
O O5 0.287153 0.301595 0.101050
O O6 0.209215 0.200759 0.070206
O O7 0.000000 0.284590 0.052612
O O8 0.284017 0.272712 0.000000
O O9 0.500000 0.830701 0.649662
O O10 0.691701 0.900866 0.596321
O O11 0.783843 0.882950 0.681329
O O12 0.500000 0.571329 0.058669
O O13 0.241919 0.500000 0.055947
O O14 0.234201 0.587409 0.000000
O O15 0.500000 0.936128 0.709577
O O16 0.775243 0.000000 0.696005
O O17 0.717854 0.097329 0.952401
O O18 0.000000 0.066420 0.000000
O O19 0.725656 0.000000 0.000000
O O20 0.500000 0.842289 0.099920
#
# Coordination Sequence:
#
# PCOD9519226 Si02
#       7
#    16  16  16  16  16   8  16
#     4   8  15  29  50  77 107 133 159 205 265 311
#     4  10  21  36  50  67 102 145 177 214 268 314
#     4  10  19  31  51  76  97 129 179 221 252 301
#     4   9  18  31  45  65  97 133 164 205 268 325
#     4   8  14  27  49  77 106 132 163 211 268 313
#     4  11  23  37  55  81 113 141 162 199 264 325
#     4  11  21  34  55  80 103 134 180 220 248 298
#
# _framework density 21.531094
#
# number of rings (size 3 to 8) (size 9 to 14) (size 15 to 20)
#    0.000    2.538    0.769    3.462    0.000    3.692 
#    0.000    1.538    0.000    1.846    0.000    6.462 
#    0.000    0.000    0.000    0.000    0.000    0.000 
#
# Total GULP energy -290077.682547 kJ/mol
# GULP energy per Si atom -5578.416972 kJ/mol
# Density = 2.148209 g / cm^3
# Si number density = 21.531094 Si / 1000 Ang^3
#
#
#
# Elastic Constant Matrix: (Units=GPa)
#
#
# Indices 1 2 3 4 5 6 
#
# 1 62.8371 -0.6904 -3.6598 0.0000 0.0000 0.0000
# 2 -0.6904 125.0727 63.5104 0.0000 0.0000 0.0000
# 3 -3.6598 63.5104 103.0026 0.0000 0.0000 0.0000
# 4 0.0000 0.0000 0.0000 17.0434 0.0000 0.0000
# 5 0.0000 0.0000 0.0000 0.0000 -34.9244 0.0000
# 6 0.0000 0.0000 0.0000 0.0000 0.0000 28.5310
#
#
#
# Elastic Compliance Matrix: (Units=1/GPa)
#
#
# Indices 1 2 3 4 5 6 
#
# 1 0.015954 -0.000291 0.000746 0.000000 0.000000 0.000000
# 2 -0.000291 0.011645 -0.007191 0.000000 0.000000 0.000000
# 3 0.000746 -0.007191 0.014169 0.000000 0.000000 0.000000
# 4 0.000000 0.000000 0.000000 0.058674 0.000000 0.000000
# 5 0.000000 0.000000 0.000000 0.000000 -0.028633 0.000000
# 6 0.000000 0.000000 0.000000 0.000000 0.000000 0.035050
#
#
# Mechanical properties :
#
#
# Convention : Reuss Voigt Hill
#
# Bulk Modulus (GPa) = 35.33851 45.47029 40.40440
# Shear Modulus (GPa) = 38.53240 17.58015 28.05628
#
# Velocity S-wave (km/s) = 4.23498 2.86055 3.61371
# Velocity P-wave (km/s) = 6.35309 5.66344 6.01815
#
# Compressibility (1/GPa) = 0.02829774
#
# Stress axis : x y z
#
# Youngs Moduli (GPa) = 62.67849 85.87371 70.57847
#
# Poissons Ratio (x) = 0.02498 -0.05267
# Poissons Ratio (y) = 0.01823 0.50750
# Poissons Ratio (z) = -0.04677 0.61748
#
# Static dielectric constant tensor:
#      x y z
#    x 1.861190 0.000000 0.000000 
#    y 0.000000 1.771960 0.000000 
#    z 0.000000 0.000000 1.787620 
# 
# From -- ./inp_files/63575.got.cif
#   From: 2010.05.17/outbox.cif.g08.bks.cpg/sg71_32_cif.got.tgz:63575.got - 2010.06.03 16:22:01.
