data_PCOD9519550
_publ_section_title
;
Structure prediction by ZEFSAII (Michael W. Deem and Ramdas Pophale) SiO2 
 PCOD9519550
Probable space group: I M M M
;
_chemical_formula_sum "Si O2"
_cell_formula_units_Z 104
_cell_length_a 15.386828
_cell_length_b 14.221389
_cell_length_c 23.128351
_cell_angle_alpha 90.000000
_cell_angle_beta 90.000000
_cell_angle_gamma 90.000000
_cell_volume 5060.993560
_symmetry_space_group_name_H-M "I M M M"
_symmetry_group_IT_number 71
_symmetry_cell_setting 'orthorhombic'
loop_
_space_group_symop_operation_xyz
x,y,z
-x,-y,z
x,-y,-z
-x,y,-z
-x,-y,-z
x,y,-z
-x,y,z
x,-y,z
1/2+x,1/2+y,1/2+z
1/2-x,1/2-y,1/2+z
1/2+x,1/2-y,1/2-z
1/2-x,1/2+y,1/2-z
1/2-x,1/2-y,1/2-z
1/2+x,1/2+y,1/2-z
1/2-x,1/2+y,1/2+z
1/2+x,1/2-y,1/2+z
loop_
_atom_site_type_symbol
_atom_site_label
_atom_site_fract_x
_atom_site_fract_y
_atom_site_fract_z
Si Si1 0.638155 0.394436 0.775310
Si Si2 0.092944 0.694185 0.301056
Si Si3 0.397215 0.886077 0.436657
Si Si4 0.218895 0.386289 0.607180
Si Si5 0.096114 0.111585 0.138782
Si Si6 0.160556 0.390564 0.188539
Si Si7 0.600300 0.885385 0.000000
O O1 0.609620 0.500000 0.791342
O O2 0.595623 0.306270 0.806590
O O3 0.619075 0.383108 0.706990
O O4 0.740099 0.386749 0.790206
O O5 0.172699 0.649278 0.334968
O O6 0.105078 0.668543 0.233885
O O7 0.000000 0.656617 0.322010
O O8 0.367012 0.850975 0.500000
O O9 0.500000 0.865805 0.431608
O O10 0.350624 0.857362 0.377326
O O11 0.388970 0.000000 0.438304
O O12 0.219982 0.500000 0.608476
O O13 0.318951 0.353981 0.604640
O O14 0.156192 0.355665 0.555461
O O15 0.000000 0.152429 0.127837
O O16 0.090311 0.000000 0.126003
O O17 0.132561 0.500000 0.191739
O O18 0.500000 0.853618 0.000000
O O19 0.598377 0.000000 0.000000
#
# Coordination Sequence:
#
# PCOD9519550 Si02
#       7
#    16  16  16  16  16  16   8
#     4  10  21  38  55  75 109 149 191 237 283 338
#     4  12  23  33  54  85 115 147 184 235 291 340
#     4   8  14  26  46  74 110 150 184 212 257 331
#     4  10  20  35  56  86 118 149 187 234 284 345
#     4   9  17  32  54  78 109 150 189 229 279 331
#     4  10  19  32  52  80 115 148 181 228 280 336
#     4   9  18  34  55  79 116 162 195 222 273 349
#
# _framework density 20.549323999999999
#
# number of rings (size 3 to 8) (size 9 to 14) (size 15 to 20)
#    0.000    2.231    1.538    2.769    0.000    3.385 
#    0.000    0.385    1.692    2.308    0.000    0.000 
#    0.000    1.846    0.000    0.615    0.000    0.154 
#
# Total GULP energy -290194.282951 kJ/mol
# GULP energy per Si atom -5580.659288 kJ/mol
# Density = 2.050255 g / cm^3
# Si number density = 20.549324 Si / 1000 Ang^3
#
#
#
# Elastic Constant Matrix: (Units=GPa)
#
#
# Indices 1 2 3 4 5 6 
#
# 1 164.6974 19.2253 57.8776 0.0000 0.0000 0.0000
# 2 19.2253 63.4165 13.9923 0.0000 0.0000 0.0000
# 3 57.8776 13.9923 109.5021 0.0000 0.0000 0.0000
# 4 0.0000 0.0000 0.0000 0.8390 0.0000 0.0000
# 5 0.0000 0.0000 0.0000 0.0000 22.6223 0.0000
# 6 0.0000 0.0000 0.0000 0.0000 0.0000 2.6709
#
#
#
# Elastic Compliance Matrix: (Units=1/GPa)
#
#
# Indices 1 2 3 4 5 6 
#
# 1 0.007585 -0.001456 -0.003823 0.000000 0.000000 0.000000
# 2 -0.001456 0.016506 -0.001340 0.000000 0.000000 0.000000
# 3 -0.003823 -0.001340 0.011324 0.000000 0.000000 0.000000
# 4 0.000000 0.000000 0.000000 1.191952 0.000000 0.000000
# 5 0.000000 0.000000 0.000000 0.000000 0.044204 0.000000
# 6 0.000000 0.000000 0.000000 0.000000 0.000000 0.374402
#
#
# Mechanical properties :
#
#
# Convention : Reuss Voigt Hill
#
# Bulk Modulus (GPa) = 45.09026 57.75625 51.42325
# Shear Modulus (GPa) = 3.00011 21.66115 12.33063
#
# Velocity S-wave (km/s) = 1.20960 3.25022 2.45225
# Velocity P-wave (km/s) = 4.89295 6.50019 5.75297
#
# Compressibility (1/GPa) = 0.02217774
#
# Stress axis : x y z
#
# Youngs Moduli (GPa) = 131.83539 60.58504 88.30687
#
# Poissons Ratio (x) = 0.08821 0.33761
# Poissons Ratio (y) = 0.19195 0.11829
# Poissons Ratio (z) = 0.50402 0.08116
#
# Static dielectric constant tensor:
#      x y z
#    x 1.777490 0.000000 0.000000 
#    y 0.000000 1.744120 0.000000 
#    z 0.000000 0.000000 1.737420 
# 
# From -- ./inp_files/59906.got.cif
#   From: 2010.05.17/outbox.cif.g08.bks.cpg/sg71_30_cif.got.tgz:59906.got - 2010.06.03 16:22:01.
