data_PCOD9519342
_publ_section_title
;
Structure prediction by ZEFSAII (Michael W. Deem and Ramdas Pophale) SiO2 
 PCOD9519342
Probable space group: I M M M
;
_chemical_formula_sum "Si O2"
_cell_formula_units_Z 88
_cell_length_a 7.380743
_cell_length_b 19.746224
_cell_length_c 28.386980
_cell_angle_alpha 90.000000
_cell_angle_beta 90.000000
_cell_angle_gamma 90.000000
_cell_volume 4137.169691
_symmetry_space_group_name_H-M "I M M M"
_symmetry_group_IT_number 71
_symmetry_cell_setting 'orthorhombic'
loop_
_space_group_symop_operation_xyz
x,y,z
-x,-y,z
x,-y,-z
-x,y,-z
-x,-y,-z
x,y,-z
-x,y,z
x,-y,z
1/2+x,1/2+y,1/2+z
1/2-x,1/2-y,1/2+z
1/2+x,1/2-y,1/2-z
1/2-x,1/2+y,1/2-z
1/2-x,1/2-y,1/2-z
1/2+x,1/2+y,1/2-z
1/2-x,1/2+y,1/2+z
1/2+x,1/2-y,1/2+z
loop_
_atom_site_type_symbol
_atom_site_label
_atom_site_fract_x
_atom_site_fract_y
_atom_site_fract_z
Si Si1 0.220696 0.424944 0.054320
Si Si2 0.218801 0.303117 0.880280
Si Si3 0.278286 0.921797 0.193158
Si Si4 0.778459 0.420829 0.500000
Si Si5 0.715938 0.178086 0.274169
Si Si6 0.786327 0.647711 0.403284
O O1 0.276074 0.500000 0.070842
O O2 0.283084 0.362753 0.085673
O O3 0.000000 0.424254 0.054903
O O4 0.275585 0.417248 0.000000
O O5 0.286080 0.317048 0.827343
O O6 0.265351 0.228297 0.898377
O O7 0.000000 0.305479 0.879198
O O8 0.500000 0.919354 0.193165
O O9 0.216040 0.879632 0.238709
O O10 0.215398 0.886828 0.144612
O O11 0.225413 0.000000 0.194811
O O12 0.727240 0.500000 0.500000
O O13 0.715905 0.383242 0.547721
O O14 0.000000 0.418723 0.500000
O O15 0.500000 0.167993 0.277781
O O16 0.750000 0.250000 0.250000
O O17 0.000000 0.632705 0.403614
#
# Coordination Sequence:
#
# PCOD9519342 Si02
#       6
#    16  16  16   8  16  16
#     4   8  15  29  48  70  97 128 160 195 238 285
#     4  10  20  31  49  76 102 128 160 202 245 288
#     4   9  17  30  50  73  95 125 165 202 237 282
#     4   9  18  32  51  75 100 127 166 212 247 281
#     4  10  19  32  49  71  99 128 159 198 242 285
#     4  10  19  32  51  74 100 131 163 199 244 292
#
# _framework density 21.270579000000001
#
# number of rings (size 3 to 8) (size 9 to 14) (size 15 to 20)
#    0.000    2.636    1.818    1.091    1.273    2.909 
#    0.000    3.636    0.000    4.909    0.000    3.818 
#    0.000    0.000    0.000    0.000    0.000    0.000 
#
# Total GULP energy -245717.932764 kJ/mol
# GULP energy per Si atom -5584.498472 kJ/mol
# Density = 2.122217 g / cm^3
# Si number density = 21.270579 Si / 1000 Ang^3
#
#
#
# Elastic Constant Matrix: (Units=GPa)
#
#
# Indices 1 2 3 4 5 6 
#
# 1 72.9532 -10.7127 2.9983 0.0000 0.0000 0.0000
# 2 -10.7127 220.7775 139.9386 0.0000 0.0000 0.0000
# 3 2.9983 139.9386 191.8971 0.0000 0.0000 0.0000
# 4 0.0000 0.0000 0.0000 44.6903 0.0000 0.0000
# 5 0.0000 0.0000 0.0000 0.0000 -6.2240 0.0000
# 6 0.0000 0.0000 0.0000 0.0000 0.0000 25.3373
#
#
#
# Elastic Compliance Matrix: (Units=1/GPa)
#
#
# Indices 1 2 3 4 5 6 
#
# 1 0.013985 0.001519 -0.001327 0.000000 0.000000 0.000000
# 2 0.001519 0.008588 -0.006286 0.000000 0.000000 0.000000
# 3 -0.001327 -0.006286 0.009816 0.000000 0.000000 0.000000
# 4 0.000000 0.000000 0.000000 0.022376 0.000000 0.000000
# 5 0.000000 0.000000 0.000000 0.000000 -0.160668 0.000000
# 6 0.000000 0.000000 0.000000 0.000000 0.000000 0.039468
#
#
# Mechanical properties :
#
#
# Convention : Reuss Voigt Hill
#
# Bulk Modulus (GPa) = 49.49987 83.34182 66.42085
# Shear Modulus (GPa) = -105.23066 36.32094 -34.45486
#
# Velocity S-wave (km/s) = -7.04129 4.13676 -4.02909
# Velocity P-wave (km/s) = 6.54098 7.87933 3.10640
#
# Compressibility (1/GPa) = 0.02020207
#
# Stress axis : x y z
#
# Youngs Moduli (GPa) = 71.50494 116.44666 101.87492
#
# Poissons Ratio (x) = -0.17693 0.13514
# Poissons Ratio (y) = -0.10864 0.64040
# Poissons Ratio (z) = 0.09485 0.73200
#
# Static dielectric constant tensor:
#      x y z
#    x 1.846340 0.000000 0.000000 
#    y 0.000000 1.703860 0.000000 
#    z 0.000000 0.000000 1.765840 
# 
# From -- ./inp_files/8724.got.cif
#   From: 2010.05.17/outbox.cif.g08.bks.cpg/sg71_5_cif.got.tgz:8724.got - 2010.06.03 16:22:01.
