data_PCOD9519417
_publ_section_title
;
Structure prediction by ZEFSAII (Michael W. Deem and Ramdas Pophale) SiO2 
 PCOD9519417
Probable space group: I M M M
;
_chemical_formula_sum "Si O2"
_cell_formula_units_Z 96
_cell_length_a 23.145503
_cell_length_b 22.157681
_cell_length_c 8.938806
_cell_angle_alpha 90.000000
_cell_angle_beta 90.000000
_cell_angle_gamma 90.000000
_cell_volume 4584.272665
_symmetry_space_group_name_H-M "I M M M"
_symmetry_group_IT_number 71
_symmetry_cell_setting 'orthorhombic'
loop_
_space_group_symop_operation_xyz
x,y,z
-x,-y,z
x,-y,-z
-x,y,-z
-x,-y,-z
x,y,-z
-x,y,z
x,-y,z
1/2+x,1/2+y,1/2+z
1/2-x,1/2-y,1/2+z
1/2+x,1/2-y,1/2-z
1/2-x,1/2+y,1/2-z
1/2-x,1/2-y,1/2-z
1/2+x,1/2+y,1/2-z
1/2-x,1/2+y,1/2+z
1/2+x,1/2-y,1/2+z
loop_
_atom_site_type_symbol
_atom_site_label
_atom_site_fract_x
_atom_site_fract_y
_atom_site_fract_z
Si Si1 0.068470 0.686224 0.166267
Si Si2 0.589202 0.435709 0.176506
Si Si3 0.226505 0.189083 0.177156
Si Si4 0.399123 0.307508 0.819869
Si Si5 0.730025 0.433458 0.823671
Si Si6 0.929425 0.566583 0.325495
O O1 0.075082 0.743759 0.272761
O O2 0.092504 0.624126 0.234392
O O3 0.000000 0.676764 0.152418
O O4 0.092315 0.698462 0.000000
O O5 0.570028 0.500000 0.243831
O O6 0.568662 0.369635 0.226453
O O7 0.659487 0.434428 0.188262
O O8 0.575492 0.438211 0.000000
O O9 0.250000 0.250000 0.250000
O O10 0.160608 0.189144 0.231374
O O11 0.251751 0.125659 0.238149
O O12 0.232522 0.191416 0.000000
O O13 0.390570 0.309438 0.000000
O O14 0.749939 0.500000 0.771656
O O15 0.742787 0.427607 0.000000
O O16 0.913638 0.572445 0.500000
O O17 0.911318 0.500000 0.270827
O O18 0.000000 0.567156 0.320890
#
# Coordination Sequence:
#
# PCOD9519417 Si02
#       6
#    16  16  16  16  16  16
#     4  10  20  32  47  70 100 131 162 198 241 289
#     4   7  11  22  42  67  91 115 148 192 236 276
#     4  11  21  33  50  73 102 132 165 202 243 291
#     4  10  19  32  51  73  97 127 163 201 245 292
#     4   8  14  27  47  70  96 125 159 199 241 284
#     4   8  14  26  45  68  92 119 155 198 239 280
#
# _framework density 20.941161000000001
#
# number of rings (size 3 to 8) (size 9 to 14) (size 15 to 20)
#    0.000    3.000    0.000    5.000    0.000    1.667 
#    0.000    1.667    0.000    3.000    0.000    3.500 
#    0.000    0.000    0.000    0.000    0.000    0.000 
#
# Total GULP energy -267333.894445 kJ/mol
# GULP energy per Si atom -5569.456134 kJ/mol
# Density = 2.089350 g / cm^3
# Si number density = 20.941161 Si / 1000 Ang^3
#
#
#
# Elastic Constant Matrix: (Units=GPa)
#
#
# Indices 1 2 3 4 5 6 
#
# 1 17.0021 19.5481 5.6221 0.0000 0.0000 0.0000
# 2 19.5481 251.7003 89.0789 0.0000 0.0000 0.0000
# 3 5.6221 89.0789 98.1517 0.0000 0.0000 0.0000
# 4 0.0000 0.0000 0.0000 28.4847 0.0000 0.0000
# 5 0.0000 0.0000 0.0000 0.0000 10.1432 0.0000
# 6 0.0000 0.0000 0.0000 0.0000 0.0000 2792.4465
#
#
#
# Elastic Compliance Matrix: (Units=1/GPa)
#
#
# Indices 1 2 3 4 5 6 
#
# 1 0.064689 -0.005469 0.001259 0.000000 0.000000 0.000000
# 2 -0.005469 0.006315 -0.005418 0.000000 0.000000 0.000000
# 3 0.001259 -0.005418 0.015034 0.000000 0.000000 0.000000
# 4 0.000000 0.000000 0.000000 0.035107 0.000000 0.000000
# 5 0.000000 0.000000 0.000000 0.000000 0.098588 0.000000
# 6 0.000000 0.000000 0.000000 0.000000 0.000000 0.000358
#
#
# Mechanical properties :
#
#
# Convention : Reuss Voigt Hill
#
# Bulk Modulus (GPa) = 14.97472 66.15025 40.56249
# Shear Modulus (GPa) = 19.11255 583.05520 301.08387
#
# Velocity S-wave (km/s) = 3.02433 16.70419 12.00368
# Velocity P-wave (km/s) = 4.40021 20.09221 14.54405
#
# Compressibility (1/GPa) = 0.06677922
#
# Stress axis : x y z
#
# Youngs Moduli (GPa) = 15.45868 158.34476 66.51736
#
# Poissons Ratio (x) = 0.86605 -0.08371
# Poissons Ratio (y) = 0.08455 0.36041
# Poissons Ratio (z) = -0.01945 0.85796
#
# Static dielectric constant tensor:
#      x y z
#    x 2.141430 0.000000 0.000000 
#    y 0.000000 1.834740 0.000000 
#    z 0.000000 0.000000 1.719530 
# 
# From -- ./inp_files/14829.got.cif
#   From: 2010.05.17/outbox.cif.g08.bks.cpg/sg71_8_cif.got.tgz:14829.got - 2010.06.03 16:22:01.
