data_PCOD9519896
_publ_section_title
;
Structure prediction by ZEFSAII (Michael W. Deem and Ramdas Pophale) SiO2 
 PCOD9519896
Probable space group: I M M M
;
_chemical_formula_sum "Si O2"
_cell_formula_units_Z 96
_cell_length_a 16.407125
_cell_length_b 11.994534
_cell_length_c 26.066613
_cell_angle_alpha 90.000000
_cell_angle_beta 90.000000
_cell_angle_gamma 90.000000
_cell_volume 5129.800445
_symmetry_space_group_name_H-M "I M M M"
_symmetry_group_IT_number 71
_symmetry_cell_setting 'orthorhombic'
loop_
_space_group_symop_operation_xyz
x,y,z
-x,-y,z
x,-y,-z
-x,y,-z
-x,-y,-z
x,y,-z
-x,y,z
x,-y,z
1/2+x,1/2+y,1/2+z
1/2-x,1/2-y,1/2+z
1/2+x,1/2-y,1/2-z
1/2-x,1/2+y,1/2-z
1/2-x,1/2-y,1/2-z
1/2+x,1/2+y,1/2-z
1/2-x,1/2+y,1/2+z
1/2+x,1/2-y,1/2+z
loop_
_atom_site_type_symbol
_atom_site_label
_atom_site_fract_x
_atom_site_fract_y
_atom_site_fract_z
Si Si1 0.094259 0.000000 0.209681
Si Si2 0.642263 0.864758 0.389660
Si Si3 0.328049 0.709106 0.888800
Si Si4 0.401365 0.130356 0.810936
Si Si5 0.126549 0.371574 0.000000
Si Si6 0.593287 0.500000 0.832902
Si Si7 0.904898 0.241481 0.790398
Si Si8 0.325665 0.369244 0.000000
O O1 0.095263 0.000000 0.271562
O O2 0.131846 0.879841 0.195681
O O3 0.000000 0.000000 0.190506
O O4 0.731399 0.809773 0.387213
O O5 0.602825 0.827167 0.443964
O O6 0.599112 0.823819 0.338451
O O7 0.649561 0.000000 0.390711
O O8 0.359112 0.820028 0.861372
O O9 0.364922 0.608696 0.855463
O O10 0.353227 0.690267 0.947896
O O11 0.500000 0.143276 0.815310
O O12 0.371986 0.199926 0.760941
O O13 0.384469 0.000000 0.803461
O O14 0.100061 0.500000 0.000000
O O15 0.226073 0.369661 0.000000
O O16 0.500000 0.500000 0.849401
O O17 0.000000 0.219384 0.778595
O O18 0.349690 0.500000 0.000000
#
# Coordination Sequence:
#
# PCOD9519896 Si02
#       8
#     8  16  16  16   8   8  16   8
#     4   9  18  34  53  75 103 136 167 201 257 312
#     4  10  19  33  54  80 107 133 169 213 257 303
#     4  11  19  34  53  78 104 135 171 218 258 301
#     4  10  21  37  53  72 104 143 174 206 257 312
#     4   7  14  30  51  72 101 138 162 199 262 305
#     4  11  18  31  54  75 102 137 169 205 259 307
#     4  10  20  35  55  77 104 137 170 208 256 312
#     4   9  16  30  51  75 104 132 168 213 265 303
#
# _framework density 18.714178
#
# number of rings (size 3 to 8) (size 9 to 14) (size 15 to 20)
#    0.000    2.167    3.333    2.000    0.000    1.667 
#    1.500    2.917    0.000    3.000    0.000    1.750 
#    0.000    0.000    0.000    0.000    0.000    0.000 
#
# Total GULP energy -267516.540134 kJ/mol
# GULP energy per Si atom -5573.261253 kJ/mol
# Density = 1.867158 g / cm^3
# Si number density = 18.714178 Si / 1000 Ang^3
#
#
#
# Elastic Constant Matrix: (Units=GPa)
#
#
# Indices 1 2 3 4 5 6 
#
# 1 20.6353 13.6548 4.3074 0.0000 0.0000 0.0000
# 2 13.6548 101.6251 43.4544 0.0000 0.0000 0.0000
# 3 4.3074 43.4544 117.3973 0.0000 0.0000 0.0000
# 4 0.0000 0.0000 0.0000 22.6974 0.0000 0.0000
# 5 0.0000 0.0000 0.0000 0.0000 22.3220 0.0000
# 6 0.0000 0.0000 0.0000 0.0000 0.0000 19.2261
#
#
#
# Elastic Compliance Matrix: (Units=1/GPa)
#
#
# Indices 1 2 3 4 5 6 
#
# 1 0.053257 -0.007509 0.000825 0.000000 0.000000 0.000000
# 2 -0.007509 0.012749 -0.004444 0.000000 0.000000 0.000000
# 3 0.000825 -0.004444 0.010133 0.000000 0.000000 0.000000
# 4 0.000000 0.000000 0.000000 0.044058 0.000000 0.000000
# 5 0.000000 0.000000 0.000000 0.000000 0.044799 0.000000
# 6 0.000000 0.000000 0.000000 0.000000 0.000000 0.052013
#
#
# Mechanical properties :
#
#
# Convention : Reuss Voigt Hill
#
# Bulk Modulus (GPa) = 18.55811 40.27676 29.41744
# Shear Modulus (GPa) = 19.43834 24.73185 22.08510
#
# Velocity S-wave (km/s) = 3.22638 3.63927 3.43902
# Velocity P-wave (km/s) = 4.88032 6.26321 5.61450
#
# Compressibility (1/GPa) = 0.05388478
#
# Stress axis : x y z
#
# Youngs Moduli (GPa) = 18.77683 78.43746 98.69176
#
# Poissons Ratio (x) = 0.58897 -0.08145
# Poissons Ratio (y) = 0.14099 0.43854
# Poissons Ratio (z) = -0.01550 0.34854
#
# Static dielectric constant tensor:
#      x y z
#    x 1.672150 0.000000 0.000000 
#    y 0.000000 1.659180 0.000000 
#    z 0.000000 0.000000 1.657190 
# 
# From -- ./inp_files/27482.got.cif
#   From: 2010.05.17/outbox.cif.g08.bks.cpg/sg71_14_cif.got.tgz:27482.got - 2010.06.03 16:22:01.
