data_PCOD9519639
_publ_section_title
;
Structure prediction by ZEFSAII (Michael W. Deem and Ramdas Pophale) SiO2 
 PCOD9519639
Probable space group: I M M M
;
_chemical_formula_sum "Si O2"
_cell_formula_units_Z 120
_cell_length_a 8.709413
_cell_length_b 27.740359
_cell_length_c 28.482236
_cell_angle_alpha 90.000000
_cell_angle_beta 90.000000
_cell_angle_gamma 90.000000
_cell_volume 6881.372112
_symmetry_space_group_name_H-M "I M M M"
_symmetry_group_IT_number 71
_symmetry_cell_setting 'orthorhombic'
loop_
_space_group_symop_operation_xyz
x,y,z
-x,-y,z
x,-y,-z
-x,y,-z
-x,-y,-z
x,y,-z
-x,y,z
x,-y,z
1/2+x,1/2+y,1/2+z
1/2-x,1/2-y,1/2+z
1/2+x,1/2-y,1/2-z
1/2-x,1/2+y,1/2-z
1/2-x,1/2-y,1/2-z
1/2+x,1/2+y,1/2-z
1/2-x,1/2+y,1/2+z
1/2+x,1/2-y,1/2+z
loop_
_atom_site_type_symbol
_atom_site_label
_atom_site_fract_x
_atom_site_fract_y
_atom_site_fract_z
Si Si1 0.814982 0.818769 0.054337
Si Si2 0.184385 0.351505 0.857591
Si Si3 0.183845 0.898378 0.785728
Si Si4 0.316548 0.906618 0.887671
Si Si5 0.185431 0.054761 0.687340
Si Si6 0.816225 0.199303 0.266279
Si Si7 0.187393 0.500000 0.553941
Si Si8 0.812980 0.291701 0.946825
O O1 0.746088 0.857697 0.089274
O O2 0.767728 0.763512 0.064492
O O3 0.000000 0.820709 0.057294
O O4 0.772215 0.829337 0.000000
O O5 0.245139 0.404930 0.846625
O O6 0.246123 0.317902 0.815580
O O7 0.236649 0.328895 0.906994
O O8 0.000000 0.351640 0.856342
O O9 0.261931 0.911670 0.834278
O O10 0.228974 0.930653 0.740767
O O11 0.219893 0.843372 0.770718
O O12 0.000000 0.902305 0.791208
O O13 0.500000 0.905572 0.888947
O O14 0.262739 0.952117 0.918644
O O15 0.000000 0.058105 0.685050
O O16 0.231336 0.000000 0.677061
O O17 0.750000 0.250000 0.250000
O O18 0.000000 0.201689 0.270505
O O19 0.238723 0.500000 0.500000
O O20 0.000000 0.500000 0.553698
O O21 0.000000 0.291913 0.947217
O O22 0.762488 0.302890 0.000000
#
# Coordination Sequence:
#
# PCOD9519639 Si02
#       8
#    16  16  16  16  16  16   8  16
#     4   9  18  34  54  74  99 134 174 214 258 311
#     4  10  19  32  54  83 109 138 178 219 265 316
#     4   9  20  36  52  73 101 135 171 210 258 312
#     4  11  22  34  52  76 100 131 171 219 269 316
#     4   9  19  37  58  77 103 141 178 217 269 321
#     4  10  21  36  53  74 107 144 178 215 260 315
#     4   9  20  38  53  67  97 137 169 209 274 329
#     4   8  16  32  54  79 108 142 175 208 254 313
#
# _framework density 17.438382000000001
#
# number of rings (size 3 to 8) (size 9 to 14) (size 15 to 20)
#    0.000    2.600    0.000    3.200    2.800    3.733 
#    0.000    1.667    0.000    6.000    0.000    2.800 
#    0.000    0.000    0.000    0.000    0.000    0.000 
#
# Total GULP energy -334733.855239 kJ/mol
# GULP energy per Si atom -5578.897587 kJ/mol
# Density = 1.739869 g / cm^3
# Si number density = 17.438382 Si / 1000 Ang^3
#
#
#
# Elastic Constant Matrix: (Units=GPa)
#
#
# Indices 1 2 3 4 5 6 
#
# 1 20.6542 31.9590 29.4418 0.0000 0.0000 0.0000
# 2 31.9590 145.4780 90.6081 0.0000 0.0000 0.0000
# 3 29.4418 90.6081 135.1884 0.0000 0.0000 0.0000
# 4 0.0000 0.0000 0.0000 15.4100 0.0000 0.0000
# 5 0.0000 0.0000 0.0000 0.0000 21.6068 0.0000
# 6 0.0000 0.0000 0.0000 0.0000 0.0000 24.7874
#
#
#
# Elastic Compliance Matrix: (Units=1/GPa)
#
#
# Indices 1 2 3 4 5 6 
#
# 1 0.080138 -0.011561 -0.009704 0.000000 0.000000 0.000000
# 2 -0.011561 0.013467 -0.006509 0.000000 0.000000 0.000000
# 3 -0.009704 -0.006509 0.013873 0.000000 0.000000 0.000000
# 4 0.000000 0.000000 0.000000 0.064893 0.000000 0.000000
# 5 0.000000 0.000000 0.000000 0.000000 0.046282 0.000000
# 6 0.000000 0.000000 0.000000 0.000000 0.000000 0.040343
#
#
# Mechanical properties :
#
#
# Convention : Reuss Voigt Hill
#
# Bulk Modulus (GPa) = 19.25641 67.25985 43.25813
# Shear Modulus (GPa) = 15.06691 22.31495 18.69093
#
# Velocity S-wave (km/s) = 2.94259 3.58109 3.27743
# Velocity P-wave (km/s) = 4.75517 7.46677 6.25957
#
# Compressibility (1/GPa) = 0.05193076
#
# Stress axis : x y z
#
# Youngs Moduli (GPa) = 12.47850 74.25399 72.08374
#
# Poissons Ratio (x) = 0.85843 0.69952
# Poissons Ratio (y) = 0.14426 0.46916
# Poissons Ratio (z) = 0.12109 0.48328
#
# Static dielectric constant tensor:
#      x y z
#    x 1.593080 0.000000 0.000000 
#    y 0.000000 1.582990 0.000000 
#    z 0.000000 0.000000 1.578090 
# 
# From -- ./inp_files/63849.got.cif
#   From: 2010.05.17/outbox.cif.g08.bks.cpg/sg71_32_cif.got.tgz:63849.got - 2010.06.03 16:22:01.
