data_PCOD9519468
_publ_section_title
;
Structure prediction by ZEFSAII (Michael W. Deem and Ramdas Pophale) SiO2 
 PCOD9519468
Probable space group: I M M M
;
_chemical_formula_sum "Si O2"
_cell_formula_units_Z 96
_cell_length_a 20.007809
_cell_length_b 15.610198
_cell_length_c 15.364478
_cell_angle_alpha 90.000000
_cell_angle_beta 90.000000
_cell_angle_gamma 90.000000
_cell_volume 4798.723805
_symmetry_space_group_name_H-M "I M M M"
_symmetry_group_IT_number 71
_symmetry_cell_setting 'orthorhombic'
loop_
_space_group_symop_operation_xyz
x,y,z
-x,-y,z
x,-y,-z
-x,y,-z
-x,-y,-z
x,y,-z
-x,y,z
x,-y,z
1/2+x,1/2+y,1/2+z
1/2-x,1/2-y,1/2+z
1/2+x,1/2-y,1/2-z
1/2-x,1/2+y,1/2-z
1/2-x,1/2-y,1/2-z
1/2+x,1/2+y,1/2-z
1/2-x,1/2+y,1/2+z
1/2+x,1/2-y,1/2+z
loop_
_atom_site_type_symbol
_atom_site_label
_atom_site_fract_x
_atom_site_fract_y
_atom_site_fract_z
Si Si1 0.293604 0.137278 0.900491
Si Si2 0.622873 0.594100 0.161936
Si Si3 0.722083 0.093541 0.291500
Si Si4 0.578984 0.596536 0.637964
Si Si5 0.671052 0.759996 0.404654
Si Si6 0.571725 0.226594 0.102190
O O1 0.268891 0.091488 0.813171
O O2 0.244713 0.218369 0.905956
O O3 0.367613 0.165874 0.872953
O O4 0.293592 0.100715 0.000000
O O5 0.609466 0.500000 0.123369
O O6 0.702829 0.604622 0.171319
O O7 0.591663 0.595018 0.258612
O O8 0.592222 0.675145 0.114689
O O9 0.675733 0.169672 0.328534
O O10 0.696885 0.000000 0.319010
O O11 0.500000 0.606817 0.619427
O O12 0.599091 0.500000 0.606164
O O13 0.621512 0.678406 0.606181
O O14 0.658128 0.799163 0.500000
O O15 0.500000 0.209992 0.145037
O O16 0.566003 0.211834 0.000000
#
# Coordination Sequence:
#
# PCOD9519468 Si02
#       6
#    16  16  16  16  16  16
#     4  10  20  36  59  85 111 147 198 247 296 353
#     4  10  19  32  51  78 114 154 193 234 284 346
#     4  11  22  37  59  86 119 157 201 251 292 335
#     4  10  21  37  59  89 121 150 185 235 298 364
#     4  11  22  37  60  85 115 159 203 241 288 347
#     4  10  20  33  51  78 112 149 190 240 296 350
#
# _framework density 20.005319
#
# number of rings (size 3 to 8) (size 9 to 14) (size 15 to 20)
#    0.000    1.667    3.333    2.000    0.000    2.667 
#    0.000    5.000    0.000    2.000    0.000    3.500 
#    0.000    0.000    0.000    0.000    0.000    0.000 
#
# Total GULP energy -267393.168294 kJ/mol
# GULP energy per Si atom -5570.691006 kJ/mol
# Density = 1.995979 g / cm^3
# Si number density = 20.005319 Si / 1000 Ang^3
#
#
#
# Elastic Constant Matrix: (Units=GPa)
#
#
# Indices 1 2 3 4 5 6 
#
# 1 72.6463 21.4385 2.0735 0.0000 0.0000 0.0000
# 2 21.4385 71.4107 30.4921 0.0000 0.0000 0.0000
# 3 2.0735 30.4921 62.0984 0.0000 0.0000 0.0000
# 4 0.0000 0.0000 0.0000 24.0300 0.0000 0.0000
# 5 0.0000 0.0000 0.0000 0.0000 2.7347 0.0000
# 6 0.0000 0.0000 0.0000 0.0000 0.0000 18.6503
#
#
#
# Elastic Compliance Matrix: (Units=1/GPa)
#
#
# Indices 1 2 3 4 5 6 
#
# 1 0.015340 -0.005550 0.002213 0.000000 0.000000 0.000000
# 2 -0.005550 0.019727 -0.009501 0.000000 0.000000 0.000000
# 3 0.002213 -0.009501 0.020695 0.000000 0.000000 0.000000
# 4 0.000000 0.000000 0.000000 0.041615 0.000000 0.000000
# 5 0.000000 0.000000 0.000000 0.000000 0.365670 0.000000
# 6 0.000000 0.000000 0.000000 0.000000 0.000000 0.053619
#
#
# Mechanical properties :
#
#
# Convention : Reuss Voigt Hill
#
# Bulk Modulus (GPa) = 33.23888 34.90706 34.07297
# Shear Modulus (GPa) = 9.05190 19.22641 14.13916
#
# Velocity S-wave (km/s) = 2.12945 3.10347 2.66140
# Velocity P-wave (km/s) = 4.76416 5.50716 5.14908
#
# Compressibility (1/GPa) = 0.03008525
#
# Stress axis : x y z
#
# Youngs Moduli (GPa) = 65.18856 50.69266 48.32113
#
# Poissons Ratio (x) = 0.28136 -0.10694
# Poissons Ratio (y) = 0.36182 0.45910
# Poissons Ratio (z) = -0.14427 0.48163
#
# Static dielectric constant tensor:
#      x y z
#    x 1.804110 0.000000 0.000000 
#    y 0.000000 2.008750 0.000000 
#    z 0.000000 0.000000 1.755840 
# 
# From -- ./inp_files/34516.got.cif
#   From: 2010.05.17/outbox.cif.g08.bks.cpg/sg71_18_cif.got.tgz:34516.got - 2010.06.03 16:22:01.
