data_PCOD9519203
_publ_section_title
;
Structure prediction by ZEFSAII (Michael W. Deem and Ramdas Pophale) SiO2 
 PCOD9519203
Probable space group: I M M M
;
_chemical_formula_sum "Si O2"
_cell_formula_units_Z 88
_cell_length_a 19.199415
_cell_length_b 17.872827
_cell_length_c 13.470403
_cell_angle_alpha 90.000000
_cell_angle_beta 90.000000
_cell_angle_gamma 90.000000
_cell_volume 4622.339462
_symmetry_space_group_name_H-M "I M M M"
_symmetry_group_IT_number 71
_symmetry_cell_setting 'orthorhombic'
loop_
_space_group_symop_operation_xyz
x,y,z
-x,-y,z
x,-y,-z
-x,y,-z
-x,-y,-z
x,y,-z
-x,y,z
x,-y,z
1/2+x,1/2+y,1/2+z
1/2-x,1/2-y,1/2+z
1/2+x,1/2-y,1/2-z
1/2-x,1/2+y,1/2-z
1/2-x,1/2-y,1/2-z
1/2+x,1/2+y,1/2-z
1/2-x,1/2+y,1/2+z
1/2+x,1/2-y,1/2+z
loop_
_atom_site_type_symbol
_atom_site_label
_atom_site_fract_x
_atom_site_fract_y
_atom_site_fract_z
Si Si1 0.580664 0.795947 0.197600
Si Si2 0.221963 0.914725 0.303983
Si Si3 0.311576 0.913282 0.112933
Si Si4 0.921497 0.869886 0.383398
Si Si5 0.421267 0.000000 0.619841
Si Si6 0.349039 0.842238 0.614867
O O1 0.500000 0.817972 0.210798
O O2 0.626046 0.858080 0.141508
O O3 0.581912 0.718852 0.137364
O O4 0.617435 0.786656 0.305398
O O5 0.249696 0.903119 0.192344
O O6 0.140646 0.904768 0.320617
O O7 0.267018 0.856145 0.368599
O O8 0.239824 0.000000 0.334154
O O9 0.334331 0.000000 0.121263
O O10 0.289200 0.899830 0.000000
O O11 0.910083 0.885171 0.500000
O O12 0.000000 0.894871 0.357837
O O13 0.382746 0.077042 0.644873
O O14 0.500000 0.000000 0.658810
O O15 0.424229 0.000000 0.500000
O O16 0.364324 0.826314 0.500000
#
# Coordination Sequence:
#
# PCOD9519203 Si02
#       6
#    16  16  16  16   8  16
#     4  10  21  35  51  73 108 148 184 220 259 311
#     4  10  20  36  58  81 106 134 173 224 270 324
#     4   9  19  35  55  80 108 139 176 216 260 308
#     4  10  22  39  57  78 105 138 174 218 275 323
#     4   9  16  26  42  68 104 142 174 205 248 300
#     4  10  19  31  50  78 109 144 180 216 263 312
#
# _framework density 19.037979
#
# number of rings (size 3 to 8) (size 9 to 14) (size 15 to 20)
#    0.000    2.273    0.909    1.636    1.273    6.909 
#    0.000    4.545    0.000    1.636    0.000    2.545 
#    0.000    0.000    0.000    0.000    0.000    0.000 
#
# Total GULP energy -245526.131795 kJ/mol
# GULP energy per Si atom -5580.139359 kJ/mol
# Density = 1.899465 g / cm^3
# Si number density = 19.037979 Si / 1000 Ang^3
#
#
#
# Elastic Constant Matrix: (Units=GPa)
#
#
# Indices 1 2 3 4 5 6 
#
# 1 125.1379 18.6485 23.8217 0.0000 0.0000 0.0000
# 2 18.6485 16.2699 10.6755 0.0000 0.0000 0.0000
# 3 23.8217 10.6755 72.0215 0.0000 0.0000 0.0000
# 4 0.0000 0.0000 0.0000 19.9953 0.0000 0.0000
# 5 0.0000 0.0000 0.0000 0.0000 17.3269 0.0000
# 6 0.0000 0.0000 0.0000 0.0000 0.0000 57.5111
#
#
#
# Elastic Compliance Matrix: (Units=1/GPa)
#
#
# Indices 1 2 3 4 5 6 
#
# 1 0.009833 -0.010121 -0.001752 0.000000 0.000000 0.000000
# 2 -0.010121 0.078502 -0.008289 0.000000 0.000000 0.000000
# 3 -0.001752 -0.008289 0.015693 0.000000 0.000000 0.000000
# 4 0.000000 0.000000 0.000000 0.050012 0.000000 0.000000
# 5 0.000000 0.000000 0.000000 0.000000 0.057714 0.000000
# 6 0.000000 0.000000 0.000000 0.000000 0.000000 0.017388
#
#
# Mechanical properties :
#
#
# Convention : Reuss Voigt Hill
#
# Bulk Modulus (GPa) = 15.69738 35.52454 25.61096
# Shear Modulus (GPa) = 17.19989 29.65223 23.42606
#
# Velocity S-wave (km/s) = 3.00901 3.95084 3.51164
# Velocity P-wave (km/s) = 4.50948 6.28590 5.47028
#
# Compressibility (1/GPa) = 0.06370490
#
# Stress axis : x y z
#
# Youngs Moduli (GPa) = 101.69849 12.73849 63.72321
#
# Poissons Ratio (x) = 0.12892 0.11165
# Poissons Ratio (y) = 1.02928 0.52817
# Poissons Ratio (z) = 0.17819 0.10558
#
# Static dielectric constant tensor:
#      x y z
#    x 1.673270 0.000000 0.000000 
#    y 0.000000 1.682510 0.000000 
#    z 0.000000 0.000000 1.661560 
# 
# From -- ./inp_files/36369.got.cif
#   From: 2010.05.17/outbox.cif.g08.bks.cpg/sg71_19_cif.got.tgz:36369.got - 2010.06.03 16:22:01.
