data_PCOD9519237
_publ_section_title
;
Structure prediction by ZEFSAII (Michael W. Deem and Ramdas Pophale) SiO2 
 PCOD9519237
Probable space group: I M M M
;
_chemical_formula_sum "Si O2"
_cell_formula_units_Z 80
_cell_length_a 9.209533
_cell_length_b 15.153314
_cell_length_c 33.000291
_cell_angle_alpha 90.000000
_cell_angle_beta 90.000000
_cell_angle_gamma 90.000000
_cell_volume 4605.353807
_symmetry_space_group_name_H-M "I M M M"
_symmetry_group_IT_number 71
_symmetry_cell_setting 'orthorhombic'
loop_
_space_group_symop_operation_xyz
x,y,z
-x,-y,z
x,-y,-z
-x,y,-z
-x,-y,-z
x,y,-z
-x,y,z
x,-y,z
1/2+x,1/2+y,1/2+z
1/2-x,1/2-y,1/2+z
1/2+x,1/2-y,1/2-z
1/2-x,1/2+y,1/2-z
1/2-x,1/2-y,1/2-z
1/2+x,1/2+y,1/2-z
1/2-x,1/2+y,1/2+z
1/2+x,1/2-y,1/2+z
loop_
_atom_site_type_symbol
_atom_site_label
_atom_site_fract_x
_atom_site_fract_y
_atom_site_fract_z
Si Si1 0.334272 0.338650 0.699478
Si Si2 0.172244 0.104333 0.952767
Si Si3 0.674223 0.208753 0.882288
Si Si4 0.826248 0.094903 0.359827
Si Si5 0.834452 0.368841 0.777294
O O1 0.500000 0.369866 0.694454
O O2 0.248265 0.335418 0.657224
O O3 0.248391 0.386762 0.735430
O O4 0.340522 0.236801 0.714652
O O5 0.265024 0.161933 0.922045
O O6 0.000000 0.119320 0.946068
O O7 0.199288 0.000000 0.946277
O O8 0.203266 0.123571 0.000000
O O9 0.500000 0.201435 0.879458
O O10 0.714204 0.313325 0.881484
O O11 0.751852 0.096374 0.315962
O O12 0.000000 0.098214 0.354470
O O13 0.790164 0.000000 0.379611
O O14 0.000000 0.399617 0.775918
#
# Coordination Sequence:
#
# PCOD9519237 Si02
#       5
#    16  16  16  16  16
#     4   9  16  27  44  65  93 130 166 201 247 298
#     4   9  19  37  59  80 102 128 156 189 239 306
#     4  10  19  31  51  78 104 130 164 208 251 289
#     4   9  18  32  48  68  99 139 177 208 243 291
#     4   9  16  26  42  65  92 124 167 215 253 283
#
# _framework density 17.371088
#
# number of rings (size 3 to 8) (size 9 to 14) (size 15 to 20)
#    0.000    2.800    0.000    2.400    0.000    6.800 
#    0.000    2.000    0.000    6.600    0.000    4.200 
#    0.000    0.000    0.000    0.000    0.000    0.000 
#
# Total GULP energy -222936.990429 kJ/mol
# GULP energy per Si atom -5573.424761 kJ/mol
# Density = 1.733155 g / cm^3
# Si number density = 17.371088 Si / 1000 Ang^3
#
#
#
# Elastic Constant Matrix: (Units=GPa)
#
#
# Indices 1 2 3 4 5 6 
#
# 1 60.4681 36.2070 60.3803 0.0000 0.0000 0.0000
# 2 36.2070 64.2307 54.5076 0.0000 0.0000 0.0000
# 3 60.3803 54.5076 104.8845 0.0000 0.0000 0.0000
# 4 0.0000 0.0000 0.0000 5.9745 0.0000 0.0000
# 5 0.0000 0.0000 0.0000 0.0000 32.9095 0.0000
# 6 0.0000 0.0000 0.0000 0.0000 0.0000 14.5282
#
#
#
# Elastic Compliance Matrix: (Units=1/GPa)
#
#
# Indices 1 2 3 4 5 6 
#
# 1 0.039906 -0.005366 -0.020185 0.000000 0.000000 0.000000
# 2 -0.005366 0.028574 -0.011760 0.000000 0.000000 0.000000
# 3 -0.020185 -0.011760 0.027266 0.000000 0.000000 0.000000
# 4 0.000000 0.000000 0.000000 0.167377 0.000000 0.000000
# 5 0.000000 0.000000 0.000000 0.000000 0.030386 0.000000
# 6 0.000000 0.000000 0.000000 0.000000 0.000000 0.068832
#
#
# Mechanical properties :
#
#
# Convention : Reuss Voigt Hill
#
# Bulk Modulus (GPa) = 47.34000 59.08590 53.21295
# Shear Modulus (GPa) = 11.26116 15.91502 13.58809
#
# Velocity S-wave (km/s) = 2.54888 3.03013 2.79986
# Velocity P-wave (km/s) = 5.99781 6.80661 6.41497
#
# Compressibility (1/GPa) = 0.02112378
#
# Stress axis : x y z
#
# Youngs Moduli (GPa) = 25.05890 34.99698 36.67571
#
# Poissons Ratio (x) = 0.18780 0.74028
# Poissons Ratio (y) = 0.13447 0.43132
# Poissons Ratio (z) = 0.50580 0.41158
#
# Static dielectric constant tensor:
#      x y z
#    x 1.584360 0.000000 0.000000 
#    y 0.000000 1.643780 0.000000 
#    z 0.000000 0.000000 1.544490 
# 
# From -- ./inp_files/14539.got.cif
#   From: 2010.05.17/outbox.cif.g08.bks.cpg/sg71_8_cif.got.tgz:14539.got - 2010.06.03 16:22:01.
