data_PCOD9519465
_publ_section_title
;
Structure prediction by ZEFSAII (Michael W. Deem and Ramdas Pophale) SiO2 
 PCOD9519465
Probable space group: I M M M
;
_chemical_formula_sum "Si O2"
_cell_formula_units_Z 96
_cell_length_a 17.595701
_cell_length_b 25.679433
_cell_length_c 12.629411
_cell_angle_alpha 90.000000
_cell_angle_beta 90.000000
_cell_angle_gamma 90.000000
_cell_volume 5706.569364
_symmetry_space_group_name_H-M "I M M M"
_symmetry_group_IT_number 71
_symmetry_cell_setting 'orthorhombic'
loop_
_space_group_symop_operation_xyz
x,y,z
-x,-y,z
x,-y,-z
-x,y,-z
-x,-y,-z
x,y,-z
-x,y,z
x,-y,z
1/2+x,1/2+y,1/2+z
1/2-x,1/2-y,1/2+z
1/2+x,1/2-y,1/2-z
1/2-x,1/2+y,1/2-z
1/2-x,1/2-y,1/2-z
1/2+x,1/2+y,1/2-z
1/2-x,1/2+y,1/2+z
1/2+x,1/2-y,1/2+z
loop_
_atom_site_type_symbol
_atom_site_label
_atom_site_fract_x
_atom_site_fract_y
_atom_site_fract_z
Si Si1 0.000000 0.939415 0.718895
Si Si2 0.685613 0.204936 0.874674
Si Si3 0.412462 0.103971 0.124411
Si Si4 0.759503 0.500000 0.125265
Si Si5 0.000000 0.157220 0.873524
Si Si6 0.841618 0.904108 0.374291
Si Si7 0.152890 0.802258 0.768358
Si Si8 0.913036 0.500000 0.238290
O O1 0.074797 0.926508 0.650763
O O2 0.000000 0.899856 0.818273
O O3 0.000000 0.000000 0.749117
O O4 0.644832 0.150319 0.848302
O O5 0.774655 0.202403 0.845510
O O6 0.650026 0.250653 0.803564
O O7 0.675160 0.214593 0.000000
O O8 0.500000 0.121688 0.139429
O O9 0.402272 0.051595 0.190950
O O10 0.402916 0.091813 0.000000
O O11 0.717899 0.447820 0.164574
O O12 0.847704 0.500000 0.151667
O O13 0.747285 0.500000 0.000000
O O14 0.075353 0.186284 0.830994
O O15 0.000000 0.153861 0.000000
O O16 0.832780 0.895501 0.500000
O O17 0.832969 0.850941 0.309916
O O18 0.000000 0.500000 0.198715
#
# Coordination Sequence:
#
# PCOD9519465 Si02
#       8
#     8  16  16   8   8  16  16   8
#     4  10  19  33  54  79 105 138 176 215 262 310
#     4  10  20  35  55  79 106 135 172 220 266 309
#     4   9  18  32  53  78 102 127 160 207 263 314
#     4  10  20  31  49  72  98 137 173 210 253 296
#     4  10  22  38  55  76 108 144 176 212 258 316
#     4  10  19  32  51  77 108 137 174 218 261 307
#     4  10  21  35  54  78 104 142 177 213 258 319
#     4  10  19  33  51  72  99 135 166 209 254 312
#
# _framework density 16.822717000000001
#
# number of rings (size 3 to 8) (size 9 to 14) (size 15 to 20)
#    0.000    2.167    0.833    2.500    1.167    1.667 
#    0.000    0.833    0.000    2.000    0.000    0.000 
#    0.000    0.000    0.000    0.000    0.000    0.000 
#
# Total GULP energy -267746.626570 kJ/mol
# GULP energy per Si atom -5578.054720 kJ/mol
# Density = 1.678443 g / cm^3
# Si number density = 16.822717 Si / 1000 Ang^3
#
#
#
# Elastic Constant Matrix: (Units=GPa)
#
#
# Indices 1 2 3 4 5 6 
#
# 1 34.8771 7.1748 0.6529 0.0000 0.0000 0.0000
# 2 7.1748 63.9083 10.3865 0.0000 0.0000 0.0000
# 3 0.6529 10.3865 46.1741 0.0000 0.0000 0.0000
# 4 0.0000 0.0000 0.0000 12.2339 0.0000 0.0000
# 5 0.0000 0.0000 0.0000 0.0000 23.7874 0.0000
# 6 0.0000 0.0000 0.0000 0.0000 0.0000 27.7614
#
#
#
# Elastic Compliance Matrix: (Units=1/GPa)
#
#
# Indices 1 2 3 4 5 6 
#
# 1 0.029355 -0.003351 0.000339 0.000000 0.000000 0.000000
# 2 -0.003351 0.016624 -0.003692 0.000000 0.000000 0.000000
# 3 0.000339 -0.003692 0.022483 0.000000 0.000000 0.000000
# 4 0.000000 0.000000 0.000000 0.081740 0.000000 0.000000
# 5 0.000000 0.000000 0.000000 0.000000 0.042039 0.000000
# 6 0.000000 0.000000 0.000000 0.000000 0.000000 0.036021
#
#
# Mechanical properties :
#
#
# Convention : Reuss Voigt Hill
#
# Bulk Modulus (GPa) = 18.16413 20.15420 19.15916
# Shear Modulus (GPa) = 19.22921 21.20622 20.21771
#
# Velocity S-wave (km/s) = 3.38457 3.55430 3.47047
# Velocity P-wave (km/s) = 5.10828 5.37126 5.24142
#
# Compressibility (1/GPa) = 0.05505356
#
# Stress axis : x y z
#
# Youngs Moduli (GPa) = 34.06573 60.15546 44.47832
#
# Poissons Ratio (x) = 0.20156 -0.01506
# Poissons Ratio (y) = 0.11414 0.16421
# Poissons Ratio (z) = -0.01154 0.22209
#
# Static dielectric constant tensor:
#      x y z
#    x 1.557390 0.000000 0.000000 
#    y 0.000000 1.555020 0.000000 
#    z 0.000000 0.000000 1.535870 
# 
# From -- ./inp_files/24288.got.cif
#   From: 2010.05.17/outbox.cif.g08.bks.cpg/sg71_13_cif.got.tgz:24288.got - 2010.06.03 16:22:01.
