data_PCOD9519532
_publ_section_title
;
Structure prediction by ZEFSAII (Michael W. Deem and Ramdas Pophale) SiO2 
 PCOD9519532
Probable space group: I M M M
;
_chemical_formula_sum "Si O2"
_cell_formula_units_Z 96
_cell_length_a 15.358775
_cell_length_b 24.327267
_cell_length_c 14.510120
_cell_angle_alpha 90.000000
_cell_angle_beta 90.000000
_cell_angle_gamma 90.000000
_cell_volume 5421.518000
_symmetry_space_group_name_H-M "I M M M"
_symmetry_group_IT_number 71
_symmetry_cell_setting 'orthorhombic'
loop_
_space_group_symop_operation_xyz
x,y,z
-x,-y,z
x,-y,-z
-x,y,-z
-x,-y,-z
x,y,-z
-x,y,z
x,-y,z
1/2+x,1/2+y,1/2+z
1/2-x,1/2-y,1/2+z
1/2+x,1/2-y,1/2-z
1/2-x,1/2+y,1/2-z
1/2-x,1/2-y,1/2-z
1/2+x,1/2+y,1/2-z
1/2-x,1/2+y,1/2+z
1/2+x,1/2-y,1/2+z
loop_
_atom_site_type_symbol
_atom_site_label
_atom_site_fract_x
_atom_site_fract_y
_atom_site_fract_z
Si Si1 0.402524 0.728502 0.652387
Si Si2 0.786020 0.315368 0.398695
Si Si3 0.000000 0.432771 0.113071
Si Si4 0.644429 0.853017 0.701962
Si Si5 0.599013 0.500000 0.112885
Si Si6 0.905900 0.214380 0.368499
Si Si7 0.813987 0.890818 0.602447
O O1 0.500000 0.718207 0.613200
O O2 0.317370 0.697663 0.612941
O O3 0.388244 0.794639 0.660247
O O4 0.404039 0.710680 0.758660
O O5 0.800226 0.340898 0.500000
O O6 0.834996 0.344937 0.311949
O O7 0.830741 0.255343 0.398446
O O8 0.081161 0.401472 0.164029
O O9 0.000000 0.500000 0.125571
O O10 0.000000 0.423452 0.000000
O O11 0.738414 0.864549 0.660682
O O12 0.500000 0.500000 0.143774
O O13 0.649173 0.553740 0.143813
O O14 0.597866 0.500000 0.000000
O O15 0.890037 0.153607 0.403712
O O16 0.000000 0.236721 0.395657
O O17 0.779825 0.902542 0.500000
#
# Coordination Sequence:
#
# PCOD9519532 Si02
#       7
#    16  16   8  16   8  16  16
#     4  10  19  36  56  80 118 158 197 244 298 354
#     4  11  22  36  56  85 118 155 200 241 291 358
#     4  11  26  44  67  95 119 153 204 249 295 358
#     4  11  21  40  56  83 120 155 192 245 300 351
#     4   9  20  34  48  75 108 140 181 229 290 366
#     4  10  19  32  52  78 111 151 192 236 284 348
#     4  11  20  32  53  76 108 148 186 233 291 350
#
# _framework density 17.707218000000001
#
# number of rings (size 3 to 8) (size 9 to 14) (size 15 to 20)
#    0.000    1.500    4.167    2.500    2.333    3.000 
#    0.000    0.000    0.000    1.000    0.000    0.000 
#    0.000    0.667    0.000    0.000    0.000    0.000 
#
# Total GULP energy -267284.333605 kJ/mol
# GULP energy per Si atom -5568.423617 kJ/mol
# Density = 1.766692 g / cm^3
# Si number density = 17.707218 Si / 1000 Ang^3
#
#
#
# Elastic Constant Matrix: (Units=GPa)
#
#
# Indices 1 2 3 4 5 6 
#
# 1 102.3150 21.2253 25.7178 0.0000 0.0000 0.0000
# 2 21.2253 83.1599 29.4056 0.0002 0.0000 0.0000
# 3 25.7178 29.4056 96.8901 0.0002 0.0000 0.0000
# 4 0.0000 0.0002 0.0002 -79.3905 0.0000 0.0000
# 5 0.0000 0.0000 0.0000 0.0000 -0.1246 0.0000
# 6 0.0000 0.0000 0.0000 0.0000 0.0000 20.2716
#
#
#
# Elastic Compliance Matrix: (Units=1/GPa)
#
#
# Indices 1 2 3 4 5 6 
#
# 1 0.010745 -0.001943 -0.002263 0.000000 0.000000 0.000000
# 2 -0.001943 0.013822 -0.003679 0.000000 0.000000 0.000000
# 3 -0.002263 -0.003679 0.012038 0.000000 0.000000 0.000000
# 4 0.000000 0.000000 0.000000 -0.012596 0.000001 0.000000
# 5 0.000000 0.000000 0.000000 0.000001 -8.026967 0.000000
# 6 0.000000 0.000000 0.000000 0.000000 0.000000 0.049330
#
#
# Mechanical properties :
#
#
# Convention : Reuss Voigt Hill
#
# Bulk Modulus (GPa) = 47.99242 48.34026 48.16634
# Shear Modulus (GPa) = -0.63044 1.88572 0.62764
#
# Velocity S-wave (km/s) = -0.59734 1.03308 0.59601
# Velocity P-wave (km/s) = 5.16589 5.36489 5.26633
#
# Compressibility (1/GPa) = 0.02083663
#
# Stress axis : x y z
#
# Youngs Moduli (GPa) = 93.06254 72.34942 83.06907
#
# Poissons Ratio (x) = 0.14054 0.18796
# Poissons Ratio (y) = 0.18078 0.30563
# Poissons Ratio (z) = 0.21057 0.26619
#
# Static dielectric constant tensor:
#      x y z
#    x 1.675180 0.000000 0.000000 
#    y 0.000000 1.650090 0.000000 
#    z 0.000000 0.000000 1.645990 
# 
# From -- ./inp_files/34787.got.cif
#   From: 2010.05.17/outbox.cif.g08.bks.cpg/sg71_18_cif.got.tgz:34787.got - 2010.06.03 16:22:01.
