data_PCOD9519699
_publ_section_title
;
Structure prediction by ZEFSAII (Michael W. Deem and Ramdas Pophale) SiO2 
 PCOD9519699
Probable space group: I M M M
;
_chemical_formula_sum "Si O2"
_cell_formula_units_Z 120
_cell_length_a 25.541953
_cell_length_b 7.261483
_cell_length_c 28.718591
_cell_angle_alpha 90.000000
_cell_angle_beta 90.000000
_cell_angle_gamma 90.000000
_cell_volume 5326.507649
_symmetry_space_group_name_H-M "I M M M"
_symmetry_group_IT_number 71
_symmetry_cell_setting 'orthorhombic'
loop_
_space_group_symop_operation_xyz
x,y,z
-x,-y,z
x,-y,-z
-x,y,-z
-x,-y,-z
x,y,-z
-x,y,z
x,-y,z
1/2+x,1/2+y,1/2+z
1/2-x,1/2-y,1/2+z
1/2+x,1/2-y,1/2-z
1/2-x,1/2+y,1/2-z
1/2-x,1/2-y,1/2-z
1/2+x,1/2+y,1/2-z
1/2-x,1/2+y,1/2+z
1/2+x,1/2-y,1/2+z
loop_
_atom_site_type_symbol
_atom_site_label
_atom_site_fract_x
_atom_site_fract_y
_atom_site_fract_z
Si Si1 0.443154 0.776507 0.074034
Si Si2 0.765351 0.721668 0.359013
Si Si3 0.060628 0.725631 0.897093
Si Si4 0.847525 0.714043 0.168865
Si Si5 0.334322 0.775445 0.772605
Si Si6 0.328165 0.224467 0.949879
Si Si7 0.943349 0.722960 0.316887
Si Si8 0.063556 0.711659 0.000000
O O1 0.500000 0.714738 0.056211
O O2 0.388792 0.716251 0.052268
O O3 0.440389 0.728521 0.128731
O O4 0.443530 0.000000 0.070805
O O5 0.768553 0.500000 0.358671
O O6 0.704775 0.773082 0.361575
O O7 0.791605 0.786559 0.310499
O O8 0.797775 0.785832 0.403914
O O9 0.061101 0.500000 0.898151
O O10 0.101960 0.788058 0.858264
O O11 0.000000 0.778314 0.888602
O O12 0.077426 0.788100 0.949157
O O13 0.860004 0.500000 0.177168
O O14 0.831236 0.789613 0.219488
O O15 0.391512 0.718298 0.790814
O O16 0.331488 0.000000 0.772878
O O17 0.328275 0.000000 0.948336
O O18 0.305527 0.278640 0.000000
O O19 0.943087 0.500000 0.315279
O O20 0.000000 0.783761 0.298395
O O21 0.081783 0.500000 0.000000
O O22 0.000000 0.710859 0.000000
#
# Coordination Sequence:
#
# PCOD9519699 Si02
#       8
#    16  16  16  16  16  16  16   8
#     4   8  12  19  33  55  84 115 146 181 222 266
#     4  10  19  33  48  61  87 126 158 180 215 267
#     4   8  14  26  44  66  91 115 139 174 222 271
#     4  10  20  31  46  71  94 111 146 192 223 254
#     4   9  16  27  43  62  87 121 152 181 220 265
#     4   9  16  26  41  60  84 118 156 188 220 263
#     4   8  12  19  34  57  85 115 144 175 218 268
#     4   7  10  20  40  62  85 115 141 159 200 269
#
# _framework density 22.528832000000001
#
# number of rings (size 3 to 8) (size 9 to 14) (size 15 to 20)
#    0.000    3.267    1.333    2.000    0.000    0.800 
#    1.200    4.000    0.000    0.400    0.000    0.000 
#    0.000    4.800    0.000    1.200    0.000    1.333 
#
# Total GULP energy -334734.314956 kJ/mol
# GULP energy per Si atom -5578.905249 kJ/mol
# Density = 2.247756 g / cm^3
# Si number density = 22.528832 Si / 1000 Ang^3
#
#
#
# Elastic Constant Matrix: (Units=GPa)
#
#
# Indices 1 2 3 4 5 6 
#
# 1 133.9223 -6.2744 74.7255 0.0000 0.0000 0.0000
# 2 -6.2744 98.8303 4.3195 0.0000 0.0000 0.0000
# 3 74.7255 4.3195 146.0835 0.0000 0.0000 0.0000
# 4 0.0000 0.0000 0.0000 -21.6972 0.0000 0.0000
# 5 0.0000 0.0000 0.0000 0.0000 -5.8306 0.0000
# 6 0.0000 0.0000 0.0000 0.0000 0.0000 -31.8382
#
#
#
# Elastic Compliance Matrix: (Units=1/GPa)
#
#
# Indices 1 2 3 4 5 6 
#
# 1 0.010530 0.000905 -0.005413 0.000000 0.000000 0.000000
# 2 0.000905 0.010209 -0.000765 0.000000 0.000000 0.000000
# 3 -0.005413 -0.000765 0.009637 0.000000 0.000000 0.000000
# 4 0.000000 0.000000 0.000000 -0.046089 0.000000 0.000000
# 5 0.000000 0.000000 0.000000 0.000000 -0.171507 0.000000
# 6 0.000000 0.000000 0.000000 0.000000 0.000000 -0.031409
#
#
# Mechanical properties :
#
#
# Convention : Reuss Voigt Hill
#
# Bulk Modulus (GPa) = 50.42774 58.26416 54.34595
# Shear Modulus (GPa) = -24.81714 8.53116 -8.14299
#
# Velocity S-wave (km/s) = -3.32260 1.94807 -1.90324
# Velocity P-wave (km/s) = 2.77718 5.56580 4.39835
#
# Compressibility (1/GPa) = 0.01983036
#
# Stress axis : x y z
#
# Youngs Moduli (GPa) = 94.96900 97.95048 103.76775
#
# Poissons Ratio (x) = -0.08865 0.56170
# Poissons Ratio (y) = -0.08595 0.07937
# Poissons Ratio (z) = 0.51407 0.07492
#
# Static dielectric constant tensor:
#      x y z
#    x 1.784490 0.000000 0.000000 
#    y 0.000000 1.934440 0.000000 
#    z 0.000000 0.000000 1.829050 
# 
# From -- ./inp_files/71093.got.cif
#   From: 2010.05.17/outbox.cif.g08.bks.cpg/sg71_36_cif.got.tgz:71093.got - 2010.06.03 16:22:01.
