data_PCOD9519096
_publ_section_title
;
Structure prediction by ZEFSAII (Michael W. Deem and Ramdas Pophale) SiO2 
 PCOD9519096
Probable space group: I M M M
;
_chemical_formula_sum "Si O2"
_cell_formula_units_Z 80
_cell_length_a 18.195293
_cell_length_b 26.994527
_cell_length_c 7.731852
_cell_angle_alpha 90.000000
_cell_angle_beta 90.000000
_cell_angle_gamma 90.000000
_cell_volume 3797.679480
_symmetry_space_group_name_H-M "I M M M"
_symmetry_group_IT_number 71
_symmetry_cell_setting 'orthorhombic'
loop_
_space_group_symop_operation_xyz
x,y,z
-x,-y,z
x,-y,-z
-x,y,-z
-x,-y,-z
x,y,-z
-x,y,z
x,-y,z
1/2+x,1/2+y,1/2+z
1/2-x,1/2-y,1/2+z
1/2+x,1/2-y,1/2-z
1/2-x,1/2+y,1/2-z
1/2-x,1/2-y,1/2-z
1/2+x,1/2+y,1/2-z
1/2-x,1/2+y,1/2+z
1/2+x,1/2-y,1/2+z
loop_
_atom_site_type_symbol
_atom_site_label
_atom_site_fract_x
_atom_site_fract_y
_atom_site_fract_z
Si Si1 0.203948 0.339625 0.712312
Si Si2 0.873330 0.161650 0.794662
Si Si3 0.578691 0.232089 0.796444
Si Si4 0.372382 0.446447 0.792869
Si Si5 0.700025 0.052947 0.203625
O O1 0.206652 0.339793 0.500000
O O2 0.288536 0.335128 0.769784
O O3 0.150144 0.296319 0.773404
O O4 0.174991 0.393707 0.770502
O O5 0.913881 0.209037 0.720621
O O6 0.904473 0.106836 0.757204
O O7 0.872729 0.167405 0.000000
O O8 0.500000 0.216502 0.720930
O O9 0.577419 0.220197 0.000000
O O10 0.404919 0.500000 0.737927
O O11 0.288845 0.445745 0.721435
O O12 0.368903 0.446941 0.000000
O O13 0.675817 0.000000 0.280006
O O14 0.682476 0.051999 0.000000
#
# Coordination Sequence:
#
# PCOD9519096 Si02
#       5
#    16  16  16  16  16
#     4   8  15  28  46  69  93 120 155 190 228 272
#     4  10  19  31  49  70  93 121 154 193 230 270
#     4  10  20  33  48  65  90 124 158 194 235 277
#     4   9  16  26  43  69  98 122 146 181 225 273
#     4   8  13  23  41  65  93 122 151 186 227 268
#
# _framework density 21.065494000000001
#
# number of rings (size 3 to 8) (size 9 to 14) (size 15 to 20)
#    0.000    3.000    0.000    3.000    0.000    1.600 
#    0.000    4.000    0.000    1.200    0.000    8.400 
#    0.000    0.000    0.000   52.200    0.000   48.400 
#
# Total GULP energy -222785.727228 kJ/mol
# GULP energy per Si atom -5569.643181 kJ/mol
# Density = 2.101755 g / cm^3
# Si number density = 21.065494 Si / 1000 Ang^3
#
#
#
# Elastic Constant Matrix: (Units=GPa)
#
#
# Indices 1 2 3 4 5 6 
#
# 1 59.9434 32.8070 1.8463 0.0000 0.0000 0.0000
# 2 32.8070 115.7935 -13.6143 0.0000 0.0000 0.0000
# 3 1.8463 -13.6143 34.4189 0.0000 0.0000 0.0000
# 4 0.0000 0.0000 0.0000 16.0222 0.0000 0.0000
# 5 0.0000 0.0000 0.0000 0.0000 0.2144 0.0000
# 6 0.0000 0.0000 0.0000 0.0000 0.0000 -13.7577
#
#
#
# Elastic Compliance Matrix: (Units=1/GPa)
#
#
# Indices 1 2 3 4 5 6 
#
# 1 0.020138 -0.006117 -0.003500 0.000000 0.000000 0.000000
# 2 -0.006117 0.010915 0.004646 0.000000 0.000000 0.000000
# 3 -0.003500 0.004646 0.031079 0.000000 0.000000 0.000000
# 4 0.000000 0.000000 0.000000 0.062413 0.000000 0.000000
# 5 0.000000 0.000000 0.000000 0.000000 4.664093 0.000000
# 6 0.000000 0.000000 0.000000 0.000000 0.000000 -0.072686
#
#
# Mechanical properties :
#
#
# Convention : Reuss Voigt Hill
#
# Bulk Modulus (GPa) = 19.16072 28.02598 23.59335
# Shear Modulus (GPa) = 1.05412 13.10356 7.07884
#
# Velocity S-wave (km/s) = 0.70816 2.49678 1.83513
# Velocity P-wave (km/s) = 3.12797 4.65241 3.96416
#
# Compressibility (1/GPa) = 0.05219011
#
# Stress axis : x y z
#
# Youngs Moduli (GPa) = 49.65713 91.61373 32.17592
#
# Poissons Ratio (x) = 0.56041 0.11261
# Poissons Ratio (y) = 0.30376 -0.14948
# Poissons Ratio (z) = 0.17379 -0.42561
#
# Static dielectric constant tensor:
#      x y z
#    x 1.749100 0.000000 0.000000 
#    y 0.000000 1.824570 0.000000 
#    z 0.000000 0.000000 1.763750 
# 
# From -- ./inp_files/8277.got.cif
#   From: 2010.05.17/outbox.cif.g08.bks.cpg/sg71_5_cif.got.tgz:8277.got - 2010.06.03 16:22:01.
