data_PCOD9519522
_publ_section_title
;
Structure prediction by ZEFSAII (Michael W. Deem and Ramdas Pophale) SiO2 
 PCOD9519522
Probable space group: I M M M
;
_chemical_formula_sum "Si O2"
_cell_formula_units_Z 72
_cell_length_a 21.449471
_cell_length_b 12.606411
_cell_length_c 12.775477
_cell_angle_alpha 90.000000
_cell_angle_beta 90.000000
_cell_angle_gamma 90.000000
_cell_volume 3454.499804
_symmetry_space_group_name_H-M "I M M M"
_symmetry_group_IT_number 71
_symmetry_cell_setting 'orthorhombic'
loop_
_space_group_symop_operation_xyz
x,y,z
-x,-y,z
x,-y,-z
-x,y,-z
-x,-y,-z
x,y,-z
-x,y,z
x,-y,z
1/2+x,1/2+y,1/2+z
1/2-x,1/2-y,1/2+z
1/2+x,1/2-y,1/2-z
1/2-x,1/2+y,1/2-z
1/2-x,1/2-y,1/2-z
1/2+x,1/2+y,1/2-z
1/2-x,1/2+y,1/2+z
1/2+x,1/2-y,1/2+z
loop_
_atom_site_type_symbol
_atom_site_label
_atom_site_fract_x
_atom_site_fract_y
_atom_site_fract_z
Si Si1 0.099260 0.124277 0.617668
Si Si2 0.570467 0.301413 0.338242
Si Si3 0.205082 0.156709 0.114145
Si Si4 0.073667 0.617384 0.000000
Si Si5 0.753531 0.884311 0.341148
O O1 0.079472 0.152467 0.500000
O O2 0.073938 0.195160 0.712269
O O3 0.174592 0.129467 0.623152
O O4 0.082375 0.000000 0.636342
O O5 0.500000 0.335819 0.368189
O O6 0.631583 0.368288 0.371541
O O7 0.583138 0.190370 0.397186
O O8 0.242497 0.117294 0.214707
O O9 0.215435 0.283876 0.120255
O O10 0.225914 0.121194 0.000000
O O11 0.102198 0.500000 0.000000
O O12 0.000000 0.603002 0.000000
O O13 0.731881 0.000000 0.375372
#
# Coordination Sequence:
#
# PCOD9519522 Si02
#       5
#    16  16  16   8  16
#     4   9  18  34  56  81 110 143 178 218 267 323
#     4  10  20  34  52  78 111 143 179 222 266 312
#     4  10  19  32  52  78 104 134 175 215 261 317
#     4   9  18  34  53  71  99 139 178 218 262 307
#     4   9  19  34  52  77 106 135 171 217 265 314
#
# _framework density 20.842379999999999
#
# number of rings (size 3 to 8) (size 9 to 14) (size 15 to 20)
#    0.000    2.556    1.111    0.667    0.000    3.556 
#    0.000    1.667    0.000    2.667    0.000    3.111 
#    0.000    0.000    0.000    0.000    0.000    0.000 
#
# Total GULP energy -200634.091058 kJ/mol
# GULP energy per Si atom -5573.169196 kJ/mol
# Density = 2.079494 g / cm^3
# Si number density = 20.842380 Si / 1000 Ang^3
#
#
#
# Elastic Constant Matrix: (Units=GPa)
#
#
# Indices 1 2 3 4 5 6 
#
# 1 83.9680 20.8528 9.1393 0.0000 0.0000 0.0000
# 2 20.8528 111.9226 47.9439 0.0000 0.0000 0.0000
# 3 9.1393 47.9439 206.6249 0.0000 0.0000 0.0000
# 4 0.0000 0.0000 0.0000 -26.9292 0.0000 0.0000
# 5 0.0000 0.0000 0.0000 0.0000 13.6670 0.0000
# 6 0.0000 0.0000 0.0000 0.0000 0.0000 6.2898
#
#
#
# Elastic Compliance Matrix: (Units=1/GPa)
#
#
# Indices 1 2 3 4 5 6 
#
# 1 0.012487 -0.002321 -0.000014 0.000000 0.000000 0.000000
# 2 -0.002321 0.010352 -0.002299 0.000000 0.000000 0.000000
# 3 -0.000014 -0.002299 0.005374 0.000000 0.000000 0.000000
# 4 0.000000 0.000000 0.000000 -0.037134 0.000000 0.000000
# 5 0.000000 0.000000 0.000000 0.000000 0.073169 0.000000
# 6 0.000000 0.000000 0.000000 0.000000 0.000000 0.158987
#
#
# Mechanical properties :
#
#
# Convention : Reuss Voigt Hill
#
# Bulk Modulus (GPa) = 52.78343 62.04308 57.41325
# Shear Modulus (GPa) = 20.93649 20.24414 20.59031
#
# Velocity S-wave (km/s) = 3.17285 3.11994 3.14651
# Velocity P-wave (km/s) = 6.22918 6.54302 6.38803
#
# Compressibility (1/GPa) = 0.01894534
#
# Stress axis : x y z
#
# Youngs Moduli (GPa) = 80.08254 96.59884 186.08678
#
# Poissons Ratio (x) = 0.22417 0.00258
# Poissons Ratio (y) = 0.18584 0.42789
# Poissons Ratio (z) = 0.00111 0.22212
#
# Static dielectric constant tensor:
#      x y z
#    x 1.763120 0.000000 0.000000 
#    y 0.000000 1.818500 0.000000 
#    z 0.000000 0.000000 1.799550 
# 
# From -- ./inp_files/27024.got.cif
#   From: 2010.05.17/outbox.cif.g08.bks.cpg/sg71_14_cif.got.tgz:27024.got - 2010.06.03 16:22:01.
