data_PCOD9519553
_publ_section_title
;
Structure prediction by ZEFSAII (Michael W. Deem and Ramdas Pophale) SiO2 
 PCOD9519553
Probable space group: I M M M
;
_chemical_formula_sum "Si O2"
_cell_formula_units_Z 96
_cell_length_a 8.308093
_cell_length_b 22.818078
_cell_length_c 27.566351
_cell_angle_alpha 90.000000
_cell_angle_beta 90.000000
_cell_angle_gamma 90.000000
_cell_volume 5225.883110
_symmetry_space_group_name_H-M "I M M M"
_symmetry_group_IT_number 71
_symmetry_cell_setting 'orthorhombic'
loop_
_space_group_symop_operation_xyz
x,y,z
-x,-y,z
x,-y,-z
-x,y,-z
-x,-y,-z
x,y,-z
-x,y,z
x,-y,z
1/2+x,1/2+y,1/2+z
1/2-x,1/2-y,1/2+z
1/2+x,1/2-y,1/2-z
1/2-x,1/2+y,1/2-z
1/2-x,1/2-y,1/2-z
1/2+x,1/2+y,1/2-z
1/2-x,1/2+y,1/2+z
1/2+x,1/2-y,1/2+z
loop_
_atom_site_type_symbol
_atom_site_label
_atom_site_fract_x
_atom_site_fract_y
_atom_site_fract_z
Si Si1 0.691795 0.566966 0.000000
Si Si2 0.801881 0.500000 0.443956
Si Si3 0.695459 0.824256 0.792597
Si Si4 0.810365 0.783602 0.056486
Si Si5 0.691773 0.153068 0.416399
Si Si6 0.189091 0.610384 0.617043
Si Si7 0.808042 0.808780 0.314486
O O1 0.742619 0.602963 0.048127
O O2 0.755233 0.500000 0.000000
O O3 0.500000 0.564313 0.000000
O O4 0.750019 0.500000 0.500000
O O5 0.744783 0.556947 0.414412
O O6 0.000000 0.500000 0.445063
O O7 0.500000 0.823726 0.791579
O O8 0.753716 0.874032 0.829698
O O9 0.757917 0.832041 0.738283
O O10 0.746877 0.759835 0.812729
O O11 0.754121 0.717119 0.064592
O O12 0.712179 0.830196 0.086976
O O13 0.000000 0.786856 0.070128
O O14 0.797180 0.797939 0.000000
O O15 0.500000 0.150896 0.420664
O O16 0.738375 0.155140 0.359709
O O17 0.000000 0.598278 0.623071
O O18 0.000000 0.808716 0.319029
#
# Coordination Sequence:
#
# PCOD9519553 Si02
#       7
#     8   8  16  16  16  16  16
#     4  11  25  43  63  87 117 150 185 226 273 331
#     4   9  18  32  51  77 109 145 185 230 279 326
#     4   9  18  31  49  77 109 144 184 229 286 339
#     4  10  20  33  49  77 111 140 175 224 276 326
#     4  11  21  36  58  84 114 147 183 223 273 332
#     4  10  19  33  53  77 105 142 189 234 277 332
#     4  10  19  32  52  81 113 143 180 228 285 339
#
# _framework density 18.370101999999999
#
# number of rings (size 3 to 8) (size 9 to 14) (size 15 to 20)
#    0.000    2.000    2.500    1.750    0.000    3.667 
#    0.000    0.417    1.833    1.500    0.000    0.000 
#    0.000    0.000    0.000    0.000    0.000    0.000 
#
# Total GULP energy -267728.933513 kJ/mol
# GULP energy per Si atom -5577.686115 kJ/mol
# Density = 1.832829 g / cm^3
# Si number density = 18.370102 Si / 1000 Ang^3
#
#
#
# Elastic Constant Matrix: (Units=GPa)
#
#
# Indices 1 2 3 4 5 6 
#
# 1 10.9469 13.0128 15.9398 0.0000 0.0000 0.0000
# 2 13.0128 104.6204 81.5580 0.0000 0.0000 0.0000
# 3 15.9398 81.5580 151.8810 0.0000 0.0000 0.0000
# 4 0.0000 0.0000 0.0000 27.6387 0.0000 0.0000
# 5 0.0000 0.0000 0.0000 0.0000 26.7247 0.0000
# 6 0.0000 0.0000 0.0000 0.0000 0.0000 23.6986
#
#
#
# Elastic Compliance Matrix: (Units=1/GPa)
#
#
# Indices 1 2 3 4 5 6 
#
# 1 0.111757 -0.008182 -0.007335 0.000000 0.000000 0.000000
# 2 -0.008182 0.017040 -0.008291 0.000000 0.000000 0.000000
# 3 -0.007335 -0.008291 0.011806 0.000000 0.000000 0.000000
# 4 0.000000 0.000000 0.000000 0.036181 0.000000 0.000000
# 5 0.000000 0.000000 0.000000 0.000000 0.037419 0.000000
# 6 0.000000 0.000000 0.000000 0.000000 0.000000 0.042197
#
#
# Mechanical properties :
#
#
# Convention : Reuss Voigt Hill
#
# Bulk Modulus (GPa) = 10.75437 54.27438 32.51438
# Shear Modulus (GPa) = 14.92485 26.07492 20.49988
#
# Velocity S-wave (km/s) = 2.85345 3.77161 3.34419
# Velocity P-wave (km/s) = 4.08940 6.96963 5.71397
#
# Compressibility (1/GPa) = 0.09298541
#
# Stress axis : x y z
#
# Youngs Moduli (GPa) = 8.94799 58.68636 84.70094
#
# Poissons Ratio (x) = 0.48020 0.62127
# Poissons Ratio (y) = 0.07322 0.70229
# Poissons Ratio (z) = 0.06563 0.48659
#
# Static dielectric constant tensor:
#      x y z
#    x 1.641740 0.000000 0.000000 
#    y 0.000000 1.631870 0.000000 
#    z 0.000000 0.000000 1.643750 
# 
# From -- ./inp_files/57917.got.cif
#   From: 2010.05.17/outbox.cif.g08.bks.cpg/sg71_29_cif.got.tgz:57917.got - 2010.06.03 16:22:01.
