data_PCOD9519223
_publ_section_title
;
Structure prediction by ZEFSAII (Michael W. Deem and Ramdas Pophale) SiO2 
 PCOD9519223
Probable space group: I M M M
;
_chemical_formula_sum "Si O2"
_cell_formula_units_Z 88
_cell_length_a 20.860774
_cell_length_b 25.298499
_cell_length_c 7.775541
_cell_angle_alpha 90.000000
_cell_angle_beta 90.000000
_cell_angle_gamma 90.000000
_cell_volume 4103.512761
_symmetry_space_group_name_H-M "I M M M"
_symmetry_group_IT_number 71
_symmetry_cell_setting 'orthorhombic'
loop_
_space_group_symop_operation_xyz
x,y,z
-x,-y,z
x,-y,-z
-x,y,-z
-x,-y,-z
x,y,-z
-x,y,z
x,-y,z
1/2+x,1/2+y,1/2+z
1/2-x,1/2-y,1/2+z
1/2+x,1/2-y,1/2-z
1/2-x,1/2+y,1/2-z
1/2-x,1/2-y,1/2-z
1/2+x,1/2+y,1/2-z
1/2-x,1/2+y,1/2+z
1/2+x,1/2-y,1/2+z
loop_
_atom_site_type_symbol
_atom_site_label
_atom_site_fract_x
_atom_site_fract_y
_atom_site_fract_z
Si Si1 0.931378 0.206928 0.208585
Si Si2 0.817082 0.278641 0.208458
Si Si3 0.569462 0.582862 0.291249
Si Si4 0.710270 0.560776 0.303729
Si Si5 0.841633 0.396201 0.194047
Si Si6 0.425657 0.000000 0.796998
O O1 0.871669 0.239075 0.272853
O O2 0.928504 0.145054 0.248168
O O3 0.000000 0.228107 0.267574
O O4 0.930340 0.209679 0.000000
O O5 0.750000 0.250000 0.250000
O O6 0.836492 0.337302 0.275266
O O7 0.818288 0.282111 0.000000
O O8 0.568992 0.575282 0.500000
O O9 0.500000 0.562556 0.229683
O O10 0.638151 0.562305 0.231972
O O11 0.709075 0.583307 0.500000
O O12 0.728683 0.500000 0.317073
O O13 0.766850 0.587461 0.200377
O O14 0.884673 0.446173 0.256855
O O15 0.864344 0.388588 0.000000
O O16 0.500000 0.000000 0.725908
O O17 0.432056 0.000000 0.000000
#
# Coordination Sequence:
#
# PCOD9519223 Si02
#       6
#    16  16  16  16  16   8
#     4   8  14  27  47  70  99 135 174 216 264 318
#     4  10  21  35  55  85 116 150 191 235 286 344
#     4   8  14  25  44  73 106 139 178 225 270 313
#     4  10  19  31  51  76 104 143 186 227 277 333
#     4  11  23  38  58  85 117 152 192 241 298 356
#     4  11  25  45  67  89 114 151 202 255 309 370
#
# _framework density 21.445041
#
# number of rings (size 3 to 8) (size 9 to 14) (size 15 to 20)
#    0.000    2.455    0.909    3.000    0.000    4.727 
#    0.000    3.636    0.000    1.091    0.000    6.364 
#    0.000    0.000    0.000    0.000    0.000    0.000 
#
# Total GULP energy -244955.645766 kJ/mol
# GULP energy per Si atom -5567.173767 kJ/mol
# Density = 2.139623 g / cm^3
# Si number density = 21.445041 Si / 1000 Ang^3
#
#
#
# Elastic Constant Matrix: (Units=GPa)
#
#
# Indices 1 2 3 4 5 6 
#
# 1 142.6174 61.5459 0.9731 0.0000 0.0000 0.0000
# 2 61.5459 120.2057 10.2598 0.0000 0.0000 0.0000
# 3 0.9731 10.2598 33.4561 0.0000 0.0000 0.0000
# 4 0.0000 0.0000 0.0000 6.0454 0.0000 0.0000
# 5 0.0000 0.0000 0.0000 0.0000 0.8318 0.0000
# 6 0.0000 0.0000 0.0000 0.0000 0.0000 34.6707
#
#
#
# Elastic Compliance Matrix: (Units=1/GPa)
#
#
# Indices 1 2 3 4 5 6 
#
# 1 0.009046 -0.004733 0.001188 0.000000 0.000000 0.000000
# 2 -0.004733 0.011019 -0.003242 0.000000 0.000000 0.000000
# 3 0.001188 -0.003242 0.030849 0.000000 0.000000 0.000000
# 4 0.000000 0.000000 0.000000 0.165415 0.000000 0.000000
# 5 0.000000 0.000000 0.000000 0.000000 1.202205 0.000000
# 6 0.000000 0.000000 0.000000 0.000000 0.000000 0.028843
#
#
# Mechanical properties :
#
#
# Convention : Reuss Voigt Hill
#
# Bulk Modulus (GPa) = 26.77933 49.09299 37.93616
# Shear Modulus (GPa) = 3.39352 23.20960 13.30156
#
# Velocity S-wave (km/s) = 1.25931 3.29338 2.49321
# Velocity P-wave (km/s) = 3.82479 6.11588 5.10063
#
# Compressibility (1/GPa) = 0.03734223
#
# Stress axis : x y z
#
# Youngs Moduli (GPa) = 110.54328 90.75118 32.41548
#
# Poissons Ratio (x) = 0.42954 -0.03852
# Poissons Ratio (y) = 0.52322 0.10508
# Poissons Ratio (z) = -0.13137 0.29417
#
# Static dielectric constant tensor:
#      x y z
#    x 1.811020 0.000000 0.000000 
#    y 0.000000 1.814960 0.000000 
#    z 0.000000 0.000000 1.828780 
# 
# From -- ./inp_files/10386.got.cif
#   From: 2010.05.17/outbox.cif.g08.bks.cpg/sg71_6_cif.got.tgz:10386.got - 2010.06.03 16:22:01.
