data_PCOD9519951
_publ_section_title
;
Structure prediction by ZEFSAII (Michael W. Deem and Ramdas Pophale) SiO2 
 PCOD9519951
Probable space group: I M M M
;
_chemical_formula_sum "Si O2"
_cell_formula_units_Z 88
_cell_length_a 29.541143
_cell_length_b 17.542605
_cell_length_c 8.960235
_cell_angle_alpha 90.000000
_cell_angle_beta 90.000000
_cell_angle_gamma 90.000000
_cell_volume 4643.450066
_symmetry_space_group_name_H-M "I M M M"
_symmetry_group_IT_number 71
_symmetry_cell_setting 'orthorhombic'
loop_
_space_group_symop_operation_xyz
x,y,z
-x,-y,z
x,-y,-z
-x,y,-z
-x,-y,-z
x,y,-z
-x,y,z
x,-y,z
1/2+x,1/2+y,1/2+z
1/2-x,1/2-y,1/2+z
1/2+x,1/2-y,1/2-z
1/2-x,1/2+y,1/2-z
1/2-x,1/2-y,1/2-z
1/2+x,1/2+y,1/2-z
1/2-x,1/2+y,1/2+z
1/2+x,1/2-y,1/2+z
loop_
_atom_site_type_symbol
_atom_site_label
_atom_site_fract_x
_atom_site_fract_y
_atom_site_fract_z
Si Si1 0.415548 0.319003 0.821143
Si Si2 0.447298 0.832177 0.326659
Si Si3 0.430178 0.000000 0.670933
Si Si4 0.177568 0.500000 0.169500
Si Si5 0.279205 0.855610 0.177654
Si Si6 0.187024 0.813298 0.679187
Si Si7 0.000000 0.090961 0.821377
O O1 0.422343 0.231874 0.767668
O O2 0.363644 0.339186 0.779933
O O3 0.454933 0.369668 0.746549
O O4 0.419982 0.323596 0.000000
O O5 0.430861 0.832847 0.500000
O O6 0.500000 0.810624 0.329400
O O7 0.444105 0.918281 0.264640
O O8 0.376364 0.000000 0.666516
O O9 0.448164 0.000000 0.500000
O O10 0.194269 0.425258 0.252467
O O11 0.194729 0.500000 0.000000
O O12 0.228281 0.855433 0.241154
O O13 0.303881 0.775808 0.216877
O O14 0.277986 0.861075 0.000000
O O15 0.191544 0.820753 0.500000
O O16 0.000000 0.000000 0.791353
O O17 0.000000 0.102630 0.000000
#
# Coordination Sequence:
#
# PCOD9519951 Si02
#       7
#    16  16   8   8  16  16   8
#     4  11  22  38  62  89 118 150 187 233 291 353
#     4  10  19  33  55  82 117 157 198 240 278 324
#     4   9  19  33  52  82 116 160 206 237 274 325
#     4  11  21  34  53  78 114 153 191 235 282 335
#     4  10  20  36  58  83 114 150 191 235 281 335
#     4   9  20  38  59  85 114 149 188 231 283 341
#     4  11  25  45  65  86 113 146 189 241 290 343
#
# _framework density 18.951426999999999
#
# number of rings (size 3 to 8) (size 9 to 14) (size 15 to 20)
#    0.000    1.909    0.909    3.000    0.000    4.000 
#    1.636    1.364    0.000    1.091    0.000    0.000 
#    0.000    0.000    0.000    0.000    0.000    0.000 
#
# Total GULP energy -245610.337873 kJ/mol
# GULP energy per Si atom -5582.053133 kJ/mol
# Density = 1.890829 g / cm^3
# Si number density = 18.951427 Si / 1000 Ang^3
#
#
#
# Elastic Constant Matrix: (Units=GPa)
#
#
# Indices 1 2 3 4 5 6 
#
# 1 137.3411 31.1776 42.9671 0.0000 0.0000 0.0000
# 2 31.1776 57.1179 21.8710 0.0000 0.0000 0.0000
# 3 42.9671 21.8710 36.7211 0.0000 0.0000 0.0000
# 4 0.0000 0.0000 0.0000 20.4312 0.0000 0.0000
# 5 0.0000 0.0000 0.0000 0.0000 24.4445 0.0000
# 6 0.0000 0.0000 0.0000 0.0000 0.0000 24.3971
#
#
#
# Elastic Compliance Matrix: (Units=1/GPa)
#
#
# Indices 1 2 3 4 5 6 
#
# 1 0.011580 -0.001467 -0.012676 0.000000 0.000000 0.000000
# 2 -0.001467 0.022866 -0.011902 0.000000 0.000000 0.000000
# 3 -0.012676 -0.011902 0.049153 0.000000 0.000000 0.000000
# 4 0.000000 0.000000 0.000000 0.048945 0.000000 0.000000
# 5 0.000000 0.000000 0.000000 0.000000 0.040909 0.000000
# 6 0.000000 0.000000 0.000000 0.000000 0.000000 0.040988
#
#
# Mechanical properties :
#
#
# Convention : Reuss Voigt Hill
#
# Bulk Modulus (GPa) = 31.73732 47.02353 39.38043
# Shear Modulus (GPa) = 18.04838 22.86553 20.45695
#
# Velocity S-wave (km/s) = 3.08936 3.47729 3.28905
# Velocity P-wave (km/s) = 5.43218 6.40223 5.93705
#
# Compressibility (1/GPa) = 0.03150865
#
# Stress axis : x y z
#
# Youngs Moduli (GPa) = 86.35781 43.73311 20.34477
#
# Poissons Ratio (x) = 0.06416 0.25788
# Poissons Ratio (y) = 0.12670 0.24215
# Poissons Ratio (z) = 1.09463 0.52052
#
# Static dielectric constant tensor:
#      x y z
#    x 1.648290 0.000000 0.000000 
#    y 0.000000 1.651190 0.000000 
#    z 0.000000 0.000000 1.642670 
# 
# From -- ./inp_files/16745.got.cif
#   From: 2010.05.17/outbox.cif.g08.bks.cpg/sg71_9_cif.got.tgz:16745.got - 2010.06.03 16:22:01.
