data_PCOD9519152
_publ_section_title
;
Structure prediction by ZEFSAII (Michael W. Deem and Ramdas Pophale) SiO2 
 PCOD9519152
Probable space group: I M M M
;
_chemical_formula_sum "Si O2"
_cell_formula_units_Z 104
_cell_length_a 35.086750
_cell_length_b 18.562085
_cell_length_c 7.320239
_cell_angle_alpha 90.000000
_cell_angle_beta 90.000000
_cell_angle_gamma 90.000000
_cell_volume 4767.548943
_symmetry_space_group_name_H-M "I M M M"
_symmetry_group_IT_number 71
_symmetry_cell_setting 'orthorhombic'
loop_
_space_group_symop_operation_xyz
x,y,z
-x,-y,z
x,-y,-z
-x,y,-z
-x,-y,-z
x,y,-z
-x,y,z
x,-y,z
1/2+x,1/2+y,1/2+z
1/2-x,1/2-y,1/2+z
1/2+x,1/2-y,1/2-z
1/2-x,1/2+y,1/2-z
1/2-x,1/2-y,1/2-z
1/2+x,1/2+y,1/2-z
1/2-x,1/2+y,1/2+z
1/2+x,1/2-y,1/2+z
loop_
_atom_site_type_symbol
_atom_site_label
_atom_site_fract_x
_atom_site_fract_y
_atom_site_fract_z
Si Si1 0.543650 0.794883 0.222662
Si Si2 0.760933 0.918625 0.781019
Si Si3 0.044021 0.000000 0.722942
Si Si4 0.915534 0.853022 0.723022
Si Si5 0.102351 0.418279 0.722584
Si Si6 0.682085 0.151801 0.776773
Si Si7 0.168384 0.185936 0.283775
O O1 0.500000 0.803201 0.280911
O O2 0.560998 0.717921 0.278069
O O3 0.571095 0.859878 0.281450
O O4 0.543861 0.795267 0.000000
O O5 0.721474 0.883707 0.714831
O O6 0.796914 0.868422 0.741970
O O7 0.765995 0.000000 0.712992
O O8 0.757850 0.922317 0.000000
O O9 0.065275 0.072631 0.782209
O O10 0.044297 0.000000 0.500000
O O11 0.000000 0.000000 0.779279
O O12 0.915833 0.854228 0.500000
O O13 0.871926 0.843878 0.785128
O O14 0.101977 0.418030 0.500000
O O15 0.094803 0.500000 0.781196
O O16 0.144469 0.392108 0.777367
O O17 0.678135 0.234318 0.714173
O O18 0.682761 0.151712 0.000000
O O19 0.162888 0.195162 0.500000
#
# Coordination Sequence:
#
# PCOD9519152 Si02
#       7
#    16  16   8  16  16  16  16
#     4   9  15  23  35  53  83 120 153 187 228 274
#     4  10  21  34  48  68  94 123 156 194 234 279
#     4   9  16  24  36  56  85 121 155 185 223 277
#     4   9  16  26  39  59  86 118 152 187 231 279
#     4   9  15  23  37  57  83 119 160 192 223 273
#     4   9  16  30  47  64  86 118 157 193 230 275
#     4  10  19  31  50  71  93 122 157 195 236 278
#
# _framework density 21.814145
#
# number of rings (size 3 to 8) (size 9 to 14) (size 15 to 20)
#    0.000    2.692    1.538    1.385    1.077    4.308 
#    0.000    1.538    0.000    0.000    0.000    0.000 
#    0.000    3.077    0.000    0.000    0.000    2.308 
#
# Total GULP energy -290634.045528 kJ/mol
# GULP energy per Si atom -5589.116260 kJ/mol
# Density = 2.176450 g / cm^3
# Si number density = 21.814145 Si / 1000 Ang^3
#
#
#
# Elastic Constant Matrix: (Units=GPa)
#
#
# Indices 1 2 3 4 5 6 
#
# 1 188.1942 117.4350 -7.3666 0.0000 0.0000 0.0000
# 2 117.4350 235.2857 -1.7883 0.0000 0.0000 0.0000
# 3 -7.3666 -1.7883 83.9540 0.0000 0.0000 0.0000
# 4 0.0000 0.0000 0.0000 -5.2411 0.0000 0.0000
# 5 0.0000 0.0000 0.0000 0.0000 -10.3733 0.0000
# 6 0.0000 0.0000 0.0000 0.0000 0.0000 27.3673
#
#
#
# Elastic Compliance Matrix: (Units=1/GPa)
#
#
# Indices 1 2 3 4 5 6 
#
# 1 0.007747 -0.003862 0.000598 0.000000 0.000000 0.000000
# 2 -0.003862 0.006176 -0.000207 0.000000 0.000000 0.000000
# 3 0.000598 -0.000207 0.011959 0.000000 0.000000 0.000000
# 4 0.000000 0.000000 0.000000 -0.190799 0.000000 0.000000
# 5 0.000000 0.000000 0.000000 0.000000 -0.096401 0.000000
# 6 0.000000 0.000000 0.000000 0.000000 0.000000 0.036540
#
#
# Mechanical properties :
#
#
# Convention : Reuss Voigt Hill
#
# Bulk Modulus (GPa) = 52.80205 80.44379 66.62292
# Shear Modulus (GPa) = -23.63828 28.96084 2.66128
#
# Velocity S-wave (km/s) = -3.29541 3.64760 1.10572
# Velocity P-wave (km/s) = 3.12703 7.39574 5.67782
#
# Compressibility (1/GPa) = 0.01893866
#
# Stress axis : x y z
#
# Youngs Moduli (GPa) = 129.08115 161.91085 83.61697
#
# Poissons Ratio (x) = 0.62532 -0.04996
# Poissons Ratio (y) = 0.49853 0.01734
# Poissons Ratio (z) = -0.07713 0.03357
#
# Static dielectric constant tensor:
#      x y z
#    x 1.734970 0.000000 0.000000 
#    y 0.000000 1.750870 0.000000 
#    z 0.000000 0.000000 2.010060 
# 
# From -- ./inp_files/30180.got.cif
#   From: 2010.05.17/outbox.cif.g08.bks.cpg/sg71_16_cif.got.tgz:30180.got - 2010.06.03 16:22:01.
