data_PCOD9519625
_publ_section_title
;
Structure prediction by ZEFSAII (Michael W. Deem and Ramdas Pophale) SiO2 
 PCOD9519625
Probable space group: I M M M
;
_chemical_formula_sum "Si O2"
_cell_formula_units_Z 80
_cell_length_a 22.572072
_cell_length_b 7.472682
_cell_length_c 22.297928
_cell_angle_alpha 90.000000
_cell_angle_beta 90.000000
_cell_angle_gamma 90.000000
_cell_volume 3761.078838
_symmetry_space_group_name_H-M "I M M M"
_symmetry_group_IT_number 71
_symmetry_cell_setting 'orthorhombic'
loop_
_space_group_symop_operation_xyz
x,y,z
-x,-y,z
x,-y,-z
-x,y,-z
-x,-y,-z
x,y,-z
-x,y,z
x,-y,z
1/2+x,1/2+y,1/2+z
1/2-x,1/2-y,1/2+z
1/2+x,1/2-y,1/2-z
1/2-x,1/2+y,1/2-z
1/2-x,1/2-y,1/2-z
1/2+x,1/2+y,1/2-z
1/2-x,1/2+y,1/2+z
1/2+x,1/2-y,1/2+z
loop_
_atom_site_type_symbol
_atom_site_label
_atom_site_fract_x
_atom_site_fract_y
_atom_site_fract_z
Si Si1 0.932118 0.284845 0.500000
Si Si2 0.358705 0.708843 0.881605
Si Si3 0.000000 0.281113 0.931207
Si Si4 0.733494 0.780586 0.569969
Si Si5 0.567903 0.286437 0.230924
Si Si6 0.116093 0.714819 0.861126
O O1 0.931128 0.500000 0.500000
O O2 0.898570 0.221158 0.440874
O O3 0.000000 0.224534 0.500000
O O4 0.348608 0.500000 0.867318
O O5 0.294310 0.782571 0.899175
O O6 0.395386 0.786218 0.825800
O O7 0.941173 0.219795 0.897498
O O8 0.000000 0.500000 0.929937
O O9 0.000000 0.226424 0.000000
O O10 0.730546 0.726411 0.500000
O O11 0.676591 0.721764 0.608181
O O12 0.734316 0.000000 0.569392
O O13 0.500000 0.217017 0.235505
O O14 0.562654 0.500000 0.222793
O O15 0.604132 0.256278 0.291859
O O16 0.117016 0.500000 0.866463
#
# Coordination Sequence:
#
# PCOD9519625 Si02
#       6
#     8  16   8  16  16  16
#     4  11  23  37  55  85 117 142 177 232 286 324
#     4  10  20  37  60  81 105 147 191 225 270 330
#     4   9  16  28  49  79 107 136 181 228 267 321
#     4   9  17  32  56  84 109 136 180 236 276 318
#     4  10  21  36  53  76 109 146 186 229 271 325
#     4  10  19  32  54  81 108 142 182 226 281 330
#
# _framework density 21.270493999999999
#
# number of rings (size 3 to 8) (size 9 to 14) (size 15 to 20)
#    0.000    2.200    2.000    1.500    0.000    5.600 
#    0.000    1.000    0.000    2.400    0.000    0.000 
#    0.000    0.000    0.000    0.000    0.000    0.000 
#
# Total GULP energy -223457.234132 kJ/mol
# GULP energy per Si atom -5586.430853 kJ/mol
# Density = 2.122208 g / cm^3
# Si number density = 21.270494 Si / 1000 Ang^3
#
#
#
# Elastic Constant Matrix: (Units=GPa)
#
#
# Indices 1 2 3 4 5 6 
#
# 1 232.0958 4.7573 121.1364 0.0000 0.0000 0.0000
# 2 4.7573 61.4854 -6.8201 0.0000 0.0000 0.0000
# 3 121.1364 -6.8201 202.4342 0.0000 0.0000 0.0000
# 4 0.0000 0.0000 0.0000 20.9335 0.0000 0.0000
# 5 0.0000 0.0000 0.0000 0.0000 5.8621 0.0000
# 6 0.0000 0.0000 0.0000 0.0000 0.0000 383.1347
#
#
#
# Elastic Compliance Matrix: (Units=1/GPa)
#
#
# Indices 1 2 3 4 5 6 
#
# 1 0.006316 -0.000911 -0.003810 0.000000 0.000000 0.000000
# 2 -0.000911 0.016457 0.001100 0.000000 0.000000 0.000000
# 3 -0.003810 0.001100 0.007257 0.000000 0.000000 0.000000
# 4 0.000000 0.000000 0.000000 0.047770 0.000000 0.000000
# 5 0.000000 0.000000 0.000000 0.000000 0.170588 0.000000
# 6 0.000000 0.000000 0.000000 0.000000 0.000000 0.002610
#
#
# Mechanical properties :
#
#
# Convention : Reuss Voigt Hill
#
# Bulk Modulus (GPa) = 43.88669 81.57363 62.73016
# Shear Modulus (GPa) = 18.80860 107.11551 62.96205
#
# Velocity S-wave (km/s) = 2.97687 7.10409 5.44655
# Velocity P-wave (km/s) = 5.70028 10.28225 8.31317
#
# Compressibility (1/GPa) = 0.02278595
#
# Stress axis : x y z
#
# Youngs Moduli (GPa) = 158.33257 60.76621 137.80032
#
# Poissons Ratio (x) = 0.05538 0.52503
# Poissons Ratio (y) = 0.14429 -0.15155
# Poissons Ratio (z) = 0.60326 -0.06683
#
# Static dielectric constant tensor:
#      x y z
#    x 1.749410 0.000000 0.000000 
#    y 0.000000 1.826550 0.000000 
#    z 0.000000 0.000000 1.715600 
# 
# From -- ./inp_files/50390.got.cif
#   From: 2010.05.17/outbox.cif.g08.bks.cpg/sg71_26_cif.got.tgz:50390.got - 2010.06.03 16:22:01.
