data_PCOD9519344
_publ_section_title
;
Structure prediction by ZEFSAII (Michael W. Deem and Ramdas Pophale) SiO2 
 PCOD9519344
Probable space group: I M M M
;
_chemical_formula_sum "Si O2"
_cell_formula_units_Z 104
_cell_length_a 28.344251
_cell_length_b 23.002161
_cell_length_c 7.423361
_cell_angle_alpha 90.000000
_cell_angle_beta 90.000000
_cell_angle_gamma 90.000000
_cell_volume 4839.875666
_symmetry_space_group_name_H-M "I M M M"
_symmetry_group_IT_number 71
_symmetry_cell_setting 'orthorhombic'
loop_
_space_group_symop_operation_xyz
x,y,z
-x,-y,z
x,-y,-z
-x,y,-z
-x,-y,-z
x,y,-z
-x,y,z
x,-y,z
1/2+x,1/2+y,1/2+z
1/2-x,1/2-y,1/2+z
1/2+x,1/2-y,1/2-z
1/2-x,1/2+y,1/2-z
1/2-x,1/2-y,1/2-z
1/2+x,1/2+y,1/2-z
1/2-x,1/2+y,1/2+z
1/2+x,1/2-y,1/2+z
loop_
_atom_site_type_symbol
_atom_site_label
_atom_site_fract_x
_atom_site_fract_y
_atom_site_fract_z
Si Si1 0.445238 0.767063 0.780237
Si Si2 0.690152 0.433513 0.780246
Si Si3 0.626611 0.674416 0.218429
Si Si4 0.199355 0.275062 0.287622
Si Si5 0.100422 0.387782 0.707229
Si Si6 0.944708 0.500000 0.710344
Si Si7 0.703964 0.095044 0.699739
O O1 0.500000 0.774233 0.726498
O O2 0.422361 0.704941 0.722638
O O3 0.412907 0.822955 0.722245
O O4 0.444164 0.765395 0.000000
O O5 0.678575 0.500000 0.731472
O O6 0.651359 0.385774 0.719615
O O7 0.744481 0.420145 0.721376
O O8 0.691580 0.429760 0.000000
O O9 0.663195 0.725479 0.265291
O O10 0.624543 0.669349 0.000000
O O11 0.191269 0.287308 0.500000
O O12 0.250000 0.250000 0.250000
O O13 0.200319 0.335567 0.188598
O O14 0.085570 0.382201 0.500000
O O15 0.071667 0.439746 0.794814
O O16 0.153668 0.413655 0.707969
O O17 0.927544 0.500000 0.500000
O O18 0.000000 0.500000 0.704635
O O19 0.702284 0.068933 0.500000
#
# Coordination Sequence:
#
# PCOD9519344 Si02
#       7
#    16  16  16  16  16   8  16
#     4   9  16  27  47  72  95 122 159 206 257 304
#     4   9  18  31  46  65  94 134 172 203 242 297
#     4   9  16  28  46  70  96 121 160 205 243 294
#     4  11  19  31  50  75 103 130 162 200 247 296
#     4  10  19  32  49  72 102 132 167 213 257 301
#     4   9  18  32  51  73  97 133 181 223 260 309
#     4  11  21  32  48  72 101 134 172 206 244 300
#
# _framework density 21.488154999999999
#
# number of rings (size 3 to 8) (size 9 to 14) (size 15 to 20)
#    0.000    2.231    3.077    1.385    1.077    1.846 
#    0.000    0.000    0.000    2.769    0.000    3.231 
#    0.000    0.000    0.000    0.000    0.000    3.538 
#
# Total GULP energy -289550.763490 kJ/mol
# GULP energy per Si atom -5568.283913 kJ/mol
# Density = 2.143925 g / cm^3
# Si number density = 21.488155 Si / 1000 Ang^3
#
#
#
# Elastic Constant Matrix: (Units=GPa)
#
#
# Indices 1 2 3 4 5 6 
#
# 1 109.1881 65.9135 1.0316 0.0000 0.0000 0.0000
# 2 65.9135 167.2394 15.2786 0.0000 0.0000 0.0000
# 3 1.0316 15.2786 65.4550 0.0000 0.0000 0.0000
# 4 0.0000 0.0000 0.0000 -3.9416 0.0000 0.0000
# 5 0.0000 0.0000 0.0000 0.0000 7.7377 0.0000
# 6 0.0000 0.0000 0.0000 0.0000 0.0000 32.0336
#
#
#
# Elastic Compliance Matrix: (Units=1/GPa)
#
#
# Indices 1 2 3 4 5 6 
#
# 1 0.012074 -0.004845 0.000941 0.000000 0.000000 0.000000
# 2 -0.004845 0.008054 -0.001804 0.000000 0.000000 0.000000
# 3 0.000941 -0.001804 0.015684 0.000000 0.000000 0.000000
# 4 0.000000 0.000000 0.000000 -0.253704 0.000000 0.000000
# 5 0.000000 0.000000 0.000000 0.000000 0.129237 0.000000
# 6 0.000000 0.000000 0.000000 0.000000 0.000000 0.031217
#
#
# Mechanical properties :
#
#
# Convention : Reuss Voigt Hill
#
# Bulk Modulus (GPa) = 40.98976 56.25889 48.62432
# Shear Modulus (GPa) = -131.95921 24.47652 -53.74135
#
# Velocity S-wave (km/s) = -7.84497 3.37867 -5.00640
# Velocity P-wave (km/s) = 7.93354 6.43885 3.27737
#
# Compressibility (1/GPa) = 0.02439634
#
# Stress axis : x y z
#
# Youngs Moduli (GPa) = 82.82106 124.16731 63.75994
#
# Poissons Ratio (x) = 0.60155 -0.05997
# Poissons Ratio (y) = 0.40124 0.11499
# Poissons Ratio (z) = -0.07790 0.22394
#
# Static dielectric constant tensor:
#      x y z
#    x 1.750260 0.000000 0.000000 
#    y 0.000000 1.766300 0.000000 
#    z 0.000000 0.000000 1.856000 
# 
# From -- ./inp_files/17251.got.cif
#   From: 2010.05.17/outbox.cif.g08.bks.cpg/sg71_9_cif.got.tgz:17251.got - 2010.06.03 16:22:01.
