data_PCOD9519483
_publ_section_title
;
Structure prediction by ZEFSAII (Michael W. Deem and Ramdas Pophale) SiO2 
 PCOD9519483
Probable space group: I M M M
;
_chemical_formula_sum "Si O2"
_cell_formula_units_Z 104
_cell_length_a 26.454385
_cell_length_b 24.362045
_cell_length_c 8.592001
_cell_angle_alpha 90.000000
_cell_angle_beta 90.000000
_cell_angle_gamma 90.000000
_cell_volume 5537.397874
_symmetry_space_group_name_H-M "I M M M"
_symmetry_group_IT_number 71
_symmetry_cell_setting 'orthorhombic'
loop_
_space_group_symop_operation_xyz
x,y,z
-x,-y,z
x,-y,-z
-x,y,-z
-x,-y,-z
x,y,-z
-x,y,z
x,-y,z
1/2+x,1/2+y,1/2+z
1/2-x,1/2-y,1/2+z
1/2+x,1/2-y,1/2-z
1/2-x,1/2+y,1/2-z
1/2-x,1/2-y,1/2-z
1/2+x,1/2+y,1/2-z
1/2-x,1/2+y,1/2+z
1/2+x,1/2-y,1/2+z
loop_
_atom_site_type_symbol
_atom_site_label
_atom_site_fract_x
_atom_site_fract_y
_atom_site_fract_z
Si Si1 0.101673 0.882309 0.818635
Si Si2 0.941105 0.436312 0.812117
Si Si3 0.500000 0.437547 0.309384
Si Si4 0.245941 0.330680 0.817234
Si Si5 0.133914 0.341898 0.685286
Si Si6 0.151837 0.224080 0.685950
Si Si7 0.310519 0.559770 0.822427
O O1 0.120195 0.829026 0.728936
O O2 0.143987 0.928570 0.793435
O O3 0.049457 0.905750 0.758792
O O4 0.097578 0.868705 0.000000
O O5 0.929528 0.500000 0.763831
O O6 0.900777 0.390365 0.755924
O O7 0.000000 0.424788 0.764789
O O8 0.940127 0.435733 0.000000
O O9 0.500000 0.500000 0.256063
O O10 0.500000 0.438576 0.500000
O O11 0.193773 0.340024 0.726694
O O12 0.290494 0.289288 0.756687
O O13 0.272305 0.390214 0.810652
O O14 0.235370 0.317960 0.000000
O O15 0.127825 0.345989 0.500000
O O16 0.123056 0.279071 0.739639
O O17 0.157122 0.228069 0.500000
O O18 0.287320 0.500000 0.797052
O O19 0.330586 0.561444 0.000000
#
# Coordination Sequence:
#
# PCOD9519483 Si02
#       7
#    16  16   8  16  16  16  16
#     4  10  19  32  52  75 100 135 179 226 269 310
#     4   9  20  41  65  85 108 142 183 225 270 326
#     4   9  18  32  49  73 105 135 168 217 272 313
#     4   9  18  33  53  76 108 147 184 220 262 317
#     4  11  22  35  56  86 114 140 175 220 271 323
#     4   9  20  38  54  74 109 147 179 217 268 322
#     4   9  18  33  51  72 103 141 177 216 267 323
#
# _framework density 18.781383999999999
#
# number of rings (size 3 to 8) (size 9 to 14) (size 15 to 20)
#    0.000    2.538    0.000    3.231    0.000    5.846 
#    1.385    3.846    0.000    2.769    0.000    0.000 
#    0.000    0.000    0.000    0.000    0.000    0.000 
#
# Total GULP energy -289504.636083 kJ/mol
# GULP energy per Si atom -5567.396848 kJ/mol
# Density = 1.873864 g / cm^3
# Si number density = 18.781384 Si / 1000 Ang^3
#
#
#
# Elastic Constant Matrix: (Units=GPa)
#
#
# Indices 1 2 3 4 5 6 
#
# 1 93.3832 61.3883 15.0195 0.0000 0.0000 0.0000
# 2 61.3883 137.9390 20.7022 0.0000 0.0000 0.0000
# 3 15.0195 20.7022 7.6593 0.0000 0.0000 0.0000
# 4 0.0000 0.0000 0.0000 19.7311 0.0000 0.0000
# 5 0.0000 0.0000 0.0000 0.0000 24.3487 0.0000
# 6 0.0000 0.0000 0.0000 0.0000 0.0000 26.1005
#
#
#
# Elastic Compliance Matrix: (Units=1/GPa)
#
#
# Indices 1 2 3 4 5 6 
#
# 1 0.017048 -0.004324 -0.021744 0.000000 0.000000 0.000000
# 2 -0.004324 0.013294 -0.027454 0.000000 0.000000 0.000000
# 3 -0.021744 -0.027454 0.247405 0.000000 0.000000 0.000000
# 4 0.000000 0.000000 0.000000 0.050681 0.000000 0.000000
# 5 0.000000 0.000000 0.000000 0.000000 0.041070 0.000000
# 6 0.000000 0.000000 0.000000 0.000000 0.000000 0.038313
#
#
# Mechanical properties :
#
#
# Convention : Reuss Voigt Hill
#
# Bulk Modulus (GPa) = 5.85812 48.13350 26.99581
# Shear Modulus (GPa) = 8.74498 23.49418 16.11958
#
# Velocity S-wave (km/s) = 2.16016 3.54068 2.93281
# Velocity P-wave (km/s) = 3.05739 6.51147 5.08659
#
# Compressibility (1/GPa) = 0.17070327
#
# Stress axis : x y z
#
# Youngs Moduli (GPa) = 58.65738 75.22114 4.04196
#
# Poissons Ratio (x) = 0.32523 0.08789
# Poissons Ratio (y) = 0.25362 0.11097
# Poissons Ratio (z) = 1.27546 2.06512
#
# Static dielectric constant tensor:
#      x y z
#    x 1.694660 0.000000 0.000000 
#    y 0.000000 1.688600 0.000000 
#    z 0.000000 0.000000 1.667190 
# 
# From -- ./inp_files/15303.got.cif
#   From: 2010.05.17/outbox.cif.g08.bks.cpg/sg71_8_cif.got.tgz:15303.got - 2010.06.03 16:22:01.
