data_PCOD9519742
_publ_section_title
;
Structure prediction by ZEFSAII (Michael W. Deem and Ramdas Pophale) SiO2 
 PCOD9519742
Probable space group: I M M M
;
_chemical_formula_sum "Si O2"
_cell_formula_units_Z 120
_cell_length_a 28.809659
_cell_length_b 27.498140
_cell_length_c 8.471675
_cell_angle_alpha 90.000000
_cell_angle_beta 90.000000
_cell_angle_gamma 90.000000
_cell_volume 6711.362905
_symmetry_space_group_name_H-M "I M M M"
_symmetry_group_IT_number 71
_symmetry_cell_setting 'orthorhombic'
loop_
_space_group_symop_operation_xyz
x,y,z
-x,-y,z
x,-y,-z
-x,y,-z
-x,-y,-z
x,y,-z
-x,y,z
x,-y,z
1/2+x,1/2+y,1/2+z
1/2-x,1/2-y,1/2+z
1/2+x,1/2-y,1/2-z
1/2-x,1/2+y,1/2-z
1/2-x,1/2-y,1/2-z
1/2+x,1/2+y,1/2-z
1/2-x,1/2+y,1/2+z
1/2+x,1/2-y,1/2+z
loop_
_atom_site_type_symbol
_atom_site_label
_atom_site_fract_x
_atom_site_fract_y
_atom_site_fract_z
Si Si1 0.311580 0.554833 0.311022
Si Si2 0.388065 0.905941 0.690894
Si Si3 0.052855 0.792861 0.690597
Si Si4 0.361687 0.650112 0.309270
Si Si5 0.789270 0.442171 0.813818
Si Si6 0.553474 0.000000 0.692848
Si Si7 0.802144 0.243799 0.810926
Si Si8 0.611392 0.800780 0.811150
O O1 0.316557 0.552701 0.500000
O O2 0.319472 0.500000 0.247995
O O3 0.344817 0.597522 0.251572
O O4 0.258539 0.568847 0.272952
O O5 0.387795 0.906547 0.500000
O O6 0.335015 0.914969 0.744195
O O7 0.419651 0.951225 0.743467
O O8 0.403174 0.853341 0.749182
O O9 0.052824 0.793578 0.500000
O O10 0.087925 0.833957 0.750426
O O11 0.075838 0.741566 0.740674
O O12 0.000000 0.797821 0.745694
O O13 0.361869 0.649834 0.500000
O O14 0.325368 0.692424 0.259601
O O15 0.798257 0.500000 0.798277
O O16 0.783035 0.432049 0.000000
O O17 0.500000 0.000000 0.743158
O O18 0.554148 0.000000 0.500000
O O19 0.750000 0.250000 0.750000
O O20 0.837854 0.284956 0.751170
O O21 0.801522 0.244992 0.000000
O O22 0.612717 0.801344 0.000000
#
# Coordination Sequence:
#
# PCOD9519742 Si02
#       8
#    16  16  16  16  16   8  16  16
#     4   9  18  32  50  75 107 139 168 202 245 298
#     4  10  19  33  51  73 101 132 173 222 265 312
#     4   9  19  37  58  77  99 130 169 212 259 310
#     4   9  19  34  52  77 106 134 168 210 250 298
#     4   9  17  30  47  68  96 133 172 210 249 294
#     4   9  18  34  55  75  99 135 177 223 276 327
#     4  10  20  34  50  73 106 140 174 213 258 307
#     4  10  21  35  51  74 102 134 172 214 264 316
#
# _framework density 17.880123999999999
#
# number of rings (size 3 to 8) (size 9 to 14) (size 15 to 20)
#    0.000    2.600    0.667    0.800    1.867    2.933 
#    0.000    0.333    0.000    0.800    0.000    2.800 
#    0.000    0.000    0.000    0.000    0.000    0.000 
#
# Total GULP energy -334648.835129 kJ/mol
# GULP energy per Si atom -5577.480585 kJ/mol
# Density = 1.783943 g / cm^3
# Si number density = 17.880124 Si / 1000 Ang^3
#
#
#
# Elastic Constant Matrix: (Units=GPa)
#
#
# Indices 1 2 3 4 5 6 
#
# 1 145.6226 81.7572 16.3423 0.0000 0.0000 0.0000
# 2 81.7572 127.4974 17.6292 0.0000 0.0000 0.0000
# 3 16.3423 17.6292 7.6036 0.0000 0.0000 0.0000
# 4 0.0000 0.0000 0.0000 18.7705 0.0000 0.0000
# 5 0.0000 0.0000 0.0000 0.0000 13.5176 0.0000
# 6 0.0000 0.0000 0.0000 0.0000 0.0000 13.6816
#
#
#
# Elastic Compliance Matrix: (Units=1/GPa)
#
#
# Indices 1 2 3 4 5 6 
#
# 1 0.011327 -0.005736 -0.011046 0.000000 0.000000 0.000000
# 2 -0.005736 0.014449 -0.021172 0.000000 0.000000 0.000000
# 3 -0.011046 -0.021172 0.204347 0.000000 0.000000 0.000000
# 4 0.000000 0.000000 0.000000 0.053275 0.000000 0.000000
# 5 0.000000 0.000000 0.000000 0.000000 0.073978 0.000000
# 6 0.000000 0.000000 0.000000 0.000000 0.000000 0.073091
#
#
# Mechanical properties :
#
#
# Convention : Reuss Voigt Hill
#
# Bulk Modulus (GPa) = 6.48445 56.90902 31.69674
# Shear Modulus (GPa) = 8.96409 20.19358 14.57883
#
# Velocity S-wave (km/s) = 2.24150 3.36428 2.85856
# Velocity P-wave (km/s) = 3.21459 6.85481 5.35360
#
# Compressibility (1/GPa) = 0.15421507
#
# Stress axis : x y z
#
# Youngs Moduli (GPa) = 88.28354 69.20842 4.89363
#
# Poissons Ratio (x) = 0.39699 0.05405
# Poissons Ratio (y) = 0.50641 0.10361
# Poissons Ratio (z) = 0.97517 1.46530
#
# Static dielectric constant tensor:
#      x y z
#    x 1.589890 0.000000 0.000000 
#    y 0.000000 1.621310 0.000000 
#    z 0.000000 0.000000 1.615110 
# 
# From -- ./inp_files/15608.got.cif
#   From: 2010.05.17/outbox.cif.g08.bks.cpg/sg71_8_cif.got.tgz:15608.got - 2010.06.03 16:22:01.
