data_PCOD9519684
_publ_section_title
;
Structure prediction by ZEFSAII (Michael W. Deem and Ramdas Pophale) SiO2 
 PCOD9519684
Probable space group: I M M M
;
_chemical_formula_sum "Si O2"
_cell_formula_units_Z 108
_cell_length_a 10.381067
_cell_length_b 34.904925
_cell_length_c 16.886584
_cell_angle_alpha 90.000000
_cell_angle_beta 90.000000
_cell_angle_gamma 90.000000
_cell_volume 6118.859877
_symmetry_space_group_name_H-M "I M M M"
_symmetry_group_IT_number 71
_symmetry_cell_setting 'orthorhombic'
loop_
_space_group_symop_operation_xyz
x,y,z
-x,-y,z
x,-y,-z
-x,y,-z
-x,-y,-z
x,y,-z
-x,y,z
x,-y,z
1/2+x,1/2+y,1/2+z
1/2-x,1/2-y,1/2+z
1/2+x,1/2-y,1/2-z
1/2-x,1/2+y,1/2-z
1/2-x,1/2-y,1/2-z
1/2+x,1/2+y,1/2-z
1/2-x,1/2+y,1/2+z
1/2+x,1/2-y,1/2+z
loop_
_atom_site_type_symbol
_atom_site_label
_atom_site_fract_x
_atom_site_fract_y
_atom_site_fract_z
Si Si1 0.655111 0.587942 0.842888
Si Si2 0.655656 0.543512 0.684855
Si Si3 0.500000 0.839481 0.500000
Si Si4 0.853072 0.325352 0.674919
Si Si5 0.707377 0.168547 0.643253
Si Si6 0.845960 0.245918 0.408763
Si Si7 0.848689 0.882191 0.093520
Si Si8 0.343108 0.543826 0.000000
O O1 0.500000 0.588115 0.841373
O O2 0.699593 0.564553 0.765487
O O3 0.703819 0.631088 0.847528
O O4 0.698711 0.565638 0.921344
O O5 0.500000 0.540792 0.689894
O O6 0.704402 0.500000 0.676522
O O7 0.682319 0.573640 0.615120
O O8 0.389016 0.838425 0.570611
O O9 0.853248 0.326114 0.769843
O O10 0.815152 0.283363 0.642732
O O11 0.749093 0.355198 0.640943
O O12 0.000000 0.333467 0.646876
O O13 0.783759 0.207328 0.623603
O O14 0.804671 0.252093 0.500000
O O15 0.000000 0.241550 0.407875
O O16 0.000000 0.875640 0.116129
O O17 0.836911 0.875470 0.000000
O O18 0.300261 0.500000 0.000000
O O19 0.500000 0.543646 0.000000
#
# Coordination Sequence:
#
# PCOD9519684 Si02
#       8
#    16  16   4  16  16  16  16   8
#     4  10  19  32  56  85 115 154 199 246 300 356
#     4   9  17  31  54  86 124 157 191 242 303 363
#     4  12  26  40  56  84 123 156 206 244 301 356
#     4  11  23  41  63  87 116 162 205 241 294 359
#     4  12  22  40  58  84 118 158 199 246 295 356
#     4  10  22  39  60  86 115 147 191 246 298 350
#     4  10  21  38  60  92 125 156 199 249 305 361
#     4   9  17  28  45  79 119 150 187 241 301 358
#
# _framework density 17.650345999999999
#
# number of rings (size 3 to 8) (size 9 to 14) (size 15 to 20)
#    0.000    1.704    2.963    2.222    0.000    3.556 
#    1.333    1.481    0.000    0.444    0.000    9.852 
#    0.000    0.000    0.000    0.000    0.000    0.000 
#
# Total GULP energy -300619.721047 kJ/mol
# GULP energy per Si atom -5567.031871 kJ/mol
# Density = 1.761017 g / cm^3
# Si number density = 17.650346 Si / 1000 Ang^3
#
#
#
# Elastic Constant Matrix: (Units=GPa)
#
#
# Indices 1 2 3 4 5 6 
#
# 1 41.8417 41.7776 31.0204 0.0000 0.0000 0.0000
# 2 41.7776 128.2954 44.0307 0.0002 0.0000 0.0000
# 3 31.0204 44.0307 106.0059 0.0002 -0.0001 0.0002
# 4 0.0000 0.0002 0.0002 25.2470 0.0000 0.0000
# 5 0.0000 0.0000 -0.0001 0.0000 17.0060 0.0000
# 6 0.0000 0.0000 0.0002 0.0000 0.0000 -5.0087
#
#
#
# Elastic Compliance Matrix: (Units=1/GPa)
#
#
# Indices 1 2 3 4 5 6 
#
# 1 0.039721 -0.010433 -0.007290 0.000000 0.000000 0.000000
# 2 -0.010433 0.011830 -0.001861 0.000000 0.000000 0.000000
# 3 -0.007290 -0.001861 0.012340 0.000000 0.000000 0.000000
# 4 0.000000 0.000000 0.000000 0.039609 0.000000 0.000000
# 5 0.000000 0.000000 0.000000 0.000000 0.058803 0.000001
# 6 0.000000 0.000000 0.000000 0.000000 0.000001 -0.199651
#
#
# Mechanical properties :
#
#
# Convention : Reuss Voigt Hill
#
# Bulk Modulus (GPa) = 40.44734 56.64447 48.54590
# Shear Modulus (GPa) = 496.99857 18.06981 257.53419
#
# Velocity S-wave (km/s) = 16.79855 3.20310 12.09238
# Velocity P-wave (km/s) = 19.98051 6.77068 14.91749
#
# Compressibility (1/GPa) = 0.02472351
#
# Stress axis : x y z
#
# Youngs Moduli (GPa) = 25.17565 84.52770 81.03887
#
# Poissons Ratio (x) = 0.88184 0.59079
# Poissons Ratio (y) = 0.26265 0.15082
# Poissons Ratio (z) = 0.18354 0.15731
#
# Static dielectric constant tensor:
#      x y z
#    x 1.589480 0.000000 0.000000 
#    y 0.000000 1.582250 0.000000 
#    z 0.000000 0.000000 1.611410 
# 
# From -- ./inp_files/33327.got.cif
#   From: 2010.05.17/outbox.cif.g08.bks.cpg/sg71_17_cif.got.tgz:33327.got - 2010.06.03 16:22:01.
