data_PCOD9519604
_publ_section_title
;
Structure prediction by ZEFSAII (Michael W. Deem and Ramdas Pophale) SiO2 
 PCOD9519604
Probable space group: I M M M
;
_chemical_formula_sum "Si O2"
_cell_formula_units_Z 96
_cell_length_a 25.144541
_cell_length_b 7.635941
_cell_length_c 23.415008
_cell_angle_alpha 90.000000
_cell_angle_beta 90.000000
_cell_angle_gamma 90.000000
_cell_volume 4495.733788
_symmetry_space_group_name_H-M "I M M M"
_symmetry_group_IT_number 71
_symmetry_cell_setting 'orthorhombic'
loop_
_space_group_symop_operation_xyz
x,y,z
-x,-y,z
x,-y,-z
-x,y,-z
-x,-y,-z
x,y,-z
-x,y,z
x,-y,z
1/2+x,1/2+y,1/2+z
1/2-x,1/2-y,1/2+z
1/2+x,1/2-y,1/2-z
1/2-x,1/2+y,1/2-z
1/2-x,1/2-y,1/2-z
1/2+x,1/2+y,1/2-z
1/2-x,1/2+y,1/2+z
1/2+x,1/2-y,1/2+z
loop_
_atom_site_type_symbol
_atom_site_label
_atom_site_fract_x
_atom_site_fract_y
_atom_site_fract_z
Si Si1 0.500000 0.211946 0.156518
Si Si2 0.000000 0.208083 0.208882
Si Si3 0.187163 0.710701 0.063888
Si Si4 0.886466 0.789417 0.170723
Si Si5 0.804315 0.211941 0.602296
Si Si6 0.809399 0.790043 0.730441
Si Si7 0.418594 0.792182 0.061734
O O1 0.500000 0.270151 0.222272
O O2 0.550379 0.272850 0.118009
O O3 0.500000 0.000000 0.159281
O O4 0.946016 0.278552 0.180467
O O5 0.000000 0.000000 0.198523
O O6 0.190309 0.500000 0.062061
O O7 0.143529 0.753533 0.111559
O O8 0.246361 0.773841 0.081625
O O9 0.174274 0.773544 0.000000
O O10 0.850171 0.720680 0.222716
O O11 0.888305 0.000000 0.176052
O O12 0.815460 0.276955 0.666408
O O13 0.855661 0.263625 0.566578
O O14 0.802068 0.000000 0.602672
O O15 0.750000 0.750000 0.750000
O O16 0.815695 0.000000 0.728208
O O17 0.428846 0.000000 0.060847
O O18 0.436548 0.721124 0.000000
#
# Coordination Sequence:
#
# PCOD9519604 Si02
#       7
#     8   8  16  16  16  16  16
#     4  10  21  38  58  81 109 146 189 231 277 326
#     4  10  22  41  62  84 112 143 179 230 281 332
#     4  10  21  37  57  81 111 147 184 225 275 330
#     4  10  21  37  58  84 112 143 181 224 277 331
#     4  10  20  35  55  81 113 148 184 226 277 329
#     4  10  19  32  53  81 110 140 176 220 271 324
#     4  10  21  36  54  78 111 151 192 232 271 318
#
# _framework density 21.353579
#
# number of rings (size 3 to 8) (size 9 to 14) (size 15 to 20)
#    0.000    2.000    1.667    1.750    0.000    6.333 
#    0.000    0.417    0.000    4.000    0.000    0.000 
#    0.000    0.000    0.000    0.000    0.000    0.000 
#
# Total GULP energy -268090.015414 kJ/mol
# GULP energy per Si atom -5585.208654 kJ/mol
# Density = 2.130498 g / cm^3
# Si number density = 21.353579 Si / 1000 Ang^3
#
#
#
# Elastic Constant Matrix: (Units=GPa)
#
#
# Indices 1 2 3 4 5 6 
#
# 1 189.6883 1.4871 92.7517 0.0000 0.0000 0.0000
# 2 1.4871 40.8699 -0.2250 0.0000 0.0000 0.0000
# 3 92.7517 -0.2250 162.9528 0.0000 0.0000 0.0000
# 4 0.0000 0.0000 0.0000 15.4947 0.0000 0.0000
# 5 0.0000 0.0000 0.0000 0.0000 -60.3507 0.0000
# 6 0.0000 0.0000 0.0000 0.0000 0.0000 8.1962
#
#
#
# Elastic Compliance Matrix: (Units=1/GPa)
#
#
# Indices 1 2 3 4 5 6 
#
# 1 0.007308 -0.000289 -0.004160 0.000000 0.000000 0.000000
# 2 -0.000289 0.024480 0.000198 0.000000 0.000000 0.000000
# 3 -0.004160 0.000198 0.008505 0.000000 0.000000 0.000000
# 4 0.000000 0.000000 0.000000 0.064538 0.000000 0.000000
# 5 0.000000 0.000000 0.000000 0.000000 -0.016570 0.000000
# 6 0.000000 0.000000 0.000000 0.000000 0.000000 0.122008
#
#
# Mechanical properties :
#
#
# Convention : Reuss Voigt Hill
#
# Bulk Modulus (GPa) = 31.45537 64.61540 48.03538
# Shear Modulus (GPa) = 21.79901 12.63451 17.21676
#
# Velocity S-wave (km/s) = 3.19856 2.43509 2.84257
# Velocity P-wave (km/s) = 5.32951 6.18317 5.77215
#
# Compressibility (1/GPa) = 0.03179108
#
# Stress axis : x y z
#
# Youngs Moduli (GPa) = 136.83078 40.85051 117.57789
#
# Poissons Ratio (x) = 0.01180 0.48915
# Poissons Ratio (y) = 0.03952 -0.02330
# Poissons Ratio (z) = 0.56925 -0.00810
#
# Static dielectric constant tensor:
#      x y z
#    x 1.768650 0.000000 0.000000 
#    y 0.000000 1.804000 0.000000 
#    z 0.000000 0.000000 1.793170 
# 
# From -- ./inp_files/61576.got.cif
#   From: 2010.05.17/outbox.cif.g08.bks.cpg/sg71_31_cif.got.tgz:61576.got - 2010.06.03 16:22:01.
