data_PCOD9519843
_publ_section_title
;
Structure prediction by ZEFSAII (Michael W. Deem and Ramdas Pophale) SiO2 
 PCOD9519843
Probable space group: I M M M
;
_chemical_formula_sum "Si O2"
_cell_formula_units_Z 120
_cell_length_a 12.661478
_cell_length_b 27.298974
_cell_length_c 21.672171
_cell_angle_alpha 90.000000
_cell_angle_beta 90.000000
_cell_angle_gamma 90.000000
_cell_volume 7490.885320
_symmetry_space_group_name_H-M "I M M M"
_symmetry_group_IT_number 71
_symmetry_cell_setting 'orthorhombic'
loop_
_space_group_symop_operation_xyz
x,y,z
-x,-y,z
x,-y,-z
-x,y,-z
-x,-y,-z
x,y,-z
-x,y,z
x,-y,z
1/2+x,1/2+y,1/2+z
1/2-x,1/2-y,1/2+z
1/2+x,1/2-y,1/2-z
1/2-x,1/2+y,1/2-z
1/2-x,1/2-y,1/2-z
1/2+x,1/2+y,1/2-z
1/2-x,1/2+y,1/2+z
1/2+x,1/2-y,1/2+z
loop_
_atom_site_type_symbol
_atom_site_label
_atom_site_fract_x
_atom_site_fract_y
_atom_site_fract_z
Si Si1 0.730221 0.874133 0.650397
Si Si2 0.871967 0.443773 0.500000
Si Si3 0.879196 0.943569 0.425968
Si Si4 0.127503 0.385298 0.623544
Si Si5 0.755030 0.285185 0.653439
Si Si6 0.873302 0.443867 0.251411
Si Si7 0.875241 0.201633 0.724001
Si Si8 0.875744 0.710814 0.073079
O O1 0.797463 0.907090 0.604054
O O2 0.669739 0.909670 0.697209
O O3 0.810738 0.840922 0.689727
O O4 0.655247 0.837399 0.612263
O O5 0.833821 0.500000 0.500000
O O6 0.842346 0.414319 0.438471
O O7 0.000000 0.445991 0.500000
O O8 0.873974 0.940868 0.500000
O O9 0.000000 0.931877 0.407757
O O10 0.857999 0.000000 0.408259
O O11 0.189375 0.334380 0.630185
O O12 0.152033 0.418892 0.682984
O O13 0.000000 0.376938 0.622641
O O14 0.841523 0.251228 0.688156
O O15 0.668106 0.295461 0.706353
O O16 0.697968 0.253871 0.600161
O O17 0.834454 0.500000 0.247880
O O18 0.000000 0.445180 0.247098
O O19 0.000000 0.194582 0.722017
O O20 0.000000 0.721722 0.081977
O O21 0.857241 0.703594 0.000000
#
# Coordination Sequence:
#
# PCOD9519843 Si02
#       8
#    16   8  16  16  16  16  16  16
#     4  11  19  33  52  76 102 135 171 210 259 308
#     4   9  18  32  52  78 107 139 171 207 253 304
#     4   9  18  32  50  72  99 134 175 215 255 302
#     4  10  19  33  53  78 107 137 170 208 255 310
#     4  10  20  34  52  76  99 136 168 209 255 305
#     4  10  20  33  51  77 107 135 167 209 257 312
#     4  10  20  33  50  74 102 130 166 207 255 308
#     4  10  22  37  53  73 101 137 178 220 256 301
#
# _framework density 16.019468
#
# number of rings (size 3 to 8) (size 9 to 14) (size 15 to 20)
#    0.000    2.067    1.333    3.200    0.933    1.600 
#    0.000    0.000    0.000    2.400    0.000    5.600 
#    0.000    2.133    0.000    0.000    0.000    0.000 
#
# Total GULP energy -334700.309621 kJ/mol
# GULP energy per Si atom -5578.338494 kJ/mol
# Density = 1.598301 g / cm^3
# Si number density = 16.019468 Si / 1000 Ang^3
#
#
#
# Elastic Constant Matrix: (Units=GPa)
#
#
# Indices 1 2 3 4 5 6 
#
# 1 54.5587 46.0559 40.4316 0.0000 0.0000 0.0000
# 2 46.0559 138.8649 71.7075 0.0000 0.0000 0.0000
# 3 40.4316 71.7075 107.3255 0.0000 0.0000 0.0000
# 4 0.0000 0.0000 0.0000 26.6277 0.0000 0.0000
# 5 0.0000 0.0000 0.0000 0.0000 26.3447 0.0000
# 6 0.0000 0.0000 0.0000 0.0000 0.0000 -66.2649
#
#
#
# Elastic Compliance Matrix: (Units=1/GPa)
#
#
# Indices 1 2 3 4 5 6 
#
# 1 0.028296 -0.005924 -0.006702 0.000000 0.000000 0.000000
# 2 -0.005924 0.012235 -0.005943 0.000000 0.000000 0.000000
# 3 -0.006702 -0.005943 0.015813 0.000000 0.000000 0.000000
# 4 0.000000 0.000000 0.000000 0.037555 0.000000 0.000000
# 5 0.000000 0.000000 0.000000 0.000000 0.037958 0.000000
# 6 0.000000 0.000000 0.000000 0.000000 0.000000 -0.015091
#
#
# Mechanical properties :
#
#
# Convention : Reuss Voigt Hill
#
# Bulk Modulus (GPa) = 52.06546 68.57102 60.31824
# Shear Modulus (GPa) = 31.19067 6.84512 19.01789
#
# Velocity S-wave (km/s) = 4.41732 2.06937 3.44928
# Velocity P-wave (km/s) = 7.65434 6.97190 7.32108
#
# Compressibility (1/GPa) = 0.01920659
#
# Stress axis : x y z
#
# Youngs Moduli (GPa) = 35.34071 81.73463 63.24084
#
# Poissons Ratio (x) = 0.48420 0.42382
# Poissons Ratio (y) = 0.20936 0.37582
# Poissons Ratio (z) = 0.23684 0.48572
#
# Static dielectric constant tensor:
#      x y z
#    x 1.506220 0.000000 0.000000 
#    y 0.000000 1.529910 0.000000 
#    z 0.000000 0.000000 1.524350 
# 
# From -- ./inp_files/26534.got.cif
#   From: 2010.05.17/outbox.cif.g08.bks.cpg/sg71_14_cif.got.tgz:26534.got - 2010.06.03 16:22:01.
