data_PCOD9519692
_publ_section_title
;
Structure prediction by ZEFSAII (Michael W. Deem and Ramdas Pophale) SiO2 
 PCOD9519692
Probable space group: I M M M
;
_chemical_formula_sum "Si O2"
_cell_formula_units_Z 104
_cell_length_a 20.578483
_cell_length_b 19.387448
_cell_length_c 14.836203
_cell_angle_alpha 90.000000
_cell_angle_beta 90.000000
_cell_angle_gamma 90.000000
_cell_volume 5919.114886
_symmetry_space_group_name_H-M "I M M M"
_symmetry_group_IT_number 71
_symmetry_cell_setting 'orthorhombic'
loop_
_space_group_symop_operation_xyz
x,y,z
-x,-y,z
x,-y,-z
-x,y,-z
-x,-y,-z
x,y,-z
-x,y,z
x,-y,z
1/2+x,1/2+y,1/2+z
1/2-x,1/2-y,1/2+z
1/2+x,1/2-y,1/2-z
1/2-x,1/2+y,1/2-z
1/2-x,1/2-y,1/2-z
1/2+x,1/2+y,1/2-z
1/2-x,1/2+y,1/2+z
1/2+x,1/2-y,1/2+z
loop_
_atom_site_type_symbol
_atom_site_label
_atom_site_fract_x
_atom_site_fract_y
_atom_site_fract_z
Si Si1 0.423024 0.770231 0.394693
Si Si2 0.700675 0.207925 0.105672
Si Si3 0.000000 0.079522 0.098017
Si Si4 0.388087 0.362919 0.717312
Si Si5 0.574811 0.299913 0.896591
Si Si6 0.244347 0.580910 0.723255
Si Si7 0.791504 0.659483 0.105135
O O1 0.417733 0.747822 0.500000
O O2 0.500000 0.783816 0.377535
O O3 0.396119 0.713081 0.326011
O O4 0.369202 0.829913 0.386511
O O5 0.629027 0.240779 0.115171
O O6 0.707220 0.138485 0.163279
O O7 0.752001 0.269505 0.130630
O O8 0.712641 0.192849 0.000000
O O9 0.061516 0.097066 0.156808
O O10 0.000000 0.000000 0.084319
O O11 0.000000 0.114886 0.000000
O O12 0.408577 0.356265 0.821263
O O13 0.319017 0.398090 0.707775
O O14 0.500000 0.277068 0.883256
O O15 0.580945 0.324523 0.000000
O O16 0.232487 0.500000 0.704075
O O17 0.229603 0.600201 0.826879
O O18 0.775771 0.646974 0.000000
#
# Coordination Sequence:
#
# PCOD9519692 Si02
#       7
#    16  16   8  16  16  16  16
#     4  10  19  32  57  89 114 140 184 240 293 342
#     4  10  20  37  61  84 110 148 194 242 288 335
#     4  11  24  38  51  73 113 161 197 222 266 342
#     4  12  20  34  55  80 113 155 188 228 280 338
#     4  10  20  35  60  89 111 138 186 245 295 336
#     4  12  25  37  54  83 119 156 194 235 284 344
#     4  10  20  37  61  83 109 150 197 245 291 339
#
# _framework density 17.570194000000001
#
# number of rings (size 3 to 8) (size 9 to 14) (size 15 to 20)
#    0.000    1.308    4.615    2.308    0.000    1.231 
#    0.000    0.000    0.000    3.692    0.000    4.308 
#    0.000    0.000    0.000    0.000    0.000    0.000 
#
# Total GULP energy -289842.898718 kJ/mol
# GULP energy per Si atom -5573.901898 kJ/mol
# Density = 1.753020 g / cm^3
# Si number density = 17.570194 Si / 1000 Ang^3
#
#
#
# Elastic Constant Matrix: (Units=GPa)
#
#
# Indices 1 2 3 4 5 6 
#
# 1 65.0066 16.9887 12.8469 0.0000 0.0000 0.0000
# 2 16.9887 53.4030 36.3213 0.0000 0.0000 0.0000
# 3 12.8469 36.3213 82.7882 0.0000 0.0000 0.0000
# 4 0.0000 0.0000 0.0000 18.8727 0.0000 0.0000
# 5 0.0000 0.0000 0.0000 0.0000 17.8054 0.0000
# 6 0.0000 0.0000 0.0000 0.0000 0.0000 10.3600
#
#
#
# Elastic Compliance Matrix: (Units=1/GPa)
#
#
# Indices 1 2 3 4 5 6 
#
# 1 0.016786 -0.005086 -0.000373 0.000000 0.000000 0.000000
# 2 -0.005086 0.028231 -0.011596 0.000000 0.000000 0.000000
# 3 -0.000373 -0.011596 0.017225 0.000000 0.000000 0.000000
# 4 0.000000 0.000000 0.000000 0.052987 0.000000 0.000000
# 5 0.000000 0.000000 0.000000 0.000000 0.056163 0.000000
# 6 0.000000 0.000000 0.000000 0.000000 0.000000 0.096525
#
#
# Mechanical properties :
#
#
# Convention : Reuss Voigt Hill
#
# Bulk Modulus (GPa) = 35.54962 37.05686 36.30324
# Shear Modulus (GPa) = 16.05634 18.41034 17.23334
#
# Velocity S-wave (km/s) = 3.02626 3.24051 3.13522
# Velocity P-wave (km/s) = 5.69981 5.92771 5.81488
#
# Compressibility (1/GPa) = 0.02812969
#
# Stress axis : x y z
#
# Youngs Moduli (GPa) = 59.57336 35.42266 58.05678
#
# Poissons Ratio (x) = 0.18016 0.02168
# Poissons Ratio (y) = 0.30299 0.67324
# Poissons Ratio (z) = 0.02225 0.41077
#
# Static dielectric constant tensor:
#      x y z
#    x 1.624580 0.000000 0.000000 
#    y 0.000000 1.594100 0.000000 
#    z 0.000000 0.000000 1.824160 
# 
# From -- ./inp_files/38345.got.cif
#   From: 2010.05.17/outbox.cif.g08.bks.cpg/sg71_20_cif.got.tgz:38345.got - 2010.06.03 16:22:01.
