data_PCOD9519529
_publ_section_title
;
Structure prediction by ZEFSAII (Michael W. Deem and Ramdas Pophale) SiO2 
 PCOD9519529
Probable space group: I M M M
;
_chemical_formula_sum "Si O2"
_cell_formula_units_Z 120
_cell_length_a 26.779673
_cell_length_b 8.870907
_cell_length_c 26.501448
_cell_angle_alpha 90.000000
_cell_angle_beta 90.000000
_cell_angle_gamma 90.000000
_cell_volume 6295.683687
_symmetry_space_group_name_H-M "I M M M"
_symmetry_group_IT_number 71
_symmetry_cell_setting 'orthorhombic'
loop_
_space_group_symop_operation_xyz
x,y,z
-x,-y,z
x,-y,-z
-x,y,-z
-x,-y,-z
x,y,-z
-x,y,z
x,-y,z
1/2+x,1/2+y,1/2+z
1/2-x,1/2-y,1/2+z
1/2+x,1/2-y,1/2-z
1/2-x,1/2+y,1/2-z
1/2-x,1/2-y,1/2-z
1/2+x,1/2+y,1/2-z
1/2-x,1/2+y,1/2+z
1/2+x,1/2-y,1/2+z
loop_
_atom_site_type_symbol
_atom_site_label
_atom_site_fract_x
_atom_site_fract_y
_atom_site_fract_z
Si Si1 0.286000 0.317790 0.559300
Si Si2 0.401085 0.330982 0.058811
Si Si3 0.500000 0.825832 0.062121
Si Si4 0.291296 0.331169 0.717104
Si Si5 0.356608 0.178926 0.364065
Si Si6 0.621106 0.331960 0.797429
Si Si7 0.817907 0.322794 0.389068
Si Si8 0.941824 0.183314 0.793091
O O1 0.279934 0.277801 0.500000
O O2 0.288704 0.500000 0.562433
O O3 0.336370 0.248695 0.583534
O O4 0.236900 0.270558 0.592225
O O5 0.389516 0.500000 0.076496
O O6 0.451000 0.259529 0.081690
O O7 0.355211 0.220059 0.066125
O O8 0.411646 0.342886 0.000000
O O9 0.500000 0.000000 0.077183
O O10 0.500000 0.825677 0.000000
O O11 0.276452 0.500000 0.699610
O O12 0.250000 0.250000 0.750000
O O13 0.311229 0.225794 0.673077
O O14 0.337556 0.347747 0.754188
O O15 0.405537 0.249623 0.336649
O O16 0.362123 0.000000 0.367527
O O17 0.605916 0.500000 0.814091
O O18 0.651623 0.249647 0.841955
O O19 0.576289 0.264180 0.763221
O O20 0.815186 0.500000 0.380400
O O21 0.000000 0.219922 0.801120
O O22 0.936578 0.000000 0.793858
#
# Coordination Sequence:
#
# PCOD9519529 Si02
#       8
#    16  16   8  16  16  16  16  16
#     4  10  22  40  60  82 113 156 204 251 295 343
#     4  10  20  34  52  72  96 132 180 232 286 344
#     4   9  17  31  51  71  91 117 159 221 281 329
#     4  10  19  32  52  78 109 146 188 232 278 334
#     4  11  22  35  56  87 120 153 189 234 293 359
#     4   9  19  34  51  76 110 145 185 229 274 329
#     4  11  22  35  53  78 110 149 192 238 288 338
#     4   9  19  39  65  88 114 153 198 242 289 344
#
# _framework density 19.060679
#
# number of rings (size 3 to 8) (size 9 to 14) (size 15 to 20)
#    0.000    2.067    0.000    4.600    0.000    8.533 
#    1.200    0.000    0.000    0.400    0.000    2.800 
#    0.000    0.000    0.000    0.000    0.000    0.000 
#
# Total GULP energy -334099.160413 kJ/mol
# GULP energy per Si atom -5568.319340 kJ/mol
# Density = 1.901730 g / cm^3
# Si number density = 19.060679 Si / 1000 Ang^3
#
#
#
# Elastic Constant Matrix: (Units=GPa)
#
#
# Indices 1 2 3 4 5 6 
#
# 1 129.6626 33.0638 50.6965 0.0000 0.0000 0.0000
# 2 33.0638 53.9340 27.5616 0.0000 0.0000 0.0000
# 3 50.6965 27.5616 75.4207 0.0000 0.0000 0.0000
# 4 0.0000 0.0000 0.0000 25.0059 0.0000 0.0000
# 5 0.0000 0.0000 0.0000 0.0000 17.0524 0.0000
# 6 0.0000 0.0000 0.0000 0.0000 0.0000 23.0205
#
#
#
# Elastic Compliance Matrix: (Units=1/GPa)
#
#
# Indices 1 2 3 4 5 6 
#
# 1 0.011017 -0.003651 -0.006071 0.000000 0.000000 0.000000
# 2 -0.003651 0.024009 -0.006319 0.000000 0.000000 0.000000
# 3 -0.006071 -0.006319 0.019649 0.000000 0.000000 0.000000
# 4 0.000000 0.000000 0.000000 0.039991 0.000000 0.000000
# 5 0.000000 0.000000 0.000000 0.000000 0.058643 0.000000
# 6 0.000000 0.000000 0.000000 0.000000 0.000000 0.043440
#
#
# Mechanical properties :
#
#
# Convention : Reuss Voigt Hill
#
# Bulk Modulus (GPa) = 44.26456 53.51789 48.89122
# Shear Modulus (GPa) = 21.15394 22.86214 22.00804
#
# Velocity S-wave (km/s) = 3.33501 3.46705 3.40167
# Velocity P-wave (km/s) = 6.17277 6.64574 6.41362
#
# Compressibility (1/GPa) = 0.02259144
#
# Stress axis : x y z
#
# Youngs Moduli (GPa) = 90.76717 41.65100 50.89263
#
# Poissons Ratio (x) = 0.15209 0.30898
# Poissons Ratio (y) = 0.33144 0.32161
# Poissons Ratio (z) = 0.55106 0.26321
#
# Static dielectric constant tensor:
#      x y z
#    x 2.076420 0.000000 0.000000 
#    y 0.000000 1.681520 0.000000 
#    z 0.000000 0.000000 1.739050 
# 
# From -- ./inp_files/67133.got.cif
#   From: 2010.05.17/outbox.cif.g08.bks.cpg/sg71_34_cif.got.tgz:67133.got - 2010.06.03 16:22:01.
