data_PCOD9519548
_publ_section_title
;
Structure prediction by ZEFSAII (Michael W. Deem and Ramdas Pophale) SiO2 
 PCOD9519548
Probable space group: I M M M
;
_chemical_formula_sum "Si O2"
_cell_formula_units_Z 88
_cell_length_a 13.604256
_cell_length_b 15.427368
_cell_length_c 22.484540
_cell_angle_alpha 90.000000
_cell_angle_beta 90.000000
_cell_angle_gamma 90.000000
_cell_volume 4719.007221
_symmetry_space_group_name_H-M "I M M M"
_symmetry_group_IT_number 71
_symmetry_cell_setting 'orthorhombic'
loop_
_space_group_symop_operation_xyz
x,y,z
-x,-y,z
x,-y,-z
-x,y,-z
-x,-y,-z
x,y,-z
-x,y,z
x,-y,z
1/2+x,1/2+y,1/2+z
1/2-x,1/2-y,1/2+z
1/2+x,1/2-y,1/2-z
1/2-x,1/2+y,1/2-z
1/2-x,1/2-y,1/2-z
1/2+x,1/2+y,1/2-z
1/2-x,1/2+y,1/2+z
1/2+x,1/2-y,1/2+z
loop_
_atom_site_type_symbol
_atom_site_label
_atom_site_fract_x
_atom_site_fract_y
_atom_site_fract_z
Si Si1 0.882825 0.406292 0.000000
Si Si2 0.113877 0.288579 0.114176
Si Si3 0.797775 0.397658 0.218404
Si Si4 0.112495 0.399363 0.658839
Si Si5 0.884574 0.100385 0.637384
Si Si6 0.806660 0.267307 0.429182
O O1 0.863496 0.355076 0.060072
O O2 0.834452 0.500000 0.000000
O O3 0.000000 0.415807 0.000000
O O4 0.136617 0.339119 0.174819
O O5 0.198430 0.219462 0.100245
O O6 0.000000 0.261730 0.110929
O O7 0.824336 0.500000 0.212163
O O8 0.817681 0.373062 0.286303
O O9 0.686413 0.388265 0.194580
O O10 0.131210 0.500000 0.644541
O O11 0.126971 0.339215 0.602162
O O12 0.000000 0.392177 0.680367
O O13 0.848596 0.173452 0.591308
O O14 0.000000 0.112503 0.650207
O O15 0.871075 0.000000 0.617098
O O16 0.803043 0.273313 0.500000
#
# Coordination Sequence:
#
# PCOD9519548 Si02
#       6
#     8  16  16  16  16  16
#     4   9  16  26  44  74 110 145 178 208 246 307
#     4  10  19  32  52  80 112 147 178 215 270 329
#     4   9  18  34  56  82 111 143 181 227 278 330
#     4  10  22  40  61  83 106 134 178 239 293 329
#     4   9  19  35  55  82 117 152 181 214 260 325
#     4  11  23  38  55  79 109 148 189 231 274 322
#
# _framework density 18.64799
#
# number of rings (size 3 to 8) (size 9 to 14) (size 15 to 20)
#    0.000    2.273    0.909    1.636    0.000    7.636 
#    0.000    4.545    0.000    1.636    0.000    1.273 
#    0.000    0.000    0.000    0.000    0.000    0.000 
#
# Total GULP energy -245291.774770 kJ/mol
# GULP energy per Si atom -5574.813063 kJ/mol
# Density = 1.860555 g / cm^3
# Si number density = 18.647990 Si / 1000 Ang^3
#
#
#
# Elastic Constant Matrix: (Units=GPa)
#
#
# Indices 1 2 3 4 5 6 
#
# 1 100.8278 27.3999 39.6496 0.0000 0.0000 0.0000
# 2 27.3999 44.5672 48.0600 0.0000 0.0000 0.0000
# 3 39.6496 48.0600 108.6922 0.0000 0.0000 0.0000
# 4 0.0000 0.0000 0.0000 35.2503 0.0000 0.0000
# 5 0.0000 0.0000 0.0000 0.0000 20.7972 0.0000
# 6 0.0000 0.0000 0.0000 0.0000 0.0000 21.7467
#
#
#
# Elastic Compliance Matrix: (Units=1/GPa)
#
#
# Indices 1 2 3 4 5 6 
#
# 1 0.012167 -0.005149 -0.002162 0.000000 0.000000 0.000000
# 2 -0.005149 0.045067 -0.018049 0.000000 0.000000 0.000000
# 3 -0.002162 -0.018049 0.017969 0.000000 0.000000 0.000000
# 4 0.000000 0.000000 0.000000 0.028369 0.000000 0.000000
# 5 0.000000 0.000000 0.000000 0.000000 0.048083 0.000000
# 6 0.000000 0.000000 0.000000 0.000000 0.000000 0.045984
#
#
# Mechanical properties :
#
#
# Convention : Reuss Voigt Hill
#
# Bulk Modulus (GPa) = 40.84250 53.81181 47.32716
# Shear Modulus (GPa) = 19.49160 24.82401 22.15780
#
# Velocity S-wave (km/s) = 3.23652 3.65251 3.45079
# Velocity P-wave (km/s) = 5.99301 6.83425 6.42741
#
# Compressibility (1/GPa) = 0.02448430
#
# Stress axis : x y z
#
# Youngs Moduli (GPa) = 82.18766 22.18907 55.65031
#
# Poissons Ratio (x) = 0.11426 0.12029
# Poissons Ratio (y) = 0.42322 1.00442
# Poissons Ratio (z) = 0.17765 0.40048
#
# Static dielectric constant tensor:
#      x y z
#    x 1.671250 0.000000 0.000000 
#    y 0.000000 1.684800 0.000000 
#    z 0.000000 0.000000 1.611180 
# 
# From -- ./inp_files/52905.got.cif
#   From: 2010.05.17/outbox.cif.g08.bks.cpg/sg71_27_cif.got.tgz:52905.got - 2010.06.03 16:22:01.
