data_PCOD9519116
_publ_section_title
;
Structure prediction by ZEFSAII (Michael W. Deem and Ramdas Pophale) SiO2 
 PCOD9519116
Probable space group: I M M M
;
_chemical_formula_sum "Si O2"
_cell_formula_units_Z 120
_cell_length_a 13.007903
_cell_length_b 20.871458
_cell_length_c 27.432550
_cell_angle_alpha 90.000000
_cell_angle_beta 90.000000
_cell_angle_gamma 90.000000
_cell_volume 7447.770018
_symmetry_space_group_name_H-M "I M M M"
_symmetry_group_IT_number 71
_symmetry_cell_setting 'orthorhombic'
loop_
_space_group_symop_operation_xyz
x,y,z
-x,-y,z
x,-y,-z
-x,y,-z
-x,-y,-z
x,y,-z
-x,y,z
x,-y,z
1/2+x,1/2+y,1/2+z
1/2-x,1/2-y,1/2+z
1/2+x,1/2-y,1/2-z
1/2-x,1/2+y,1/2-z
1/2-x,1/2-y,1/2-z
1/2+x,1/2+y,1/2-z
1/2-x,1/2+y,1/2+z
1/2+x,1/2-y,1/2+z
loop_
_atom_site_type_symbol
_atom_site_label
_atom_site_fract_x
_atom_site_fract_y
_atom_site_fract_z
Si Si1 0.376638 0.500000 0.058677
Si Si2 0.123827 0.574352 0.604695
Si Si3 0.248700 0.889753 0.614123
Si Si4 0.124624 0.350441 0.297313
Si Si5 0.381825 0.271966 0.852924
Si Si6 0.883302 0.286921 0.941897
Si Si7 0.696990 0.197372 0.943508
Si Si8 0.620942 0.072104 0.704914
O O1 0.500000 0.500000 0.068212
O O2 0.320798 0.561633 0.082827
O O3 0.362702 0.500000 0.000000
O O4 0.150052 0.500000 0.598813
O O5 0.148792 0.600208 0.658967
O O6 0.180079 0.622980 0.568232
O O7 0.000000 0.580907 0.598205
O O8 0.178829 0.837302 0.641441
O O9 0.325406 0.847749 0.580840
O O10 0.315654 0.923994 0.655404
O O11 0.160662 0.280250 0.314402
O O12 0.158624 0.377679 0.245509
O O13 0.000000 0.347504 0.295642
O O14 0.500000 0.284657 0.841491
O O15 0.373722 0.235820 0.905278
O O16 0.811025 0.225045 0.932870
O O17 0.000000 0.280374 0.923566
O O18 0.886938 0.295160 0.000000
O O19 0.673312 0.210965 0.000000
O O20 0.500000 0.084243 0.695069
O O21 0.628350 0.000000 0.725464
#
# Coordination Sequence:
#
# PCOD9519116 Si02
#       8
#     8  16  16  16  16  16  16  16
#     4  11  24  40  55  73 103 141 172 198 238 299
#     4   9  16  26  42  67 100 133 163 197 240 293
#     4  11  20  34  51  74  99 123 162 204 244 291
#     4   8  15  29  47  69  96 126 159 198 243 291
#     4   9  18  31  48  69  96 128 163 202 244 292
#     4   9  18  33  51  68  89 120 157 200 249 294
#     4   9  17  28  44  67  95 125 161 202 243 292
#     4  10  19  31  49  72  99 126 156 199 246 292
#
# _framework density 16.112206
#
# number of rings (size 3 to 8) (size 9 to 14) (size 15 to 20)
#    0.000    2.600    0.667    2.800    0.000    4.000 
#    0.000    0.667    0.000    2.000    0.000    5.600 
#    0.000    0.000    0.000    0.000    0.000    0.000 
#
# Total GULP energy -334134.700688 kJ/mol
# GULP energy per Si atom -5568.911678 kJ/mol
# Density = 1.607553 g / cm^3
# Si number density = 16.112206 Si / 1000 Ang^3
#
#
#
# Elastic Constant Matrix: (Units=GPa)
#
#
# Indices 1 2 3 4 5 6 
#
# 1 70.2694 44.9500 30.4049 0.0000 0.0000 0.0000
# 2 44.9500 112.1551 33.5185 0.0000 0.0000 0.0000
# 3 30.4049 33.5185 69.0166 0.0000 0.0000 0.0000
# 4 0.0000 0.0000 0.0000 23.1207 0.0000 0.0000
# 5 0.0000 0.0000 0.0000 0.0000 19.0153 0.0000
# 6 0.0000 0.0000 0.0000 0.0000 0.0000 19.2420
#
#
#
# Elastic Compliance Matrix: (Units=1/GPa)
#
#
# Indices 1 2 3 4 5 6 
#
# 1 0.021109 -0.006646 -0.006072 0.000000 0.000000 0.000000
# 2 -0.006646 0.012522 -0.003154 0.000000 0.000000 0.000000
# 3 -0.006072 -0.003154 0.018696 0.000000 0.000000 0.000000
# 4 0.000000 0.000000 0.000000 0.043251 0.000000 0.000000
# 5 0.000000 0.000000 0.000000 0.000000 0.052589 0.000000
# 6 0.000000 0.000000 0.000000 0.000000 0.000000 0.051970
#
#
# Mechanical properties :
#
#
# Convention : Reuss Voigt Hill
#
# Bulk Modulus (GPa) = 48.58034 52.13198 50.35616
# Shear Modulus (GPa) = 20.94308 21.78012 21.36160
#
# Velocity S-wave (km/s) = 3.60922 3.68064 3.64511
# Velocity P-wave (km/s) = 6.89822 7.10554 7.00264
#
# Compressibility (1/GPa) = 0.02058446
#
# Stress axis : x y z
#
# Youngs Moduli (GPa) = 47.37240 79.85805 53.48736
#
# Poissons Ratio (x) = 0.53070 0.32478
# Poissons Ratio (y) = 0.31482 0.16869
# Poissons Ratio (z) = 0.28765 0.25186
#
# Static dielectric constant tensor:
#      x y z
#    x 1.533790 0.000000 0.000000 
#    y 0.000000 1.549890 0.000000 
#    z 0.000000 0.000000 1.541590 
# 
# From -- ./inp_files/29169.got.cif
#   From: 2010.05.17/outbox.cif.g08.bks.cpg/sg71_15_cif.got.tgz:29169.got - 2010.06.03 16:22:01.
