data_PCOD9519110
_publ_section_title
;
Structure prediction by ZEFSAII (Michael W. Deem and Ramdas Pophale) SiO2 
 PCOD9519110
Probable space group: I M M M
;
_chemical_formula_sum "Si O2"
_cell_formula_units_Z 96
_cell_length_a 29.949948
_cell_length_b 21.055292
_cell_length_c 7.431988
_cell_angle_alpha 90.000000
_cell_angle_beta 90.000000
_cell_angle_gamma 90.000000
_cell_volume 4686.648053
_symmetry_space_group_name_H-M "I M M M"
_symmetry_group_IT_number 71
_symmetry_cell_setting 'orthorhombic'
loop_
_space_group_symop_operation_xyz
x,y,z
-x,-y,z
x,-y,-z
-x,y,-z
-x,-y,-z
x,y,-z
-x,y,z
x,-y,z
1/2+x,1/2+y,1/2+z
1/2-x,1/2-y,1/2+z
1/2+x,1/2-y,1/2-z
1/2-x,1/2+y,1/2-z
1/2-x,1/2-y,1/2-z
1/2+x,1/2+y,1/2-z
1/2-x,1/2+y,1/2+z
1/2+x,1/2-y,1/2+z
loop_
_atom_site_type_symbol
_atom_site_label
_atom_site_fract_x
_atom_site_fract_y
_atom_site_fract_z
Si Si1 0.194791 0.206805 0.780780
Si Si2 0.718537 0.851790 0.795776
Si Si3 0.948545 0.333365 0.220158
Si Si4 0.092465 0.198608 0.780479
Si Si5 0.447866 0.432458 0.718479
Si Si6 0.129360 0.428123 0.211392
O O1 0.231275 0.154953 0.717413
O O2 0.205108 0.277568 0.712397
O O3 0.144115 0.195473 0.729766
O O4 0.197646 0.209075 0.000000
O O5 0.677288 0.892619 0.722892
O O6 0.723264 0.873749 0.000000
O O7 0.931974 0.263236 0.276911
O O8 0.911120 0.384097 0.282620
O O9 0.000000 0.345468 0.274634
O O10 0.948240 0.333814 0.000000
O O11 0.071087 0.133561 0.715527
O O12 0.090540 0.199735 0.000000
O O13 0.444074 0.431493 0.500000
O O14 0.500000 0.433335 0.761148
O O15 0.427928 0.500000 0.779010
O O16 0.131058 0.500000 0.285495
O O17 0.120044 0.433688 0.000000
#
# Coordination Sequence:
#
# PCOD9519110 Si02
#       6
#    16  16  16  16  16  16
#     4   9  17  30  49  72  96 121 155 198 241 285
#     4  10  19  31  49  72  96 125 160 197 240 291
#     4   9  16  26  44  70  94 118 157 208 251 287
#     4   9  14  23  41  64  91 121 152 190 235 281
#     4   8  13  20  31  53  88 124 150 174 217 279
#     4  10  20  34  51  70  97 132 166 205 252 297
#
# _framework density 20.483723999999999
#
# number of rings (size 3 to 8) (size 9 to 14) (size 15 to 20)
#    0.000    2.833    1.667    1.500    0.000    3.333 
#    0.000    2.500    0.000    3.500    0.000    1.167 
#    0.000    0.000    0.000    1.833    0.000    1.667 
#
# Total GULP energy -267396.026868 kJ/mol
# GULP energy per Si atom -5570.750560 kJ/mol
# Density = 2.043710 g / cm^3
# Si number density = 20.483724 Si / 1000 Ang^3
#
#
#
# Elastic Constant Matrix: (Units=GPa)
#
#
# Indices 1 2 3 4 5 6 
#
# 1 128.7987 83.6484 3.8212 0.0000 0.0000 0.0000
# 2 83.6484 161.0977 2.3523 0.0000 0.0000 0.0000
# 3 3.8212 2.3523 59.7418 0.0000 0.0000 0.0000
# 4 0.0000 0.0000 0.0000 -2.5643 0.0000 0.0000
# 5 0.0000 0.0000 0.0000 0.0000 8.1328 0.0000
# 6 0.0000 0.0000 0.0000 0.0000 0.0000 21.7301
#
#
#
# Elastic Compliance Matrix: (Units=1/GPa)
#
#
# Indices 1 2 3 4 5 6 
#
# 1 0.011730 -0.006083 -0.000511 0.000000 0.000000 0.000000
# 2 -0.006083 0.009366 0.000020 0.000000 0.000000 0.000000
# 3 -0.000511 0.000020 0.016771 0.000000 0.000000 0.000000
# 4 0.000000 0.000000 0.000000 -0.389970 0.000000 0.000000
# 5 0.000000 0.000000 0.000000 0.000000 0.122959 0.000000
# 6 0.000000 0.000000 0.000000 0.000000 0.000000 0.046019
#
#
# Mechanical properties :
#
#
# Convention : Reuss Voigt Hill
#
# Bulk Modulus (GPa) = 40.45468 58.80911 49.63190
# Shear Modulus (GPa) = -30.91404 22.78081 -4.06661
#
# Velocity S-wave (km/s) = -3.88906 3.33850 -1.41053
# Velocity P-wave (km/s) = 0.61140 6.60555 4.65078
#
# Compressibility (1/GPa) = 0.02471902
#
# Stress axis : x y z
#
# Youngs Moduli (GPa) = 85.25191 106.77197 59.62827
#
# Poissons Ratio (x) = 0.64951 0.03045
# Poissons Ratio (y) = 0.51860 -0.00121
# Poissons Ratio (z) = 0.04354 -0.00217
#
# Static dielectric constant tensor:
#      x y z
#    x 1.751470 0.000000 0.000000 
#    y 0.000000 1.714660 0.000000 
#    z 0.000000 0.000000 1.802040 
# 
# From -- ./inp_files/14821.got.cif
#   From: 2010.05.17/outbox.cif.g08.bks.cpg/sg71_8_cif.got.tgz:14821.got - 2010.06.03 16:22:01.
