data_PCOD9519557
_publ_section_title
;
Structure prediction by ZEFSAII (Michael W. Deem and Ramdas Pophale) SiO2 
 PCOD9519557
Probable space group: I M M M
;
_chemical_formula_sum "Si O2"
_cell_formula_units_Z 104
_cell_length_a 17.467291
_cell_length_b 22.892490
_cell_length_c 13.965437
_cell_angle_alpha 90.000000
_cell_angle_beta 90.000000
_cell_angle_gamma 90.000000
_cell_volume 5584.356284
_symmetry_space_group_name_H-M "I M M M"
_symmetry_group_IT_number 71
_symmetry_cell_setting 'orthorhombic'
loop_
_space_group_symop_operation_xyz
x,y,z
-x,-y,z
x,-y,-z
-x,y,-z
-x,-y,-z
x,y,-z
-x,y,z
x,-y,z
1/2+x,1/2+y,1/2+z
1/2-x,1/2-y,1/2+z
1/2+x,1/2-y,1/2-z
1/2-x,1/2+y,1/2-z
1/2-x,1/2-y,1/2-z
1/2+x,1/2+y,1/2-z
1/2-x,1/2+y,1/2+z
1/2+x,1/2-y,1/2+z
loop_
_atom_site_type_symbol
_atom_site_label
_atom_site_fract_x
_atom_site_fract_y
_atom_site_fract_z
Si Si1 0.163244 0.668914 0.112951
Si Si2 0.324830 0.872253 0.112711
Si Si3 0.173862 0.231133 0.611242
Si Si4 0.587830 0.275932 0.300876
Si Si5 0.410234 0.069387 0.278601
Si Si6 0.657521 0.383005 0.387132
Si Si7 0.500000 0.569027 0.389814
O O1 0.247376 0.696258 0.132861
O O2 0.104317 0.709678 0.170485
O O3 0.145244 0.603888 0.148447
O O4 0.150659 0.674045 0.000000
O O5 0.319321 0.801669 0.121187
O O6 0.389937 0.901121 0.176549
O O7 0.242387 0.896651 0.148467
O O8 0.334308 0.884867 0.000000
O O9 0.153809 0.219630 0.500000
O O10 0.113053 0.213261 0.691820
O O11 0.500000 0.290848 0.317178
O O12 0.640837 0.314979 0.369372
O O13 0.500000 0.078497 0.302107
O O14 0.396400 0.000000 0.276301
O O15 0.659921 0.396219 0.500000
O O16 0.581206 0.412548 0.345204
O O17 0.500000 0.500000 0.395897
O O18 0.500000 0.593179 0.500000
#
# Coordination Sequence:
#
# PCOD9519557 Si02
#       7
#    16  16  16  16  16  16   8
#     4  11  22  38  60  84 111 148 188 232 290 346
#     4  10  20  37  60  82 110 149 188 232 285 337
#     4  10  21  37  58  84 114 144 180 230 287 343
#     4  12  21  31  54  85 115 143 177 226 282 341
#     4  11  25  42  57  80 115 154 200 246 282 329
#     4  10  19  32  52  82 115 145 180 222 273 336
#     4   9  18  32  48  72 113 151 174 210 266 327
#
# _framework density 18.623453000000001
#
# number of rings (size 3 to 8) (size 9 to 14) (size 15 to 20)
#    0.000    1.462    3.846    2.308    0.000    3.692 
#    0.000    4.615    0.000    0.000    0.000    0.000 
#    0.000    0.615    0.000    0.000    0.000    0.000 
#
# Total GULP energy -289938.613100 kJ/mol
# GULP energy per Si atom -5575.742560 kJ/mol
# Density = 1.858107 g / cm^3
# Si number density = 18.623453 Si / 1000 Ang^3
#
#
#
# Elastic Constant Matrix: (Units=GPa)
#
#
# Indices 1 2 3 4 5 6 
#
# 1 29.1199 9.5970 13.2046 0.0000 0.0000 0.0000
# 2 9.5970 71.9680 6.7558 0.0000 0.0000 0.0000
# 3 13.2046 6.7558 53.1563 0.0000 0.0000 0.0000
# 4 0.0000 0.0000 0.0000 15.6422 0.0000 0.0000
# 5 0.0000 0.0000 0.0000 0.0000 19.7809 0.0000
# 6 0.0000 0.0000 0.0000 0.0000 0.0000 24.3209
#
#
#
# Elastic Compliance Matrix: (Units=1/GPa)
#
#
# Indices 1 2 3 4 5 6 
#
# 1 0.040067 -0.004462 -0.009386 0.000000 0.000000 0.000000
# 2 -0.004462 0.014560 -0.000742 0.000000 0.000000 0.000000
# 3 -0.009386 -0.000742 0.021238 0.000000 0.000000 0.000000
# 4 0.000000 0.000000 0.000000 0.063930 0.000000 0.000000
# 5 0.000000 0.000000 0.000000 0.000000 0.050554 0.000000
# 6 0.000000 0.000000 0.000000 0.000000 0.000000 0.041117
#
#
# Mechanical properties :
#
#
# Convention : Reuss Voigt Hill
#
# Bulk Modulus (GPa) = 21.42000 23.70656 22.56328
# Shear Modulus (GPa) = 18.10233 20.26128 19.18181
#
# Velocity S-wave (km/s) = 3.12110 3.30198 3.21281
# Velocity P-wave (km/s) = 4.95126 5.22441 5.08967
#
# Compressibility (1/GPa) = 0.04668535
#
# Stress axis : x y z
#
# Youngs Moduli (GPa) = 24.95794 68.68264 47.08462
#
# Poissons Ratio (x) = 0.30646 0.44194
# Poissons Ratio (y) = 0.11136 0.03494
# Poissons Ratio (z) = 0.23426 0.05097
#
# Static dielectric constant tensor:
#      x y z
#    x 1.661410 0.000000 0.000000 
#    y 0.000000 1.667900 0.000000 
#    z 0.000000 0.000000 1.660060 
# 
# From -- ./inp_files/34876.got.cif
#   From: 2010.05.17/outbox.cif.g08.bks.cpg/sg71_18_cif.got.tgz:34876.got - 2010.06.03 16:22:01.
