data_PCOD9519686
_publ_section_title
;
Structure prediction by ZEFSAII (Michael W. Deem and Ramdas Pophale) SiO2 
 PCOD9519686
Probable space group: I M M M
;
_chemical_formula_sum "Si O2"
_cell_formula_units_Z 58
_cell_length_a 9.173544
_cell_length_b 24.845664
_cell_length_c 14.397405
_cell_angle_alpha 90.000000
_cell_angle_beta 90.000000
_cell_angle_gamma 90.000000
_cell_volume 3281.496744
_symmetry_space_group_name_H-M "I M M M"
_symmetry_group_IT_number 71
_symmetry_cell_setting 'orthorhombic'
loop_
_space_group_symop_operation_xyz
x,y,z
-x,-y,z
x,-y,-z
-x,y,-z
-x,-y,-z
x,y,-z
-x,y,z
x,-y,z
1/2+x,1/2+y,1/2+z
1/2-x,1/2-y,1/2+z
1/2+x,1/2-y,1/2-z
1/2-x,1/2+y,1/2-z
1/2-x,1/2-y,1/2-z
1/2+x,1/2+y,1/2-z
1/2-x,1/2+y,1/2+z
1/2+x,1/2-y,1/2+z
loop_
_atom_site_type_symbol
_atom_site_label
_atom_site_fract_x
_atom_site_fract_y
_atom_site_fract_z
Si Si1 0.174465 0.699398 0.695540
Si Si2 0.338895 0.318773 0.000000
Si Si3 0.293580 0.500000 0.106082
Si Si4 0.000000 0.500000 0.000000
Si Si5 0.327339 0.285837 0.500000
Si Si6 0.660747 0.615597 0.810080
O O1 0.250000 0.750000 0.750000
O O2 0.246144 0.695585 0.593618
O O3 0.217698 0.644637 0.748785
O O4 0.000000 0.707583 0.692351
O O5 0.205807 0.278009 0.000000
O O6 0.332638 0.355024 0.090543
O O7 0.500000 0.291122 0.000000
O O8 0.328309 0.553038 0.164862
O O9 0.125328 0.500000 0.080150
O O10 0.357437 0.500000 0.000000
O O11 0.500000 0.297060 0.500000
O O12 0.500000 0.626863 0.768909
#
# Coordination Sequence:
#
# PCOD9519686 Si02
#       6
#    16   8   8   2   8  16
#     4  12  25  40  61  87 121 159 202 247 301 358
#     4  10  19  32  56  85 123 158 198 241 287 351
#     4  10  21  36  58  84 128 159 204 243 300 352
#     4   8  20  36  54  88 128 158 206 240 304 354
#     4  12  24  41  60  85 120 156 201 248 301 357
#     4  11  22  37  59  88 122 162 203 244 298 357
#
# _framework density 17.674861
#
# number of rings (size 3 to 8) (size 9 to 14) (size 15 to 20)
#    0.414    0.552    4.138    4.138    1.931    0.552 
#    2.483    0.000    0.000    0.828    0.000    4.828 
#    0.000    0.000    0.000    0.000    0.000    0.000 
#
# Total GULP energy -161459.946934 kJ/mol
# GULP energy per Si atom -5567.584377 kJ/mol
# Density = 1.763463 g / cm^3
# Si number density = 17.674861 Si / 1000 Ang^3
#
#
#
# Elastic Constant Matrix: (Units=GPa)
#
#
# Indices 1 2 3 4 5 6 
#
# 1 175.3984 29.3964 57.4037 0.0000 0.0000 0.0000
# 2 29.3964 95.3866 39.9963 0.0000 0.0000 0.0000
# 3 57.4037 39.9963 116.6348 0.0000 0.0000 0.0000
# 4 0.0000 0.0000 0.0000 25.6975 0.0000 0.0000
# 5 0.0000 0.0000 0.0000 0.0000 24.9726 0.0000
# 6 0.0000 0.0000 0.0000 0.0000 0.0000 73.8758
#
#
#
# Elastic Compliance Matrix: (Units=1/GPa)
#
#
# Indices 1 2 3 4 5 6 
#
# 1 0.006850 -0.000815 -0.003092 0.000000 0.000000 0.000000
# 2 -0.000815 0.012341 -0.003831 0.000000 0.000000 0.000000
# 3 -0.003092 -0.003831 0.011409 0.000000 0.000000 0.000000
# 4 0.000000 0.000000 0.000000 0.038914 0.000000 0.000000
# 5 0.000000 0.000000 0.000000 0.000000 0.040044 0.000000
# 6 0.000000 0.000000 0.000000 0.000000 0.000000 0.013536
#
#
# Mechanical properties :
#
#
# Convention : Reuss Voigt Hill
#
# Bulk Modulus (GPa) = 66.11560 71.22363 68.66962
# Shear Modulus (GPa) = 34.81622 42.28407 38.55014
#
# Velocity S-wave (km/s) = 4.44308 4.89645 4.67526
# Velocity P-wave (km/s) = 7.98805 8.50594 8.25106
#
# Compressibility (1/GPa) = 0.01512502
#
# Stress axis : x y z
#
# Youngs Moduli (GPa) = 145.99150 81.03018 87.64816
#
# Poissons Ratio (x) = 0.06600 0.27100
# Poissons Ratio (y) = 0.11891 0.33579
# Poissons Ratio (z) = 0.45139 0.31044
#
# Static dielectric constant tensor:
#      x y z
#    x 1.631160 0.000000 0.000000 
#    y 0.000000 1.615620 0.000000 
#    z 0.000000 0.000000 1.610830 
# 
# From -- ./inp_files/31152.got.cif
#   From: 2010.05.17/outbox.cif.g08.bks.cpg/sg71_16_cif.got.tgz:31152.got - 2010.06.03 16:22:01.
