data_PCOD9519012
_publ_section_title
;
Structure prediction by ZEFSAII (Michael W. Deem and Ramdas Pophale) SiO2 
 PCOD9519012
Probable space group: I M M M
;
_chemical_formula_sum "Si O2"
_cell_formula_units_Z 120
_cell_length_a 7.368592
_cell_length_b 25.651705
_cell_length_c 30.166606
_cell_angle_alpha 90.000000
_cell_angle_beta 90.000000
_cell_angle_gamma 90.000000
_cell_volume 5701.999805
_symmetry_space_group_name_H-M "I M M M"
_symmetry_group_IT_number 71
_symmetry_cell_setting 'orthorhombic'
loop_
_space_group_symop_operation_xyz
x,y,z
-x,-y,z
x,-y,-z
-x,y,-z
-x,-y,-z
x,y,-z
-x,y,z
x,-y,z
1/2+x,1/2+y,1/2+z
1/2-x,1/2-y,1/2+z
1/2+x,1/2-y,1/2-z
1/2-x,1/2+y,1/2-z
1/2-x,1/2-y,1/2-z
1/2+x,1/2+y,1/2-z
1/2-x,1/2+y,1/2+z
1/2+x,1/2-y,1/2+z
loop_
_atom_site_type_symbol
_atom_site_label
_atom_site_fract_x
_atom_site_fract_y
_atom_site_fract_z
Si Si1 0.715878 0.699275 0.721076
Si Si2 0.281687 0.443758 0.844317
Si Si3 0.213163 0.632991 0.078889
Si Si4 0.222316 0.440419 0.000000
Si Si5 0.721111 0.586519 0.747796
Si Si6 0.778382 0.170912 0.123576
Si Si7 0.278223 0.753249 0.448655
Si Si8 0.720912 0.556639 0.649302
O O1 0.500000 0.693993 0.717822
O O2 0.750000 0.750000 0.750000
O O3 0.779811 0.646731 0.745082
O O4 0.780355 0.697513 0.670132
O O5 0.500000 0.444734 0.843735
O O6 0.219149 0.500000 0.862763
O O7 0.231959 0.394174 0.873711
O O8 0.218088 0.438151 0.793717
O O9 0.283533 0.691412 0.071986
O O10 0.000000 0.637455 0.069460
O O11 0.284401 0.592011 0.042779
O O12 0.283177 0.500000 0.000000
O O13 0.000000 0.441768 0.000000
O O14 0.500000 0.584147 0.748366
O O15 0.775017 0.561430 0.701079
O O16 0.718688 0.205298 0.082060
O O17 0.721246 0.110235 0.125653
O O18 0.000000 0.170793 0.123081
O O19 0.223099 0.749999 0.500000
O O20 0.500000 0.752604 0.448189
O O21 0.500000 0.557216 0.648497
O O22 0.779351 0.500000 0.631970
#
# Coordination Sequence:
#
# PCOD9519012 Si02
#       8
#    16  16  16   8  16  16  16  16
#     4   9  17  28  42  62  89 117 145 178 217 258
#     4  10  20  32  45  63  88 116 145 179 221 263
#     4  10  19  31  47  65  82 108 147 186 222 261
#     4   9  16  28  45  61  77  99 136 186 226 257
#     4   8  15  27  41  59  84 115 147 176 208 251
#     4   8  15  25  39  62  87 110 141 184 223 255
#     4   9  16  28  45  63  83 109 145 185 225 269
#     4   8  12  21  39  60  83 114 149 179 208 249
#
# _framework density 21.045248000000001
#
# number of rings (size 3 to 8) (size 9 to 14) (size 15 to 20)
#    0.000    3.133    0.667    2.400    1.867    2.400 
#    0.000    0.333    0.000    1.600    0.000    2.800 
#    0.000    4.800    0.000    0.000    0.000    0.000 
#
# Total GULP energy -334714.657242 kJ/mol
# GULP energy per Si atom -5578.577621 kJ/mol
# Density = 2.099735 g / cm^3
# Si number density = 21.045248 Si / 1000 Ang^3
#
#
#
# Elastic Constant Matrix: (Units=GPa)
#
#
# Indices 1 2 3 4 5 6 
#
# 1 70.7451 3.6738 -0.5658 0.0000 0.0000 0.0000
# 2 3.6738 214.5159 97.2401 0.0000 0.0000 0.0000
# 3 -0.5658 97.2401 111.2090 0.0000 0.0000 0.0000
# 4 0.0000 0.0000 0.0000 29.2381 0.0000 0.0000
# 5 0.0000 0.0000 0.0000 0.0000 -0.2616 0.0000
# 6 0.0000 0.0000 0.0000 0.0000 0.0000 2.1277
#
#
#
# Elastic Compliance Matrix: (Units=1/GPa)
#
#
# Indices 1 2 3 4 5 6 
#
# 1 0.014163 -0.000456 0.000471 0.000000 0.000000 0.000000
# 2 -0.000456 0.007737 -0.006768 0.000000 0.000000 0.000000
# 3 0.000471 -0.006768 0.014912 0.000000 0.000000 0.000000
# 4 0.000000 0.000000 0.000000 0.034202 0.000000 0.000000
# 5 0.000000 0.000000 0.000000 0.000000 -3.823259 0.000000
# 6 0.000000 0.000000 0.000000 0.000000 0.000000 0.469998
#
#
# Mechanical properties :
#
#
# Convention : Reuss Voigt Hill
#
# Bulk Modulus (GPa) = 42.90705 66.35181 54.62943
# Shear Modulus (GPa) = -1.53328 25.96231 12.21451
#
# Velocity S-wave (km/s) = -0.85449 3.51613 2.41175
# Velocity P-wave (km/s) = 4.41121 6.93404 5.81118
#
# Compressibility (1/GPa) = 0.02330619
#
# Stress axis : x y z
#
# Youngs Moduli (GPa) = 70.60807 129.24455 67.05966
#
# Poissons Ratio (x) = 0.05893 -0.03157
# Poissons Ratio (y) = 0.03219 0.45384
# Poissons Ratio (z) = -0.03324 0.87469
#
# Static dielectric constant tensor:
#      x y z
#    x 1.851580 0.000000 0.000000 
#    y 0.000000 1.772670 0.000000 
#    z 0.000000 0.000000 1.724520 
# 
# From -- ./inp_files/69615.got.cif
#   From: 2010.05.17/outbox.cif.g08.bks.cpg/sg71_35_cif.got.tgz:69615.got - 2010.06.03 16:22:01.
