data_PCOD9519130
_publ_section_title
;
Structure prediction by ZEFSAII (Michael W. Deem and Ramdas Pophale) SiO2 
 PCOD9519130
Probable space group: I M M M
;
_chemical_formula_sum "Si O2"
_cell_formula_units_Z 88
_cell_length_a 29.412965
_cell_length_b 19.092794
_cell_length_c 7.743296
_cell_angle_alpha 90.000000
_cell_angle_beta 90.000000
_cell_angle_gamma 90.000000
_cell_volume 4348.446730
_symmetry_space_group_name_H-M "I M M M"
_symmetry_group_IT_number 71
_symmetry_cell_setting 'orthorhombic'
loop_
_space_group_symop_operation_xyz
x,y,z
-x,-y,z
x,-y,-z
-x,y,-z
-x,-y,-z
x,y,-z
-x,y,z
x,-y,z
1/2+x,1/2+y,1/2+z
1/2-x,1/2-y,1/2+z
1/2+x,1/2-y,1/2-z
1/2-x,1/2+y,1/2-z
1/2-x,1/2-y,1/2-z
1/2+x,1/2+y,1/2-z
1/2-x,1/2+y,1/2+z
1/2+x,1/2-y,1/2+z
loop_
_atom_site_type_symbol
_atom_site_label
_atom_site_fract_x
_atom_site_fract_y
_atom_site_fract_z
Si Si1 0.241645 0.579050 0.794621
Si Si2 0.946694 0.347090 0.788632
Si Si3 0.201760 0.718570 0.304531
Si Si4 0.389074 0.718236 0.303983
Si Si5 0.944689 0.500000 0.204447
Si Si6 0.347226 0.420611 0.290659
O O1 0.233547 0.500000 0.733988
O O2 0.209199 0.635818 0.710416
O O3 0.294917 0.594677 0.759632
O O4 0.234847 0.582320 0.000000
O O5 0.920367 0.278627 0.723531
O O6 0.929666 0.423874 0.726978
O O7 0.000000 0.341601 0.747872
O O8 0.942775 0.348111 0.000000
O O9 0.191750 0.739365 0.500000
O O10 0.250000 0.750000 0.250000
O O11 0.160946 0.747378 0.191769
O O12 0.405924 0.707250 0.500000
O O13 0.380211 0.641197 0.226601
O O14 0.000000 0.500000 0.217211
O O15 0.933778 0.500000 0.000000
O O16 0.348626 0.419516 0.500000
O O17 0.357717 0.500000 0.233003
#
# Coordination Sequence:
#
# PCOD9519130 Si02
#       6
#    16  16  16  16   8  16
#     4  10  20  34  52  72  95 128 171 212 247 292
#     4   8  14  26  46  71  98 127 161 203 249 296
#     4  12  23  35  51  71 101 136 169 208 254 301
#     4  10  19  31  49  73  99 128 166 209 254 301
#     4   7  10  20  40  66  95 125 157 195 239 287
#     4   9  17  29  46  67  93 129 169 207 246 292
#
# _framework density 20.237110999999999
#
# number of rings (size 3 to 8) (size 9 to 14) (size 15 to 20)
#    0.000    2.455    1.818    3.273    0.000    1.091 
#    1.636    0.000    0.000    1.091    0.000    3.818 
#    0.000    2.182    0.000    6.182    0.000    6.545 
#
# Total GULP energy -245338.781216 kJ/mol
# GULP energy per Si atom -5575.881391 kJ/mol
# Density = 2.019105 g / cm^3
# Si number density = 20.237111 Si / 1000 Ang^3
#
#
#
# Elastic Constant Matrix: (Units=GPa)
#
#
# Indices 1 2 3 4 5 6 
#
# 1 32.6731 40.3560 -6.2286 0.0000 0.0000 0.0000
# 2 40.3560 175.3333 -0.0434 0.0000 0.0000 0.0000
# 3 -6.2286 -0.0434 48.0317 0.0000 0.0000 0.0000
# 4 0.0000 0.0000 0.0000 9.9649 0.0000 0.0000
# 5 0.0000 0.0000 0.0000 0.0000 2.7160 0.0000
# 6 0.0000 0.0000 0.0000 0.0000 0.0000 37.9318
#
#
#
# Elastic Compliance Matrix: (Units=1/GPa)
#
#
# Indices 1 2 3 4 5 6 
#
# 1 0.044288 -0.010192 0.005734 0.000000 0.000000 0.000000
# 2 -0.010192 0.008049 -0.001314 0.000000 0.000000 0.000000
# 3 0.005734 -0.001314 0.021562 0.000000 0.000000 0.000000
# 4 0.000000 0.000000 0.000000 0.100352 0.000000 0.000000
# 5 0.000000 0.000000 0.000000 0.000000 0.368184 0.000000
# 6 0.000000 0.000000 0.000000 0.000000 0.000000 0.026363
#
#
# Mechanical properties :
#
#
# Convention : Reuss Voigt Hill
#
# Bulk Modulus (GPa) = 16.03753 36.02288 26.03020
# Shear Modulus (GPa) = 8.31769 24.91950 16.61859
#
# Velocity S-wave (km/s) = 2.02954 3.51290 2.86876
# Velocity P-wave (km/s) = 3.66525 5.85603 4.88503
#
# Compressibility (1/GPa) = 0.06235376
#
# Stress axis : x y z
#
# Youngs Moduli (GPa) = 22.57933 124.23864 46.37796
#
# Poissons Ratio (x) = 1.26628 -0.26593
# Poissons Ratio (y) = 0.23013 0.06096
# Poissons Ratio (z) = -0.12947 0.16330
#
# Static dielectric constant tensor:
#      x y z
#    x 1.690520 0.000000 0.000000 
#    y 0.000000 1.809380 0.000000 
#    z 0.000000 0.000000 1.661650 
# 
# From -- ./inp_files/16886.got.cif
#   From: 2010.05.17/outbox.cif.g08.bks.cpg/sg71_9_cif.got.tgz:16886.got - 2010.06.03 16:22:01.
