data_PCOD9519095
_publ_section_title
;
Structure prediction by ZEFSAII (Michael W. Deem and Ramdas Pophale) SiO2 
 PCOD9519095
Probable space group: I M M M
;
_chemical_formula_sum "Si O2"
_cell_formula_units_Z 88
_cell_length_a 13.163848
_cell_length_b 13.815828
_cell_length_c 25.974606
_cell_angle_alpha 90.000000
_cell_angle_beta 90.000000
_cell_angle_gamma 90.000000
_cell_volume 4723.987561
_symmetry_space_group_name_H-M "I M M M"
_symmetry_group_IT_number 71
_symmetry_cell_setting 'orthorhombic'
loop_
_space_group_symop_operation_xyz
x,y,z
-x,-y,z
x,-y,-z
-x,y,-z
-x,-y,-z
x,y,-z
-x,y,z
x,-y,z
1/2+x,1/2+y,1/2+z
1/2-x,1/2-y,1/2+z
1/2+x,1/2-y,1/2-z
1/2-x,1/2+y,1/2-z
1/2-x,1/2-y,1/2-z
1/2+x,1/2+y,1/2-z
1/2-x,1/2+y,1/2+z
1/2+x,1/2-y,1/2+z
loop_
_atom_site_type_symbol
_atom_site_label
_atom_site_fract_x
_atom_site_fract_y
_atom_site_fract_z
Si Si1 0.725477 0.391590 0.852875
Si Si2 0.612359 0.883334 0.059809
Si Si3 0.798183 0.387440 0.738913
Si Si4 0.000000 0.739323 0.247908
Si Si5 0.500000 0.387797 0.347744
Si Si6 0.000000 0.887957 0.341418
Si Si7 0.208692 0.811980 0.867995
O O1 0.729530 0.385849 0.790320
O O2 0.758020 0.158365 0.809967
O O3 0.608292 0.377416 0.869682
O O4 0.794904 0.304087 0.871501
O O5 0.500000 0.851664 0.078014
O O6 0.701884 0.845601 0.094877
O O7 0.613596 0.000000 0.061517
O O8 0.623681 0.854938 0.000000
O O9 0.821051 0.500000 0.727450
O O10 0.900574 0.328371 0.750505
O O11 0.000000 0.811175 0.199250
O O12 0.000000 0.807907 0.297438
O O13 0.500000 0.500000 0.330771
O O14 0.602754 0.364396 0.378342
O O15 0.000000 0.000000 0.321760
O O16 0.258759 0.000000 0.633150
#
# Coordination Sequence:
#
# PCOD9519095 Si02
#       7
#    16  16  16   8   8   8  16
#     4  10  21  36  52  76 111 150 194 232 271 329
#     4   9  20  39  63  89 114 142 180 232 292 347
#     4  11  22  34  50  76 111 153 197 236 274 323
#     4  12  20  34  48  75 110 149 191 242 275 327
#     4  12  25  37  54  82 115 152 191 230 281 336
#     4  10  19  31  49  70 100 144 188 235 281 317
#     4  12  22  39  57  82 113 151 192 234 284 339
#
# _framework density 18.628329999999998
#
# number of rings (size 3 to 8) (size 9 to 14) (size 15 to 20)
#    0.000    1.273    3.636    4.364    2.545    1.455 
#    0.000    0.909    0.000    2.182    0.000    1.273 
#    0.000    1.455    0.000    0.000    0.000    0.000 
#
# Total GULP energy -245762.107599 kJ/mol
# GULP energy per Si atom -5585.502445 kJ/mol
# Density = 1.858593 g / cm^3
# Si number density = 18.628330 Si / 1000 Ang^3
#
#
#
# Elastic Constant Matrix: (Units=GPa)
#
#
# Indices 1 2 3 4 5 6 
#
# 1 128.2866 41.3511 26.2451 0.0000 0.0000 0.0000
# 2 41.3511 123.5837 2.6472 0.0000 0.0000 0.0000
# 3 26.2451 2.6472 23.6004 0.0000 0.0000 0.0000
# 4 0.0000 0.0000 0.0000 10.6188 0.0000 0.0000
# 5 0.0000 0.0000 0.0000 0.0000 11.4031 0.0000
# 6 0.0000 0.0000 0.0000 0.0000 0.0000 32.4666
#
#
#
# Elastic Compliance Matrix: (Units=1/GPa)
#
#
# Indices 1 2 3 4 5 6 
#
# 1 0.011476 -0.003575 -0.012361 0.000000 0.000000 0.000000
# 2 -0.003575 0.009225 0.002941 0.000000 0.000000 0.000000
# 3 -0.012361 0.002941 0.055789 0.000000 0.000000 0.000000
# 4 0.000000 0.000000 0.000000 0.094173 0.000000 0.000000
# 5 0.000000 0.000000 0.000000 0.000000 0.087696 0.000000
# 6 0.000000 0.000000 0.000000 0.000000 0.000000 0.030801
#
#
# Mechanical properties :
#
#
# Convention : Reuss Voigt Hill
#
# Bulk Modulus (GPa) = 19.80230 46.21752 33.00991
# Shear Modulus (GPa) = 15.06099 24.57951 19.82025
#
# Velocity S-wave (km/s) = 2.84650 3.63639 3.26542
# Velocity P-wave (km/s) = 4.63213 6.51884 5.65473
#
# Compressibility (1/GPa) = 0.05049919
#
# Stress axis : x y z
#
# Youngs Moduli (GPa) = 87.13546 108.40174 17.92470
#
# Poissons Ratio (x) = 0.38756 0.22157
# Poissons Ratio (y) = 0.31153 -0.05272
# Poissons Ratio (z) = 1.07712 -0.31882
#
# Static dielectric constant tensor:
#      x y z
#    x 1.680280 0.000000 0.000000 
#    y 0.000000 1.671040 0.000000 
#    z 0.000000 0.000000 1.617020 
# 
# From -- ./inp_files/28636.got.cif
#   From: 2010.05.17/outbox.cif.g08.bks.cpg/sg71_15_cif.got.tgz:28636.got - 2010.06.03 16:22:01.
