data_PCOD9519883
_publ_section_title
;
Structure prediction by ZEFSAII (Michael W. Deem and Ramdas Pophale) SiO2 
 PCOD9519883
Probable space group: I M M M
;
_chemical_formula_sum "Si O2"
_cell_formula_units_Z 82
_cell_length_a 11.501611
_cell_length_b 21.435179
_cell_length_c 14.485647
_cell_angle_alpha 90.000000
_cell_angle_beta 90.000000
_cell_angle_gamma 90.000000
_cell_volume 3571.278238
_symmetry_space_group_name_H-M "I M M M"
_symmetry_group_IT_number 71
_symmetry_cell_setting 'orthorhombic'
loop_
_space_group_symop_operation_xyz
x,y,z
-x,-y,z
x,-y,-z
-x,y,-z
-x,-y,-z
x,y,-z
-x,y,z
x,-y,z
1/2+x,1/2+y,1/2+z
1/2-x,1/2-y,1/2+z
1/2+x,1/2-y,1/2-z
1/2-x,1/2+y,1/2-z
1/2-x,1/2-y,1/2-z
1/2+x,1/2+y,1/2-z
1/2-x,1/2+y,1/2+z
1/2+x,1/2-y,1/2+z
loop_
_atom_site_type_symbol
_atom_site_label
_atom_site_fract_x
_atom_site_fract_y
_atom_site_fract_z
Si Si1 0.634303 0.500000 0.887552
Si Si2 0.749889 0.625100 0.603025
Si Si3 0.000000 0.500000 0.000000
Si Si4 0.000000 0.571017 0.370972
Si Si5 0.500000 0.894769 0.338939
Si Si6 0.250764 0.868982 0.611542
Si Si7 0.631673 0.242480 0.886793
Si Si8 0.362443 0.500000 0.390452
O O1 0.500000 0.500000 0.855653
O O2 0.702278 0.562887 0.861248
O O3 0.631418 0.500000 0.000000
O O4 0.698231 0.633258 0.500000
O O5 0.883137 0.603067 0.596005
O O6 0.769901 0.693364 0.645767
O O7 0.686277 0.565589 0.647607
O O8 0.000000 0.445991 0.080415
O O9 0.000000 0.574295 0.260666
O O10 0.000000 0.500000 0.400070
O O11 0.620624 0.858282 0.349716
O O12 0.258882 0.869660 0.500000
O O13 0.165408 0.812982 0.637162
O O14 0.500000 0.228123 0.855516
O O15 0.631758 0.238605 0.000000
O O16 0.500000 0.500000 0.383807
O O17 0.328489 0.500000 0.500000
#
# Coordination Sequence:
#
# PCOD9519883 Si02
#       8
#     8  16   2   8   8  16  16   8
#     4   9  17  28  49  80 106 133 181 242 291 333
#     4  10  19  35  60  87 118 152 184 233 295 348
#     4  12  20  40  60  72 116 156 192 246 292 342
#     4  12  23  34  58  90 114 141 199 250 285 344
#     4  12  24  37  56  84 114 152 195 244 301 345
#     4  10  19  33  54  78 110 149 190 233 291 353
#     4   9  17  31  55  85 114 146 187 238 288 344
#     4   9  18  32  53  85 116 149 184 223 276 343
#
# _framework density 22.960965999999999
#
# number of rings (size 3 to 8) (size 9 to 14) (size 15 to 20)
#    0.000    1.951    3.415    1.463    1.366    2.732 
#    1.756    0.976    0.000    3.512    0.000    0.000 
#    0.000    0.000    0.000    0.000    0.000    0.000 
#
# Total GULP energy -228761.035889 kJ/mol
# GULP energy per Si atom -5579.537461 kJ/mol
# Density = 2.290871 g / cm^3
# Si number density = 22.960966 Si / 1000 Ang^3
#
#
#
# Elastic Constant Matrix: (Units=GPa)
#
#
# Indices 1 2 3 4 5 6 
#
# 1 104.4023 45.2574 -7.1387 0.0000 0.0000 0.0000
# 2 45.2574 174.0936 -2.3375 0.0001 0.0000 0.0000
# 3 -7.1387 -2.3375 109.1272 0.0002 -0.0001 0.0000
# 4 0.0000 0.0001 0.0002 -1.0321 -0.0001 0.0000
# 5 0.0000 0.0000 -0.0001 -0.0001 -23.2166 0.0000
# 6 0.0000 0.0000 0.0000 0.0000 0.0000 -21.3979
#
#
#
# Elastic Compliance Matrix: (Units=1/GPa)
#
#
# Indices 1 2 3 4 5 6 
#
# 1 0.010841 -0.002809 0.000649 0.000000 0.000000 0.000000
# 2 -0.002809 0.006474 -0.000045 0.000001 0.000000 0.000000
# 3 0.000649 -0.000045 0.009205 0.000002 0.000000 0.000000
# 4 0.000000 0.000001 0.000002 -0.968915 0.000003 0.000000
# 5 0.000000 0.000000 0.000000 0.000003 -0.043073 0.000000
# 6 0.000000 0.000000 0.000000 0.000000 0.000000 -0.046734
#
#
# Mechanical properties :
#
#
# Convention : Reuss Voigt Hill
#
# Bulk Modulus (GPa) = 45.23180 51.02061 48.12621
# Shear Modulus (GPa) = -4.89994 14.32681 4.71344
#
# Velocity S-wave (km/s) = -1.46242 2.50064 1.43432
# Velocity P-wave (km/s) = 4.10982 5.53231 4.87325
#
# Compressibility (1/GPa) = 0.02210834
#
# Stress axis : x y z
#
# Youngs Moduli (GPa) = 92.24616 154.46965 108.63537
#
# Poissons Ratio (x) = 0.43397 -0.07050
# Poissons Ratio (y) = 0.25916 0.00490
# Poissons Ratio (z) = -0.05986 0.00697
#
# Static dielectric constant tensor:
#      x y z
#    x 1.837510 0.000000 0.000000 
#    y 0.000000 1.886400 0.000000 
#    z 0.000000 0.000000 1.856690 
# 
# From -- ./inp_files/43334.got.cif
#   From: 2010.05.17/outbox.cif.g08.bks.cpg/sg71_22_cif.got.tgz:43334.got - 2010.06.03 16:22:01.
