data_PCOD9519667
_publ_section_title
;
Structure prediction by ZEFSAII (Michael W. Deem and Ramdas Pophale) SiO2 
 PCOD9519667
Probable space group: I M M M
;
_chemical_formula_sum "Si O2"
_cell_formula_units_Z 66
_cell_length_a 18.565435
_cell_length_b 20.939526
_cell_length_c 7.289935
_cell_angle_alpha 90.000000
_cell_angle_beta 90.000000
_cell_angle_gamma 90.000000
_cell_volume 2833.972502
_symmetry_space_group_name_H-M "I M M M"
_symmetry_group_IT_number 71
_symmetry_cell_setting 'orthorhombic'
loop_
_space_group_symop_operation_xyz
x,y,z
-x,-y,z
x,-y,-z
-x,y,-z
-x,-y,-z
x,y,-z
-x,y,z
x,-y,z
1/2+x,1/2+y,1/2+z
1/2-x,1/2-y,1/2+z
1/2+x,1/2-y,1/2-z
1/2-x,1/2+y,1/2-z
1/2-x,1/2-y,1/2-z
1/2+x,1/2+y,1/2-z
1/2-x,1/2+y,1/2+z
1/2+x,1/2-y,1/2+z
loop_
_atom_site_type_symbol
_atom_site_label
_atom_site_fract_x
_atom_site_fract_y
_atom_site_fract_z
Si Si1 0.706262 0.865202 0.720302
Si Si2 0.629416 0.363361 0.290903
Si Si3 0.000000 0.500000 0.500000
Si Si4 0.635242 0.000000 0.720721
Si Si5 0.914091 0.000000 0.217477
Si Si6 0.920646 0.271796 0.224005
O O1 0.710856 0.860056 0.500000
O O2 0.785406 0.850832 0.792650
O O3 0.681240 0.936798 0.763832
O O4 0.644338 0.816849 0.784262
O O5 0.601829 0.367526 0.500000
O O6 0.615569 0.433033 0.207275
O O7 0.591675 0.300709 0.212194
O O8 0.936657 0.500000 0.339578
O O9 0.620401 0.000000 0.500000
O O10 0.000000 0.000000 0.236793
O O11 0.895266 0.000000 0.000000
O O12 0.000000 0.295243 0.277828
O O13 0.918643 0.271622 0.000000
#
# Coordination Sequence:
#
# PCOD9519667 Si02
#       6
#    16  16   2   8   8  16
#     4  10  21  37  57  79 113 155 194 237 294 359
#     4  10  19  32  55  83 111 144 190 242 292 352
#     4  12  26  40  68  90 128 156 200 262 304 350
#     4  10  24  42  62  91 122 162 205 246 302 364
#     4   9  17  30  52  82 111 138 176 234 291 344
#     4   9  18  33  54  79 108 148 196 244 296 354
#
# _framework density 23.288864
#
# number of rings (size 3 to 8) (size 9 to 14) (size 15 to 20)
#    0.000    2.303    0.000    2.364    3.394    2.909 
#    0.000    0.000    0.000    5.091    0.000    0.000 
#    0.000    0.000    0.000    0.000    0.000    0.000 
#
# Total GULP energy -184260.623912 kJ/mol
# GULP energy per Si atom -5583.655270 kJ/mol
# Density = 2.323586 g / cm^3
# Si number density = 23.288864 Si / 1000 Ang^3
#
#
#
# Elastic Constant Matrix: (Units=GPa)
#
#
# Indices 1 2 3 4 5 6 
#
# 1 64.2574 13.2480 -4.0963 0.0000 0.0000 0.0000
# 2 13.2480 130.0264 -1.8479 0.0000 0.0000 0.0000
# 3 -4.0963 -1.8479 99.2420 0.0000 0.0000 0.0000
# 4 0.0000 0.0000 0.0000 -67.7728 0.0000 0.0000
# 5 0.0000 0.0000 0.0000 0.0000 1268.3067 0.0000
# 6 0.0000 0.0000 0.0000 0.0000 0.0000 18.7925
#
#
#
# Elastic Compliance Matrix: (Units=1/GPa)
#
#
# Indices 1 2 3 4 5 6 
#
# 1 0.015935 -0.001615 0.000628 0.000000 0.000000 0.000000
# 2 -0.001615 0.007856 0.000080 0.000000 0.000000 0.000000
# 3 0.000628 0.000080 0.010104 0.000000 0.000000 0.000000
# 4 0.000000 0.000000 0.000000 -0.014755 0.000000 0.000000
# 5 0.000000 0.000000 0.000000 0.000000 0.000788 0.000000
# 6 0.000000 0.000000 0.000000 0.000000 0.000000 0.053213
#
#
# Mechanical properties :
#
#
# Convention : Reuss Voigt Hill
#
# Bulk Modulus (GPa) = 31.17132 34.23703 32.70418
# Shear Modulus (GPa) = 58.37720 262.94673 160.66196
#
# Velocity S-wave (km/s) = 5.01208 10.63728 8.31483
# Velocity P-wave (km/s) = 6.84897 12.86864 10.30801
#
# Compressibility (1/GPa) = 0.03208077
#
# Stress axis : x y z
#
# Youngs Moduli (GPa) = 62.75371 127.28489 98.97291
#
# Poissons Ratio (x) = 0.20552 -0.06212
# Poissons Ratio (y) = 0.10133 -0.00788
# Poissons Ratio (z) = -0.03939 -0.01014
#
# Static dielectric constant tensor:
#      x y z
#    x 1.806060 0.000000 0.000000 
#    y 0.000000 1.865480 0.000000 
#    z 0.000000 0.000000 1.898920 
# 
# From -- ./inp_files/7658.got.cif
#   From: 2010.05.17/outbox.cif.g08.bks.cpg/sg71_4_cif.got.tgz:7658.got - 2010.06.03 16:22:01.
