data_PCOD9519283
_publ_section_title
;
Structure prediction by ZEFSAII (Michael W. Deem and Ramdas Pophale) SiO2 
 PCOD9519283
Probable space group: I M M M
;
_chemical_formula_sum "Si O2"
_cell_formula_units_Z 88
_cell_length_a 28.217393
_cell_length_b 19.966649
_cell_length_c 8.844393
_cell_angle_alpha 90.000000
_cell_angle_beta 90.000000
_cell_angle_gamma 90.000000
_cell_volume 4982.990996
_symmetry_space_group_name_H-M "I M M M"
_symmetry_group_IT_number 71
_symmetry_cell_setting 'orthorhombic'
loop_
_space_group_symop_operation_xyz
x,y,z
-x,-y,z
x,-y,-z
-x,y,-z
-x,-y,-z
x,y,-z
-x,y,z
x,-y,z
1/2+x,1/2+y,1/2+z
1/2-x,1/2-y,1/2+z
1/2+x,1/2-y,1/2-z
1/2-x,1/2+y,1/2-z
1/2-x,1/2-y,1/2-z
1/2+x,1/2+y,1/2-z
1/2-x,1/2+y,1/2+z
1/2+x,1/2-y,1/2+z
loop_
_atom_site_type_symbol
_atom_site_label
_atom_site_fract_x
_atom_site_fract_y
_atom_site_fract_z
Si Si1 0.412054 0.831002 0.181119
Si Si2 0.814189 0.311598 0.819750
Si Si3 0.207920 0.167697 0.318845
Si Si4 0.621036 0.423227 0.817982
Si Si5 0.443783 0.690301 0.321638
Si Si6 0.000000 0.423070 0.315718
O O1 0.359835 0.845062 0.244890
O O2 0.426480 0.757305 0.238460
O O3 0.452927 0.882665 0.231384
O O4 0.410535 0.830808 0.000000
O O5 0.810288 0.234741 0.763029
O O6 0.763012 0.342976 0.779660
O O7 0.819535 0.312398 0.000000
O O8 0.205676 0.179958 0.500000
O O9 0.172956 0.106923 0.283362
O O10 0.616199 0.500000 0.769445
O O11 0.583461 0.373711 0.742864
O O12 0.615257 0.420513 0.000000
O O13 0.434098 0.697349 0.500000
O O14 0.500000 0.683336 0.299666
O O15 0.000000 0.500000 0.264978
O O16 0.000000 0.423212 0.500000
#
# Coordination Sequence:
#
# PCOD9519283 Si02
#       6
#    16  16  16  16  16   8
#     4  11  20  34  58  84 110 143 184 228 273 326
#     4  10  19  31  52  82 112 141 178 227 275 321
#     4   9  18  33  52  77 109 144 182 224 272 325
#     4  10  21  37  57  80 109 148 192 233 274 326
#     4  11  23  37  55  81 112 144 183 231 280 331
#     4   9  20  38  59  83 110 143 182 225 275 330
#
# _framework density 17.660076
#
# number of rings (size 3 to 8) (size 9 to 14) (size 15 to 20)
#    0.000    1.909    2.727    1.636    0.000    2.545 
#    0.000    2.727    0.000    5.455    0.000    0.000 
#    0.000    0.000    0.000    0.000    0.000    0.000 
#
# Total GULP energy -245603.618276 kJ/mol
# GULP energy per Si atom -5581.900415 kJ/mol
# Density = 1.761988 g / cm^3
# Si number density = 17.660076 Si / 1000 Ang^3
#
#
#
# Elastic Constant Matrix: (Units=GPa)
#
#
# Indices 1 2 3 4 5 6 
#
# 1 131.2336 45.7582 45.8853 0.0000 0.0000 0.0000
# 2 45.7582 78.6404 25.6813 0.0000 0.0000 0.0000
# 3 45.8853 25.6813 37.2295 0.0000 0.0000 0.0000
# 4 0.0000 0.0000 0.0000 6.6507 0.0000 0.0000
# 5 0.0000 0.0000 0.0000 0.0000 31.1903 0.0000
# 6 0.0000 0.0000 0.0000 0.0000 0.0000 25.8415
#
#
#
# Elastic Compliance Matrix: (Units=1/GPa)
#
#
# Indices 1 2 3 4 5 6 
#
# 1 0.014003 -0.003242 -0.015022 0.000000 0.000000 0.000000
# 2 -0.003242 0.017164 -0.007844 0.000000 0.000000 0.000000
# 3 -0.015022 -0.007844 0.050786 0.000000 0.000000 0.000000
# 4 0.000000 0.000000 0.000000 0.150359 0.000000 0.000000
# 5 0.000000 0.000000 0.000000 0.000000 0.032061 0.000000
# 6 0.000000 0.000000 0.000000 0.000000 0.000000 0.038697
#
#
# Mechanical properties :
#
#
# Convention : Reuss Voigt Hill
#
# Bulk Modulus (GPa) = 33.62872 53.52812 43.57842
# Shear Modulus (GPa) = 13.69112 21.38843 17.53978
#
# Velocity S-wave (km/s) = 2.78737 3.48389 3.15491
# Velocity P-wave (km/s) = 5.42612 6.82344 6.16450
#
# Compressibility (1/GPa) = 0.02973648
#
# Stress axis : x y z
#
# Youngs Moduli (GPa) = 71.41404 58.26075 19.69041
#
# Poissons Ratio (x) = 0.18889 0.29579
# Poissons Ratio (y) = 0.23153 0.15446
# Poissons Ratio (z) = 1.07279 0.45701
#
# Static dielectric constant tensor:
#      x y z
#    x 1.621120 0.000000 0.000000 
#    y 0.000000 1.566060 0.000000 
#    z 0.000000 0.000000 1.595290 
# 
# From -- ./inp_files/16629.got.cif
#   From: 2010.05.17/outbox.cif.g08.bks.cpg/sg71_9_cif.got.tgz:16629.got - 2010.06.03 16:22:01.
