data_PCOD9519479
_publ_section_title
;
Structure prediction by ZEFSAII (Michael W. Deem and Ramdas Pophale) SiO2 
 PCOD9519479
Probable space group: I M M M
;
_chemical_formula_sum "Si O2"
_cell_formula_units_Z 96
_cell_length_a 16.068022
_cell_length_b 26.110644
_cell_length_c 15.539688
_cell_angle_alpha 90.000000
_cell_angle_beta 90.000000
_cell_angle_gamma 90.000000
_cell_volume 6519.620192
_symmetry_space_group_name_H-M "I M M M"
_symmetry_group_IT_number 71
_symmetry_cell_setting 'orthorhombic'
loop_
_space_group_symop_operation_xyz
x,y,z
-x,-y,z
x,-y,-z
-x,y,-z
-x,-y,-z
x,y,-z
-x,y,z
x,-y,z
1/2+x,1/2+y,1/2+z
1/2-x,1/2-y,1/2+z
1/2+x,1/2-y,1/2-z
1/2-x,1/2+y,1/2-z
1/2-x,1/2-y,1/2-z
1/2+x,1/2+y,1/2-z
1/2-x,1/2+y,1/2+z
1/2+x,1/2-y,1/2+z
loop_
_atom_site_type_symbol
_atom_site_label
_atom_site_fract_x
_atom_site_fract_y
_atom_site_fract_z
Si Si1 0.180538 0.239130 0.404713
Si Si2 0.348016 0.188223 0.347587
Si Si3 0.156275 0.559997 0.399189
Si Si4 0.500000 0.939452 0.775492
Si Si5 0.239885 0.654525 0.324858
Si Si6 0.000000 0.621133 0.095372
Si Si7 0.405282 0.294654 0.733742
O O1 0.145785 0.236928 0.500000
O O2 0.266652 0.207185 0.398515
O O3 0.204437 0.297405 0.379486
O O4 0.119823 0.216848 0.332322
O O5 0.311224 0.158006 0.264894
O O6 0.416827 0.155582 0.396528
O O7 0.391278 0.240096 0.313134
O O8 0.133821 0.566216 0.500000
O O9 0.178912 0.500000 0.387206
O O10 0.079355 0.571962 0.335798
O O11 0.225373 0.601251 0.372573
O O12 0.500000 0.912317 0.682925
O O13 0.500000 0.000000 0.759741
O O14 0.335637 0.667355 0.303826
O O15 0.000000 0.596230 0.000000
O O16 0.500000 0.311495 0.724743
#
# Coordination Sequence:
#
# PCOD9519479 Si02
#       7
#    16  16  16   8  16   8  16
#     4   9  17  28  43  66  95 122 156 193 226 272
#     4   9  17  30  43  63  94 127 157 186 224 267
#     4  10  19  32  52  73  92 120 156 192 236 284
#     4  10  21  35  48  67  99 124 151 200 239 270
#     4   9  17  30  47  65  92 127 153 189 234 275
#     4  12  20  28  49  68  92 131 164 189 221 269
#     4   9  17  29  47  64  92 127 153 189 233 278
#
# _framework density 14.724784
#
# number of rings (size 3 to 8) (size 9 to 14) (size 15 to 20)
#    0.000    2.500    2.500    3.250    0.000    1.500 
#    0.000    0.000    0.000    0.500    0.000    1.167 
#    0.000    0.000    0.000    4.333    0.000    0.000 
#
# Total GULP energy -267294.835808 kJ/mol
# GULP energy per Si atom -5568.642413 kJ/mol
# Density = 1.469127 g / cm^3
# Si number density = 14.724784 Si / 1000 Ang^3
#
#
#
# Elastic Constant Matrix: (Units=GPa)
#
#
# Indices 1 2 3 4 5 6 
#
# 1 79.2753 34.7084 22.9392 0.0000 0.0000 0.0000
# 2 34.7084 61.9329 39.8768 0.0000 0.0000 0.0000
# 3 22.9392 39.8768 101.3444 0.0001 0.0000 0.0000
# 4 0.0000 0.0000 0.0001 18.3930 0.0000 0.0000
# 5 0.0000 0.0000 0.0000 0.0000 8.3491 0.0000
# 6 0.0000 0.0000 0.0000 0.0000 0.0000 17.6190
#
#
#
# Elastic Compliance Matrix: (Units=1/GPa)
#
#
# Indices 1 2 3 4 5 6 
#
# 1 0.016717 -0.009284 -0.000131 0.000000 0.000000 0.000000
# 2 -0.009284 0.026782 -0.008436 0.000000 0.000000 0.000000
# 3 -0.000131 -0.008436 0.013216 0.000000 0.000000 0.000000
# 4 0.000000 0.000000 0.000000 0.054368 0.000000 0.000000
# 5 0.000000 0.000000 0.000000 0.000000 0.119773 0.000000
# 6 0.000000 0.000000 0.000000 0.000000 0.000000 0.056757
#
#
# Mechanical properties :
#
#
# Convention : Reuss Voigt Hill
#
# Bulk Modulus (GPa) = 47.59175 48.62240 48.10707
# Shear Modulus (GPa) = 15.13683 18.54079 16.83881
#
# Velocity S-wave (km/s) = 3.20970 3.55231 3.38534
# Velocity P-wave (km/s) = 6.79170 7.06524 6.92982
#
# Compressibility (1/GPa) = 0.02101204
#
# Stress axis : x y z
#
# Youngs Moduli (GPa) = 59.81943 37.33896 75.66302
#
# Poissons Ratio (x) = 0.34667 0.00989
# Poissons Ratio (y) = 0.55539 0.63833
# Poissons Ratio (z) = 0.00782 0.31501
#
# Static dielectric constant tensor:
#      x y z
#    x 1.484460 0.000000 0.000000 
#    y 0.000000 1.470260 0.000000 
#    z 0.000000 0.000000 1.503460 
# 
# From -- ./inp_files/35054.got.cif
#   From: 2010.05.17/outbox.cif.g08.bks.cpg/sg71_18_cif.got.tgz:35054.got - 2010.06.03 16:22:01.
