data_PCOD9519460
_publ_section_title
;
Structure prediction by ZEFSAII (Michael W. Deem and Ramdas Pophale) SiO2 
 PCOD9519460
Probable space group: I M M M
;
_chemical_formula_sum "Si O2"
_cell_formula_units_Z 88
_cell_length_a 28.953773
_cell_length_b 14.025552
_cell_length_c 11.777048
_cell_angle_alpha 90.000000
_cell_angle_beta 90.000000
_cell_angle_gamma 90.000000
_cell_volume 4782.572617
_symmetry_space_group_name_H-M "I M M M"
_symmetry_group_IT_number 71
_symmetry_cell_setting 'orthorhombic'
loop_
_space_group_symop_operation_xyz
x,y,z
-x,-y,z
x,-y,-z
-x,y,-z
-x,-y,-z
x,y,-z
-x,y,z
x,-y,z
1/2+x,1/2+y,1/2+z
1/2-x,1/2-y,1/2+z
1/2+x,1/2-y,1/2-z
1/2-x,1/2+y,1/2-z
1/2-x,1/2-y,1/2-z
1/2+x,1/2+y,1/2-z
1/2-x,1/2+y,1/2+z
1/2+x,1/2-y,1/2+z
loop_
_atom_site_type_symbol
_atom_site_label
_atom_site_fract_x
_atom_site_fract_y
_atom_site_fract_z
Si Si1 0.312322 0.884304 0.000000
Si Si2 0.206734 0.114378 0.000000
Si Si3 0.853581 0.113871 0.221365
Si Si4 0.325551 0.115102 0.252594
Si Si5 0.768936 0.115564 0.630371
Si Si6 0.000000 0.390242 0.137838
Si Si7 0.908182 0.724317 0.135621
O O1 0.259022 0.851237 0.000000
O O2 0.333531 0.857367 0.878917
O O3 0.311817 0.000000 0.000000
O O4 0.177786 0.137743 0.111157
O O5 0.210571 0.000000 0.000000
O O6 0.819509 0.141859 0.323831
O O7 0.898686 0.177691 0.203379
O O8 0.862297 0.000000 0.223936
O O9 0.274348 0.146368 0.292703
O O10 0.364176 0.159233 0.333049
O O11 0.327080 0.000000 0.260383
O O12 0.761645 0.141727 0.500000
O O13 0.768514 0.000000 0.637218
O O14 0.045855 0.332368 0.170481
O O15 0.000000 0.500000 0.178458
O O16 0.000000 0.394305 0.000000
O O17 0.910280 0.741790 0.000000
#
# Coordination Sequence:
#
# PCOD9519460 Si02
#       7
#     8   8  16  16  16   8  16
#     4   9  16  30  50  73 106 147 184 215 258 310
#     4   9  14  28  50  67  99 149 183 205 245 300
#     4  10  19  33  52  75 108 146 178 212 254 306
#     4  10  19  32  51  76 108 143 180 223 263 308
#     4   9  17  30  48  74 111 149 180 215 259 303
#     4   9  20  40  61  80 106 133 161 212 276 327
#     4  11  22  35  55  81 102 132 179 220 266 324
#
# _framework density 18.400138999999999
#
# number of rings (size 3 to 8) (size 9 to 14) (size 15 to 20)
#    0.000    2.273    2.727    1.091    0.000    2.545 
#    1.636    0.455    0.000    2.182    0.000    2.545 
#    0.000    2.909    0.000    0.000    0.000    0.000 
#
# Total GULP energy -245523.098182 kJ/mol
# GULP energy per Si atom -5580.070413 kJ/mol
# Density = 1.835826 g / cm^3
# Si number density = 18.400139 Si / 1000 Ang^3
#
#
#
# Elastic Constant Matrix: (Units=GPa)
#
#
# Indices 1 2 3 4 5 6 
#
# 1 96.9217 51.0053 14.0889 0.0000 0.0000 0.0000
# 2 51.0053 107.1152 10.2176 0.0000 0.0000 0.0000
# 3 14.0889 10.2176 62.7390 0.0000 0.0000 0.0000
# 4 0.0000 0.0000 0.0000 13.9971 0.0000 0.0000
# 5 0.0000 0.0000 0.0000 0.0000 19.4363 0.0000
# 6 0.0000 0.0000 0.0000 0.0000 0.0000 27.7435
#
#
#
# Elastic Compliance Matrix: (Units=1/GPa)
#
#
# Indices 1 2 3 4 5 6 
#
# 1 0.014034 -0.006483 -0.002096 0.000000 0.000000 0.000000
# 2 -0.006483 0.012478 -0.000576 0.000000 0.000000 0.000000
# 3 -0.002096 -0.000576 0.016504 0.000000 0.000000 0.000000
# 4 0.000000 0.000000 0.000000 0.071443 0.000000 0.000000
# 5 0.000000 0.000000 0.000000 0.000000 0.051450 0.000000
# 6 0.000000 0.000000 0.000000 0.000000 0.000000 0.036044
#
#
# Mechanical properties :
#
#
# Convention : Reuss Voigt Hill
#
# Bulk Modulus (GPa) = 40.47671 46.37773 43.42722
# Shear Modulus (GPa) = 21.88213 24.99966 23.44090
#
# Velocity S-wave (km/s) = 3.45227 3.69001 3.57312
# Velocity P-wave (km/s) = 6.15928 6.58898 6.37775
#
# Compressibility (1/GPa) = 0.02470556
#
# Stress axis : x y z
#
# Youngs Moduli (GPa) = 71.25700 80.14403 60.59309
#
# Poissons Ratio (x) = 0.51954 0.12699
# Poissons Ratio (y) = 0.46193 0.03492
# Poissons Ratio (z) = 0.14933 0.04619
#
# Static dielectric constant tensor:
#      x y z
#    x 1.601760 0.000000 0.000000 
#    y 0.000000 1.714230 0.000000 
#    z 0.000000 0.000000 1.639460 
# 
# From -- ./inp_files/28638.got.cif
#   From: 2010.05.17/outbox.cif.g08.bks.cpg/sg71_15_cif.got.tgz:28638.got - 2010.06.03 16:22:01.
