data_PCOD9519887
_publ_section_title
;
Structure prediction by ZEFSAII (Michael W. Deem and Ramdas Pophale) SiO2 
 PCOD9519887
Probable space group: I M M M
;
_chemical_formula_sum "Si O2"
_cell_formula_units_Z 88
_cell_length_a 8.519012
_cell_length_b 20.104354
_cell_length_c 28.541533
_cell_angle_alpha 90.000000
_cell_angle_beta 90.000000
_cell_angle_gamma 90.000000
_cell_volume 4888.286465
_symmetry_space_group_name_H-M "I M M M"
_symmetry_group_IT_number 71
_symmetry_cell_setting 'orthorhombic'
loop_
_space_group_symop_operation_xyz
x,y,z
-x,-y,z
x,-y,-z
-x,y,-z
-x,-y,-z
x,y,-z
-x,y,z
x,-y,z
1/2+x,1/2+y,1/2+z
1/2-x,1/2-y,1/2+z
1/2+x,1/2-y,1/2-z
1/2-x,1/2+y,1/2-z
1/2-x,1/2-y,1/2-z
1/2+x,1/2+y,1/2-z
1/2-x,1/2+y,1/2+z
1/2+x,1/2-y,1/2+z
loop_
_atom_site_type_symbol
_atom_site_label
_atom_site_fract_x
_atom_site_fract_y
_atom_site_fract_z
Si Si1 0.810439 0.819807 0.053167
Si Si2 0.189433 0.310145 0.811165
Si Si3 0.187266 0.575288 0.628186
Si Si4 0.691442 0.828251 0.415794
Si Si5 0.312960 0.342158 0.712037
Si Si6 0.307977 0.923407 0.500000
O O1 0.752457 0.874495 0.089366
O O2 0.759700 0.745511 0.067851
O O3 0.000000 0.819597 0.054234
O O4 0.759508 0.833515 0.000000
O O5 0.240132 0.337184 0.861806
O O6 0.260525 0.345683 0.765904
O O7 0.232596 0.231843 0.806501
O O8 0.000000 0.313715 0.808374
O O9 0.245516 0.500000 0.621446
O O10 0.236681 0.603604 0.678617
O O11 0.000000 0.575068 0.625100
O O12 0.500000 0.828634 0.416015
O O13 0.742283 0.882869 0.453653
O O14 0.500000 0.346967 0.708568
O O15 0.500000 0.923114 0.500000
O O16 0.257220 0.000000 0.500000
#
# Coordination Sequence:
#
# PCOD9519887 Si02
#       6
#    16  16  16  16  16   8
#     4  10  19  34  57  81 105 140 187 231 269 316
#     4   9  17  30  51  78 108 140 174 221 272 314
#     4  11  24  39  54  75 109 147 180 225 282 334
#     4   9  15  28  49  75 109 144 178 219 262 309
#     4  10  19  33  54  79 105 137 179 224 269 320
#     4   9  16  26  46  78 112 143 172 208 261 317
#
# _framework density 18.002217000000002
#
# number of rings (size 3 to 8) (size 9 to 14) (size 15 to 20)
#    0.000    2.273    2.727    1.091    0.000    2.909 
#    0.000    2.727    0.000    3.273    0.000    0.000 
#    0.000    3.636    0.000    0.000    0.000    0.000 
#
# Total GULP energy -245486.846508 kJ/mol
# GULP energy per Si atom -5579.246512 kJ/mol
# Density = 1.796124 g / cm^3
# Si number density = 18.002217 Si / 1000 Ang^3
#
#
#
# Elastic Constant Matrix: (Units=GPa)
#
#
# Indices 1 2 3 4 5 6 
#
# 1 6.0576 15.7752 16.1915 0.0000 0.0000 0.0000
# 2 15.7752 133.8185 84.6665 0.0000 0.0000 0.0000
# 3 16.1915 84.6665 167.9448 0.0000 0.0000 0.0000
# 4 0.0000 0.0000 0.0000 22.9281 0.0000 0.0000
# 5 0.0000 0.0000 0.0000 0.0000 27.1313 0.0000
# 6 0.0000 0.0000 0.0000 0.0000 0.0000 10.1405
#
#
#
# Elastic Compliance Matrix: (Units=1/GPa)
#
#
# Indices 1 2 3 4 5 6 
#
# 1 0.259016 -0.021636 -0.014064 0.000000 0.000000 0.000000
# 2 -0.021636 0.012780 -0.004357 0.000000 0.000000 0.000000
# 3 -0.014064 -0.004357 0.009507 0.000000 0.000000 0.000000
# 4 0.000000 0.000000 0.000000 0.043615 0.000000 0.000000
# 5 0.000000 0.000000 0.000000 0.000000 0.036858 0.000000
# 6 0.000000 0.000000 0.000000 0.000000 0.000000 0.098615
#
#
# Mechanical properties :
#
#
# Convention : Reuss Voigt Hill
#
# Bulk Modulus (GPa) = 4.97045 60.12080 32.54562
# Shear Modulus (GPa) = 8.22955 24.78583 16.50769
#
# Velocity S-wave (km/s) = 2.14040 3.71458 3.03145
# Velocity P-wave (km/s) = 2.97917 7.20183 5.51098
#
# Compressibility (1/GPa) = 0.20118922
#
# Stress axis : x y z
#
# Youngs Moduli (GPa) = 3.86076 78.24772 105.18854
#
# Poissons Ratio (x) = 1.69294 1.47941
# Poissons Ratio (y) = 0.08353 0.45830
# Poissons Ratio (z) = 0.05430 0.34092
#
# Static dielectric constant tensor:
#      x y z
#    x 1.615820 0.000000 0.000000 
#    y 0.000000 1.599810 0.000000 
#    z 0.000000 0.000000 1.616650 
# 
# From -- ./inp_files/68012.got.cif
#   From: 2010.05.17/outbox.cif.g08.bks.cpg/sg71_35_cif.got.tgz:68012.got - 2010.06.03 16:22:01.
