data_PCOD9519213
_publ_section_title
;
Structure prediction by ZEFSAII (Michael W. Deem and Ramdas Pophale) SiO2 
 PCOD9519213
Probable space group: I M M M
;
_chemical_formula_sum "Si O2"
_cell_formula_units_Z 56
_cell_length_a 8.794764
_cell_length_b 14.577792
_cell_length_c 20.991612
_cell_angle_alpha 90.000000
_cell_angle_beta 90.000000
_cell_angle_gamma 90.000000
_cell_volume 2691.297635
_symmetry_space_group_name_H-M "I M M M"
_symmetry_group_IT_number 71
_symmetry_cell_setting 'orthorhombic'
loop_
_space_group_symop_operation_xyz
x,y,z
-x,-y,z
x,-y,-z
-x,y,-z
-x,-y,-z
x,y,-z
-x,y,z
x,-y,z
1/2+x,1/2+y,1/2+z
1/2-x,1/2-y,1/2+z
1/2+x,1/2-y,1/2-z
1/2-x,1/2+y,1/2-z
1/2-x,1/2-y,1/2-z
1/2+x,1/2+y,1/2-z
1/2-x,1/2+y,1/2+z
1/2+x,1/2-y,1/2+z
loop_
_atom_site_type_symbol
_atom_site_label
_atom_site_fract_x
_atom_site_fract_y
_atom_site_fract_z
Si Si1 0.680617 0.500000 0.395543
Si Si2 0.327572 0.500000 0.074642
Si Si3 0.316300 0.000000 0.244004
Si Si4 0.181947 0.306420 0.571193
Si Si5 0.819656 0.345385 0.153472
O O1 0.500000 0.500000 0.403889
O O2 0.726967 0.500000 0.321323
O O3 0.752519 0.408403 0.424535
O O4 0.500000 0.500000 0.101880
O O5 0.235019 0.587223 0.097742
O O6 0.340363 0.500000 0.000000
O O7 0.279204 0.092609 0.284565
O O8 0.500000 0.000000 0.234093
O O9 0.222807 0.269067 0.500000
O O10 0.243019 0.249239 0.631946
O O11 0.000000 0.307404 0.574896
O O12 0.000000 0.332833 0.154819
#
# Coordination Sequence:
#
# PCOD9519213 Si02
#       5
#     8   8   8  16  16
#     4  12  26  42  64  90 117 157 206 256 303 350
#     4  10  19  31  50  80 119 160 198 239 295 359
#     4   9  21  42  63  88 124 162 200 243 298 360
#     4  11  24  42  64  90 122 161 201 245 303 364
#     4  10  21  37  60  89 120 156 199 248 298 351
#
# _framework density 20.807805999999999
#
# number of rings (size 3 to 8) (size 9 to 14) (size 15 to 20)
#    0.000    1.571    0.000    5.571    0.000   13.143 
#    0.000    0.000    0.000    0.000    0.000    0.000 
#    0.000    0.000    0.000    0.000    0.000    0.000 
#
# Total GULP energy -156307.270453 kJ/mol
# GULP energy per Si atom -5582.402516 kJ/mol
# Density = 2.076045 g / cm^3
# Si number density = 20.807806 Si / 1000 Ang^3
#
#
#
# Elastic Constant Matrix: (Units=GPa)
#
#
# Indices 1 2 3 4 5 6 
#
# 1 57.4474 16.7856 35.6899 0.0000 0.0000 0.0000
# 2 16.7856 96.6287 13.2775 0.0000 0.0000 0.0000
# 3 35.6899 13.2775 81.9478 0.0000 0.0000 0.0000
# 4 0.0000 0.0000 0.0000 22.8464 0.0000 0.0000
# 5 0.0000 0.0000 0.0000 0.0000 29.0916 0.0000
# 6 0.0000 0.0000 0.0000 0.0000 0.0000 65.5327
#
#
#
# Elastic Compliance Matrix: (Units=1/GPa)
#
#
# Indices 1 2 3 4 5 6 
#
# 1 0.024617 -0.002867 -0.010257 0.000000 0.000000 0.000000
# 2 -0.002867 0.010918 -0.000520 0.000000 0.000000 0.000000
# 3 -0.010257 -0.000520 0.016754 0.000000 0.000000 0.000000
# 4 0.000000 0.000000 0.000000 0.043771 0.000000 0.000000
# 5 0.000000 0.000000 0.000000 0.000000 0.034374 0.000000
# 6 0.000000 0.000000 0.000000 0.000000 0.000000 0.015260
#
#
# Mechanical properties :
#
#
# Convention : Reuss Voigt Hill
#
# Bulk Modulus (GPa) = 39.99756 40.83665 40.41711
# Shear Modulus (GPa) = 27.57615 34.84552 31.21083
#
# Velocity S-wave (km/s) = 3.64439 4.09667 3.87713
# Velocity P-wave (km/s) = 6.08053 6.48423 6.28562
#
# Compressibility (1/GPa) = 0.02500152
#
# Stress axis : x y z
#
# Youngs Moduli (GPa) = 40.62228 91.58827 59.68646
#
# Poissons Ratio (x) = 0.26258 0.61219
# Poissons Ratio (y) = 0.11646 0.03106
# Poissons Ratio (z) = 0.41665 0.04767
#
# Static dielectric constant tensor:
#      x y z
#    x 1.697990 0.000000 0.000000 
#    y 0.000000 1.770230 0.000000 
#    z 0.000000 0.000000 1.766320 
# 
# From -- ./inp_files/30982.got.cif
#   From: 2010.05.17/outbox.cif.g08.bks.cpg/sg71_16_cif.got.tgz:30982.got - 2010.06.03 16:22:01.
