data_PCOD9519238
_publ_section_title
;
Structure prediction by ZEFSAII (Michael W. Deem and Ramdas Pophale) SiO2 
 PCOD9519238
Probable space group: I M M M
;
_chemical_formula_sum "Si O2"
_cell_formula_units_Z 104
_cell_length_a 7.536652
_cell_length_b 33.297267
_cell_length_c 20.369921
_cell_angle_alpha 90.000000
_cell_angle_beta 90.000000
_cell_angle_gamma 90.000000
_cell_volume 5111.829922
_symmetry_space_group_name_H-M "I M M M"
_symmetry_group_IT_number 71
_symmetry_cell_setting 'orthorhombic'
loop_
_space_group_symop_operation_xyz
x,y,z
-x,-y,z
x,-y,-z
-x,y,-z
-x,-y,-z
x,y,-z
-x,y,z
x,-y,z
1/2+x,1/2+y,1/2+z
1/2-x,1/2-y,1/2+z
1/2+x,1/2-y,1/2-z
1/2-x,1/2+y,1/2-z
1/2-x,1/2-y,1/2-z
1/2+x,1/2+y,1/2-z
1/2-x,1/2+y,1/2+z
1/2+x,1/2-y,1/2+z
loop_
_atom_site_type_symbol
_atom_site_label
_atom_site_fract_x
_atom_site_fract_y
_atom_site_fract_z
Si Si1 0.288737 0.190740 0.707046
Si Si2 0.713273 0.227333 0.844914
Si Si3 0.716718 0.077492 0.159790
Si Si4 0.288113 0.899614 0.302585
Si Si5 0.717052 0.000000 0.923690
Si Si6 0.713077 0.454410 0.073174
Si Si7 0.216654 0.346599 0.573659
O O1 0.500000 0.187133 0.715003
O O2 0.218898 0.208413 0.776125
O O3 0.259124 0.225791 0.654094
O O4 0.219440 0.146211 0.693034
O O5 0.500000 0.225489 0.843671
O O6 0.773688 0.197241 0.901563
O O7 0.500000 0.076402 0.159743
O O8 0.776841 0.079297 0.235450
O O9 0.773829 0.039408 0.116738
O O10 0.770612 0.118705 0.124020
O O11 0.500000 0.896960 0.295038
O O12 0.256791 0.924833 0.367921
O O13 0.500000 0.000000 0.924786
O O14 0.773566 0.000000 0.000000
O O15 0.500000 0.456070 0.070388
O O16 0.776801 0.500000 0.085939
O O17 0.775551 0.442292 0.000000
O O18 0.275667 0.355288 0.500000
O O19 0.000000 0.346963 0.573461
#
# Coordination Sequence:
#
# PCOD9519238 Si02
#       7
#    16  16  16  16   8  16  16
#     4   9  17  30  46  67  97 128 157 198 250 294
#     4   9  16  28  46  68  92 124 168 207 241 285
#     4   9  16  26  40  65 100 133 163 199 242 284
#     4  10  19  31  51  78 105 131 162 203 248 297
#     4   9  16  24  36  60  98 139 168 192 237 295
#     4   9  20  39  58  75  99 130 162 200 248 300
#     4   9  15  25  43  65  93 130 168 204 240 281
#
# _framework density 20.344964999999998
#
# number of rings (size 3 to 8) (size 9 to 14) (size 15 to 20)
#    0.000    2.846    1.538    0.923    1.077    3.077 
#    0.000    1.538    0.000    3.231    0.000    0.000 
#    0.000    2.462    0.000    0.000    0.000    0.000 
#
# Total GULP energy -290005.772225 kJ/mol
# GULP energy per Si atom -5577.034081 kJ/mol
# Density = 2.029866 g / cm^3
# Si number density = 20.344965 Si / 1000 Ang^3
#
#
#
# Elastic Constant Matrix: (Units=GPa)
#
#
# Indices 1 2 3 4 5 6 
#
# 1 47.4489 3.5022 1.7729 0.0000 0.0000 0.0000
# 2 3.5022 157.7089 103.8189 0.0000 0.0000 0.0000
# 3 1.7729 103.8189 157.2966 0.0001 0.0000 0.0000
# 4 0.0000 0.0000 0.0001 29.8172 0.0000 0.0000
# 5 0.0000 0.0000 0.0000 0.0000 -53.5198 0.0000
# 6 0.0000 0.0000 0.0000 0.0000 0.0000 13.0364
#
#
#
# Elastic Compliance Matrix: (Units=1/GPa)
#
#
# Indices 1 2 3 4 5 6 
#
# 1 0.021111 -0.000552 0.000126 0.000000 0.000000 0.000000
# 2 -0.000552 0.011227 -0.007404 0.000000 0.000000 0.000000
# 3 0.000126 -0.007404 0.011243 0.000000 0.000000 0.000000
# 4 0.000000 0.000000 0.000000 0.033538 0.000000 0.000000
# 5 0.000000 0.000000 0.000000 0.000000 -0.018685 0.000000
# 6 0.000000 0.000000 0.000000 0.000000 0.000000 0.076708
#
#
# Mechanical properties :
#
#
# Convention : Reuss Voigt Hill
#
# Bulk Modulus (GPa) = 35.81396 64.51582 50.16489
# Shear Modulus (GPa) = 31.22882 14.75743 22.99312
#
# Velocity S-wave (km/s) = 3.92211 2.69617 3.36544
# Velocity P-wave (km/s) = 6.17675 6.43990 6.30969
#
# Compressibility (1/GPa) = 0.02792207
#
# Stress axis : x y z
#
# Youngs Moduli (GPa) = 47.36798 89.07161 88.94712
#
# Poissons Ratio (x) = 0.04917 -0.01124
# Poissons Ratio (y) = 0.02615 0.65854
# Poissons Ratio (z) = -0.00599 0.65947
#
# Static dielectric constant tensor:
#      x y z
#    x 1.847490 0.000000 0.000000 
#    y 0.000000 1.721100 0.000000 
#    z 0.000000 0.000000 1.706060 
# 
# From -- ./inp_files/17005.got.cif
#   From: 2010.05.17/outbox.cif.g08.bks.cpg/sg71_9_cif.got.tgz:17005.got - 2010.06.03 16:22:01.
