data_PCOD9519024
_publ_section_title
;
Structure prediction by ZEFSAII (Michael W. Deem and Ramdas Pophale) SiO2 
 PCOD9519024
Probable space group: I M M M
;
_chemical_formula_sum "Si O2"
_cell_formula_units_Z 96
_cell_length_a 20.458137
_cell_length_b 32.956285
_cell_length_c 7.474505
_cell_angle_alpha 90.000000
_cell_angle_beta 90.000000
_cell_angle_gamma 90.000000
_cell_volume 5039.492106
_symmetry_space_group_name_H-M "I M M M"
_symmetry_group_IT_number 71
_symmetry_cell_setting 'orthorhombic'
loop_
_space_group_symop_operation_xyz
x,y,z
-x,-y,z
x,-y,-z
-x,y,-z
-x,-y,-z
x,y,-z
-x,y,z
x,-y,z
1/2+x,1/2+y,1/2+z
1/2-x,1/2-y,1/2+z
1/2+x,1/2-y,1/2-z
1/2-x,1/2+y,1/2-z
1/2-x,1/2-y,1/2-z
1/2+x,1/2+y,1/2-z
1/2-x,1/2+y,1/2+z
1/2+x,1/2-y,1/2+z
loop_
_atom_site_type_symbol
_atom_site_label
_atom_site_fract_x
_atom_site_fract_y
_atom_site_fract_z
Si Si1 0.427208 0.340742 0.710384
Si Si2 0.572856 0.754350 0.216621
Si Si3 0.211711 0.045392 0.284937
Si Si4 0.286783 0.367255 0.713998
Si Si5 0.706797 0.210117 0.785662
Si Si6 0.568590 0.548741 0.793732
O O1 0.430256 0.350759 0.500000
O O2 0.500000 0.348965 0.787319
O O3 0.416926 0.292376 0.727427
O O4 0.361556 0.361657 0.784825
O O5 0.500000 0.766665 0.275612
O O6 0.633565 0.781051 0.281145
O O7 0.573306 0.754691 0.000000
O O8 0.206249 0.042451 0.500000
O O9 0.244905 0.088545 0.248519
O O10 0.139010 0.054275 0.208180
O O11 0.233279 0.000000 0.224825
O O12 0.291418 0.362615 0.500000
O O13 0.243027 0.330022 0.783123
O O14 0.750000 0.250000 0.750000
O O15 0.702270 0.205777 0.000000
O O16 0.500000 0.562852 0.710937
O O17 0.565093 0.500000 0.802411
O O18 0.569813 0.563055 0.000000
#
# Coordination Sequence:
#
# PCOD9519024 Si02
#       6
#    16  16  16  16  16  16
#     4   9  17  29  43  60  87 121 153 184 220 266
#     4   9  17  29  46  67  90 117 150 188 225 259
#     4   9  18  31  45  61  81 108 146 190 230 266
#     4  10  20  31  43  63  89 118 150 182 223 271
#     4  10  19  31  47  68  94 121 151 185 222 268
#     4   7  10  19  36  55  73  95 128 173 220 256
#
# _framework density 19.049537999999998
#
# number of rings (size 3 to 8) (size 9 to 14) (size 15 to 20)
#    0.000    3.000    1.667    1.500    0.000    2.333 
#    0.000    0.000    0.000    0.000    0.000    4.667 
#    0.000    0.667    0.000    8.333    0.000    1.333 
#
# Total GULP energy -267326.701691 kJ/mol
# GULP energy per Si atom -5569.306285 kJ/mol
# Density = 1.900618 g / cm^3
# Si number density = 19.049538 Si / 1000 Ang^3
#
#
#
# Elastic Constant Matrix: (Units=GPa)
#
#
# Indices 1 2 3 4 5 6 
#
# 1 92.0503 67.3934 7.0000 0.0000 0.0000 0.0000
# 2 67.3934 162.7098 1.7224 0.0001 0.0001 0.0000
# 3 7.0000 1.7224 59.8028 0.0005 0.0015 0.0000
# 4 0.0000 0.0001 0.0005 15.3941 0.0000 0.0000
# 5 0.0000 0.0001 0.0015 0.0000 -3.0442 0.0001
# 6 0.0000 0.0000 0.0000 0.0000 0.0001 12.9268
#
#
#
# Elastic Compliance Matrix: (Units=1/GPa)
#
#
# Indices 1 2 3 4 5 6 
#
# 1 0.015754 -0.006508 -0.001657 0.000000 -0.000001 0.000000
# 2 -0.006508 0.008836 0.000507 0.000000 0.000001 0.000000
# 3 -0.001657 0.000507 0.016901 -0.000001 0.000008 0.000000
# 4 0.000000 0.000000 -0.000001 0.064960 0.000001 0.000000
# 5 -0.000001 0.000001 0.000008 0.000001 -0.328491 0.000002
# 6 0.000000 0.000000 0.000000 0.000000 0.000002 0.077359
#
#
# Mechanical properties :
#
#
# Convention : Reuss Voigt Hill
#
# Bulk Modulus (GPa) = 38.20162 51.86605 45.03384
# Shear Modulus (GPa) = -41.44504 20.95182 -10.24661
#
# Velocity S-wave (km/s) = -4.66944 3.32001 -2.32177
# Velocity P-wave (km/s) = 2.99570 6.47940 4.06254
#
# Compressibility (1/GPa) = 0.02617690
#
# Stress axis : x y z
#
# Youngs Moduli (GPa) = 63.47534 113.17335 59.16834
#
# Poissons Ratio (x) = 0.73650 0.09802
# Poissons Ratio (y) = 0.41308 -0.03001
# Poissons Ratio (z) = 0.10515 -0.05741
#
# Static dielectric constant tensor:
#      x y z
#    x 1.714860 0.000000 0.000000 
#    y 0.000000 1.708970 0.000000 
#    z 0.000000 0.000000 1.720660 
# 
# From -- ./inp_files/24461.got.cif
#   From: 2010.05.17/outbox.cif.g08.bks.cpg/sg71_13_cif.got.tgz:24461.got - 2010.06.03 16:22:01.
