data_PCOD9519427
_publ_section_title
;
Structure prediction by ZEFSAII (Michael W. Deem and Ramdas Pophale) SiO2 
 PCOD9519427
Probable space group: I M M M
;
_chemical_formula_sum "Si O2"
_cell_formula_units_Z 104
_cell_length_a 23.295832
_cell_length_b 29.232797
_cell_length_c 7.827032
_cell_angle_alpha 90.000000
_cell_angle_beta 90.000000
_cell_angle_gamma 90.000000
_cell_volume 5330.227012
_symmetry_space_group_name_H-M "I M M M"
_symmetry_group_IT_number 71
_symmetry_cell_setting 'orthorhombic'
loop_
_space_group_symop_operation_xyz
x,y,z
-x,-y,z
x,-y,-z
-x,y,-z
-x,-y,-z
x,y,-z
-x,y,z
x,-y,z
1/2+x,1/2+y,1/2+z
1/2-x,1/2-y,1/2+z
1/2+x,1/2-y,1/2-z
1/2-x,1/2+y,1/2-z
1/2-x,1/2-y,1/2-z
1/2+x,1/2+y,1/2-z
1/2-x,1/2+y,1/2+z
1/2+x,1/2-y,1/2+z
loop_
_atom_site_type_symbol
_atom_site_label
_atom_site_fract_x
_atom_site_fract_y
_atom_site_fract_z
Si Si1 0.930370 0.500000 0.703120
Si Si2 0.371605 0.814564 0.802027
Si Si3 0.364197 0.359782 0.302735
Si Si4 0.933539 0.052730 0.208679
Si Si5 0.251112 0.303600 0.199213
Si Si6 0.932930 0.597352 0.290842
Si Si7 0.933757 0.224754 0.294415
O O1 0.918409 0.500000 0.500000
O O2 0.909946 0.451511 0.772887
O O3 0.000000 0.500000 0.718339
O O4 0.304134 0.822704 0.795252
O O5 0.402147 0.858084 0.722470
O O6 0.392467 0.765738 0.731731
O O7 0.390150 0.812353 0.000000
O O8 0.349885 0.367951 0.500000
O O9 0.389261 0.407830 0.231425
O O10 0.309022 0.332599 0.228488
O O11 0.415269 0.322882 0.287172
O O12 0.000000 0.062204 0.260329
O O13 0.919960 0.000000 0.258162
O O14 0.933037 0.054062 0.000000
O O15 0.250000 0.250000 0.250000
O O16 0.238545 0.305241 0.000000
O O17 0.928302 0.596625 0.500000
O O18 0.000000 0.600406 0.251761
O O19 0.926567 0.219178 0.500000
O O20 0.000000 0.236435 0.261240
#
# Coordination Sequence:
#
# PCOD9519427 Si02
#       7
#     8  16  16  16  16  16  16
#     4   7  10  18  36  66 101 131 159 197 242 287
#     4  10  19  32  51  74 102 137 174 213 257 309
#     4  11  21  34  56  82 107 139 179 222 265 313
#     4   8  15  30  54  85 117 143 170 213 270 325
#     4  12  24  39  56  74  99 136 179 222 264 312
#     4   8  13  23  43  72 104 134 164 202 252 302
#     4  10  20  32  48  74 109 143 172 208 258 314
#
# _framework density 19.511362999999999
#
# number of rings (size 3 to 8) (size 9 to 14) (size 15 to 20)
#    0.000    2.385    1.538    4.154    0.000    2.769 
#    0.000    0.000    1.692    3.231    0.000    5.385 
#    0.000    1.846    0.000    0.000    0.000    0.000 
#
# Total GULP energy -289692.810143 kJ/mol
# GULP energy per Si atom -5571.015580 kJ/mol
# Density = 1.946695 g / cm^3
# Si number density = 19.511363 Si / 1000 Ang^3
#
#
#
# Elastic Constant Matrix: (Units=GPa)
#
#
# Indices 1 2 3 4 5 6 
#
# 1 62.6563 50.5862 -13.0111 0.0000 0.0000 0.0000
# 2 50.5862 160.6121 2.4503 0.0000 0.0000 0.0000
# 3 -13.0111 2.4503 21.2405 0.0000 0.0000 0.0000
# 4 0.0000 0.0000 0.0000 7.7103 0.0000 0.0000
# 5 0.0000 0.0000 0.0000 0.0000 11.8476 0.0000
# 6 0.0000 0.0000 0.0000 0.0000 0.0000 15.9727
#
#
#
# Elastic Compliance Matrix: (Units=1/GPa)
#
#
# Indices 1 2 3 4 5 6 
#
# 1 0.026480 -0.008603 0.017213 0.000000 0.000000 0.000000
# 2 -0.008603 0.009032 -0.006312 0.000000 0.000000 0.000000
# 3 0.017213 -0.006312 0.058352 0.000000 0.000000 0.000000
# 4 0.000000 0.000000 0.000000 0.129697 0.000000 0.000000
# 5 0.000000 0.000000 0.000000 0.000000 0.084405 0.000000
# 6 0.000000 0.000000 0.000000 0.000000 0.000000 0.062607
#
#
# Mechanical properties :
#
#
# Convention : Reuss Voigt Hill
#
# Bulk Modulus (GPa) = 10.15628 36.06221 23.10924
# Shear Modulus (GPa) = 12.53775 20.73836 16.63805
#
# Velocity S-wave (km/s) = 2.53768 3.26373 2.92333
# Velocity P-wave (km/s) = 3.71524 5.72061 4.82330
#
# Compressibility (1/GPa) = 0.09846124
#
# Stress axis : x y z
#
# Youngs Moduli (GPa) = 37.76436 110.71774 17.13739
#
# Poissons Ratio (x) = 0.95247 -0.29499
# Poissons Ratio (y) = 0.32488 0.10816
# Poissons Ratio (z) = -0.65004 0.69881
#
# Static dielectric constant tensor:
#      x y z
#    x 1.680020 0.000000 0.000000 
#    y 0.000000 1.733330 0.000000 
#    z 0.000000 0.000000 1.751150 
# 
# From -- ./inp_files/13326.got.cif
#   From: 2010.05.17/outbox.cif.g08.bks.cpg/sg71_7_cif.got.tgz:13326.got - 2010.06.03 16:22:01.
