data_PCOD9519897
_publ_section_title
;
Structure prediction by ZEFSAII (Michael W. Deem and Ramdas Pophale) SiO2 
 PCOD9519897
Probable space group: I M M M
;
_chemical_formula_sum "Si O2"
_cell_formula_units_Z 88
_cell_length_a 18.547930
_cell_length_b 7.857086
_cell_length_c 29.931171
_cell_angle_alpha 90.000000
_cell_angle_beta 90.000000
_cell_angle_gamma 90.000000
_cell_volume 4361.949799
_symmetry_space_group_name_H-M "I M M M"
_symmetry_group_IT_number 71
_symmetry_cell_setting 'orthorhombic'
loop_
_space_group_symop_operation_xyz
x,y,z
-x,-y,z
x,-y,-z
-x,y,-z
-x,-y,-z
x,y,-z
-x,y,z
x,-y,z
1/2+x,1/2+y,1/2+z
1/2-x,1/2-y,1/2+z
1/2+x,1/2-y,1/2-z
1/2-x,1/2+y,1/2-z
1/2-x,1/2-y,1/2-z
1/2+x,1/2+y,1/2-z
1/2-x,1/2+y,1/2+z
1/2+x,1/2-y,1/2+z
loop_
_atom_site_type_symbol
_atom_site_label
_atom_site_fract_x
_atom_site_fract_y
_atom_site_fract_z
Si Si1 0.643043 0.794629 0.601048
Si Si2 0.000000 0.708649 0.051173
Si Si3 0.291252 0.205260 0.948728
Si Si4 0.580568 0.798078 0.114721
Si Si5 0.157448 0.798785 0.295939
Si Si6 0.676518 0.205771 0.699166
O O1 0.572520 0.733131 0.575383
O O2 0.716555 0.748064 0.575802
O O3 0.644009 0.735767 0.652359
O O4 0.640369 0.000000 0.602058
O O5 0.000000 0.500000 0.051942
O O6 0.000000 0.762043 0.000000
O O7 0.358179 0.270691 0.918859
O O8 0.296099 0.000000 0.950104
O O9 0.292286 0.267250 0.000000
O O10 0.500000 0.726711 0.108863
O O11 0.607710 0.775910 0.165510
O O12 0.576589 0.000000 0.106258
O O13 0.239984 0.733696 0.300479
O O14 0.138023 0.763662 0.244497
O O15 0.158748 0.000000 0.303319
O O16 0.677503 0.000000 0.699972
#
# Coordination Sequence:
#
# PCOD9519897 Si02
#       6
#    16   8  16  16  16  16
#     4  10  19  35  57  81 109 142 182 224 267 321
#     4   9  18  32  53  81 109 139 177 221 266 313
#     4  10  21  36  56  82 109 139 179 226 276 330
#     4  10  21  37  56  78 108 146 185 227 275 327
#     4  10  19  33  54  80 108 139 177 223 271 320
#     4   9  18  32  53  80 108 140 178 218 264 320
#
# _framework density 20.174462999999999
#
# number of rings (size 3 to 8) (size 9 to 14) (size 15 to 20)
#    0.000    2.273    1.818    1.091    0.000    3.273 
#    1.636    2.273    0.000    1.636    0.000    2.545 
#    0.000    0.000    0.000    0.000    0.000    0.000 
#
# Total GULP energy -245600.905680 kJ/mol
# GULP energy per Si atom -5581.838765 kJ/mol
# Density = 2.012855 g / cm^3
# Si number density = 20.174463 Si / 1000 Ang^3
#
#
#
# Elastic Constant Matrix: (Units=GPa)
#
#
# Indices 1 2 3 4 5 6 
#
# 1 143.2503 1.8961 89.0191 0.0000 0.0000 0.0000
# 2 1.8961 20.1135 -1.0966 0.0000 0.0000 0.0000
# 3 89.0191 -1.0966 180.2406 0.0000 0.0000 0.0000
# 4 0.0000 0.0000 0.0000 15.6827 0.0000 0.0000
# 5 0.0000 0.0000 0.0000 0.0000 22.2678 0.0000
# 6 0.0000 0.0000 0.0000 0.0000 0.0000 9.9379
#
#
#
# Elastic Compliance Matrix: (Units=1/GPa)
#
#
# Indices 1 2 3 4 5 6 
#
# 1 0.010102 -0.001225 -0.004997 0.000000 0.000000 0.000000
# 2 -0.001225 0.049883 0.000908 0.000000 0.000000 0.000000
# 3 -0.004997 0.000908 0.008022 0.000000 0.000000 0.000000
# 4 0.000000 0.000000 0.000000 0.063764 0.000000 0.000000
# 5 0.000000 0.000000 0.000000 0.000000 0.044908 0.000000
# 6 0.000000 0.000000 0.000000 0.000000 0.000000 0.100625
#
#
# Mechanical properties :
#
#
# Convention : Reuss Voigt Hill
#
# Bulk Modulus (GPa) = 17.42765 58.13796 37.78281
# Shear Modulus (GPa) = 16.28362 26.49673 21.39018
#
# Velocity S-wave (km/s) = 2.84410 3.62799 3.25970
# Velocity P-wave (km/s) = 4.40936 6.81395 5.73901
#
# Compressibility (1/GPa) = 0.05738008
#
# Stress axis : x y z
#
# Youngs Moduli (GPa) = 98.98903 20.04701 124.66441
#
# Poissons Ratio (x) = 0.02455 0.62292
# Poissons Ratio (y) = 0.12124 -0.11324
# Poissons Ratio (z) = 0.49463 -0.01821
#
# Static dielectric constant tensor:
#      x y z
#    x 1.697280 0.000000 0.000000 
#    y 0.000000 1.729370 0.000000 
#    z 0.000000 0.000000 1.707890 
# 
# From -- ./inp_files/8822.got.cif
#   From: 2010.05.17/outbox.cif.g08.bks.cpg/sg71_5_cif.got.tgz:8822.got - 2010.06.03 16:22:01.
