data_PCOD9519558
_publ_section_title
;
Structure prediction by ZEFSAII (Michael W. Deem and Ramdas Pophale) SiO2 
 PCOD9519558
Probable space group: I M M M
;
_chemical_formula_sum "Si O2"
_cell_formula_units_Z 100
_cell_length_a 22.554839
_cell_length_b 9.039281
_cell_length_c 27.026967
_cell_angle_alpha 90.000000
_cell_angle_beta 90.000000
_cell_angle_gamma 90.000000
_cell_volume 5510.245265
_symmetry_space_group_name_H-M "I M M M"
_symmetry_group_IT_number 71
_symmetry_cell_setting 'orthorhombic'
loop_
_space_group_symop_operation_xyz
x,y,z
-x,-y,z
x,-y,-z
-x,y,-z
-x,-y,-z
x,y,-z
-x,y,z
x,-y,z
1/2+x,1/2+y,1/2+z
1/2-x,1/2-y,1/2+z
1/2+x,1/2-y,1/2-z
1/2-x,1/2+y,1/2-z
1/2-x,1/2-y,1/2-z
1/2+x,1/2+y,1/2-z
1/2-x,1/2+y,1/2+z
1/2+x,1/2-y,1/2+z
loop_
_atom_site_type_symbol
_atom_site_label
_atom_site_fract_x
_atom_site_fract_y
_atom_site_fract_z
Si Si1 0.432269 0.322068 0.056293
Si Si2 0.500000 0.264864 0.500000
Si Si3 0.334312 0.176002 0.122569
Si Si4 0.125693 0.828000 0.000000
Si Si5 0.113649 0.675277 0.170125
Si Si6 0.798327 0.827221 0.901029
Si Si7 0.313121 0.178561 0.763876
Si Si8 0.000000 0.827868 0.119228
O O1 0.500000 0.276694 0.066597
O O2 0.430319 0.500000 0.057619
O O3 0.386580 0.256696 0.094653
O O4 0.417662 0.275763 0.000000
O O5 0.569574 0.217893 0.500000
O O6 0.500000 0.318482 0.558787
O O7 0.271125 0.205199 0.096405
O O8 0.328554 0.219572 0.179954
O O9 0.344327 0.000000 0.120888
O O10 0.166534 0.812670 0.047794
O O11 0.101312 0.000000 0.000000
O O12 0.102943 0.500000 0.169329
O O13 0.170330 0.720288 0.137542
O O14 0.134369 0.719377 0.225472
O O15 0.057828 0.754426 0.144258
O O16 0.804366 0.000000 0.884791
O O17 0.250000 0.250000 0.750000
O O18 0.306572 0.000000 0.761402
O O19 0.000000 0.000000 0.131306
#
# Coordination Sequence:
#
# PCOD9519558 Si02
#       8
#    16   4  16   8  16  16  16   8
#     4   9  20  40  62  84 116 155 189 229 289 355
#     4  12  21  34  63  88 107 152 205 244 287 332
#     4  10  21  36  59  90 117 147 191 239 286 341
#     4  10  19  32  52  83 115 148 189 238 281 330
#     4  11  23  39  58  83 116 151 192 244 298 342
#     4  10  20  35  57  83 115 149 189 234 284 346
#     4  10  21  38  60  85 115 151 189 234 290 344
#     4  12  24  41  62  83 112 155 205 246 290 348
#
# _framework density 18.148012999999999
#
# number of rings (size 3 to 8) (size 9 to 14) (size 15 to 20)
#    0.000    1.760    3.200    1.920    1.120    2.560 
#    1.440    2.800    0.000    0.000    0.000    0.000 
#    0.000    0.000    0.000    0.000    0.000    0.000 
#
# Total GULP energy -278709.729433 kJ/mol
# GULP energy per Si atom -5574.194589 kJ/mol
# Density = 1.810671 g / cm^3
# Si number density = 18.148013 Si / 1000 Ang^3
#
#
#
# Elastic Constant Matrix: (Units=GPa)
#
#
# Indices 1 2 3 4 5 6 
#
# 1 121.5534 44.6621 92.9892 0.0000 0.0000 0.0000
# 2 44.6621 33.0174 37.4099 0.0000 0.0000 0.0000
# 3 92.9892 37.4099 121.5851 0.0000 0.0000 0.0000
# 4 0.0000 0.0000 0.0000 20.4062 0.0000 0.0000
# 5 0.0000 0.0000 0.0000 0.0000 31.5865 0.0000
# 6 0.0000 0.0000 0.0000 0.0000 0.0000 32.0490
#
#
#
# Elastic Compliance Matrix: (Units=1/GPa)
#
#
# Indices 1 2 3 4 5 6 
#
# 1 0.026004 -0.019407 -0.013917 0.000000 0.000000 0.000000
# 2 -0.019407 0.060980 -0.003920 0.000000 0.000000 0.000000
# 3 -0.013917 -0.003920 0.020074 0.000000 0.000000 0.000000
# 4 0.000000 0.000000 0.000000 0.049005 0.000000 0.000000
# 5 0.000000 0.000000 0.000000 0.000000 0.031659 0.000000
# 6 0.000000 0.000000 0.000000 0.000000 0.000000 0.031202
#
#
# Mechanical properties :
#
#
# Convention : Reuss Voigt Hill
#
# Bulk Modulus (GPa) = 30.70226 69.58647 50.14437
# Shear Modulus (GPa) = 16.43285 23.54801 19.99043
#
# Velocity S-wave (km/s) = 3.01240 3.60606 3.32252
# Velocity P-wave (km/s) = 5.39016 7.46762 6.51227
#
# Compressibility (1/GPa) = 0.03257089
#
# Stress axis : x y z
#
# Youngs Moduli (GPa) = 38.45580 16.39884 49.81449
#
# Poissons Ratio (x) = 0.31825 0.69326
# Poissons Ratio (y) = 0.74631 0.19528
# Poissons Ratio (z) = 0.53518 0.06428
#
# Static dielectric constant tensor:
#      x y z
#    x 1.606180 0.000000 0.000000 
#    y 0.000000 1.629650 0.000000 
#    z 0.000000 0.000000 1.628620 
# 
# From -- ./inp_files/66500.got.cif
#   From: 2010.05.17/outbox.cif.g08.bks.cpg/sg71_34_cif.got.tgz:66500.got - 2010.06.03 16:22:01.
