data_PCOD9519276
_publ_section_title
;
Structure prediction by ZEFSAII (Michael W. Deem and Ramdas Pophale) SiO2 
 PCOD9519276
Probable space group: I M M M
;
_chemical_formula_sum "Si O2"
_cell_formula_units_Z 104
_cell_length_a 23.843942
_cell_length_b 8.030376
_cell_length_c 27.424132
_cell_angle_alpha 90.000000
_cell_angle_beta 90.000000
_cell_angle_gamma 90.000000
_cell_volume 5251.058151
_symmetry_space_group_name_H-M "I M M M"
_symmetry_group_IT_number 71
_symmetry_cell_setting 'orthorhombic'
loop_
_space_group_symop_operation_xyz
x,y,z
-x,-y,z
x,-y,-z
-x,y,-z
-x,-y,-z
x,y,-z
-x,y,z
x,-y,z
1/2+x,1/2+y,1/2+z
1/2-x,1/2-y,1/2+z
1/2+x,1/2-y,1/2-z
1/2-x,1/2+y,1/2-z
1/2-x,1/2-y,1/2-z
1/2+x,1/2+y,1/2-z
1/2-x,1/2+y,1/2+z
1/2+x,1/2-y,1/2+z
loop_
_atom_site_type_symbol
_atom_site_label
_atom_site_fract_x
_atom_site_fract_y
_atom_site_fract_z
Si Si1 0.937018 0.799964 0.285352
Si Si2 0.737418 0.804895 0.056112
Si Si3 0.062759 0.798750 0.172177
Si Si4 0.642281 0.192824 0.412410
Si Si5 0.064457 0.200465 0.000000
Si Si6 0.563783 0.797501 0.051932
Si Si7 0.146332 0.299161 0.633633
O O1 0.931996 0.748477 0.228731
O O2 0.880926 0.750414 0.314739
O O3 0.000000 0.740245 0.302823
O O4 0.939442 0.000000 0.286580
O O5 0.801876 0.790329 0.072302
O O6 0.700715 0.739551 0.102438
O O7 0.721880 0.000000 0.052122
O O8 0.730854 0.736914 0.000000
O O9 0.112946 0.735120 0.138715
O O10 0.000000 0.746358 0.155137
O O11 0.063792 0.000000 0.170179
O O12 0.595872 0.232537 0.452819
O O13 0.657680 0.000000 0.413786
O O14 0.000000 0.250401 0.000000
O O15 0.067650 0.000000 0.000000
O O16 0.500000 0.742028 0.053418
O O17 0.597420 0.739169 0.097531
O O18 0.563714 0.000000 0.053130
O O19 0.589300 0.748392 0.000000
O O20 0.150268 0.500000 0.635552
#
# Coordination Sequence:
#
# PCOD9519276 Si02
#       7
#    16  16  16  16   8  16  16
#     4   9  19  36  57  82 113 149 186 227 283 348
#     4  10  21  38  58  78 109 155 199 235 278 337
#     4   9  19  38  62  84 110 148 188 223 273 345
#     4  12  24  37  57  87 118 146 183 232 283 330
#     4  11  23  39  61  87 117 153 186 217 266 337
#     4   8  13  22  39  67 102 133 165 216 278 330
#     4  10  19  31  52  81 106 138 190 241 281 326
#
# _framework density 19.805530999999998
#
# number of rings (size 3 to 8) (size 9 to 14) (size 15 to 20)
#    0.000    2.231    0.769    4.385    0.000    6.769 
#    0.000    2.308    0.000    1.385    0.000    5.385 
#    0.000    0.000    0.000    0.000    0.000    0.000 
#
# Total GULP energy -289634.856278 kJ/mol
# GULP energy per Si atom -5569.901082 kJ/mol
# Density = 1.976045 g / cm^3
# Si number density = 19.805531 Si / 1000 Ang^3
#
#
#
# Elastic Constant Matrix: (Units=GPa)
#
#
# Indices 1 2 3 4 5 6 
#
# 1 101.6491 0.9286 53.5229 0.0000 0.0000 0.0000
# 2 0.9286 20.3011 5.9995 0.0000 0.0000 0.0000
# 3 53.5229 5.9995 96.4334 0.0000 0.0000 0.0000
# 4 0.0000 0.0000 0.0000 21.3608 0.0000 0.0000
# 5 0.0000 0.0000 0.0000 0.0000 28.5021 0.0000
# 6 0.0000 0.0000 0.0000 0.0000 0.0000 14.1141
#
#
#
# Elastic Compliance Matrix: (Units=1/GPa)
#
#
# Indices 1 2 3 4 5 6 
#
# 1 0.013956 0.001682 -0.007851 0.000000 0.000000 0.000000
# 2 0.001682 0.050384 -0.004068 0.000000 0.000000 0.000000
# 3 -0.007851 -0.004068 0.014980 0.000000 0.000000 0.000000
# 4 0.000000 0.000000 0.000000 0.046815 0.000000 0.000000
# 5 0.000000 0.000000 0.000000 0.000000 0.035085 0.000000
# 6 0.000000 0.000000 0.000000 0.000000 0.000000 0.070851
#
#
# Mechanical properties :
#
#
# Convention : Reuss Voigt Hill
#
# Bulk Modulus (GPa) = 16.99342 37.69837 27.34590
# Shear Modulus (GPa) = 18.37157 23.32426 20.84791
#
# Velocity S-wave (km/s) = 3.04895 3.43543 3.24795
# Velocity P-wave (km/s) = 4.58188 5.90016 5.28230
#
# Compressibility (1/GPa) = 0.05884629
#
# Stress axis : x y z
#
# Youngs Moduli (GPa) = 71.65324 19.84771 66.75478
#
# Poissons Ratio (x) = -0.03338 0.52406
# Poissons Ratio (y) = -0.12050 0.27155
# Poissons Ratio (z) = 0.56252 0.08074
#
# Static dielectric constant tensor:
#      x y z
#    x 1.706850 0.000000 0.000000 
#    y 0.000000 1.724480 0.000000 
#    z 0.000000 0.000000 1.728250 
# 
# From -- ./inp_files/66800.got.cif
#   From: 2010.05.17/outbox.cif.g08.bks.cpg/sg71_34_cif.got.tgz:66800.got - 2010.06.03 16:22:01.
