data_PCOD9519215
_publ_section_title
;
Structure prediction by ZEFSAII (Michael W. Deem and Ramdas Pophale) SiO2 
 PCOD9519215
Probable space group: I M M M
;
_chemical_formula_sum "Si O2"
_cell_formula_units_Z 104
_cell_length_a 33.340862
_cell_length_b 7.289185
_cell_length_c 19.025304
_cell_angle_alpha 90.000000
_cell_angle_beta 90.000000
_cell_angle_gamma 90.000000
_cell_volume 4623.676086
_symmetry_space_group_name_H-M "I M M M"
_symmetry_group_IT_number 71
_symmetry_cell_setting 'orthorhombic'
loop_
_space_group_symop_operation_xyz
x,y,z
-x,-y,z
x,-y,-z
-x,y,-z
-x,-y,-z
x,y,-z
-x,y,z
x,-y,z
1/2+x,1/2+y,1/2+z
1/2-x,1/2-y,1/2+z
1/2+x,1/2-y,1/2-z
1/2-x,1/2+y,1/2-z
1/2-x,1/2-y,1/2-z
1/2+x,1/2+y,1/2-z
1/2-x,1/2+y,1/2+z
1/2+x,1/2-y,1/2+z
loop_
_atom_site_type_symbol
_atom_site_label
_atom_site_fract_x
_atom_site_fract_y
_atom_site_fract_z
Si Si1 0.426672 0.276429 0.678574
Si Si2 0.000000 0.223742 0.919299
Si Si3 0.738853 0.784533 0.421933
Si Si4 0.121347 0.223166 0.420695
Si Si5 0.193554 0.776661 0.681973
Si Si6 0.835382 0.779570 0.166780
Si Si7 0.954621 0.776557 0.334562
O O1 0.426480 0.500000 0.678215
O O2 0.460259 0.218573 0.622887
O O3 0.381324 0.215854 0.663265
O O4 0.440125 0.221621 0.756843
O O5 0.000000 0.000000 0.918864
O O6 0.000000 0.282396 0.000000
O O7 0.746017 0.708456 0.500000
O O8 0.767033 0.711596 0.359370
O O9 0.692980 0.767061 0.398184
O O10 0.748496 0.000000 0.426095
O O11 0.129076 0.284172 0.500000
O O12 0.155773 0.276360 0.366191
O O13 0.078248 0.281320 0.391222
O O14 0.121582 0.000000 0.421433
O O15 0.185841 0.713285 0.761280
O O16 0.194691 0.000000 0.685326
O O17 0.837072 0.000000 0.170771
O O18 0.000000 0.716387 0.347676
O O19 0.954877 0.000000 0.334805
#
# Coordination Sequence:
#
# PCOD9519215 Si02
#       7
#    16   8  16  16  16  16  16
#     4   9  15  25  40  60  87 117 147 185 233 277
#     4   9  16  24  36  56  84 118 152 184 222 273
#     4  10  21  35  49  67  94 126 157 191 234 283
#     4   9  15  22  35  57  85 119 158 192 223 269
#     4   9  16  29  47  66  88 118 156 194 231 275
#     4  10  19  31  51  74  94 119 156 199 238 275
#     4   9  14  21  34  52  82 122 154 182 224 275
#
# _framework density 22.492926000000001
#
# number of rings (size 3 to 8) (size 9 to 14) (size 15 to 20)
#    0.000    2.692    2.308    0.923    0.000    3.077 
#    0.000    3.077    0.000    0.000    0.000    0.538 
#    0.000    1.846    0.000    0.000    0.000    2.154 
#
# Total GULP energy -290591.178416 kJ/mol
# GULP energy per Si atom -5588.291893 kJ/mol
# Density = 2.244173 g / cm^3
# Si number density = 22.492926 Si / 1000 Ang^3
#
#
#
# Elastic Constant Matrix: (Units=GPa)
#
#
# Indices 1 2 3 4 5 6 
#
# 1 118.5580 -5.0959 23.7132 0.0000 0.0000 0.0000
# 2 -5.0959 95.2329 0.0756 0.0000 0.0000 0.0000
# 3 23.7132 0.0756 99.2847 0.0000 0.0000 0.0000
# 4 0.0000 0.0000 0.0000 -8.0075 0.0000 0.0000
# 5 0.0000 0.0000 0.0000 0.0000 18.9278 0.0000
# 6 0.0000 0.0000 0.0000 0.0000 0.0000 -117.5056
#
#
#
# Elastic Compliance Matrix: (Units=1/GPa)
#
#
# Indices 1 2 3 4 5 6 
#
# 1 0.008879 0.000477 -0.002121 0.000000 0.000000 0.000000
# 2 0.000477 0.010526 -0.000122 0.000000 0.000000 0.000000
# 3 -0.002121 -0.000122 0.010579 0.000000 0.000000 0.000000
# 4 0.000000 0.000000 0.000000 -0.124883 0.000000 0.000000
# 5 0.000000 0.000000 0.000000 0.000000 0.052832 0.000000
# 6 0.000000 0.000000 0.000000 0.000000 0.000000 -0.008510
#
#
# Mechanical properties :
#
#
# Convention : Reuss Voigt Hill
#
# Bulk Modulus (GPa) = 37.80440 38.94016 38.37228
# Shear Modulus (GPa) = -130.79680 -1.69154 -66.24417
#
# Velocity S-wave (km/s) = -7.63390 -0.86814 -5.43278
# Velocity P-wave (km/s) = 7.80117 4.04288 4.71770
#
# Compressibility (1/GPa) = 0.02645195
#
# Stress axis : x y z
#
# Youngs Moduli (GPa) = 112.61970 95.00122 94.52912
#
# Poissons Ratio (x) = -0.04530 0.20051
# Poissons Ratio (y) = -0.05370 0.01152
# Poissons Ratio (z) = 0.23888 0.01158
#
# Static dielectric constant tensor:
#      x y z
#    x 1.791770 0.000000 0.000000 
#    y 0.000000 1.964000 0.000000 
#    z 0.000000 0.000000 1.769700 
# 
# From -- ./inp_files/11450.got.cif
#   From: 2010.05.17/outbox.cif.g08.bks.cpg/sg71_6_cif.got.tgz:11450.got - 2010.06.03 16:22:01.
