data_PCOD9519611
_publ_section_title
;
Structure prediction by ZEFSAII (Michael W. Deem and Ramdas Pophale) SiO2 
 PCOD9519611
Probable space group: I M M M
;
_chemical_formula_sum "Si O2"
_cell_formula_units_Z 88
_cell_length_a 15.039567
_cell_length_b 14.593234
_cell_length_c 23.333076
_cell_angle_alpha 90.000000
_cell_angle_beta 90.000000
_cell_angle_gamma 90.000000
_cell_volume 5121.048333
_symmetry_space_group_name_H-M "I M M M"
_symmetry_group_IT_number 71
_symmetry_cell_setting 'orthorhombic'
loop_
_space_group_symop_operation_xyz
x,y,z
-x,-y,z
x,-y,-z
-x,y,-z
-x,-y,-z
x,y,-z
-x,y,z
x,-y,z
1/2+x,1/2+y,1/2+z
1/2-x,1/2-y,1/2+z
1/2+x,1/2-y,1/2-z
1/2-x,1/2+y,1/2-z
1/2-x,1/2-y,1/2-z
1/2+x,1/2+y,1/2-z
1/2-x,1/2+y,1/2+z
1/2+x,1/2-y,1/2+z
loop_
_atom_site_type_symbol
_atom_site_label
_atom_site_fract_x
_atom_site_fract_y
_atom_site_fract_z
Si Si1 0.500000 0.744620 0.793113
Si Si2 0.806772 0.104675 0.601606
Si Si3 0.500000 0.398314 0.308869
Si Si4 0.301649 0.769923 0.190813
Si Si5 0.323274 0.606210 0.385762
Si Si6 0.500000 0.394567 0.101070
Si Si7 0.102755 0.196939 0.000000
Si Si8 0.334069 0.895697 0.500000
O O1 0.500000 0.682108 0.736792
O O2 0.595138 0.794793 0.796677
O O3 0.500000 0.674689 0.846316
O O4 0.799235 0.177171 0.652640
O O5 0.729401 0.113672 0.555370
O O6 0.904023 0.118116 0.572163
O O7 0.803752 0.000000 0.623576
O O8 0.500000 0.500000 0.281370
O O9 0.586900 0.391400 0.348086
O O10 0.250000 0.750000 0.250000
O O11 0.252227 0.845447 0.152254
O O12 0.302133 0.500000 0.397976
O O13 0.346101 0.659568 0.444146
O O14 0.500000 0.500000 0.120951
O O15 0.103440 0.307484 0.000000
O O16 0.000000 0.164148 0.000000
O O17 0.371370 0.000000 0.500000
#
# Coordination Sequence:
#
# PCOD9519611 Si02
#       8
#     8  16   8  16  16   8   8   8
#     4  10  19  32  53  82 114 149 192 224 275 356
#     4   9  18  32  52  78 108 139 178 224 276 338
#     4  10  19  33  56  88 117 143 187 246 306 350
#     4  11  21  35  56  83 115 155 188 232 289 346
#     4  11  23  38  58  87 118 152 194 249 302 346
#     4   8  15  27  46  76 107 135 168 217 273 323
#     4  12  23  39  63  86 113 148 193 249 301 352
#     4  10  20  35  55  80 112 147 183 221 276 344
#
# _framework density 17.183982
#
# number of rings (size 3 to 8) (size 9 to 14) (size 15 to 20)
#    0.000    1.818    4.545    0.545    0.000    2.364 
#    0.000    2.273    0.000    0.545    0.000    1.273 
#    0.000    0.000    0.000    0.000    0.000    0.000 
#
# Total GULP energy -245169.904819 kJ/mol
# GULP energy per Si atom -5572.043291 kJ/mol
# Density = 1.714487 g / cm^3
# Si number density = 17.183982 Si / 1000 Ang^3
#
#
#
# Elastic Constant Matrix: (Units=GPa)
#
#
# Indices 1 2 3 4 5 6 
#
# 1 115.7857 45.1138 41.1690 0.0000 0.0000 0.0000
# 2 45.1138 99.6278 39.8887 0.0000 0.0000 0.0000
# 3 41.1690 39.8887 76.3440 0.0000 0.0000 0.0000
# 4 0.0000 0.0000 0.0000 23.5879 0.0000 0.0000
# 5 0.0000 0.0000 0.0000 0.0000 -12.1484 0.0000
# 6 0.0000 0.0000 0.0000 0.0000 0.0000 25.0363
#
#
#
# Elastic Compliance Matrix: (Units=1/GPa)
#
#
# Indices 1 2 3 4 5 6 
#
# 1 0.011559 -0.003463 -0.004424 0.000000 0.000000 0.000000
# 2 -0.003463 0.013730 -0.005306 0.000000 0.000000 0.000000
# 3 -0.004424 -0.005306 0.018257 0.000000 0.000000 0.000000
# 4 0.000000 0.000000 0.000000 0.042395 0.000000 0.000000
# 5 0.000000 0.000000 0.000000 0.000000 -0.082316 0.000000
# 6 0.000000 0.000000 0.000000 0.000000 0.000000 0.039942
#
#
# Mechanical properties :
#
#
# Convention : Reuss Voigt Hill
#
# Bulk Modulus (GPa) = 58.27738 60.45562 59.36650
# Shear Modulus (GPa) = 66.07418 18.33423 42.20421
#
# Velocity S-wave (km/s) = 6.20762 3.26994 4.96120
# Velocity P-wave (km/s) = 9.23941 7.03665 8.21222
#
# Compressibility (1/GPa) = 0.01715932
#
# Stress axis : x y z
#
# Youngs Moduli (GPa) = 86.51365 72.83335 54.77447
#
# Poissons Ratio (x) = 0.25222 0.24232
# Poissons Ratio (y) = 0.29959 0.29065
# Poissons Ratio (z) = 0.38273 0.38648
#
# Static dielectric constant tensor:
#      x y z
#    x 1.612700 0.000000 0.000000 
#    y 0.000000 1.577950 0.000000 
#    z 0.000000 0.000000 1.560310 
# 
# From -- ./inp_files/22409.got.cif
#   From: 2010.05.17/outbox.cif.g08.bks.cpg/sg71_12_cif.got.tgz:22409.got - 2010.06.03 16:22:01.
