data_PCOD9519733
_publ_section_title
;
Structure prediction by ZEFSAII (Michael W. Deem and Ramdas Pophale) SiO2 
 PCOD9519733
Probable space group: I M M M
;
_chemical_formula_sum "Si O2"
_cell_formula_units_Z 92
_cell_length_a 25.748939
_cell_length_b 7.593777
_cell_length_c 28.980860
_cell_angle_alpha 90.000000
_cell_angle_beta 90.000000
_cell_angle_gamma 90.000000
_cell_volume 5666.676845
_symmetry_space_group_name_H-M "I M M M"
_symmetry_group_IT_number 71
_symmetry_cell_setting 'orthorhombic'
loop_
_space_group_symop_operation_xyz
x,y,z
-x,-y,z
x,-y,-z
-x,y,-z
-x,-y,-z
x,y,-z
-x,y,z
x,-y,z
1/2+x,1/2+y,1/2+z
1/2-x,1/2-y,1/2+z
1/2+x,1/2-y,1/2-z
1/2-x,1/2+y,1/2-z
1/2-x,1/2-y,1/2-z
1/2+x,1/2+y,1/2-z
1/2-x,1/2+y,1/2+z
1/2+x,1/2-y,1/2+z
loop_
_atom_site_type_symbol
_atom_site_label
_atom_site_fract_x
_atom_site_fract_y
_atom_site_fract_z
Si Si1 0.207123 0.500000 0.000000
Si Si2 0.666237 0.710943 0.248456
Si Si3 0.557438 0.707308 0.279192
Si Si4 0.750831 0.210882 0.176341
Si Si5 0.405520 0.795095 0.618970
Si Si6 0.295039 0.296444 0.581026
Si Si7 0.500000 0.712038 0.446968
O O1 0.206325 0.656090 0.959769
O O2 0.663320 0.500000 0.254382
O O3 0.607788 0.780956 0.252759
O O4 0.696996 0.745045 0.201353
O O5 0.703203 0.779764 0.289951
O O6 0.500000 0.783972 0.271115
O O7 0.554295 0.500000 0.268136
O O8 0.571464 0.722992 0.333321
O O9 0.758695 0.264681 0.123696
O O10 0.755697 0.000000 0.176089
O O11 0.353044 0.703247 0.602689
O O12 0.449232 0.775792 0.579897
O O13 0.393789 0.000000 0.625880
O O14 0.282627 0.500000 0.567827
O O15 0.500000 0.500000 0.445863
O O16 0.500000 0.770046 0.500000
#
# Coordination Sequence:
#
# PCOD9519733 Si02
#       7
#     4  16  16  16  16  16   8
#     4  12  26  40  56  83  98 140 181 226 274 318
#     4   9  17  29  49  76 101 130 172 212 259 320
#     4  10  19  33  51  71 100 139 176 214 267 321
#     4   9  18  32  51  75 101 133 167 213 267 315
#     4  12  23  35  50  72  94 128 176 224 272 318
#     4  11  23  40  57  75 105 136 175 222 272 321
#     4  11  25  39  51  63  83 125 173 227 284 318
#
# _framework density 16.235264000000001
#
# number of rings (size 3 to 8) (size 9 to 14) (size 15 to 20)
#    0.000    1.652    3.478    2.087    2.435    1.391 
#    0.000    0.000    0.000    0.000    0.000    0.000 
#    0.000    0.000    0.000    1.565    0.000    7.739 
#
# Total GULP energy -256186.389726 kJ/mol
# GULP energy per Si atom -5569.269342 kJ/mol
# Density = 1.619831 g / cm^3
# Si number density = 16.235264 Si / 1000 Ang^3
#
#
#
# Elastic Constant Matrix: (Units=GPa)
#
#
# Indices 1 2 3 4 5 6 
#
# 1 112.6559 14.1813 72.3149 0.0000 0.0000 0.0000
# 2 14.1813 69.4413 13.7424 0.0000 0.0000 0.0000
# 3 72.3149 13.7424 75.9873 0.0000 0.0000 0.0000
# 4 0.0000 0.0000 0.0000 23.0467 0.0000 0.0000
# 5 0.0000 0.0000 0.0000 0.0000 -17.9537 0.0000
# 6 0.0000 0.0000 0.0000 0.0000 0.0000 13.0615
#
#
#
# Elastic Compliance Matrix: (Units=1/GPa)
#
#
# Indices 1 2 3 4 5 6 
#
# 1 0.022822 -0.000376 -0.021651 0.000000 0.000000 0.000000
# 2 -0.000376 0.014941 -0.002344 0.000000 0.000000 0.000000
# 3 -0.021651 -0.002344 0.034189 0.000000 0.000000 0.000000
# 4 0.000000 0.000000 0.000000 0.043390 0.000000 0.000000
# 5 0.000000 0.000000 0.000000 0.000000 -0.055699 0.000000
# 6 0.000000 0.000000 0.000000 0.000000 0.000000 0.076561
#
#
# Mechanical properties :
#
#
# Convention : Reuss Voigt Hill
#
# Bulk Modulus (GPa) = 43.08608 50.95131 47.01870
# Shear Modulus (GPa) = 25.94936 14.15395 20.05165
#
# Velocity S-wave (km/s) = 4.00225 2.95583 3.51817
# Velocity P-wave (km/s) = 6.92485 6.56510 6.74737
#
# Compressibility (1/GPa) = 0.02320935
#
# Stress axis : x y z
#
# Youngs Moduli (GPa) = 43.81771 66.92822 29.24953
#
# Poissons Ratio (x) = 0.02516 0.63328
# Poissons Ratio (y) = 0.01647 0.06857
# Poissons Ratio (z) = 0.94869 0.15691
#
# Static dielectric constant tensor:
#      x y z
#    x 1.568730 0.000000 0.000000 
#    y 0.000000 1.604620 0.000000 
#    z 0.000000 0.000000 1.533970 
# 
# From -- ./inp_files/67039.got.cif
#   From: 2010.05.17/outbox.cif.g08.bks.cpg/sg71_34_cif.got.tgz:67039.got - 2010.06.03 16:22:01.
