data_PCOD9519349
_publ_section_title
;
Structure prediction by ZEFSAII (Michael W. Deem and Ramdas Pophale) SiO2 
 PCOD9519349
Probable space group: I M M M
;
_chemical_formula_sum "Si O2"
_cell_formula_units_Z 96
_cell_length_a 30.969836
_cell_length_b 13.667478
_cell_length_c 11.134961
_cell_angle_alpha 90.000000
_cell_angle_beta 90.000000
_cell_angle_gamma 90.000000
_cell_volume 4713.201306
_symmetry_space_group_name_H-M "I M M M"
_symmetry_group_IT_number 71
_symmetry_cell_setting 'orthorhombic'
loop_
_space_group_symop_operation_xyz
x,y,z
-x,-y,z
x,-y,-z
-x,y,-z
-x,-y,-z
x,y,-z
-x,y,z
x,-y,z
1/2+x,1/2+y,1/2+z
1/2-x,1/2-y,1/2+z
1/2+x,1/2-y,1/2-z
1/2-x,1/2+y,1/2-z
1/2-x,1/2-y,1/2-z
1/2+x,1/2+y,1/2-z
1/2-x,1/2+y,1/2+z
1/2+x,1/2-y,1/2+z
loop_
_atom_site_type_symbol
_atom_site_label
_atom_site_fract_x
_atom_site_fract_y
_atom_site_fract_z
Si Si1 0.601536 0.297539 0.860888
Si Si2 0.862561 0.616620 0.736232
Si Si3 0.948087 0.115421 0.864813
Si Si4 0.270170 0.118562 0.133555
Si Si5 0.743638 0.881337 0.500000
Si Si6 0.193715 0.882476 0.717192
Si Si7 0.145565 0.619019 0.000000
O O1 0.608739 0.180995 0.851748
O O2 0.569743 0.332868 0.755032
O O3 0.647844 0.340171 0.818197
O O4 0.592225 0.325884 0.000000
O O5 0.867130 0.500000 0.720512
O O6 0.811674 0.640905 0.715560
O O7 0.874458 0.646137 0.872579
O O8 0.000000 0.122793 0.864410
O O9 0.936586 0.000000 0.856358
O O10 0.933362 0.148556 0.000000
O O11 0.221751 0.149851 0.168035
O O12 0.268296 0.000000 0.136173
O O13 0.281280 0.150453 0.000000
O O14 0.771920 0.856075 0.385549
O O15 0.694992 0.846051 0.500000
O O16 0.740573 0.000000 0.500000
O O17 0.188552 0.000000 0.721161
O O18 0.146454 0.500000 0.000000
#
# Coordination Sequence:
#
# PCOD9519349 Si02
#       7
#    16  16  16  16   8  16   8
#     4  12  25  36  57  93 122 152 196 244 296 350
#     4  10  21  37  55  77 113 159 208 258 298 338
#     4   9  21  45  73  97 124 156 183 216 276 353
#     4   9  17  31  49  69 103 155 205 247 295 346
#     4   9  14  28  50  66  94 144 195 244 294 342
#     4  10  19  32  49  73 110 150 190 242 298 348
#     4   9  16  32  56  74  94 149 219 259 296 347
#
# _framework density 20.368321000000002
#
# number of rings (size 3 to 8) (size 9 to 14) (size 15 to 20)
#    0.000    2.167    2.500    1.500    1.167    3.667 
#    0.000    2.500    0.000    0.500    0.000    2.333 
#    0.000    0.000    0.000    0.000    0.000    0.000 
#
# Total GULP energy -267715.783538 kJ/mol
# GULP energy per Si atom -5577.412157 kJ/mol
# Density = 2.032196 g / cm^3
# Si number density = 20.368321 Si / 1000 Ang^3
#
#
#
# Elastic Constant Matrix: (Units=GPa)
#
#
# Indices 1 2 3 4 5 6 
#
# 1 37.0723 21.2767 34.1377 0.0000 0.0000 0.0000
# 2 21.2767 72.6759 34.9597 0.0000 0.0000 0.0000
# 3 34.1377 34.9597 143.4410 0.0000 0.0000 0.0000
# 4 0.0000 0.0000 0.0000 26.8061 0.0000 0.0000
# 5 0.0000 0.0000 0.0000 0.0000 34.6915 0.0000
# 6 0.0000 0.0000 0.0000 0.0000 0.0000 18.8578
#
#
#
# Elastic Compliance Matrix: (Units=1/GPa)
#
#
# Indices 1 2 3 4 5 6 
#
# 1 0.037978 -0.007670 -0.007169 0.000000 0.000000 0.000000
# 2 -0.007670 0.017136 -0.002351 0.000000 0.000000 0.000000
# 3 -0.007169 -0.002351 0.009251 0.000000 0.000000 0.000000
# 4 0.000000 0.000000 0.000000 0.037305 0.000000 0.000000
# 5 0.000000 0.000000 0.000000 0.000000 0.028826 0.000000
# 6 0.000000 0.000000 0.000000 0.000000 0.000000 0.053028
#
#
# Mechanical properties :
#
#
# Convention : Reuss Voigt Hill
#
# Bulk Modulus (GPa) = 33.35046 48.21525 40.78285
# Shear Modulus (GPa) = 21.93960 26.92542 24.43251
#
# Velocity S-wave (km/s) = 3.28555 3.63977 3.46719
# Velocity P-wave (km/s) = 5.54998 6.43327 6.00788
#
# Compressibility (1/GPa) = 0.02998460
#
# Stress axis : x y z
#
# Youngs Moduli (GPa) = 26.33114 58.35630 108.10007
#
# Poissons Ratio (x) = 0.44759 0.77498
# Poissons Ratio (y) = 0.20196 0.25415
# Poissons Ratio (z) = 0.18877 0.13720
#
# Static dielectric constant tensor:
#      x y z
#    x 1.668910 0.000000 0.000000 
#    y 0.000000 1.806740 0.000000 
#    z 0.000000 0.000000 1.792030 
# 
# From -- ./inp_files/29965.got.cif
#   From: 2010.05.17/outbox.cif.g08.bks.cpg/sg71_15_cif.got.tgz:29965.got - 2010.06.03 16:22:01.
