data_PCOD9519621
_publ_section_title
;
Structure prediction by ZEFSAII (Michael W. Deem and Ramdas Pophale) SiO2 
 PCOD9519621
Probable space group: I M M M
;
_chemical_formula_sum "Si O2"
_cell_formula_units_Z 104
_cell_length_a 25.758650
_cell_length_b 25.519084
_cell_length_c 7.372769
_cell_angle_alpha 90.000000
_cell_angle_beta 90.000000
_cell_angle_gamma 90.000000
_cell_volume 4846.394985
_symmetry_space_group_name_H-M "I M M M"
_symmetry_group_IT_number 71
_symmetry_cell_setting 'orthorhombic'
loop_
_space_group_symop_operation_xyz
x,y,z
-x,-y,z
x,-y,-z
-x,y,-z
-x,-y,-z
x,y,-z
-x,y,z
x,-y,z
1/2+x,1/2+y,1/2+z
1/2-x,1/2-y,1/2+z
1/2+x,1/2-y,1/2-z
1/2-x,1/2+y,1/2-z
1/2-x,1/2-y,1/2-z
1/2+x,1/2+y,1/2-z
1/2-x,1/2+y,1/2+z
1/2+x,1/2-y,1/2+z
loop_
_atom_site_type_symbol
_atom_site_label
_atom_site_fract_x
_atom_site_fract_y
_atom_site_fract_z
Si Si1 0.691989 0.769772 0.716056
Si Si2 0.941608 0.438766 0.220526
Si Si3 0.063149 0.000000 0.294594
Si Si4 0.661653 0.339104 0.706744
Si Si5 0.558864 0.388164 0.779135
Si Si6 0.775583 0.940504 0.213049
Si Si7 0.833392 0.612782 0.780438
O O1 0.682281 0.773570 0.500000
O O2 0.750000 0.750000 0.750000
O O3 0.664035 0.718419 0.792118
O O4 0.679627 0.828035 0.784668
O O5 0.936072 0.500000 0.271341
O O6 0.890239 0.407301 0.280274
O O7 0.000000 0.421347 0.277672
O O8 0.941623 0.436859 0.000000
O O9 0.076780 0.945313 0.210548
O O10 0.083236 0.000000 0.500000
O O11 0.000000 0.000000 0.304852
O O12 0.682000 0.334836 0.500000
O O13 0.601114 0.350028 0.706803
O O14 0.691966 0.389889 0.787406
O O15 0.500000 0.378360 0.724735
O O16 0.559739 0.389408 0.000000
O O17 0.714824 0.924831 0.229824
O O18 0.784795 0.000000 0.285533
O O19 0.788634 0.943049 0.000000
O O20 0.834121 0.613009 0.000000
#
# Coordination Sequence:
#
# PCOD9519621 Si02
#       7
#    16  16   8  16  16  16  16
#     4  10  20  35  53  73  98 132 173 213 255 301
#     4   8  14  26  46  74 107 135 156 192 252 309
#     4   7  12  26  47  69  93 121 155 199 246 289
#     4  10  21  35  50  71 101 133 169 208 252 307
#     4   9  18  33  52  73  97 127 165 207 252 301
#     4  10  21  35  50  72 106 142 168 200 256 315
#     4  10  19  32  54  80 101 126 173 222 253 294
#
# _framework density 21.459250999999998
#
# number of rings (size 3 to 8) (size 9 to 14) (size 15 to 20)
#    0.000    2.692    1.538    1.846    1.077    2.462 
#    0.000    0.769    0.000    4.615    0.000    2.154 
#    0.000    0.000    0.000    0.000    0.000    0.000 
#
# Total GULP energy -289705.437011 kJ/mol
# GULP energy per Si atom -5571.258404 kJ/mol
# Density = 2.141041 g / cm^3
# Si number density = 21.459251 Si / 1000 Ang^3
#
#
#
# Elastic Constant Matrix: (Units=GPa)
#
#
# Indices 1 2 3 4 5 6 
#
# 1 102.0419 45.1057 -5.3397 0.0000 0.0000 0.0000
# 2 45.1057 134.1860 6.0289 0.0000 0.0000 0.0000
# 3 -5.3397 6.0289 80.5701 0.0000 0.0000 0.0000
# 4 0.0000 0.0000 0.0000 2.0866 0.0000 0.0000
# 5 0.0000 0.0000 0.0000 0.0000 4.0887 0.0000
# 6 0.0000 0.0000 0.0000 0.0000 0.0000 44.1075
#
#
#
# Elastic Compliance Matrix: (Units=1/GPa)
#
#
# Indices 1 2 3 4 5 6 
#
# 1 0.011600 -0.003947 0.001064 0.000000 0.000000 0.000000
# 2 -0.003947 0.008821 -0.000922 0.000000 0.000000 0.000000
# 3 0.001064 -0.000922 0.012551 0.000000 0.000000 0.000000
# 4 0.000000 0.000000 0.000000 0.479258 0.000000 0.000000
# 5 0.000000 0.000000 0.000000 0.000000 0.244577 0.000000
# 6 0.000000 0.000000 0.000000 0.000000 0.000000 0.022672
#
#
# Mechanical properties :
#
#
# Convention : Reuss Voigt Hill
#
# Bulk Modulus (GPa) = 39.42804 45.37644 42.40224
# Shear Modulus (GPa) = 6.28501 28.12342 17.20422
#
# Velocity S-wave (km/s) = 1.71323 3.62408 2.83453
# Velocity P-wave (km/s) = 4.72513 6.22119 5.52404
#
# Compressibility (1/GPa) = 0.02536266
#
# Stress axis : x y z
#
# Youngs Moduli (GPa) = 86.20417 113.37129 79.67468
#
# Poissons Ratio (x) = 0.44750 -0.08479
# Poissons Ratio (y) = 0.34027 0.07343
# Poissons Ratio (z) = -0.09174 0.10449
#
# Static dielectric constant tensor:
#      x y z
#    x 1.765390 0.000000 0.000000 
#    y 0.000000 1.748930 0.000000 
#    z 0.000000 0.000000 1.654970 
# 
# From -- ./inp_files/15279.got.cif
#   From: 2010.05.17/outbox.cif.g08.bks.cpg/sg71_8_cif.got.tgz:15279.got - 2010.06.03 16:22:01.
