data_PCOD9519422
_publ_section_title
;
Structure prediction by ZEFSAII (Michael W. Deem and Ramdas Pophale) SiO2 
 PCOD9519422
Probable space group: I M M M
;
_chemical_formula_sum "Si O2"
_cell_formula_units_Z 104
_cell_length_a 24.405225
_cell_length_b 26.923506
_cell_length_c 7.644339
_cell_angle_alpha 90.000000
_cell_angle_beta 90.000000
_cell_angle_gamma 90.000000
_cell_volume 5022.898099
_symmetry_space_group_name_H-M "I M M M"
_symmetry_group_IT_number 71
_symmetry_cell_setting 'orthorhombic'
loop_
_space_group_symop_operation_xyz
x,y,z
-x,-y,z
x,-y,-z
-x,y,-z
-x,-y,-z
x,y,-z
-x,y,z
x,-y,z
1/2+x,1/2+y,1/2+z
1/2-x,1/2-y,1/2+z
1/2+x,1/2-y,1/2-z
1/2-x,1/2+y,1/2-z
1/2-x,1/2-y,1/2-z
1/2+x,1/2+y,1/2-z
1/2-x,1/2+y,1/2+z
1/2+x,1/2-y,1/2+z
loop_
_atom_site_type_symbol
_atom_site_label
_atom_site_fract_x
_atom_site_fract_y
_atom_site_fract_z
Si Si1 0.065149 0.000000 0.199953
Si Si2 0.776621 0.698178 0.703359
Si Si3 0.713954 0.396566 0.196384
Si Si4 0.886771 0.346585 0.789817
Si Si5 0.177339 0.444572 0.214242
Si Si6 0.408392 0.606793 0.296722
Si Si7 0.000000 0.298776 0.214830
Si Si8 0.000000 0.816458 0.213990
O O1 0.081266 0.947630 0.283632
O O2 0.000000 0.000000 0.188354
O O3 0.088658 0.000000 0.000000
O O4 0.750000 0.750000 0.750000
O O5 0.746964 0.654858 0.808632
O O6 0.840841 0.694066 0.743124
O O7 0.732059 0.812532 0.000000
O O8 0.760061 0.433431 0.272911
O O9 0.656569 0.386004 0.287758
O O10 0.700834 0.413529 0.000000
O O11 0.862467 0.399737 0.727310
O O12 0.945640 0.328101 0.727323
O O13 0.889676 0.350043 0.000000
O O14 0.160385 0.500000 0.265666
O O15 0.178643 0.442731 0.000000
O O16 0.425325 0.602524 0.500000
O O17 0.446585 0.651460 0.228838
O O18 0.000000 0.240969 0.271647
O O19 0.000000 0.298457 0.000000
O O20 0.000000 0.813826 0.000000
#
# Coordination Sequence:
#
# PCOD9519422 Si02
#       8
#     8  16  16  16  16  16   8   8
#     4   9  16  30  49  69  99 137 185 236 277 326
#     4  11  22  37  57  80 109 142 178 220 270 324
#     4  10  21  35  52  77 108 139 177 223 273 330
#     4   9  18  34  55  80 110 145 184 222 268 322
#     4   8  15  30  51  74 104 141 177 217 267 320
#     4  10  19  32  51  74 100 138 186 233 277 326
#     4   9  18  32  53  81 111 143 180 223 268 323
#     4   9  18  31  49  73 100 139 186 227 274 326
#
# _framework density 20.705178
#
# number of rings (size 3 to 8) (size 9 to 14) (size 15 to 20)
#    0.000    2.538    0.769    2.769    3.231    0.000 
#    0.000    1.154    0.000    7.846    0.000    0.000 
#    0.000    4.923    0.000    0.000    0.000    0.000 
#
# Total GULP energy -289931.019282 kJ/mol
# GULP energy per Si atom -5575.596525 kJ/mol
# Density = 2.065805 g / cm^3
# Si number density = 20.705178 Si / 1000 Ang^3
#
#
#
# Elastic Constant Matrix: (Units=GPa)
#
#
# Indices 1 2 3 4 5 6 
#
# 1 168.3055 84.8428 5.8737 0.0000 0.0000 0.0000
# 2 84.8428 139.3975 3.3784 0.0000 0.0000 0.0000
# 3 5.8737 3.3784 47.4698 0.0000 0.0000 0.0000
# 4 0.0000 0.0000 0.0000 38.0422 0.0000 0.0000
# 5 0.0000 0.0000 0.0000 0.0000 -7.6613 0.0000
# 6 0.0000 0.0000 0.0000 0.0000 0.0000 10.6629
#
#
#
# Elastic Compliance Matrix: (Units=1/GPa)
#
#
# Indices 1 2 3 4 5 6 
#
# 1 0.008594 -0.005214 -0.000692 0.000000 0.000000 0.000000
# 2 -0.005214 0.010349 -0.000091 0.000000 0.000000 0.000000
# 3 -0.000692 -0.000091 0.021158 0.000000 0.000000 0.000000
# 4 0.000000 0.000000 0.000000 0.026287 0.000000 0.000000
# 5 0.000000 0.000000 0.000000 0.000000 -0.130526 0.000000
# 6 0.000000 0.000000 0.000000 0.000000 0.000000 0.093783
#
#
# Mechanical properties :
#
#
# Convention : Reuss Voigt Hill
#
# Bulk Modulus (GPa) = 35.57920 60.37363 47.97641
# Shear Modulus (GPa) = 98.02219 25.61395 61.81807
#
# Velocity S-wave (km/s) = 6.88801 3.52103 5.47002
# Velocity P-wave (km/s) = 8.97110 6.76404 7.94458
#
# Compressibility (1/GPa) = 0.02810631
#
# Stress axis : x y z
#
# Youngs Moduli (GPa) = 116.35923 96.62449 47.26300
#
# Poissons Ratio (x) = 0.50379 0.03272
# Poissons Ratio (y) = 0.60669 0.00432
# Poissons Ratio (z) = 0.08056 0.00883
#
# Static dielectric constant tensor:
#      x y z
#    x 1.742130 0.000000 0.000000 
#    y 0.000000 1.753540 0.000000 
#    z 0.000000 0.000000 1.790990 
# 
# From -- ./inp_files/13390.got.cif
#   From: 2010.05.17/outbox.cif.g08.bks.cpg/sg71_7_cif.got.tgz:13390.got - 2010.06.03 16:22:01.
