data_PCOD9519753
_publ_section_title
;
Structure prediction by ZEFSAII (Michael W. Deem and Ramdas Pophale) SiO2 
 PCOD9519753
Probable space group: I M M M
;
_chemical_formula_sum "Si O2"
_cell_formula_units_Z 82
_cell_length_a 21.500913
_cell_length_b 7.396232
_cell_length_c 24.141211
_cell_angle_alpha 90.000000
_cell_angle_beta 90.000000
_cell_angle_gamma 90.000000
_cell_volume 3839.073962
_symmetry_space_group_name_H-M "I M M M"
_symmetry_group_IT_number 71
_symmetry_cell_setting 'orthorhombic'
loop_
_space_group_symop_operation_xyz
x,y,z
-x,-y,z
x,-y,-z
-x,y,-z
-x,-y,-z
x,y,-z
-x,y,z
x,-y,z
1/2+x,1/2+y,1/2+z
1/2-x,1/2-y,1/2+z
1/2+x,1/2-y,1/2-z
1/2-x,1/2+y,1/2-z
1/2-x,1/2-y,1/2-z
1/2+x,1/2+y,1/2-z
1/2-x,1/2+y,1/2+z
1/2+x,1/2-y,1/2+z
loop_
_atom_site_type_symbol
_atom_site_label
_atom_site_fract_x
_atom_site_fract_y
_atom_site_fract_z
Si Si1 0.000000 0.500000 0.000000
Si Si2 0.500000 0.798708 0.613193
Si Si3 0.131851 0.707166 0.863003
Si Si4 0.245959 0.720718 0.936799
Si Si5 0.176406 0.215001 0.743586
Si Si6 0.371503 0.720708 0.123316
Si Si7 0.500000 0.720697 0.064908
O O1 0.000000 0.653868 0.951267
O O2 0.564812 0.707324 0.627646
O O3 0.500000 0.000000 0.642565
O O4 0.125878 0.500000 0.884099
O O5 0.190734 0.783062 0.896381
O O6 0.146035 0.705719 0.798356
O O7 0.246630 0.500000 0.935101
O O8 0.313443 0.777086 0.914873
O O9 0.235149 0.774892 0.000000
O O10 0.250000 0.250000 0.750000
O O11 0.146426 0.278758 0.685759
O O12 0.167714 0.000000 0.745188
O O13 0.372443 0.500000 0.123887
O O14 0.437408 0.777791 0.097425
O O15 0.500000 0.500000 0.064556
O O16 0.500000 0.776012 0.000000
#
# Coordination Sequence:
#
# PCOD9519753 Si02
#       7
#     2   8  16  16  16  16   8
#     4   8  16  32  52  84 114 136 180 226 288 320
#     4   8  18  29  50  78 110 134 175 221 273 319
#     4  10  19  33  51  78 108 138 176 224 266 319
#     4   9  16  25  45  72  99 128 171 219 262 304
#     4  11  21  35  54  76 106 143 181 223 271 321
#     4   9  17  29  44  71 100 135 172 208 257 314
#     4   9  16  27  46  71 109 136 156 204 268 315
#
# _framework density 21.359317999999998
#
# number of rings (size 3 to 8) (size 9 to 14) (size 15 to 20)
#    0.293    2.244    1.951    1.171    1.366    3.122 
#    0.000    1.463    0.000    0.585    0.000    0.683 
#    0.000    3.122    0.000    0.000    0.000    0.000 
#
# Total GULP energy -228470.208703 kJ/mol
# GULP energy per Si atom -5572.444115 kJ/mol
# Density = 2.131070 g / cm^3
# Si number density = 21.359318 Si / 1000 Ang^3
#
#
#
# Elastic Constant Matrix: (Units=GPa)
#
#
# Indices 1 2 3 4 5 6 
#
# 1 229.5294 6.7313 110.2273 0.0000 0.0000 0.0000
# 2 6.7313 72.5663 -1.9773 0.0000 0.0000 0.0000
# 3 110.2273 -1.9773 185.0656 0.0000 0.0000 0.0000
# 4 0.0000 0.0000 0.0000 15.5642 0.0000 0.0000
# 5 0.0000 0.0000 0.0000 0.0000 18.1171 0.0000
# 6 0.0000 0.0000 0.0000 0.0000 0.0000 -24.4432
#
#
#
# Elastic Compliance Matrix: (Units=1/GPa)
#
#
# Indices 1 2 3 4 5 6 
#
# 1 0.006134 -0.000669 -0.003661 0.000000 0.000000 0.000000
# 2 -0.000669 0.013857 0.000546 0.000000 0.000000 0.000000
# 3 -0.003661 0.000546 0.007590 0.000000 0.000000 0.000000
# 4 0.000000 0.000000 0.000000 0.064250 0.000000 0.000000
# 5 0.000000 0.000000 0.000000 0.000000 0.055196 0.000000
# 6 0.000000 0.000000 0.000000 0.000000 0.000000 -0.040911
#
#
# Mechanical properties :
#
#
# Convention : Reuss Voigt Hill
#
# Bulk Modulus (GPa) = 49.96229 79.68043 64.82136
# Shear Modulus (GPa) = 41.54367 26.65962 34.10165
#
# Velocity S-wave (km/s) = 4.41499 3.53675 4.00005
# Velocity P-wave (km/s) = 7.03076 7.35281 7.19359
#
# Compressibility (1/GPa) = 0.02001510
#
# Stress axis : x y z
#
# Youngs Moduli (GPa) = 163.01446 72.16350 131.75589
#
# Poissons Ratio (x) = 0.04826 0.48234
# Poissons Ratio (y) = 0.10902 -0.07199
# Poissons Ratio (z) = 0.59678 -0.03943
#
# Static dielectric constant tensor:
#      x y z
#    x 1.773950 0.000000 0.000000 
#    y 0.000000 1.848850 0.000000 
#    z 0.000000 0.000000 1.738360 
# 
# From -- ./inp_files/66307.got.cif
#   From: 2010.05.17/outbox.cif.g08.bks.cpg/sg71_34_cif.got.tgz:66307.got - 2010.06.03 16:22:01.
