data_PCOD9519398
_publ_section_title
;
Structure prediction by ZEFSAII (Michael W. Deem and Ramdas Pophale) SiO2 
 PCOD9519398
Probable space group: I M M M
;
_chemical_formula_sum "Si O2"
_cell_formula_units_Z 112
_cell_length_a 28.406887
_cell_length_b 12.931123
_cell_length_c 16.177247
_cell_angle_alpha 90.000000
_cell_angle_beta 90.000000
_cell_angle_gamma 90.000000
_cell_volume 5942.435861
_symmetry_space_group_name_H-M "I M M M"
_symmetry_group_IT_number 71
_symmetry_cell_setting 'orthorhombic'
loop_
_space_group_symop_operation_xyz
x,y,z
-x,-y,z
x,-y,-z
-x,y,-z
-x,-y,-z
x,y,-z
-x,y,z
x,-y,z
1/2+x,1/2+y,1/2+z
1/2-x,1/2-y,1/2+z
1/2+x,1/2-y,1/2-z
1/2-x,1/2+y,1/2-z
1/2-x,1/2-y,1/2-z
1/2+x,1/2+y,1/2-z
1/2-x,1/2+y,1/2+z
1/2+x,1/2-y,1/2+z
loop_
_atom_site_type_symbol
_atom_site_label
_atom_site_fract_x
_atom_site_fract_y
_atom_site_fract_z
Si Si1 0.575382 0.881043 0.904467
Si Si2 0.178486 0.300835 0.404586
Si Si3 0.317005 0.890378 0.595892
Si Si4 0.272259 0.690066 0.326576
Si Si5 0.429979 0.881044 0.595896
Si Si6 0.147508 0.117233 0.717484
Si Si7 0.551353 0.264816 0.248981
O O1 0.632159 0.871382 0.896800
O O2 0.555522 0.808362 0.832425
O O3 0.561151 0.000000 0.892664
O O4 0.563622 0.851032 0.000000
O O5 0.183993 0.271976 0.500000
O O6 0.226841 0.353242 0.373978
O O7 0.166729 0.198323 0.350876
O O8 0.305814 0.898279 0.500000
O O9 0.295001 0.784605 0.624339
O O10 0.373256 0.883324 0.603774
O O11 0.301640 0.000000 0.636801
O O12 0.250000 0.750000 0.250000
O O13 0.314350 0.620928 0.291766
O O14 0.441147 0.852248 0.500000
O O15 0.446629 0.805573 0.668253
O O16 0.445754 0.000000 0.608140
O O17 0.096725 0.160640 0.746172
O O18 0.143668 0.000000 0.686698
O O19 0.500000 0.316812 0.246710
#
# Coordination Sequence:
#
# PCOD9519398 Si02
#       7
#    16  16  16  16  16  16  16
#     4   9  19  36  56  82 118 151 178 217 275 344
#     4   9  19  35  57  84 111 143 182 225 273 328
#     4   9  17  31  53  77 102 135 172 214 269 328
#     4  10  19  32  50  78 110 140 175 217 263 321
#     4   9  18  33  55  83 110 135 169 220 283 343
#     4  10  22  39  55  77 110 148 189 233 278 318
#     4  11  22  37  58  82 108 145 191 236 282 331
#
# _framework density 18.847490000000001
#
# number of rings (size 3 to 8) (size 9 to 14) (size 15 to 20)
#    0.000    2.429    1.429    1.714    0.000    5.143 
#    0.000    1.429    0.000    3.429    0.000    5.000 
#    0.000    0.000    0.000    0.000    0.000    0.000 
#
# Total GULP energy -311985.810346 kJ/mol
# GULP energy per Si atom -5571.175185 kJ/mol
# Density = 1.880459 g / cm^3
# Si number density = 18.847490 Si / 1000 Ang^3
#
#
#
# Elastic Constant Matrix: (Units=GPa)
#
#
# Indices 1 2 3 4 5 6 
#
# 1 108.3709 12.3740 31.6596 0.0000 0.0000 0.0000
# 2 12.3740 47.3973 11.6014 0.0000 0.0000 0.0000
# 3 31.6596 11.6014 65.4070 0.0000 0.0000 0.0000
# 4 0.0000 0.0000 0.0000 17.7137 0.0000 0.0000
# 5 0.0000 0.0000 0.0000 0.0000 -14.1680 0.0000
# 6 0.0000 0.0000 0.0000 0.0000 0.0000 -7.0078
#
#
#
# Elastic Compliance Matrix: (Units=1/GPa)
#
#
# Indices 1 2 3 4 5 6 
#
# 1 0.010865 -0.001620 -0.004972 0.000000 0.000000 0.000000
# 2 -0.001620 0.022297 -0.003171 0.000000 0.000000 0.000000
# 3 -0.004972 -0.003171 0.018258 0.000000 0.000000 0.000000
# 4 0.000000 0.000000 0.000000 0.056454 0.000000 0.000000
# 5 0.000000 0.000000 0.000000 0.000000 -0.070581 0.000000
# 6 0.000000 0.000000 0.000000 0.000000 0.000000 -0.142697
#
#
# Mechanical properties :
#
#
# Convention : Reuss Voigt Hill
#
# Bulk Modulus (GPa) = 31.35251 36.93835 34.14543
# Shear Modulus (GPa) = -66.44643 10.34357 -28.05143
#
# Velocity S-wave (km/s) = -5.94402 2.34520 -3.86208
# Velocity P-wave (km/s) = 5.51702 5.19369 1.31589
#
# Compressibility (1/GPa) = 0.03189538
#
# Stress axis : x y z
#
# Youngs Moduli (GPa) = 92.03892 44.84860 54.77092
#
# Poissons Ratio (x) = 0.07264 0.27231
# Poissons Ratio (y) = 0.14906 0.17368
# Poissons Ratio (z) = 0.45760 0.14221
#
# Static dielectric constant tensor:
#      x y z
#    x 1.464810 0.000000 0.000000 
#    y 0.000000 1.536640 0.000000 
#    z 0.000000 0.000000 1.655430 
# 
# From -- ./inp_files/22683.got.cif
#   From: 2010.05.17/outbox.cif.g08.bks.cpg/sg71_12_cif.got.tgz:22683.got - 2010.06.03 16:22:01.
