data_PCOD9519018
_publ_section_title
;
Structure prediction by ZEFSAII (Michael W. Deem and Ramdas Pophale) SiO2 
 PCOD9519018
Probable space group: I M M M
;
_chemical_formula_sum "Si O2"
_cell_formula_units_Z 80
_cell_length_a 12.469210
_cell_length_b 22.208583
_cell_length_c 19.523647
_cell_angle_alpha 90.000000
_cell_angle_beta 90.000000
_cell_angle_gamma 90.000000
_cell_volume 5406.556372
_symmetry_space_group_name_H-M "I M M M"
_symmetry_group_IT_number 71
_symmetry_cell_setting 'orthorhombic'
loop_
_space_group_symop_operation_xyz
x,y,z
-x,-y,z
x,-y,-z
-x,y,-z
-x,-y,-z
x,y,-z
-x,y,z
x,-y,z
1/2+x,1/2+y,1/2+z
1/2-x,1/2-y,1/2+z
1/2+x,1/2-y,1/2-z
1/2-x,1/2+y,1/2-z
1/2-x,1/2-y,1/2-z
1/2+x,1/2+y,1/2-z
1/2-x,1/2+y,1/2+z
1/2+x,1/2-y,1/2+z
loop_
_atom_site_type_symbol
_atom_site_label
_atom_site_fract_x
_atom_site_fract_y
_atom_site_fract_z
Si Si1 0.369854 0.384654 0.665388
Si Si2 0.628314 0.732049 0.580287
Si Si3 0.630833 0.500000 0.421574
Si Si4 0.370983 0.571436 0.184392
Si Si5 0.500000 0.931352 0.416836
Si Si6 0.717031 0.136405 0.581601
O O1 0.500000 0.385079 0.664686
O O2 0.338653 0.321709 0.630749
O O3 0.334386 0.440324 0.618239
O O4 0.337871 0.398669 0.743178
O O5 0.641296 0.714450 0.500000
O O6 0.500000 0.744205 0.588981
O O7 0.694541 0.792890 0.592592
O O8 0.500000 0.500000 0.421214
O O9 0.665589 0.500000 0.500000
O O10 0.500000 0.575622 0.178727
O O11 0.344181 0.500000 0.184106
O O12 0.312831 0.607127 0.123949
O O13 0.500000 0.931325 0.500000
O O14 0.607844 0.897395 0.396464
O O15 0.500000 0.000000 0.393082
O O16 0.731869 0.127327 0.500000
#
# Coordination Sequence:
#
# PCOD9519018 Si02
#       6
#    16  16   8  16   8  16
#     4   9  16  27  43  64  92 124 152 181 226 276
#     4   9  16  28  46  69  95 118 145 187 236 282
#     4   9  14  22  40  66  91 118 153 186 219 268
#     4  10  20  33  46  63  93 129 158 188 224 265
#     4   9  16  28  46  66  86 109 147 195 239 271
#     4  10  19  31  47  67  90 120 157 194 231 272
#
# _framework density 14.796849999999999
#
# number of rings (size 3 to 8) (size 9 to 14) (size 15 to 20)
#    0.000    2.600    2.000    1.200    0.000    4.800 
#    0.000    1.000    0.000    0.000    0.000    0.000 
#    0.000    0.000    0.000    1.000    0.000    2.200 
#
# Total GULP energy -222770.641079 kJ/mol
# GULP energy per Si atom -5569.266027 kJ/mol
# Density = 1.476317 g / cm^3
# Si number density = 14.796850 Si / 1000 Ang^3
#
#
#
# Elastic Constant Matrix: (Units=GPa)
#
#
# Indices 1 2 3 4 5 6 
#
# 1 29.3378 34.6184 34.0050 0.0000 0.0000 0.0000
# 2 34.6184 125.4807 75.3126 0.0000 0.0000 0.0000
# 3 34.0050 75.3126 97.7356 0.0000 0.0000 0.0000
# 4 0.0000 0.0000 0.0000 25.2192 0.0000 0.0000
# 5 0.0000 0.0000 0.0000 0.0000 15.1595 0.0000
# 6 0.0000 0.0000 0.0000 0.0000 0.0000 15.6220
#
#
#
# Elastic Compliance Matrix: (Units=1/GPa)
#
#
# Indices 1 2 3 4 5 6 
#
# 1 0.060766 -0.007582 -0.015300 0.000000 0.000000 0.000000
# 2 -0.007582 0.015772 -0.009516 0.000000 0.000000 0.000000
# 3 -0.015300 -0.009516 0.022888 0.000000 0.000000 0.000000
# 4 0.000000 0.000000 0.000000 0.039652 0.000000 0.000000
# 5 0.000000 0.000000 0.000000 0.000000 0.065965 0.000000
# 6 0.000000 0.000000 0.000000 0.000000 0.000000 0.064012
#
#
# Mechanical properties :
#
#
# Convention : Reuss Voigt Hill
#
# Bulk Modulus (GPa) = 28.87590 60.04735 44.46162
# Shear Modulus (GPa) = 14.47620 18.44137 16.45878
#
# Velocity S-wave (km/s) = 3.13122 3.53413 3.33876
# Velocity P-wave (km/s) = 5.71227 7.57118 6.70644
#
# Compressibility (1/GPa) = 0.03463096
#
# Stress axis : x y z
#
# Youngs Moduli (GPa) = 16.45661 63.40179 43.69138
#
# Poissons Ratio (x) = 0.48068 0.66848
# Poissons Ratio (y) = 0.12477 0.41577
# Poissons Ratio (z) = 0.25179 0.60333
#
# Static dielectric constant tensor:
#      x y z
#    x 1.466760 0.000000 0.000000 
#    y 0.000000 1.494830 0.000000 
#    z 0.000000 0.000000 1.487670 
# 
# From -- ./inp_files/36514.got.cif
#   From: 2010.05.17/outbox.cif.g08.bks.cpg/sg71_19_cif.got.tgz:36514.got - 2010.06.03 16:22:01.
