data_PCOD9519524
_publ_section_title
;
Structure prediction by ZEFSAII (Michael W. Deem and Ramdas Pophale) SiO2 
 PCOD9519524
Probable space group: I M M M
;
_chemical_formula_sum "Si O2"
_cell_formula_units_Z 104
_cell_length_a 22.902799
_cell_length_b 28.381272
_cell_length_c 7.859693
_cell_angle_alpha 90.000000
_cell_angle_beta 90.000000
_cell_angle_gamma 90.000000
_cell_volume 5108.883511
_symmetry_space_group_name_H-M "I M M M"
_symmetry_group_IT_number 71
_symmetry_cell_setting 'orthorhombic'
loop_
_space_group_symop_operation_xyz
x,y,z
-x,-y,z
x,-y,-z
-x,y,-z
-x,-y,-z
x,y,-z
-x,y,z
x,-y,z
1/2+x,1/2+y,1/2+z
1/2-x,1/2-y,1/2+z
1/2+x,1/2-y,1/2-z
1/2-x,1/2+y,1/2-z
1/2-x,1/2-y,1/2-z
1/2+x,1/2+y,1/2-z
1/2-x,1/2+y,1/2+z
1/2+x,1/2-y,1/2+z
loop_
_atom_site_type_symbol
_atom_site_label
_atom_site_fract_x
_atom_site_fract_y
_atom_site_fract_z
Si Si1 0.101456 0.691378 0.303062
Si Si2 0.432675 0.295311 0.792476
Si Si3 0.371850 0.094524 0.801041
Si Si4 0.753378 0.053956 0.295843
Si Si5 0.837616 0.130587 0.306345
Si Si6 0.259248 0.197001 0.805550
Si Si7 0.069211 0.500000 0.806271
O O1 0.079994 0.691842 0.500000
O O2 0.081652 0.741912 0.230394
O O3 0.091866 0.639209 0.226457
O O4 0.171750 0.690472 0.298660
O O5 0.500000 0.305935 0.754885
O O6 0.388598 0.336223 0.730471
O O7 0.425344 0.293783 0.000000
O O8 0.306647 0.082373 0.737175
O O9 0.407500 0.046955 0.778799
O O10 0.364965 0.104888 0.000000
O O11 0.759619 0.051939 0.500000
O O12 0.809679 0.083039 0.228294
O O13 0.748630 0.000000 0.232362
O O14 0.856043 0.119462 0.500000
O O15 0.780862 0.164262 0.308312
O O16 0.250000 0.250000 0.750000
O O17 0.240258 0.189216 0.000000
O O18 0.000000 0.500000 0.807331
O O19 0.092136 0.500000 0.000000
#
# Coordination Sequence:
#
# PCOD9519524 Si02
#       7
#    16  16  16  16  16  16   8
#     4   9  18  30  47  77 109 131 164 214 264 311
#     4   9  17  31  51  74 103 140 180 218 258 313
#     4  11  21  34  55  82 107 133 175 228 271 313
#     4  10  20  33  51  77 110 141 170 215 279 337
#     4  10  19  32  52  78 104 137 179 219 268 324
#     4  11  19  30  48  75 107 135 168 209 259 312
#     4  11  25  43  57  71 101 147 190 223 262 313
#
# _framework density 20.356698000000002
#
# number of rings (size 3 to 8) (size 9 to 14) (size 15 to 20)
#    0.000    1.923    3.846    1.154    0.000    1.231 
#    0.000    1.538    0.000    0.923    0.000    3.231 
#    0.000    0.000    0.000    2.769    0.000    3.077 
#
# Total GULP energy -289753.846803 kJ/mol
# GULP energy per Si atom -5572.189362 kJ/mol
# Density = 2.031037 g / cm^3
# Si number density = 20.356698 Si / 1000 Ang^3
#
#
#
# Elastic Constant Matrix: (Units=GPa)
#
#
# Indices 1 2 3 4 5 6 
#
# 1 79.9472 34.8493 5.1612 0.0000 0.0000 0.0000
# 2 34.8493 106.7368 2.4017 0.0000 0.0000 0.0000
# 3 5.1612 2.4017 30.7319 0.0000 0.0000 0.0000
# 4 0.0000 0.0000 0.0000 2.5483 0.0000 0.0000
# 5 0.0000 0.0000 0.0000 0.0000 7.9411 0.0000
# 6 0.0000 0.0000 0.0000 0.0000 0.0000 7.5609
#
#
#
# Elastic Compliance Matrix: (Units=1/GPa)
#
#
# Indices 1 2 3 4 5 6 
#
# 1 0.014718 -0.004758 -0.002100 0.000000 0.000000 0.000000
# 2 -0.004758 0.010924 -0.000055 0.000000 0.000000 0.000000
# 3 -0.002100 -0.000055 0.032896 0.000000 0.000000 0.000000
# 4 0.000000 0.000000 0.000000 0.392416 0.000000 0.000000
# 5 0.000000 0.000000 0.000000 0.000000 0.125927 0.000000
# 6 0.000000 0.000000 0.000000 0.000000 0.000000 0.132260
#
#
# Mechanical properties :
#
#
# Convention : Reuss Voigt Hill
#
# Bulk Modulus (GPa) = 22.36503 33.58223 27.97363
# Shear Modulus (GPa) = 6.77627 15.27699 11.02663
#
# Velocity S-wave (km/s) = 1.82647 2.74243 2.32991
# Velocity P-wave (km/s) = 3.93172 5.15370 4.58361
#
# Compressibility (1/GPa) = 0.04471266
#
# Stress axis : x y z
#
# Youngs Moduli (GPa) = 67.94451 91.54514 30.39849
#
# Poissons Ratio (x) = 0.43558 0.06383
# Poissons Ratio (y) = 0.32329 0.00166
# Poissons Ratio (z) = 0.14268 0.00500
#
# Static dielectric constant tensor:
#      x y z
#    x 1.690430 0.000000 0.000000 
#    y 0.000000 1.707110 0.000000 
#    z 0.000000 0.000000 1.797050 
# 
# From -- ./inp_files/13252.got.cif
#   From: 2010.05.17/outbox.cif.g08.bks.cpg/sg71_7_cif.got.tgz:13252.got - 2010.06.03 16:22:01.
