data_PCOD9519050
_publ_section_title
;
Structure prediction by ZEFSAII (Michael W. Deem and Ramdas Pophale) SiO2 
 PCOD9519050
Probable space group: I M M M
;
_chemical_formula_sum "Si O2"
_cell_formula_units_Z 72
_cell_length_a 17.634045
_cell_length_b 25.150258
_cell_length_c 7.301341
_cell_angle_alpha 90.000000
_cell_angle_beta 90.000000
_cell_angle_gamma 90.000000
_cell_volume 3238.150438
_symmetry_space_group_name_H-M "I M M M"
_symmetry_group_IT_number 71
_symmetry_cell_setting 'orthorhombic'
loop_
_space_group_symop_operation_xyz
x,y,z
-x,-y,z
x,-y,-z
-x,y,-z
-x,-y,-z
x,y,-z
-x,y,z
x,-y,z
1/2+x,1/2+y,1/2+z
1/2-x,1/2-y,1/2+z
1/2+x,1/2-y,1/2-z
1/2-x,1/2+y,1/2-z
1/2-x,1/2-y,1/2-z
1/2+x,1/2+y,1/2-z
1/2-x,1/2+y,1/2+z
1/2+x,1/2-y,1/2+z
loop_
_atom_site_type_symbol
_atom_site_label
_atom_site_fract_x
_atom_site_fract_y
_atom_site_fract_z
Si Si1 0.631497 0.138833 0.213151
Si Si2 0.416603 0.742277 0.279323
Si Si3 0.301819 0.346646 0.276067
Si Si4 0.085973 0.060332 0.777342
Si Si5 0.000000 0.438356 0.724419
O O1 0.593235 0.196618 0.225576
O O2 0.716089 0.145908 0.289686
O O3 0.574305 0.094322 0.286885
O O4 0.641693 0.125119 0.000000
O O5 0.416137 0.740072 0.500000
O O6 0.500000 0.722734 0.219829
O O7 0.346532 0.706237 0.215676
O O8 0.299955 0.344782 0.500000
O O9 0.353351 0.396426 0.220090
O O10 0.000000 0.073282 0.720497
O O11 0.103367 0.000000 0.720584
O O12 0.085829 0.060738 0.000000
O O13 0.000000 0.500000 0.778068
O O14 0.000000 0.436823 0.500000
#
# Coordination Sequence:
#
# PCOD9519050 Si02
#       5
#    16  16  16  16   8
#     4  10  19  32  49  68  93 122 154 195 234 275
#     4  10  19  31  48  68  94 125 154 188 233 282
#     4   9  17  27  42  66  92 121 156 190 231 279
#     4   8  13  22  37  59  90 123 151 183 225 274
#     4   9  18  32  49  69  93 123 156 193 238 278
#
# _framework density 22.234915000000001
#
# number of rings (size 3 to 8) (size 9 to 14) (size 15 to 20)
#    0.000    2.778    1.111    2.000    0.000    3.556 
#    0.000    4.444    0.000    1.333    0.000    0.000 
#    0.000    2.667    0.000   12.222    0.000   11.111 
#
# Total GULP energy -201079.682733 kJ/mol
# GULP energy per Si atom -5585.546743 kJ/mol
# Density = 2.218431 g / cm^3
# Si number density = 22.234915 Si / 1000 Ang^3
#
#
#
# Elastic Constant Matrix: (Units=GPa)
#
#
# Indices 1 2 3 4 5 6 
#
# 1 182.1619 104.5322 1.8442 0.0000 0.0000 0.0000
# 2 104.5322 157.1832 -4.9888 0.0000 0.0000 0.0000
# 3 1.8442 -4.9888 89.4974 0.0000 0.0000 0.0000
# 4 0.0000 0.0000 0.0000 1.8529 0.0000 0.0000
# 5 0.0000 0.0000 0.0000 0.0000 -8.1304 0.0000
# 6 0.0000 0.0000 0.0000 0.0000 0.0000 -56.6818
#
#
#
# Elastic Compliance Matrix: (Units=1/GPa)
#
#
# Indices 1 2 3 4 5 6 
#
# 1 0.008901 -0.005936 -0.000514 0.000000 0.000000 0.000000
# 2 -0.005936 0.010332 0.000698 0.000000 0.000000 0.000000
# 3 -0.000514 0.000698 0.011223 0.000000 0.000000 0.000000
# 4 0.000000 0.000000 0.000000 0.539681 0.000000 0.000000
# 5 0.000000 0.000000 0.000000 0.000000 -0.122995 0.000000
# 6 0.000000 0.000000 0.000000 0.000000 0.000000 -0.017642
#
#
# Mechanical properties :
#
#
# Convention : Reuss Voigt Hill
#
# Bulk Modulus (GPa) = 52.76492 70.17976 61.47234
# Shear Modulus (GPa) = 11.17765 9.23847 10.20806
#
# Velocity S-wave (km/s) = 2.24455 2.04058 2.14499
# Velocity P-wave (km/s) = 5.52263 6.09781 5.81734
#
# Compressibility (1/GPa) = 0.01895198
#
# Stress axis : x y z
#
# Youngs Moduli (GPa) = 112.34611 96.78951 89.10251
#
# Poissons Ratio (x) = 0.57453 0.04582
# Poissons Ratio (y) = 0.66687 -0.06221
# Poissons Ratio (z) = 0.05778 -0.06758
#
# Static dielectric constant tensor:
#      x y z
#    x 1.802780 0.000000 0.000000 
#    y 0.000000 1.756170 0.000000 
#    z 0.000000 0.000000 1.888570 
# 
# From -- ./inp_files/6084.got.cif
#   From: 2010.05.17/outbox.cif.g08.bks.cpg/sg71_4_cif.got.tgz:6084.got - 2010.06.03 16:22:01.
