data_PCOD9519315
_publ_section_title
;
Structure prediction by ZEFSAII (Michael W. Deem and Ramdas Pophale) SiO2 
 PCOD9519315
Probable space group: I M M M
;
_chemical_formula_sum "Si O2"
_cell_formula_units_Z 96
_cell_length_a 7.278260
_cell_length_b 26.200885
_cell_length_c 22.704537
_cell_angle_alpha 90.000000
_cell_angle_beta 90.000000
_cell_angle_gamma 90.000000
_cell_volume 4329.683761
_symmetry_space_group_name_H-M "I M M M"
_symmetry_group_IT_number 71
_symmetry_cell_setting 'orthorhombic'
loop_
_space_group_symop_operation_xyz
x,y,z
-x,-y,z
x,-y,-z
-x,y,-z
-x,-y,-z
x,y,-z
-x,y,z
x,-y,z
1/2+x,1/2+y,1/2+z
1/2-x,1/2-y,1/2+z
1/2+x,1/2-y,1/2-z
1/2-x,1/2+y,1/2-z
1/2-x,1/2-y,1/2-z
1/2+x,1/2+y,1/2-z
1/2-x,1/2+y,1/2+z
1/2+x,1/2-y,1/2+z
loop_
_atom_site_type_symbol
_atom_site_label
_atom_site_fract_x
_atom_site_fract_y
_atom_site_fract_z
Si Si1 0.776553 0.702101 0.500000
Si Si2 0.777903 0.252890 0.624709
Si Si3 0.223580 0.555148 0.629131
Si Si4 0.223463 0.583954 0.500000
Si Si5 0.775437 0.347002 0.295602
Si Si6 0.776231 0.558902 0.933054
Si Si7 0.711896 0.138922 0.336641
O O1 0.717518 0.728595 0.439738
O O2 0.722559 0.643106 0.500000
O O3 0.000000 0.702625 0.500000
O O4 0.717602 0.294011 0.673870
O O5 0.717417 0.195666 0.637132
O O6 0.000000 0.253071 0.625149
O O7 0.279655 0.500000 0.653556
O O8 0.282176 0.559547 0.561239
O O9 0.281385 0.604923 0.664741
O O10 0.000000 0.556269 0.629497
O O11 0.000000 0.581776 0.500000
O O12 0.710359 0.355915 0.229123
O O13 0.000000 0.345553 0.295176
O O14 0.724238 0.500000 0.921405
O O15 0.711064 0.598278 0.883321
O O16 0.000000 0.560422 0.933435
O O17 0.718801 0.572181 0.000000
O O18 0.500000 0.123298 0.328267
#
# Coordination Sequence:
#
# PCOD9519315 Si02
#       7
#     8  16  16   8  16  16  16
#     4   9  16  27  45  64  86 123 158 182 217 272
#     4  10  19  32  48  66  93 126 155 183 223 272
#     4   9  15  22  36  60  90 122 155 190 226 266
#     4   9  13  22  37  57  87 123 157 185 223 270
#     4   9  17  29  42  61  92 126 153 182 226 274
#     4   8  15  29  47  66  90 118 145 179 228 277
#     4  10  20  31  48  72  93 117 153 191 224 267
#
# _framework density 22.172519000000001
#
# number of rings (size 3 to 8) (size 9 to 14) (size 15 to 20)
#    0.000    2.833    1.667    1.250    1.167    1.667 
#    0.000    3.333    0.000    0.500    0.000    1.167 
#    0.000    2.000    0.000    1.500    0.000    1.667 
#
# Total GULP energy -268111.113706 kJ/mol
# GULP energy per Si atom -5585.648202 kJ/mol
# Density = 2.212205 g / cm^3
# Si number density = 22.172519 Si / 1000 Ang^3
#
#
#
# Elastic Constant Matrix: (Units=GPa)
#
#
# Indices 1 2 3 4 5 6 
#
# 1 94.6918 -6.9703 4.0648 0.0000 0.0000 0.0000
# 2 -6.9703 154.7079 100.5716 0.0000 0.0000 0.0000
# 3 4.0648 100.5716 179.2739 0.0000 0.0000 0.0000
# 4 0.0000 0.0000 0.0000 8.4670 0.0000 0.0000
# 5 0.0000 0.0000 0.0000 0.0000 -16.6000 0.0000
# 6 0.0000 0.0000 0.0000 0.0000 0.0000 -33.3511
#
#
#
# Elastic Compliance Matrix: (Units=1/GPa)
#
#
# Indices 1 2 3 4 5 6 
#
# 1 0.010669 0.001004 -0.000805 0.000000 0.000000 0.000000
# 2 0.001004 0.010269 -0.005783 0.000000 0.000000 0.000000
# 3 -0.000805 -0.005783 0.008841 0.000000 0.000000 0.000000
# 4 0.000000 0.000000 0.000000 0.118105 0.000000 0.000000
# 5 0.000000 0.000000 0.000000 0.000000 -0.060241 0.000000
# 6 0.000000 0.000000 0.000000 0.000000 0.000000 -0.029984
#
#
# Mechanical properties :
#
#
# Convention : Reuss Voigt Hill
#
# Bulk Modulus (GPa) = 53.73603 69.33400 61.53501
# Shear Modulus (GPa) = 66.63921 13.77035 40.20478
#
# Velocity S-wave (km/s) = 5.48818 2.49480 4.26287
# Velocity P-wave (km/s) = 8.02796 6.29578 7.21405
#
# Compressibility (1/GPa) = 0.01860949
#
# Stress axis : x y z
#
# Youngs Moduli (GPa) = 93.72903 97.38318 113.11191
#
# Poissons Ratio (x) = -0.09779 0.09108
# Poissons Ratio (y) = -0.09412 0.65418
# Poissons Ratio (z) = 0.07547 0.56321
#
# Static dielectric constant tensor:
#      x y z
#    x 1.929190 0.000000 0.000000 
#    y 0.000000 1.756210 0.000000 
#    z 0.000000 0.000000 1.784270 
# 
# From -- ./inp_files/25999.got.cif
#   From: 2010.05.17/outbox.cif.g08.bks.cpg/sg71_13_cif.got.tgz:25999.got - 2010.06.03 16:22:01.
