data_PCOD9519033
_publ_section_title
;
Structure prediction by ZEFSAII (Michael W. Deem and Ramdas Pophale) SiO2 
 PCOD9519033
Probable space group: I M M M
;
_chemical_formula_sum "Si O2"
_cell_formula_units_Z 120
_cell_length_a 21.712740
_cell_length_b 16.280111
_cell_length_c 19.714122
_cell_angle_alpha 90.000000
_cell_angle_beta 90.000000
_cell_angle_gamma 90.000000
_cell_volume 6968.662528
_symmetry_space_group_name_H-M "I M M M"
_symmetry_group_IT_number 71
_symmetry_cell_setting 'orthorhombic'
loop_
_space_group_symop_operation_xyz
x,y,z
-x,-y,z
x,-y,-z
-x,y,-z
-x,-y,-z
x,y,-z
-x,y,z
x,-y,z
1/2+x,1/2+y,1/2+z
1/2-x,1/2-y,1/2+z
1/2+x,1/2-y,1/2-z
1/2-x,1/2+y,1/2-z
1/2-x,1/2-y,1/2-z
1/2+x,1/2+y,1/2-z
1/2-x,1/2+y,1/2+z
1/2+x,1/2-y,1/2+z
loop_
_atom_site_type_symbol
_atom_site_label
_atom_site_fract_x
_atom_site_fract_y
_atom_site_fract_z
Si Si1 0.313401 0.153371 0.790943
Si Si2 0.500000 0.600717 0.578893
Si Si3 0.221938 0.098754 0.424685
Si Si4 0.750312 0.400477 0.422803
Si Si5 0.124933 0.098759 0.850116
Si Si6 0.688711 0.651383 0.781663
Si Si7 0.430943 0.901048 0.710426
Si Si8 0.864381 0.600255 0.924429
O O1 0.299625 0.130819 0.868564
O O2 0.311572 0.250651 0.781358
O O3 0.254922 0.119587 0.747440
O O4 0.378060 0.121476 0.763598
O O5 0.500000 0.500000 0.579523
O O6 0.500000 0.625076 0.500000
O O7 0.438644 0.628581 0.617770
O O8 0.202126 0.126981 0.500000
O O9 0.183322 0.124558 0.359417
O O10 0.293182 0.126222 0.414593
O O11 0.222983 0.000000 0.426031
O O12 0.759642 0.373222 0.500000
O O13 0.750903 0.500000 0.421920
O O14 0.683647 0.372653 0.394426
O O15 0.138290 0.122123 0.772443
O O16 0.124480 0.000000 0.854104
O O17 0.500000 0.871081 0.725221
O O18 0.406734 0.871038 0.637007
O O19 0.433328 0.000000 0.707308
O O20 0.864496 0.500000 0.923379
O O21 0.884211 0.625337 0.000000
#
# Coordination Sequence:
#
# PCOD9519033 Si02
#       8
#    16   8  16  16  16  16  16  16
#     4  10  20  32  46  68  96 128 162 205 246 290
#     4   9  16  28  48  74 103 129 158 197 235 275
#     4   9  16  27  47  73  99 126 156 197 245 287
#     4   9  17  30  50  73  94 120 158 204 252 295
#     4   9  17  29  48  73  99 129 162 196 233 284
#     4  10  19  31  47  69  97 131 166 200 243 289
#     4  10  19  31  49  70  94 129 168 205 243 286
#     4   8  14  25  43  68  96 126 160 197 236 274
#
# _framework density 17.219947999999999
#
# number of rings (size 3 to 8) (size 9 to 14) (size 15 to 20)
#    0.000    2.733    1.333    2.000    0.000    3.467 
#    1.200    1.333    0.000    1.200    0.000    2.333 
#    0.000    2.667    0.000    0.000    0.000    0.000 
#
# Total GULP energy -334406.175945 kJ/mol
# GULP energy per Si atom -5573.436266 kJ/mol
# Density = 1.718075 g / cm^3
# Si number density = 17.219948 Si / 1000 Ang^3
#
#
#
# Elastic Constant Matrix: (Units=GPa)
#
#
# Indices 1 2 3 4 5 6 
#
# 1 112.2404 11.8393 88.7786 0.0000 0.0000 0.0000
# 2 11.8393 5.1890 10.0248 0.0000 0.0000 0.0000
# 3 88.7786 10.0248 163.4245 0.0000 0.0000 0.0000
# 4 0.0000 0.0000 0.0000 0.2666 0.0000 0.0000
# 5 0.0000 0.0000 0.0000 0.0000 24.6104 0.0000
# 6 0.0000 0.0000 0.0000 0.0000 0.0000 4.8886
#
#
#
# Elastic Compliance Matrix: (Units=1/GPa)
#
#
# Indices 1 2 3 4 5 6 
#
# 1 0.018157 -0.025379 -0.008307 0.000000 0.000000 0.000000
# 2 -0.025379 0.254096 -0.001800 0.000000 0.000000 0.000000
# 3 -0.008307 -0.001800 0.010742 0.000000 0.000000 0.000000
# 4 0.000000 0.000000 0.000000 3.751424 0.000000 0.000000
# 5 0.000000 0.000000 0.000000 0.000000 0.040633 0.000000
# 6 0.000000 0.000000 0.000000 0.000000 0.000000 0.204560
#
#
# Mechanical properties :
#
#
# Convention : Reuss Voigt Hill
#
# Bulk Modulus (GPa) = 4.71644 55.79325 30.25485
# Shear Modulus (GPa) = 1.13090 17.30053 9.21571
#
# Velocity S-wave (km/s) = 0.81127 3.17311 2.31590
# Velocity P-wave (km/s) = 1.90327 6.77462 4.97584
#
# Compressibility (1/GPa) = 0.21202417
#
# Stress axis : x y z
#
# Youngs Moduli (GPa) = 55.07599 3.93552 93.09284
#
# Poissons Ratio (x) = 0.09988 0.77329
# Poissons Ratio (y) = 1.39775 0.16758
# Poissons Ratio (z) = 0.45750 0.00708
#
# Static dielectric constant tensor:
#      x y z
#    x 1.576890 0.000000 0.000000 
#    y 0.000000 1.595920 0.000000 
#    z 0.000000 0.000000 1.595250 
# 
# From -- ./inp_files/47572.got.cif
#   From: 2010.05.17/outbox.cif.g08.bks.cpg/sg71_24_cif.got.tgz:47572.got - 2010.06.03 16:22:01.
