data_PCOD9519242
_publ_section_title
;
Structure prediction by ZEFSAII (Michael W. Deem and Ramdas Pophale) SiO2 
 PCOD9519242
Probable space group: I M M M
;
_chemical_formula_sum "Si O2"
_cell_formula_units_Z 72
_cell_length_a 16.768957
_cell_length_b 11.863606
_cell_length_c 22.191603
_cell_angle_alpha 90.000000
_cell_angle_beta 90.000000
_cell_angle_gamma 90.000000
_cell_volume 4414.804133
_symmetry_space_group_name_H-M "I M M M"
_symmetry_group_IT_number 71
_symmetry_cell_setting 'orthorhombic'
loop_
_space_group_symop_operation_xyz
x,y,z
-x,-y,z
x,-y,-z
-x,y,-z
-x,-y,-z
x,y,-z
-x,y,z
x,-y,z
1/2+x,1/2+y,1/2+z
1/2-x,1/2-y,1/2+z
1/2+x,1/2-y,1/2-z
1/2-x,1/2+y,1/2-z
1/2-x,1/2-y,1/2-z
1/2+x,1/2+y,1/2-z
1/2-x,1/2+y,1/2+z
1/2+x,1/2-y,1/2+z
loop_
_atom_site_type_symbol
_atom_site_label
_atom_site_fract_x
_atom_site_fract_y
_atom_site_fract_z
Si Si1 0.162487 0.243031 0.383119
Si Si2 0.093873 0.000000 0.366014
Si Si3 0.405816 0.875414 0.769723
Si Si4 0.689700 0.270988 0.693196
Si Si5 0.904742 0.000000 0.779831
Si Si6 0.094907 0.634944 0.500000
O O1 0.136534 0.113250 0.388487
O O2 0.116324 0.295251 0.325414
O O3 0.255222 0.257443 0.365139
O O4 0.135319 0.311685 0.441221
O O5 0.098901 0.000000 0.293052
O O6 0.000000 0.000000 0.382290
O O7 0.500000 0.881464 0.767609
O O8 0.373956 0.825827 0.707184
O O9 0.371316 0.000000 0.780875
O O10 0.750000 0.250000 0.750000
O O11 0.643317 0.389325 0.698135
O O12 0.000000 0.000000 0.795682
O O13 0.103595 0.500000 0.500000
O O14 0.000000 0.660237 0.500000
#
# Coordination Sequence:
#
# PCOD9519242 Si02
#       6
#    16   8  16  16   8   8
#     4  11  23  34  54  76 107 141 183 220 262 307
#     4  11  20  33  54  77 109 143 176 216 261 321
#     4  10  19  31  51  78 110 139 171 211 260 320
#     4  10  21  30  52  77 109 138 176 217 267 317
#     4  11  20  34  53  79 112 148 178 213 273 334
#     4  11  24  41  57  73 103 143 183 219 260 314
#
# _framework density 16.308764
#
# number of rings (size 3 to 8) (size 9 to 14) (size 15 to 20)
#    0.000    1.444    4.444    3.333    9.333    2.222 
#    0.000    1.111    0.000    0.000    0.000    3.889 
#    0.000    1.778    0.000    0.000    0.000    0.000 
#
# Total GULP energy -200708.169681 kJ/mol
# GULP energy per Si atom -5575.226936 kJ/mol
# Density = 1.627164 g / cm^3
# Si number density = 16.308764 Si / 1000 Ang^3
#
#
#
# Elastic Constant Matrix: (Units=GPa)
#
#
# Indices 1 2 3 4 5 6 
#
# 1 87.4844 50.1583 44.8612 0.0000 0.0000 0.0000
# 2 50.1583 133.9260 33.8528 0.0000 0.0000 0.0000
# 3 44.8612 33.8528 77.8458 0.0000 0.0000 0.0000
# 4 0.0000 0.0000 0.0000 16.8342 0.0000 0.0000
# 5 0.0000 0.0000 0.0000 0.0000 21.5465 0.0000
# 6 0.0000 0.0000 0.0000 0.0000 0.0000 29.8551
#
#
#
# Elastic Compliance Matrix: (Units=1/GPa)
#
#
# Indices 1 2 3 4 5 6 
#
# 1 0.018604 -0.004783 -0.008641 0.000000 0.000000 0.000000
# 2 -0.004783 0.009619 -0.001426 0.000000 0.000000 0.000000
# 3 -0.008641 -0.001426 0.018446 0.000000 0.000000 0.000000
# 4 0.000000 0.000000 0.000000 0.059403 0.000000 0.000000
# 5 0.000000 0.000000 0.000000 0.000000 0.046411 0.000000
# 6 0.000000 0.000000 0.000000 0.000000 0.000000 0.033495
#
#
# Mechanical properties :
#
#
# Convention : Reuss Voigt Hill
#
# Bulk Modulus (GPa) = 58.93729 61.88897 60.41313
# Shear Modulus (GPa) = 22.59010 25.00608 23.79809
#
# Velocity S-wave (km/s) = 3.72580 3.91997 3.82412
# Velocity P-wave (km/s) = 7.39768 7.64977 7.52478
#
# Compressibility (1/GPa) = 0.01696719
#
# Stress axis : x y z
#
# Youngs Moduli (GPa) = 53.75107 103.96238 54.21249
#
# Poissons Ratio (x) = 0.49730 0.46846
# Poissons Ratio (y) = 0.25712 0.07732
# Poissons Ratio (z) = 0.46447 0.14828
#
# Static dielectric constant tensor:
#      x y z
#    x 1.852130 0.000000 0.000000 
#    y 0.000000 1.591920 0.000000 
#    z 0.000000 0.000000 1.523140 
# 
# From -- ./inp_files/23745.got.cif
#   From: 2010.05.17/outbox.cif.g08.bks.cpg/sg71_12_cif.got.tgz:23745.got - 2010.06.03 16:22:01.
