data_PCOD9519820
_publ_section_title
;
Structure prediction by ZEFSAII (Michael W. Deem and Ramdas Pophale) SiO2 
 PCOD9519820
Probable space group: I M M M
;
_chemical_formula_sum "Si O2"
_cell_formula_units_Z 104
_cell_length_a 29.670933
_cell_length_b 21.074010
_cell_length_c 8.694877
_cell_angle_alpha 90.000000
_cell_angle_beta 90.000000
_cell_angle_gamma 90.000000
_cell_volume 5436.780849
_symmetry_space_group_name_H-M "I M M M"
_symmetry_group_IT_number 71
_symmetry_cell_setting 'orthorhombic'
loop_
_space_group_symop_operation_xyz
x,y,z
-x,-y,z
x,-y,-z
-x,y,-z
-x,-y,-z
x,y,-z
-x,y,z
x,-y,z
1/2+x,1/2+y,1/2+z
1/2-x,1/2-y,1/2+z
1/2+x,1/2-y,1/2-z
1/2-x,1/2+y,1/2-z
1/2-x,1/2-y,1/2-z
1/2+x,1/2+y,1/2-z
1/2-x,1/2+y,1/2+z
1/2+x,1/2-y,1/2+z
loop_
_atom_site_type_symbol
_atom_site_label
_atom_site_fract_x
_atom_site_fract_y
_atom_site_fract_z
Si Si1 0.450425 0.768907 0.677169
Si Si2 0.181156 0.865475 0.183522
Si Si3 0.212339 0.500000 0.824628
Si Si4 0.447922 0.615779 0.330907
Si Si5 0.785037 0.365798 0.685227
Si Si6 0.321813 0.500000 0.175907
Si Si7 0.357083 0.238343 0.817040
Si Si8 0.551617 0.424651 0.000000
O O1 0.446303 0.790187 0.500000
O O2 0.500000 0.788164 0.736285
O O3 0.450097 0.692032 0.672603
O O4 0.406270 0.786974 0.770939
O O5 0.233250 0.855631 0.236990
O O6 0.152081 0.806986 0.243740
O O7 0.166074 0.934650 0.240766
O O8 0.180897 0.864892 0.000000
O O9 0.199246 0.565288 0.742555
O O10 0.267059 0.500000 0.824955
O O11 0.196732 0.500000 0.000000
O O12 0.428230 0.597572 0.500000
O O13 0.500000 0.591794 0.332123
O O14 0.428567 0.595490 0.165190
O O15 0.784772 0.366296 0.500000
O O16 0.818272 0.310128 0.737137
O O17 0.338052 0.500000 0.000000
O O18 0.354267 0.244733 0.000000
O O19 0.549705 0.500000 0.000000
O O20 0.500000 0.398178 0.000000
#
# Coordination Sequence:
#
# PCOD9519820 Si02
#       8
#    16  16   8  16  16   8  16   8
#     4   9  19  36  55  73  95 128 170 216 267 321
#     4  10  19  33  53  75 107 149 184 218 263 315
#     4   9  17  29  51  79 106 143 182 215 253 306
#     4   8  15  28  45  63  85 114 149 193 247 305
#     4   9  19  34  51  77 113 148 179 212 258 316
#     4   9  17  31  51  75 104 139 184 227 263 311
#     4  11  22  33  51  81 110 138 176 223 272 316
#     4   9  16  24  40  66  88 110 146 191 247 311
#
# _framework density 19.128966999999999
#
# number of rings (size 3 to 8) (size 9 to 14) (size 15 to 20)
#    0.000    2.692    0.000    2.769    1.077    4.308 
#    0.000    1.538    1.692    0.000    0.000    0.538 
#    0.000    4.308    0.000    0.000    0.000    0.000 
#
# Total GULP energy -290105.088907 kJ/mol
# GULP energy per Si atom -5578.944017 kJ/mol
# Density = 1.908543 g / cm^3
# Si number density = 19.128967 Si / 1000 Ang^3
#
#
#
# Elastic Constant Matrix: (Units=GPa)
#
#
# Indices 1 2 3 4 5 6 
#
# 1 110.4002 38.0897 25.4237 0.0000 0.0000 0.0000
# 2 38.0897 67.2122 14.4877 0.0000 0.0000 0.0000
# 3 25.4237 14.4877 83.0791 0.0000 0.0000 0.0000
# 4 0.0000 0.0000 0.0000 21.9446 0.0000 0.0000
# 5 0.0000 0.0000 0.0000 0.0000 19.1144 0.0000
# 6 0.0000 0.0000 0.0000 0.0000 0.0000 0.9617
#
#
#
# Elastic Compliance Matrix: (Units=1/GPa)
#
#
# Indices 1 2 3 4 5 6 
#
# 1 0.011750 -0.006113 -0.002530 0.000000 0.000000 0.000000
# 2 -0.006113 0.018640 -0.001380 0.000000 0.000000 0.000000
# 3 -0.002530 -0.001380 0.013051 0.000000 0.000000 0.000000
# 4 0.000000 0.000000 0.000000 0.045569 0.000000 0.000000
# 5 0.000000 0.000000 0.000000 0.000000 0.052317 0.000000
# 6 0.000000 0.000000 0.000000 0.000000 0.000000 1.039840
#
#
# Mechanical properties :
#
#
# Convention : Reuss Voigt Hill
#
# Bulk Modulus (GPa) = 42.74250 46.29929 44.52089
# Shear Modulus (GPa) = 4.13561 20.58350 12.35955
#
# Velocity S-wave (km/s) = 1.47196 3.28386 2.54464
# Velocity P-wave (km/s) = 5.02810 6.21568 5.65316
#
# Compressibility (1/GPa) = 0.02339592
#
# Stress axis : x y z
#
# Youngs Moduli (GPa) = 85.10864 53.64754 76.62008
#
# Poissons Ratio (x) = 0.32797 0.19381
# Poissons Ratio (y) = 0.52030 0.10572
# Poissons Ratio (z) = 0.21528 0.07402
#
# Static dielectric constant tensor:
#      x y z
#    x 1.726460 0.000000 0.000000 
#    y 0.000000 1.629020 0.000000 
#    z 0.000000 0.000000 1.688870 
# 
# From -- ./inp_files/17073.got.cif
#   From: 2010.05.17/outbox.cif.g08.bks.cpg/sg71_9_cif.got.tgz:17073.got - 2010.06.03 16:22:01.
