data_PCOD9519685
_publ_section_title
;
Structure prediction by ZEFSAII (Michael W. Deem and Ramdas Pophale) SiO2 
 PCOD9519685
Probable space group: I M M M
;
_chemical_formula_sum "Si O2"
_cell_formula_units_Z 88
_cell_length_a 18.275578
_cell_length_b 11.413724
_cell_length_c 24.815514
_cell_angle_alpha 90.000000
_cell_angle_beta 90.000000
_cell_angle_gamma 90.000000
_cell_volume 5176.327703
_symmetry_space_group_name_H-M "I M M M"
_symmetry_group_IT_number 71
_symmetry_cell_setting 'orthorhombic'
loop_
_space_group_symop_operation_xyz
x,y,z
-x,-y,z
x,-y,-z
-x,y,-z
-x,-y,-z
x,y,-z
-x,y,z
x,-y,z
1/2+x,1/2+y,1/2+z
1/2-x,1/2-y,1/2+z
1/2+x,1/2-y,1/2-z
1/2-x,1/2+y,1/2-z
1/2-x,1/2-y,1/2-z
1/2+x,1/2+y,1/2-z
1/2-x,1/2+y,1/2+z
1/2+x,1/2-y,1/2+z
loop_
_atom_site_type_symbol
_atom_site_label
_atom_site_fract_x
_atom_site_fract_y
_atom_site_fract_z
Si Si1 0.580496 0.631034 0.683381
Si Si2 0.183937 0.777220 0.089954
Si Si3 0.588798 0.143079 0.500000
Si Si4 0.135936 0.306658 0.734169
Si Si5 0.286150 0.000000 0.938752
Si Si6 0.746426 0.630009 0.178123
Si Si7 0.415598 0.000000 0.848566
O O1 0.500000 0.633582 0.658580
O O2 0.595392 0.500000 0.703672
O O3 0.638578 0.663297 0.638268
O O4 0.584173 0.722764 0.731483
O O5 0.128283 0.710968 0.049688
O O6 0.229844 0.676159 0.119787
O O7 0.235468 0.882541 0.067909
O O8 0.500000 0.158527 0.500000
O O9 0.601632 0.000000 0.500000
O O10 0.185288 0.369768 0.779970
O O11 0.190565 0.223326 0.701683
O O12 0.097907 0.390884 0.691672
O O13 0.352038 0.000000 0.894626
O O14 0.314883 0.000000 0.000000
O O15 0.715840 0.500000 0.175835
O O16 0.500000 0.000000 0.868304
#
# Coordination Sequence:
#
# PCOD9519685 Si02
#       7
#    16  16   8  16   8  16   8
#     4  10  20  33  52  82 122 162 196 235 289 351
#     4  11  21  37  59  84 114 156 202 246 294 347
#     4  11  24  41  59  85 121 159 202 250 297 353
#     4  10  20  33  54  84 120 155 192 233 293 351
#     4  12  24  43  64  88 112 148 201 271 309 355
#     4  10  19  32  56  85 116 151 197 237 279 342
#     4  12  24  41  62  88 120 155 198 250 317 377
#
# _framework density 17.000468999999999
#
# number of rings (size 3 to 8) (size 9 to 14) (size 15 to 20)
#    0.000    1.364    4.545    2.182    0.000    0.182 
#    0.000    0.455    0.000    0.000    0.000    0.000 
#    0.000    2.182    0.000    0.000    0.000    0.000 
#
# Total GULP energy -245162.359004 kJ/mol
# GULP energy per Si atom -5571.871796 kJ/mol
# Density = 1.696178 g / cm^3
# Si number density = 17.000469 Si / 1000 Ang^3
#
#
#
# Elastic Constant Matrix: (Units=GPa)
#
#
# Indices 1 2 3 4 5 6 
#
# 1 77.5421 36.6203 33.2020 0.0000 0.0000 0.0000
# 2 36.6203 119.7383 39.9716 0.0000 0.0000 0.0000
# 3 33.2020 39.9716 89.7435 0.0000 0.0000 0.0000
# 4 0.0000 0.0000 0.0000 52.9004 0.0000 0.0000
# 5 0.0000 0.0000 0.0000 0.0000 18.3325 0.0000
# 6 0.0000 0.0000 0.0000 0.0000 0.0000 16.9259
#
#
#
# Elastic Compliance Matrix: (Units=1/GPa)
#
#
# Indices 1 2 3 4 5 6 
#
# 1 0.016506 -0.003535 -0.004532 0.000000 0.000000 0.000000
# 2 -0.003535 0.010567 -0.003399 0.000000 0.000000 0.000000
# 3 -0.004532 -0.003399 0.014333 0.000000 0.000000 0.000000
# 4 0.000000 0.000000 0.000000 0.018903 0.000000 0.000000
# 5 0.000000 0.000000 0.000000 0.000000 0.054548 0.000000
# 6 0.000000 0.000000 0.000000 0.000000 0.000000 0.059081
#
#
# Mechanical properties :
#
#
# Convention : Reuss Voigt Hill
#
# Bulk Modulus (GPa) = 54.12803 56.29020 55.20911
# Shear Modulus (GPa) = 24.62688 29.44710 27.03699
#
# Velocity S-wave (km/s) = 3.81018 4.16641 3.99227
# Velocity P-wave (km/s) = 7.15995 7.50521 7.33461
#
# Compressibility (1/GPa) = 0.01847472
#
# Stress axis : x y z
#
# Youngs Moduli (GPa) = 60.58248 94.63109 69.76699
#
# Poissons Ratio (x) = 0.33455 0.31620
# Poissons Ratio (y) = 0.21418 0.23712
# Poissons Ratio (z) = 0.27457 0.32163
#
# Static dielectric constant tensor:
#      x y z
#    x 1.582860 0.000000 0.000000 
#    y 0.000000 1.581430 0.000000 
#    z 0.000000 0.000000 1.574490 
# 
# From -- ./inp_files/53981.got.cif
#   From: 2010.05.17/outbox.cif.g08.bks.cpg/sg71_27_cif.got.tgz:53981.got - 2010.06.03 16:22:01.
