data_PCOD9519757
_publ_section_title
;
Structure prediction by ZEFSAII (Michael W. Deem and Ramdas Pophale) SiO2 
 PCOD9519757
Probable space group: I M M M
;
_chemical_formula_sum "Si O2"
_cell_formula_units_Z 58
_cell_length_a 15.674958
_cell_length_b 17.100782
_cell_length_c 12.599619
_cell_angle_alpha 90.000000
_cell_angle_beta 90.000000
_cell_angle_gamma 90.000000
_cell_volume 3377.378771
_symmetry_space_group_name_H-M "I M M M"
_symmetry_group_IT_number 71
_symmetry_cell_setting 'orthorhombic'
loop_
_space_group_symop_operation_xyz
x,y,z
-x,-y,z
x,-y,-z
-x,y,-z
-x,-y,-z
x,y,-z
-x,y,z
x,-y,z
1/2+x,1/2+y,1/2+z
1/2-x,1/2-y,1/2+z
1/2+x,1/2-y,1/2-z
1/2-x,1/2+y,1/2-z
1/2-x,1/2-y,1/2-z
1/2+x,1/2+y,1/2-z
1/2-x,1/2+y,1/2+z
1/2+x,1/2-y,1/2+z
loop_
_atom_site_type_symbol
_atom_site_label
_atom_site_fract_x
_atom_site_fract_y
_atom_site_fract_z
Si Si1 0.326200 0.179686 0.126059
Si Si2 0.397539 0.500000 0.875852
Si Si3 0.000000 0.837417 0.883498
Si Si4 0.500000 0.090133 0.871353
Si Si5 0.500000 0.500000 0.500000
Si Si6 0.160643 0.157598 0.262546
O O1 0.413932 0.136360 0.158236
O O2 0.246428 0.148806 0.193746
O O3 0.331427 0.271442 0.154369
O O4 0.313240 0.168260 0.000000
O O5 0.500000 0.500000 0.867903
O O6 0.362544 0.422511 0.820109
O O7 0.374819 0.500000 0.000000
O O8 0.084122 0.819794 0.817057
O O9 0.000000 0.930271 0.909658
O O10 0.000000 0.798623 0.000000
O O11 0.500000 0.000000 0.834174
O O12 0.500000 0.088239 0.000000
#
# Coordination Sequence:
#
# PCOD9519757 Si02
#       6
#    16   8   8   8   2  16
#     4  10  22  38  58  82 114 150 194 245 286 335
#     4  11  23  37  58  87 119 153 189 231 287 357
#     4  10  19  33  51  82 118 149 180 227 287 346
#     4   9  19  36  53  79 107 144 190 234 277 317
#     4   8  20  32  48  80 122 142 174 232 280 360
#     4  11  21  37  57  84 116 153 191 229 295 350
#
# _framework density 17.173081
#
# number of rings (size 3 to 8) (size 9 to 14) (size 15 to 20)
#    0.414    1.379    1.379    3.310    1.931    0.000 
#    0.000    0.000    0.000    0.000    0.000    0.966 
#    0.000    0.000    0.000    0.000    0.000    0.000 
#
# Total GULP energy -161522.876627 kJ/mol
# GULP energy per Si atom -5569.754366 kJ/mol
# Density = 1.713399 g / cm^3
# Si number density = 17.173081 Si / 1000 Ang^3
#
#
#
# Elastic Constant Matrix: (Units=GPa)
#
#
# Indices 1 2 3 4 5 6 
#
# 1 149.8660 52.9404 55.9768 0.0000 0.0000 0.0000
# 2 52.9404 93.4204 48.6049 0.0000 0.0000 0.0000
# 3 55.9768 48.6049 92.8274 0.0000 0.0000 0.0000
# 4 0.0000 0.0000 0.0000 -6.1210 0.0000 0.0000
# 5 0.0000 0.0000 0.0000 0.0000 15.0811 0.0000
# 6 0.0000 0.0000 0.0000 0.0000 0.0000 22.1923
#
#
#
# Elastic Compliance Matrix: (Units=1/GPa)
#
#
# Indices 1 2 3 4 5 6 
#
# 1 0.009268 -0.003222 -0.003902 0.000000 0.000000 0.000000
# 2 -0.003222 0.015832 -0.006347 0.000000 0.000000 0.000000
# 3 -0.003902 -0.006347 0.016449 0.000000 0.000000 0.000000
# 4 0.000000 0.000000 0.000000 -0.163373 0.000000 0.000000
# 5 0.000000 0.000000 0.000000 0.000000 0.066308 0.000000
# 6 0.000000 0.000000 0.000000 0.000000 0.000000 0.045061
#
#
# Mechanical properties :
#
#
# Convention : Reuss Voigt Hill
#
# Bulk Modulus (GPa) = 68.45684 72.35089 70.40386
# Shear Modulus (GPa) = 234.11833 18.13659 126.12746
#
# Velocity S-wave (km/s) = 11.68865 3.25330 8.57930
# Velocity P-wave (km/s) = 14.90354 7.50559 11.79935
#
# Compressibility (1/GPa) = 0.01460775
#
# Stress axis : x y z
#
# Youngs Moduli (GPa) = 107.89531 63.16140 60.79471
#
# Poissons Ratio (x) = 0.20352 0.23721
# Poissons Ratio (y) = 0.34766 0.38586
# Poissons Ratio (z) = 0.42098 0.40088
#
# Static dielectric constant tensor:
#      x y z
#    x 1.573550 0.000000 0.000000 
#    y 0.000000 1.560380 0.000000 
#    z 0.000000 0.000000 1.586270 
# 
# From -- ./inp_files/21189.got.cif
#   From: 2010.05.17/outbox.cif.g08.bks.cpg/sg71_11_cif.got.tgz:21189.got - 2010.06.03 16:22:01.
