data_PCOD9519350
_publ_section_title
;
Structure prediction by ZEFSAII (Michael W. Deem and Ramdas Pophale) SiO2 
 PCOD9519350
Probable space group: I M M M
;
_chemical_formula_sum "Si O2"
_cell_formula_units_Z 120
_cell_length_a 22.101290
_cell_length_b 16.212894
_cell_length_c 20.535332
_cell_angle_alpha 90.000000
_cell_angle_beta 90.000000
_cell_angle_gamma 90.000000
_cell_volume 7358.340746
_symmetry_space_group_name_H-M "I M M M"
_symmetry_group_IT_number 71
_symmetry_cell_setting 'orthorhombic'
loop_
_space_group_symop_operation_xyz
x,y,z
-x,-y,z
x,-y,-z
-x,y,-z
-x,-y,-z
x,y,-z
-x,y,z
x,-y,z
1/2+x,1/2+y,1/2+z
1/2-x,1/2-y,1/2+z
1/2+x,1/2-y,1/2-z
1/2-x,1/2+y,1/2-z
1/2-x,1/2-y,1/2-z
1/2+x,1/2+y,1/2-z
1/2-x,1/2+y,1/2+z
1/2+x,1/2-y,1/2+z
loop_
_atom_site_type_symbol
_atom_site_label
_atom_site_fract_x
_atom_site_fract_y
_atom_site_fract_z
Si Si1 0.069765 0.596756 0.659782
Si Si2 0.809311 0.403912 0.824307
Si Si3 0.931670 0.325078 0.800464
Si Si4 0.226362 0.721994 0.071765
Si Si5 0.184392 0.368069 0.425172
Si Si6 0.128117 0.830987 0.860716
Si Si7 0.573064 0.500000 0.578048
Si Si8 0.261345 0.591814 0.697329
O O1 0.082201 0.500000 0.678571
O O2 0.074331 0.655549 0.723148
O O3 0.117947 0.622119 0.605097
O O4 0.000000 0.600094 0.637286
O O5 0.799906 0.500000 0.834711
O O6 0.879530 0.381173 0.831284
O O7 0.773520 0.347286 0.874018
O O8 0.786571 0.381867 0.751641
O O9 0.917705 0.232728 0.826367
O O10 0.000000 0.347747 0.818331
O O11 0.287068 0.776526 0.074788
O O12 0.168346 0.781589 0.085748
O O13 0.220019 0.686604 0.000000
O O14 0.187332 0.397753 0.500000
O O15 0.228706 0.410450 0.372719
O O16 0.100432 0.915905 0.889639
O O17 0.179936 0.852400 0.808008
O O18 0.500000 0.500000 0.586068
O O19 0.586036 0.500000 0.500000
O O20 0.281492 0.500000 0.714111
#
# Coordination Sequence:
#
# PCOD9519350 Si02
#       8
#    16  16  16  16  16  16   8  16
#     4  10  20  33  49  72 104 140 178 216 253 303
#     4  10  20  33  55  78 101 133 172 213 264 310
#     4  10  20  33  52  75 102 136 174 214 257 304
#     4   9  20  35  52  76 105 133 166 214 264 314
#     4  10  20  32  49  73 104 141 173 208 256 311
#     4  10  20  34  53  74 102 135 174 215 255 309
#     4  11  22  36  54  76 106 142 176 214 262 317
#     4  10  19  32  49  76 101 128 165 213 255 302
#
# _framework density 16.308024
#
# number of rings (size 3 to 8) (size 9 to 14) (size 15 to 20)
#    0.000    2.067    2.000    1.600    1.867    4.533 
#    0.000    0.667    0.000    3.600    0.000    3.733 
#    0.000    0.000    0.000    2.933    0.000    0.000 
#
# Total GULP energy -334086.029590 kJ/mol
# GULP energy per Si atom -5568.100493 kJ/mol
# Density = 1.627091 g / cm^3
# Si number density = 16.308024 Si / 1000 Ang^3
#
#
#
# Elastic Constant Matrix: (Units=GPa)
#
#
# Indices 1 2 3 4 5 6 
#
# 1 70.5871 29.4008 24.0876 0.0000 0.0000 0.0000
# 2 29.4008 81.1274 50.5863 0.0000 0.0000 0.0000
# 3 24.0876 50.5863 80.8653 0.0000 0.0000 0.0000
# 4 0.0000 0.0000 0.0000 94.9423 0.0000 0.0000
# 5 0.0000 0.0000 0.0000 0.0000 19.3176 0.0000
# 6 0.0000 0.0000 0.0000 0.0000 0.0000 17.1127
#
#
#
# Elastic Compliance Matrix: (Units=1/GPa)
#
#
# Indices 1 2 3 4 5 6 
#
# 1 0.016875 -0.004888 -0.001969 0.000000 0.000000 0.000000
# 2 -0.004888 0.021625 -0.012072 0.000000 0.000000 0.000000
# 3 -0.001969 -0.012072 0.020504 0.000000 0.000000 0.000000
# 4 0.000000 0.000000 0.000000 0.010533 0.000000 0.000000
# 5 0.000000 0.000000 0.000000 0.000000 0.051766 0.000000
# 6 0.000000 0.000000 0.000000 0.000000 0.000000 0.058436
#
#
# Mechanical properties :
#
#
# Convention : Reuss Voigt Hill
#
# Bulk Modulus (GPa) = 47.28800 48.96994 48.12897
# Shear Modulus (GPa) = 22.25736 34.84153 28.54944
#
# Velocity S-wave (km/s) = 3.69834 4.62721 4.18860
# Velocity P-wave (km/s) = 6.87726 7.65776 7.27798
#
# Compressibility (1/GPa) = 0.02114702
#
# Stress axis : x y z
#
# Youngs Moduli (GPa) = 59.26070 46.24302 48.76998
#
# Poissons Ratio (x) = 0.22602 0.09602
# Poissons Ratio (y) = 0.28965 0.58874
# Poissons Ratio (z) = 0.11668 0.55824
#
# Static dielectric constant tensor:
#      x y z
#    x 1.552240 0.000000 0.000000 
#    y 0.000000 1.557840 0.000000 
#    z 0.000000 0.000000 1.554290 
# 
# From -- ./inp_files/55137.got.cif
#   From: 2010.05.17/outbox.cif.g08.bks.cpg/sg71_28_cif.got.tgz:55137.got - 2010.06.03 16:22:01.
