data_PCOD9519503
_publ_section_title
;
Structure prediction by ZEFSAII (Michael W. Deem and Ramdas Pophale) SiO2 
 PCOD9519503
Probable space group: I M M M
;
_chemical_formula_sum "Si O2"
_cell_formula_units_Z 96
_cell_length_a 23.922896
_cell_length_b 26.644314
_cell_length_c 8.474253
_cell_angle_alpha 90.000000
_cell_angle_beta 90.000000
_cell_angle_gamma 90.000000
_cell_volume 5401.566425
_symmetry_space_group_name_H-M "I M M M"
_symmetry_group_IT_number 71
_symmetry_cell_setting 'orthorhombic'
loop_
_space_group_symop_operation_xyz
x,y,z
-x,-y,z
x,-y,-z
-x,y,-z
-x,-y,-z
x,y,-z
-x,y,z
x,-y,z
1/2+x,1/2+y,1/2+z
1/2-x,1/2-y,1/2+z
1/2+x,1/2-y,1/2-z
1/2-x,1/2+y,1/2-z
1/2-x,1/2-y,1/2-z
1/2+x,1/2+y,1/2-z
1/2-x,1/2+y,1/2+z
1/2+x,1/2-y,1/2+z
loop_
_atom_site_type_symbol
_atom_site_label
_atom_site_fract_x
_atom_site_fract_y
_atom_site_fract_z
Si Si1 0.868542 0.347703 0.817358
Si Si2 0.564006 0.751621 0.809757
Si Si3 0.315062 0.942611 0.811370
Si Si4 0.688936 0.556527 0.810503
Si Si5 0.141680 0.157756 0.309275
Si Si6 0.742886 0.194805 0.815384
O O1 0.906156 0.303195 0.744109
O O2 0.862248 0.403483 0.745487
O O3 0.805525 0.328944 0.788453
O O4 0.882534 0.351467 0.000000
O O5 0.500000 0.750521 0.754166
O O6 0.596120 0.699936 0.763286
O O7 0.564231 0.752166 0.000000
O O8 0.251373 0.931077 0.754094
O O9 0.326631 0.000000 0.760858
O O10 0.313542 0.940257 0.000000
O O11 0.675449 0.500000 0.755780
O O12 0.640749 0.597823 0.776916
O O13 0.694900 0.555867 0.000000
O O14 0.149376 0.163350 0.500000
O O15 0.197465 0.171141 0.215621
O O16 0.750000 0.250000 0.750000
O O17 0.727200 0.193140 0.000000
#
# Coordination Sequence:
#
# PCOD9519503 Si02
#       6
#    16  16  16  16  16  16
#     4  12  23  35  54  79 110 145 178 220 270 324
#     4  10  22  39  57  76 102 140 185 232 278 325
#     4  10  20  33  51  78 112 146 179 215 258 317
#     4   9  17  29  47  74 109 145 179 215 259 315
#     4  10  19  32  52  76 106 143 180 219 267 323
#     4  12  22  32  49  77 110 142 175 215 268 327
#
# _framework density 17.772621999999998
#
# number of rings (size 3 to 8) (size 9 to 14) (size 15 to 20)
#    0.000    1.500    3.333    3.500    0.000    1.333 
#    0.000    0.000    0.000    1.000    0.000    7.000 
#    0.000    0.000    0.000    7.167    0.000    7.667 
#
# Total GULP energy -267295.809780 kJ/mol
# GULP energy per Si atom -5568.662704 kJ/mol
# Density = 1.773217 g / cm^3
# Si number density = 17.772622 Si / 1000 Ang^3
#
#
#
# Elastic Constant Matrix: (Units=GPa)
#
#
# Indices 1 2 3 4 5 6 
#
# 1 83.0376 61.6335 10.1954 0.0000 0.0000 0.0000
# 2 61.6335 167.2270 20.5511 0.0000 0.0000 0.0000
# 3 10.1954 20.5511 19.6723 0.0000 0.0000 0.0000
# 4 0.0000 0.0000 0.0000 18.0118 0.0000 0.0000
# 5 0.0000 0.0000 0.0000 0.0000 15.7770 0.0000
# 6 0.0000 0.0000 0.0000 0.0000 0.0000 10.8020
#
#
#
# Elastic Compliance Matrix: (Units=1/GPa)
#
#
# Indices 1 2 3 4 5 6 
#
# 1 0.016689 -0.005837 -0.002551 0.000000 0.000000 0.000000
# 2 -0.005837 0.008902 -0.006275 0.000000 0.000000 0.000000
# 3 -0.002551 -0.006275 0.058710 0.000000 0.000000 0.000000
# 4 0.000000 0.000000 0.000000 0.055519 0.000000 0.000000
# 5 0.000000 0.000000 0.000000 0.000000 0.063383 0.000000
# 6 0.000000 0.000000 0.000000 0.000000 0.000000 0.092575
#
#
# Mechanical properties :
#
#
# Convention : Reuss Voigt Hill
#
# Bulk Modulus (GPa) = 18.19015 50.52189 34.35602
# Shear Modulus (GPa) = 14.55901 20.75530 17.65716
#
# Velocity S-wave (km/s) = 2.86524 3.42105 3.15541
# Velocity P-wave (km/s) = 4.60470 6.64028 5.71387
#
# Compressibility (1/GPa) = 0.05497481
#
# Stress axis : x y z
#
# Youngs Moduli (GPa) = 59.92117 112.32877 17.03284
#
# Poissons Ratio (x) = 0.65569 0.04345
# Poissons Ratio (y) = 0.34978 0.10688
# Poissons Ratio (z) = 0.15286 0.70485
#
# Static dielectric constant tensor:
#      x y z
#    x 1.587080 0.000000 0.000000 
#    y 0.000000 1.727610 0.000000 
#    z 0.000000 0.000000 2.093190 
# 
# From -- ./inp_files/10934.got.cif
#   From: 2010.05.17/outbox.cif.g08.bks.cpg/sg71_6_cif.got.tgz:10934.got - 2010.06.03 16:22:01.
