data_PCOD9519606
_publ_section_title
;
Structure prediction by ZEFSAII (Michael W. Deem and Ramdas Pophale) SiO2 
 PCOD9519606
Probable space group: I M M M
;
_chemical_formula_sum "Si O2"
_cell_formula_units_Z 104
_cell_length_a 21.086879
_cell_length_b 29.496175
_cell_length_c 8.821719
_cell_angle_alpha 90.000000
_cell_angle_beta 90.000000
_cell_angle_gamma 90.000000
_cell_volume 5486.952837
_symmetry_space_group_name_H-M "I M M M"
_symmetry_group_IT_number 71
_symmetry_cell_setting 'orthorhombic'
loop_
_space_group_symop_operation_xyz
x,y,z
-x,-y,z
x,-y,-z
-x,y,-z
-x,-y,-z
x,y,-z
-x,y,z
x,-y,z
1/2+x,1/2+y,1/2+z
1/2-x,1/2-y,1/2+z
1/2+x,1/2-y,1/2-z
1/2-x,1/2+y,1/2-z
1/2-x,1/2-y,1/2-z
1/2+x,1/2+y,1/2-z
1/2-x,1/2+y,1/2+z
1/2+x,1/2-y,1/2+z
loop_
_atom_site_type_symbol
_atom_site_label
_atom_site_fract_x
_atom_site_fract_y
_atom_site_fract_z
Si Si1 0.623943 0.890558 0.682802
Si Si2 0.322650 0.296843 0.681076
Si Si3 0.748876 0.053395 0.676791
Si Si4 0.570229 0.359220 0.820206
Si Si5 0.384166 0.447631 0.320771
Si Si6 0.176990 0.697994 0.318620
Si Si7 0.500000 0.947306 0.315043
O O1 0.621566 0.886964 0.500000
O O2 0.687888 0.917938 0.722559
O O3 0.631987 0.840819 0.752330
O O4 0.562631 0.919435 0.731657
O O5 0.324208 0.292929 0.500000
O O6 0.374432 0.332141 0.737365
O O7 0.250870 0.311325 0.724707
O O8 0.336321 0.247874 0.753931
O O9 0.764416 0.063717 0.500000
O O10 0.810602 0.061110 0.778107
O O11 0.732978 0.000000 0.684308
O O12 0.500000 0.342139 0.779250
O O13 0.575910 0.411417 0.771359
O O14 0.578411 0.355033 0.000000
O O15 0.393810 0.441687 0.500000
O O16 0.397743 0.500000 0.281537
O O17 0.172677 0.698562 0.500000
O O18 0.500000 0.948465 0.500000
O O19 0.500000 0.000000 0.265036
#
# Coordination Sequence:
#
# PCOD9519606 Si02
#       7
#    16  16  16  16  16  16   8
#     4  10  19  32  53  81 110 146 191 236 284 338
#     4  10  21  39  63  88 112 143 184 230 280 336
#     4   9  17  30  51  79 109 142 183 233 286 335
#     4  11  24  40  58  82 113 149 185 222 272 330
#     4  10  21  36  55  81 112 146 186 231 275 322
#     4  10  21  37  59  86 115 144 180 230 286 338
#     4   9  18  34  55  79 111 151 197 245 286 333
#
# _framework density 18.954053999999999
#
# number of rings (size 3 to 8) (size 9 to 14) (size 15 to 20)
#    0.000    2.077    0.000    3.231    0.000    9.231 
#    1.385    1.923    0.000    1.846    0.000    0.000 
#    0.000    0.000    0.000    0.000    0.000    0.000 
#
# Total GULP energy -290434.711157 kJ/mol
# GULP energy per Si atom -5585.282907 kJ/mol
# Density = 1.891091 g / cm^3
# Si number density = 18.954054 Si / 1000 Ang^3
#
#
#
# Elastic Constant Matrix: (Units=GPa)
#
#
# Indices 1 2 3 4 5 6 
#
# 1 57.5880 56.5722 14.8879 0.0000 0.0000 0.0000
# 2 56.5722 99.1068 22.0914 0.0000 0.0000 0.0000
# 3 14.8879 22.0914 17.6824 0.0000 0.0000 0.0000
# 4 0.0000 0.0000 0.0000 30.3563 0.0000 0.0000
# 5 0.0000 0.0000 0.0000 0.0000 16.3058 0.0000
# 6 0.0000 0.0000 0.0000 0.0000 0.0000 25.5786
#
#
#
# Elastic Compliance Matrix: (Units=1/GPa)
#
#
# Indices 1 2 3 4 5 6 
#
# 1 0.040179 -0.021336 -0.007173 0.000000 0.000000 0.000000
# 2 -0.021336 0.025315 -0.013663 0.000000 0.000000 0.000000
# 3 -0.007173 -0.013663 0.079662 0.000000 0.000000 0.000000
# 4 0.000000 0.000000 0.000000 0.032942 0.000000 0.000000
# 5 0.000000 0.000000 0.000000 0.000000 0.061328 0.000000
# 6 0.000000 0.000000 0.000000 0.000000 0.000000 0.039095
#
#
# Mechanical properties :
#
#
# Convention : Reuss Voigt Hill
#
# Bulk Modulus (GPa) = 16.44398 40.16447 28.30422
# Shear Modulus (GPa) = 13.05024 19.83651 16.44337
#
# Velocity S-wave (km/s) = 2.62681 3.23856 2.94860
# Velocity P-wave (km/s) = 4.23022 5.93471 5.15342
#
# Compressibility (1/GPa) = 0.06081254
#
# Stress axis : x y z
#
# Youngs Moduli (GPa) = 24.88882 39.50283 12.55299
#
# Poissons Ratio (x) = 0.84283 0.09004
# Poissons Ratio (y) = 0.53103 0.17151
# Poissons Ratio (z) = 0.17852 0.53972
#
# Static dielectric constant tensor:
#      x y z
#    x 1.655850 0.000000 0.000000 
#    y 0.000000 1.644830 0.000000 
#    z 0.000000 0.000000 1.636190 
# 
# From -- ./inp_files/11056.got.cif
#   From: 2010.05.17/outbox.cif.g08.bks.cpg/sg71_6_cif.got.tgz:11056.got - 2010.06.03 16:22:01.
