data_PCOD9519572
_publ_section_title
;
Structure prediction by ZEFSAII (Michael W. Deem and Ramdas Pophale) SiO2 
 PCOD9519572
Probable space group: I M M M
;
_chemical_formula_sum "Si O2"
_cell_formula_units_Z 56
_cell_length_a 24.228874
_cell_length_b 8.950738
_cell_length_c 13.131260
_cell_angle_alpha 90.000000
_cell_angle_beta 90.000000
_cell_angle_gamma 90.000000
_cell_volume 2847.727813
_symmetry_space_group_name_H-M "I M M M"
_symmetry_group_IT_number 71
_symmetry_cell_setting 'orthorhombic'
loop_
_space_group_symop_operation_xyz
x,y,z
-x,-y,z
x,-y,-z
-x,y,-z
-x,-y,-z
x,y,-z
-x,y,z
x,-y,z
1/2+x,1/2+y,1/2+z
1/2-x,1/2-y,1/2+z
1/2+x,1/2-y,1/2-z
1/2-x,1/2+y,1/2-z
1/2-x,1/2-y,1/2-z
1/2+x,1/2+y,1/2-z
1/2-x,1/2+y,1/2+z
1/2+x,1/2-y,1/2+z
loop_
_atom_site_type_symbol
_atom_site_label
_atom_site_fract_x
_atom_site_fract_y
_atom_site_fract_z
Si Si1 0.170143 0.321922 0.326532
Si Si2 0.439242 0.676283 0.204720
Si Si3 0.500000 0.179580 0.619076
Si Si4 0.782657 0.678574 0.109400
O O1 0.168221 0.500000 0.337170
O O2 0.111612 0.250225 0.352616
O O3 0.182201 0.280342 0.208098
O O4 0.223234 0.256824 0.383234
O O5 0.500000 0.697090 0.155185
O O6 0.430038 0.500000 0.217081
O O7 0.448929 0.753900 0.315516
O O8 0.500000 0.220368 0.500000
O O9 0.500000 0.000000 0.626460
O O10 0.774123 0.500000 0.115031
O O11 0.808611 0.713850 0.000000
#
# Coordination Sequence:
#
# PCOD9519572 Si02
#       4
#    16  16   8  16
#     4  10  19  32  53  78 104 134 172 215 260 305
#     4   9  19  32  48  70  99 136 171 204 249 304
#     4   9  17  29  45  67  96 129 166 207 249 295
#     4   9  19  35  53  74 102 136 173 212 258 311
#
# _framework density 19.664801000000001
#
# number of rings (size 3 to 8) (size 9 to 14) (size 15 to 20)
#    0.857    1.857    0.000    1.714    0.000    4.000 
#    0.000    2.857    0.000    0.857    0.000    6.000 
#    0.000    0.000    0.000    0.000    0.000    0.000 
#
# Total GULP energy -155935.309499 kJ/mol
# GULP energy per Si atom -5569.118196 kJ/mol
# Density = 1.962004 g / cm^3
# Si number density = 19.664801 Si / 1000 Ang^3
#
#
#
# Elastic Constant Matrix: (Units=GPa)
#
#
# Indices 1 2 3 4 5 6 
#
# 1 75.5686 17.5982 -12.3655 0.0000 0.0000 0.0000
# 2 17.5982 25.3126 0.8675 0.0000 0.0000 0.0000
# 3 -12.3655 0.8675 32.4677 0.0000 0.0000 0.0000
# 4 0.0000 0.0000 0.0000 15.4509 0.0000 0.0000
# 5 0.0000 0.0000 0.0000 0.0000 5.2046 0.0000
# 6 0.0000 0.0000 0.0000 0.0000 0.0000 24.0460
#
#
#
# Elastic Compliance Matrix: (Units=1/GPa)
#
#
# Indices 1 2 3 4 5 6 
#
# 1 0.017197 -0.012192 0.006875 0.000000 0.000000 0.000000
# 2 -0.012192 0.048185 -0.005931 0.000000 0.000000 0.000000
# 3 0.006875 -0.005931 0.033577 0.000000 0.000000 0.000000
# 4 0.000000 0.000000 0.000000 0.064721 0.000000 0.000000
# 5 0.000000 0.000000 0.000000 0.000000 0.192138 0.000000
# 6 0.000000 0.000000 0.000000 0.000000 0.000000 0.041587
#
#
# Mechanical properties :
#
#
# Convention : Reuss Voigt Hill
#
# Bulk Modulus (GPa) = 13.07782 16.17213 14.62497
# Shear Modulus (GPa) = 11.22617 17.42356 14.32487
#
# Velocity S-wave (km/s) = 2.39189 2.97985 2.70191
# Velocity P-wave (km/s) = 3.78061 4.48119 4.14573
#
# Compressibility (1/GPa) = 0.07646537
#
# Stress axis : x y z
#
# Youngs Moduli (GPa) = 58.14882 20.75314 29.78244
#
# Poissons Ratio (x) = 0.25302 -0.20477
# Poissons Ratio (y) = 0.70894 0.17663
# Poissons Ratio (z) = -0.39980 0.12308
#
# Static dielectric constant tensor:
#      x y z
#    x 1.698380 0.000000 0.000000 
#    y 0.000000 1.646890 0.000000 
#    z 0.000000 0.000000 1.733410 
# 
# From -- ./inp_files/9457.got.cif
#   From: 2010.05.17/outbox.cif.g08.bks.cpg/sg71_5_cif.got.tgz:9457.got - 2010.06.03 16:22:01.
