data_PCOD9519802
_publ_section_title
;
Structure prediction by ZEFSAII (Michael W. Deem and Ramdas Pophale) SiO2 
 PCOD9519802
Probable space group: I M M M
;
_chemical_formula_sum "Si O2"
_cell_formula_units_Z 128
_cell_length_a 23.355824
_cell_length_b 22.889150
_cell_length_c 13.013473
_cell_angle_alpha 90.000000
_cell_angle_beta 90.000000
_cell_angle_gamma 90.000000
_cell_volume 6956.937064
_symmetry_space_group_name_H-M "I M M M"
_symmetry_group_IT_number 71
_symmetry_cell_setting 'orthorhombic'
loop_
_space_group_symop_operation_xyz
x,y,z
-x,-y,z
x,-y,-z
-x,y,-z
-x,-y,-z
x,y,-z
-x,y,z
x,-y,z
1/2+x,1/2+y,1/2+z
1/2-x,1/2-y,1/2+z
1/2+x,1/2-y,1/2-z
1/2-x,1/2+y,1/2-z
1/2-x,1/2-y,1/2-z
1/2+x,1/2+y,1/2-z
1/2-x,1/2+y,1/2+z
1/2+x,1/2-y,1/2+z
loop_
_atom_site_type_symbol
_atom_site_label
_atom_site_fract_x
_atom_site_fract_y
_atom_site_fract_z
Si Si1 0.815667 0.180059 0.189223
Si Si2 0.434989 0.673856 0.257029
Si Si3 0.936131 0.570105 0.881471
Si Si4 0.345196 0.134375 0.243987
Si Si5 0.064636 0.711875 0.378654
Si Si6 0.748393 0.567623 0.376818
Si Si7 0.569463 0.566223 0.115967
Si Si8 0.754553 0.293057 0.880364
O O1 0.882661 0.190184 0.168577
O O2 0.798651 0.114257 0.161035
O O3 0.774520 0.225551 0.129737
O O4 0.800675 0.194313 0.308982
O O5 0.500000 0.668505 0.298761
O O6 0.436713 0.724129 0.171221
O O7 0.416631 0.613948 0.200914
O O8 0.934465 0.500000 0.877701
O O9 0.887910 0.596677 0.811855
O O10 0.000000 0.588890 0.849738
O O11 0.928031 0.587642 0.000000
O O12 0.384956 0.176071 0.175280
O O13 0.306116 0.092727 0.174126
O O14 0.304049 0.170727 0.320783
O O15 0.074285 0.715071 0.500000
O O16 0.000000 0.686918 0.361979
O O17 0.751939 0.570119 0.500000
O O18 0.738257 0.500000 0.347096
O O19 0.500000 0.565559 0.112537
O O20 0.588493 0.500000 0.139071
O O21 0.589035 0.581403 0.000000
O O22 0.747842 0.308238 0.000000
#
# Coordination Sequence:
#
# PCOD9519802 Si02
#       8
#    16  16  16  16  16  16  16  16
#     4  10  21  38  56  82 106 144 180 227 276 329
#     4  10  19  33  52  78 111 141 178 221 272 331
#     4   9  18  32  51  77 110 150 189 223 268 328
#     4  11  19  34  55  81 110 142 187 234 277 328
#     4  10  20  32  49  77 115 154 187 226 277 334
#     4  10  22  39  60  82 106 141 187 239 287 331
#     4   8  14  25  42  66  97 134 173 209 251 309
#     4  10  21  36  55  80 107 141 184 227 277 326
#
# _framework density 18.398902
#
# number of rings (size 3 to 8) (size 9 to 14) (size 15 to 20)
#    0.000    2.250    1.250    3.000    0.000    3.000 
#    0.000    0.000    0.000    5.625    0.000    6.125 
#    0.000    0.000    0.000    0.000    0.000    0.000 
#
# Total GULP energy -356883.253726 kJ/mol
# GULP energy per Si atom -5576.300839 kJ/mol
# Density = 1.835702 g / cm^3
# Si number density = 18.398902 Si / 1000 Ang^3
#
#
#
# Elastic Constant Matrix: (Units=GPa)
#
#
# Indices 1 2 3 4 5 6 
#
# 1 102.5638 22.7958 25.7320 0.0000 0.0000 0.0000
# 2 22.7958 80.9814 22.4968 0.0000 0.0000 0.0000
# 3 25.7320 22.4968 54.3848 0.0000 0.0000 0.0000
# 4 0.0000 0.0000 0.0000 9.3528 0.0000 0.0000
# 5 0.0000 0.0000 0.0000 0.0000 15.9800 0.0000
# 6 0.0000 0.0000 0.0000 0.0000 0.0000 28.8910
#
#
#
# Elastic Compliance Matrix: (Units=1/GPa)
#
#
# Indices 1 2 3 4 5 6 
#
# 1 0.011321 -0.001919 -0.004563 0.000000 0.000000 0.000000
# 2 -0.001919 0.014277 -0.004998 0.000000 0.000000 0.000000
# 3 -0.004563 -0.004998 0.022614 0.000000 0.000000 0.000000
# 4 0.000000 0.000000 0.000000 0.106920 0.000000 0.000000
# 5 0.000000 0.000000 0.000000 0.000000 0.062578 0.000000
# 6 0.000000 0.000000 0.000000 0.000000 0.000000 0.034613
#
#
# Mechanical properties :
#
#
# Convention : Reuss Voigt Hill
#
# Bulk Modulus (GPa) = 39.59988 42.21990 40.90989
# Shear Modulus (GPa) = 17.62422 21.97178 19.79800
#
# Velocity S-wave (km/s) = 3.09835 3.45945 3.28387
# Velocity P-wave (km/s) = 5.86254 6.24130 6.05488
#
# Compressibility (1/GPa) = 0.02525260
#
# Stress axis : x y z
#
# Youngs Moduli (GPa) = 88.32863 70.04178 44.22098
#
# Poissons Ratio (x) = 0.13444 0.20177
# Poissons Ratio (y) = 0.16954 0.22101
# Poissons Ratio (z) = 0.40302 0.35005
#
# Static dielectric constant tensor:
#      x y z
#    x 1.652220 0.000000 0.000000 
#    y 0.000000 1.640480 0.000000 
#    z 0.000000 0.000000 1.611860 
# 
# From -- ./inp_files/27866.got.cif
#   From: 2010.05.17/outbox.cif.g08.bks.cpg/sg71_14_cif.got.tgz:27866.got - 2010.06.03 16:22:01.
