data_PCOD9519746
_publ_section_title
;
Structure prediction by ZEFSAII (Michael W. Deem and Ramdas Pophale) SiO2 
 PCOD9519746
Probable space group: I M M M
;
_chemical_formula_sum "Si O2"
_cell_formula_units_Z 116
_cell_length_a 28.577905
_cell_length_b 7.705294
_cell_length_c 27.633260
_cell_angle_alpha 90.000000
_cell_angle_beta 90.000000
_cell_angle_gamma 90.000000
_cell_volume 6084.875905
_symmetry_space_group_name_H-M "I M M M"
_symmetry_group_IT_number 71
_symmetry_cell_setting 'orthorhombic'
loop_
_space_group_symop_operation_xyz
x,y,z
-x,-y,z
x,-y,-z
-x,y,-z
-x,-y,-z
x,y,-z
-x,y,z
x,-y,z
1/2+x,1/2+y,1/2+z
1/2-x,1/2-y,1/2+z
1/2+x,1/2-y,1/2-z
1/2-x,1/2+y,1/2-z
1/2-x,1/2-y,1/2-z
1/2+x,1/2+y,1/2-z
1/2-x,1/2+y,1/2+z
1/2+x,1/2-y,1/2+z
loop_
_atom_site_type_symbol
_atom_site_label
_atom_site_fract_x
_atom_site_fract_y
_atom_site_fract_z
Si Si1 0.052739 0.711986 0.444027
Si Si2 0.623961 0.201737 0.863970
Si Si3 0.445135 0.801802 0.569742
Si Si4 0.051931 0.790100 0.281159
Si Si5 0.285044 0.297312 0.812204
Si Si6 0.585701 0.289531 0.324976
Si Si7 0.814334 0.202359 0.792836
Si Si8 0.913389 0.000000 0.000000
O O1 0.060347 0.760713 0.500000
O O2 0.052760 0.500000 0.442106
O O3 0.092891 0.775507 0.407919
O O4 0.000000 0.767421 0.429870
O O5 0.591502 0.220636 0.816611
O O6 0.674437 0.278681 0.851520
O O7 0.631920 0.000000 0.873979
O O8 0.500000 0.769545 0.558812
O O9 0.437225 0.784382 0.627092
O O10 0.416841 0.653930 0.541874
O O11 0.434002 0.000000 0.555874
O O12 0.061165 0.741488 0.225556
O O13 0.000000 0.734034 0.296295
O O14 0.054236 0.000000 0.283577
O O15 0.275738 0.500000 0.804841
O O16 0.234277 0.216815 0.821524
O O17 0.304347 0.223021 0.760884
O O18 0.583423 0.500000 0.328917
O O19 0.639687 0.229489 0.319100
O O20 0.825125 0.000000 0.784439
#
# Coordination Sequence:
#
# PCOD9519746 Si02
#       8
#    16  16  16  16  16  16  16   4
#     4   8  15  29  48  71 100 134 175 225 275 316
#     4  11  20  30  49  76 104 136 179 225 268 319
#     4  11  23  37  58  87 114 146 191 238 283 336
#     4  10  20  33  49  71 107 150 180 206 257 330
#     4  10  19  33  51  73 104 138 175 218 269 323
#     4  10  19  35  55  77 109 147 180 217 274 336
#     4   9  18  33  53  76 104 137 178 219 262 324
#     4  12  23  42  64  82 114 152 190 242 290 328
#
# _framework density 19.063659999999999
#
# number of rings (size 3 to 8) (size 9 to 14) (size 15 to 20)
#    0.000    2.069    2.069    2.897    0.000    3.586 
#    0.000    0.000    0.000    1.655    1.793    4.828 
#    0.000    0.000    0.000    0.000    0.000    0.000 
#
# Total GULP energy -323169.599358 kJ/mol
# GULP energy per Si atom -5571.889644 kJ/mol
# Density = 1.902027 g / cm^3
# Si number density = 19.063660 Si / 1000 Ang^3
#
#
#
# Elastic Constant Matrix: (Units=GPa)
#
#
# Indices 1 2 3 4 5 6 
#
# 1 78.1187 -3.7931 11.7560 0.0000 0.0000 0.0000
# 2 -3.7931 52.1107 0.4940 0.0000 0.0000 0.0000
# 3 11.7560 0.4940 70.1376 0.0000 0.0000 0.0000
# 4 0.0000 0.0000 0.0000 15.2513 0.0000 0.0000
# 5 0.0000 0.0000 0.0000 0.0000 12.7026 0.0000
# 6 0.0000 0.0000 0.0000 0.0000 0.0000 17.2521
#
#
#
# Elastic Compliance Matrix: (Units=1/GPa)
#
#
# Indices 1 2 3 4 5 6 
#
# 1 0.013182 0.000981 -0.002216 0.000000 0.000000 0.000000
# 2 0.000981 0.019264 -0.000300 0.000000 0.000000 0.000000
# 3 -0.002216 -0.000300 0.014631 0.000000 0.000000 0.000000
# 4 0.000000 0.000000 0.000000 0.065568 0.000000 0.000000
# 5 0.000000 0.000000 0.000000 0.000000 0.078724 0.000000
# 6 0.000000 0.000000 0.000000 0.000000 0.000000 0.057964
#
#
# Mechanical properties :
#
#
# Convention : Reuss Voigt Hill
#
# Bulk Modulus (GPa) = 22.72426 24.14230 23.43328
# Shear Modulus (GPa) = 18.72138 21.83520 20.27829
#
# Velocity S-wave (km/s) = 3.13716 3.38802 3.26500
# Velocity P-wave (km/s) = 5.00684 5.29117 5.15097
#
# Compressibility (1/GPa) = 0.04400582
#
# Stress axis : x y z
#
# Youngs Moduli (GPa) = 75.85991 51.90989 68.34661
#
# Poissons Ratio (x) = -0.05090 0.15148
# Poissons Ratio (y) = -0.07438 0.02051
# Poissons Ratio (z) = 0.16814 0.01557
#
# Static dielectric constant tensor:
#      x y z
#    x 1.670690 0.000000 0.000000 
#    y 0.000000 1.715360 0.000000 
#    z 0.000000 0.000000 1.662280 
# 
# From -- ./inp_files/62381.got.cif
#   From: 2010.05.17/outbox.cif.g08.bks.cpg/sg71_32_cif.got.tgz:62381.got - 2010.06.03 16:22:01.
