data_PCOD9519455
_publ_section_title
;
Structure prediction by ZEFSAII (Michael W. Deem and Ramdas Pophale) SiO2 
 PCOD9519455
Probable space group: I M M M
;
_chemical_formula_sum "Si O2"
_cell_formula_units_Z 112
_cell_length_a 13.326946
_cell_length_b 13.069770
_cell_length_c 28.783309
_cell_angle_alpha 90.000000
_cell_angle_beta 90.000000
_cell_angle_gamma 90.000000
_cell_volume 5013.480187
_symmetry_space_group_name_H-M "I M M M"
_symmetry_group_IT_number 71
_symmetry_cell_setting 'orthorhombic'
loop_
_space_group_symop_operation_xyz
x,y,z
-x,-y,z
x,-y,-z
-x,y,-z
-x,-y,-z
x,y,-z
-x,y,z
x,-y,z
1/2+x,1/2+y,1/2+z
1/2-x,1/2-y,1/2+z
1/2+x,1/2-y,1/2-z
1/2-x,1/2+y,1/2-z
1/2-x,1/2-y,1/2-z
1/2+x,1/2+y,1/2-z
1/2-x,1/2+y,1/2+z
1/2+x,1/2-y,1/2+z
loop_
_atom_site_type_symbol
_atom_site_label
_atom_site_fract_x
_atom_site_fract_y
_atom_site_fract_z
Si Si1 0.828639 0.887849 0.745346
Si Si2 0.180478 0.831232 0.153542
Si Si3 0.393596 0.774043 0.171721
Si Si4 0.618187 0.881317 0.696471
Si Si5 0.107958 0.116629 0.586719
Si Si6 0.386711 0.338574 0.553134
Si Si7 0.331637 0.889449 0.446191
O O1 0.861046 0.879610 0.798950
O O2 0.878527 0.798176 0.716141
O O3 0.707853 0.876230 0.735121
O O4 0.856301 0.000000 0.727467
O O5 0.298756 0.842670 0.161721
O O6 0.151018 0.709629 0.160945
O O7 0.157055 0.874843 0.102698
O O8 0.500000 0.828247 0.174177
O O9 0.392651 0.694994 0.128743
O O10 0.500000 0.865155 0.709059
O O11 0.624121 0.000000 0.679984
O O12 0.212131 0.129595 0.559921
O O13 0.000000 0.128504 0.561373
O O14 0.110629 0.000000 0.604211
O O15 0.343511 0.354558 0.500000
O O16 0.500000 0.375729 0.550722
O O17 0.385775 0.216632 0.563257
O O18 0.352045 0.902032 0.500000
O O19 0.357011 0.000000 0.423850
#
# Coordination Sequence:
#
# PCOD9519455 Si02
#       7
#    16  16  16  16  16  16  16
#     4  10  22  36  52  77 107 140 176 215 259 308
#     4  11  21  35  55  77 104 137 177 219 259 310
#     4  10  19  32  51  76 105 137 169 203 248 304
#     4   9  18  33  54  82 114 144 173 207 249 302
#     4   9  16  26  42  65  96 134 168 196 232 284
#     4  10  21  36  52  70  95 129 169 216 270 315
#     4   9  17  29  45  66  94 128 167 208 246 293
#
# _framework density 22.339770999999999
#
# number of rings (size 3 to 8) (size 9 to 14) (size 15 to 20)
#    0.000    2.286    1.429    2.571    0.000    5.429 
#    0.000    2.857    0.000    0.857    0.000    1.000 
#    0.000    0.000    0.000    4.857    0.000    0.000 
#
# Total GULP energy -311770.195694 kJ/mol
# GULP energy per Si atom -5567.324923 kJ/mol
# Density = 2.228892 g / cm^3
# Si number density = 22.339771 Si / 1000 Ang^3
#
#
#
# Elastic Constant Matrix: (Units=GPa)
#
#
# Indices 1 2 3 4 5 6 
#
# 1 76.9370 1.2021 5.9997 0.0000 0.0000 0.0000
# 2 1.2021 51.1018 0.4249 0.0000 0.0000 0.0000
# 3 5.9997 0.4249 136.7031 0.0000 0.0000 0.0000
# 4 0.0000 0.0000 0.0000 -105.6312 0.0000 0.0000
# 5 0.0000 0.0000 0.0000 0.0000 1379.2461 0.0000
# 6 0.0000 0.0000 0.0000 0.0000 0.0000 115.8318
#
#
#
# Elastic Compliance Matrix: (Units=1/GPa)
#
#
# Indices 1 2 3 4 5 6 
#
# 1 0.013047 -0.000302 -0.000572 0.000000 0.000000 0.000000
# 2 -0.000302 0.019576 -0.000048 0.000000 0.000000 0.000000
# 3 -0.000572 -0.000048 0.007340 0.000000 0.000000 0.000000
# 4 0.000000 0.000000 0.000000 -0.009467 0.000000 0.000000
# 5 0.000000 0.000000 0.000000 0.000000 0.000725 0.000000
# 6 0.000000 0.000000 0.000000 0.000000 0.000000 0.008633
#
#
# Mechanical properties :
#
#
# Convention : Reuss Voigt Hill
#
# Bulk Modulus (GPa) = 26.23243 31.11058 28.67151
# Shear Modulus (GPa) = 91.90383 295.03034 193.46708
#
# Velocity S-wave (km/s) = 6.42094 11.50442 9.31612
# Velocity P-wave (km/s) = 8.16941 13.79947 11.33941
#
# Compressibility (1/GPa) = 0.03812076
#
# Stress axis : x y z
#
# Youngs Moduli (GPa) = 76.64624 51.08223 136.23306
#
# Poissons Ratio (x) = 0.01544 0.07788
# Poissons Ratio (y) = 0.02316 0.00648
# Poissons Ratio (z) = 0.04382 0.00243
#
# Static dielectric constant tensor:
#      x y z
#    x 1.900590 0.000000 0.000000 
#    y 0.000000 1.799030 0.000000 
#    z 0.000000 0.000000 1.857500 
# 
# From -- ./inp_files/65526.got.cif
#   From: 2010.05.17/outbox.cif.g08.bks.cpg/sg71_33_cif.got.tgz:65526.got - 2010.06.03 16:22:01.
