data_PCOD9519767
_publ_section_title
;
Structure prediction by ZEFSAII (Michael W. Deem and Ramdas Pophale) SiO2 
 PCOD9519767
Probable space group: I M M M
;
_chemical_formula_sum "Si O2"
_cell_formula_units_Z 128
_cell_length_a 18.076978
_cell_length_b 20.658526
_cell_length_c 20.349964
_cell_angle_alpha 90.000000
_cell_angle_beta 90.000000
_cell_angle_gamma 90.000000
_cell_volume 7599.566258
_symmetry_space_group_name_H-M "I M M M"
_symmetry_group_IT_number 71
_symmetry_cell_setting 'orthorhombic'
loop_
_space_group_symop_operation_xyz
x,y,z
-x,-y,z
x,-y,-z
-x,y,-z
-x,-y,-z
x,y,-z
-x,y,z
x,-y,z
1/2+x,1/2+y,1/2+z
1/2-x,1/2-y,1/2+z
1/2+x,1/2-y,1/2-z
1/2-x,1/2+y,1/2-z
1/2-x,1/2-y,1/2-z
1/2+x,1/2+y,1/2-z
1/2-x,1/2+y,1/2+z
1/2+x,1/2-y,1/2+z
loop_
_atom_site_type_symbol
_atom_site_label
_atom_site_fract_x
_atom_site_fract_y
_atom_site_fract_z
Si Si1 0.672220 0.688124 0.233342
Si Si2 0.778354 0.741708 0.138292
Si Si3 0.319227 0.158208 0.074019
Si Si4 0.910946 0.427215 0.809345
Si Si5 0.912098 0.923835 0.203683
Si Si6 0.411467 0.178314 0.798789
Si Si7 0.913726 0.330866 0.921934
Si Si8 0.826435 0.077442 0.072695
O O1 0.732728 0.685582 0.175539
O O2 0.710552 0.706587 0.302659
O O3 0.626686 0.623229 0.244395
O O4 0.621257 0.750895 0.218030
O O5 0.726649 0.775328 0.084605
O O6 0.855673 0.719948 0.107994
O O7 0.380094 0.157064 0.130667
O O8 0.256059 0.103939 0.083689
O O9 0.348262 0.153500 0.000000
O O10 0.881177 0.500000 0.801347
O O11 0.886109 0.374380 0.755494
O O12 0.898768 0.396653 0.881270
O O13 0.000000 0.430989 0.801416
O O14 0.880651 0.904541 0.131819
O O15 0.000000 0.915698 0.205057
O O16 0.895297 0.000000 0.214032
O O17 0.500000 0.181287 0.798251
O O18 0.000000 0.313040 0.909172
O O19 0.904168 0.337565 0.000000
O O20 0.824846 0.000000 0.071124
O O21 0.850201 0.101084 0.000000
#
# Coordination Sequence:
#
# PCOD9519767 Si02
#       8
#    16  16  16  16  16  16  16  16
#     4  10  19  33  54  74 102 135 173 216 260 312
#     4  10  19  33  52  73 101 135 174 210 256 310
#     4  10  20  34  51  73 101 134 172 215 261 307
#     4   9  18  32  49  71 100 132 167 208 254 304
#     4  10  20  33  52  78 105 133 168 218 268 307
#     4  10  20  34  54  76  99 134 174 217 267 311
#     4  10  20  33  51  76 106 138 172 212 259 309
#     4   9  18  32  47  65  96 138 176 206 248 310
#
# _framework density 16.843067000000001
#
# number of rings (size 3 to 8) (size 9 to 14) (size 15 to 20)
#    0.000    2.250    2.500    0.750    0.000    1.750 
#    0.000    4.375    0.000    0.000    0.000    3.500 
#    0.000    4.500    0.000   40.125    0.000    0.125 
#
# Total GULP energy -356668.319583 kJ/mol
# GULP energy per Si atom -5572.942493 kJ/mol
# Density = 1.680473 g / cm^3
# Si number density = 16.843067 Si / 1000 Ang^3
#
#
#
# Elastic Constant Matrix: (Units=GPa)
#
#
# Indices 1 2 3 4 5 6 
#
# 1 64.4437 26.2350 34.8510 0.0000 0.0000 0.0000
# 2 26.2350 44.8021 23.2315 0.0000 0.0000 0.0000
# 3 34.8510 23.2315 87.2442 0.0000 0.0000 0.0000
# 4 0.0000 0.0000 0.0000 15.8272 0.0000 0.0000
# 5 0.0000 0.0000 0.0000 0.0000 27.0323 0.0000
# 6 0.0000 0.0000 0.0000 0.0000 0.0000 24.1445
#
#
#
# Elastic Compliance Matrix: (Units=1/GPa)
#
#
# Indices 1 2 3 4 5 6 
#
# 1 0.023214 -0.010192 -0.006559 0.000000 0.000000 0.000000
# 2 -0.010192 0.030371 -0.004016 0.000000 0.000000 0.000000
# 3 -0.006559 -0.004016 0.015152 0.000000 0.000000 0.000000
# 4 0.000000 0.000000 0.000000 0.063182 0.000000 0.000000
# 5 0.000000 0.000000 0.000000 0.000000 0.036993 0.000000
# 6 0.000000 0.000000 0.000000 0.000000 0.000000 0.041417
#
#
# Mechanical properties :
#
#
# Convention : Reuss Voigt Hill
#
# Bulk Modulus (GPa) = 36.76193 40.56946 38.66570
# Shear Modulus (GPa) = 19.16218 20.87897 20.02057
#
# Velocity S-wave (km/s) = 3.37662 3.52464 3.45143
# Velocity P-wave (km/s) = 6.08898 6.37990 6.23614
#
# Compressibility (1/GPa) = 0.02720206
#
# Stress axis : x y z
#
# Youngs Moduli (GPa) = 43.07773 32.92607 65.99993
#
# Poissons Ratio (x) = 0.33559 0.43290
# Poissons Ratio (y) = 0.43906 0.26504
# Poissons Ratio (z) = 0.28255 0.13222
#
# Static dielectric constant tensor:
#      x y z
#    x 1.574920 0.000000 0.000000 
#    y 0.000000 1.584800 0.000000 
#    z 0.000000 0.000000 1.578700 
# 
# From -- ./inp_files/54491.got.cif
#   From: 2010.05.17/outbox.cif.g08.bks.cpg/sg71_28_cif.got.tgz:54491.got - 2010.06.03 16:22:01.
