data_PCOD9519962
_publ_section_title
;
Structure prediction by ZEFSAII (Michael W. Deem and Ramdas Pophale) SiO2 
 PCOD9519962
Probable space group: I M M M
;
_chemical_formula_sum "Si O2"
_cell_formula_units_Z 104
_cell_length_a 21.294249
_cell_length_b 28.777585
_cell_length_c 9.215077
_cell_angle_alpha 90.000000
_cell_angle_beta 90.000000
_cell_angle_gamma 90.000000
_cell_volume 5646.972099
_symmetry_space_group_name_H-M "I M M M"
_symmetry_group_IT_number 71
_symmetry_cell_setting 'orthorhombic'
loop_
_space_group_symop_operation_xyz
x,y,z
-x,-y,z
x,-y,-z
-x,y,-z
-x,-y,-z
x,y,-z
-x,y,z
x,-y,z
1/2+x,1/2+y,1/2+z
1/2-x,1/2-y,1/2+z
1/2+x,1/2-y,1/2-z
1/2-x,1/2+y,1/2-z
1/2-x,1/2-y,1/2-z
1/2+x,1/2+y,1/2-z
1/2-x,1/2+y,1/2+z
1/2+x,1/2-y,1/2+z
loop_
_atom_site_type_symbol
_atom_site_label
_atom_site_fract_x
_atom_site_fract_y
_atom_site_fract_z
Si Si1 0.300635 0.776871 0.158468
Si Si2 0.000000 0.238065 0.170904
Si Si3 0.608686 0.309518 0.161357
Si Si4 0.865206 0.100073 0.175440
Si Si5 0.500000 0.152923 0.676597
Si Si6 0.733403 0.052320 0.824233
Si Si7 0.130685 0.629429 0.677060
Si Si8 0.500000 0.446183 0.324101
O O1 0.250000 0.750000 0.250000
O O2 0.351909 0.737055 0.143090
O O3 0.332735 0.823091 0.218490
O O4 0.274258 0.789706 0.000000
O O5 0.056694 0.207794 0.228990
O O6 0.000000 0.291986 0.221004
O O7 0.000000 0.240125 0.000000
O O8 0.643310 0.352161 0.237434
O O9 0.585989 0.323236 0.000000
O O10 0.804214 0.068942 0.211686
O O11 0.933874 0.078679 0.216238
O O12 0.865507 0.106986 0.000000
O O13 0.500000 0.149940 0.500000
O O14 0.436831 0.130582 0.744598
O O15 0.677691 0.087560 0.781605
O O16 0.722791 0.000000 0.770966
O O17 0.731611 0.051679 0.000000
O O18 0.122238 0.629785 0.500000
O O19 0.500000 0.500000 0.274930
O O20 0.500000 0.446753 0.500000
#
# Coordination Sequence:
#
# PCOD9519962 Si02
#       8
#    16   8  16  16   8  16  16   8
#     4  10  21  34  51  77 109 147 184 221 269 326
#     4  11  22  36  55  79 108 147 190 230 277 334
#     4  11  22  35  52  77 113 149 183 222 269 332
#     4  10  19  33  55  83 118 154 195 241 282 333
#     4  11  23  38  59  86 112 143 187 241 298 358
#     4   9  18  34  59  88 114 147 195 249 296 340
#     4  10  20  37  59  82 112 150 194 241 295 355
#     4   9  17  30  52  82 111 144 189 240 287 326
#
# _framework density 18.41695
#
# number of rings (size 3 to 8) (size 9 to 14) (size 15 to 20)
#    0.000    1.923    1.538    2.769    0.000    6.154 
#    0.000    1.154    0.000    6.000    0.000    0.000 
#    0.000    0.000    0.000    0.000    0.000    0.000 
#
# Total GULP energy -289680.482030 kJ/mol
# GULP energy per Si atom -5570.778501 kJ/mol
# Density = 1.837503 g / cm^3
# Si number density = 18.416950 Si / 1000 Ang^3
#
#
#
# Elastic Constant Matrix: (Units=GPa)
#
#
# Indices 1 2 3 4 5 6 
#
# 1 122.9510 65.6868 33.5420 0.0000 0.0000 0.0000
# 2 65.6868 147.1511 25.7577 0.0000 0.0000 0.0000
# 3 33.5420 25.7577 34.6004 0.0000 0.0000 0.0000
# 4 0.0000 0.0000 0.0000 39.4604 0.0000 0.0000
# 5 0.0000 0.0000 0.0000 0.0000 18.9690 0.0000
# 6 0.0000 0.0000 0.0000 0.0000 0.0000 39.9957
#
#
#
# Elastic Compliance Matrix: (Units=1/GPa)
#
#
# Indices 1 2 3 4 5 6 
#
# 1 0.012906 -0.004106 -0.009455 0.000000 0.000000 0.000000
# 2 -0.004106 0.009120 -0.002809 0.000000 0.000000 0.000000
# 3 -0.009455 -0.002809 0.040158 0.000000 0.000000 0.000000
# 4 0.000000 0.000000 0.000000 0.025342 0.000000 0.000000
# 5 0.000000 0.000000 0.000000 0.000000 0.052718 0.000000
# 6 0.000000 0.000000 0.000000 0.000000 0.000000 0.025003
#
#
# Mechanical properties :
#
#
# Convention : Reuss Voigt Hill
#
# Bulk Modulus (GPa) = 33.96162 61.63060 47.79611
# Shear Modulus (GPa) = 24.06137 31.66608 27.86372
#
# Velocity S-wave (km/s) = 3.61845 4.15106 3.89387
# Velocity P-wave (km/s) = 5.99483 7.51743 6.79889
#
# Compressibility (1/GPa) = 0.02944500
#
# Stress axis : x y z
#
# Youngs Moduli (GPa) = 77.48054 109.64402 24.90165
#
# Poissons Ratio (x) = 0.45023 0.23544
# Poissons Ratio (y) = 0.31816 0.06994
# Poissons Ratio (z) = 0.73256 0.30797
#
# Static dielectric constant tensor:
#      x y z
#    x 1.602930 0.000000 0.000000 
#    y 0.000000 1.623120 0.000000 
#    z 0.000000 0.000000 1.741270 
# 
# From -- ./inp_files/11173.got.cif
#   From: 2010.05.17/outbox.cif.g08.bks.cpg/sg71_6_cif.got.tgz:11173.got - 2010.06.03 16:22:01.
