data_PCOD9519795
_publ_section_title
;
Structure prediction by ZEFSAII (Michael W. Deem and Ramdas Pophale) SiO2 
 PCOD9519795
Probable space group: I M M M
;
_chemical_formula_sum "Si O2"
_cell_formula_units_Z 116
_cell_length_a 17.734569
_cell_length_b 15.058968
_cell_length_c 21.682981
_cell_angle_alpha 90.000000
_cell_angle_beta 90.000000
_cell_angle_gamma 90.000000
_cell_volume 5790.750296
_symmetry_space_group_name_H-M "I M M M"
_symmetry_group_IT_number 71
_symmetry_cell_setting 'orthorhombic'
loop_
_space_group_symop_operation_xyz
x,y,z
-x,-y,z
x,-y,-z
-x,y,-z
-x,-y,-z
x,y,-z
-x,y,z
x,-y,z
1/2+x,1/2+y,1/2+z
1/2-x,1/2-y,1/2+z
1/2+x,1/2-y,1/2-z
1/2-x,1/2+y,1/2-z
1/2-x,1/2-y,1/2-z
1/2+x,1/2+y,1/2-z
1/2-x,1/2+y,1/2+z
1/2+x,1/2-y,1/2+z
loop_
_atom_site_type_symbol
_atom_site_label
_atom_site_fract_x
_atom_site_fract_y
_atom_site_fract_z
Si Si1 0.252642 0.102983 0.108517
Si Si2 0.000000 0.736989 0.000000
Si Si3 0.758067 0.102298 0.381409
Si Si4 0.586943 0.251224 0.735153
Si Si5 0.202094 0.400972 0.258493
Si Si6 0.418878 0.105979 0.926090
Si Si7 0.584941 0.605585 0.159027
Si Si8 0.139497 0.248655 0.093967
O O1 0.243997 0.107475 0.182727
O O2 0.337710 0.137991 0.096887
O O3 0.189247 0.162490 0.077900
O O4 0.248906 0.000000 0.089143
O O5 0.066655 0.738307 0.052948
O O6 0.742391 0.105859 0.307418
O O7 0.845969 0.128061 0.386572
O O8 0.697473 0.168544 0.410080
O O9 0.747383 0.000000 0.401338
O O10 0.500000 0.223009 0.735408
O O11 0.639854 0.174497 0.761910
O O12 0.592732 0.337187 0.778739
O O13 0.612882 0.262716 0.664766
O O14 0.168061 0.500000 0.262400
O O15 0.500000 0.142349 0.902688
O O16 0.419367 0.000000 0.912598
O O17 0.418737 0.115459 0.000000
O O18 0.500000 0.620917 0.134834
O O19 0.592272 0.500000 0.172133
#
# Coordination Sequence:
#
# PCOD9519795 Si02
#       8
#    16   4  16  16  16  16  16  16
#     4  10  20  33  55  84 114 150 186 223 274 333
#     4  12  28  48  62  80 110 146 212 268 292 322
#     4   9  18  36  60  83 108 140 178 224 293 356
#     4  10  19  33  52  76 112 154 188 224 288 344
#     4   9  18  31  51  82 112 141 180 226 277 347
#     4   8  15  29  48  71 102 140 180 219 260 311
#     4   9  17  29  52  88 123 151 179 211 257 344
#     4  11  23  41  58  76 105 146 194 253 293 324
#
# _framework density 20.031946000000001
#
# number of rings (size 3 to 8) (size 9 to 14) (size 15 to 20)
#    0.000    2.483    0.690    2.069    0.966    4.690 
#    0.000    3.793    0.000    0.000    0.000    0.000 
#    0.000    2.207    0.000    0.000    0.000    0.000 
#
# Total GULP energy -323034.490414 kJ/mol
# GULP energy per Si atom -5569.560180 kJ/mol
# Density = 1.998635 g / cm^3
# Si number density = 20.031946 Si / 1000 Ang^3
#
#
#
# Elastic Constant Matrix: (Units=GPa)
#
#
# Indices 1 2 3 4 5 6 
#
# 1 183.3355 71.9948 38.4209 0.0000 0.0000 0.0000
# 2 71.9948 76.4967 21.0704 0.0000 0.0000 0.0000
# 3 38.4209 21.0704 38.9309 0.0000 0.0000 0.0000
# 4 0.0000 0.0000 0.0000 -3.1142 0.0000 0.0000
# 5 0.0000 0.0000 0.0000 0.0000 17.9975 0.0000
# 6 0.0000 0.0000 0.0000 0.0000 0.0000 19.7791
#
#
#
# Elastic Compliance Matrix: (Units=1/GPa)
#
#
# Indices 1 2 3 4 5 6 
#
# 1 0.009511 -0.007481 -0.005337 0.000000 0.000000 0.000000
# 2 -0.007481 0.021247 -0.004117 0.000000 0.000000 0.000000
# 3 -0.005337 -0.004117 0.033182 0.000000 0.000000 0.000000
# 4 0.000000 0.000000 0.000000 -0.321105 0.000000 0.000000
# 5 0.000000 0.000000 0.000000 0.000000 0.055563 0.000000
# 6 0.000000 0.000000 0.000000 0.000000 0.000000 0.050558
#
#
# Mechanical properties :
#
#
# Convention : Reuss Voigt Hill
#
# Bulk Modulus (GPa) = 33.25551 62.41502 47.83526
# Shear Modulus (GPa) = -46.66308 18.08426 -14.28941
#
# Velocity S-wave (km/s) = -4.83166 3.00787 -2.67372
# Velocity P-wave (km/s) = 3.80648 6.57940 3.79468
#
# Compressibility (1/GPa) = 0.03007021
#
# Stress axis : x y z
#
# Youngs Moduli (GPa) = 105.14485 47.06557 30.13692
#
# Poissons Ratio (x) = 0.35209 0.16085
# Poissons Ratio (y) = 0.78658 0.12406
# Poissons Ratio (z) = 0.56119 0.19375
#
# Static dielectric constant tensor:
#      x y z
#    x 1.729870 0.000000 0.000000 
#    y 0.000000 1.724310 0.000000 
#    z 0.000000 0.000000 1.699760 
# 
# From -- ./inp_files/60781.got.cif
#   From: 2010.05.17/outbox.cif.g08.bks.cpg/sg71_31_cif.got.tgz:60781.got - 2010.06.03 16:22:01.
