data_PCOD9519642
_publ_section_title
;
Structure prediction by ZEFSAII (Michael W. Deem and Ramdas Pophale) SiO2 
 PCOD9519642
Probable space group: I M M M
;
_chemical_formula_sum "Si O2"
_cell_formula_units_Z 88
_cell_length_a 22.299595
_cell_length_b 15.001793
_cell_length_c 13.652845
_cell_angle_alpha 90.000000
_cell_angle_beta 90.000000
_cell_angle_gamma 90.000000
_cell_volume 4567.339596
_symmetry_space_group_name_H-M "I M M M"
_symmetry_group_IT_number 71
_symmetry_cell_setting 'orthorhombic'
loop_
_space_group_symop_operation_xyz
x,y,z
-x,-y,z
x,-y,-z
-x,y,-z
-x,-y,-z
x,y,-z
-x,y,z
x,-y,z
1/2+x,1/2+y,1/2+z
1/2-x,1/2-y,1/2+z
1/2+x,1/2-y,1/2-z
1/2-x,1/2+y,1/2-z
1/2-x,1/2-y,1/2-z
1/2+x,1/2+y,1/2-z
1/2-x,1/2+y,1/2+z
1/2+x,1/2-y,1/2+z
loop_
_atom_site_type_symbol
_atom_site_label
_atom_site_fract_x
_atom_site_fract_y
_atom_site_fract_z
Si Si1 0.127008 0.602938 0.885050
Si Si2 0.755320 0.894042 0.299556
Si Si3 0.833078 0.894823 0.887310
Si Si4 0.069063 0.236645 0.203344
Si Si5 0.567113 0.500000 0.117956
Si Si6 0.631662 0.684971 0.113899
O O1 0.111349 0.500000 0.866723
O O2 0.186714 0.625832 0.823184
O O3 0.076177 0.671622 0.855064
O O4 0.141696 0.611838 0.000000
O O5 0.778317 0.880753 0.188586
O O6 0.798667 0.831814 0.363954
O O7 0.763980 0.000000 0.323973
O O8 0.888566 0.834963 0.851496
O O9 0.848577 0.000000 0.881282
O O10 0.818094 0.874032 0.000000
O O11 0.098341 0.249411 0.311002
O O12 0.000000 0.209014 0.210287
O O13 0.500000 0.500000 0.158612
O O14 0.602259 0.589209 0.142358
O O15 0.563099 0.500000 0.000000
O O16 0.621244 0.703509 0.000000
#
# Coordination Sequence:
#
# PCOD9519642 Si02
#       6
#    16  16  16  16   8  16
#     4  10  22  40  62  84 105 135 181 242 298 332
#     4   9  17  33  57  84 112 141 181 230 280 333
#     4   9  19  35  55  82 118 154 181 212 263 332
#     4  11  24  38  54  78 111 149 191 235 274 324
#     4   9  16  26  44  74 111 149 182 206 241 304
#     4  10  19  32  54  83 114 149 181 219 272 328
#
# _framework density 19.267233000000001
#
# number of rings (size 3 to 8) (size 9 to 14) (size 15 to 20)
#    0.000    2.273    0.909    1.636    1.273    6.909 
#    0.000    4.545    0.000    1.636    0.000    1.273 
#    0.000    0.000    0.000    0.000    0.000    0.000 
#
# Total GULP energy -245606.643305 kJ/mol
# GULP energy per Si atom -5581.969166 kJ/mol
# Density = 1.922338 g / cm^3
# Si number density = 19.267233 Si / 1000 Ang^3
#
#
#
# Elastic Constant Matrix: (Units=GPa)
#
#
# Indices 1 2 3 4 5 6 
#
# 1 41.2926 15.2829 18.5872 0.0000 0.0000 0.0000
# 2 15.2829 42.3093 32.3702 0.0000 0.0000 0.0000
# 3 18.5872 32.3702 112.2632 0.0000 0.0000 0.0000
# 4 0.0000 0.0000 0.0000 25.0498 0.0000 0.0000
# 5 0.0000 0.0000 0.0000 0.0000 14.5876 0.0000
# 6 0.0000 0.0000 0.0000 0.0000 0.0000 5.8764
#
#
#
# Elastic Compliance Matrix: (Units=1/GPa)
#
#
# Indices 1 2 3 4 5 6 
#
# 1 0.028386 -0.008542 -0.002237 0.000000 0.000000 0.000000
# 2 -0.008542 0.032896 -0.008071 0.000000 0.000000 0.000000
# 3 -0.002237 -0.008071 0.011605 0.000000 0.000000 0.000000
# 4 0.000000 0.000000 0.000000 0.039921 0.000000 0.000000
# 5 0.000000 0.000000 0.000000 0.000000 0.068551 0.000000
# 6 0.000000 0.000000 0.000000 0.000000 0.000000 0.170171
#
#
# Mechanical properties :
#
#
# Convention : Reuss Voigt Hill
#
# Bulk Modulus (GPa) = 28.41940 36.48285 32.45112
# Shear Modulus (GPa) = 12.47009 17.74440 15.10725
#
# Velocity S-wave (km/s) = 2.54681 3.03803 2.80320
# Velocity P-wave (km/s) = 4.84050 5.59307 5.23034
#
# Compressibility (1/GPa) = 0.03518724
#
# Stress axis : x y z
#
# Youngs Moduli (GPa) = 35.22889 30.39875 86.16837
#
# Poissons Ratio (x) = 0.25967 0.19273
# Poissons Ratio (y) = 0.30093 0.69547
# Poissons Ratio (z) = 0.07880 0.24535
#
# Static dielectric constant tensor:
#      x y z
#    x 1.650940 0.000000 0.000000 
#    y 0.000000 1.706040 0.000000 
#    z 0.000000 0.000000 1.677820 
# 
# From -- ./inp_files/37728.got.cif
#   From: 2010.05.17/outbox.cif.g08.bks.cpg/sg71_19_cif.got.tgz:37728.got - 2010.06.03 16:22:01.
