data_PCOD9519866
_publ_section_title
;
Structure prediction by ZEFSAII (Michael W. Deem and Ramdas Pophale) SiO2 
 PCOD9519866
Probable space group: I M M M
;
_chemical_formula_sum "Si O2"
_cell_formula_units_Z 104
_cell_length_a 23.215240
_cell_length_b 28.263984
_cell_length_c 7.568156
_cell_angle_alpha 90.000000
_cell_angle_beta 90.000000
_cell_angle_gamma 90.000000
_cell_volume 4965.884701
_symmetry_space_group_name_H-M "I M M M"
_symmetry_group_IT_number 71
_symmetry_cell_setting 'orthorhombic'
loop_
_space_group_symop_operation_xyz
x,y,z
-x,-y,z
x,-y,-z
-x,y,-z
-x,-y,-z
x,y,-z
-x,y,z
x,-y,z
1/2+x,1/2+y,1/2+z
1/2-x,1/2-y,1/2+z
1/2+x,1/2-y,1/2-z
1/2-x,1/2+y,1/2-z
1/2-x,1/2-y,1/2-z
1/2+x,1/2+y,1/2-z
1/2-x,1/2+y,1/2+z
1/2+x,1/2-y,1/2+z
loop_
_atom_site_type_symbol
_atom_site_label
_atom_site_fract_x
_atom_site_fract_y
_atom_site_fract_z
Si Si1 0.749838 0.446085 0.708745
Si Si2 0.840083 0.870881 0.696171
Si Si3 0.565109 0.000000 0.784653
Si Si4 0.370619 0.905249 0.783067
Si Si5 0.933325 0.796824 0.284019
Si Si6 0.741461 0.195908 0.796380
Si Si7 0.395490 0.807106 0.792485
O O1 0.760228 0.450137 0.500000
O O2 0.749517 0.500000 0.780011
O O3 0.689748 0.418057 0.729072
O O4 0.803995 0.414300 0.774538
O O5 0.860121 0.883398 0.500000
O O6 0.890800 0.838671 0.779637
O O7 0.786087 0.834971 0.689179
O O8 0.597844 0.953004 0.730729
O O9 0.500000 0.000000 0.724069
O O10 0.565384 0.000000 0.000000
O O11 0.407504 0.859611 0.720514
O O12 0.369742 0.901351 0.000000
O O13 0.927366 0.795935 0.500000
O O14 0.915973 0.743687 0.221022
O O15 0.000000 0.805441 0.241489
O O16 0.750000 0.250000 0.750000
O O17 0.673640 0.189525 0.777474
O O18 0.755806 0.185641 0.000000
O O19 0.412498 0.806062 0.000000
#
# Coordination Sequence:
#
# PCOD9519866 Si02
#       7
#    16  16   8  16  16  16  16
#     4  10  19  33  54  77 104 138 170 210 270 327
#     4  11  21  33  52  79 106 135 172 218 270 318
#     4   9  16  24  36  60  97 137 174 213 252 292
#     4   9  15  25  42  66  98 134 169 208 254 302
#     4   9  18  32  48  69 101 139 176 213 256 312
#     4  11  19  30  49  76 106 136 171 210 255 307
#     4   9  16  26  44  70  98 130 169 207 248 296
#
# _framework density 20.942895
#
# number of rings (size 3 to 8) (size 9 to 14) (size 15 to 20)
#    0.000    2.231    3.846    0.923    0.000    0.923 
#    0.000    3.077    0.000    2.308    0.000    3.231 
#    0.000    2.462    0.000    0.000    0.000    0.000 
#
# Total GULP energy -289688.915933 kJ/mol
# GULP energy per Si atom -5570.940691 kJ/mol
# Density = 2.089523 g / cm^3
# Si number density = 20.942895 Si / 1000 Ang^3
#
#
#
# Elastic Constant Matrix: (Units=GPa)
#
#
# Indices 1 2 3 4 5 6 
#
# 1 93.5142 53.6197 17.4838 0.0000 0.0000 0.0000
# 2 53.6197 113.7820 -9.6390 0.0000 0.0000 0.0000
# 3 17.4838 -9.6390 30.7445 0.0000 0.0000 0.0000
# 4 0.0000 0.0000 0.0000 6.1352 0.0000 0.0000
# 5 0.0000 0.0000 0.0000 0.0000 8.4256 0.0000
# 6 0.0000 0.0000 0.0000 0.0000 0.0000 11.9520
#
#
#
# Elastic Compliance Matrix: (Units=1/GPa)
#
#
# Indices 1 2 3 4 5 6 
#
# 1 0.019218 -0.010255 -0.014144 0.000000 0.000000 0.000000
# 2 -0.010255 0.014500 0.010378 0.000000 0.000000 0.000000
# 3 -0.014144 0.010378 0.043823 0.000000 0.000000 0.000000
# 4 0.000000 0.000000 0.000000 0.162995 0.000000 0.000000
# 5 0.000000 0.000000 0.000000 0.000000 0.118685 0.000000
# 6 0.000000 0.000000 0.000000 0.000000 0.000000 0.083668
#
#
# Mechanical properties :
#
#
# Convention : Reuss Voigt Hill
#
# Bulk Modulus (GPa) = 20.20208 40.10777 30.15492
# Shear Modulus (GPa) = 10.25787 17.07430 13.66608
#
# Velocity S-wave (km/s) = 2.21555 2.85841 2.55726
# Velocity P-wave (km/s) = 4.02642 5.48512 4.81137
#
# Compressibility (1/GPa) = 0.04949986
#
# Stress axis : x y z
#
# Youngs Moduli (GPa) = 52.03527 68.96403 22.81905
#
# Poissons Ratio (x) = 0.70719 0.32275
# Poissons Ratio (y) = 0.53360 -0.23681
# Poissons Ratio (z) = 0.73597 -0.71569
#
# Static dielectric constant tensor:
#      x y z
#    x 1.744330 0.000000 0.000000 
#    y 0.000000 1.897340 0.000000 
#    z 0.000000 0.000000 1.855100 
# 
# From -- ./inp_files/13301.got.cif
#   From: 2010.05.17/outbox.cif.g08.bks.cpg/sg71_7_cif.got.tgz:13301.got - 2010.06.03 16:22:01.
