data_PCOD9519074
_publ_section_title
;
Structure prediction by ZEFSAII (Michael W. Deem and Ramdas Pophale) SiO2 
 PCOD9519074
Probable space group: I M M M
;
_chemical_formula_sum "Si O2"
_cell_formula_units_Z 104
_cell_length_a 30.629851
_cell_length_b 9.061356
_cell_length_c 22.543531
_cell_angle_alpha 90.000000
_cell_angle_beta 90.000000
_cell_angle_gamma 90.000000
_cell_volume 6256.911584
_symmetry_space_group_name_H-M "I M M M"
_symmetry_group_IT_number 71
_symmetry_cell_setting 'orthorhombic'
loop_
_space_group_symop_operation_xyz
x,y,z
-x,-y,z
x,-y,-z
-x,y,-z
-x,-y,-z
x,y,-z
-x,y,z
x,-y,z
1/2+x,1/2+y,1/2+z
1/2-x,1/2-y,1/2+z
1/2+x,1/2-y,1/2-z
1/2-x,1/2+y,1/2-z
1/2-x,1/2-y,1/2-z
1/2+x,1/2+y,1/2-z
1/2-x,1/2+y,1/2+z
1/2+x,1/2-y,1/2+z
loop_
_atom_site_type_symbol
_atom_site_label
_atom_site_fract_x
_atom_site_fract_y
_atom_site_fract_z
Si Si1 0.784107 0.169989 0.927934
Si Si2 0.549887 0.820813 0.000000
Si Si3 0.606664 0.822776 0.114537
Si Si4 0.125955 0.675477 0.929646
Si Si5 0.194018 0.824458 0.570989
Si Si6 0.550180 0.676561 0.645341
Si Si7 0.949534 0.823741 0.714767
O O1 0.828933 0.248210 0.909475
O O2 0.740466 0.256537 0.910150
O O3 0.782764 0.000000 0.908574
O O4 0.784302 0.171336 0.000000
O O5 0.576259 0.776785 0.058682
O O6 0.500000 0.767215 0.000000
O O7 0.548559 0.000000 0.000000
O O8 0.653956 0.752516 0.103965
O O9 0.583378 0.763997 0.173386
O O10 0.609775 0.000000 0.114882
O O11 0.129366 0.500000 0.922217
O O12 0.085289 0.739597 0.893863
O O13 0.120485 0.705938 0.000000
O O14 0.188938 0.796730 0.500000
O O15 0.193623 0.000000 0.579924
O O16 0.500000 0.716244 0.630639
O O17 0.554657 0.500000 0.636905
O O18 0.556753 0.706295 0.715367
O O19 0.000000 0.786295 0.699984
O O20 0.944318 0.000000 0.706023
#
# Coordination Sequence:
#
# PCOD9519074 Si02
#       7
#    16   8  16  16  16  16  16
#     4   9  17  30  50  74 101 134 171 207 247 300
#     4   9  18  30  43  65  99 133 165 209 260 303
#     4  11  20  31  49  72 101 134 172 215 259 308
#     4  10  20  33  51  79 112 139 165 202 251 301
#     4  10  19  31  48  71 102 135 170 212 260 306
#     4   9  19  36  56  76 101 136 175 212 249 296
#     4   9  19  36  54  72  97 131 173 217 258 302
#
# _framework density 16.62162
#
# number of rings (size 3 to 8) (size 9 to 14) (size 15 to 20)
#    0.000    2.385    0.769    3.231    0.000    5.538 
#    0.000    3.077    0.000    2.769    0.000    0.000 
#    0.000    0.000    0.000    0.000    0.000    0.000 
#
# Total GULP energy -290096.117531 kJ/mol
# GULP energy per Si atom -5578.771491 kJ/mol
# Density = 1.658379 g / cm^3
# Si number density = 16.621620 Si / 1000 Ang^3
#
#
#
# Elastic Constant Matrix: (Units=GPa)
#
#
# Indices 1 2 3 4 5 6 
#
# 1 179.3654 86.6232 69.1231 0.0000 0.0000 0.0000
# 2 86.6232 83.2758 49.5543 0.0000 0.0000 0.0000
# 3 69.1231 49.5543 46.3805 0.0000 0.0000 0.0000
# 4 0.0000 0.0000 0.0000 24.8048 0.0000 0.0000
# 5 0.0000 0.0000 0.0000 0.0000 14.7326 0.0000
# 6 0.0000 0.0000 0.0000 0.0000 0.0000 32.9230
#
#
#
# Elastic Compliance Matrix: (Units=1/GPa)
#
#
# Indices 1 2 3 4 5 6 
#
# 1 0.014090 -0.005932 -0.014661 0.000000 0.000000 0.000000
# 2 -0.005932 0.035468 -0.029053 0.000000 0.000000 0.000000
# 3 -0.014661 -0.029053 0.074452 0.000000 0.000000 0.000000
# 4 0.000000 0.000000 0.000000 0.040315 0.000000 0.000000
# 5 0.000000 0.000000 0.000000 0.000000 0.067877 0.000000
# 6 0.000000 0.000000 0.000000 0.000000 0.000000 0.030374
#
#
# Mechanical properties :
#
#
# Convention : Reuss Voigt Hill
#
# Bulk Modulus (GPa) = 40.45863 79.95811 60.20837
# Shear Modulus (GPa) = 13.50957 21.40682 17.45819
#
# Velocity S-wave (km/s) = 2.85401 3.59261 3.24440
# Velocity P-wave (km/s) = 5.93753 8.08817 7.09481
#
# Compressibility (1/GPa) = 0.02471660
#
# Stress axis : x y z
#
# Youngs Moduli (GPa) = 70.97129 28.19464 13.43145
#
# Poissons Ratio (x) = 0.16726 0.19692
# Poissons Ratio (y) = 0.42103 0.39023
# Poissons Ratio (z) = 1.04051 0.81915
#
# Static dielectric constant tensor:
#      x y z
#    x 1.543420 0.000000 0.000000 
#    y 0.000000 1.550180 0.000000 
#    z 0.000000 0.000000 1.538480 
# 
# From -- ./inp_files/15041.got.cif
#   From: 2010.05.17/outbox.cif.g08.bks.cpg/sg71_8_cif.got.tgz:15041.got - 2010.06.03 16:22:01.
