data_PCOD9519724
_publ_section_title
;
Structure prediction by ZEFSAII (Michael W. Deem and Ramdas Pophale) SiO2 
 PCOD9519724
Probable space group: I M M M
;
_chemical_formula_sum "Si O2"
_cell_formula_units_Z 112
_cell_length_a 25.781162
_cell_length_b 25.664133
_cell_length_c 9.943403
_cell_angle_alpha 90.000000
_cell_angle_beta 90.000000
_cell_angle_gamma 90.000000
_cell_volume 6579.064233
_symmetry_space_group_name_H-M "I M M M"
_symmetry_group_IT_number 71
_symmetry_cell_setting 'orthorhombic'
loop_
_space_group_symop_operation_xyz
x,y,z
-x,-y,z
x,-y,-z
-x,y,-z
-x,-y,-z
x,y,-z
-x,y,z
x,-y,z
1/2+x,1/2+y,1/2+z
1/2-x,1/2-y,1/2+z
1/2+x,1/2-y,1/2-z
1/2-x,1/2+y,1/2-z
1/2-x,1/2-y,1/2-z
1/2+x,1/2+y,1/2-z
1/2-x,1/2+y,1/2+z
1/2+x,1/2-y,1/2+z
loop_
_atom_site_type_symbol
_atom_site_label
_atom_site_fract_x
_atom_site_fract_y
_atom_site_fract_z
Si Si1 0.845214 0.939800 0.656110
Si Si2 0.253989 0.132601 0.656470
Si Si3 0.655661 0.155737 0.843313
Si Si4 0.057369 0.913103 0.158664
Si Si5 0.441012 0.820173 0.659353
Si Si6 0.320508 0.721956 0.149123
Si Si7 0.088931 0.202540 0.154387
O O1 0.859742 0.929462 0.500000
O O2 0.796167 0.902927 0.687512
O O3 0.894763 0.931848 0.751673
O O4 0.828754 0.000000 0.666005
O O5 0.268924 0.123460 0.500000
O O6 0.300800 0.124847 0.759570
O O7 0.233839 0.192584 0.665465
O O8 0.602165 0.156124 0.758269
O O9 0.675817 0.215870 0.844096
O O10 0.649629 0.140349 0.000000
O O11 0.057238 0.850180 0.171855
O O12 0.000000 0.932822 0.197004
O O13 0.065556 0.925032 0.000000
O O14 0.428964 0.828722 0.500000
O O15 0.500000 0.837950 0.684061
O O16 0.438919 0.757423 0.681856
O O17 0.360483 0.700026 0.255486
O O18 0.338953 0.706743 0.000000
O O19 0.105576 0.204621 0.000000
#
# Coordination Sequence:
#
# PCOD9519724 Si02
#       7
#    16  16  16  16  16  16  16
#     4  10  22  39  56  72  91 120 160 206 254 299
#     4  10  19  33  51  68  92 123 157 198 244 294
#     4  10  20  30  45  72 101 126 159 197 235 282
#     4  10  20  33  50  72  96 123 159 205 254 299
#     4   9  17  30  47  67  97 136 170 197 229 273
#     4   9  17  29  45  67  94 124 157 195 238 282
#     4   9  16  27  45  68  93 124 164 202 237 281
#
# _framework density 17.023698
#
# number of rings (size 3 to 8) (size 9 to 14) (size 15 to 20)
#    0.000    2.429    1.429    1.286    0.000    4.571 
#    0.000    1.429    0.000    2.571    0.000    0.000 
#    0.000    0.571    0.000    6.571    0.000    1.857 
#
# Total GULP energy -311958.473360 kJ/mol
# GULP energy per Si atom -5570.687024 kJ/mol
# Density = 1.698495 g / cm^3
# Si number density = 17.023698 Si / 1000 Ang^3
#
#
#
# Elastic Constant Matrix: (Units=GPa)
#
#
# Indices 1 2 3 4 5 6 
#
# 1 113.5982 24.2594 88.6989 0.0000 0.0000 0.0000
# 2 24.2594 24.7148 23.9093 0.0000 0.0000 0.0000
# 3 88.6989 23.9093 88.8084 0.0000 0.0000 0.0000
# 4 0.0000 0.0000 0.0000 13.5789 0.0000 0.0000
# 5 0.0000 0.0000 0.0000 0.0000 21.3031 0.0000
# 6 0.0000 0.0000 0.0000 0.0000 0.0000 3.3918
#
#
#
# Elastic Compliance Matrix: (Units=1/GPa)
#
#
# Indices 1 2 3 4 5 6 
#
# 1 0.039999 -0.000830 -0.039726 0.000000 0.000000 0.000000
# 2 -0.000830 0.054728 -0.013905 0.000000 0.000000 0.000000
# 3 -0.039726 -0.013905 0.054680 0.000000 0.000000 0.000000
# 4 0.000000 0.000000 0.000000 0.073644 0.000000 0.000000
# 5 0.000000 0.000000 0.000000 0.000000 0.046941 0.000000
# 6 0.000000 0.000000 0.000000 0.000000 0.000000 0.294831
#
#
# Mechanical properties :
#
#
# Convention : Reuss Voigt Hill
#
# Bulk Modulus (GPa) = 24.70020 55.65073 40.17547
# Shear Modulus (GPa) = 7.27548 13.67169 10.47358
#
# Velocity S-wave (km/s) = 2.06954 2.83697 2.48309
# Velocity P-wave (km/s) = 4.50016 6.59487 5.64552
#
# Compressibility (1/GPa) = 0.04048551
#
# Stress axis : x y z
#
# Youngs Moduli (GPa) = 25.00086 18.27209 18.28809
#
# Poissons Ratio (x) = 0.01517 0.72651
# Poissons Ratio (y) = 0.02076 0.25429
# Poissons Ratio (z) = 0.99318 0.25407
#
# Static dielectric constant tensor:
#      x y z
#    x 1.570180 0.000000 0.000000 
#    y 0.000000 1.583710 0.000000 
#    z 0.000000 0.000000 1.577770 
# 
# From -- ./inp_files/26263.got.cif
#   From: 2010.05.17/outbox.cif.g08.bks.cpg/sg71_14_cif.got.tgz:26263.got - 2010.06.03 16:22:01.
