data_PCOD9519150
_publ_section_title
;
Structure prediction by ZEFSAII (Michael W. Deem and Ramdas Pophale) SiO2 
 PCOD9519150
Probable space group: I M M M
;
_chemical_formula_sum "Si O2"
_cell_formula_units_Z 116
_cell_length_a 30.371426
_cell_length_b 7.635981
_cell_length_c 23.593895
_cell_angle_alpha 90.000000
_cell_angle_beta 90.000000
_cell_angle_gamma 90.000000
_cell_volume 5471.793067
_symmetry_space_group_name_H-M "I M M M"
_symmetry_group_IT_number 71
_symmetry_cell_setting 'orthorhombic'
loop_
_space_group_symop_operation_xyz
x,y,z
-x,-y,z
x,-y,-z
-x,y,-z
-x,-y,-z
x,y,-z
-x,y,z
x,-y,z
1/2+x,1/2+y,1/2+z
1/2-x,1/2-y,1/2+z
1/2+x,1/2-y,1/2-z
1/2-x,1/2+y,1/2-z
1/2-x,1/2-y,1/2-z
1/2+x,1/2+y,1/2-z
1/2-x,1/2+y,1/2+z
1/2+x,1/2-y,1/2+z
loop_
_atom_site_type_symbol
_atom_site_label
_atom_site_fract_x
_atom_site_fract_y
_atom_site_fract_z
Si Si1 0.705427 0.297425 0.177932
Si Si2 0.145440 0.806411 0.084816
Si Si3 0.050338 0.288394 0.436611
Si Si4 0.170191 0.500000 0.000000
Si Si5 0.548985 0.203973 0.602654
Si Si6 0.387848 0.706706 0.833198
Si Si7 0.801889 0.712223 0.190678
Si Si8 0.549446 0.287858 0.265374
O O1 0.707925 0.500000 0.159965
O O2 0.660447 0.216758 0.154545
O O3 0.754225 0.226973 0.166418
O O4 0.697496 0.284699 0.245700
O O5 0.092572 0.791726 0.078342
O O6 0.159387 0.776755 0.150295
O O7 0.159606 0.000000 0.068199
O O8 0.167254 0.653267 0.049061
O O9 0.063576 0.232698 0.500000
O O10 0.050607 0.500000 0.435670
O O11 0.081421 0.224246 0.387290
O O12 0.000000 0.231247 0.427124
O O13 0.500000 0.272158 0.587633
O O14 0.552795 0.217339 0.670942
O O15 0.550739 0.000000 0.586094
O O16 0.381490 0.500000 0.821641
O O17 0.413688 0.777635 0.778204
O O18 0.802653 0.500000 0.194025
O O19 0.500000 0.244711 0.244077
O O20 0.552094 0.500000 0.269061
#
# Coordination Sequence:
#
# PCOD9519150 Si02
#       8
#    16  16  16   4  16  16  16  16
#     4   9  19  33  55  89 124 155 185 230 297 365
#     4  12  24  42  68  90 120 161 202 252 302 351
#     4   9  19  35  52  69  95 138 188 236 287 338
#     4  12  26  48  65  96 120 154 214 256 293 350
#     4  10  20  36  58  87 122 157 195 240 294 355
#     4  10  19  31  49  77 111 144 184 232 288 347
#     4  10  19  36  60  88 122 156 195 242 294 356
#     4   9  17  28  45  75 116 156 192 232 286 354
#
# _framework density 21.199632999999999
#
# number of rings (size 3 to 8) (size 9 to 14) (size 15 to 20)
#    0.000    2.069    1.379    2.690    0.000    4.690 
#    0.000    2.759    1.517    0.828    0.000    0.000 
#    0.000    0.000    0.000    0.000    0.000    0.000 
#
# Total GULP energy -323306.059501 kJ/mol
# GULP energy per Si atom -5574.242405 kJ/mol
# Density = 2.115138 g / cm^3
# Si number density = 21.199633 Si / 1000 Ang^3
#
#
#
# Elastic Constant Matrix: (Units=GPa)
#
#
# Indices 1 2 3 4 5 6 
#
# 1 57.1346 4.7746 -9.3823 0.0000 0.0000 0.0000
# 2 4.7746 83.6906 -5.5335 0.0000 0.0000 0.0000
# 3 -9.3823 -5.5335 18.6511 0.0000 0.0000 0.0000
# 4 0.0000 0.0000 0.0000 38.2203 0.0000 0.0000
# 5 0.0000 0.0000 0.0000 0.0000 -5.1543 0.0000
# 6 0.0000 0.0000 0.0000 0.0000 0.0000 8.6671
#
#
#
# Elastic Compliance Matrix: (Units=1/GPa)
#
#
# Indices 1 2 3 4 5 6 
#
# 1 0.019096 -0.000463 0.009469 0.000000 0.000000 0.000000
# 2 -0.000463 0.012199 0.003386 0.000000 0.000000 0.000000
# 3 0.009469 0.003386 0.059384 0.000000 0.000000 0.000000
# 4 0.000000 0.000000 0.000000 0.026164 0.000000 0.000000
# 5 0.000000 0.000000 0.000000 0.000000 -0.194013 0.000000
# 6 0.000000 0.000000 0.000000 0.000000 0.000000 0.115378
#
#
# Mechanical properties :
#
#
# Convention : Reuss Voigt Hill
#
# Bulk Modulus (GPa) = 8.66082 15.46598 12.06340
# Shear Modulus (GPa) = 96.31395 19.65446 57.98420
#
# Velocity S-wave (km/s) = 6.74763 3.04816 5.23554
# Velocity P-wave (km/s) = 8.04994 4.43842 6.50005
#
# Compressibility (1/GPa) = 0.11546250
#
# Stress axis : x y z
#
# Youngs Moduli (GPa) = 52.36652 81.97323 16.83952
#
# Poissons Ratio (x) = 0.03799 -0.15945
# Poissons Ratio (y) = 0.02427 -0.05702
# Poissons Ratio (z) = -0.49585 -0.27758
#
# Static dielectric constant tensor:
#      x y z
#    x 1.814900 0.000000 0.000000 
#    y 0.000000 1.787600 0.000000 
#    z 0.000000 0.000000 1.741580 
# 
# From -- ./inp_files/62399.got.cif
#   From: 2010.05.17/outbox.cif.g08.bks.cpg/sg71_32_cif.got.tgz:62399.got - 2010.06.03 16:22:01.
