data_PCOD9519471
_publ_section_title
;
Structure prediction by ZEFSAII (Michael W. Deem and Ramdas Pophale) SiO2 
 PCOD9519471
Probable space group: I M M M
;
_chemical_formula_sum "Si O2"
_cell_formula_units_Z 104
_cell_length_a 32.191059
_cell_length_b 8.594967
_cell_length_c 20.993554
_cell_angle_alpha 90.000000
_cell_angle_beta 90.000000
_cell_angle_gamma 90.000000
_cell_volume 5808.519399
_symmetry_space_group_name_H-M "I M M M"
_symmetry_group_IT_number 71
_symmetry_cell_setting 'orthorhombic'
loop_
_space_group_symop_operation_xyz
x,y,z
-x,-y,z
x,-y,-z
-x,y,-z
-x,-y,-z
x,y,-z
-x,y,z
x,-y,z
1/2+x,1/2+y,1/2+z
1/2-x,1/2-y,1/2+z
1/2+x,1/2-y,1/2-z
1/2-x,1/2+y,1/2-z
1/2-x,1/2-y,1/2-z
1/2+x,1/2+y,1/2-z
1/2-x,1/2+y,1/2+z
1/2+x,1/2-y,1/2+z
loop_
_atom_site_type_symbol
_atom_site_label
_atom_site_fract_x
_atom_site_fract_y
_atom_site_fract_z
Si Si1 0.752636 0.686344 0.177847
Si Si2 0.923108 0.313929 0.134175
Si Si3 0.000000 0.689241 0.221479
Si Si4 0.000000 0.687167 0.368823
Si Si5 0.661260 0.314517 0.688395
Si Si6 0.338057 0.310852 0.836575
Si Si7 0.450219 0.320255 0.500000
Si Si8 0.086048 0.188426 0.573833
O O1 0.750000 0.750000 0.250000
O O2 0.797081 0.748399 0.155866
O O3 0.709259 0.734261 0.144574
O O4 0.746395 0.000000 0.320679
O O5 0.920461 0.500000 0.138409
O O6 0.959185 0.260017 0.182939
O O7 0.879674 0.239815 0.153159
O O8 0.935179 0.263978 0.063454
O O9 0.000000 0.500000 0.221179
O O10 0.000000 0.739106 0.294782
O O11 0.958069 0.748033 0.401873
O O12 0.000000 0.500000 0.370742
O O13 0.664637 0.500000 0.689612
O O14 0.657210 0.261731 0.762629
O O15 0.339355 0.500000 0.837490
O O16 0.375656 0.257258 0.881437
O O17 0.436388 0.500000 0.500000
O O18 0.500000 0.317817 0.500000
O O19 0.092641 0.231945 0.500000
O O20 0.084610 0.000000 0.577073
#
# Coordination Sequence:
#
# PCOD9519471 Si02
#       8
#    16  16   8   8  16  16   8  16
#     4   9  16  29  50  76 106 136 170 214 269 325
#     4  11  21  36  57  79 106 140 179 219 262 312
#     4   9  20  35  53  79 107 136 171 218 267 311
#     4  11  22  36  52  75 108 138 169 212 263 312
#     4  10  19  32  51  79 110 138 174 220 272 323
#     4   8  16  31  52  77 104 134 174 222 266 315
#     4  11  23  39  57  79 107 141 179 215 259 316
#     4  10  20  35  54  74  99 136 178 217 259 307
#
# _framework density 17.904734999999999
#
# number of rings (size 3 to 8) (size 9 to 14) (size 15 to 20)
#    0.000    2.231    0.769    3.923    0.000    1.538 
#    0.000    6.154    1.692    0.000    0.000    0.000 
#    0.000    0.000    0.000    0.000    0.000    0.000 
#
# Total GULP energy -290001.009149 kJ/mol
# GULP energy per Si atom -5576.942484 kJ/mol
# Density = 1.786398 g / cm^3
# Si number density = 17.904735 Si / 1000 Ang^3
#
#
#
# Elastic Constant Matrix: (Units=GPa)
#
#
# Indices 1 2 3 4 5 6 
#
# 1 182.4632 31.4330 65.0418 0.0000 0.0000 0.0000
# 2 31.4330 36.8127 17.7108 0.0000 0.0000 0.0000
# 3 65.0418 17.7108 94.5060 0.0000 0.0000 0.0000
# 4 0.0000 0.0000 0.0000 21.0424 0.0000 0.0000
# 5 0.0000 0.0000 0.0000 0.0000 1.0415 0.0000
# 6 0.0000 0.0000 0.0000 0.0000 0.0000 21.1497
#
#
#
# Elastic Compliance Matrix: (Units=1/GPa)
#
#
# Indices 1 2 3 4 5 6 
#
# 1 0.007896 -0.004537 -0.004584 0.000000 0.000000 0.000000
# 2 -0.004537 0.032463 -0.002961 0.000000 0.000000 0.000000
# 3 -0.004584 -0.002961 0.014291 0.000000 0.000000 0.000000
# 4 0.000000 0.000000 0.000000 0.047523 0.000000 0.000000
# 5 0.000000 0.000000 0.000000 0.000000 0.960194 0.000000
# 6 0.000000 0.000000 0.000000 0.000000 0.000000 0.047282
#
#
# Mechanical properties :
#
#
# Convention : Reuss Voigt Hill
#
# Bulk Modulus (GPa) = 32.80207 60.23923 46.52065
# Shear Modulus (GPa) = 4.37072 21.95312 13.16192
#
# Velocity S-wave (km/s) = 1.56410 3.50538 2.71423
# Velocity P-wave (km/s) = 4.64994 7.07820 5.98844
#
# Compressibility (1/GPa) = 0.03048588
#
# Stress axis : x y z
#
# Youngs Moduli (GPa) = 126.64290 30.80423 69.97276
#
# Poissons Ratio (x) = 0.13975 0.32077
# Poissons Ratio (y) = 0.57455 0.20721
# Poissons Ratio (z) = 0.58056 0.09122
#
# Static dielectric constant tensor:
#      x y z
#    x 1.609220 0.000000 0.000000 
#    y 0.000000 1.607510 0.000000 
#    z 0.000000 0.000000 1.585280 
# 
# From -- ./inp_files/62030.got.cif
#   From: 2010.05.17/outbox.cif.g08.bks.cpg/sg71_32_cif.got.tgz:62030.got - 2010.06.03 16:22:01.
