data_PCOD9519785
_publ_section_title
;
Structure prediction by ZEFSAII (Michael W. Deem and Ramdas Pophale) SiO2 
 PCOD9519785
Probable space group: I M M M
;
_chemical_formula_sum "Si O2"
_cell_formula_units_Z 80
_cell_length_a 21.857322
_cell_length_b 10.352088
_cell_length_c 21.466395
_cell_angle_alpha 90.000000
_cell_angle_beta 90.000000
_cell_angle_gamma 90.000000
_cell_volume 4857.178030
_symmetry_space_group_name_H-M "I M M M"
_symmetry_group_IT_number 71
_symmetry_cell_setting 'orthorhombic'
loop_
_space_group_symop_operation_xyz
x,y,z
-x,-y,z
x,-y,-z
-x,y,-z
-x,-y,-z
x,y,-z
-x,y,z
x,-y,z
1/2+x,1/2+y,1/2+z
1/2-x,1/2-y,1/2+z
1/2+x,1/2-y,1/2-z
1/2-x,1/2+y,1/2-z
1/2-x,1/2-y,1/2-z
1/2+x,1/2+y,1/2-z
1/2-x,1/2+y,1/2+z
1/2+x,1/2-y,1/2+z
loop_
_atom_site_type_symbol
_atom_site_label
_atom_site_fract_x
_atom_site_fract_y
_atom_site_fract_z
Si Si1 0.736362 0.000000 0.162166
Si Si2 0.651924 0.000000 0.285518
Si Si3 0.855103 0.000000 0.246611
Si Si4 0.770364 0.000000 0.369454
Si Si5 0.929225 0.264998 0.751629
Si Si6 0.300474 0.229373 0.929757
Si Si7 0.567975 0.844983 0.106083
O O1 0.688126 0.000000 0.219302
O O2 0.724607 0.125199 0.119661
O O3 0.802944 0.000000 0.193584
O O4 0.703721 0.000000 0.337881
O O5 0.609629 0.126293 0.287001
O O6 0.896291 0.872377 0.242656
O O7 0.819063 0.000000 0.312455
O O8 0.780395 0.128738 0.409092
O O9 0.928914 0.307621 0.678948
O O10 0.000000 0.260357 0.771431
O O11 0.374209 0.219026 0.926327
O O12 0.280688 0.199148 0.000000
O O13 0.500000 0.808950 0.083188
O O14 0.573997 0.000000 0.100332
#
# Coordination Sequence:
#
# PCOD9519785 Si02
#       7
#     8   8   8   8  16  16  16
#     4  11  21  36  54  78 101 140 186 216 271 304
#     4  11  19  36  58  75 106 139 179 220 259 328
#     4  11  21  34  54  77 110 137 171 220 267 334
#     4  11  23  36  52  78 107 144 178 212 275 312
#     4  11  19  32  53  81 110 137 172 215 266 313
#     4  12  22  37  53  75 108 142 188 224 254 303
#     4  10  19  33  52  75 105 142 190 225 249 291
#
# _framework density 16.470469999999999
#
# number of rings (size 3 to 8) (size 9 to 14) (size 15 to 20)
#    0.000    1.000    6.000    2.400    0.000    3.600 
#    0.000    1.500    0.000    1.200    0.000    0.000 
#    0.000   56.000    0.000    0.000    0.000    0.000 
#
# Total GULP energy -223464.082634 kJ/mol
# GULP energy per Si atom -5586.602066 kJ/mol
# Density = 1.643298 g / cm^3
# Si number density = 16.470470 Si / 1000 Ang^3
#
#
#
# Elastic Constant Matrix: (Units=GPa)
#
#
# Indices 1 2 3 4 5 6 
#
# 1 116.3371 35.7564 24.2701 0.0000 0.0000 0.0000
# 2 35.7564 72.8955 -3.1850 0.0000 0.0000 0.0000
# 3 24.2701 -3.1850 48.3730 0.0000 0.0000 0.0000
# 4 0.0000 0.0000 0.0000 -16.0473 0.0000 0.0000
# 5 0.0000 0.0000 0.0000 0.0000 12.0813 0.0000
# 6 0.0000 0.0000 0.0000 0.0000 0.0000 20.4130
#
#
#
# Elastic Compliance Matrix: (Units=1/GPa)
#
#
# Indices 1 2 3 4 5 6 
#
# 1 0.011770 -0.006049 -0.006304 0.000000 0.000000 0.000000
# 2 -0.006049 0.016866 0.004145 0.000000 0.000000 0.000000
# 3 -0.006304 0.004145 0.024108 0.000000 0.000000 0.000000
# 4 0.000000 0.000000 0.000000 -0.062316 0.000000 0.000000
# 5 0.000000 0.000000 0.000000 0.000000 0.082773 0.000000
# 6 0.000000 0.000000 0.000000 0.000000 0.000000 0.048988
#
#
# Mechanical properties :
#
#
# Convention : Reuss Voigt Hill
#
# Bulk Modulus (GPa) = 27.52493 39.03207 33.27850
# Shear Modulus (GPa) = 33.17545 15.34033 24.25789
#
# Velocity S-wave (km/s) = 4.49290 3.05517 3.84189
# Velocity P-wave (km/s) = 6.60778 6.01623 6.31893
#
# Compressibility (1/GPa) = 0.03633070
#
# Stress axis : x y z
#
# Youngs Moduli (GPa) = 84.96306 59.28955 41.47954
#
# Poissons Ratio (x) = 0.35862 0.26147
# Poissons Ratio (y) = 0.51392 -0.17195
# Poissons Ratio (z) = 0.53557 -0.24577
#
# Static dielectric constant tensor:
#      x y z
#    x 1.555260 0.000000 0.000000 
#    y 0.000000 1.535560 0.000000 
#    z 0.000000 0.000000 1.530110 
# 
# From -- ./inp_files/50457.got.cif
#   From: 2010.05.17/outbox.cif.g08.bks.cpg/sg71_26_cif.got.tgz:50457.got - 2010.06.03 16:22:01.
