data_PCOD9519922
_publ_section_title
;
Structure prediction by ZEFSAII (Michael W. Deem and Ramdas Pophale) SiO2 
 PCOD9519922
Probable space group: I M M M
;
_chemical_formula_sum "Si O2"
_cell_formula_units_Z 72
_cell_length_a 24.937207
_cell_length_b 17.665710
_cell_length_c 7.623895
_cell_angle_alpha 90.000000
_cell_angle_beta 90.000000
_cell_angle_gamma 90.000000
_cell_volume 3358.580897
_symmetry_space_group_name_H-M "I M M M"
_symmetry_group_IT_number 71
_symmetry_cell_setting 'orthorhombic'
loop_
_space_group_symop_operation_xyz
x,y,z
-x,-y,z
x,-y,-z
-x,y,-z
-x,-y,-z
x,y,-z
-x,y,z
x,-y,z
1/2+x,1/2+y,1/2+z
1/2-x,1/2-y,1/2+z
1/2+x,1/2-y,1/2-z
1/2-x,1/2+y,1/2-z
1/2-x,1/2-y,1/2-z
1/2+x,1/2+y,1/2-z
1/2-x,1/2+y,1/2+z
1/2+x,1/2-y,1/2+z
loop_
_atom_site_type_symbol
_atom_site_label
_atom_site_fract_x
_atom_site_fract_y
_atom_site_fract_z
Si Si1 0.352278 0.625563 0.708490
Si Si2 0.734081 0.081848 0.294715
Si Si3 0.061298 0.415128 0.786333
Si Si4 0.560957 0.500000 0.208565
Si Si5 0.150997 0.297646 0.214503
O O1 0.345028 0.627738 0.500000
O O2 0.297776 0.589953 0.781918
O O3 0.403869 0.573563 0.742425
O O4 0.355204 0.711701 0.775692
O O5 0.719296 0.078895 0.500000
O O6 0.703940 0.156422 0.225805
O O7 0.718293 0.000000 0.217413
O O8 0.077383 0.500000 0.731765
O O9 0.101719 0.350500 0.729625
O O10 0.000000 0.402126 0.731366
O O11 0.061750 0.415027 0.000000
O O12 0.500000 0.500000 0.280045
O O13 0.557228 0.500000 0.000000
O O14 0.151119 0.293926 0.000000
#
# Coordination Sequence:
#
# PCOD9519922 Si02
#       5
#    16  16  16   8  16
#     4  11  22  36  56  82 113 142 177 232 286 331
#     4  10  19  33  55  79 111 153 190 222 266 328
#     4   8  13  23  41  66 100 140 178 217 262 315
#     4  11  25  45  65  81 103 143 192 235 282 345
#     4   9  18  30  47  77 111 145 184 226 274 327
#
# _framework density 21.437626000000002
#
# number of rings (size 3 to 8) (size 9 to 14) (size 15 to 20)
#    0.000    2.333    1.111    3.000    0.000    4.444 
#    0.000    3.333    0.000    0.000    0.000    0.000 
#    0.000    0.000    0.000   19.111    0.000   16.889 
#
# Total GULP energy -200977.143133 kJ/mol
# GULP energy per Si atom -5582.698420 kJ/mol
# Density = 2.138883 g / cm^3
# Si number density = 21.437626 Si / 1000 Ang^3
#
#
#
# Elastic Constant Matrix: (Units=GPa)
#
#
# Indices 1 2 3 4 5 6 
#
# 1 123.5199 87.9850 -12.9212 0.0000 0.0000 0.0000
# 2 87.9850 202.8674 3.0117 0.0000 0.0000 0.0000
# 3 -12.9212 3.0117 44.0304 0.0000 0.0000 0.0000
# 4 0.0000 0.0000 0.0000 3.0592 0.0000 0.0000
# 5 0.0000 0.0000 0.0000 0.0000 5.7392 0.0000
# 6 0.0000 0.0000 0.0000 0.0000 0.0000 0.2602
#
#
#
# Elastic Compliance Matrix: (Units=1/GPa)
#
#
# Indices 1 2 3 4 5 6 
#
# 1 0.012383 -0.005430 0.004005 0.000000 0.000000 0.000000
# 2 -0.005430 0.007315 -0.002094 0.000000 0.000000 0.000000
# 3 0.004005 -0.002094 0.024030 0.000000 0.000000 0.000000
# 4 0.000000 0.000000 0.000000 0.326878 0.000000 0.000000
# 5 0.000000 0.000000 0.000000 0.000000 0.174239 0.000000
# 6 0.000000 0.000000 0.000000 0.000000 0.000000 3.842835
#
#
# Mechanical properties :
#
#
# Convention : Reuss Voigt Hill
#
# Bulk Modulus (GPa) = 27.25451 58.50764 42.88107
# Shear Modulus (GPa) = 1.13457 21.30123 11.21790
#
# Velocity S-wave (km/s) = 0.72828 3.15562 2.29001
# Velocity P-wave (km/s) = 3.66718 6.37405 5.19984
#
# Compressibility (1/GPa) = 0.03669117
#
# Stress axis : x y z
#
# Youngs Moduli (GPa) = 80.75828 136.69798 41.61438
#
# Poissons Ratio (x) = 0.74226 -0.16667
# Poissons Ratio (y) = 0.43851 0.08713
# Poissons Ratio (z) = -0.32345 0.28622
#
# Static dielectric constant tensor:
#      x y z
#    x 1.759060 0.000000 0.000000 
#    y 0.000000 1.779850 0.000000 
#    z 0.000000 0.000000 1.818180 
# 
# From -- ./inp_files/7884.got.cif
#   From: 2010.05.17/outbox.cif.g08.bks.cpg/sg71_4_cif.got.tgz:7884.got - 2010.06.03 16:22:01.
