data_PCOD9519676
_publ_section_title
;
Structure prediction by ZEFSAII (Michael W. Deem and Ramdas Pophale) SiO2 
 PCOD9519676
Probable space group: I M M M
;
_chemical_formula_sum "Si O2"
_cell_formula_units_Z 72
_cell_length_a 8.184005
_cell_length_b 14.081520
_cell_length_c 29.655617
_cell_angle_alpha 90.000000
_cell_angle_beta 90.000000
_cell_angle_gamma 90.000000
_cell_volume 3417.609093
_symmetry_space_group_name_H-M "I M M M"
_symmetry_group_IT_number 71
_symmetry_cell_setting 'orthorhombic'
loop_
_space_group_symop_operation_xyz
x,y,z
-x,-y,z
x,-y,-z
-x,y,-z
-x,-y,-z
x,y,-z
-x,y,z
x,-y,z
1/2+x,1/2+y,1/2+z
1/2-x,1/2-y,1/2+z
1/2+x,1/2-y,1/2-z
1/2-x,1/2+y,1/2-z
1/2-x,1/2-y,1/2-z
1/2+x,1/2+y,1/2-z
1/2-x,1/2+y,1/2+z
1/2+x,1/2-y,1/2+z
loop_
_atom_site_type_symbol
_atom_site_label
_atom_site_fract_x
_atom_site_fract_y
_atom_site_fract_z
Si Si1 0.306935 0.500000 0.052475
Si Si2 0.310222 0.794192 0.950367
Si Si3 0.698576 0.286839 0.701214
Si Si4 0.688529 0.500000 0.677656
Si Si5 0.317389 0.834604 0.618413
Si Si6 0.814223 0.500000 0.419706
O O1 0.500000 0.500000 0.047361
O O2 0.261133 0.588534 0.084782
O O3 0.239815 0.500000 0.000000
O O4 0.500000 0.769974 0.938918
O O5 0.187330 0.756810 0.913571
O O6 0.297700 0.906762 0.949110
O O7 0.277118 0.755432 0.000000
O O8 0.500000 0.288219 0.697008
O O9 0.750000 0.250000 0.750000
O O10 0.756896 0.396192 0.692896
O O11 0.758366 0.208612 0.664237
O O12 0.500000 0.500000 0.692808
O O13 0.699972 0.500000 0.623603
O O14 0.500000 0.868406 0.628653
O O15 0.000000 0.500000 0.400876
#
# Coordination Sequence:
#
# PCOD9519676 Si02
#       6
#     8  16  16   8  16   8
#     4  11  25  44  65  90 123 166 214 263 317 382
#     4  10  20  34  54  84 122 161 201 242 288 350
#     4  10  23  41  64  91 122 159 204 256 310 369
#     4  10  20  40  62  85 121 158 191 240 301 358
#     4  11  23  40  62  89 121 157 202 259 314 368
#     4  10  19  32  55  85 117 157 197 234 279 337
#
# _framework density 21.067360999999998
#
# number of rings (size 3 to 8) (size 9 to 14) (size 15 to 20)
#    0.000    1.667    2.222    2.000    0.000    8.889 
#    0.000    2.222    0.000    2.000    0.000    0.000 
#    0.000    0.000    0.000    0.000    0.000    0.000 
#
# Total GULP energy -200533.353857 kJ/mol
# GULP energy per Si atom -5570.370940 kJ/mol
# Density = 2.101941 g / cm^3
# Si number density = 21.067361 Si / 1000 Ang^3
#
#
#
# Elastic Constant Matrix: (Units=GPa)
#
#
# Indices 1 2 3 4 5 6 
#
# 1 12.6859 14.2556 21.1562 0.0000 0.0000 0.0000
# 2 14.2556 115.4682 63.4355 0.0000 0.0000 0.0000
# 3 21.1562 63.4355 163.0383 0.0000 0.0000 0.0000
# 4 0.0000 0.0000 0.0000 17.2941 0.0000 0.0000
# 5 0.0000 0.0000 0.0000 0.0000 20.2062 0.0000
# 6 0.0000 0.0000 0.0000 0.0000 0.0000 16.1050
#
#
#
# Elastic Compliance Matrix: (Units=1/GPa)
#
#
# Indices 1 2 3 4 5 6 
#
# 1 0.104812 -0.006955 -0.010895 0.000000 0.000000 0.000000
# 2 -0.006955 0.011476 -0.003563 0.000000 0.000000 0.000000
# 3 -0.010895 -0.003563 0.008933 0.000000 0.000000 0.000000
# 4 0.000000 0.000000 0.000000 0.057823 0.000000 0.000000
# 5 0.000000 0.000000 0.000000 0.000000 0.049490 0.000000
# 6 0.000000 0.000000 0.000000 0.000000 0.000000 0.062092
#
#
# Mechanical properties :
#
#
# Convention : Reuss Voigt Hill
#
# Bulk Modulus (GPa) = 12.13631 54.32078 33.22855
# Shear Modulus (GPa) = 13.70175 23.54408 18.62291
#
# Velocity S-wave (km/s) = 2.55302 3.34662 2.97639
# Velocity P-wave (km/s) = 3.80312 6.38541 5.25534
#
# Compressibility (1/GPa) = 0.08239736
#
# Stress axis : x y z
#
# Youngs Moduli (GPa) = 9.54090 87.13588 111.93849
#
# Poissons Ratio (x) = 0.60600 1.21954
# Poissons Ratio (y) = 0.06635 0.39881
# Poissons Ratio (z) = 0.10395 0.31045
#
# Static dielectric constant tensor:
#      x y z
#    x 1.816110 0.000000 0.000000 
#    y 0.000000 1.854920 0.000000 
#    z 0.000000 0.000000 1.724750 
# 
# From -- ./inp_files/6217.got.cif
#   From: 2010.05.17/outbox.cif.g08.bks.cpg/sg71_4_cif.got.tgz:6217.got - 2010.06.03 16:22:01.
