data_PCOD9519132
_publ_section_title
;
Structure prediction by ZEFSAII (Michael W. Deem and Ramdas Pophale) SiO2 
 PCOD9519132
Probable space group: I M M M
;
_chemical_formula_sum "Si O2"
_cell_formula_units_Z 112
_cell_length_a 14.072153
_cell_length_b 15.685744
_cell_length_c 29.511256
_cell_angle_alpha 90.000000
_cell_angle_beta 90.000000
_cell_angle_gamma 90.000000
_cell_volume 6514.084151
_symmetry_space_group_name_H-M "I M M M"
_symmetry_group_IT_number 71
_symmetry_cell_setting 'orthorhombic'
loop_
_space_group_symop_operation_xyz
x,y,z
-x,-y,z
x,-y,-z
-x,y,-z
-x,-y,-z
x,y,-z
-x,y,z
x,-y,z
1/2+x,1/2+y,1/2+z
1/2-x,1/2-y,1/2+z
1/2+x,1/2-y,1/2-z
1/2-x,1/2+y,1/2-z
1/2-x,1/2-y,1/2-z
1/2+x,1/2+y,1/2-z
1/2-x,1/2+y,1/2+z
1/2+x,1/2-y,1/2+z
loop_
_atom_site_type_symbol
_atom_site_label
_atom_site_fract_x
_atom_site_fract_y
_atom_site_fract_z
Si Si1 0.715630 0.744419 0.603124
Si Si2 0.608893 0.597160 0.445598
Si Si3 0.105957 0.189949 0.806855
Si Si4 0.192442 0.093242 0.273554
Si Si5 0.612863 0.099838 0.554234
Si Si6 0.612481 0.740997 0.161234
Si Si7 0.895156 0.642477 0.744318
O O1 0.683022 0.666551 0.571560
O O2 0.666699 0.720493 0.650901
O O3 0.673276 0.831795 0.582439
O O4 0.826468 0.751030 0.615622
O O5 0.610499 0.596126 0.500000
O O6 0.500000 0.620253 0.432341
O O7 0.627390 0.500000 0.429722
O O8 0.149470 0.116742 0.775528
O O9 0.100869 0.270267 0.773063
O O10 0.000000 0.166946 0.821561
O O11 0.157961 0.163877 0.309315
O O12 0.305561 0.095386 0.265365
O O13 0.161511 0.000000 0.288381
O O14 0.627316 0.111908 0.500000
O O15 0.500000 0.113461 0.562958
O O16 0.633803 0.000000 0.564600
O O17 0.500000 0.726918 0.155115
O O18 0.622732 0.825239 0.192997
O O19 0.000000 0.602509 0.747172
#
# Coordination Sequence:
#
# PCOD9519132 Si02
#       7
#    16  16  16  16  16  16  16
#     4  12  19  32  57  80 106 138 177 218 273 312
#     4   9  19  35  55  83 116 144 170 204 257 330
#     4  10  19  31  49  74 101 131 173 217 254 303
#     4  11  20  34  52  72 102 141 178 217 267 315
#     4   9  19  35  54  80 112 142 173 209 258 327
#     4  10  21  37  54  70  98 139 183 222 258 309
#     4   9  17  35  53  67  96 138 175 210 256 308
#
# _framework density 17.193514
#
# number of rings (size 3 to 8) (size 9 to 14) (size 15 to 20)
#    0.000    2.000    2.857    4.714    0.000    3.714 
#    0.000    0.000    0.000    2.143    0.000    2.000 
#    0.000    0.000    0.000    0.000    0.000    0.000 
#
# Total GULP energy -312123.705866 kJ/mol
# GULP energy per Si atom -5573.637605 kJ/mol
# Density = 1.715438 g / cm^3
# Si number density = 17.193514 Si / 1000 Ang^3
#
#
#
# Elastic Constant Matrix: (Units=GPa)
#
#
# Indices 1 2 3 4 5 6 
#
# 1 118.0208 42.6984 30.1222 0.0000 0.0000 0.0000
# 2 42.6984 75.9666 23.0581 0.0000 0.0000 0.0000
# 3 30.1222 23.0581 46.4370 0.0000 0.0000 0.0000
# 4 0.0000 0.0000 0.0000 12.7933 0.0000 0.0000
# 5 0.0000 0.0000 0.0000 0.0000 30.7670 0.0000
# 6 0.0000 0.0000 0.0000 0.0000 0.0000 2.5037
#
#
#
# Elastic Compliance Matrix: (Units=1/GPa)
#
#
# Indices 1 2 3 4 5 6 
#
# 1 0.011554 -0.004968 -0.005028 0.000000 0.000000 0.000000
# 2 -0.004968 0.017636 -0.005535 0.000000 0.000000 0.000000
# 3 -0.005028 -0.005535 0.027544 0.000000 0.000000 0.000000
# 4 0.000000 0.000000 0.000000 0.078166 0.000000 0.000000
# 5 0.000000 0.000000 0.000000 0.000000 0.032502 0.000000
# 6 0.000000 0.000000 0.000000 0.000000 0.000000 0.399415
#
#
# Mechanical properties :
#
#
# Convention : Reuss Voigt Hill
#
# Bulk Modulus (GPa) = 38.95092 48.02019 43.48555
# Shear Modulus (GPa) = 8.24492 18.84918 13.54705
#
# Velocity S-wave (km/s) = 2.19221 3.31463 2.81003
# Velocity P-wave (km/s) = 5.39549 6.52985 5.98958
#
# Compressibility (1/GPa) = 0.02567333
#
# Stress axis : x y z
#
# Youngs Moduli (GPa) = 86.55317 56.70274 36.30558
#
# Poissons Ratio (x) = 0.28169 0.18253
# Poissons Ratio (y) = 0.42998 0.20093
# Poissons Ratio (z) = 0.43516 0.31382
#
# Static dielectric constant tensor:
#      x y z
#    x 1.615330 0.000000 0.000000 
#    y 0.000000 1.588090 0.000000 
#    z 0.000000 0.000000 1.584520 
# 
# From -- ./inp_files/70093.got.cif
#   From: 2010.05.17/outbox.cif.g08.bks.cpg/sg71_36_cif.got.tgz:70093.got - 2010.06.03 16:22:01.
