data_PCOD9519437
_publ_section_title
;
Structure prediction by ZEFSAII (Michael W. Deem and Ramdas Pophale) SiO2 
 PCOD9519437
Probable space group: I M M M
;
_chemical_formula_sum "Si O2"
_cell_formula_units_Z 104
_cell_length_a 7.553521
_cell_length_b 30.140465
_cell_length_c 21.485128
_cell_angle_alpha 90.000000
_cell_angle_beta 90.000000
_cell_angle_gamma 90.000000
_cell_volume 4891.446801
_symmetry_space_group_name_H-M "I M M M"
_symmetry_group_IT_number 71
_symmetry_cell_setting 'orthorhombic'
loop_
_space_group_symop_operation_xyz
x,y,z
-x,-y,z
x,-y,-z
-x,y,-z
-x,-y,-z
x,y,-z
-x,y,z
x,-y,z
1/2+x,1/2+y,1/2+z
1/2-x,1/2-y,1/2+z
1/2+x,1/2-y,1/2-z
1/2-x,1/2+y,1/2-z
1/2-x,1/2-y,1/2-z
1/2+x,1/2+y,1/2-z
1/2-x,1/2+y,1/2+z
1/2+x,1/2-y,1/2+z
loop_
_atom_site_type_symbol
_atom_site_label
_atom_site_fract_x
_atom_site_fract_y
_atom_site_fract_z
Si Si1 0.215961 0.450109 0.371071
Si Si2 0.208843 0.793121 0.820808
Si Si3 0.282500 0.448635 0.000000
Si Si4 0.786401 0.639602 0.431370
Si Si5 0.207234 0.192621 0.683555
Si Si6 0.797859 0.110978 0.613837
Si Si7 0.713569 0.948950 0.271814
O O1 0.274309 0.500000 0.387352
O O2 0.275360 0.409985 0.414177
O O3 0.267124 0.440329 0.299509
O O4 0.000000 0.450855 0.372105
O O5 0.238128 0.827037 0.876400
O O6 0.281933 0.810077 0.754051
O O7 0.281176 0.744110 0.834575
O O8 0.000000 0.786986 0.811950
O O9 0.221974 0.420772 0.939615
O O10 0.223707 0.500000 0.000000
O O11 0.500000 0.450654 0.000000
O O12 0.723682 0.652928 0.500000
O O13 0.000000 0.638348 0.432800
O O14 0.284658 0.158189 0.633607
O O15 0.000000 0.180512 0.687964
O O16 0.794381 0.083397 0.677849
O O17 0.000000 0.119277 0.593129
O O18 0.500000 0.944910 0.274784
O O19 0.759389 0.000000 0.286123
#
# Coordination Sequence:
#
# PCOD9519437 Si02
#       7
#    16  16   8  16  16  16  16
#     4   8  15  29  49  74 103 133 168 211 254 297
#     4  10  20  35  55  77 103 135 167 209 263 314
#     4   9  18  32  49  71 101 135 167 201 248 303
#     4  10  20  33  51  76 104 137 174 210 250 298
#     4   9  19  35  55  79 103 127 166 216 263 310
#     4  10  19  32  51  74  99 130 168 210 253 303
#     4   9  17  29  47  72 101 132 166 207 255 301
#
# _framework density 21.261602
#
# number of rings (size 3 to 8) (size 9 to 14) (size 15 to 20)
#    0.000    2.692    0.000    2.769    0.000    2.769 
#    1.385    1.923    0.000    2.769    0.000    1.077 
#    0.000    0.000    0.000    0.000    0.000    0.000 
#
# Total GULP energy -290173.513534 kJ/mol
# GULP energy per Si atom -5580.259876 kJ/mol
# Density = 2.121321 g / cm^3
# Si number density = 21.261602 Si / 1000 Ang^3
#
#
#
# Elastic Constant Matrix: (Units=GPa)
#
#
# Indices 1 2 3 4 5 6 
#
# 1 49.8936 1.3743 0.7924 0.0000 0.0000 0.0000
# 2 1.3743 142.0526 94.6151 0.0000 0.0000 0.0000
# 3 0.7924 94.6151 92.2985 0.0000 0.0000 0.0000
# 4 0.0000 0.0000 0.0000 22.8812 0.0000 0.0000
# 5 0.0000 0.0000 0.0000 0.0000 19.3005 0.0000
# 6 0.0000 0.0000 0.0000 0.0000 0.0000 -13.6577
#
#
#
# Elastic Compliance Matrix: (Units=1/GPa)
#
#
# Indices 1 2 3 4 5 6 
#
# 1 0.020048 -0.000250 0.000084 0.000000 0.000000 0.000000
# 2 -0.000250 0.022194 -0.022749 0.000000 0.000000 0.000000
# 3 0.000084 -0.022749 0.034154 0.000000 0.000000 0.000000
# 4 0.000000 0.000000 0.000000 0.043704 0.000000 0.000000
# 5 0.000000 0.000000 0.000000 0.000000 0.051812 0.000000
# 6 0.000000 0.000000 0.000000 0.000000 0.000000 -0.073219
#
#
# Mechanical properties :
#
#
# Convention : Reuss Voigt Hill
#
# Bulk Modulus (GPa) = 32.71576 53.08980 42.90278
# Shear Modulus (GPa) = 32.31790 18.20234 25.26012
#
# Velocity S-wave (km/s) = 3.90296 2.92912 3.45057
# Velocity P-wave (km/s) = 5.97758 6.03851 6.00812
#
# Compressibility (1/GPa) = 0.03056630
#
# Stress axis : x y z
#
# Youngs Moduli (GPa) = 49.87977 45.05643 29.27915
#
# Poissons Ratio (x) = 0.01127 -0.00247
# Poissons Ratio (y) = 0.01247 0.66608
# Poissons Ratio (z) = -0.00420 1.02500
#
# Static dielectric constant tensor:
#      x y z
#    x 1.883080 0.000000 0.000000 
#    y 0.000000 1.757430 0.000000 
#    z 0.000000 0.000000 1.756210 
# 
# From -- ./inp_files/51159.got.cif
#   From: 2010.05.17/outbox.cif.g08.bks.cpg/sg71_26_cif.got.tgz:51159.got - 2010.06.03 16:22:01.
