data_PCOD9519003
_publ_section_title
;
Structure prediction by ZEFSAII (Michael W. Deem and Ramdas Pophale) SiO2 
 PCOD9519003
Probable space group: I M M M
;
_chemical_formula_sum "Si O2"
_cell_formula_units_Z 104
_cell_length_a 21.140307
_cell_length_b 7.350450
_cell_length_c 26.974614
_cell_angle_alpha 90.000000
_cell_angle_beta 90.000000
_cell_angle_gamma 90.000000
_cell_volume 4191.606029
_symmetry_space_group_name_H-M "I M M M"
_symmetry_group_IT_number 71
_symmetry_cell_setting 'orthorhombic'
loop_
_space_group_symop_operation_xyz
x,y,z
-x,-y,z
x,-y,-z
-x,y,-z
-x,-y,-z
x,y,-z
-x,y,z
x,-y,z
1/2+x,1/2+y,1/2+z
1/2-x,1/2-y,1/2+z
1/2+x,1/2-y,1/2-z
1/2-x,1/2+y,1/2-z
1/2-x,1/2-y,1/2-z
1/2+x,1/2+y,1/2-z
1/2-x,1/2+y,1/2+z
1/2+x,1/2-y,1/2+z
loop_
_atom_site_type_symbol
_atom_site_label
_atom_site_fract_x
_atom_site_fract_y
_atom_site_fract_z
Si Si1 0.924083 0.280091 0.500000
Si Si2 0.568566 0.777636 0.581989
Si Si3 0.710785 0.219242 0.445653
Si Si4 0.263267 0.711664 0.335240
Si Si5 0.097356 0.703306 0.189627
Si Si6 0.425880 0.220168 0.104626
Si Si7 0.133012 0.276588 0.293305
O O1 0.919202 0.500000 0.500000
O O2 0.897691 0.213946 0.447631
O O3 0.000000 0.242166 0.500000
O O4 0.500000 0.724818 0.560370
O O5 0.636362 0.722599 0.559472
O O6 0.569773 0.715338 0.639468
O O7 0.570059 0.000000 0.581464
O O8 0.734379 0.280111 0.500000
O O9 0.746308 0.275441 0.395003
O O10 0.711235 0.000000 0.445370
O O11 0.272995 0.500000 0.324374
O O12 0.328133 0.808664 0.322709
O O13 0.205715 0.777223 0.301475
O O14 0.070860 0.500000 0.193744
O O15 0.097413 0.787875 0.244098
O O16 0.500000 0.261009 0.104034
O O17 0.398285 0.284902 0.155844
O O18 0.419453 0.000000 0.105036
O O19 0.131966 0.500000 0.291328
#
# Coordination Sequence:
#
# PCOD9519003 Si02
#       7
#     8  16  16  16  16  16  16
#     4   7  10  18  32  48  72 110 143 163 200 265
#     4   8  14  25  44  71  95 115 146 187 230 273
#     4   9  18  33  51  69  93 125 156 189 231 277
#     4  10  19  31  46  66  93 122 156 192 227 268
#     4   9  17  30  47  65  91 123 153 187 228 273
#     4   8  13  22  36  56  84 116 147 180 224 276
#     4   9  17  27  40  63  90 118 155 192 226 270
#
# _framework density 24.811489999999999
#
# number of rings (size 3 to 8) (size 9 to 14) (size 15 to 20)
#    0.000    3.308    0.000    2.769    0.000    1.231 
#    1.385    5.385    0.000    7.385    0.000    4.308 
#    0.000    4.923    0.000    1.692    0.000    1.231 
#
# Total GULP energy -290146.720330 kJ/mol
# GULP energy per Si atom -5579.744622 kJ/mol
# Density = 2.475502 g / cm^3
# Si number density = 24.811490 Si / 1000 Ang^3
#
#
#
# Elastic Constant Matrix: (Units=GPa)
#
#
# Indices 1 2 3 4 5 6 
#
# 1 16.2369 4.0925 9.3071 0.0000 0.0000 0.0000
# 2 4.0925 99.5339 -2.2994 0.0000 0.0000 0.0000
# 3 9.3071 -2.2994 163.4859 0.0000 0.0000 0.0000
# 4 0.0000 0.0000 0.0000 2.4523 0.0000 0.0000
# 5 0.0000 0.0000 0.0000 0.0000 10.0698 0.0000
# 6 0.0000 0.0000 0.0000 0.0000 0.0000 -9.5641
#
#
#
# Elastic Compliance Matrix: (Units=1/GPa)
#
#
# Indices 1 2 3 4 5 6 
#
# 1 0.064400 -0.002733 -0.003705 0.000000 0.000000 0.000000
# 2 -0.002733 0.010166 0.000299 0.000000 0.000000 0.000000
# 3 -0.003705 0.000299 0.006332 0.000000 0.000000 0.000000
# 4 0.000000 0.000000 0.000000 0.407785 0.000000 0.000000
# 5 0.000000 0.000000 0.000000 0.000000 0.099307 0.000000
# 6 0.000000 0.000000 0.000000 0.000000 0.000000 -0.104557
#
#
# Mechanical properties :
#
#
# Convention : Reuss Voigt Hill
#
# Bulk Modulus (GPa) = 14.57318 33.49524 24.03421
# Shear Modulus (GPa) = 9.64162 18.46869 14.05515
#
# Velocity S-wave (km/s) = 1.97342 2.73126 2.38266
# Velocity P-wave (km/s) = 3.32849 4.84516 4.15658
#
# Compressibility (1/GPa) = 0.06861919
#
# Stress axis : x y z
#
# Youngs Moduli (GPa) = 15.52784 98.36595 157.93195
#
# Poissons Ratio (x) = 0.26888 0.58509
# Poissons Ratio (y) = 0.04245 -0.04716
# Poissons Ratio (z) = 0.05753 -0.02937
#
# Static dielectric constant tensor:
#      x y z
#    x 1.960160 0.000000 0.000000 
#    y 0.000000 1.958160 0.000000 
#    z 0.000000 0.000000 2.002780 
# 
# From -- ./inp_files/66787.got.cif
#   From: 2010.05.17/outbox.cif.g08.bks.cpg/sg71_34_cif.got.tgz:66787.got - 2010.06.03 16:22:01.
