data_PCOD9519066
_publ_section_title
;
Structure prediction by ZEFSAII (Michael W. Deem and Ramdas Pophale) SiO2 
 PCOD9519066
Probable space group: I M M M
;
_chemical_formula_sum "Si O2"
_cell_formula_units_Z 96
_cell_length_a 19.342997
_cell_length_b 9.069345
_cell_length_c 32.662385
_cell_angle_alpha 90.000000
_cell_angle_beta 90.000000
_cell_angle_gamma 90.000000
_cell_volume 5729.907103
_symmetry_space_group_name_H-M "I M M M"
_symmetry_group_IT_number 71
_symmetry_cell_setting 'orthorhombic'
loop_
_space_group_symop_operation_xyz
x,y,z
-x,-y,z
x,-y,-z
-x,y,-z
-x,-y,-z
x,y,-z
-x,y,z
x,-y,z
1/2+x,1/2+y,1/2+z
1/2-x,1/2-y,1/2+z
1/2+x,1/2-y,1/2-z
1/2-x,1/2+y,1/2-z
1/2-x,1/2-y,1/2-z
1/2+x,1/2+y,1/2-z
1/2-x,1/2+y,1/2+z
1/2+x,1/2-y,1/2+z
loop_
_atom_site_type_symbol
_atom_site_label
_atom_site_fract_x
_atom_site_fract_y
_atom_site_fract_z
Si Si1 0.664897 0.675238 0.672941
Si Si2 0.420661 0.676223 0.590822
Si Si3 0.711826 0.676568 0.126008
Si Si4 0.920491 0.676378 0.339652
Si Si5 0.703705 0.822679 0.453970
Si Si6 0.920027 0.676364 0.243313
O O1 0.675589 0.500000 0.675926
O O2 0.610316 0.704193 0.636083
O O3 0.735376 0.753519 0.658949
O O4 0.632534 0.739353 0.714183
O O5 0.500000 0.724751 0.587876
O O6 0.418061 0.500000 0.584321
O O7 0.369509 0.754732 0.559311
O O8 0.713081 0.500000 0.129263
O O9 0.636093 0.738743 0.134294
O O10 0.741844 0.719689 0.081361
O O11 0.912618 0.500000 0.344723
O O12 0.909480 0.708375 0.291343
O O13 0.000000 0.714372 0.349475
O O14 0.722629 0.777229 0.500000
O O15 0.698279 0.000000 0.453061
O O16 0.912685 0.500000 0.237758
O O17 0.000000 0.714863 0.233296
#
# Coordination Sequence:
#
# PCOD9519066 Si02
#       6
#    16  16  16  16  16  16
#     4  10  19  31  48  70  99 135 171 205 240 278
#     4   9  18  31  46  68  99 132 166 203 240 277
#     4  10  20  34  53  75  97 124 160 200 242 289
#     4   9  19  36  55  74  98 127 157 194 243 293
#     4   9  19  35  52  71  96 125 158 197 241 288
#     4   9  18  32  49  70  98 132 168 204 241 280
#
# _framework density 16.754199
#
# number of rings (size 3 to 8) (size 9 to 14) (size 15 to 20)
#    0.000    2.667    0.000    2.500    0.000    5.000 
#    0.000    3.333    0.000    0.500    0.000    3.500 
#    0.000    0.000    0.000    0.000    0.000    0.000 
#
# Total GULP energy -267738.459343 kJ/mol
# GULP energy per Si atom -5577.884570 kJ/mol
# Density = 1.671607 g / cm^3
# Si number density = 16.754199 Si / 1000 Ang^3
#
#
#
# Elastic Constant Matrix: (Units=GPa)
#
#
# Indices 1 2 3 4 5 6 
#
# 1 134.3654 51.6108 70.3175 0.0000 0.0000 0.0000
# 2 51.6108 31.9457 34.5393 0.0000 0.0000 0.0000
# 3 70.3175 34.5393 57.6895 0.0000 0.0000 0.0000
# 4 0.0000 0.0000 0.0000 22.9244 0.0000 0.0000
# 5 0.0000 0.0000 0.0000 0.0000 9.0721 0.0000
# 6 0.0000 0.0000 0.0000 0.0000 0.0000 29.3066
#
#
#
# Elastic Compliance Matrix: (Units=1/GPa)
#
#
# Indices 1 2 3 4 5 6 
#
# 1 0.024614 -0.020779 -0.017562 0.000000 0.000000 0.000000
# 2 -0.020779 0.106297 -0.038314 0.000000 0.000000 0.000000
# 3 -0.017562 -0.038314 0.061679 0.000000 0.000000 0.000000
# 4 0.000000 0.000000 0.000000 0.043622 0.000000 0.000000
# 5 0.000000 0.000000 0.000000 0.000000 0.110228 0.000000
# 6 0.000000 0.000000 0.000000 0.000000 0.000000 0.034122
#
#
# Mechanical properties :
#
#
# Convention : Reuss Voigt Hill
#
# Bulk Modulus (GPa) = 25.45727 59.65955 42.55841
# Shear Modulus (GPa) = 9.14133 16.76282 12.95207
#
# Velocity S-wave (km/s) = 2.33837 3.16652 2.78342
# Velocity P-wave (km/s) = 4.74533 7.00394 5.98220
#
# Compressibility (1/GPa) = 0.03928151
#
# Stress axis : x y z
#
# Youngs Moduli (GPa) = 40.62670 9.40758 16.21287
#
# Poissons Ratio (x) = 0.19548 0.28473
# Poissons Ratio (y) = 0.84417 0.62118
# Poissons Ratio (z) = 0.71348 0.36044
#
# Static dielectric constant tensor:
#      x y z
#    x 1.549350 0.000000 0.000000 
#    y 0.000000 1.555410 0.000000 
#    z 0.000000 0.000000 1.558280 
# 
# From -- ./inp_files/66341.got.cif
#   From: 2010.05.17/outbox.cif.g08.bks.cpg/sg71_34_cif.got.tgz:66341.got - 2010.06.03 16:22:01.
