data_PCOD9519605
_publ_section_title
;
Structure prediction by ZEFSAII (Michael W. Deem and Ramdas Pophale) SiO2 
 PCOD9519605
Probable space group: I M M M
;
_chemical_formula_sum "Si O2"
_cell_formula_units_Z 72
_cell_length_a 14.270577
_cell_length_b 13.911356
_cell_length_c 16.958996
_cell_angle_alpha 90.000000
_cell_angle_beta 90.000000
_cell_angle_gamma 90.000000
_cell_volume 3366.752068
_symmetry_space_group_name_H-M "I M M M"
_symmetry_group_IT_number 71
_symmetry_cell_setting 'orthorhombic'
loop_
_space_group_symop_operation_xyz
x,y,z
-x,-y,z
x,-y,-z
-x,y,-z
-x,-y,-z
x,y,-z
-x,y,z
x,-y,z
1/2+x,1/2+y,1/2+z
1/2-x,1/2-y,1/2+z
1/2+x,1/2-y,1/2-z
1/2-x,1/2+y,1/2-z
1/2-x,1/2-y,1/2-z
1/2+x,1/2+y,1/2-z
1/2-x,1/2+y,1/2+z
1/2+x,1/2-y,1/2+z
loop_
_atom_site_type_symbol
_atom_site_label
_atom_site_fract_x
_atom_site_fract_y
_atom_site_fract_z
Si Si1 0.606600 0.615053 0.254170
Si Si2 0.612562 0.723416 0.586398
Si Si3 0.890708 0.383238 0.329708
Si Si4 0.714182 0.114874 0.332302
Si Si5 0.614808 0.112516 0.000000
O O1 0.500000 0.643858 0.237668
O O2 0.610130 0.500000 0.261497
O O3 0.635679 0.657025 0.338868
O O4 0.678048 0.640350 0.184868
O O5 0.635045 0.682532 0.500000
O O6 0.500000 0.738591 0.589198
O O7 0.665418 0.823291 0.600807
O O8 0.886277 0.500000 0.333954
O O9 0.836846 0.357737 0.250325
O O10 0.855610 0.346516 0.415044
O O11 0.000000 0.358088 0.320834
O O12 0.705035 0.000000 0.343985
O O13 0.500000 0.114639 0.000000
O O14 0.641840 0.000000 0.000000
#
# Coordination Sequence:
#
# PCOD9519605 Si02
#       5
#    16  16  16  16   8
#     4   9  19  37  59  80 103 139 190 240 280 319
#     4  10  21  36  55  81 114 149 182 223 276 331
#     4   8  13  22  38  63  97 134 167 202 251 314
#     4  10  19  32  53  81 110 143 181 221 272 333
#     4   7  10  18  32  52  85 127 164 198 239 292
#
# _framework density 21.385598000000002
#
# number of rings (size 3 to 8) (size 9 to 14) (size 15 to 20)
#    0.000    3.000    0.000    2.667    0.000    2.222 
#    2.000    3.333    0.000    0.667    0.000    3.111 
#    0.000    0.000    0.000    0.222    0.000    0.000 
#
# Total GULP energy -200993.575195 kJ/mol
# GULP energy per Si atom -5583.154867 kJ/mol
# Density = 2.133692 g / cm^3
# Si number density = 21.385598 Si / 1000 Ang^3
#
#
#
# Elastic Constant Matrix: (Units=GPa)
#
#
# Indices 1 2 3 4 5 6 
#
# 1 42.4172 -12.1952 11.0522 0.0000 0.0000 0.0000
# 2 -12.1952 49.9014 10.4350 0.0000 0.0000 0.0000
# 3 11.0522 10.4350 58.0306 0.0000 0.0000 0.0000
# 4 0.0000 0.0000 0.0000 25.1705 0.0000 0.0000
# 5 0.0000 0.0000 0.0000 0.0000 26.7554 0.0000
# 6 0.0000 0.0000 0.0000 0.0000 0.0000 13.6488
#
#
#
# Elastic Compliance Matrix: (Units=1/GPa)
#
#
# Indices 1 2 3 4 5 6 
#
# 1 0.027682 0.008175 -0.006742 0.000000 0.000000 0.000000
# 2 0.008175 0.023237 -0.005735 0.000000 0.000000 0.000000
# 3 -0.006742 -0.005735 0.019548 0.000000 0.000000 0.000000
# 4 0.000000 0.000000 0.000000 0.039729 0.000000 0.000000
# 5 0.000000 0.000000 0.000000 0.000000 0.037376 0.000000
# 6 0.000000 0.000000 0.000000 0.000000 0.000000 0.073266
#
#
# Mechanical properties :
#
#
# Convention : Reuss Voigt Hill
#
# Bulk Modulus (GPa) = 16.16507 18.77036 17.46772
# Shear Modulus (GPa) = 19.99491 22.51877 21.25684
#
# Velocity S-wave (km/s) = 3.06105 3.24850 3.15616
# Velocity P-wave (km/s) = 4.47980 4.78189 4.63331
#
# Compressibility (1/GPa) = 0.06186178
#
# Stress axis : x y z
#
# Youngs Moduli (GPa) = 36.12391 43.03533 51.15691
#
# Poissons Ratio (x) = -0.35182 0.34491
# Poissons Ratio (y) = -0.29532 0.29340
# Poissons Ratio (z) = 0.24356 0.24682
#
# Static dielectric constant tensor:
#      x y z
#    x 1.814970 0.000000 0.000000 
#    y 0.000000 1.766820 0.000000 
#    z 0.000000 0.000000 1.762310 
# 
# From -- ./inp_files/36068.got.cif
#   From: 2010.05.17/outbox.cif.g08.bks.cpg/sg71_19_cif.got.tgz:36068.got - 2010.06.03 16:22:01.
