data_PCOD9519736
_publ_section_title
;
Structure prediction by ZEFSAII (Michael W. Deem and Ramdas Pophale) SiO2 
 PCOD9519736
Probable space group: I M M M
;
_chemical_formula_sum "Si O2"
_cell_formula_units_Z 88
_cell_length_a 8.312724
_cell_length_b 28.042925
_cell_length_c 20.291102
_cell_angle_alpha 90.000000
_cell_angle_beta 90.000000
_cell_angle_gamma 90.000000
_cell_volume 4730.121602
_symmetry_space_group_name_H-M "I M M M"
_symmetry_group_IT_number 71
_symmetry_cell_setting 'orthorhombic'
loop_
_space_group_symop_operation_xyz
x,y,z
-x,-y,z
x,-y,-z
-x,y,-z
-x,-y,-z
x,y,-z
-x,y,z
x,-y,z
1/2+x,1/2+y,1/2+z
1/2-x,1/2-y,1/2+z
1/2+x,1/2-y,1/2-z
1/2-x,1/2+y,1/2-z
1/2-x,1/2-y,1/2-z
1/2+x,1/2+y,1/2-z
1/2-x,1/2+y,1/2+z
1/2+x,1/2-y,1/2+z
loop_
_atom_site_type_symbol
_atom_site_label
_atom_site_fract_x
_atom_site_fract_y
_atom_site_fract_z
Si Si1 0.182371 0.000000 0.920912
Si Si2 0.500000 0.362401 0.923819
Si Si3 0.175824 0.756441 0.146127
Si Si4 0.818642 0.149317 0.208156
Si Si5 0.690469 0.104176 0.923616
Si Si6 0.000000 0.253230 0.426826
Si Si7 0.679122 0.141683 0.657381
O O1 0.273595 0.048879 0.905876
O O2 0.000000 0.000000 0.893796
O O3 0.169680 0.000000 0.000000
O O4 0.500000 0.304470 0.926587
O O5 0.333766 0.374859 0.885422
O O6 0.500000 0.379119 0.000000
O O7 0.182161 0.792798 0.207313
O O8 0.335805 0.768453 0.106586
O O9 0.180088 0.699697 0.155990
O O10 0.000000 0.766424 0.114398
O O11 0.775180 0.133365 0.134487
O O12 0.706337 0.129772 0.265741
O O13 0.000000 0.134242 0.223703
O O14 0.500000 0.113020 0.921533
O O15 0.744843 0.112429 0.000000
O O16 0.000000 0.271980 0.500000
O O17 0.500000 0.126484 0.635020
#
# Coordination Sequence:
#
# PCOD9519736 Si02
#       7
#     8   8  16  16  16   8  16
#     4   9  17  33  55  73  93 127 169 210 257 310
#     4   9  18  34  50  70  93 120 161 203 246 301
#     4   9  20  32  45  66  91 125 167 209 253 308
#     4  11  21  33  48  70  98 128 168 212 254 302
#     4  10  21  35  51  73 100 133 173 216 259 306
#     4   9  18  30  46  62  86 120 158 205 255 295
#     4  10  19  33  51  71  96 129 166 211 258 305
#
# _framework density 18.604171999999998
#
# number of rings (size 3 to 8) (size 9 to 14) (size 15 to 20)
#    0.000    2.273    0.909    1.909    2.545    3.636 
#    0.000    5.455    0.000    0.000    0.000    0.000 
#    0.000    0.000    0.000    1.636    0.000    6.545 
#
# Total GULP energy -245040.278398 kJ/mol
# GULP energy per Si atom -5569.097236 kJ/mol
# Density = 1.856183 g / cm^3
# Si number density = 18.604172 Si / 1000 Ang^3
#
#
#
# Elastic Constant Matrix: (Units=GPa)
#
#
# Indices 1 2 3 4 5 6 
#
# 1 155.4231 -1.1989 57.9594 0.0000 0.0000 0.0000
# 2 -1.1989 27.4034 2.0777 0.0000 0.0000 0.0000
# 3 57.9594 2.0777 81.9495 -0.0001 0.0000 0.0000
# 4 0.0000 0.0000 -0.0001 8.8118 0.0000 0.0000
# 5 0.0000 0.0000 0.0000 0.0000 -11.0292 0.0000
# 6 0.0000 0.0000 0.0000 0.0000 0.0000 19.5571
#
#
#
# Elastic Compliance Matrix: (Units=1/GPa)
#
#
# Indices 1 2 3 4 5 6 
#
# 1 0.008759 0.000855 -0.006216 0.000000 0.000000 0.000000
# 2 0.000855 0.036646 -0.001533 0.000000 0.000000 0.000000
# 3 -0.006216 -0.001533 0.016638 0.000000 0.000000 0.000000
# 4 0.000000 0.000000 0.000000 0.113485 0.000000 0.000000
# 5 0.000000 0.000000 0.000000 0.000000 -0.090668 0.000000
# 6 0.000000 0.000000 0.000000 0.000000 0.000000 0.051132
#
#
# Mechanical properties :
#
#
# Convention : Reuss Voigt Hill
#
# Bulk Modulus (GPa) = 20.72464 42.49472 31.60968
# Shear Modulus (GPa) = 30.14485 17.19711 23.67098
#
# Velocity S-wave (km/s) = 4.02970 3.04364 3.57087
# Velocity P-wave (km/s) = 5.72846 5.93656 5.83344
#
# Compressibility (1/GPa) = 0.04825174
#
# Stress axis : x y z
#
# Youngs Moduli (GPa) = 114.17049 27.28847 60.10292
#
# Poissons Ratio (x) = -0.02332 0.37362
# Poissons Ratio (y) = -0.09756 0.09217
# Poissons Ratio (z) = 0.70973 0.04185
#
# Static dielectric constant tensor:
#      x y z
#    x 1.650550 0.000000 0.000000 
#    y 0.000000 1.641150 0.000000 
#    z 0.000000 0.000000 1.649230 
# 
# From -- ./inp_files/42521.got.cif
#   From: 2010.05.17/outbox.cif.g08.bks.cpg/sg71_22_cif.got.tgz:42521.got - 2010.06.03 16:22:01.
