data_PCOD9519546
_publ_section_title
;
Structure prediction by ZEFSAII (Michael W. Deem and Ramdas Pophale) SiO2 
 PCOD9519546
Probable space group: I M M M
;
_chemical_formula_sum "Si O2"
_cell_formula_units_Z 104
_cell_length_a 9.958493
_cell_length_b 23.762801
_cell_length_c 26.890956
_cell_angle_alpha 90.000000
_cell_angle_beta 90.000000
_cell_angle_gamma 90.000000
_cell_volume 6363.521204
_symmetry_space_group_name_H-M "I M M M"
_symmetry_group_IT_number 71
_symmetry_cell_setting 'orthorhombic'
loop_
_space_group_symop_operation_xyz
x,y,z
-x,-y,z
x,-y,-z
-x,y,-z
-x,-y,-z
x,y,-z
-x,y,z
x,-y,z
1/2+x,1/2+y,1/2+z
1/2-x,1/2-y,1/2+z
1/2+x,1/2-y,1/2-z
1/2-x,1/2+y,1/2-z
1/2-x,1/2-y,1/2-z
1/2+x,1/2+y,1/2-z
1/2-x,1/2+y,1/2+z
1/2+x,1/2-y,1/2+z
loop_
_atom_site_type_symbol
_atom_site_label
_atom_site_fract_x
_atom_site_fract_y
_atom_site_fract_z
Si Si1 0.340656 0.655758 0.581588
Si Si2 0.000000 0.567749 0.059532
Si Si3 0.340295 0.686873 0.801509
Si Si4 0.155949 0.203421 0.812988
Si Si5 0.754861 0.125667 0.391704
Si Si6 0.162026 0.064129 0.000000
Si Si7 0.654891 0.739025 0.942281
Si Si8 0.500000 0.566707 0.943350
O O1 0.500000 0.666460 0.571551
O O2 0.324751 0.659740 0.641581
O O3 0.303504 0.600436 0.549533
O O4 0.245294 0.705829 0.563253
O O5 0.875460 0.596035 0.087228
O O6 0.000000 0.500000 0.064480
O O7 0.000000 0.579987 0.000000
O O8 0.500000 0.691035 0.813407
O O9 0.260599 0.744634 0.814821
O O10 0.328882 0.678499 0.742257
O O11 0.273685 0.636904 0.833250
O O12 0.000000 0.224089 0.817082
O O13 0.775506 0.187886 0.414070
O O14 0.873884 0.088908 0.413750
O O15 0.000000 0.060546 0.000000
O O16 0.214308 0.000000 0.000000
O O17 0.500000 0.747127 0.925399
O O18 0.649937 0.723761 0.000000
O O19 0.500000 0.500000 0.945644
O O20 0.500000 0.588696 0.000000
#
# Coordination Sequence:
#
# PCOD9519546 Si02
#       8
#    16   8  16  16  16   8  16   8
#     4  10  19  32  52  80 107 140 178 225 268 324
#     4  11  26  44  58  77 108 148 192 238 285 335
#     4  10  19  33  51  79 112 146 181 219 274 337
#     4   9  19  32  50  77 116 146 176 220 274 335
#     4  12  22  36  56  80 107 145 184 234 276 334
#     4   9  18  34  55  79 107 143 182 217 264 323
#     4  11  21  31  47  77 116 140 167 217 280 327
#     4  11  22  38  58  77 104 144 188 228 273 333
#
# _framework density 16.343153999999998
#
# number of rings (size 3 to 8) (size 9 to 14) (size 15 to 20)
#    0.000    1.615    3.846    1.846    2.154    1.231 
#    0.000    0.000    0.000    2.769    0.000    0.000 
#    0.000    0.000    0.000    0.000    0.000    0.000 
#
# Total GULP energy -289744.672209 kJ/mol
# GULP energy per Si atom -5572.012927 kJ/mol
# Density = 1.630596 g / cm^3
# Si number density = 16.343154 Si / 1000 Ang^3
#
#
#
# Elastic Constant Matrix: (Units=GPa)
#
#
# Indices 1 2 3 4 5 6 
#
# 1 104.8892 44.1174 44.9130 0.0000 0.0000 0.0000
# 2 44.1174 97.8842 52.1453 0.0000 0.0000 0.0000
# 3 44.9130 52.1453 133.8366 0.0000 0.0000 0.0000
# 4 0.0000 0.0000 0.0000 22.8064 0.0000 0.0000
# 5 0.0000 0.0000 0.0000 0.0000 23.0628 0.0000
# 6 0.0000 0.0000 0.0000 0.0000 0.0000 21.7245
#
#
#
# Elastic Compliance Matrix: (Units=1/GPa)
#
#
# Indices 1 2 3 4 5 6 
#
# 1 0.012394 -0.004253 -0.002502 0.000000 0.000000 0.000000
# 2 -0.004253 0.014352 -0.004164 0.000000 0.000000 0.000000
# 3 -0.002502 -0.004164 0.009934 0.000000 0.000000 0.000000
# 4 0.000000 0.000000 0.000000 0.043847 0.000000 0.000000
# 5 0.000000 0.000000 0.000000 0.000000 0.043360 0.000000
# 6 0.000000 0.000000 0.000000 0.000000 0.000000 0.046031
#
#
# Mechanical properties :
#
#
# Convention : Reuss Voigt Hill
#
# Bulk Modulus (GPa) = 67.38387 68.77348 68.07867
# Shear Modulus (GPa) = 25.41888 26.54769 25.98328
#
# Velocity S-wave (km/s) = 3.94804 4.03475 3.99163
# Velocity P-wave (km/s) = 7.88053 7.99236 7.93664
#
# Compressibility (1/GPa) = 0.01484035
#
# Stress axis : x y z
#
# Youngs Moduli (GPa) = 80.68271 69.67867 100.66477
#
# Poissons Ratio (x) = 0.29636 0.25187
# Poissons Ratio (y) = 0.34317 0.41920
# Poissons Ratio (z) = 0.20188 0.29017
#
# Static dielectric constant tensor:
#      x y z
#    x 1.548620 0.000000 0.000000 
#    y 0.000000 1.533430 0.000000 
#    z 0.000000 0.000000 1.599420 
# 
# From -- ./inp_files/63600.got.cif
#   From: 2010.05.17/outbox.cif.g08.bks.cpg/sg71_32_cif.got.tgz:63600.got - 2010.06.03 16:22:01.
