data_PCOD9519028
_publ_section_title
;
Structure prediction by ZEFSAII (Michael W. Deem and Ramdas Pophale) SiO2 
 PCOD9519028
Probable space group: I M M M
;
_chemical_formula_sum "Si O2"
_cell_formula_units_Z 104
_cell_length_a 28.034451
_cell_length_b 10.356862
_cell_length_c 20.819216
_cell_angle_alpha 90.000000
_cell_angle_beta 90.000000
_cell_angle_gamma 90.000000
_cell_volume 6044.837302
_symmetry_space_group_name_H-M "I M M M"
_symmetry_group_IT_number 71
_symmetry_cell_setting 'orthorhombic'
loop_
_space_group_symop_operation_xyz
x,y,z
-x,-y,z
x,-y,-z
-x,y,-z
-x,-y,-z
x,y,-z
-x,y,z
x,-y,z
1/2+x,1/2+y,1/2+z
1/2-x,1/2-y,1/2+z
1/2+x,1/2-y,1/2-z
1/2-x,1/2+y,1/2-z
1/2-x,1/2-y,1/2-z
1/2+x,1/2+y,1/2-z
1/2-x,1/2+y,1/2+z
1/2+x,1/2-y,1/2+z
loop_
_atom_site_type_symbol
_atom_site_label
_atom_site_fract_x
_atom_site_fract_y
_atom_site_fract_z
Si Si1 0.755720 0.346391 0.873866
Si Si2 0.689188 0.852415 0.811123
Si Si3 0.808784 0.149131 0.500000
Si Si4 0.393137 0.140412 0.000000
Si Si5 0.947075 0.656444 0.229938
Si Si6 0.942779 0.000000 0.422542
Si Si7 0.911285 0.270701 0.630856
Si Si8 0.353388 0.852287 0.332451
O O1 0.754865 0.500000 0.856133
O O2 0.729488 0.252679 0.824058
O O3 0.811190 0.304313 0.878537
O O4 0.725136 0.333557 0.938486
O O5 0.642923 0.810575 0.852368
O O6 0.671800 0.852687 0.737618
O O7 0.702911 0.000000 0.827635
O O8 0.852846 0.247952 0.500000
O O9 0.825948 0.000000 0.500000
O O10 0.423464 0.154955 0.065077
O O11 0.369683 0.000000 0.000000
O O12 0.943286 0.500000 0.230733
O O13 0.939094 0.698595 0.303736
O O14 0.904878 0.707627 0.183702
O O15 0.000000 0.692784 0.208861
O O16 0.919101 0.123587 0.389402
O O17 0.936678 0.000000 0.500000
O O18 0.000000 0.000000 0.411126
O O19 0.362579 0.000000 0.352741
#
# Coordination Sequence:
#
# PCOD9519028 Si02
#       8
#    16  16   8   8  16   8  16  16
#     4  10  19  31  47  68  98 129 161 194 231 284
#     4  10  19  31  49  72  97 122 155 197 241 286
#     4  10  22  32  46  68 100 133 169 196 230 278
#     4  12  22  32  48  69  96 131 165 201 244 280
#     4   9  17  32  53  74  94 117 154 206 254 293
#     4  11  24  38  48  62  88 130 174 211 244 282
#     4  11  21  33  50  67  93 123 165 203 243 281
#     4   8  16  30  47  69  94 124 156 194 240 289
#
# _framework density 17.204764999999998
#
# number of rings (size 3 to 8) (size 9 to 14) (size 15 to 20)
#    0.000    2.077    2.308    3.231    2.154    0.000 
#    0.000    0.000    1.692    1.846    0.000    0.538 
#    0.000    4.308    0.000    0.000    0.000    2.769 
#
# Total GULP energy -289626.226579 kJ/mol
# GULP energy per Si atom -5569.735127 kJ/mol
# Density = 1.716561 g / cm^3
# Si number density = 17.204765 Si / 1000 Ang^3
#
#
#
# Elastic Constant Matrix: (Units=GPa)
#
#
# Indices 1 2 3 4 5 6 
#
# 1 78.3532 28.8846 -0.5413 0.0000 0.0000 0.0000
# 2 28.8846 76.5728 11.0722 0.0000 0.0000 0.0000
# 3 -0.5413 11.0722 15.3375 0.0000 0.0000 0.0000
# 4 0.0000 0.0000 0.0000 13.1114 0.0000 0.0000
# 5 0.0000 0.0000 0.0000 0.0000 19.1983 0.0000
# 6 0.0000 0.0000 0.0000 0.0000 0.0000 13.8990
#
#
#
# Elastic Compliance Matrix: (Units=1/GPa)
#
#
# Indices 1 2 3 4 5 6 
#
# 1 0.015189 -0.006484 0.005217 0.000000 0.000000 0.000000
# 2 -0.006484 0.017349 -0.012753 0.000000 0.000000 0.000000
# 3 0.005217 -0.012753 0.074590 0.000000 0.000000 0.000000
# 4 0.000000 0.000000 0.000000 0.076270 0.000000 0.000000
# 5 0.000000 0.000000 0.000000 0.000000 0.052088 0.000000
# 6 0.000000 0.000000 0.000000 0.000000 0.000000 0.071948
#
#
# Mechanical properties :
#
#
# Convention : Reuss Voigt Hill
#
# Bulk Modulus (GPa) = 12.64416 27.67716 20.16066
# Shear Modulus (GPa) = 13.81834 17.96493 15.89164
#
# Velocity S-wave (km/s) = 2.83710 3.23489 3.04250
# Velocity P-wave (km/s) = 4.25410 5.48402 4.90774
#
# Compressibility (1/GPa) = 0.07908790
#
# Stress axis : x y z
#
# Youngs Moduli (GPa) = 65.83693 57.63875 13.40654
#
# Poissons Ratio (x) = 0.37373 -0.06994
# Poissons Ratio (y) = 0.42688 0.17098
# Poissons Ratio (z) = -0.34346 0.73509
#
# Static dielectric constant tensor:
#      x y z
#    x 1.630490 0.000000 0.000000 
#    y 0.000000 1.612470 0.000000 
#    z 0.000000 0.000000 1.604240 
# 
# From -- ./inp_files/62027.got.cif
#   From: 2010.05.17/outbox.cif.g08.bks.cpg/sg71_32_cif.got.tgz:62027.got - 2010.06.03 16:22:01.
