data_PCOD9519982
_publ_section_title
;
Structure prediction by ZEFSAII (Michael W. Deem and Ramdas Pophale) SiO2 
 PCOD9519982
Probable space group: I M M M
;
_chemical_formula_sum "Si O2"
_cell_formula_units_Z 88
_cell_length_a 15.600160
_cell_length_b 16.977503
_cell_length_c 17.637025
_cell_angle_alpha 90.000000
_cell_angle_beta 90.000000
_cell_angle_gamma 90.000000
_cell_volume 4671.197169
_symmetry_space_group_name_H-M "I M M M"
_symmetry_group_IT_number 71
_symmetry_cell_setting 'orthorhombic'
loop_
_space_group_symop_operation_xyz
x,y,z
-x,-y,z
x,-y,-z
-x,y,-z
-x,-y,-z
x,y,-z
-x,y,z
x,-y,z
1/2+x,1/2+y,1/2+z
1/2-x,1/2-y,1/2+z
1/2+x,1/2-y,1/2-z
1/2-x,1/2+y,1/2-z
1/2-x,1/2-y,1/2-z
1/2+x,1/2+y,1/2-z
1/2-x,1/2+y,1/2+z
1/2+x,1/2-y,1/2+z
loop_
_atom_site_type_symbol
_atom_site_label
_atom_site_fract_x
_atom_site_fract_y
_atom_site_fract_z
Si Si1 0.171509 0.704404 0.210627
Si Si2 0.602705 0.346735 0.000000
Si Si3 0.103607 0.589265 0.340383
Si Si4 0.895472 0.000000 0.914333
Si Si5 0.400070 0.630734 0.703954
Si Si6 0.603980 0.160762 0.000000
Si Si7 0.205044 0.908692 0.356554
O O1 0.250000 0.750000 0.250000
O O2 0.131056 0.648271 0.274341
O O3 0.111321 0.776588 0.186947
O O4 0.212720 0.648667 0.147025
O O5 0.644125 0.385105 0.074194
O O6 0.500000 0.355832 0.000000
O O7 0.622990 0.253441 0.000000
O O8 0.133957 0.500000 0.326754
O O9 0.134199 0.620220 0.422417
O O10 0.000000 0.588166 0.342495
O O11 0.870535 0.923298 0.865908
O O12 0.000000 0.000000 0.917802
O O13 0.862780 0.000000 0.000000
O O14 0.500000 0.614214 0.718684
O O15 0.346735 0.606428 0.778344
O O16 0.500000 0.153813 0.000000
O O17 0.229076 0.000000 0.361279
#
# Coordination Sequence:
#
# PCOD9519982 Si02
#       7
#    16   8  16   8  16   8  16
#     4  10  21  35  53  75 112 152 189 229 282 350
#     4  11  23  37  59  87 112 147 197 243 288 347
#     4  10  19  33  56  84 113 150 198 244 287 345
#     4   9  18  34  58  87 113 137 177 234 285 338
#     4  10  19  35  60  85 111 147 187 234 290 346
#     4   9  17  31  51  81 117 148 182 236 297 336
#     4  11  22  37  56  79 115 150 189 240 293 348
#
# _framework density 18.838854000000001
#
# number of rings (size 3 to 8) (size 9 to 14) (size 15 to 20)
#    0.000    1.909    0.909    4.364    0.000    4.000 
#    1.636    0.000    6.000    0.000    0.000    0.000 
#    0.000    4.364    0.000    0.000    0.000    0.000 
#
# Total GULP energy -245633.469695 kJ/mol
# GULP energy per Si atom -5582.578857 kJ/mol
# Density = 1.879598 g / cm^3
# Si number density = 18.838854 Si / 1000 Ang^3
#
#
#
# Elastic Constant Matrix: (Units=GPa)
#
#
# Indices 1 2 3 4 5 6 
#
# 1 17.3742 14.4498 17.2951 0.0000 0.0000 0.0000
# 2 14.4498 166.2816 66.2946 0.0000 0.0000 0.0000
# 3 17.2951 66.2946 129.0146 0.0000 0.0000 0.0000
# 4 0.0000 0.0000 0.0000 -8.3960 0.0000 0.0000
# 5 0.0000 0.0000 0.0000 0.0000 22.6398 0.0000
# 6 0.0000 0.0000 0.0000 0.0000 0.0000 24.4072
#
#
#
# Elastic Compliance Matrix: (Units=1/GPa)
#
#
# Indices 1 2 3 4 5 6 
#
# 1 0.067469 -0.002839 -0.007586 0.000000 0.000000 0.000000
# 2 -0.002839 0.007683 -0.003567 0.000000 0.000000 0.000000
# 3 -0.007586 -0.003567 0.010601 0.000000 0.000000 0.000000
# 4 0.000000 0.000000 0.000000 -0.119105 0.000000 0.000000
# 5 0.000000 0.000000 0.000000 0.000000 0.044170 0.000000
# 6 0.000000 0.000000 0.000000 0.000000 0.000000 0.040972
#
#
# Mechanical properties :
#
#
# Convention : Reuss Voigt Hill
#
# Bulk Modulus (GPa) = 17.31033 56.52773 36.91903
# Shear Modulus (GPa) = 50.49003 22.03893 36.26448
#
# Velocity S-wave (km/s) = 5.18259 3.42404 4.39222
# Velocity P-wave (km/s) = 6.70976 6.76041 6.73513
#
# Compressibility (1/GPa) = 0.05776898
#
# Stress axis : x y z
#
# Youngs Moduli (GPa) = 14.82167 130.16060 94.33002
#
# Poissons Ratio (x) = 0.36947 0.71558
# Poissons Ratio (y) = 0.04207 0.33651
# Poissons Ratio (z) = 0.11244 0.46432
#
# Static dielectric constant tensor:
#      x y z
#    x 1.665520 0.000000 0.000000 
#    y 0.000000 1.678750 0.000000 
#    z 0.000000 0.000000 1.626710 
# 
# From -- ./inp_files/45894.got.cif
#   From: 2010.05.17/outbox.cif.g08.bks.cpg/sg71_23_cif.got.tgz:45894.got - 2010.06.03 16:22:01.
