data_PCOD9519380
_publ_section_title
;
Structure prediction by ZEFSAII (Michael W. Deem and Ramdas Pophale) SiO2 
 PCOD9519380
Probable space group: I M M M
;
_chemical_formula_sum "Si O2"
_cell_formula_units_Z 72
_cell_length_a 7.757028
_cell_length_b 14.910498
_cell_length_c 32.741330
_cell_angle_alpha 90.000000
_cell_angle_beta 90.000000
_cell_angle_gamma 90.000000
_cell_volume 3786.899896
_symmetry_space_group_name_H-M "I M M M"
_symmetry_group_IT_number 71
_symmetry_cell_setting 'orthorhombic'
loop_
_space_group_symop_operation_xyz
x,y,z
-x,-y,z
x,-y,-z
-x,y,-z
-x,-y,-z
x,y,-z
-x,y,z
x,-y,z
1/2+x,1/2+y,1/2+z
1/2-x,1/2-y,1/2+z
1/2+x,1/2-y,1/2-z
1/2-x,1/2+y,1/2-z
1/2-x,1/2-y,1/2-z
1/2+x,1/2+y,1/2-z
1/2-x,1/2+y,1/2+z
1/2+x,1/2-y,1/2+z
loop_
_atom_site_type_symbol
_atom_site_label
_atom_site_fract_x
_atom_site_fract_y
_atom_site_fract_z
Si Si1 0.705316 0.192026 0.789886
Si Si2 0.788926 0.500000 0.739008
Si Si3 0.301310 0.198441 0.545845
Si Si4 0.705734 0.807904 0.631861
Si Si5 0.789098 0.500000 0.165640
Si Si6 0.193048 0.000000 0.451619
O O1 0.500000 0.187365 0.792588
O O2 0.750000 0.250000 0.750000
O O3 0.767914 0.242043 0.830233
O O4 0.770727 0.091104 0.782535
O O5 0.738554 0.500000 0.786749
O O6 0.000000 0.500000 0.738871
O O7 0.225289 0.212886 0.500000
O O8 0.500000 0.227627 0.543070
O O9 0.223030 0.231350 0.588821
O O10 0.293843 0.091588 0.555180
O O11 0.500000 0.816884 0.626253
O O12 0.770563 0.907434 0.644612
O O13 0.000000 0.500000 0.164447
O O14 0.170159 0.000000 0.500000
O O15 0.000000 0.000000 0.433463
#
# Coordination Sequence:
#
# PCOD9519380 Si02
#       6
#    16   8  16  16   8   8
#     4  11  21  35  53  73  98 129 164 200 240 290
#     4   9  18  33  51  68  95 132 160 186 238 296
#     4   9  17  29  45  65  92 129 168 200 240 299
#     4  10  19  32  50  72  98 130 167 206 243 284
#     4   9  15  27  46  67  96 134 164 189 235 289
#     4   9  16  25  39  61  92 127 163 206 245 276
#
# _framework density 19.012913000000001
#
# number of rings (size 3 to 8) (size 9 to 14) (size 15 to 20)
#    0.000    2.333    2.222    1.667    0.000    4.000 
#    0.000    3.889    0.000    0.000    0.000    0.778 
#    0.000    6.222    0.000    0.000    0.000    0.000 
#
# Total GULP energy -200529.020144 kJ/mol
# GULP energy per Si atom -5570.250560 kJ/mol
# Density = 1.896964 g / cm^3
# Si number density = 19.012913 Si / 1000 Ang^3
#
#
#
# Elastic Constant Matrix: (Units=GPa)
#
#
# Indices 1 2 3 4 5 6 
#
# 1 38.4052 2.8647 5.6751 0.0000 0.0000 0.0000
# 2 2.8647 100.8631 70.0877 0.0000 0.0000 0.0000
# 3 5.6751 70.0877 213.2012 0.0000 0.0000 0.0000
# 4 0.0000 0.0000 0.0000 22.1655 0.0000 0.0000
# 5 0.0000 0.0000 0.0000 0.0000 18.3300 0.0000
# 6 0.0000 0.0000 0.0000 0.0000 0.0000 13.8383
#
#
#
# Elastic Compliance Matrix: (Units=1/GPa)
#
#
# Indices 1 2 3 4 5 6 
#
# 1 0.026150 -0.000336 -0.000586 0.000000 0.000000 0.000000
# 2 -0.000336 0.012854 -0.004217 0.000000 0.000000 0.000000
# 3 -0.000586 -0.004217 0.006092 0.000000 0.000000 0.000000
# 4 0.000000 0.000000 0.000000 0.045115 0.000000 0.000000
# 5 0.000000 0.000000 0.000000 0.000000 0.054555 0.000000
# 6 0.000000 0.000000 0.000000 0.000000 0.000000 0.072263
#
#
# Mechanical properties :
#
#
# Convention : Reuss Voigt Hill
#
# Bulk Modulus (GPa) = 28.71934 56.63607 42.67770
# Shear Modulus (GPa) = 20.92813 29.12287 25.02550
#
# Velocity S-wave (km/s) = 3.32133 3.91799 3.63193
# Velocity P-wave (km/s) = 5.46317 7.09369 6.33114
#
# Compressibility (1/GPa) = 0.03481974
#
# Stress axis : x y z
#
# Youngs Moduli (GPa) = 38.24132 77.79637 164.14442
#
# Poissons Ratio (x) = 0.02612 0.09614
# Poissons Ratio (y) = 0.01284 0.69215
# Poissons Ratio (z) = 0.02240 0.32804
#
# Static dielectric constant tensor:
#      x y z
#    x 1.731360 0.000000 0.000000 
#    y 0.000000 1.660530 0.000000 
#    z 0.000000 0.000000 1.720980 
# 
# From -- ./inp_files/6515.got.cif
#   From: 2010.05.17/outbox.cif.g08.bks.cpg/sg71_4_cif.got.tgz:6515.got - 2010.06.03 16:22:01.
