data_PCOD9519948
_publ_section_title
;
Structure prediction by ZEFSAII (Michael W. Deem and Ramdas Pophale) SiO2 
 PCOD9519948
Probable space group: I M M M
;
_chemical_formula_sum "Si O2"
_cell_formula_units_Z 64
_cell_length_a 11.038351
_cell_length_b 34.207001
_cell_length_c 8.163250
_cell_angle_alpha 90.000000
_cell_angle_beta 90.000000
_cell_angle_gamma 90.000000
_cell_volume 3082.352455
_symmetry_space_group_name_H-M "I M M M"
_symmetry_group_IT_number 71
_symmetry_cell_setting 'orthorhombic'
loop_
_space_group_symop_operation_xyz
x,y,z
-x,-y,z
x,-y,-z
-x,y,-z
-x,-y,-z
x,y,-z
-x,y,z
x,-y,z
1/2+x,1/2+y,1/2+z
1/2-x,1/2-y,1/2+z
1/2+x,1/2-y,1/2-z
1/2-x,1/2+y,1/2-z
1/2-x,1/2-y,1/2-z
1/2+x,1/2+y,1/2-z
1/2-x,1/2+y,1/2+z
1/2+x,1/2-y,1/2+z
loop_
_atom_site_type_symbol
_atom_site_label
_atom_site_fract_x
_atom_site_fract_y
_atom_site_fract_z
Si Si1 0.358303 0.500000 0.184283
Si Si2 0.500000 0.285745 0.298796
Si Si3 0.000000 0.695806 0.804996
Si Si4 0.500000 0.954758 0.698058
Si Si5 0.745542 0.419747 0.801414
Si Si6 0.236439 0.833327 0.806774
O O1 0.500000 0.500000 0.167096
O O2 0.322670 0.458640 0.258883
O O3 0.299748 0.500000 0.000000
O O4 0.500000 0.286749 0.500000
O O5 0.500000 0.240695 0.245142
O O6 0.624316 0.306955 0.242891
O O7 0.872092 0.676185 0.755852
O O8 0.000000 0.696304 0.000000
O O9 0.500000 0.957299 0.500000
O O10 0.617038 0.930176 0.744148
O O11 0.500000 0.000000 0.757448
O O12 0.707266 0.378461 0.730858
O O13 0.733904 0.417090 0.000000
O O14 0.240581 0.827165 0.000000
#
# Coordination Sequence:
#
# PCOD9519948 Si02
#       6
#     8   8   8   8  16  16
#     4   9  18  31  50  78 113 151 197 250 292 330
#     4   9  22  42  64  88 120 159 197 240 294 360
#     4  11  22  42  67  91 116 151 202 249 293 355
#     4   9  15  28  50  74  99 135 185 236 283 324
#     4  10  19  33  55  82 112 150 198 246 289 339
#     4  11  23  40  61  89 125 160 193 241 303 360
#
# _framework density 20.763362999999998
#
# number of rings (size 3 to 8) (size 9 to 14) (size 15 to 20)
#    0.000    2.000    1.250    2.625    1.750    1.000 
#    0.000    6.250    0.000    1.500    0.000    0.000 
#    0.000    0.000    0.000    0.000    0.000    0.000 
#
# Total GULP energy -178513.047185 kJ/mol
# GULP energy per Si atom -5578.532725 kJ/mol
# Density = 2.071610 g / cm^3
# Si number density = 20.763363 Si / 1000 Ang^3
#
#
#
# Elastic Constant Matrix: (Units=GPa)
#
#
# Indices 1 2 3 4 5 6 
#
# 1 115.4491 52.1435 14.5638 -0.0006 0.0000 0.0058
# 2 52.1435 146.2140 5.6396 -0.0003 -0.0014 0.0119
# 3 14.5638 5.6396 20.4768 0.0018 -0.0021 0.0275
# 4 -0.0006 -0.0003 0.0018 25.6735 -0.0007 0.0075
# 5 0.0000 -0.0014 -0.0021 -0.0007 -11.4457 -0.0082
# 6 0.0058 0.0119 0.0275 0.0075 -0.0082 244.1239
#
#
#
# Elastic Compliance Matrix: (Units=1/GPa)
#
#
# Indices 1 2 3 4 5 6 
#
# 1 0.011226 -0.003735 -0.006956 0.000001 0.000002 0.000001
# 2 -0.003735 0.008156 0.000411 0.000000 -0.000001 0.000000
# 3 -0.006956 0.000411 0.053670 -0.000004 -0.000010 -0.000006
# 4 0.000001 0.000000 -0.000004 0.038951 -0.000002 -0.000001
# 5 0.000002 -0.000001 -0.000010 -0.000002 -0.087369 -0.000003
# 6 0.000001 0.000000 -0.000006 -0.000001 -0.000003 0.004096
#
#
# Mechanical properties :
#
#
# Convention : Reuss Voigt Hill
#
# Bulk Modulus (GPa) = 19.05102 47.42596 33.23849
# Shear Modulus (GPa) = 74.86379 65.65653 70.26016
#
# Velocity S-wave (km/s) = 6.01116 5.62939 5.82340
# Velocity P-wave (km/s) = 7.57455 8.07119 7.82681
#
# Compressibility (1/GPa) = 0.05249062
#
# Stress axis : x y z
#
# Youngs Moduli (GPa) = 89.07591 122.61571 18.63242
#
# Poissons Ratio (x) = 0.45801 0.12960
# Poissons Ratio (y) = 0.33273 -0.00765
# Poissons Ratio (z) = 0.61960 -0.05034
#
# Static dielectric constant tensor:
#      x y z
#    x 1.947870 0.000000 -0.000010 
#    y 0.000000 1.760860 0.000000 
#    z -0.000010 0.000000 1.767710 
# 
# From -- ./inp_files/3826.got.cif
#   From: 2010.05.17/outbox.cif.g08.bks.cpg/sg71_2_cif.got.tgz:3826.got - 2010.06.03 16:22:01.
