data_PCOD9519491
_publ_section_title
;
Structure prediction by ZEFSAII (Michael W. Deem and Ramdas Pophale) SiO2 
 PCOD9519491
Probable space group: I M M M
;
_chemical_formula_sum "Si O2"
_cell_formula_units_Z 104
_cell_length_a 22.693030
_cell_length_b 28.423661
_cell_length_c 7.511553
_cell_angle_alpha 90.000000
_cell_angle_beta 90.000000
_cell_angle_gamma 90.000000
_cell_volume 4845.094343
_symmetry_space_group_name_H-M "I M M M"
_symmetry_group_IT_number 71
_symmetry_cell_setting 'orthorhombic'
loop_
_space_group_symop_operation_xyz
x,y,z
-x,-y,z
x,-y,-z
-x,y,-z
-x,-y,-z
x,y,-z
-x,y,z
x,-y,z
1/2+x,1/2+y,1/2+z
1/2-x,1/2-y,1/2+z
1/2+x,1/2-y,1/2-z
1/2-x,1/2+y,1/2-z
1/2-x,1/2-y,1/2-z
1/2+x,1/2+y,1/2-z
1/2-x,1/2+y,1/2+z
1/2+x,1/2-y,1/2+z
loop_
_atom_site_type_symbol
_atom_site_label
_atom_site_fract_x
_atom_site_fract_y
_atom_site_fract_z
Si Si1 0.569005 0.221846 0.282952
Si Si2 0.724287 0.620674 0.718608
Si Si3 0.000000 0.946284 0.710972
Si Si4 0.811829 0.776338 0.213446
Si Si5 0.433305 0.886328 0.285287
Si Si6 0.375628 0.552484 0.709339
Si Si7 0.324620 0.946889 0.208060
O O1 0.568235 0.223442 0.500000
O O2 0.500000 0.233219 0.229462
O O3 0.625969 0.252951 0.223138
O O4 0.581374 0.167429 0.229667
O O5 0.725772 0.623804 0.500000
O O6 0.702778 0.671349 0.780958
O O7 0.675654 0.583755 0.780826
O O8 0.784681 0.596160 0.779403
O O9 0.060755 0.924097 0.769250
O O10 0.000000 0.949061 0.500000
O O11 0.000000 0.000000 0.786310
O O12 0.750000 0.750000 0.250000
O O13 0.818504 0.778143 0.000000
O O14 0.431338 0.886321 0.500000
O O15 0.500000 0.895351 0.228557
O O16 0.390069 0.926869 0.221699
O O17 0.364786 0.547959 0.500000
O O18 0.377475 0.500000 0.787488
O O19 0.317367 0.000000 0.282640
O O20 0.308481 0.950836 0.000000
#
# Coordination Sequence:
#
# PCOD9519491 Si02
#       7
#    16  16   8  16  16  16  16
#     4   8  15  30  51  74  99 128 163 202 247 295
#     4   9  18  32  49  73  98 124 163 205 244 285
#     4   9  17  29  45  67  95 125 157 195 239 283
#     4  10  19  32  52  76 100 127 162 205 249 295
#     4   9  18  33  52  72  96 127 162 200 242 292
#     4   9  16  29  49  69  92 125 164 201 237 282
#     4  10  20  33  49  70 100 134 163 198 245 293
#
# _framework density 21.465011000000001
#
# number of rings (size 3 to 8) (size 9 to 14) (size 15 to 20)
#    0.000    2.846    0.000    2.538    0.000    3.692 
#    1.385    3.077    0.000    3.231    0.000    0.000 
#    0.000    0.000    0.000    0.000    0.000    0.000 
#
# Total GULP energy -289649.740451 kJ/mol
# GULP energy per Si atom -5570.187316 kJ/mol
# Density = 2.141616 g / cm^3
# Si number density = 21.465011 Si / 1000 Ang^3
#
#
#
# Elastic Constant Matrix: (Units=GPa)
#
#
# Indices 1 2 3 4 5 6 
#
# 1 119.0508 58.6830 -9.1846 0.0000 0.0000 0.0000
# 2 58.6830 97.3252 0.8661 0.0000 0.0000 0.0000
# 3 -9.1846 0.8661 53.2712 0.0000 0.0000 0.0000
# 4 0.0000 0.0000 0.0000 6.4244 0.0000 0.0000
# 5 0.0000 0.0000 0.0000 0.0000 52.6401 0.0000
# 6 0.0000 0.0000 0.0000 0.0000 0.0000 34.0499
#
#
#
# Elastic Compliance Matrix: (Units=1/GPa)
#
#
# Indices 1 2 3 4 5 6 
#
# 1 0.012210 -0.007382 0.002225 0.000000 0.000000 0.000000
# 2 -0.007382 0.014739 -0.001512 0.000000 0.000000 0.000000
# 3 0.002225 -0.001512 0.019180 0.000000 0.000000 0.000000
# 4 0.000000 0.000000 0.000000 0.155655 0.000000 0.000000
# 5 0.000000 0.000000 0.000000 0.000000 0.018997 0.000000
# 6 0.000000 0.000000 0.000000 0.000000 0.000000 0.029369
#
#
# Mechanical properties :
#
#
# Convention : Reuss Voigt Hill
#
# Bulk Modulus (GPa) = 30.49595 41.15291 35.82443
# Shear Modulus (GPa) = 18.22027 33.24174 25.73101
#
# Velocity S-wave (km/s) = 2.91664 3.93956 3.46604
# Velocity P-wave (km/s) = 5.05772 6.31721 5.72222
#
# Compressibility (1/GPa) = 0.03279124
#
# Stress axis : x y z
#
# Youngs Moduli (GPa) = 81.89847 67.84557 52.13729
#
# Poissons Ratio (x) = 0.50084 -0.11602
# Poissons Ratio (y) = 0.60458 0.07885
# Poissons Ratio (z) = -0.18224 0.10261
#
# Static dielectric constant tensor:
#      x y z
#    x 1.846330 0.000000 0.000000 
#    y 0.000000 1.716380 0.000000 
#    z 0.000000 0.000000 1.599080 
# 
# From -- ./inp_files/11497.got.cif
#   From: 2010.05.17/outbox.cif.g08.bks.cpg/sg71_6_cif.got.tgz:11497.got - 2010.06.03 16:22:01.
