data_PCOD9519827
_publ_section_title
;
Structure prediction by ZEFSAII (Michael W. Deem and Ramdas Pophale) SiO2 
 PCOD9519827
Probable space group: I M M M
;
_chemical_formula_sum "Si O2"
_cell_formula_units_Z 64
_cell_length_a 21.432908
_cell_length_b 18.433522
_cell_length_c 9.026293
_cell_angle_alpha 90.000000
_cell_angle_beta 90.000000
_cell_angle_gamma 90.000000
_cell_volume 3566.143773
_symmetry_space_group_name_H-M "I M M M"
_symmetry_group_IT_number 71
_symmetry_cell_setting 'orthorhombic'
loop_
_space_group_symop_operation_xyz
x,y,z
-x,-y,z
x,-y,-z
-x,y,-z
-x,-y,-z
x,y,-z
-x,y,z
x,-y,z
1/2+x,1/2+y,1/2+z
1/2-x,1/2-y,1/2+z
1/2+x,1/2-y,1/2-z
1/2-x,1/2+y,1/2-z
1/2-x,1/2-y,1/2-z
1/2+x,1/2+y,1/2-z
1/2-x,1/2+y,1/2+z
1/2+x,1/2-y,1/2+z
loop_
_atom_site_type_symbol
_atom_site_label
_atom_site_fract_x
_atom_site_fract_y
_atom_site_fract_z
Si Si1 0.116454 0.087579 0.828136
Si Si2 0.743318 0.588302 0.171170
Si Si3 0.000000 0.321238 0.820347
Si Si4 0.000000 0.836492 0.323802
Si Si5 0.619048 0.916474 0.319586
O O1 0.184198 0.110763 0.767577
O O2 0.061126 0.121715 0.733818
O O3 0.113240 0.000000 0.817548
O O4 0.109062 0.107740 0.000000
O O5 0.744873 0.500000 0.170899
O O6 0.812099 0.610262 0.226514
O O7 0.735049 0.611106 0.000000
O O8 0.000000 0.243037 0.747283
O O9 0.938328 0.366181 0.776272
O O10 0.000000 0.314801 0.000000
O O11 0.000000 0.832910 0.500000
O O12 0.620686 0.917994 0.500000
O O13 0.609784 0.000000 0.271178
#
# Coordination Sequence:
#
# PCOD9519827 Si02
#       5
#    16  16   8   8  16
#     4  10  20  35  56  80 102 126 163 210 256 303
#     4   8  14  27  49  78 108 133 161 201 249 300
#     4  10  19  33  53  76 105 139 175 214 252 290
#     4  12  25  38  51  70 101 138 173 208 252 306
#     4   8  14  27  52  83 108 133 169 210 250 296
#
# _framework density 17.946556999999999
#
# number of rings (size 3 to 8) (size 9 to 14) (size 15 to 20)
#    0.000    2.750    0.000    4.125    0.000    4.500 
#    0.000    2.500    0.000    3.000    0.000    0.000 
#    0.000    0.000    0.000    0.000    0.000    0.000 
#
# Total GULP energy -178424.101240 kJ/mol
# GULP energy per Si atom -5575.753164 kJ/mol
# Density = 1.790571 g / cm^3
# Si number density = 17.946557 Si / 1000 Ang^3
#
#
#
# Elastic Constant Matrix: (Units=GPa)
#
#
# Indices 1 2 3 4 5 6 
#
# 1 173.6528 46.7642 58.2592 0.0000 0.0000 0.0000
# 2 46.7642 35.1136 32.7351 0.0000 0.0000 0.0000
# 3 58.2592 32.7351 68.9349 0.0000 0.0000 0.0000
# 4 0.0000 0.0000 0.0000 14.9059 0.0000 0.0000
# 5 0.0000 0.0000 0.0000 0.0000 10.7667 0.0000
# 6 0.0000 0.0000 0.0000 0.0000 0.0000 -7.5848
#
#
#
# Elastic Compliance Matrix: (Units=1/GPa)
#
#
# Indices 1 2 3 4 5 6 
#
# 1 0.009454 -0.009227 -0.003608 0.000000 0.000000 0.000000
# 2 -0.009227 0.060107 -0.020745 0.000000 0.000000 0.000000
# 3 -0.003608 -0.020745 0.027407 0.000000 0.000000 0.000000
# 4 0.000000 0.000000 0.000000 0.067088 0.000000 0.000000
# 5 0.000000 0.000000 0.000000 0.000000 0.092879 0.000000
# 6 0.000000 0.000000 0.000000 0.000000 0.000000 -0.131843
#
#
# Mechanical properties :
#
#
# Convention : Reuss Voigt Hill
#
# Bulk Modulus (GPa) = 33.54838 61.46870 47.50854
# Shear Modulus (GPa) = 24.72942 12.94707 18.83824
#
# Velocity S-wave (km/s) = 3.71610 2.68885 3.24340
# Velocity P-wave (km/s) = 6.09480 6.63063 6.36835
#
# Compressibility (1/GPa) = 0.02980770
#
# Stress axis : x y z
#
# Youngs Moduli (GPa) = 105.77605 16.63697 36.48686
#
# Poissons Ratio (x) = 0.15351 0.13165
# Poissons Ratio (y) = 0.97598 0.75692
# Poissons Ratio (z) = 0.38167 0.34514
#
# Static dielectric constant tensor:
#      x y z
#    x 1.625340 0.000000 0.000000 
#    y 0.000000 1.590370 0.000000 
#    z 0.000000 0.000000 1.598250 
# 
# From -- ./inp_files/9522.got.cif
#   From: 2010.05.17/outbox.cif.g08.bks.cpg/sg71_5_cif.got.tgz:9522.got - 2010.06.03 16:22:01.
