data_PCOD9519387
_publ_section_title
;
Structure prediction by ZEFSAII (Michael W. Deem and Ramdas Pophale) SiO2 
 PCOD9519387
Probable space group: I M M M
;
_chemical_formula_sum "Si O2"
_cell_formula_units_Z 80
_cell_length_a 17.269642
_cell_length_b 10.842955
_cell_length_c 22.507931
_cell_angle_alpha 90.000000
_cell_angle_beta 90.000000
_cell_angle_gamma 90.000000
_cell_volume 4214.699010
_symmetry_space_group_name_H-M "I M M M"
_symmetry_group_IT_number 71
_symmetry_cell_setting 'orthorhombic'
loop_
_space_group_symop_operation_xyz
x,y,z
-x,-y,z
x,-y,-z
-x,y,-z
-x,-y,-z
x,y,-z
-x,y,z
x,-y,z
1/2+x,1/2+y,1/2+z
1/2-x,1/2-y,1/2+z
1/2+x,1/2-y,1/2-z
1/2-x,1/2+y,1/2-z
1/2-x,1/2-y,1/2-z
1/2+x,1/2+y,1/2-z
1/2-x,1/2+y,1/2+z
1/2+x,1/2-y,1/2+z
loop_
_atom_site_type_symbol
_atom_site_label
_atom_site_fract_x
_atom_site_fract_y
_atom_site_fract_z
Si Si1 0.345515 0.862736 0.628593
Si Si2 0.146688 0.636619 0.500000
Si Si3 0.767686 0.359924 0.000000
Si Si4 0.821405 0.136406 0.686515
Si Si5 0.589138 0.137087 0.130630
Si Si6 0.088001 0.862831 0.192710
O O1 0.316773 0.849938 0.560648
O O2 0.269070 0.858536 0.670668
O O3 0.397790 0.749124 0.648247
O O4 0.380229 0.000000 0.635577
O O5 0.185753 0.500000 0.500000
O O6 0.205502 0.750591 0.500000
O O7 0.096561 0.641688 0.559517
O O8 0.733828 0.500000 0.000000
O O9 0.860977 0.251805 0.655337
O O10 0.849091 0.143518 0.754541
O O11 0.847982 0.000000 0.664776
O O12 0.500000 0.150036 0.148620
O O13 0.616428 0.000000 0.149730
O O14 0.000000 0.853988 0.217209
O O15 0.095328 0.000000 0.165413
#
# Coordination Sequence:
#
# PCOD9519387 Si02
#       6
#    16   8   8  16  16  16
#     4  10  21  37  60  86 112 145 184 230 280 333
#     4  10  19  32  50  73 107 149 190 230 273 322
#     4  10  20  37  58  84 114 140 182 237 280 326
#     4  10  20  36  58  83 112 147 185 227 275 329
#     4  10  20  32  48  75 112 152 191 229 270 322
#     4  10  22  39  58  83 115 148 185 232 281 330
#
# _framework density 18.981190000000002
#
# number of rings (size 3 to 8) (size 9 to 14) (size 15 to 20)
#    0.000    2.000    2.000    1.500    0.000    5.200 
#    0.000    0.500    0.000    4.800    0.000    0.000 
#    0.000    0.000    0.000    0.000    0.000    0.000 
#
# Total GULP energy -223005.921942 kJ/mol
# GULP energy per Si atom -5575.148049 kJ/mol
# Density = 1.893799 g / cm^3
# Si number density = 18.981190 Si / 1000 Ang^3
#
#
#
# Elastic Constant Matrix: (Units=GPa)
#
#
# Indices 1 2 3 4 5 6 
#
# 1 24.3281 33.6927 15.7417 0.0000 0.0000 0.0000
# 2 33.6927 164.7039 36.6897 0.0000 0.0000 0.0000
# 3 15.7417 36.6897 37.1056 0.0000 0.0000 0.0000
# 4 0.0000 0.0000 0.0000 32.7165 0.0000 0.0000
# 5 0.0000 0.0000 0.0000 0.0000 4344.8939 0.0000
# 6 0.0000 0.0000 0.0000 0.0000 0.0000 24.9341
#
#
#
# Elastic Compliance Matrix: (Units=1/GPa)
#
#
# Indices 1 2 3 4 5 6 
#
# 1 0.066264 -0.009353 -0.018864 0.000000 0.000000 0.000000
# 2 -0.009353 0.009107 -0.005037 0.000000 0.000000 0.000000
# 3 -0.018864 -0.005037 0.039933 0.000000 0.000000 0.000000
# 4 0.000000 0.000000 0.000000 0.030566 0.000000 0.000000
# 5 0.000000 0.000000 0.000000 0.000000 0.000230 0.000000
# 6 0.000000 0.000000 0.000000 0.000000 0.000000 0.040106
#
#
# Mechanical properties :
#
#
# Convention : Reuss Voigt Hill
#
# Bulk Modulus (GPa) = 20.49304 44.26507 32.37905
# Shear Modulus (GPa) = 18.58886 889.84314 454.21600
#
# Velocity S-wave (km/s) = 3.13282 21.67534 15.48604
# Velocity P-wave (km/s) = 4.88938 25.49114 18.35353
#
# Compressibility (1/GPa) = 0.04879706
#
# Stress axis : x y z
#
# Youngs Moduli (GPa) = 15.09110 109.80756 25.04191
#
# Poissons Ratio (x) = 1.02706 0.47238
# Poissons Ratio (y) = 0.14115 0.12613
# Poissons Ratio (z) = 0.28467 0.55307
#
# Static dielectric constant tensor:
#      x y z
#    x 1.635030 0.000000 0.000000 
#    y 0.000000 1.683540 0.000000 
#    z 0.000000 0.000000 1.652790 
# 
# From -- ./inp_files/61036.got.cif
#   From: 2010.05.17/outbox.cif.g08.bks.cpg/sg71_31_cif.got.tgz:61036.got - 2010.06.03 16:22:01.
