data_PCOD9519690
_publ_section_title
;
Structure prediction by ZEFSAII (Michael W. Deem and Ramdas Pophale) SiO2 
 PCOD9519690
Probable space group: I M M M
;
_chemical_formula_sum "Si O2"
_cell_formula_units_Z 78
_cell_length_a 24.534171
_cell_length_b 14.067811
_cell_length_c 12.312678
_cell_angle_alpha 90.000000
_cell_angle_beta 90.000000
_cell_angle_gamma 90.000000
_cell_volume 4249.623304
_symmetry_space_group_name_H-M "I M M M"
_symmetry_group_IT_number 71
_symmetry_cell_setting 'orthorhombic'
loop_
_space_group_symop_operation_xyz
x,y,z
-x,-y,z
x,-y,-z
-x,y,-z
-x,-y,-z
x,y,-z
-x,y,z
x,-y,z
1/2+x,1/2+y,1/2+z
1/2-x,1/2-y,1/2+z
1/2+x,1/2-y,1/2-z
1/2-x,1/2+y,1/2-z
1/2-x,1/2-y,1/2-z
1/2+x,1/2+y,1/2-z
1/2-x,1/2+y,1/2+z
1/2+x,1/2-y,1/2+z
loop_
_atom_site_type_symbol
_atom_site_label
_atom_site_fract_x
_atom_site_fract_y
_atom_site_fract_z
Si Si1 0.762075 0.891819 0.500000
Si Si2 0.000000 0.840054 0.500000
Si Si3 0.830821 0.887476 0.129341
Si Si4 0.383402 0.663348 0.000000
Si Si5 0.000000 0.673623 0.323330
Si Si6 0.276982 0.114059 0.268033
Si Si7 0.500000 0.000000 0.000000
Si Si8 0.115067 0.268828 0.729302
O O1 0.827367 0.893134 0.500000
O O2 0.741367 0.849610 0.387189
O O3 0.742148 0.000000 0.500000
O O4 0.941470 0.890122 0.500000
O O5 0.000000 0.769574 0.396678
O O6 0.772208 0.866211 0.184623
O O7 0.873680 0.818223 0.188248
O O8 0.842219 0.000000 0.149772
O O9 0.829212 0.872875 0.000000
O O10 0.382498 0.727529 0.892521
O O11 0.000000 0.584179 0.404645
O O12 0.943430 0.680656 0.257434
O O13 0.334352 0.159988 0.240079
O O14 0.282203 0.000000 0.270200
#
# Coordination Sequence:
#
# PCOD9519690 Si02
#       8
#     8   4  16   8   8  16   2  16
#     4  10  20  35  54  81 114 148 201 249 308 363
#     4   7  16  35  47  82 113 138 191 232 279 348
#     4  10  22  39  59  89 122 155 201 260 311 363
#     4  10  19  32  57  81 111 150 193 237 298 367
#     4   9  21  38  58  89 116 165 193 243 301 359
#     4  10  22  36  55  87 118 158 202 249 309 378
#     4  10  20  44  68  92 142 152 198 272 312 336
#     4  11  22  37  60  84 121 158 205 244 308 370
#
# _framework density 18.354566999999999
#
# number of rings (size 3 to 8) (size 9 to 14) (size 15 to 20)
#    0.000    2.051    2.051    1.231    4.308    0.000 
#    0.000    1.282    0.000    4.923    0.000    5.026 
#    0.000    0.000    0.000    0.000    0.000    0.000 
#
# Total GULP energy -217182.982258 kJ/mol
# GULP energy per Si atom -5568.794417 kJ/mol
# Density = 1.831279 g / cm^3
# Si number density = 18.354567 Si / 1000 Ang^3
#
#
#
# Elastic Constant Matrix: (Units=GPa)
#
#
# Indices 1 2 3 4 5 6 
#
# 1 161.0409 54.1755 63.8774 0.0000 0.0000 0.0000
# 2 54.1755 95.9746 48.9086 0.0000 0.0000 0.0000
# 3 63.8774 48.9086 121.5004 0.0000 0.0000 0.0000
# 4 0.0000 0.0000 0.0000 -33.5448 0.0000 0.0000
# 5 0.0000 0.0000 0.0000 0.0000 21.3429 0.0000
# 6 0.0000 0.0000 0.0000 0.0000 0.0000 0.5377
#
#
#
# Elastic Compliance Matrix: (Units=1/GPa)
#
#
# Indices 1 2 3 4 5 6 
#
# 1 0.008559 -0.003193 -0.003214 0.000000 0.000000 0.000000
# 2 -0.003193 0.014300 -0.004077 0.000000 0.000000 0.000000
# 3 -0.003214 -0.004077 0.011562 0.000000 0.000000 0.000000
# 4 0.000000 0.000000 0.000000 -0.029811 0.000000 0.000000
# 5 0.000000 0.000000 0.000000 0.000000 0.046854 0.000000
# 6 0.000000 0.000000 0.000000 0.000000 0.000000 1.859801
#
#
# Mechanical properties :
#
#
# Convention : Reuss Voigt Hill
#
# Bulk Modulus (GPa) = 74.34765 79.15986 76.75376
# Shear Modulus (GPa) = 2.58169 11.77079 7.17624
#
# Velocity S-wave (km/s) = 1.18727 2.53514 1.97946
# Velocity P-wave (km/s) = 6.51719 7.19660 6.86530
#
# Compressibility (1/GPa) = 0.01345032
#
# Stress axis : x y z
#
# Youngs Moduli (GPa) = 116.83893 69.93113 86.49322
#
# Poissons Ratio (x) = 0.22331 0.27801
# Poissons Ratio (y) = 0.37310 0.35267
# Poissons Ratio (z) = 0.37555 0.28514
#
# Static dielectric constant tensor:
#      x y z
#    x 1.656280 0.000000 0.000000 
#    y 0.000000 1.661720 0.000000 
#    z 0.000000 0.000000 1.625190 
# 
# From -- ./inp_files/28571.got.cif
#   From: 2010.05.17/outbox.cif.g08.bks.cpg/sg71_15_cif.got.tgz:28571.got - 2010.06.03 16:22:01.
