data_PCOD9519058
_publ_section_title
;
Structure prediction by ZEFSAII (Michael W. Deem and Ramdas Pophale) SiO2 
 PCOD9519058
Probable space group: I M M M
;
_chemical_formula_sum "Si O2"
_cell_formula_units_Z 104
_cell_length_a 28.506627
_cell_length_b 28.715783
_cell_length_c 7.720609
_cell_angle_alpha 90.000000
_cell_angle_beta 90.000000
_cell_angle_gamma 90.000000
_cell_volume 6320.014209
_symmetry_space_group_name_H-M "I M M M"
_symmetry_group_IT_number 71
_symmetry_cell_setting 'orthorhombic'
loop_
_space_group_symop_operation_xyz
x,y,z
-x,-y,z
x,-y,-z
-x,y,-z
-x,-y,-z
x,y,-z
-x,y,z
x,-y,z
1/2+x,1/2+y,1/2+z
1/2-x,1/2-y,1/2+z
1/2+x,1/2-y,1/2-z
1/2-x,1/2+y,1/2-z
1/2-x,1/2-y,1/2-z
1/2+x,1/2+y,1/2-z
1/2-x,1/2+y,1/2+z
1/2+x,1/2-y,1/2+z
loop_
_atom_site_type_symbol
_atom_site_label
_atom_site_fract_x
_atom_site_fract_y
_atom_site_fract_z
Si Si1 0.726758 0.053332 0.706608
Si Si2 0.056629 0.293779 0.000000
Si Si3 0.000000 0.947982 0.290052
Si Si4 0.557481 0.685763 0.500000
Si Si5 0.585409 0.382387 0.200162
Si Si6 0.329795 0.445904 0.296975
Si Si7 0.124166 0.552983 0.293260
Si Si8 0.056006 0.634665 0.294944
O O1 0.729998 0.052831 0.500000
O O2 0.776253 0.071407 0.775037
O O3 0.676061 0.073078 0.754926
O O4 0.724678 0.000000 0.773218
O O5 0.070438 0.322719 0.828802
O O6 0.070856 0.240072 0.000000
O O7 0.000000 0.293113 0.000000
O O8 0.045939 0.919507 0.242128
O O9 0.000000 0.950648 0.500000
O O10 0.000000 0.000000 0.220584
O O11 0.500000 0.681557 0.500000
O O12 0.578737 0.660082 0.668309
O O13 0.634121 0.410366 0.211391
O O14 0.576641 0.368952 0.000000
O O15 0.340957 0.447323 0.500000
O O16 0.332788 0.500000 0.230993
O O17 0.119814 0.549403 0.500000
O O18 0.120611 0.500000 0.221685
O O19 0.084239 0.588756 0.236687
O O20 0.065267 0.643123 0.500000
O O21 0.000000 0.627521 0.276878
#
# Coordination Sequence:
#
# PCOD9519058 Si02
#       8
#    16   8   8   8  16  16  16  16
#     4   9  17  28  43  67 100 137 174 210 243 284
#     4   9  20  36  55  74  99 130 168 220 268 302
#     4   9  18  31  47  69 100 137 167 196 241 301
#     4  11  22  38  54  75 100 127 168 222 271 312
#     4  11  21  34  51  73 101 131 169 211 255 312
#     4  10  19  31  48  70 101 138 174 209 248 297
#     4   9  17  29  47  73 108 143 172 205 243 289
#     4   9  18  33  52  77 107 137 173 208 246 305
#
# _framework density 16.455658
#
# number of rings (size 3 to 8) (size 9 to 14) (size 15 to 20)
#    0.000    2.385    1.538    1.385    1.077    4.308 
#    0.000    3.462    0.000    1.385    0.000    1.077 
#    0.000    0.000    0.000    0.000    0.000    0.000 
#
# Total GULP energy -289710.351727 kJ/mol
# GULP energy per Si atom -5571.352918 kJ/mol
# Density = 1.641820 g / cm^3
# Si number density = 16.455658 Si / 1000 Ang^3
#
#
#
# Elastic Constant Matrix: (Units=GPa)
#
#
# Indices 1 2 3 4 5 6 
#
# 1 80.0622 51.4845 25.4903 0.0000 0.0000 0.0000
# 2 51.4845 111.0302 47.0959 0.0000 0.0000 0.0000
# 3 25.4903 47.0959 73.4442 0.0000 0.0000 0.0000
# 4 0.0000 0.0000 0.0000 19.2602 0.0000 0.0000
# 5 0.0000 0.0000 0.0000 0.0000 15.1188 0.0000
# 6 0.0000 0.0000 0.0000 0.0000 0.0000 -20.2241
#
#
#
# Elastic Compliance Matrix: (Units=1/GPa)
#
#
# Indices 1 2 3 4 5 6 
#
# 1 0.017876 -0.007771 -0.001221 0.000000 0.000000 0.000000
# 2 -0.007771 0.015750 -0.007402 0.000000 0.000000 0.000000
# 3 -0.001221 -0.007402 0.018786 0.000000 0.000000 0.000000
# 4 0.000000 0.000000 0.000000 0.051921 0.000000 0.000000
# 5 0.000000 0.000000 0.000000 0.000000 0.066143 0.000000
# 6 0.000000 0.000000 0.000000 0.000000 0.000000 -0.049446
#
#
# Mechanical properties :
#
#
# Convention : Reuss Voigt Hill
#
# Bulk Modulus (GPa) = 50.96014 56.96421 53.96218
# Shear Modulus (GPa) = 31.17957 12.19535 21.68746
#
# Velocity S-wave (km/s) = 4.35761 2.72528 3.63427
# Velocity P-wave (km/s) = 7.50691 6.67793 7.10452
#
# Compressibility (1/GPa) = 0.01962318
#
# Stress axis : x y z
#
# Youngs Moduli (GPa) = 55.93949 63.49188 53.23002
#
# Poissons Ratio (x) = 0.49342 0.06500
# Poissons Ratio (y) = 0.43473 0.39403
# Poissons Ratio (z) = 0.06830 0.47000
#
# Static dielectric constant tensor:
#      x y z
#    x 1.568730 0.000000 0.000000 
#    y 0.000000 1.538650 0.000000 
#    z 0.000000 0.000000 1.582440 
# 
# From -- ./inp_files/15359.got.cif
#   From: 2010.05.17/outbox.cif.g08.bks.cpg/sg71_8_cif.got.tgz:15359.got - 2010.06.03 16:22:01.
