data_PCOD9519708
_publ_section_title
;
Structure prediction by ZEFSAII (Michael W. Deem and Ramdas Pophale) SiO2 
 PCOD9519708
Probable space group: I M M M
;
_chemical_formula_sum "Si O2"
_cell_formula_units_Z 88
_cell_length_a 19.139888
_cell_length_b 30.030337
_cell_length_c 8.704848
_cell_angle_alpha 90.000000
_cell_angle_beta 90.000000
_cell_angle_gamma 90.000000
_cell_volume 5003.348915
_symmetry_space_group_name_H-M "I M M M"
_symmetry_group_IT_number 71
_symmetry_cell_setting 'orthorhombic'
loop_
_space_group_symop_operation_xyz
x,y,z
-x,-y,z
x,-y,-z
-x,y,-z
-x,-y,-z
x,y,-z
-x,y,z
x,-y,z
1/2+x,1/2+y,1/2+z
1/2-x,1/2-y,1/2+z
1/2+x,1/2-y,1/2-z
1/2-x,1/2+y,1/2-z
1/2-x,1/2-y,1/2-z
1/2+x,1/2+y,1/2-z
1/2-x,1/2+y,1/2+z
1/2+x,1/2-y,1/2+z
loop_
_atom_site_type_symbol
_atom_site_label
_atom_site_fract_x
_atom_site_fract_y
_atom_site_fract_z
Si Si1 0.500000 0.740136 0.677160
Si Si2 0.208827 0.847592 0.315551
Si Si3 0.000000 0.348410 0.177432
Si Si4 0.583979 0.500000 0.825291
Si Si5 0.145059 0.241462 0.684036
Si Si6 0.418358 0.404469 0.684010
Si Si7 0.147164 0.344091 0.315880
O O1 0.500000 0.726141 0.500000
O O2 0.500000 0.794186 0.683558
O O3 0.430719 0.724985 0.761986
O O4 0.212200 0.848577 0.500000
O O5 0.198607 0.796082 0.261981
O O6 0.140042 0.873315 0.259647
O O7 0.281650 0.865355 0.247386
O O8 0.072834 0.362282 0.256310
O O9 0.000000 0.361694 0.000000
O O10 0.500000 0.500000 0.836222
O O11 0.600609 0.545284 0.735989
O O12 0.612038 0.500000 0.000000
O O13 0.147769 0.242962 0.500000
O O14 0.150920 0.292226 0.739282
O O15 0.415131 0.400470 0.500000
O O16 0.500000 0.395690 0.729730
O O17 0.146995 0.344854 0.500000
#
# Coordination Sequence:
#
# PCOD9519708 Si02
#       7
#     8  16   8   8  16  16  16
#     4   9  17  27  43  63  83 112 157 204 243 287
#     4  11  22  33  47  69  98 129 164 207 252 298
#     4   9  17  31  49  67  87 116 157 202 245 295
#     4   9  17  33  57  79  99 128 165 200 243 299
#     4   9  19  32  45  62  89 127 165 205 252 300
#     4  10  21  36  53  75 103 134 168 206 249 296
#     4  10  19  33  50  68  92 125 166 210 256 301
#
# _framework density 17.58822
#
# number of rings (size 3 to 8) (size 9 to 14) (size 15 to 20)
#    0.000    2.273    0.000    3.000    1.273    6.545 
#    0.000    0.000    0.000    0.000    0.000    0.000 
#    0.000    0.727    0.000    7.273    0.000    4.364 
#
# Total GULP energy -245279.617526 kJ/mol
# GULP energy per Si atom -5574.536762 kJ/mol
# Density = 1.754819 g / cm^3
# Si number density = 17.588220 Si / 1000 Ang^3
#
#
#
# Elastic Constant Matrix: (Units=GPa)
#
#
# Indices 1 2 3 4 5 6 
#
# 1 139.2608 18.0463 31.9065 0.0000 0.0000 0.0000
# 2 18.0463 32.7916 8.2914 0.0000 0.0000 0.0000
# 3 31.9065 8.2914 35.9335 0.0000 -0.0002 0.0000
# 4 0.0000 0.0000 0.0000 17.5557 -0.0001 0.0000
# 5 0.0000 0.0000 -0.0002 -0.0001 29.7912 0.0000
# 6 0.0000 0.0000 0.0000 0.0000 0.0000 9.6838
#
#
#
# Elastic Compliance Matrix: (Units=1/GPa)
#
#
# Indices 1 2 3 4 5 6 
#
# 1 0.009325 -0.003227 -0.007536 0.000000 0.000000 0.000000
# 2 -0.003227 0.033502 -0.004865 0.000000 0.000000 0.000000
# 3 -0.007536 -0.004865 0.035643 0.000000 0.000000 0.000000
# 4 0.000000 0.000000 0.000000 0.056962 0.000000 0.000000
# 5 0.000000 0.000000 0.000000 0.000000 0.033567 0.000000
# 6 0.000000 0.000000 0.000000 0.000000 0.000000 0.103265
#
#
# Mechanical properties :
#
#
# Convention : Reuss Voigt Hill
#
# Bulk Modulus (GPa) = 21.17983 36.05271 28.61627
# Shear Modulus (GPa) = 15.66136 21.38893 18.52515
#
# Velocity S-wave (km/s) = 2.98727 3.49104 3.24893
# Velocity P-wave (km/s) = 4.89557 6.06568 5.51176
#
# Compressibility (1/GPa) = 0.04721474
#
# Stress axis : x y z
#
# Youngs Moduli (GPa) = 107.23329 29.84934 28.05594
#
# Poissons Ratio (x) = 0.09631 0.21143
# Poissons Ratio (y) = 0.34601 0.13650
# Poissons Ratio (z) = 0.80809 0.14522
#
# Static dielectric constant tensor:
#      x y z
#    x 1.608850 0.000000 0.000000 
#    y 0.000000 1.609340 0.000000 
#    z 0.000000 0.000000 1.586980 
# 
# From -- ./inp_files/8928.got.cif
#   From: 2010.05.17/outbox.cif.g08.bks.cpg/sg71_5_cif.got.tgz:8928.got - 2010.06.03 16:22:01.
