data_PCOD9519858
_publ_section_title
;
Structure prediction by ZEFSAII (Michael W. Deem and Ramdas Pophale) SiO2 
 PCOD9519858
Probable space group: I M M M
;
_chemical_formula_sum "Si O2"
_cell_formula_units_Z 64
_cell_length_a 16.098873
_cell_length_b 7.449602
_cell_length_c 24.665064
_cell_angle_alpha 90.000000
_cell_angle_beta 90.000000
_cell_angle_gamma 90.000000
_cell_volume 2958.085972
_symmetry_space_group_name_H-M "I M M M"
_symmetry_group_IT_number 71
_symmetry_cell_setting 'orthorhombic'
loop_
_space_group_symop_operation_xyz
x,y,z
-x,-y,z
x,-y,-z
-x,y,-z
-x,-y,-z
x,y,-z
-x,y,z
x,-y,z
1/2+x,1/2+y,1/2+z
1/2-x,1/2-y,1/2+z
1/2+x,1/2-y,1/2-z
1/2-x,1/2+y,1/2-z
1/2-x,1/2-y,1/2-z
1/2+x,1/2+y,1/2-z
1/2-x,1/2+y,1/2+z
1/2+x,1/2-y,1/2+z
loop_
_atom_site_type_symbol
_atom_site_label
_atom_site_fract_x
_atom_site_fract_y
_atom_site_fract_z
Si Si1 0.596496 0.218490 0.000000
Si Si2 0.160300 0.786450 0.884449
Si Si3 0.903370 0.780360 0.000000
Si Si4 0.500000 0.212213 0.311653
Si Si5 0.842655 0.719151 0.382087
Si Si6 0.500000 0.220175 0.188637
O O1 0.639499 0.274546 0.944149
O O2 0.500000 0.272978 0.000000
O O3 0.597637 0.000000 0.000000
O O4 0.250444 0.720700 0.865446
O O5 0.082745 0.758806 0.844977
O O6 0.168865 0.000000 0.890344
O O7 0.138518 0.717397 0.944530
O O8 0.000000 0.729699 0.000000
O O9 0.900851 0.000000 0.000000
O O10 0.500000 0.284266 0.250536
O O11 0.500000 0.000000 0.306685
O O12 0.844998 0.500000 0.381245
O O13 0.917608 0.777808 0.343573
O O14 0.500000 0.000000 0.188416
#
# Coordination Sequence:
#
# PCOD9519858 Si02
#       6
#     8  16   8   8  16   8
#     4   9  13  21  43  76 109 130 151 193 250 309
#     4  10  19  33  54  77 100 129 165 204 248 299
#     4   9  15  27  49  74 101 125 149 197 256 295
#     4  11  23  36  49  67  99 139 174 209 246 284
#     4   9  16  27  47  74 103 132 160 197 249 303
#     4   9  18  32  46  67 101 135 164 201 250 294
#
# _framework density 21.635611999999998
#
# number of rings (size 3 to 8) (size 9 to 14) (size 15 to 20)
#    0.000    2.500    2.500    1.125    0.000    4.000 
#    0.000    1.250    0.000    1.500    0.000    0.000 
#    0.000    1.000    0.000    0.000    0.000    0.000 
#
# Total GULP energy -178725.433253 kJ/mol
# GULP energy per Si atom -5585.169789 kJ/mol
# Density = 2.158637 g / cm^3
# Si number density = 21.635612 Si / 1000 Ang^3
#
#
#
# Elastic Constant Matrix: (Units=GPa)
#
#
# Indices 1 2 3 4 5 6 
#
# 1 245.6784 3.2883 120.9830 0.0000 0.0000 0.0000
# 2 3.2883 61.8843 0.4179 0.0000 0.0000 0.0000
# 3 120.9830 0.4179 187.1055 0.0000 0.0000 0.0000
# 4 0.0000 0.0000 0.0000 8.1586 0.0000 0.0000
# 5 0.0000 0.0000 0.0000 0.0000 0.1637 0.0000
# 6 0.0000 0.0000 0.0000 0.0000 0.0000 -13.3020
#
#
#
# Elastic Compliance Matrix: (Units=1/GPa)
#
#
# Indices 1 2 3 4 5 6 
#
# 1 0.005977 -0.000292 -0.003864 0.000000 0.000000 0.000000
# 2 -0.000292 0.016174 0.000152 0.000000 0.000000 0.000000
# 3 -0.003864 0.000152 0.007843 0.000000 0.000000 0.000000
# 4 0.000000 0.000000 0.000000 0.122570 0.000000 0.000000
# 5 0.000000 0.000000 0.000000 0.000000 6.107681 0.000000
# 6 0.000000 0.000000 0.000000 0.000000 0.000000 -0.075177
#
#
# Mechanical properties :
#
#
# Convention : Reuss Voigt Hill
#
# Bulk Modulus (GPa) = 45.48147 82.67183 64.07665
# Shear Modulus (GPa) = 0.80640 23.66934 12.23787
#
# Velocity S-wave (km/s) = 0.61117 3.31115 2.38089
# Velocity P-wave (km/s) = 4.64384 7.27408 6.10236
#
# Compressibility (1/GPa) = 0.02198698
#
# Stress axis : x y z
#
# Youngs Moduli (GPa) = 167.30322 61.82894 127.50478
#
# Poissons Ratio (x) = 0.01802 0.49270
# Poissons Ratio (y) = 0.04877 -0.01943
# Poissons Ratio (z) = 0.64649 -0.00942
#
# Static dielectric constant tensor:
#      x y z
#    x 1.707830 0.000000 0.000000 
#    y 0.000000 1.847220 0.000000 
#    z 0.000000 0.000000 1.753460 
# 
# From -- ./inp_files/5622.got.cif
#   From: 2010.05.17/outbox.cif.g08.bks.cpg/sg71_3_cif.got.tgz:5622.got - 2010.06.03 16:22:01.
