data_PCOD9519038
_publ_section_title
;
Structure prediction by ZEFSAII (Michael W. Deem and Ramdas Pophale) SiO2 
 PCOD9519038
Probable space group: I M M M
;
_chemical_formula_sum "Si O2"
_cell_formula_units_Z 72
_cell_length_a 32.460186
_cell_length_b 8.744547
_cell_length_c 14.869478
_cell_angle_alpha 90.000000
_cell_angle_beta 90.000000
_cell_angle_gamma 90.000000
_cell_volume 4220.695711
_symmetry_space_group_name_H-M "I M M M"
_symmetry_group_IT_number 71
_symmetry_cell_setting 'orthorhombic'
loop_
_space_group_symop_operation_xyz
x,y,z
-x,-y,z
x,-y,-z
-x,y,-z
-x,-y,-z
x,y,-z
-x,y,z
x,-y,z
1/2+x,1/2+y,1/2+z
1/2-x,1/2-y,1/2+z
1/2+x,1/2-y,1/2-z
1/2-x,1/2+y,1/2-z
1/2-x,1/2-y,1/2-z
1/2+x,1/2+y,1/2-z
1/2-x,1/2+y,1/2+z
1/2+x,1/2-y,1/2+z
loop_
_atom_site_type_symbol
_atom_site_label
_atom_site_fract_x
_atom_site_fract_y
_atom_site_fract_z
Si Si1 0.868800 0.684196 0.696479
Si Si2 0.546859 0.317955 0.807750
Si Si3 0.834041 0.684154 0.500000
Si Si4 0.951559 0.670286 0.500000
Si Si5 0.288116 0.815352 0.694125
Si Si6 0.241659 0.684599 0.000000
O O1 0.871739 0.500000 0.695874
O O2 0.911948 0.747920 0.734806
O O3 0.856883 0.729761 0.593117
O O4 0.830684 0.732235 0.759162
O O5 0.500000 0.265591 0.782861
O O6 0.547268 0.500000 0.800143
O O7 0.554643 0.265683 0.910416
O O8 0.830752 0.500000 0.500000
O O9 0.787982 0.750749 0.500000
O O10 0.931391 0.500000 0.500000
O O11 0.000000 0.644471 0.500000
O O12 0.250000 0.750000 0.750000
O O13 0.281805 0.768372 0.590764
O O14 0.286680 0.000000 0.698349
O O15 0.244487 0.500000 0.000000
#
# Coordination Sequence:
#
# PCOD9519038 Si02
#       6
#    16  16   8   8  16   8
#     4  10  20  32  48  71  99 133 170 206 247 297
#     4  10  20  32  46  67  95 126 164 210 254 295
#     4  10  19  31  47  70  99 131 170 207 240 286
#     4   9  16  27  44  64  90 127 165 198 237 290
#     4  10  20  34  52  75 102 132 167 206 247 294
#     4  10  20  33  51  75 102 132 165 204 250 290
#
# _framework density 17.058799
#
# number of rings (size 3 to 8) (size 9 to 14) (size 15 to 20)
#    0.000    2.111    2.222    1.667    0.000    5.333 
#    0.000    0.000    0.000    0.000    0.000    0.778 
#    0.000    6.222    0.000    0.000    0.000    0.000 
#
# Total GULP energy -200531.361845 kJ/mol
# GULP energy per Si atom -5570.315607 kJ/mol
# Density = 1.701997 g / cm^3
# Si number density = 17.058799 Si / 1000 Ang^3
#
#
#
# Elastic Constant Matrix: (Units=GPa)
#
#
# Indices 1 2 3 4 5 6 
#
# 1 189.8127 30.7814 62.6675 0.0000 0.0000 0.0000
# 2 30.7814 13.4756 16.0790 0.0000 0.0000 0.0000
# 3 62.6675 16.0790 92.0801 0.0000 0.0000 0.0000
# 4 0.0000 0.0000 0.0000 10.1081 0.0000 0.0000
# 5 0.0000 0.0000 0.0000 0.0000 16.4962 0.0000
# 6 0.0000 0.0000 0.0000 0.0000 0.0000 30.5510
#
#
#
# Elastic Compliance Matrix: (Units=1/GPa)
#
#
# Indices 1 2 3 4 5 6 
#
# 1 0.009069 -0.016864 -0.003227 0.000000 0.000000 0.000000
# 2 -0.016864 0.125101 -0.010368 0.000000 0.000000 0.000000
# 3 -0.003227 -0.010368 0.014867 0.000000 0.000000 0.000000
# 4 0.000000 0.000000 0.000000 0.098930 0.000000 0.000000
# 5 0.000000 0.000000 0.000000 0.000000 0.060620 0.000000
# 6 0.000000 0.000000 0.000000 0.000000 0.000000 0.032732
#
#
# Mechanical properties :
#
#
# Convention : Reuss Voigt Hill
#
# Bulk Modulus (GPa) = 11.34841 57.15825 34.25333
# Shear Modulus (GPa) = 11.58456 23.82043 17.70249
#
# Velocity S-wave (km/s) = 2.60877 3.74086 3.22488
# Velocity P-wave (km/s) = 3.96752 7.22759 5.83006
#
# Compressibility (1/GPa) = 0.08811805
#
# Stress axis : x y z
#
# Youngs Moduli (GPa) = 110.27064 7.99357 67.26419
#
# Poissons Ratio (x) = 0.13481 0.21706
# Poissons Ratio (y) = 1.85963 0.69737
# Poissons Ratio (z) = 0.35585 0.08287
#
# Static dielectric constant tensor:
#      x y z
#    x 1.632240 0.000000 0.000000 
#    y 0.000000 1.580690 0.000000 
#    z 0.000000 0.000000 1.606880 
# 
# From -- ./inp_files/40717.got.cif
#   From: 2010.05.17/outbox.cif.g08.bks.cpg/sg71_21_cif.got.tgz:40717.got - 2010.06.03 16:22:01.
