data_PCOD9519769
_publ_section_title
;
Structure prediction by ZEFSAII (Michael W. Deem and Ramdas Pophale) SiO2 
 PCOD9519769
Probable space group: I M M M
;
_chemical_formula_sum "Si O2"
_cell_formula_units_Z 80
_cell_length_a 18.032986
_cell_length_b 13.250082
_cell_length_c 19.519599
_cell_angle_alpha 90.000000
_cell_angle_beta 90.000000
_cell_angle_gamma 90.000000
_cell_volume 4663.984549
_symmetry_space_group_name_H-M "I M M M"
_symmetry_group_IT_number 71
_symmetry_cell_setting 'orthorhombic'
loop_
_space_group_symop_operation_xyz
x,y,z
-x,-y,z
x,-y,-z
-x,y,-z
-x,-y,-z
x,y,-z
-x,y,z
x,-y,z
1/2+x,1/2+y,1/2+z
1/2-x,1/2-y,1/2+z
1/2+x,1/2-y,1/2-z
1/2-x,1/2+y,1/2-z
1/2-x,1/2-y,1/2-z
1/2+x,1/2+y,1/2-z
1/2-x,1/2+y,1/2+z
1/2+x,1/2-y,1/2+z
loop_
_atom_site_type_symbol
_atom_site_label
_atom_site_fract_x
_atom_site_fract_y
_atom_site_fract_z
Si Si1 0.588193 0.293239 0.079748
Si Si2 0.911108 0.612727 0.920644
Si Si3 0.183536 0.244185 0.830763
Si Si4 0.701295 0.883272 0.080587
Si Si5 0.678672 0.618076 0.797066
O O1 0.500000 0.290511 0.090889
O O2 0.627302 0.184062 0.088869
O O3 0.629983 0.362752 0.134894
O O4 0.601107 0.323639 0.000000
O O5 0.887757 0.500000 0.897413
O O6 0.876676 0.701361 0.876931
O O7 0.000000 0.615748 0.918304
O O8 0.888188 0.622822 0.000000
O O9 0.234731 0.167350 0.874045
O O10 0.240019 0.333025 0.807793
O O11 0.149536 0.184201 0.766755
O O12 0.689994 0.000000 0.098780
O O13 0.721447 0.877698 0.000000
O O14 0.682091 0.500000 0.781763
#
# Coordination Sequence:
#
# PCOD9519769 Si02
#       5
#    16  16  16  16  16
#     4   9  19  35  52  72  99 130 168 213 255 296
#     4   9  18  33  54  79 104 131 164 202 246 294
#     4  10  19  33  52  73 103 132 163 206 249 294
#     4   9  17  30  51  77 101 129 164 199 242 296
#     4  10  21  34  50  73  99 132 170 206 250 300
#
# _framework density 17.152715000000001
#
# number of rings (size 3 to 8) (size 9 to 14) (size 15 to 20)
#    0.000    2.600    0.000    2.400    0.000    2.800 
#    0.000    4.000    0.000    1.800    0.000    7.000 
#    0.000    0.000    0.000    0.000    0.000    0.000 
#
# Total GULP energy -222950.462162 kJ/mol
# GULP energy per Si atom -5573.761554 kJ/mol
# Density = 1.711367 g / cm^3
# Si number density = 17.152715 Si / 1000 Ang^3
#
#
#
# Elastic Constant Matrix: (Units=GPa)
#
#
# Indices 1 2 3 4 5 6 
#
# 1 38.3791 31.5344 36.7028 0.0000 0.0000 0.0000
# 2 31.5344 117.5134 59.7030 0.0000 0.0000 0.0000
# 3 36.7028 59.7030 80.8308 0.0000 0.0000 0.0000
# 4 0.0000 0.0000 0.0000 25.9609 0.0000 0.0000
# 5 0.0000 0.0000 0.0000 0.0000 17.5513 0.0000
# 6 0.0000 0.0000 0.0000 0.0000 0.0000 16.1779
#
#
#
# Elastic Compliance Matrix: (Units=1/GPa)
#
#
# Indices 1 2 3 4 5 6 
#
# 1 0.046627 -0.002810 -0.019096 0.000000 0.000000 0.000000
# 2 -0.002810 0.013790 -0.008910 0.000000 0.000000 0.000000
# 3 -0.019096 -0.008910 0.027623 0.000000 0.000000 0.000000
# 4 0.000000 0.000000 0.000000 0.038520 0.000000 0.000000
# 5 0.000000 0.000000 0.000000 0.000000 0.056976 0.000000
# 6 0.000000 0.000000 0.000000 0.000000 0.000000 0.061813
#
#
# Mechanical properties :
#
#
# Convention : Reuss Voigt Hill
#
# Bulk Modulus (GPa) = 37.86678 54.73374 46.30026
# Shear Modulus (GPa) = 15.83361 19.19022 17.51192
#
# Velocity S-wave (km/s) = 3.04155 3.34846 3.19868
# Velocity P-wave (km/s) = 5.87017 6.85044 6.37916
#
# Compressibility (1/GPa) = 0.02640837
#
# Stress axis : x y z
#
# Youngs Moduli (GPa) = 21.44679 72.51395 36.20133
#
# Poissons Ratio (x) = 0.20380 0.69130
# Poissons Ratio (y) = 0.06028 0.32254
# Poissons Ratio (z) = 0.40955 0.64608
#
# Static dielectric constant tensor:
#      x y z
#    x 1.552570 0.000000 0.000000 
#    y 0.000000 1.563380 0.000000 
#    z 0.000000 0.000000 1.609720 
# 
# From -- ./inp_files/44615.got.cif
#   From: 2010.05.17/outbox.cif.g08.bks.cpg/sg71_23_cif.got.tgz:44615.got - 2010.06.03 16:22:01.
