data_PCOD9519713
_publ_section_title
;
Structure prediction by ZEFSAII (Michael W. Deem and Ramdas Pophale) SiO2 
 PCOD9519713
Probable space group: I M M M
;
_chemical_formula_sum "Si O2"
_cell_formula_units_Z 80
_cell_length_a 11.175247
_cell_length_b 30.300433
_cell_length_c 13.161326
_cell_angle_alpha 90.000000
_cell_angle_beta 90.000000
_cell_angle_gamma 90.000000
_cell_volume 4456.620074
_symmetry_space_group_name_H-M "I M M M"
_symmetry_group_IT_number 71
_symmetry_cell_setting 'orthorhombic'
loop_
_space_group_symop_operation_xyz
x,y,z
-x,-y,z
x,-y,-z
-x,y,-z
-x,-y,-z
x,y,-z
-x,y,z
x,-y,z
1/2+x,1/2+y,1/2+z
1/2-x,1/2-y,1/2+z
1/2+x,1/2-y,1/2-z
1/2-x,1/2+y,1/2-z
1/2-x,1/2-y,1/2-z
1/2+x,1/2+y,1/2-z
1/2-x,1/2+y,1/2+z
1/2+x,1/2-y,1/2+z
loop_
_atom_site_type_symbol
_atom_site_label
_atom_site_fract_x
_atom_site_fract_y
_atom_site_fract_z
Si Si1 0.862073 0.762942 0.884185
Si Si2 0.859953 0.895881 0.385523
Si Si3 0.868671 0.605813 0.615133
Si Si4 0.288621 0.177168 0.269154
Si Si5 0.137359 0.052217 0.815737
O O1 0.792647 0.795812 0.810318
O O2 0.852962 0.714012 0.836685
O O3 0.000000 0.776405 0.886171
O O4 0.815670 0.763275 0.000000
O O5 0.822675 0.907581 0.500000
O O6 0.787929 0.854369 0.342350
O O7 0.848406 0.934863 0.303081
O O8 0.000000 0.884192 0.387608
O O9 0.862674 0.623470 0.500000
O O10 0.864045 0.644302 0.698608
O O11 0.749377 0.576400 0.631265
O O12 0.000000 0.583136 0.625080
O O13 0.000000 0.066266 0.845154
O O14 0.144574 0.000000 0.831635
#
# Coordination Sequence:
#
# PCOD9519713 Si02
#       5
#    16  16  16  16  16
#     4  10  20  32  48  71  98 130 169 211 253 298
#     4   9  17  30  50  75 101 131 169 211 253 298
#     4  10  21  36  54  76 102 134 171 210 254 303
#     4  10  19  33  50  70  99 133 168 208 254 300
#     4   9  19  35  54  78 106 134 166 206 252 301
#
# _framework density 17.950823
#
# number of rings (size 3 to 8) (size 9 to 14) (size 15 to 20)
#    0.000    2.400    0.000    2.400    0.000    2.400 
#    0.000    4.000    0.000   15.000    0.000    5.600 
#    0.000    0.000    0.000    0.000    0.000    0.000 
#
# Total GULP energy -222781.200695 kJ/mol
# GULP energy per Si atom -5569.530017 kJ/mol
# Density = 1.790997 g / cm^3
# Si number density = 17.950823 Si / 1000 Ang^3
#
#
#
# Elastic Constant Matrix: (Units=GPa)
#
#
# Indices 1 2 3 4 5 6 
#
# 1 85.2092 17.5734 19.2704 -0.0001 0.0000 0.0000
# 2 17.5734 28.5520 -18.3582 0.0000 0.0000 0.0000
# 3 19.2704 -18.3582 70.7590 0.0001 0.0002 0.0000
# 4 -0.0001 0.0000 0.0001 6.0633 0.0000 0.0000
# 5 0.0000 0.0000 0.0002 0.0000 23.0943 0.0000
# 6 0.0000 0.0000 0.0000 0.0000 0.0000 11.3002
#
#
#
# Elastic Compliance Matrix: (Units=1/GPa)
#
#
# Indices 1 2 3 4 5 6 
#
# 1 0.017082 -0.016209 -0.008857 0.000000 0.000000 0.000000
# 2 -0.016209 0.057416 0.019311 0.000000 0.000000 0.000000
# 3 -0.008857 0.019311 0.021555 0.000000 0.000000 0.000000
# 4 0.000000 0.000000 0.000000 0.164928 0.000000 0.000000
# 5 0.000000 0.000000 0.000000 0.000000 0.043301 0.000000
# 6 0.000000 0.000000 0.000000 0.000000 0.000000 0.088494
#
#
# Mechanical properties :
#
#
# Convention : Reuss Voigt Hill
#
# Bulk Modulus (GPa) = 11.82838 24.61016 18.21927
# Shear Modulus (GPa) = 11.56157 19.16053 15.36105
#
# Velocity S-wave (km/s) = 2.54061 3.27064 2.92846
# Velocity P-wave (km/s) = 3.89998 5.29172 4.64823
#
# Compressibility (1/GPa) = 0.08454245
#
# Stress axis : x y z
#
# Youngs Moduli (GPa) = 58.54184 17.41664 46.39341
#
# Poissons Ratio (x) = 0.28230 0.41092
# Poissons Ratio (y) = 0.94889 -0.89589
# Poissons Ratio (z) = 0.51852 -0.33633
#
# Static dielectric constant tensor:
#      x y z
#    x 1.629080 0.000000 0.000000 
#    y 0.000000 1.589680 0.000000 
#    z 0.000000 0.000000 1.614400 
# 
# From -- ./inp_files/20108.got.cif
#   From: 2010.05.17/outbox.cif.g08.bks.cpg/sg71_11_cif.got.tgz:20108.got - 2010.06.03 16:22:01.
