data_PCOD9519959
_publ_section_title
;
Structure prediction by ZEFSAII (Michael W. Deem and Ramdas Pophale) SiO2 
 PCOD9519959
Probable space group: I M M M
;
_chemical_formula_sum "Si O2"
_cell_formula_units_Z 80
_cell_length_a 29.826909
_cell_length_b 15.824732
_cell_length_c 9.011116
_cell_angle_alpha 90.000000
_cell_angle_beta 90.000000
_cell_angle_gamma 90.000000
_cell_volume 4253.272355
_symmetry_space_group_name_H-M "I M M M"
_symmetry_group_IT_number 71
_symmetry_cell_setting 'orthorhombic'
loop_
_space_group_symop_operation_xyz
x,y,z
-x,-y,z
x,-y,-z
-x,y,-z
-x,-y,-z
x,y,-z
-x,y,z
x,-y,z
1/2+x,1/2+y,1/2+z
1/2-x,1/2-y,1/2+z
1/2+x,1/2-y,1/2-z
1/2-x,1/2+y,1/2-z
1/2-x,1/2-y,1/2-z
1/2+x,1/2+y,1/2-z
1/2-x,1/2+y,1/2+z
1/2+x,1/2-y,1/2+z
loop_
_atom_site_type_symbol
_atom_site_label
_atom_site_fract_x
_atom_site_fract_y
_atom_site_fract_z
Si Si1 0.052232 0.258557 0.179361
Si Si2 0.106330 0.093299 0.819210
Si Si3 0.888374 0.404228 0.676789
Si Si4 0.295228 0.648592 0.673911
Si Si5 0.703042 0.147035 0.327420
O O1 0.075166 0.170630 0.228402
O O2 0.079775 0.335732 0.247313
O O3 0.000000 0.261281 0.219564
O O4 0.055620 0.262738 0.000000
O O5 0.157832 0.109636 0.774274
O O6 0.091569 0.000000 0.771696
O O7 0.106316 0.094602 0.000000
O O8 0.888906 0.392960 0.500000
O O9 0.902674 0.500000 0.711484
O O10 0.838048 0.390637 0.736303
O O11 0.288864 0.627783 0.500000
O O12 0.299688 0.750539 0.684504
O O13 0.251447 0.621873 0.763978
O O14 0.698836 0.124642 0.500000
#
# Coordination Sequence:
#
# PCOD9519959 Si02
#       5
#    16  16  16  16  16
#     4  10  21  39  62  87 114 144 184 235 289 342
#     4   9  17  32  56  86 118 150 185 227 275 330
#     4  11  24  40  59  83 112 149 193 237 285 343
#     4   9  17  31  52  81 118 156 191 225 270 330
#     4  10  19  33  55  83 116 151 191 235 278 330
#
# _framework density 18.809047
#
# number of rings (size 3 to 8) (size 9 to 14) (size 15 to 20)
#    0.000    2.200    2.000    1.200    0.000    4.400 
#    0.000    6.000    0.000    1.800    0.000    1.400 
#    0.000    0.000    0.000    0.000    0.000    0.000 
#
# Total GULP energy -223355.353602 kJ/mol
# GULP energy per Si atom -5583.883840 kJ/mol
# Density = 1.876624 g / cm^3
# Si number density = 18.809047 Si / 1000 Ang^3
#
#
#
# Elastic Constant Matrix: (Units=GPa)
#
#
# Indices 1 2 3 4 5 6 
#
# 1 137.4513 82.3882 34.8761 0.0000 0.0000 0.0000
# 2 82.3882 121.2192 38.6409 0.0000 0.0000 0.0000
# 3 34.8761 38.6409 24.0102 0.0000 0.0000 0.0000
# 4 0.0000 0.0000 0.0000 10.1172 0.0000 0.0000
# 5 0.0000 0.0000 0.0000 0.0000 28.4301 0.0000
# 6 0.0000 0.0000 0.0000 0.0000 0.0000 -4.5044
#
#
#
# Elastic Compliance Matrix: (Units=1/GPa)
#
#
# Indices 1 2 3 4 5 6 
#
# 1 0.013314 -0.005923 -0.009807 0.000000 0.000000 0.000000
# 2 -0.005923 0.019575 -0.022900 0.000000 0.000000 0.000000
# 3 -0.009807 -0.022900 0.092748 0.000000 0.000000 0.000000
# 4 0.000000 0.000000 0.000000 0.098842 0.000000 0.000000
# 5 0.000000 0.000000 0.000000 0.000000 0.035174 0.000000
# 6 0.000000 0.000000 0.000000 0.000000 0.000000 -0.222006
#
#
# Mechanical properties :
#
#
# Convention : Reuss Voigt Hill
#
# Bulk Modulus (GPa) = 20.67075 66.05458 43.36266
# Shear Modulus (GPa) = 38.15880 15.26028 26.70954
#
# Velocity S-wave (km/s) = 4.50905 2.85147 3.77243
# Velocity P-wave (km/s) = 6.17433 6.78498 6.48684
#
# Compressibility (1/GPa) = 0.04837754
#
# Stress axis : x y z
#
# Youngs Moduli (GPa) = 75.11017 51.08677 10.78186
#
# Poissons Ratio (x) = 0.30256 0.10574
# Poissons Ratio (y) = 0.44484 0.24690
# Poissons Ratio (z) = 0.73664 1.16986
#
# Static dielectric constant tensor:
#      x y z
#    x 1.619230 0.000000 0.000000 
#    y 0.000000 1.668570 0.000000 
#    z 0.000000 0.000000 1.630730 
# 
# From -- ./inp_files/14547.got.cif
#   From: 2010.05.17/outbox.cif.g08.bks.cpg/sg71_8_cif.got.tgz:14547.got - 2010.06.03 16:22:01.
