data_PCOD9519330
_publ_section_title
;
Structure prediction by ZEFSAII (Michael W. Deem and Ramdas Pophale) SiO2 
 PCOD9519330
Probable space group: I M M M
;
_chemical_formula_sum "Si O2"
_cell_formula_units_Z 88
_cell_length_a 9.033542
_cell_length_b 20.846157
_cell_length_c 27.131770
_cell_angle_alpha 90.000000
_cell_angle_beta 90.000000
_cell_angle_gamma 90.000000
_cell_volume 5109.309359
_symmetry_space_group_name_H-M "I M M M"
_symmetry_group_IT_number 71
_symmetry_cell_setting 'orthorhombic'
loop_
_space_group_symop_operation_xyz
x,y,z
-x,-y,z
x,-y,-z
-x,y,-z
-x,-y,-z
x,y,-z
-x,y,z
x,-y,z
1/2+x,1/2+y,1/2+z
1/2-x,1/2-y,1/2+z
1/2+x,1/2-y,1/2-z
1/2-x,1/2+y,1/2-z
1/2-x,1/2-y,1/2-z
1/2+x,1/2+y,1/2-z
1/2-x,1/2+y,1/2+z
1/2+x,1/2-y,1/2+z
loop_
_atom_site_type_symbol
_atom_site_label
_atom_site_fract_x
_atom_site_fract_y
_atom_site_fract_z
Si Si1 0.328545 0.500000 0.560004
Si Si2 0.176341 0.132946 0.212959
Si Si3 0.330863 0.000000 0.668435
Si Si4 0.828563 0.500000 0.288419
Si Si5 0.324065 0.368972 0.830138
Si Si6 0.677977 0.770617 0.862145
Si Si7 0.678304 0.359222 0.558446
O O1 0.500000 0.500000 0.576066
O O2 0.330202 0.500000 0.500000
O O3 0.266139 0.569372 0.574162
O O4 0.243920 0.064591 0.196622
O O5 0.203943 0.139695 0.271503
O O6 0.254622 0.189468 0.183328
O O7 0.000000 0.133667 0.204577
O O8 0.253031 0.065792 0.652880
O O9 0.500000 0.000000 0.652736
O O10 0.326550 0.000000 0.728451
O O11 0.000000 0.500000 0.304242
O O12 0.500000 0.376847 0.835664
O O13 0.277893 0.303801 0.857132
O O14 0.500000 0.774163 0.860736
O O15 0.741955 0.805108 0.910275
O O16 0.703130 0.352272 0.500000
O O17 0.500000 0.357180 0.566323
#
# Coordination Sequence:
#
# PCOD9519330 Si02
#       7
#     8  16   8   8  16  16  16
#     4   7  12  27  51  72  89 116 157 200 237 274
#     4  10  19  32  49  68  94 131 171 205 238 282
#     4   9  17  29  50  74  94 121 159 203 243 283
#     4   9  17  30  46  67  96 128 163 204 247 285
#     4   9  19  34  50  69  97 132 165 197 238 291
#     4  11  22  33  47  71 101 131 162 200 247 291
#     4   9  18  34  54  73  94 124 164 207 247 290
#
# _framework density 17.223462000000001
#
# number of rings (size 3 to 8) (size 9 to 14) (size 15 to 20)
#    0.000    2.636    0.000    3.273    0.000    5.455 
#    0.000    3.182    0.000    1.636    0.000    0.636 
#    0.000    5.091    0.000    0.000    0.000    0.000 
#
# Total GULP energy -245419.866094 kJ/mol
# GULP energy per Si atom -5577.724229 kJ/mol
# Density = 1.718426 g / cm^3
# Si number density = 17.223462 Si / 1000 Ang^3
#
#
#
# Elastic Constant Matrix: (Units=GPa)
#
#
# Indices 1 2 3 4 5 6 
#
# 1 56.8343 69.7301 32.7665 0.0000 0.0000 0.0000
# 2 69.7301 199.6583 55.3226 0.0000 0.0000 0.0000
# 3 32.7665 55.3226 44.9523 0.0000 0.0000 0.0000
# 4 0.0000 0.0000 0.0000 64.0929 0.0000 0.0000
# 5 0.0000 0.0000 0.0000 0.0000 21.4439 0.0000
# 6 0.0000 0.0000 0.0000 0.0000 0.0000 31.8771
#
#
#
# Elastic Compliance Matrix: (Units=1/GPa)
#
#
# Indices 1 2 3 4 5 6 
#
# 1 0.037909 -0.008472 -0.017206 0.000000 0.000000 0.000000
# 2 -0.008472 0.009494 -0.005508 0.000000 0.000000 0.000000
# 3 -0.017206 -0.005508 0.041567 0.000000 0.000000 0.000000
# 4 0.000000 0.000000 0.000000 0.015602 0.000000 0.000000
# 5 0.000000 0.000000 0.000000 0.000000 0.046633 0.000000
# 6 0.000000 0.000000 0.000000 0.000000 0.000000 0.031370
#
#
# Mechanical properties :
#
#
# Convention : Reuss Voigt Hill
#
# Bulk Modulus (GPa) = 37.59887 68.56479 53.08183
# Shear Modulus (GPa) = 19.69942 33.05783 26.37863
#
# Velocity S-wave (km/s) = 3.38561 4.38579 3.91775
# Velocity P-wave (km/s) = 6.09595 8.09582 7.16599
#
# Compressibility (1/GPa) = 0.02659655
#
# Stress axis : x y z
#
# Youngs Moduli (GPa) = 26.37880 105.33269 24.05764
#
# Poissons Ratio (x) = 0.89239 0.41394
# Poissons Ratio (y) = 0.22348 0.13252
# Poissons Ratio (z) = 0.45388 0.58022
#
# Static dielectric constant tensor:
#      x y z
#    x 1.574970 0.000000 0.000000 
#    y 0.000000 1.588360 0.000000 
#    z 0.000000 0.000000 1.587090 
# 
# From -- ./inp_files/68069.got.cif
#   From: 2010.05.17/outbox.cif.g08.bks.cpg/sg71_35_cif.got.tgz:68069.got - 2010.06.03 16:22:01.
