data_PCOD9519794
_publ_section_title
;
Structure prediction by ZEFSAII (Michael W. Deem and Ramdas Pophale) SiO2 
 PCOD9519794
Probable space group: I M M M
;
_chemical_formula_sum "Si O2"
_cell_formula_units_Z 104
_cell_length_a 12.657988
_cell_length_b 19.234072
_cell_length_c 25.806151
_cell_angle_alpha 90.000000
_cell_angle_beta 90.000000
_cell_angle_gamma 90.000000
_cell_volume 6282.885587
_symmetry_space_group_name_H-M "I M M M"
_symmetry_group_IT_number 71
_symmetry_cell_setting 'orthorhombic'
loop_
_space_group_symop_operation_xyz
x,y,z
-x,-y,z
x,-y,-z
-x,y,-z
-x,-y,-z
x,y,-z
-x,y,z
x,-y,z
1/2+x,1/2+y,1/2+z
1/2-x,1/2-y,1/2+z
1/2+x,1/2-y,1/2-z
1/2-x,1/2+y,1/2-z
1/2-x,1/2-y,1/2-z
1/2+x,1/2+y,1/2-z
1/2-x,1/2+y,1/2+z
1/2+x,1/2-y,1/2+z
loop_
_atom_site_type_symbol
_atom_site_label
_atom_site_fract_x
_atom_site_fract_y
_atom_site_fract_z
Si Si1 0.625884 0.577622 0.865081
Si Si2 0.259288 0.641821 0.229108
Si Si3 0.378264 0.268082 0.689604
Si Si4 0.623520 0.706582 0.939372
Si Si5 0.622390 0.083039 0.822710
Si Si6 0.764590 0.836553 0.904783
Si Si7 0.626896 0.583286 0.500000
O O1 0.500000 0.581680 0.855229
O O2 0.648624 0.500000 0.885220
O O3 0.688388 0.590894 0.812080
O O4 0.651571 0.639617 0.904800
O O5 0.348570 0.679701 0.263641
O O6 0.196519 0.701807 0.198430
O O7 0.180048 0.606924 0.270062
O O8 0.500000 0.248481 0.691529
O O9 0.348711 0.305442 0.635968
O O10 0.500000 0.724036 0.928624
O O11 0.697305 0.772011 0.926911
O O12 0.632050 0.689414 0.000000
O O13 0.500000 0.105503 0.822525
O O14 0.685169 0.116964 0.870378
O O15 0.626310 0.000000 0.826585
O O16 0.820298 0.880699 0.949783
O O17 0.645738 0.500000 0.500000
O O18 0.500000 0.594181 0.500000
#
# Coordination Sequence:
#
# PCOD9519794 Si02
#       7
#    16  16  16  16  16  16   8
#     4  10  20  34  54  81 111 143 180 222 272 329
#     4  10  19  33  52  76 109 145 175 225 266 319
#     4  10  20  32  51  79 105 137 181 223 268 317
#     4  10  20  35  56  81 108 139 177 223 274 323
#     4  10  21  35  52  77 110 146 180 217 267 324
#     4  11  20  37  57  78 107 141 179 224 269 317
#     4  11  24  40  59  83 110 141 181 227 271 318
#
# _framework density 16.552904000000002
#
# number of rings (size 3 to 8) (size 9 to 14) (size 15 to 20)
#    0.000    1.769    2.308    2.769    0.000    0.308 
#    0.000    1.538    0.000    9.231    0.000    0.000 
#    0.000    1.846    0.000    0.000    0.000    0.000 
#
# Total GULP energy -290184.207581 kJ/mol
# GULP energy per Si atom -5580.465530 kJ/mol
# Density = 1.651523 g / cm^3
# Si number density = 16.552904 Si / 1000 Ang^3
#
#
#
# Elastic Constant Matrix: (Units=GPa)
#
#
# Indices 1 2 3 4 5 6 
#
# 1 59.5230 42.5290 48.5240 0.0000 0.0000 0.0000
# 2 42.5290 108.3747 59.9040 0.0000 0.0000 0.0000
# 3 48.5240 59.9040 110.9900 0.0000 0.0000 0.0000
# 4 0.0000 0.0000 0.0000 25.4015 0.0000 0.0000
# 5 0.0000 0.0000 0.0000 0.0000 15.7546 0.0000
# 6 0.0000 0.0000 0.0000 0.0000 0.0000 23.5185
#
#
#
# Elastic Compliance Matrix: (Units=1/GPa)
#
#
# Indices 1 2 3 4 5 6 
#
# 1 0.028737 -0.006175 -0.009231 0.000000 0.000000 0.000000
# 2 -0.006175 0.014477 -0.005114 0.000000 0.000000 0.000000
# 3 -0.009231 -0.005114 0.015806 0.000000 0.000000 0.000000
# 4 0.000000 0.000000 0.000000 0.039368 0.000000 0.000000
# 5 0.000000 0.000000 0.000000 0.000000 0.063474 0.000000
# 6 0.000000 0.000000 0.000000 0.000000 0.000000 0.042520
#
#
# Mechanical properties :
#
#
# Convention : Reuss Voigt Hill
#
# Bulk Modulus (GPa) = 55.61614 64.53353 60.07483
# Shear Modulus (GPa) = 19.88742 21.46362 20.67552
#
# Velocity S-wave (km/s) = 3.46995 3.60483 3.53803
# Velocity P-wave (km/s) = 7.05167 7.50981 7.28434
#
# Compressibility (1/GPa) = 0.01798039
#
# Stress axis : x y z
#
# Youngs Moduli (GPa) = 34.79775 69.07394 63.26781
#
# Poissons Ratio (x) = 0.42652 0.58403
# Poissons Ratio (y) = 0.21487 0.32356
# Poissons Ratio (z) = 0.32122 0.35325
#
# Static dielectric constant tensor:
#      x y z
#    x 1.533270 0.000000 0.000000 
#    y 0.000000 1.546860 0.000000 
#    z 0.000000 0.000000 1.538190 
# 
# From -- ./inp_files/64646.got.cif
#   From: 2010.05.17/outbox.cif.g08.bks.cpg/sg71_33_cif.got.tgz:64646.got - 2010.06.03 16:22:01.
