data_PCOD9519781
_publ_section_title
;
Structure prediction by ZEFSAII (Michael W. Deem and Ramdas Pophale) SiO2 
 PCOD9519781
Probable space group: I M M M
;
_chemical_formula_sum "Si O2"
_cell_formula_units_Z 96
_cell_length_a 7.525064
_cell_length_b 19.987855
_cell_length_c 30.359585
_cell_angle_alpha 90.000000
_cell_angle_beta 90.000000
_cell_angle_gamma 90.000000
_cell_volume 4566.381783
_symmetry_space_group_name_H-M "I M M M"
_symmetry_group_IT_number 71
_symmetry_cell_setting 'orthorhombic'
loop_
_space_group_symop_operation_xyz
x,y,z
-x,-y,z
x,-y,-z
-x,y,-z
-x,-y,-z
x,y,-z
-x,y,z
x,-y,z
1/2+x,1/2+y,1/2+z
1/2-x,1/2-y,1/2+z
1/2+x,1/2-y,1/2-z
1/2-x,1/2+y,1/2-z
1/2-x,1/2-y,1/2-z
1/2+x,1/2+y,1/2-z
1/2-x,1/2+y,1/2+z
1/2+x,1/2-y,1/2+z
loop_
_atom_site_type_symbol
_atom_site_label
_atom_site_fract_x
_atom_site_fract_y
_atom_site_fract_z
Si Si1 0.282315 0.323370 0.627315
Si Si2 0.203337 0.325868 0.123199
Si Si3 0.714446 0.573181 0.051146
Si Si4 0.216683 0.077513 0.049854
Si Si5 0.791264 0.575475 0.803887
Si Si6 0.788655 0.823105 0.771608
O O1 0.500000 0.326852 0.626537
O O2 0.222435 0.247785 0.616714
O O3 0.222393 0.375336 0.589877
O O4 0.225351 0.332370 0.678144
O O5 0.206276 0.367208 0.078605
O O6 0.288904 0.374990 0.159267
O O7 0.000000 0.314225 0.138262
O O8 0.500000 0.576556 0.053798
O O9 0.769126 0.500000 0.068737
O O10 0.762874 0.576376 0.000000
O O11 0.000000 0.078889 0.049962
O O12 0.269051 0.000000 0.056410
O O13 0.271315 0.097866 0.000000
O O14 0.717623 0.500000 0.802309
O O15 0.778206 0.616912 0.758932
O O16 0.000000 0.568661 0.814646
O O17 0.750000 0.750000 0.750000
O O18 0.000000 0.827769 0.772708
#
# Coordination Sequence:
#
# PCOD9519781 Si02
#       6
#    16  16  16  16  16  16
#     4   9  18  31  49  74 104 136 172 216 263 312
#     4  10  19  33  52  75 102 134 173 217 267 317
#     4   9  19  35  51  69  99 136 171 212 261 310
#     4   8  14  26  45  70 102 138 171 208 262 320
#     4  10  21  37  55  77 108 142 178 224 275 325
#     4  11  21  36  56  77 107 144 183 226 274 330
#
# _framework density 21.023209999999999
#
# number of rings (size 3 to 8) (size 9 to 14) (size 15 to 20)
#    0.000    2.500    1.667    2.000    0.000    3.667 
#    0.000    4.167    0.000    0.000    0.000    0.000 
#    0.000    0.000    0.000   16.500    0.000   14.333 
#
# Total GULP energy -267773.909135 kJ/mol
# GULP energy per Si atom -5578.623107 kJ/mol
# Density = 2.097536 g / cm^3
# Si number density = 21.023210 Si / 1000 Ang^3
#
#
#
# Elastic Constant Matrix: (Units=GPa)
#
#
# Indices 1 2 3 4 5 6 
#
# 1 51.9445 3.1837 -0.9676 0.0000 0.0000 0.0000
# 2 3.1837 172.6064 103.8235 0.0000 0.0000 0.0000
# 3 -0.9676 103.8235 149.0419 0.0000 0.0000 0.0000
# 4 0.0000 0.0000 0.0000 35.5200 0.0000 0.0000
# 5 0.0000 0.0000 0.0000 0.0000 17.1110 0.0000
# 6 0.0000 0.0000 0.0000 0.0000 0.0000 64.0078
#
#
#
# Elastic Compliance Matrix: (Units=1/GPa)
#
#
# Indices 1 2 3 4 5 6 
#
# 1 0.019309 -0.000743 0.000643 0.000000 0.000000 0.000000
# 2 -0.000743 0.010000 -0.006971 0.000000 0.000000 0.000000
# 3 0.000643 -0.006971 0.011570 0.000000 0.000000 0.000000
# 4 0.000000 0.000000 0.000000 0.028153 0.000000 0.000000
# 5 0.000000 0.000000 0.000000 0.000000 0.058442 0.000000
# 6 0.000000 0.000000 0.000000 0.000000 0.000000 0.015623
#
#
# Mechanical properties :
#
#
# Convention : Reuss Voigt Hill
#
# Bulk Modulus (GPa) = 37.40172 65.07467 51.23820
# Shear Modulus (GPa) = 30.09293 41.16463 35.62878
#
# Velocity S-wave (km/s) = 3.78751 4.42979 4.12118
# Velocity P-wave (km/s) = 6.07917 7.56208 6.86080
#
# Compressibility (1/GPa) = 0.02673674
#
# Stress axis : x y z
#
# Youngs Moduli (GPa) = 51.78982 99.99572 86.43139
#
# Poissons Ratio (x) = 0.07427 -0.05556
# Poissons Ratio (y) = 0.03847 0.60253
# Poissons Ratio (z) = -0.03329 0.69709
#
# Static dielectric constant tensor:
#      x y z
#    x 1.800350 0.000000 0.000000 
#    y 0.000000 1.731080 0.000000 
#    z 0.000000 0.000000 1.759750 
# 
# From -- ./inp_files/10956.got.cif
#   From: 2010.05.17/outbox.cif.g08.bks.cpg/sg71_6_cif.got.tgz:10956.got - 2010.06.03 16:22:01.
