data_PCOD9519352
_publ_section_title
;
Structure prediction by ZEFSAII (Michael W. Deem and Ramdas Pophale) SiO2 
 PCOD9519352
Probable space group: I M M M
;
_chemical_formula_sum "Si O2"
_cell_formula_units_Z 96
_cell_length_a 28.037250
_cell_length_b 17.495094
_cell_length_c 11.148216
_cell_angle_alpha 90.000000
_cell_angle_beta 90.000000
_cell_angle_gamma 90.000000
_cell_volume 5468.359638
_symmetry_space_group_name_H-M "I M M M"
_symmetry_group_IT_number 71
_symmetry_cell_setting 'orthorhombic'
loop_
_space_group_symop_operation_xyz
x,y,z
-x,-y,z
x,-y,-z
-x,y,-z
-x,-y,-z
x,y,-z
-x,y,z
x,-y,z
1/2+x,1/2+y,1/2+z
1/2-x,1/2-y,1/2+z
1/2+x,1/2-y,1/2-z
1/2-x,1/2+y,1/2-z
1/2-x,1/2-y,1/2-z
1/2+x,1/2+y,1/2-z
1/2-x,1/2+y,1/2+z
1/2+x,1/2-y,1/2+z
loop_
_atom_site_type_symbol
_atom_site_label
_atom_site_fract_x
_atom_site_fract_y
_atom_site_fract_z
Si Si1 0.734541 0.809051 0.356037
Si Si2 0.500000 0.585229 0.859099
Si Si3 0.912234 0.833455 0.761000
Si Si4 0.852048 0.415672 0.144511
Si Si5 0.055217 0.909211 0.000000
Si Si6 0.055558 0.328308 0.855748
Si Si7 0.174109 0.087914 0.359815
O O1 0.733409 0.782991 0.500000
O O2 0.750000 0.750000 0.250000
O O3 0.683777 0.847176 0.322822
O O4 0.773034 0.877752 0.352743
O O5 0.500000 0.500000 0.802451
O O6 0.453256 0.630277 0.820938
O O7 0.500000 0.577363 0.000000
O O8 0.918379 0.877396 0.885408
O O9 0.925110 0.746155 0.787389
O O10 0.861386 0.854773 0.707273
O O11 0.839097 0.500000 0.191475
O O12 0.906793 0.394888 0.172405
O O13 0.848355 0.419016 0.000000
O O14 0.000000 0.881212 0.000000
O O15 0.054353 0.000000 0.000000
O O16 0.000000 0.342863 0.827483
O O17 0.058162 0.313991 0.000000
O O18 0.160363 0.086971 0.500000
O O19 0.170906 0.000000 0.316088
#
# Coordination Sequence:
#
# PCOD9519352 Si02
#       7
#    16   8  16  16   8  16  16
#     4  10  20  37  60  86 115 144 181 227 277 332
#     4  11  22  33  47  67  96 136 184 234 271 312
#     4  12  20  33  49  71 106 140 182 223 270 330
#     4   9  18  33  56  82 109 144 184 223 271 327
#     4  11  20  30  46  68  99 145 185 219 271 335
#     4  10  19  32  49  76 110 142 174 221 277 330
#     4  10  21  36  54  76 106 146 188 228 268 315
#
# _framework density 17.555539
#
# number of rings (size 3 to 8) (size 9 to 14) (size 15 to 20)
#    0.000    1.667    2.500    3.500    0.000    3.667 
#    1.500    1.667    0.000    1.500    0.000    0.000 
#    0.000    0.667    0.000    0.000    0.000    0.000 
#
# Total GULP energy -267564.379079 kJ/mol
# GULP energy per Si atom -5574.257897 kJ/mol
# Density = 1.751558 g / cm^3
# Si number density = 17.555539 Si / 1000 Ang^3
#
#
#
# Elastic Constant Matrix: (Units=GPa)
#
#
# Indices 1 2 3 4 5 6 
#
# 1 97.3240 23.5367 19.5344 0.0000 0.0000 0.0000
# 2 23.5367 77.7147 23.7666 0.0000 0.0000 0.0000
# 3 19.5344 23.7666 57.9993 0.0000 0.0000 0.0000
# 4 0.0000 0.0000 0.0000 28.3132 0.0000 0.0000
# 5 0.0000 0.0000 0.0000 0.0000 25.7056 0.0000
# 6 0.0000 0.0000 0.0000 0.0000 0.0000 6.9953
#
#
#
# Elastic Compliance Matrix: (Units=1/GPa)
#
#
# Indices 1 2 3 4 5 6 
#
# 1 0.011468 -0.002620 -0.002789 0.000000 0.000000 0.000000
# 2 -0.002620 0.015310 -0.005391 0.000000 0.000000 0.000000
# 3 -0.002789 -0.005391 0.020390 0.000000 0.000000 0.000000
# 4 0.000000 0.000000 0.000000 0.035319 0.000000 0.000000
# 5 0.000000 0.000000 0.000000 0.000000 0.038902 0.000000
# 6 0.000000 0.000000 0.000000 0.000000 0.000000 0.142953
#
#
# Mechanical properties :
#
#
# Convention : Reuss Voigt Hill
#
# Bulk Modulus (GPa) = 39.11181 40.74592 39.92887
# Shear Modulus (GPa) = 16.97993 23.28286 20.13139
#
# Velocity S-wave (km/s) = 3.11338 3.64571 3.39001
# Velocity P-wave (km/s) = 5.93729 6.40169 6.17386
#
# Compressibility (1/GPa) = 0.02556772
#
# Stress axis : x y z
#
# Youngs Moduli (GPa) = 87.19576 65.31737 49.04377
#
# Poissons Ratio (x) = 0.17116 0.13677
# Poissons Ratio (y) = 0.22849 0.26439
# Poissons Ratio (z) = 0.24317 0.35213
#
# Static dielectric constant tensor:
#      x y z
#    x 1.734050 0.000000 0.000000 
#    y 0.000000 1.611080 0.000000 
#    z 0.000000 0.000000 1.580460 
# 
# From -- ./inp_files/28844.got.cif
#   From: 2010.05.17/outbox.cif.g08.bks.cpg/sg71_15_cif.got.tgz:28844.got - 2010.06.03 16:22:01.
