data_PCOD9519432
_publ_section_title
;
Structure prediction by ZEFSAII (Michael W. Deem and Ramdas Pophale) SiO2 
 PCOD9519432
Probable space group: I M M M
;
_chemical_formula_sum "Si O2"
_cell_formula_units_Z 88
_cell_length_a 7.771799
_cell_length_b 21.789259
_cell_length_c 27.717835
_cell_angle_alpha 90.000000
_cell_angle_beta 90.000000
_cell_angle_gamma 90.000000
_cell_volume 4693.786444
_symmetry_space_group_name_H-M "I M M M"
_symmetry_group_IT_number 71
_symmetry_cell_setting 'orthorhombic'
loop_
_space_group_symop_operation_xyz
x,y,z
-x,-y,z
x,-y,-z
-x,y,-z
-x,-y,-z
x,y,-z
-x,y,z
x,-y,z
1/2+x,1/2+y,1/2+z
1/2-x,1/2-y,1/2+z
1/2+x,1/2-y,1/2-z
1/2-x,1/2+y,1/2-z
1/2-x,1/2-y,1/2-z
1/2+x,1/2+y,1/2-z
1/2-x,1/2+y,1/2+z
1/2+x,1/2-y,1/2+z
loop_
_atom_site_type_symbol
_atom_site_label
_atom_site_fract_x
_atom_site_fract_y
_atom_site_fract_z
Si Si1 0.500000 0.427136 0.101556
Si Si2 0.694115 0.158025 0.580508
Si Si3 0.692701 0.792177 0.690371
Si Si4 0.291721 0.706670 0.552904
Si Si5 0.000000 0.929776 0.187127
Si Si6 0.695463 0.158756 0.156021
Si Si7 0.000000 0.122820 0.711733
O O1 0.500000 0.500000 0.097472
O O2 0.667724 0.395697 0.077968
O O3 0.500000 0.407490 0.158505
O O4 0.500000 0.141696 0.565044
O O5 0.685236 0.178907 0.636591
O O6 0.751267 0.220887 0.554942
O O7 0.500000 0.793864 0.710893
O O8 0.746517 0.777502 0.817494
O O9 0.833814 0.833318 0.716514
O O10 0.245857 0.682259 0.500000
O O11 0.500000 0.703485 0.558652
O O12 0.210484 0.674063 0.598927
O O13 0.166771 0.892868 0.168889
O O14 0.000000 0.925048 0.245155
O O15 0.000000 0.000000 0.171307
O O16 0.500000 0.142254 0.168040
#
# Coordination Sequence:
#
# PCOD9519432 Si02
#       7
#     8  16  16  16   8  16   8
#     4  10  19  32  51  74 107 156 200 228 261 324
#     4   8  16  29  48  76 112 143 176 225 283 333
#     4   9  16  33  57  85 114 140 178 240 298 335
#     4   9  17  33  61  92 116 137 172 232 298 352
#     4  12  27  44  57  76 117 164 197 233 277 338
#     4  11  21  38  60  86 118 150 188 229 285 346
#     4  10  21  36  58  84 109 144 199 250 286 322
#
# _framework density 18.748189
#
# number of rings (size 3 to 8) (size 9 to 14) (size 15 to 20)
#    0.000    2.364    2.727    1.364    3.818    2.545 
#    0.000    0.000    0.000    5.455    0.000    3.818 
#    0.000    0.000    0.000    0.000    0.000    0.000 
#
# Total GULP energy -245647.829438 kJ/mol
# GULP energy per Si atom -5582.905215 kJ/mol
# Density = 1.870552 g / cm^3
# Si number density = 18.748189 Si / 1000 Ang^3
#
#
#
# Elastic Constant Matrix: (Units=GPa)
#
#
# Indices 1 2 3 4 5 6 
#
# 1 136.9142 58.0999 -0.0253 0.0000 0.0000 0.0000
# 2 58.0999 104.6161 -6.4873 0.0000 0.0000 0.0000
# 3 -0.0253 -6.4873 39.0151 0.0000 0.0000 0.0000
# 4 0.0000 0.0000 0.0000 11.0863 0.0000 0.0000
# 5 0.0000 0.0000 0.0000 0.0000 8.7253 0.0000
# 6 0.0000 0.0000 0.0000 0.0000 0.0000 32.2125
#
#
#
# Elastic Compliance Matrix: (Units=1/GPa)
#
#
# Indices 1 2 3 4 5 6 
#
# 1 0.009586 -0.005379 -0.000888 0.000000 0.000000 0.000000
# 2 -0.005379 0.012677 0.002104 0.000000 0.000000 0.000000
# 3 -0.000888 0.002104 0.025980 0.000000 0.000000 0.000000
# 4 0.000000 0.000000 0.000000 0.090202 0.000000 0.000000
# 5 0.000000 0.000000 0.000000 0.000000 0.114609 0.000000
# 6 0.000000 0.000000 0.000000 0.000000 0.000000 0.031044
#
#
# Mechanical properties :
#
#
# Convention : Reuss Voigt Hill
#
# Bulk Modulus (GPa) = 25.05159 42.63555 33.84357
# Shear Modulus (GPa) = 16.35435 25.66869 21.01152
#
# Velocity S-wave (km/s) = 2.95670 3.70419 3.35135
# Velocity P-wave (km/s) = 5.00473 6.40977 5.75033
#
# Compressibility (1/GPa) = 0.03991763
#
# Stress axis : x y z
#
# Youngs Moduli (GPa) = 104.31619 78.88610 38.49050
#
# Poissons Ratio (x) = 0.42432 0.03419
# Poissons Ratio (y) = 0.56111 -0.08100
# Poissons Ratio (z) = 0.09265 -0.16600
#
# Static dielectric constant tensor:
#      x y z
#    x 1.667030 0.000000 0.000000 
#    y 0.000000 1.590250 0.000000 
#    z 0.000000 0.000000 1.691030 
# 
# From -- ./inp_files/57625.got.cif
#   From: 2010.05.17/outbox.cif.g08.bks.cpg/sg71_29_cif.got.tgz:57625.got - 2010.06.03 16:22:01.
