data_PCOD9519375
_publ_section_title
;
Structure prediction by ZEFSAII (Michael W. Deem and Ramdas Pophale) SiO2 
 PCOD9519375
Probable space group: I M M M
;
_chemical_formula_sum "Si O2"
_cell_formula_units_Z 72
_cell_length_a 28.244468
_cell_length_b 9.986219
_cell_length_c 15.008317
_cell_angle_alpha 90.000000
_cell_angle_beta 90.000000
_cell_angle_gamma 90.000000
_cell_volume 4233.177500
_symmetry_space_group_name_H-M "I M M M"
_symmetry_group_IT_number 71
_symmetry_cell_setting 'orthorhombic'
loop_
_space_group_symop_operation_xyz
x,y,z
-x,-y,z
x,-y,-z
-x,y,-z
-x,-y,-z
x,y,-z
-x,y,z
x,-y,z
1/2+x,1/2+y,1/2+z
1/2-x,1/2-y,1/2+z
1/2+x,1/2-y,1/2-z
1/2-x,1/2+y,1/2-z
1/2-x,1/2-y,1/2-z
1/2+x,1/2+y,1/2-z
1/2-x,1/2+y,1/2+z
1/2+x,1/2-y,1/2+z
loop_
_atom_site_type_symbol
_atom_site_label
_atom_site_fract_x
_atom_site_fract_y
_atom_site_fract_z
Si Si1 0.216381 0.500000 0.095817
Si Si2 0.321430 0.500000 0.604153
Si Si3 0.621702 0.000000 0.708539
Si Si4 0.167165 0.500000 0.395889
Si Si5 0.053769 0.699662 0.106465
Si Si6 0.254116 0.778023 0.854043
Si Si7 0.925689 0.000000 0.891951
O O1 0.175345 0.500000 0.169988
O O2 0.248092 0.367148 0.102654
O O3 0.191499 0.500000 0.000000
O O4 0.330265 0.500000 0.500000
O O5 0.290949 0.369673 0.623801
O O6 0.372627 0.500000 0.646795
O O7 0.592317 0.124013 0.666598
O O8 0.628648 0.000000 0.815790
O O9 0.151678 0.500000 0.500000
O O10 0.200928 0.630987 0.380646
O O11 0.000000 0.649402 0.118088
O O12 0.053251 0.856549 0.131208
O O13 0.065455 0.686367 0.000000
O O14 0.250000 0.750000 0.750000
O O15 0.927312 0.000000 0.000000
#
# Coordination Sequence:
#
# PCOD9519375 Si02
#       7
#     8   8   8   8  16  16   8
#     4  12  21  32  54  81 108 135 177 228 265 306
#     4  10  19  32  50  72 108 150 179 209 254 310
#     4  12  22  35  53  81 108 138 182 227 265 319
#     4  11  24  42  56  71 107 152 186 222 271 316
#     4  10  20  35  55  82 116 145 169 211 276 338
#     4  11  20  36  51  76 106 145 184 222 260 307
#     4   9  18  31  52  80 111 146 176 201 249 327
#
# _framework density 17.008500000000002
#
# number of rings (size 3 to 8) (size 9 to 14) (size 15 to 20)
#    0.000    1.333    2.222    6.333    0.000    4.000 
#    0.000    0.000    0.000    1.333    0.000    0.000 
#    0.000    1.778    0.000    0.000    0.000    0.000 
#
# Total GULP energy -200697.610733 kJ/mol
# GULP energy per Si atom -5574.933631 kJ/mol
# Density = 1.696979 g / cm^3
# Si number density = 17.008500 Si / 1000 Ang^3
#
#
#
# Elastic Constant Matrix: (Units=GPa)
#
#
# Indices 1 2 3 4 5 6 
#
# 1 74.7766 44.5567 26.4372 0.0000 0.0000 0.0000
# 2 44.5567 154.8306 28.2344 0.0000 0.0000 0.0000
# 3 26.4372 28.2344 110.8863 0.0000 0.0000 0.0000
# 4 0.0000 0.0000 0.0000 23.0235 0.0000 0.0000
# 5 0.0000 0.0000 0.0000 0.0000 21.8736 0.0000
# 6 0.0000 0.0000 0.0000 0.0000 0.0000 35.5780
#
#
#
# Elastic Compliance Matrix: (Units=1/GPa)
#
#
# Indices 1 2 3 4 5 6 
#
# 1 0.017012 -0.004358 -0.002946 0.000000 0.000000 0.000000
# 2 -0.004358 0.007890 -0.000970 0.000000 0.000000 0.000000
# 3 -0.002946 -0.000970 0.009968 0.000000 0.000000 0.000000
# 4 0.000000 0.000000 0.000000 0.043434 0.000000 0.000000
# 5 0.000000 0.000000 0.000000 0.000000 0.045717 0.000000
# 6 0.000000 0.000000 0.000000 0.000000 0.000000 0.028107
#
#
# Mechanical properties :
#
#
# Convention : Reuss Voigt Hill
#
# Bulk Modulus (GPa) = 54.58372 59.88333 57.23353
# Shear Modulus (GPa) = 28.60693 32.17938 30.39315
#
# Velocity S-wave (km/s) = 4.10557 4.35438 4.23181
# Velocity P-wave (km/s) = 7.39161 7.78236 7.58950
#
# Compressibility (1/GPa) = 0.01832048
#
# Stress axis : x y z
#
# Youngs Moduli (GPa) = 58.78295 126.74669 100.32501
#
# Poissons Ratio (x) = 0.55240 0.29557
# Poissons Ratio (y) = 0.25620 0.09730
# Poissons Ratio (z) = 0.17318 0.12292
#
# Static dielectric constant tensor:
#      x y z
#    x 1.786520 0.000000 0.000000 
#    y 0.000000 1.611160 0.000000 
#    z 0.000000 0.000000 1.598220 
# 
# From -- ./inp_files/40748.got.cif
#   From: 2010.05.17/outbox.cif.g08.bks.cpg/sg71_21_cif.got.tgz:40748.got - 2010.06.03 16:22:01.
