data_PCOD9519838
_publ_section_title
;
Structure prediction by ZEFSAII (Michael W. Deem and Ramdas Pophale) SiO2 
 PCOD9519838
Probable space group: I M M M
;
_chemical_formula_sum "Si O2"
_cell_formula_units_Z 80
_cell_length_a 18.390630
_cell_length_b 8.392127
_cell_length_c 28.033037
_cell_angle_alpha 90.000000
_cell_angle_beta 90.000000
_cell_angle_gamma 90.000000
_cell_volume 4326.520887
_symmetry_space_group_name_H-M "I M M M"
_symmetry_group_IT_number 71
_symmetry_cell_setting 'orthorhombic'
loop_
_space_group_symop_operation_xyz
x,y,z
-x,-y,z
x,-y,-z
-x,y,-z
-x,-y,-z
x,y,-z
-x,y,z
x,-y,z
1/2+x,1/2+y,1/2+z
1/2-x,1/2-y,1/2+z
1/2+x,1/2-y,1/2-z
1/2-x,1/2+y,1/2-z
1/2-x,1/2-y,1/2-z
1/2+x,1/2+y,1/2-z
1/2-x,1/2+y,1/2+z
1/2+x,1/2-y,1/2+z
loop_
_atom_site_type_symbol
_atom_site_label
_atom_site_fract_x
_atom_site_fract_y
_atom_site_fract_z
Si Si1 0.369097 0.811977 0.689452
Si Si2 0.263063 0.193129 0.552571
Si Si3 0.578961 0.193530 0.415425
Si Si4 0.218771 0.313750 0.653238
Si Si5 0.417392 0.688426 0.209550
O O1 0.409135 0.765765 0.640278
O O2 0.283913 0.779826 0.679758
O O3 0.397507 0.720802 0.735369
O O4 0.380523 0.000000 0.697044
O O5 0.236312 0.238090 0.500000
O O6 0.347806 0.243953 0.557942
O O7 0.221702 0.263508 0.597862
O O8 0.261195 0.000000 0.556341
O O9 0.500000 0.250884 0.432159
O O10 0.578177 0.000000 0.418363
O O11 0.234931 0.500000 0.657634
O O12 0.142458 0.274214 0.677390
O O13 0.500000 0.742666 0.200784
O O14 0.413218 0.500000 0.200343
#
# Coordination Sequence:
#
# PCOD9519838 Si02
#       5
#    16  16  16  16  16
#     4  10  19  33  53  77 108 144 181 214 249 298
#     4   9  18  33  53  76 102 134 173 218 268 318
#     4   8  14  25  44  73 106 137 170 208 247 290
#     4  11  22  36  55  77 104 138 177 218 258 305
#     4  11  23  37  54  78 108 138 169 210 262 316
#
# _framework density 18.490607000000001
#
# number of rings (size 3 to 8) (size 9 to 14) (size 15 to 20)
#    0.000    2.200    0.000    5.400    0.000    3.200 
#    0.000    2.000    0.000    6.000    0.000    9.800 
#    0.000    0.000    0.000    0.000    0.000    0.000 
#
# Total GULP energy -223304.639811 kJ/mol
# GULP energy per Si atom -5582.615995 kJ/mol
# Density = 1.844852 g / cm^3
# Si number density = 18.490607 Si / 1000 Ang^3
#
#
#
# Elastic Constant Matrix: (Units=GPa)
#
#
# Indices 1 2 3 4 5 6 
#
# 1 48.9652 -11.5982 2.4141 0.0000 0.0000 0.0000
# 2 -11.5982 15.0769 -4.0142 0.0000 0.0000 0.0000
# 3 2.4141 -4.0142 44.5926 0.0000 0.0000 0.0000
# 4 0.0000 0.0000 0.0000 20.0345 0.0000 0.0000
# 5 0.0000 0.0000 0.0000 0.0000 0.4240 0.0000
# 6 0.0000 0.0000 0.0000 0.0000 0.0000 13.6385
#
#
#
# Elastic Compliance Matrix: (Units=1/GPa)
#
#
# Indices 1 2 3 4 5 6 
#
# 1 0.024980 0.019319 0.000387 0.000000 0.000000 0.000000
# 2 0.019319 0.082896 0.006416 0.000000 0.000000 0.000000
# 3 0.000387 0.006416 0.022982 0.000000 0.000000 0.000000
# 4 0.000000 0.000000 0.000000 0.049914 0.000000 0.000000
# 5 0.000000 0.000000 0.000000 0.000000 2.358404 0.000000
# 6 0.000000 0.000000 0.000000 0.000000 0.000000 0.073322
#
#
# Mechanical properties :
#
#
# Convention : Reuss Voigt Hill
#
# Bulk Modulus (GPa) = 5.46144 9.13758 7.29951
# Shear Modulus (GPa) = 1.90746 14.94159 8.42452
#
# Velocity S-wave (km/s) = 1.01677 2.84573 2.13682
# Velocity P-wave (km/s) = 2.08290 3.96863 3.16927
#
# Compressibility (1/GPa) = 0.18310186
#
# Stress axis : x y z
#
# Youngs Moduli (GPa) = 40.03266 12.06326 43.51247
#
# Poissons Ratio (x) = -0.23305 -0.01683
# Poissons Ratio (y) = -0.77339 -0.27919
# Poissons Ratio (z) = -0.01548 -0.07740
#
# Static dielectric constant tensor:
#      x y z
#    x 1.635490 0.000000 0.000000 
#    y 0.000000 1.631680 0.000000 
#    z 0.000000 0.000000 1.628920 
# 
# From -- ./inp_files/8626.got.cif
#   From: 2010.05.17/outbox.cif.g08.bks.cpg/sg71_5_cif.got.tgz:8626.got - 2010.06.03 16:22:01.
