data_PCOD9519355
_publ_section_title
;
Structure prediction by ZEFSAII (Michael W. Deem and Ramdas Pophale) SiO2 
 PCOD9519355
Probable space group: I M M M
;
_chemical_formula_sum "Si O2"
_cell_formula_units_Z 56
_cell_length_a 7.283533
_cell_length_b 29.730258
_cell_length_c 10.302769
_cell_angle_alpha 90.000000
_cell_angle_beta 90.000000
_cell_angle_gamma 90.000000
_cell_volume 2230.975150
_symmetry_space_group_name_H-M "I M M M"
_symmetry_group_IT_number 71
_symmetry_cell_setting 'orthorhombic'
loop_
_space_group_symop_operation_xyz
x,y,z
-x,-y,z
x,-y,-z
-x,y,-z
-x,-y,-z
x,y,-z
-x,y,z
x,-y,z
1/2+x,1/2+y,1/2+z
1/2-x,1/2-y,1/2+z
1/2+x,1/2-y,1/2-z
1/2-x,1/2+y,1/2-z
1/2-x,1/2-y,1/2-z
1/2+x,1/2+y,1/2-z
1/2-x,1/2+y,1/2+z
1/2+x,1/2-y,1/2+z
loop_
_atom_site_type_symbol
_atom_site_label
_atom_site_fract_x
_atom_site_fract_y
_atom_site_fract_z
Si Si1 0.797099 0.947018 0.500000
Si Si2 0.280651 0.284161 0.500000
Si Si3 0.724185 0.449385 0.289375
Si Si4 0.724262 0.647896 0.716854
Si Si5 0.216820 0.178075 0.500000
O O1 0.713530 0.941068 0.359418
O O2 0.000000 0.925151 0.500000
O O3 0.824617 0.000000 0.500000
O O4 0.500000 0.288463 0.500000
O O5 0.214997 0.311051 0.626611
O O6 0.242074 0.231608 0.500000
O O7 0.500000 0.451560 0.291213
O O8 0.783088 0.500000 0.331780
O O9 0.775088 0.400699 0.345408
O O10 0.500000 0.647903 0.720159
O O11 0.786252 0.656807 0.865111
O O12 0.000000 0.171305 0.500000
#
# Coordination Sequence:
#
# PCOD9519355 Si02
#       5
#     8   8  16  16   8
#     4   7   9  13  24  44  70 100 134 169 199 232
#     4  10  20  33  46  64  94 122 144 182 233 268
#     4   8  12  19  33  55  84 115 142 169 209 262
#     4   9  17  28  43  64  90 119 148 181 222 265
#     4  10  19  32  50  68  86 114 155 192 219 259
#
# _framework density 25.101130999999999
#
# number of rings (size 3 to 8) (size 9 to 14) (size 15 to 20)
#    0.000    3.286    0.000    3.429    0.000    3.429 
#    0.000    0.714    0.000    4.286    0.000    0.000 
#    0.000    6.857    0.000    0.000    0.000    0.000 
#
# Total GULP energy -156022.272346 kJ/mol
# GULP energy per Si atom -5572.224012 kJ/mol
# Density = 2.504400 g / cm^3
# Si number density = 25.101131 Si / 1000 Ang^3
#
#
#
# Elastic Constant Matrix: (Units=GPa)
#
#
# Indices 1 2 3 4 5 6 
#
# 1 103.4045 1.5364 3.7754 0.0000 -0.0001 -0.0001
# 2 1.5364 297.0180 68.8809 0.0000 0.0001 0.0001
# 3 3.7754 68.8809 121.7458 0.0008 0.0007 0.0000
# 4 0.0000 0.0000 0.0008 71.3297 0.0000 0.0000
# 5 -0.0001 0.0001 0.0007 0.0000 -1.7785 0.0002
# 6 -0.0001 0.0001 0.0000 0.0000 0.0002 3.5777
#
#
#
# Elastic Compliance Matrix: (Units=1/GPa)
#
#
# Indices 1 2 3 4 5 6 
#
# 1 0.009682 0.000022 -0.000313 0.000000 -0.000001 0.000000
# 2 0.000022 0.003875 -0.002193 0.000000 -0.000001 0.000000
# 3 -0.000313 -0.002193 0.009464 0.000000 0.000004 0.000000
# 4 0.000000 0.000000 0.000000 0.014019 0.000000 0.000000
# 5 -0.000001 -0.000001 0.000004 0.000000 -0.562286 0.000030
# 6 0.000000 0.000000 0.000000 0.000000 0.000030 0.279512
#
#
# Mechanical properties :
#
#
# Convention : Reuss Voigt Hill
#
# Bulk Modulus (GPa) = 55.38897 74.50598 64.94747
# Shear Modulus (GPa) = -21.29949 44.49082 11.59567
#
# Velocity S-wave (km/s) = -2.91614 4.21463 2.15165
# Velocity P-wave (km/s) = 3.28264 7.30964 5.66598
#
# Compressibility (1/GPa) = 0.01805414
#
# Stress axis : x y z
#
# Youngs Moduli (GPa) = 103.28604 258.04337 105.65875
#
# Poissons Ratio (x) = -0.00581 0.03307
# Poissons Ratio (y) = -0.00232 0.23174
# Poissons Ratio (z) = 0.03233 0.56596
#
# Static dielectric constant tensor:
#      x y z
#    x 1.838330 0.000000 0.000000 
#    y 0.000000 1.970380 -0.000010 
#    z 0.000000 -0.000010 1.608560 
# 
# From -- ./inp_files/18423.got.cif
#   From: 2010.05.17/outbox.cif.g08.bks.cpg/sg71_10_cif.got.tgz:18423.got - 2010.06.03 16:22:01.
