data_PCOD9519297
_publ_section_title
;
Structure prediction by ZEFSAII (Michael W. Deem and Ramdas Pophale) SiO2 
 PCOD9519297
Probable space group: I M M M
;
_chemical_formula_sum "Si O2"
_cell_formula_units_Z 90
_cell_length_a 28.227168
_cell_length_b 9.074631
_cell_length_c 21.232529
_cell_angle_alpha 90.000000
_cell_angle_beta 90.000000
_cell_angle_gamma 90.000000
_cell_volume 5438.736376
_symmetry_space_group_name_H-M "I M M M"
_symmetry_group_IT_number 71
_symmetry_cell_setting 'orthorhombic'
loop_
_space_group_symop_operation_xyz
x,y,z
-x,-y,z
x,-y,-z
-x,y,-z
-x,-y,-z
x,y,-z
-x,y,z
x,-y,z
1/2+x,1/2+y,1/2+z
1/2-x,1/2-y,1/2+z
1/2+x,1/2-y,1/2-z
1/2-x,1/2+y,1/2-z
1/2-x,1/2-y,1/2-z
1/2+x,1/2+y,1/2-z
1/2-x,1/2+y,1/2+z
1/2+x,1/2-y,1/2+z
loop_
_atom_site_type_symbol
_atom_site_label
_atom_site_fract_x
_atom_site_fract_y
_atom_site_fract_z
Si Si1 0.814394 0.325777 0.196501
Si Si2 0.554996 0.322987 0.161163
Si Si3 0.367257 0.177750 0.926798
Si Si4 0.085891 0.176290 0.804496
Si Si5 0.000000 0.500000 0.000000
Si Si6 0.279968 0.175021 0.160089
Si Si7 0.000000 0.337059 0.869901
O O1 0.819640 0.500000 0.186299
O O2 0.862614 0.241778 0.181141
O O3 0.769127 0.262692 0.159511
O O4 0.802951 0.301734 0.270763
O O5 0.500000 0.279538 0.154298
O O6 0.557789 0.500000 0.154035
O O7 0.589167 0.247063 0.111043
O O8 0.572436 0.287926 0.231903
O O9 0.318421 0.220387 0.891802
O O10 0.370446 0.000000 0.922831
O O11 0.367308 0.220141 0.000000
O O12 0.046090 0.249096 0.847900
O O13 0.085636 0.000000 0.810829
O O14 0.000000 0.374093 0.943654
O O15 0.270581 0.000000 0.153930
O O16 0.000000 0.500000 0.838169
#
# Coordination Sequence:
#
# PCOD9519297 Si02
#       7
#    16  16  16  16   2  16   8
#     4  10  19  31  53  84 111 141 182 240 296 338
#     4  10  21  36  53  80 116 148 190 242 283 328
#     4  10  21  37  56  77 109 153 197 237 285 347
#     4  11  20  34  58  90 118 147 188 237 287 333
#     4   8  24  44  62  88 120 152 180 220 276 348
#     4   9  18  33  51  76 109 145 187 234 293 344
#     4  10  21  39  63  85 116 149 181 221 276 338
#
# _framework density 16.547961999999998
#
# number of rings (size 3 to 8) (size 9 to 14) (size 15 to 20)
#    0.267    1.778    2.667    1.333    0.000    3.200 
#    0.000    2.667    1.956    0.000    0.000    0.000 
#    0.000    0.000    0.000    0.000    0.000    0.000 
#
# Total GULP energy -250768.778533 kJ/mol
# GULP energy per Si atom -5572.639523 kJ/mol
# Density = 1.651030 g / cm^3
# Si number density = 16.547962 Si / 1000 Ang^3
#
#
#
# Elastic Constant Matrix: (Units=GPa)
#
#
# Indices 1 2 3 4 5 6 
#
# 1 171.3647 66.4737 72.9896 0.0000 0.0000 0.0000
# 2 66.4737 53.0426 41.1669 0.0000 0.0000 0.0000
# 3 72.9896 41.1669 106.5879 0.0000 0.0000 0.0000
# 4 0.0000 0.0000 0.0000 18.9745 0.0000 0.0000
# 5 0.0000 0.0000 0.0000 0.0000 13.7778 0.0000
# 6 0.0000 0.0000 0.0000 0.0000 0.0000 34.7598
#
#
#
# Elastic Compliance Matrix: (Units=1/GPa)
#
#
# Indices 1 2 3 4 5 6 
#
# 1 0.012206 -0.012581 -0.003500 0.000000 0.000000 0.000000
# 2 -0.012581 0.039891 -0.006791 0.000000 0.000000 0.000000
# 3 -0.003500 -0.006791 0.014401 0.000000 0.000000 0.000000
# 4 0.000000 0.000000 0.000000 0.052702 0.000000 0.000000
# 5 0.000000 0.000000 0.000000 0.000000 0.072581 0.000000
# 6 0.000000 0.000000 0.000000 0.000000 0.000000 0.028769
#
#
# Mechanical properties :
#
#
# Convention : Reuss Voigt Hill
#
# Bulk Modulus (GPa) = 48.18320 76.91729 62.55025
# Shear Modulus (GPa) = 18.30078 23.52675 20.91376
#
# Velocity S-wave (km/s) = 3.32915 3.77468 3.55889
# Velocity P-wave (km/s) = 6.63010 8.09814 7.40061
#
# Compressibility (1/GPa) = 0.02075412
#
# Stress axis : x y z
#
# Youngs Moduli (GPa) = 81.92389 25.06856 69.43789
#
# Poissons Ratio (x) = 0.31539 0.24300
# Poissons Ratio (y) = 1.03070 0.47158
# Poissons Ratio (z) = 0.28670 0.17025
#
# Static dielectric constant tensor:
#      x y z
#    x 1.541700 0.000000 0.000000 
#    y 0.000000 1.556480 0.000000 
#    z 0.000000 0.000000 1.533510 
# 
# From -- ./inp_files/12656.got.cif
#   From: 2010.05.17/outbox.cif.g08.bks.cpg/sg71_7_cif.got.tgz:12656.got - 2010.06.03 16:22:01.
