data_PCOD9519280
_publ_section_title
;
Structure prediction by ZEFSAII (Michael W. Deem and Ramdas Pophale) SiO2 
 PCOD9519280
Probable space group: I M M M
;
_chemical_formula_sum "Si O2"
_cell_formula_units_Z 104
_cell_length_a 8.706229
_cell_length_b 29.345211
_cell_length_c 22.688108
_cell_angle_alpha 90.000000
_cell_angle_beta 90.000000
_cell_angle_gamma 90.000000
_cell_volume 5796.496842
_symmetry_space_group_name_H-M "I M M M"
_symmetry_group_IT_number 71
_symmetry_cell_setting 'orthorhombic'
loop_
_space_group_symop_operation_xyz
x,y,z
-x,-y,z
x,-y,-z
-x,y,-z
-x,-y,-z
x,y,-z
-x,y,z
x,-y,z
1/2+x,1/2+y,1/2+z
1/2-x,1/2-y,1/2+z
1/2+x,1/2-y,1/2-z
1/2-x,1/2+y,1/2-z
1/2-x,1/2-y,1/2-z
1/2+x,1/2+y,1/2-z
1/2-x,1/2+y,1/2+z
1/2+x,1/2-y,1/2+z
loop_
_atom_site_type_symbol
_atom_site_label
_atom_site_fract_x
_atom_site_fract_y
_atom_site_fract_z
Si Si1 0.814051 0.102106 0.617082
Si Si2 0.313204 0.448448 0.237333
Si Si3 0.678112 0.616062 0.343265
Si Si4 0.318181 0.203817 0.188916
Si Si5 0.315397 0.053915 0.500000
Si Si6 0.685049 0.694598 0.819569
Si Si7 0.825510 0.447514 0.570338
O O1 0.773820 0.069967 0.672705
O O2 0.744575 0.080746 0.557873
O O3 0.764221 0.153185 0.638034
O O4 0.000000 0.102584 0.610962
O O5 0.500000 0.449124 0.240655
O O6 0.258434 0.500000 0.246985
O O7 0.261813 0.413115 0.287306
O O8 0.500000 0.626724 0.333025
O O9 0.769842 0.662402 0.351846
O O10 0.702894 0.583820 0.398607
O O11 0.500000 0.205600 0.197558
O O12 0.269219 0.253441 0.164898
O O13 0.242637 0.191694 0.252133
O O14 0.500000 0.054367 0.500000
O O15 0.266483 0.000000 0.500000
O O16 0.500000 0.691654 0.818333
O O17 0.816928 0.445049 0.500000
O O18 0.802365 0.500000 0.587711
O O19 0.000000 0.434393 0.587819
#
# Coordination Sequence:
#
# PCOD9519280 Si02
#       7
#    16  16  16  16   8  16  16
#     4  10  19  36  60  80 103 140 187 228 268 323
#     4   9  17  29  48  76 107 136 170 216 263 307
#     4  11  20  32  51  78 112 143 178 223 265 311
#     4  10  19  31  52  81 113 143 174 212 270 330
#     4  11  25  41  55  79 115 147 181 229 282 335
#     4   9  18  34  55  81 108 136 175 223 268 320
#     4   9  19  36  55  75 104 142 181 219 262 317
#
# _framework density 17.941870999999999
#
# number of rings (size 3 to 8) (size 9 to 14) (size 15 to 20)
#    0.000    2.231    1.538    2.538    0.000    3.692 
#    0.000    0.769    1.692    2.769    0.000    0.000 
#    0.000    0.000    0.000    0.000    0.000    0.000 
#
# Total GULP energy -289863.412239 kJ/mol
# GULP energy per Si atom -5574.296389 kJ/mol
# Density = 1.790103 g / cm^3
# Si number density = 17.941871 Si / 1000 Ang^3
#
#
#
# Elastic Constant Matrix: (Units=GPa)
#
#
# Indices 1 2 3 4 5 6 
#
# 1 10.1784 29.2281 12.7703 0.0000 0.0000 0.0000
# 2 29.2281 139.7219 42.9868 0.0000 0.0000 0.0000
# 3 12.7703 42.9868 44.5155 0.0000 0.0000 0.0000
# 4 0.0000 0.0000 0.0000 25.3953 0.0000 0.0000
# 5 0.0000 0.0000 0.0000 0.0000 23.6507 0.0000
# 6 0.0000 0.0000 0.0000 0.0000 0.0000 22.5574
#
#
#
# Elastic Compliance Matrix: (Units=1/GPa)
#
#
# Indices 1 2 3 4 5 6 
#
# 1 0.277159 -0.047683 -0.033464 0.000000 0.000000 0.000000
# 2 -0.047683 0.018386 -0.004075 0.000000 0.000000 0.000000
# 3 -0.033464 -0.004075 0.035999 0.000000 0.000000 0.000000
# 4 0.000000 0.000000 0.000000 0.039377 0.000000 0.000000
# 5 0.000000 0.000000 0.000000 0.000000 0.042282 0.000000
# 6 0.000000 0.000000 0.000000 0.000000 0.000000 0.044331
#
#
# Mechanical properties :
#
#
# Convention : Reuss Voigt Hill
#
# Bulk Modulus (GPa) = 6.20735 40.48737 23.34736
# Shear Modulus (GPa) = 7.33483 21.61604 14.47544
#
# Velocity S-wave (km/s) = 2.02410 3.47476 2.84350
# Velocity P-wave (km/s) = 2.98829 6.22202 4.88074
#
# Compressibility (1/GPa) = 0.16109937
#
# Stress axis : x y z
#
# Youngs Moduli (GPa) = 3.60804 54.39065 27.77824
#
# Poissons Ratio (x) = 2.59349 0.92958
# Poissons Ratio (y) = 0.17204 0.11320
# Poissons Ratio (z) = 0.12074 0.22165
#
# Static dielectric constant tensor:
#      x y z
#    x 1.631970 0.000000 0.000000 
#    y 0.000000 1.654290 0.000000 
#    z 0.000000 0.000000 1.598130 
# 
# From -- ./inp_files/57964.got.cif
#   From: 2010.05.17/outbox.cif.g08.bks.cpg/sg71_29_cif.got.tgz:57964.got - 2010.06.03 16:22:01.
