data_PCOD9519171
_publ_section_title
;
Structure prediction by ZEFSAII (Michael W. Deem and Ramdas Pophale) SiO2 
 PCOD9519171
Probable space group: I M M M
;
_chemical_formula_sum "Si O2"
_cell_formula_units_Z 112
_cell_length_a 27.940681
_cell_length_b 10.504508
_cell_length_c 23.148351
_cell_angle_alpha 90.000000
_cell_angle_beta 90.000000
_cell_angle_gamma 90.000000
_cell_volume 6794.112943
_symmetry_space_group_name_H-M "I M M M"
_symmetry_group_IT_number 71
_symmetry_cell_setting 'orthorhombic'
loop_
_space_group_symop_operation_xyz
x,y,z
-x,-y,z
x,-y,-z
-x,y,-z
-x,-y,-z
x,y,-z
-x,y,z
x,-y,z
1/2+x,1/2+y,1/2+z
1/2-x,1/2-y,1/2+z
1/2+x,1/2-y,1/2-z
1/2-x,1/2+y,1/2-z
1/2-x,1/2-y,1/2-z
1/2+x,1/2+y,1/2-z
1/2-x,1/2+y,1/2+z
1/2+x,1/2-y,1/2+z
loop_
_atom_site_type_symbol
_atom_site_label
_atom_site_fract_x
_atom_site_fract_y
_atom_site_fract_z
Si Si1 0.057524 0.644632 0.931891
Si Si2 0.896952 0.850973 0.152275
Si Si3 0.287994 0.727354 0.340015
Si Si4 0.299355 0.865245 0.770853
Si Si5 0.553835 0.346791 0.774822
Si Si6 0.645144 0.650014 0.162516
Si Si7 0.221370 0.848892 0.432972
O O1 0.072001 0.500000 0.914831
O O2 0.081611 0.754292 0.894477
O O3 0.000000 0.652542 0.925607
O O4 0.068413 0.659355 0.000000
O O5 0.839742 0.833637 0.152419
O O6 0.919666 0.814610 0.214606
O O7 0.908558 0.000000 0.141445
O O8 0.293301 0.848336 0.297384
O O9 0.251427 0.640758 0.303386
O O10 0.261498 0.770525 0.398226
O O11 0.327062 0.742461 0.794019
O O12 0.323174 0.000000 0.784342
O O13 0.500000 0.294312 0.777958
O O14 0.550020 0.500000 0.774238
O O15 0.589534 0.317084 0.827767
O O16 0.651267 0.500000 0.177571
O O17 0.671143 0.669497 0.101213
O O18 0.218412 0.813456 0.500000
O O19 0.232287 0.000000 0.429425
#
# Coordination Sequence:
#
# PCOD9519171 Si02
#       7
#    16  16  16  16  16  16  16
#     4   9  20  39  57  71  94 132 175 217 259 300
#     4  11  21  33  51  76 105 134 168 210 252 301
#     4  10  20  31  47  71 103 134 165 203 250 294
#     4  10  19  31  50  74  99 130 167 203 243 296
#     4   9  17  30  49  74 102 131 162 201 254 308
#     4   9  17  32  53  74  99 131 166 205 251 299
#     4   9  18  32  50  72  99 134 174 209 244 297
#
# _framework density 16.484860000000001
#
# number of rings (size 3 to 8) (size 9 to 14) (size 15 to 20)
#    0.000    2.429    1.429    1.714    0.000    6.286 
#    0.000    2.143    0.000   11.143    0.000    3.000 
#    0.000    0.000    0.000    5.143    0.000    4.000 
#
# Total GULP energy -311840.312430 kJ/mol
# GULP energy per Si atom -5568.577008 kJ/mol
# Density = 1.644734 g / cm^3
# Si number density = 16.484860 Si / 1000 Ang^3
#
#
#
# Elastic Constant Matrix: (Units=GPa)
#
#
# Indices 1 2 3 4 5 6 
#
# 1 97.1899 25.0205 40.2342 0.0000 0.0000 0.0000
# 2 25.0205 70.0940 37.1621 0.0000 0.0000 0.0000
# 3 40.2342 37.1621 95.6393 0.0000 0.0000 0.0000
# 4 0.0000 0.0000 0.0000 -11.6206 0.0000 0.0000
# 5 0.0000 0.0000 0.0000 0.0000 19.1249 0.0000
# 6 0.0000 0.0000 0.0000 0.0000 0.0000 2.5376
#
#
#
# Elastic Compliance Matrix: (Units=1/GPa)
#
#
# Indices 1 2 3 4 5 6 
#
# 1 0.012710 -0.002144 -0.004514 0.000000 0.000000 0.000000
# 2 -0.002144 0.018330 -0.006220 0.000000 0.000000 0.000000
# 3 -0.004514 -0.006220 0.014772 0.000000 0.000000 0.000000
# 4 0.000000 0.000000 0.000000 -0.086054 0.000000 0.000000
# 5 0.000000 0.000000 0.000000 0.000000 0.052288 0.000000
# 6 0.000000 0.000000 0.000000 0.000000 0.000000 0.394069
#
#
# Mechanical properties :
#
#
# Convention : Reuss Voigt Hill
#
# Bulk Modulus (GPa) = 49.86206 51.97295 50.91750
# Shear Modulus (GPa) = 11.40109 12.70883 12.05496
#
# Velocity S-wave (km/s) = 2.63270 2.77959 2.70714
# Velocity P-wave (km/s) = 6.28922 6.47284 6.38169
#
# Compressibility (1/GPa) = 0.02005533
#
# Stress axis : x y z
#
# Youngs Moduli (GPa) = 78.68070 54.55633 67.69606
#
# Poissons Ratio (x) = 0.11695 0.30557
# Poissons Ratio (y) = 0.16866 0.42110
# Poissons Ratio (z) = 0.35515 0.33937
#
# Static dielectric constant tensor:
#      x y z
#    x 1.582890 0.000000 0.000000 
#    y 0.000000 1.572590 0.000000 
#    z 0.000000 0.000000 1.547150 
# 
# From -- ./inp_files/56395.got.cif
#   From: 2010.05.17/outbox.cif.g08.bks.cpg/sg71_29_cif.got.tgz:56395.got - 2010.06.03 16:22:01.
