data_PCOD9519915
_publ_section_title
;
Structure prediction by ZEFSAII (Michael W. Deem and Ramdas Pophale) SiO2 
 PCOD9519915
Probable space group: I M M M
;
_chemical_formula_sum "Si O2"
_cell_formula_units_Z 104
_cell_length_a 33.355022
_cell_length_b 18.427818
_cell_length_c 7.341631
_cell_angle_alpha 90.000000
_cell_angle_beta 90.000000
_cell_angle_gamma 90.000000
_cell_volume 4512.608928
_symmetry_space_group_name_H-M "I M M M"
_symmetry_group_IT_number 71
_symmetry_cell_setting 'orthorhombic'
loop_
_space_group_symop_operation_xyz
x,y,z
-x,-y,z
x,-y,-z
-x,y,-z
-x,-y,-z
x,y,-z
-x,y,z
x,-y,z
1/2+x,1/2+y,1/2+z
1/2-x,1/2-y,1/2+z
1/2+x,1/2-y,1/2-z
1/2-x,1/2+y,1/2-z
1/2-x,1/2-y,1/2-z
1/2+x,1/2+y,1/2-z
1/2-x,1/2+y,1/2+z
1/2+x,1/2-y,1/2+z
loop_
_atom_site_type_symbol
_atom_site_label
_atom_site_fract_x
_atom_site_fract_y
_atom_site_fract_z
Si Si1 0.741186 0.919075 0.776719
Si Si2 0.337810 0.150602 0.205961
Si Si3 0.193354 0.194202 0.791631
Si Si4 0.545352 0.343199 0.778205
Si Si5 0.073856 0.317276 0.277299
Si Si6 0.500000 0.082856 0.778109
Si Si7 0.624674 0.580557 0.220516
O O1 0.696088 0.901545 0.714817
O O2 0.770866 0.855260 0.715595
O O3 0.753932 0.000000 0.722395
O O4 0.741803 0.917185 0.000000
O O5 0.317646 0.230325 0.199654
O O6 0.381841 0.161167 0.287850
O O7 0.344564 0.124190 0.000000
O O8 0.154689 0.142143 0.786828
O O9 0.203203 0.212545 0.000000
O O10 0.500000 0.356667 0.716702
O O11 0.560485 0.263356 0.721955
O O12 0.579374 0.400095 0.724127
O O13 0.544413 0.343157 0.000000
O O14 0.075209 0.315469 0.500000
O O15 0.039653 0.373665 0.222439
O O16 0.500000 0.000000 0.717768
O O17 0.500000 0.083023 0.000000
O O18 0.636386 0.500000 0.280345
O O19 0.626200 0.582531 0.000000
#
# Coordination Sequence:
#
# PCOD9519915 Si02
#       7
#    16  16  16  16  16   8  16
#     4   9  19  34  51  74 103 134 168 210 263 316
#     4  10  19  33  55  77 100 131 173 218 255 301
#     4  11  21  34  53  75 103 138 173 210 257 310
#     4   9  15  26  46  70  99 130 162 202 251 300
#     4   9  15  25  43  67  96 131 161 196 246 294
#     4   9  16  24  38  70 110 136 159 198 253 310
#     4  10  20  33  51  77 104 132 172 215 253 301
#
# _framework density 23.046534999999999
#
# number of rings (size 3 to 8) (size 9 to 14) (size 15 to 20)
#    0.000    2.385    2.308    1.385    0.000    1.846 
#    0.000    5.385    0.000    2.769    0.000    1.077 
#    0.000    0.615    0.000    0.000    0.000    0.000 
#
# Total GULP energy -290647.553294 kJ/mol
# GULP energy per Si atom -5589.376025 kJ/mol
# Density = 2.299408 g / cm^3
# Si number density = 23.046535 Si / 1000 Ang^3
#
#
#
# Elastic Constant Matrix: (Units=GPa)
#
#
# Indices 1 2 3 4 5 6 
#
# 1 129.4460 11.2123 -3.7644 0.0000 0.0000 0.0000
# 2 11.2123 71.8060 -5.7285 0.0000 0.0000 0.0000
# 3 -3.7644 -5.7285 88.6954 0.0000 0.0000 0.0000
# 4 0.0000 0.0000 0.0000 -2.7685 0.0000 0.0000
# 5 0.0000 0.0000 0.0000 0.0000 -92.2462 0.0000
# 6 0.0000 0.0000 0.0000 0.0000 0.0000 4.1835
#
#
#
# Elastic Compliance Matrix: (Units=1/GPa)
#
#
# Indices 1 2 3 4 5 6 
#
# 1 0.007837 -0.001203 0.000255 0.000000 0.000000 0.000000
# 2 -0.001203 0.014183 0.000865 0.000000 0.000000 0.000000
# 3 0.000255 0.000865 0.011341 0.000000 0.000000 0.000000
# 4 0.000000 0.000000 0.000000 -0.361207 0.000000 0.000000
# 5 0.000000 0.000000 0.000000 0.000000 -0.010841 0.000000
# 6 0.000000 0.000000 0.000000 0.000000 0.000000 0.239037
#
#
# Mechanical properties :
#
#
# Convention : Reuss Voigt Hill
#
# Bulk Modulus (GPa) = 30.12554 32.59846 31.36200
# Shear Modulus (GPa) = -56.54998 1.04895 -27.75052
#
# Velocity S-wave (km/s) = -4.95889 0.67538 -3.47379
# Velocity P-wave (km/s) = 4.43705 3.84493 1.56588
#
# Compressibility (1/GPa) = 0.03319442
#
# Stress axis : x y z
#
# Youngs Moduli (GPa) = 127.60190 70.50532 88.17393
#
# Poissons Ratio (x) = 0.08484 -0.02247
# Poissons Ratio (y) = 0.15355 -0.07627
# Poissons Ratio (z) = -0.03252 -0.06099
#
# Static dielectric constant tensor:
#      x y z
#    x 1.839840 0.000000 0.000000 
#    y 0.000000 1.787090 0.000000 
#    z 0.000000 0.000000 2.004730 
# 
# From -- ./inp_files/17054.got.cif
#   From: 2010.05.17/outbox.cif.g08.bks.cpg/sg71_9_cif.got.tgz:17054.got - 2010.06.03 16:22:01.
