data_PCOD9519837
_publ_section_title
;
Structure prediction by ZEFSAII (Michael W. Deem and Ramdas Pophale) SiO2 
 PCOD9519837
Probable space group: I M M M
;
_chemical_formula_sum "Si O2"
_cell_formula_units_Z 90
_cell_length_a 7.817275
_cell_length_b 25.332822
_cell_length_c 26.428853
_cell_angle_alpha 90.000000
_cell_angle_beta 90.000000
_cell_angle_gamma 90.000000
_cell_volume 5233.801858
_symmetry_space_group_name_H-M "I M M M"
_symmetry_group_IT_number 71
_symmetry_cell_setting 'orthorhombic'
loop_
_space_group_symop_operation_xyz
x,y,z
-x,-y,z
x,-y,-z
-x,y,-z
-x,-y,-z
x,y,-z
-x,y,z
x,-y,z
1/2+x,1/2+y,1/2+z
1/2-x,1/2-y,1/2+z
1/2+x,1/2-y,1/2-z
1/2-x,1/2+y,1/2-z
1/2-x,1/2-y,1/2-z
1/2+x,1/2+y,1/2-z
1/2-x,1/2+y,1/2+z
1/2+x,1/2-y,1/2+z
loop_
_atom_site_type_symbol
_atom_site_label
_atom_site_fract_x
_atom_site_fract_y
_atom_site_fract_z
Si Si1 0.297514 0.210377 0.439160
Si Si2 0.707407 0.061689 0.276191
Si Si3 0.000000 0.410414 0.409881
Si Si4 0.204524 0.000000 0.557384
Si Si5 0.204217 0.604926 0.118641
Si Si6 0.000000 0.711420 0.560361
Si Si7 0.500000 0.000000 0.000000
Si Si8 0.690182 0.563750 0.663984
O O1 0.282782 0.202389 0.500000
O O2 0.500000 0.220272 0.428982
O O3 0.238491 0.157292 0.410462
O O4 0.171478 0.257570 0.423038
O O5 0.500000 0.062840 0.274467
O O6 0.769203 0.094786 0.324454
O O7 0.773496 0.080280 0.221796
O O8 0.756709 0.000000 0.283513
O O9 0.000000 0.349884 0.426901
O O10 0.000000 0.453141 0.455242
O O11 0.834340 0.418761 0.374716
O O12 0.260031 0.052464 0.586551
O O13 0.271541 0.000000 0.500000
O O14 0.000000 0.000000 0.555672
O O15 0.000000 0.609840 0.122600
O O16 0.000000 0.715329 0.500000
O O17 0.500000 0.580450 0.648499
O O18 0.695723 0.500000 0.664843
#
# Coordination Sequence:
#
# PCOD9519837 Si02
#       8
#    16  16   8   8  16   8   2  16
#     4   9  19  36  56  80 109 151 203 245 284 336
#     4   9  16  30  52  80 112 145 191 235 281 339
#     4  12  22  42  64  92 125 146 176 225 279 353
#     4  11  23  31  40  69 113 153 190 242 310 356
#     4  10  19  33  53  77 107 148 195 251 298 336
#     4  10  22  38  62  85 110 150 192 230 283 339
#     4  12  24  40  70  96 128 150 168 218 296 356
#     4  10  20  35  58  86 118 156 182 214 272 344
#
# _framework density 17.195912
#
# number of rings (size 3 to 8) (size 9 to 14) (size 15 to 20)
#    0.000    2.044    3.111    0.800    1.244    2.844 
#    0.000    0.889    0.000    1.067    0.000    0.000 
#    0.000    0.000    0.000    0.000    0.000    0.000 
#
# Total GULP energy -250664.707879 kJ/mol
# GULP energy per Si atom -5570.326842 kJ/mol
# Density = 1.715677 g / cm^3
# Si number density = 17.195912 Si / 1000 Ang^3
#
#
#
# Elastic Constant Matrix: (Units=GPa)
#
#
# Indices 1 2 3 4 5 6 
#
# 1 80.1000 47.2999 50.0479 0.0000 0.0000 0.0000
# 2 47.2999 125.6685 54.8558 0.0000 0.0000 0.0000
# 3 50.0479 54.8558 106.5156 0.0000 0.0000 0.0000
# 4 0.0000 0.0000 0.0000 20.5957 0.0000 0.0000
# 5 0.0000 0.0000 0.0000 0.0000 -14.2038 0.0000
# 6 0.0000 0.0000 0.0000 0.0000 0.0000 11.3175
#
#
#
# Elastic Compliance Matrix: (Units=1/GPa)
#
#
# Indices 1 2 3 4 5 6 
#
# 1 0.019295 -0.004263 -0.006870 0.000000 0.000000 0.000000
# 2 -0.004263 0.011207 -0.003769 0.000000 0.000000 0.000000
# 3 -0.006870 -0.003769 0.014557 0.000000 0.000000 0.000000
# 4 0.000000 0.000000 0.000000 0.048554 0.000000 0.000000
# 5 0.000000 0.000000 0.000000 0.000000 -0.070404 0.000000
# 6 0.000000 0.000000 0.000000 0.000000 0.000000 0.088359
#
#
# Mechanical properties :
#
#
# Convention : Reuss Voigt Hill
#
# Bulk Modulus (GPa) = 65.55327 68.52125 67.03726
# Shear Modulus (GPa) = 34.13976 14.21391 24.17683
#
# Velocity S-wave (km/s) = 4.46055 2.87816 3.75369
# Velocity P-wave (km/s) = 8.04567 7.13996 7.60631
#
# Compressibility (1/GPa) = 0.01525477
#
# Stress axis : x y z
#
# Youngs Moduli (GPa) = 51.82820 89.22929 68.69472
#
# Poissons Ratio (x) = 0.38041 0.47195
# Poissons Ratio (y) = 0.22096 0.25888
# Poissons Ratio (z) = 0.35607 0.33626
#
# Static dielectric constant tensor:
#      x y z
#    x 1.612570 0.000000 0.000000 
#    y 0.000000 1.533560 0.000000 
#    z 0.000000 0.000000 1.586000 
# 
# From -- ./inp_files/57654.got.cif
#   From: 2010.05.17/outbox.cif.g08.bks.cpg/sg71_29_cif.got.tgz:57654.got - 2010.06.03 16:22:01.
