data_PCOD9519184
_publ_section_title
;
Structure prediction by ZEFSAII (Michael W. Deem and Ramdas Pophale) SiO2 
 PCOD9519184
Probable space group: I M M M
;
_chemical_formula_sum "Si O2"
_cell_formula_units_Z 96
_cell_length_a 26.044657
_cell_length_b 7.565887
_cell_length_c 24.614301
_cell_angle_alpha 90.000000
_cell_angle_beta 90.000000
_cell_angle_gamma 90.000000
_cell_volume 4850.270948
_symmetry_space_group_name_H-M "I M M M"
_symmetry_group_IT_number 71
_symmetry_cell_setting 'orthorhombic'
loop_
_space_group_symop_operation_xyz
x,y,z
-x,-y,z
x,-y,-z
-x,y,-z
-x,-y,-z
x,y,-z
-x,y,z
x,-y,z
1/2+x,1/2+y,1/2+z
1/2-x,1/2-y,1/2+z
1/2+x,1/2-y,1/2-z
1/2-x,1/2+y,1/2-z
1/2-x,1/2-y,1/2-z
1/2+x,1/2+y,1/2-z
1/2-x,1/2+y,1/2+z
1/2+x,1/2-y,1/2+z
loop_
_atom_site_type_symbol
_atom_site_label
_atom_site_fract_x
_atom_site_fract_y
_atom_site_fract_z
Si Si1 0.251779 0.713625 0.438188
Si Si2 0.310756 0.787352 0.750909
Si Si3 0.849908 0.289593 0.136079
Si Si4 0.441300 0.784143 0.438260
Si Si5 0.344102 0.210416 0.868006
Si Si6 0.058198 0.787354 0.438691
O O1 0.255375 0.778197 0.500000
O O2 0.249590 0.500000 0.440142
O O3 0.300963 0.762467 0.402604
O O4 0.200485 0.778980 0.407988
O O5 0.250000 0.750000 0.750000
O O6 0.336724 0.717824 0.695775
O O7 0.335324 0.720103 0.807090
O O8 0.316185 0.000000 0.750161
O O9 0.857446 0.500000 0.141912
O O10 0.900089 0.219591 0.105258
O O11 0.427707 0.730510 0.500000
O O12 0.500000 0.730593 0.427342
O O13 0.440543 0.000000 0.437943
O O14 0.399287 0.238564 0.894882
O O15 0.336303 0.000000 0.864639
O O16 0.072055 0.725850 0.500000
O O17 0.000000 0.726193 0.426813
O O18 0.056768 0.000000 0.440445
#
# Coordination Sequence:
#
# PCOD9519184 Si02
#       6
#    16  16  16  16  16  16
#     4  10  20  32  47  70 102 135 163 200 253 306
#     4  10  20  34  51  72 100 134 171 207 248 297
#     4  10  19  31  50  75  98 124 167 213 248 289
#     4   8  14  26  45  69  97 126 154 192 245 294
#     4  10  20  34  51  73 102 135 172 207 249 309
#     4   9  19  36  56  78 104 133 168 213 262 308
#
# _framework density 19.792708999999999
#
# number of rings (size 3 to 8) (size 9 to 14) (size 15 to 20)
#    0.000    2.500    1.667    2.000    0.000    3.667 
#    0.000    1.667    0.000    3.500    0.000    2.333 
#    0.000    0.000    0.000    0.000    0.000    0.000 
#
# Total GULP energy -267918.626456 kJ/mol
# GULP energy per Si atom -5581.638051 kJ/mol
# Density = 1.974766 g / cm^3
# Si number density = 19.792709 Si / 1000 Ang^3
#
#
#
# Elastic Constant Matrix: (Units=GPa)
#
#
# Indices 1 2 3 4 5 6 
#
# 1 141.6589 -6.0967 116.0703 0.0000 0.0000 0.0000
# 2 -6.0967 43.9315 4.8551 0.0000 0.0000 0.0000
# 3 116.0703 4.8551 209.9752 0.0000 0.0000 0.0000
# 4 0.0000 0.0000 0.0000 12.8041 0.0000 0.0000
# 5 0.0000 0.0000 0.0000 0.0000 20.6870 0.0000
# 6 0.0000 0.0000 0.0000 0.0000 0.0000 25.5373
#
#
#
# Elastic Compliance Matrix: (Units=1/GPa)
#
#
# Indices 1 2 3 4 5 6 
#
# 1 0.013203 0.002646 -0.007360 0.000000 0.000000 0.000000
# 2 0.002646 0.023351 -0.002002 0.000000 0.000000 0.000000
# 3 -0.007360 -0.002002 0.008877 0.000000 0.000000 0.000000
# 4 0.000000 0.000000 0.000000 0.078100 0.000000 0.000000
# 5 0.000000 0.000000 0.000000 0.000000 0.048340 0.000000
# 6 0.000000 0.000000 0.000000 0.000000 0.000000 0.039158
#
#
# Mechanical properties :
#
#
# Convention : Reuss Voigt Hill
#
# Bulk Modulus (GPa) = 31.25124 69.46921 50.36023
# Shear Modulus (GPa) = 21.26495 30.52149 25.89322
#
# Velocity S-wave (km/s) = 3.28133 3.93116 3.62086
# Velocity P-wave (km/s) = 5.49361 7.46860 6.55590
#
# Compressibility (1/GPa) = 0.03199873
#
# Stress axis : x y z
#
# Youngs Moduli (GPa) = 75.73804 42.82436 112.64934
#
# Poissons Ratio (x) = -0.11330 0.82907
# Poissons Ratio (y) = -0.20038 0.22557
# Poissons Ratio (z) = 0.55741 0.08575
#
# Static dielectric constant tensor:
#      x y z
#    x 1.660870 0.000000 0.000000 
#    y 0.000000 1.760660 0.000000 
#    z 0.000000 0.000000 1.701910 
# 
# From -- ./inp_files/12802.got.cif
#   From: 2010.05.17/outbox.cif.g08.bks.cpg/sg71_7_cif.got.tgz:12802.got - 2010.06.03 16:22:01.
