data_PCOD9519041
_publ_section_title
;
Structure prediction by ZEFSAII (Michael W. Deem and Ramdas Pophale) SiO2 
 PCOD9519041
Probable space group: I M M M
;
_chemical_formula_sum "Si O2"
_cell_formula_units_Z 120
_cell_length_a 9.110411
_cell_length_b 29.478728
_cell_length_c 27.883546
_cell_angle_alpha 90.000000
_cell_angle_beta 90.000000
_cell_angle_gamma 90.000000
_cell_volume 7488.497906
_symmetry_space_group_name_H-M "I M M M"
_symmetry_group_IT_number 71
_symmetry_cell_setting 'orthorhombic'
loop_
_space_group_symop_operation_xyz
x,y,z
-x,-y,z
x,-y,-z
-x,y,-z
-x,-y,-z
x,y,-z
-x,y,z
x,-y,z
1/2+x,1/2+y,1/2+z
1/2-x,1/2-y,1/2+z
1/2+x,1/2-y,1/2-z
1/2-x,1/2+y,1/2-z
1/2-x,1/2-y,1/2-z
1/2+x,1/2+y,1/2-z
1/2-x,1/2+y,1/2+z
1/2+x,1/2-y,1/2+z
loop_
_atom_site_type_symbol
_atom_site_label
_atom_site_fract_x
_atom_site_fract_y
_atom_site_fract_z
Si Si1 0.676200 0.800266 0.843454
Si Si2 0.666833 0.000000 0.556917
Si Si3 0.823276 0.267721 0.447343
Si Si4 0.667816 0.177428 0.416597
Si Si5 0.167516 0.712229 0.192771
Si Si6 0.324549 0.584907 0.102718
Si Si7 0.176988 0.367588 0.265060
Si Si8 0.676419 0.446838 0.210430
O O1 0.500000 0.796924 0.841962
O O2 0.722429 0.794717 0.899094
O O3 0.739475 0.757965 0.812978
O O4 0.716729 0.846879 0.816923
O O5 0.754144 0.043531 0.574542
O O6 0.500000 0.000000 0.576127
O O7 0.659975 0.000000 0.500000
O O8 0.786801 0.287285 0.500000
O O9 0.749090 0.218479 0.442943
O O10 0.000000 0.262827 0.445063
O O11 0.500000 0.172051 0.433196
O O12 0.664343 0.191600 0.360617
O O13 0.756295 0.130919 0.417538
O O14 0.221456 0.672488 0.227780
O O15 0.000000 0.723664 0.207038
O O16 0.500000 0.585522 0.098598
O O17 0.287666 0.575416 0.158682
O O18 0.250252 0.414577 0.249906
O O19 0.000000 0.372102 0.261765
O O20 0.500000 0.445764 0.215398
O O21 0.721334 0.500000 0.211357
#
# Coordination Sequence:
#
# PCOD9519041 Si02
#       8
#    16   8  16  16  16  16  16  16
#     4   9  18  30  46  69  97 127 161 198 234 280
#     4  11  25  41  55  71  89 113 151 203 258 301
#     4   9  18  33  50  68  94 130 167 200 237 279
#     4  10  19  31  48  71  96 122 157 199 238 280
#     4   9  17  28  43  67  97 125 155 189 231 282
#     4  11  21  36  55  72  92 120 157 200 244 294
#     4  10  19  31  47  71  99 126 157 193 238 290
#     4  10  21  36  52  73  97 124 160 197 239 294
#
# _framework density 16.024576
#
# number of rings (size 3 to 8) (size 9 to 14) (size 15 to 20)
#    0.000    2.200    2.000    1.400    0.000    3.733 
#    0.000    0.000    0.000    0.000    0.000    0.000 
#    0.000    0.533    0.000    6.667    0.000    1.067 
#
# Total GULP energy -334556.344238 kJ/mol
# GULP energy per Si atom -5575.939071 kJ/mol
# Density = 1.598810 g / cm^3
# Si number density = 16.024576 Si / 1000 Ang^3
#
#
#
# Elastic Constant Matrix: (Units=GPa)
#
#
# Indices 1 2 3 4 5 6 
#
# 1 24.6431 18.3779 18.4687 0.0000 0.0000 0.0000
# 2 18.3779 45.1129 32.1768 0.0000 0.0000 0.0000
# 3 18.4687 32.1768 81.0474 0.0000 0.0000 0.0000
# 4 0.0000 0.0000 0.0000 20.2040 0.0000 0.0000
# 5 0.0000 0.0000 0.0000 0.0000 16.3679 0.0000
# 6 0.0000 0.0000 0.0000 0.0000 0.0000 25.8418
#
#
#
# Elastic Compliance Matrix: (Units=1/GPa)
#
#
# Indices 1 2 3 4 5 6 
#
# 1 0.060018 -0.020500 -0.005538 0.000000 0.000000 0.000000
# 2 -0.020500 0.037925 -0.010385 0.000000 0.000000 0.000000
# 3 -0.005538 -0.010385 0.017723 0.000000 0.000000 0.000000
# 4 0.000000 0.000000 0.000000 0.049495 0.000000 0.000000
# 5 0.000000 0.000000 0.000000 0.000000 0.061095 0.000000
# 6 0.000000 0.000000 0.000000 0.000000 0.000000 0.038697
#
#
# Mechanical properties :
#
#
# Convention : Reuss Voigt Hill
#
# Bulk Modulus (GPa) = 23.35347 32.09445 27.72396
# Shear Modulus (GPa) = 14.20160 17.93473 16.06816
#
# Velocity S-wave (km/s) = 2.98021 3.34908 3.17001
# Velocity P-wave (km/s) = 5.14270 5.91835 5.54410
#
# Compressibility (1/GPa) = 0.04282019
#
# Stress axis : x y z
#
# Youngs Moduli (GPa) = 16.66179 26.36774 56.42230
#
# Poissons Ratio (x) = 0.54054 0.31246
# Poissons Ratio (y) = 0.34156 0.58596
# Poissons Ratio (z) = 0.09227 0.27384
#
# Static dielectric constant tensor:
#      x y z
#    x 1.545300 0.000000 0.000000 
#    y 0.000000 1.493140 0.000000 
#    z 0.000000 0.000000 1.570510 
# 
# From -- ./inp_files/63806.got.cif
#   From: 2010.05.17/outbox.cif.g08.bks.cpg/sg71_32_cif.got.tgz:63806.got - 2010.06.03 16:22:01.
