data_PCOD9519400
_publ_section_title
;
Structure prediction by ZEFSAII (Michael W. Deem and Ramdas Pophale) SiO2 
 PCOD9519400
Probable space group: I M M M
;
_chemical_formula_sum "Si O2"
_cell_formula_units_Z 120
_cell_length_a 12.232024
_cell_length_b 22.777184
_cell_length_c 22.111892
_cell_angle_alpha 90.000000
_cell_angle_beta 90.000000
_cell_angle_gamma 90.000000
_cell_volume 6160.617698
_symmetry_space_group_name_H-M "I M M M"
_symmetry_group_IT_number 71
_symmetry_cell_setting 'orthorhombic'
loop_
_space_group_symop_operation_xyz
x,y,z
-x,-y,z
x,-y,-z
-x,y,-z
-x,-y,-z
x,y,-z
-x,y,z
x,-y,z
1/2+x,1/2+y,1/2+z
1/2-x,1/2-y,1/2+z
1/2+x,1/2-y,1/2-z
1/2-x,1/2+y,1/2-z
1/2-x,1/2-y,1/2-z
1/2+x,1/2+y,1/2-z
1/2-x,1/2+y,1/2+z
1/2+x,1/2-y,1/2+z
loop_
_atom_site_type_symbol
_atom_site_label
_atom_site_fract_x
_atom_site_fract_y
_atom_site_fract_z
Si Si1 0.159920 0.321730 0.692091
Si Si2 0.123636 0.933861 0.926713
Si Si3 0.228986 0.323787 0.569712
Si Si4 0.500000 0.570497 0.928160
Si Si5 0.617440 0.701483 0.747226
Si Si6 0.877151 0.566369 0.228093
Si Si7 0.125623 0.707842 0.929475
Si Si8 0.293382 0.374933 0.857673
O O1 0.138482 0.313212 0.621324
O O2 0.289554 0.311777 0.699582
O O3 0.115798 0.269851 0.734581
O O4 0.130788 0.384247 0.720069
O O5 0.212523 0.884933 0.912918
O O6 0.000000 0.919252 0.906223
O O7 0.149944 0.000000 0.905708
O O8 0.119497 0.935302 0.000000
O O9 0.190192 0.326467 0.500000
O O10 0.319081 0.272028 0.572028
O O11 0.500000 0.500000 0.920285
O O12 0.609936 0.596818 0.897434
O O13 0.500000 0.583467 0.000000
O O14 0.500000 0.682519 0.725200
O O15 0.649917 0.666678 0.807778
O O16 0.865175 0.500000 0.251182
O O17 0.782257 0.579709 0.179720
O O18 0.000000 0.571512 0.201297
O O19 0.207093 0.664537 0.894640
O O20 0.000000 0.708384 0.906476
O O21 0.122209 0.690299 0.000000
#
# Coordination Sequence:
#
# PCOD9519400 Si02
#       8
#    16  16  16   8  16  16  16  16
#     4  10  21  36  56  84 112 150 190 244 296 354
#     4   8  14  25  41  62  93 138 186 225 268 330
#     4  10  19  32  50  79 117 152 190 235 293 358
#     4  11  24  40  62  92 128 168 198 232 286 354
#     4  10  20  36  56  82 110 145 192 241 295 342
#     4  10  22  40  63  87 112 149 199 256 308 350
#     4  10  20  33  53  84 122 159 197 245 297 348
#     4  11  20  38  61  86 116 156 197 243 287 353
#
# _framework density 19.478567000000002
#
# number of rings (size 3 to 8) (size 9 to 14) (size 15 to 20)
#    0.000    2.067    2.000    2.400    0.000    3.200 
#    0.000    0.000    0.000    1.200    0.000    6.533 
#    0.000    0.000    0.000    0.000    0.000    0.000 
#
# Total GULP energy -334676.183170 kJ/mol
# GULP energy per Si atom -5577.936386 kJ/mol
# Density = 1.943423 g / cm^3
# Si number density = 19.478567 Si / 1000 Ang^3
#
#
#
# Elastic Constant Matrix: (Units=GPa)
#
#
# Indices 1 2 3 4 5 6 
#
# 1 104.4567 20.6761 27.8670 0.0000 0.0000 0.0000
# 2 20.6761 98.8037 27.4113 0.0000 0.0000 0.0000
# 3 27.8670 27.4113 84.9625 0.0000 0.0000 0.0000
# 4 0.0000 0.0000 0.0000 24.7605 0.0000 0.0000
# 5 0.0000 0.0000 0.0000 0.0000 15.7605 0.0000
# 6 0.0000 0.0000 0.0000 0.0000 0.0000 75.1478
#
#
#
# Elastic Compliance Matrix: (Units=1/GPa)
#
#
# Indices 1 2 3 4 5 6 
#
# 1 0.010661 -0.001385 -0.003050 0.000000 0.000000 0.000000
# 2 -0.001385 0.011296 -0.003190 0.000000 0.000000 0.000000
# 3 -0.003050 -0.003190 0.013800 0.000000 0.000000 0.000000
# 4 0.000000 0.000000 0.000000 0.040387 0.000000 0.000000
# 5 0.000000 0.000000 0.000000 0.000000 0.063450 0.000000
# 6 0.000000 0.000000 0.000000 0.000000 0.000000 0.013307
#
#
# Mechanical properties :
#
#
# Convention : Reuss Voigt Hill
#
# Bulk Modulus (GPa) = 48.76478 48.90352 48.83415
# Shear Modulus (GPa) = 28.57375 37.28500 32.92937
#
# Velocity S-wave (km/s) = 3.83421 4.37985 4.11608
# Velocity P-wave (km/s) = 6.68513 7.12308 6.90758
#
# Compressibility (1/GPa) = 0.02050660
#
# Stress axis : x y z
#
# Youngs Moduli (GPa) = 93.79864 88.52750 72.46637
#
# Poissons Ratio (x) = 0.12260 0.22102
# Poissons Ratio (y) = 0.12990 0.23118
# Poissons Ratio (z) = 0.28608 0.28242
#
# Static dielectric constant tensor:
#      x y z
#    x 1.702390 0.000000 0.000000 
#    y 0.000000 1.677120 0.000000 
#    z 0.000000 0.000000 1.696020 
# 
# From -- ./inp_files/52242.got.cif
#   From: 2010.05.17/outbox.cif.g08.bks.cpg/sg71_27_cif.got.tgz:52242.got - 2010.06.03 16:22:01.
