data_PCOD9519230
_publ_section_title
;
Structure prediction by ZEFSAII (Michael W. Deem and Ramdas Pophale) SiO2 
 PCOD9519230
Probable space group: I M M M
;
_chemical_formula_sum "Si O2"
_cell_formula_units_Z 88
_cell_length_a 10.463278
_cell_length_b 27.243356
_cell_length_c 14.561179
_cell_angle_alpha 90.000000
_cell_angle_beta 90.000000
_cell_angle_gamma 90.000000
_cell_volume 4150.734077
_symmetry_space_group_name_H-M "I M M M"
_symmetry_group_IT_number 71
_symmetry_cell_setting 'orthorhombic'
loop_
_space_group_symop_operation_xyz
x,y,z
-x,-y,z
x,-y,-z
-x,y,-z
-x,-y,-z
x,y,-z
-x,y,z
x,-y,z
1/2+x,1/2+y,1/2+z
1/2-x,1/2-y,1/2+z
1/2+x,1/2-y,1/2-z
1/2-x,1/2+y,1/2-z
1/2-x,1/2-y,1/2-z
1/2+x,1/2+y,1/2-z
1/2-x,1/2+y,1/2+z
1/2+x,1/2-y,1/2+z
loop_
_atom_site_type_symbol
_atom_site_label
_atom_site_fract_x
_atom_site_fract_y
_atom_site_fract_z
Si Si1 0.000000 0.557788 0.891698
Si Si2 0.848910 0.297482 0.155866
Si Si3 0.500000 0.557337 0.112929
Si Si4 0.356440 0.419701 0.389676
Si Si5 0.850561 0.500000 0.612443
Si Si6 0.852606 0.809540 0.180893
Si Si7 0.746369 0.896822 0.603174
O O1 0.873265 0.578829 0.847917
O O2 0.000000 0.500000 0.891515
O O3 0.000000 0.574437 0.000000
O O4 0.841845 0.241100 0.123056
O O5 0.762832 0.303587 0.247149
O O6 0.783755 0.339754 0.096565
O O7 0.000000 0.308421 0.167833
O O8 0.500000 0.500000 0.136620
O O9 0.622750 0.586784 0.147732
O O10 0.500000 0.559749 0.000000
O O11 0.359173 0.424455 0.500000
O O12 0.500000 0.434791 0.356975
O O13 0.237653 0.453430 0.358967
O O14 0.339789 0.362141 0.366437
O O15 0.856493 0.500000 0.500000
O O16 0.000000 0.500000 0.644092
O O17 0.000000 0.807498 0.219498
O O18 0.751534 0.918036 0.500000
#
# Coordination Sequence:
#
# PCOD9519230 Si02
#       7
#     8  16   8  16   8  16  16
#     4   9  16  28  48  73 100 130 165 205 254 304
#     4  10  20  35  53  75 103 137 172 210 257 309
#     4   9  18  32  50  73 102 136 173 211 256 304
#     4   9  17  32  55  81 104 131 170 212 251 300
#     4   9  17  29  51  81 111 137 160 197 256 313
#     4   9  20  36  55  75 100 138 173 206 253 306
#     4  10  19  31  51  77 102 132 170 217 259 293
#
# _framework density 21.201067999999999
#
# number of rings (size 3 to 8) (size 9 to 14) (size 15 to 20)
#    0.000    2.636    0.909    0.818    1.273    4.727 
#    0.000    1.818    4.000    0.000    0.000    0.000 
#    0.000    0.000    0.000    0.000    0.000    0.000 
#
# Total GULP energy -245033.318478 kJ/mol
# GULP energy per Si atom -5568.939056 kJ/mol
# Density = 2.115281 g / cm^3
# Si number density = 21.201068 Si / 1000 Ang^3
#
#
#
# Elastic Constant Matrix: (Units=GPa)
#
#
# Indices 1 2 3 4 5 6 
#
# 1 215.9961 107.0104 24.0461 0.0000 0.0000 0.0000
# 2 107.0104 139.5746 4.0423 0.0001 0.0000 0.0000
# 3 24.0461 4.0423 27.2842 0.0000 0.0001 0.0001
# 4 0.0000 0.0001 0.0000 66.4356 -0.0001 0.0001
# 5 0.0000 0.0000 0.0001 -0.0001 -8.4505 0.0000
# 6 0.0000 0.0000 0.0001 0.0001 0.0000 -32.8479
#
#
#
# Elastic Compliance Matrix: (Units=1/GPa)
#
#
# Indices 1 2 3 4 5 6 
#
# 1 0.008489 -0.006319 -0.006545 0.000000 0.000000 0.000000
# 2 -0.006319 0.011899 0.003806 0.000000 0.000000 0.000000
# 3 -0.006545 0.003806 0.041856 0.000000 0.000001 0.000000
# 4 0.000000 0.000000 0.000000 0.015052 0.000000 0.000000
# 5 0.000000 0.000000 0.000001 0.000000 -0.118337 0.000000
# 6 0.000000 0.000000 0.000000 0.000000 0.000000 -0.030443
#
#
# Mechanical properties :
#
#
# Convention : Reuss Voigt Hill
#
# Bulk Modulus (GPa) = 22.66160 72.56140 47.61150
# Shear Modulus (GPa) = -129.33588 21.54451 -53.89569
#
# Velocity S-wave (km/s) = -7.81901 3.19125 -5.04742
# Velocity P-wave (km/s) = 8.41449 6.91942 3.38565
#
# Compressibility (1/GPa) = 0.04412751
#
# Stress axis : x y z
#
# Youngs Moduli (GPa) = 117.80140 84.04115 23.89153
#
# Poissons Ratio (x) = 0.53104 0.15638
# Poissons Ratio (y) = 0.74436 -0.09093
# Poissons Ratio (z) = 0.77104 -0.31986
#
# Static dielectric constant tensor:
#      x y z
#    x 1.873340 0.000000 0.000000 
#    y 0.000000 1.770060 0.000000 
#    z 0.000000 0.000000 1.830330 
# 
# From -- ./inp_files/50594.got.cif
#   From: 2010.05.17/outbox.cif.g08.bks.cpg/sg71_26_cif.got.tgz:50594.got - 2010.06.03 16:22:01.
