data_PCOD9519661
_publ_section_title
;
Structure prediction by ZEFSAII (Michael W. Deem and Ramdas Pophale) SiO2 
 PCOD9519661
Probable space group: I M M M
;
_chemical_formula_sum "Si O2"
_cell_formula_units_Z 82
_cell_length_a 26.220032
_cell_length_b 7.662577
_cell_length_c 19.843802
_cell_angle_alpha 90.000000
_cell_angle_beta 90.000000
_cell_angle_gamma 90.000000
_cell_volume 3986.878072
_symmetry_space_group_name_H-M "I M M M"
_symmetry_group_IT_number 71
_symmetry_cell_setting 'orthorhombic'
loop_
_space_group_symop_operation_xyz
x,y,z
-x,-y,z
x,-y,-z
-x,y,-z
-x,-y,-z
x,y,-z
-x,y,z
x,-y,z
1/2+x,1/2+y,1/2+z
1/2-x,1/2-y,1/2+z
1/2+x,1/2-y,1/2-z
1/2-x,1/2+y,1/2-z
1/2-x,1/2-y,1/2-z
1/2+x,1/2+y,1/2-z
1/2-x,1/2+y,1/2+z
1/2+x,1/2-y,1/2+z
loop_
_atom_site_type_symbol
_atom_site_label
_atom_site_fract_x
_atom_site_fract_y
_atom_site_fract_z
Si Si1 0.000000 0.189667 0.359704
Si Si2 0.899980 0.292626 0.284014
Si Si3 0.060055 0.298596 0.000000
Si Si4 0.000000 0.000000 0.500000
Si Si5 0.708114 0.712096 0.421628
Si Si6 0.213312 0.709650 0.313597
Si Si7 0.898761 0.702903 0.136438
O O1 0.052833 0.271644 0.334454
O O2 0.000000 0.149576 0.439263
O O3 0.000000 0.000000 0.325424
O O4 0.892691 0.500000 0.275136
O O5 0.844476 0.222513 0.306102
O O6 0.911780 0.221592 0.209184
O O7 0.077969 0.214130 0.069314
O O8 0.080728 0.500000 0.000000
O O9 0.000000 0.307430 0.000000
O O10 0.705231 0.766153 0.500000
O O11 0.704781 0.500000 0.420410
O O12 0.759040 0.767374 0.382334
O O13 0.661457 0.785734 0.377781
O O14 0.210647 0.500000 0.317082
O O15 0.250000 0.750000 0.250000
O O16 0.915905 0.500000 0.137367
#
# Coordination Sequence:
#
# PCOD9519661 Si02
#       7
#     8  16   8   2  16  16  16
#     4  10  23  45  69  86 116 151 193 248 314 372
#     4  10  21  37  61  93 119 151 200 257 304 365
#     4   9  18  30  47  74 109 155 194 232 278 320
#     4   8  24  52  70  84 116 146 198 264 320 382
#     4  10  20  34  51  76 115 157 193 232 289 353
#     4  10  20  35  56  84 119 155 197 244 301 356
#     4  10  19  32  55  82 114 151 196 242 284 339
#
# _framework density 20.567471000000001
#
# number of rings (size 3 to 8) (size 9 to 14) (size 15 to 20)
#    0.293    1.854    2.927    0.293    1.366    1.561 
#    1.756    0.976    0.000    0.585    0.000    0.000 
#    0.000    0.000    0.000    0.000    0.000    0.000 
#
# Total GULP energy -228240.366250 kJ/mol
# GULP energy per Si atom -5566.838201 kJ/mol
# Density = 2.052066 g / cm^3
# Si number density = 20.567471 Si / 1000 Ang^3
#
#
#
# Elastic Constant Matrix: (Units=GPa)
#
#
# Indices 1 2 3 4 5 6 
#
# 1 105.5301 -10.7152 60.4302 0.0000 0.0000 0.0000
# 2 -10.7152 32.7803 -2.2391 0.0000 0.0000 0.0000
# 3 60.4302 -2.2391 169.9761 0.0000 0.0000 0.0000
# 4 0.0000 0.0000 0.0000 103.4762 0.0000 0.0000
# 5 0.0000 0.0000 0.0000 0.0000 15.1284 0.0000
# 6 0.0000 0.0000 0.0000 0.0000 0.0000 18.0219
#
#
#
# Elastic Compliance Matrix: (Units=1/GPa)
#
#
# Indices 1 2 3 4 5 6 
#
# 1 0.012339 0.003737 -0.004338 0.000000 0.000000 0.000000
# 2 0.003737 0.031665 -0.000912 0.000000 0.000000 0.000000
# 3 -0.004338 -0.000912 0.007413 0.000000 0.000000 0.000000
# 4 0.000000 0.000000 0.000000 0.009664 0.000000 0.000000
# 5 0.000000 0.000000 0.000000 0.000000 0.066101 0.000000
# 6 0.000000 0.000000 0.000000 0.000000 0.000000 0.055488
#
#
# Mechanical properties :
#
#
# Convention : Reuss Voigt Hill
#
# Bulk Modulus (GPa) = 20.66367 44.80426 32.73396
# Shear Modulus (GPa) = 24.77378 44.71268 34.74323
#
# Velocity S-wave (km/s) = 3.47437 4.66762 4.11449
# Velocity P-wave (km/s) = 5.11504 7.13304 6.20660
#
# Compressibility (1/GPa) = 0.04839412
#
# Stress axis : x y z
#
# Youngs Moduli (GPa) = 81.04158 31.58013 134.89250
#
# Poissons Ratio (x) = -0.11802 0.58512
# Poissons Ratio (y) = -0.30287 0.12296
# Poissons Ratio (z) = 0.35153 0.02879
#
# Static dielectric constant tensor:
#      x y z
#    x 1.786170 0.000000 0.000000 
#    y 0.000000 1.767000 0.000000 
#    z 0.000000 0.000000 1.758070 
# 
# From -- ./inp_files/56091.got.cif
#   From: 2010.05.17/outbox.cif.g08.bks.cpg/sg71_29_cif.got.tgz:56091.got - 2010.06.03 16:22:01.
