data_PCOD9519614
_publ_section_title
;
Structure prediction by ZEFSAII (Michael W. Deem and Ramdas Pophale) SiO2 
 PCOD9519614
Probable space group: I M M M
;
_chemical_formula_sum "Si O2"
_cell_formula_units_Z 104
_cell_length_a 21.089410
_cell_length_b 25.451183
_cell_length_c 10.854919
_cell_angle_alpha 90.000000
_cell_angle_beta 90.000000
_cell_angle_gamma 90.000000
_cell_volume 5826.382476
_symmetry_space_group_name_H-M "I M M M"
_symmetry_group_IT_number 71
_symmetry_cell_setting 'orthorhombic'
loop_
_space_group_symop_operation_xyz
x,y,z
-x,-y,z
x,-y,-z
-x,y,-z
-x,-y,-z
x,y,-z
-x,y,z
x,-y,z
1/2+x,1/2+y,1/2+z
1/2-x,1/2-y,1/2+z
1/2+x,1/2-y,1/2-z
1/2-x,1/2+y,1/2-z
1/2-x,1/2-y,1/2-z
1/2+x,1/2+y,1/2-z
1/2-x,1/2+y,1/2+z
1/2+x,1/2-y,1/2+z
loop_
_atom_site_type_symbol
_atom_site_label
_atom_site_fract_x
_atom_site_fract_y
_atom_site_fract_z
Si Si1 0.500000 0.559528 0.649674
Si Si2 0.243919 0.886102 0.860087
Si Si3 0.928819 0.250983 0.293044
Si Si4 0.289909 0.770954 0.133651
Si Si5 0.901371 0.853911 0.145039
Si Si6 0.314468 0.061742 0.356955
Si Si7 0.570261 0.140133 0.645543
O O1 0.500000 0.500000 0.696228
O O2 0.500000 0.556569 0.500000
O O3 0.560335 0.594474 0.686291
O O4 0.287557 0.834075 0.858093
O O5 0.172989 0.864550 0.840002
O O6 0.264055 0.923310 0.748369
O O7 0.247098 0.908631 0.000000
O O8 0.862399 0.251692 0.365608
O O9 0.924262 0.198061 0.213148
O O10 0.923327 0.304223 0.212964
O O11 0.000000 0.252086 0.350265
O O12 0.250000 0.750000 0.250000
O O13 0.260478 0.756496 0.000000
O O14 0.913789 0.846654 0.000000
O O15 0.294823 0.072876 0.500000
O O16 0.375603 0.097722 0.328850
O O17 0.329314 0.000000 0.350413
O O18 0.572889 0.150713 0.500000
O O19 0.500000 0.118988 0.675453
#
# Coordination Sequence:
#
# PCOD9519614 Si02
#       7
#     8  16  16  16  16  16  16
#     4   9  18  32  50  76 113 153 190 236 289 332
#     4  10  21  37  56  82 114 149 192 237 286 341
#     4  11  20  33  55  84 118 152 188 236 291 352
#     4  11  23  38  58  86 119 156 194 237 293 355
#     4  10  19  32  53  83 115 148 191 238 283 340
#     4  10  21  37  57  81 110 146 191 241 290 342
#     4   9  18  31  51  81 112 146 186 231 287 341
#
# _framework density 17.849841000000001
#
# number of rings (size 3 to 8) (size 9 to 14) (size 15 to 20)
#    0.000    1.923    3.846    0.462    0.000    3.385 
#    0.000    3.077    0.000    0.462    0.000    1.077 
#    0.000    2.462    0.000    0.000    0.000    0.000 
#
# Total GULP energy -289666.911757 kJ/mol
# GULP energy per Si atom -5570.517534 kJ/mol
# Density = 1.780921 g / cm^3
# Si number density = 17.849841 Si / 1000 Ang^3
#
#
#
# Elastic Constant Matrix: (Units=GPa)
#
#
# Indices 1 2 3 4 5 6 
#
# 1 95.4205 33.6159 48.4974 0.0000 0.0000 0.0000
# 2 33.6159 99.0206 45.0381 0.0000 0.0000 0.0000
# 3 48.4974 45.0381 90.9958 0.0000 0.0000 0.0000
# 4 0.0000 0.0000 0.0000 21.5790 0.0000 0.0000
# 5 0.0000 0.0000 0.0000 0.0000 0.7624 0.0000
# 6 0.0000 0.0000 0.0000 0.0000 0.0000 22.0637
#
#
#
# Elastic Compliance Matrix: (Units=1/GPa)
#
#
# Indices 1 2 3 4 5 6 
#
# 1 0.014627 -0.001832 -0.006889 0.000000 0.000000 0.000000
# 2 -0.001832 0.013262 -0.005588 0.000000 0.000000 0.000000
# 3 -0.006889 -0.005588 0.017426 0.000000 0.000000 0.000000
# 4 0.000000 0.000000 0.000000 0.046341 0.000000 0.000000
# 5 0.000000 0.000000 0.000000 0.000000 1.311623 0.000000
# 6 0.000000 0.000000 0.000000 0.000000 0.000000 0.045323
#
#
# Mechanical properties :
#
#
# Convention : Reuss Voigt Hill
#
# Bulk Modulus (GPa) = 59.88584 59.97109 59.92846
# Shear Modulus (GPa) = 3.37203 19.43340 11.40271
#
# Velocity S-wave (km/s) = 1.37594 3.30315 2.53022
# Velocity P-wave (km/s) = 6.01223 6.94393 6.49481
#
# Compressibility (1/GPa) = 0.01669844
#
# Stress axis : x y z
#
# Youngs Moduli (GPa) = 68.36893 75.40107 57.38409
#
# Poissons Ratio (x) = 0.13816 0.39529
# Poissons Ratio (y) = 0.12527 0.32064
# Poissons Ratio (z) = 0.47096 0.42131
#
# Static dielectric constant tensor:
#      x y z
#    x 1.646670 0.000000 0.000000 
#    y 0.000000 1.581920 0.000000 
#    z 0.000000 0.000000 1.630430 
# 
# From -- ./inp_files/11101.got.cif
#   From: 2010.05.17/outbox.cif.g08.bks.cpg/sg71_6_cif.got.tgz:11101.got - 2010.06.03 16:22:01.
