data_PCOD9519903
_publ_section_title
;
Structure prediction by ZEFSAII (Michael W. Deem and Ramdas Pophale) SiO2 
 PCOD9519903
Probable space group: I M M M
;
_chemical_formula_sum "Si O2"
_cell_formula_units_Z 104
_cell_length_a 28.674247
_cell_length_b 23.535037
_cell_length_c 8.733754
_cell_angle_alpha 90.000000
_cell_angle_beta 90.000000
_cell_angle_gamma 90.000000
_cell_volume 5893.969206
_symmetry_space_group_name_H-M "I M M M"
_symmetry_group_IT_number 71
_symmetry_cell_setting 'orthorhombic'
loop_
_space_group_symop_operation_xyz
x,y,z
-x,-y,z
x,-y,-z
-x,y,-z
-x,-y,-z
x,y,-z
-x,y,z
x,-y,z
1/2+x,1/2+y,1/2+z
1/2-x,1/2-y,1/2+z
1/2+x,1/2-y,1/2-z
1/2-x,1/2+y,1/2-z
1/2-x,1/2-y,1/2-z
1/2+x,1/2+y,1/2-z
1/2-x,1/2+y,1/2+z
1/2+x,1/2-y,1/2+z
loop_
_atom_site_type_symbol
_atom_site_label
_atom_site_fract_x
_atom_site_fract_y
_atom_site_fract_z
Si Si1 0.444146 0.438263 0.321648
Si Si2 0.104941 0.832593 0.317101
Si Si3 0.196532 0.324275 0.682694
Si Si4 0.106271 0.387441 0.181858
Si Si5 0.294849 0.689923 0.815881
Si Si6 0.944980 0.281822 0.681627
Si Si7 0.944057 0.500000 0.315290
O O1 0.430926 0.433034 0.500000
O O2 0.500000 0.437753 0.315358
O O3 0.428010 0.500000 0.264654
O O4 0.425060 0.385755 0.230207
O O5 0.105738 0.827372 0.500000
O O6 0.158013 0.840901 0.266925
O O7 0.082511 0.773656 0.261677
O O8 0.192041 0.328926 0.500000
O O9 0.156421 0.363635 0.756480
O O10 0.249223 0.335848 0.737667
O O11 0.194247 0.256500 0.722059
O O12 0.071194 0.336679 0.226852
O O13 0.084124 0.444522 0.255244
O O14 0.109426 0.395021 0.000000
O O15 0.288322 0.687741 0.000000
O O16 0.934322 0.290910 0.500000
O O17 0.000000 0.272088 0.694586
O O18 0.943324 0.500000 0.500000
O O19 0.000000 0.500000 0.270268
#
# Coordination Sequence:
#
# PCOD9519903 Si02
#       7
#    16  16  16  16  16  16   8
#     4   9  19  35  52  72 104 145 185 226 271 322
#     4  10  19  33  54  81 111 143 180 228 279 329
#     4  10  19  35  58  82 112 148 185 224 275 339
#     4  12  24  38  59  86 117 150 190 238 288 340
#     4   9  18  33  54  83 116 144 180 228 279 331
#     4  10  20  35  54  79 114 151 185 225 279 339
#     4  11  25  45  67  87 113 155 201 243 294 355
#
# _framework density 17.645154999999999
#
# number of rings (size 3 to 8) (size 9 to 14) (size 15 to 20)
#    0.000    1.923    1.538    3.462    0.000    5.846 
#    0.000    0.769    1.692    0.000    0.000    0.000 
#    0.000    0.000    0.000    0.000    0.000    0.000 
#
# Total GULP energy -289922.918383 kJ/mol
# GULP energy per Si atom -5575.440738 kJ/mol
# Density = 1.760499 g / cm^3
# Si number density = 17.645155 Si / 1000 Ang^3
#
#
#
# Elastic Constant Matrix: (Units=GPa)
#
#
# Indices 1 2 3 4 5 6 
#
# 1 106.6345 47.4273 43.2713 0.0000 0.0000 0.0000
# 2 47.4273 74.6289 22.4125 0.0000 0.0000 0.0000
# 3 43.2713 22.4125 50.7137 0.0000 0.0000 0.0000
# 4 0.0000 0.0000 0.0000 31.8107 0.0000 0.0000
# 5 0.0000 0.0000 0.0000 0.0000 29.5076 0.0000
# 6 0.0000 0.0000 0.0000 0.0000 0.0000 20.6528
#
#
#
# Elastic Compliance Matrix: (Units=1/GPa)
#
#
# Indices 1 2 3 4 5 6 
#
# 1 0.017441 -0.007627 -0.011511 0.000000 0.000000 0.000000
# 2 -0.007627 0.018786 -0.001794 0.000000 0.000000 0.000000
# 3 -0.011511 -0.001794 0.030333 0.000000 0.000000 0.000000
# 4 0.000000 0.000000 0.000000 0.031436 0.000000 0.000000
# 5 0.000000 0.000000 0.000000 0.000000 0.033890 0.000000
# 6 0.000000 0.000000 0.000000 0.000000 0.000000 0.048420
#
#
# Mechanical properties :
#
#
# Convention : Reuss Voigt Hill
#
# Bulk Modulus (GPa) = 40.49357 50.91104 45.70230
# Shear Modulus (GPa) = 21.70129 24.31863 23.00996
#
# Velocity S-wave (km/s) = 3.51076 3.71644 3.61506
# Velocity P-wave (km/s) = 6.27953 6.87977 6.58650
#
# Compressibility (1/GPa) = 0.02469528
#
# Stress axis : x y z
#
# Youngs Moduli (GPa) = 57.33599 53.23245 32.96722
#
# Poissons Ratio (x) = 0.40600 0.37948
# Poissons Ratio (y) = 0.43730 0.05916
# Poissons Ratio (z) = 0.65999 0.09552
#
# Static dielectric constant tensor:
#      x y z
#    x 1.630030 0.000000 0.000000 
#    y 0.000000 1.579640 0.000000 
#    z 0.000000 0.000000 1.608240 
# 
# From -- ./inp_files/15285.got.cif
#   From: 2010.05.17/outbox.cif.g08.bks.cpg/sg71_8_cif.got.tgz:15285.got - 2010.06.03 16:22:01.
