data_PCOD9519147
_publ_section_title
;
Structure prediction by ZEFSAII (Michael W. Deem and Ramdas Pophale) SiO2 
 PCOD9519147
Probable space group: I M M M
;
_chemical_formula_sum "Si O2"
_cell_formula_units_Z 104
_cell_length_a 30.354679
_cell_length_b 8.370559
_cell_length_c 21.173180
_cell_angle_alpha 90.000000
_cell_angle_beta 90.000000
_cell_angle_gamma 90.000000
_cell_volume 5379.800811
_symmetry_space_group_name_H-M "I M M M"
_symmetry_group_IT_number 71
_symmetry_cell_setting 'orthorhombic'
loop_
_space_group_symop_operation_xyz
x,y,z
-x,-y,z
x,-y,-z
-x,y,-z
-x,-y,-z
x,y,-z
-x,y,z
x,-y,z
1/2+x,1/2+y,1/2+z
1/2-x,1/2-y,1/2+z
1/2+x,1/2-y,1/2-z
1/2-x,1/2+y,1/2-z
1/2-x,1/2-y,1/2-z
1/2+x,1/2+y,1/2-z
1/2-x,1/2+y,1/2+z
1/2+x,1/2-y,1/2+z
loop_
_atom_site_type_symbol
_atom_site_label
_atom_site_fract_x
_atom_site_fract_y
_atom_site_fract_z
Si Si1 0.793980 0.693964 0.787761
Si Si2 0.317602 0.312154 0.070023
Si Si3 0.948448 0.000000 0.925115
Si Si4 0.552532 0.173563 0.370334
Si Si5 0.450912 0.683920 0.765099
Si Si6 0.211737 0.689938 0.930394
Si Si7 0.366700 0.814150 0.812146
O O1 0.791496 0.500000 0.789728
O O2 0.750000 0.750000 0.750000
O O3 0.800441 0.752015 0.860243
O O4 0.835763 0.741488 0.745523
O O5 0.326658 0.500000 0.081169
O O6 0.264856 0.295077 0.070419
O O7 0.339390 0.211323 0.124551
O O8 0.333374 0.269202 0.000000
O O9 0.928456 0.167469 0.902173
O O10 0.000000 0.000000 0.902316
O O11 0.949133 0.000000 0.000000
O O12 0.500000 0.168505 0.386072
O O13 0.555550 0.203610 0.295633
O O14 0.571498 0.000000 0.387464
O O15 0.500000 0.711192 0.790474
O O16 0.448892 0.500000 0.742977
O O17 0.411916 0.718127 0.812709
O O18 0.201260 0.500000 0.930775
O O19 0.196787 0.753641 0.000000
O O20 0.376412 0.000000 0.802950
#
# Coordination Sequence:
#
# PCOD9519147 Si02
#       7
#    16  16   8  16  16  16  16
#     4  10  19  31  49  76 111 144 179 223 267 318
#     4   9  17  31  52  76 104 143 187 222 256 312
#     4   9  16  26  42  68 100 130 165 209 261 329
#     4   9  16  28  47  70  98 129 163 212 271 327
#     4  10  20  36  57  77  99 134 182 234 287 342
#     4   8  14  27  49  73 100 141 186 221 256 305
#     4  11  22  32  49  82 115 143 175 222 286 338
#
# _framework density 19.331569999999999
#
# number of rings (size 3 to 8) (size 9 to 14) (size 15 to 20)
#    0.000    2.538    2.308    1.846    0.000    2.154 
#    0.000    1.538    0.000    1.846    0.000    5.385 
#    0.000    0.000    0.000    0.000    0.000    0.000 
#
# Total GULP energy -289767.207215 kJ/mol
# GULP energy per Si atom -5572.446293 kJ/mol
# Density = 1.928757 g / cm^3
# Si number density = 19.331570 Si / 1000 Ang^3
#
#
#
# Elastic Constant Matrix: (Units=GPa)
#
#
# Indices 1 2 3 4 5 6 
#
# 1 34.7524 8.9966 18.4386 0.0000 0.0000 0.0000
# 2 8.9966 64.8423 17.1315 0.0000 0.0000 0.0000
# 3 18.4386 17.1315 99.4592 0.0000 0.0000 0.0000
# 4 0.0000 0.0000 0.0000 17.5037 0.0000 0.0000
# 5 0.0000 0.0000 0.0000 0.0000 -72.4780 0.0000
# 6 0.0000 0.0000 0.0000 0.0000 0.0000 11.9216
#
#
#
# Elastic Compliance Matrix: (Units=1/GPa)
#
#
# Indices 1 2 3 4 5 6 
#
# 1 0.032482 -0.003055 -0.005496 0.000000 0.000000 0.000000
# 2 -0.003055 0.016445 -0.002266 0.000000 0.000000 0.000000
# 3 -0.005496 -0.002266 0.011464 0.000000 0.000000 0.000000
# 4 0.000000 0.000000 0.000000 0.057131 0.000000 0.000000
# 5 0.000000 0.000000 0.000000 0.000000 -0.013797 0.000000
# 6 0.000000 0.000000 0.000000 0.000000 0.000000 0.083881
#
#
# Mechanical properties :
#
#
# Convention : Reuss Voigt Hill
#
# Bulk Modulus (GPa) = 25.80199 32.02082 28.91141
# Shear Modulus (GPa) = 22.50667 1.68860 12.09763
#
# Velocity S-wave (km/s) = 3.41580 0.93562 2.50431
# Velocity P-wave (km/s) = 5.37894 4.21511 4.83219
#
# Compressibility (1/GPa) = 0.03875669
#
# Stress axis : x y z
#
# Youngs Moduli (GPa) = 30.78671 60.81023 87.23311
#
# Poissons Ratio (x) = 0.18576 0.47939
# Poissons Ratio (y) = 0.09404 0.19769
# Poissons Ratio (z) = 0.16919 0.13781
#
# Static dielectric constant tensor:
#      x y z
#    x 1.670150 0.000000 0.000000 
#    y 0.000000 1.714770 0.000000 
#    z 0.000000 0.000000 1.689950 
# 
# From -- ./inp_files/56206.got.cif
#   From: 2010.05.17/outbox.cif.g08.bks.cpg/sg71_29_cif.got.tgz:56206.got - 2010.06.03 16:22:01.
