data_PCOD9519968
_publ_section_title
;
Structure prediction by ZEFSAII (Michael W. Deem and Ramdas Pophale) SiO2 
 PCOD9519968
Probable space group: I M M M
;
_chemical_formula_sum "Si O2"
_cell_formula_units_Z 88
_cell_length_a 22.138558
_cell_length_b 12.156272
_cell_length_c 18.020093
_cell_angle_alpha 90.000000
_cell_angle_beta 90.000000
_cell_angle_gamma 90.000000
_cell_volume 4849.609464
_symmetry_space_group_name_H-M "I M M M"
_symmetry_group_IT_number 71
_symmetry_cell_setting 'orthorhombic'
loop_
_space_group_symop_operation_xyz
x,y,z
-x,-y,z
x,-y,-z
-x,y,-z
-x,-y,-z
x,y,-z
-x,y,z
x,-y,z
1/2+x,1/2+y,1/2+z
1/2-x,1/2-y,1/2+z
1/2+x,1/2-y,1/2-z
1/2-x,1/2+y,1/2-z
1/2-x,1/2-y,1/2-z
1/2+x,1/2+y,1/2-z
1/2-x,1/2+y,1/2+z
1/2+x,1/2-y,1/2+z
loop_
_atom_site_type_symbol
_atom_site_label
_atom_site_fract_x
_atom_site_fract_y
_atom_site_fract_z
Si Si1 0.500000 0.630009 0.698650
Si Si2 0.783471 0.124547 0.912595
Si Si3 0.194769 0.281213 0.696805
Si Si4 0.368027 0.368069 0.917677
Si Si5 0.572018 0.000000 0.587781
Si Si6 0.883721 0.722524 0.164094
Si Si7 0.500000 0.628893 0.122645
O O1 0.500000 0.500000 0.677826
O O2 0.559173 0.695565 0.671482
O O3 0.500000 0.634352 0.788387
O O4 0.722744 0.135688 0.863319
O O5 0.831689 0.211322 0.880325
O O6 0.807056 0.000000 0.903659
O O7 0.772790 0.143517 0.000000
O O8 0.250000 0.250000 0.750000
O O9 0.172346 0.179686 0.647376
O O10 0.141420 0.309160 0.754035
O O11 0.368957 0.500000 0.912159
O O12 0.436793 0.325931 0.907292
O O13 0.346190 0.338352 0.000000
O O14 0.598771 0.889293 0.622950
O O15 0.500000 0.000000 0.600181
O O16 0.583391 0.000000 0.500000
O O17 0.500000 0.500000 0.100778
#
# Coordination Sequence:
#
# PCOD9519968 Si02
#       7
#     8  16  16  16   8  16   8
#     4  11  20  34  61  95 124 150 195 248 295 355
#     4  10  22  41  61  83 115 153 197 248 297 348
#     4  10  22  36  56  81 113 153 202 247 287 343
#     4  10  19  33  55  85 122 158 192 237 297 361
#     4  11  24  42  64  88 123 157 191 240 296 365
#     4  11  22  40  62  90 117 157 198 243 298 355
#     4   9  17  30  52  85 121 152 185 231 291 349
#
# _framework density 18.145792
#
# number of rings (size 3 to 8) (size 9 to 14) (size 15 to 20)
#    0.000    1.727    2.727    1.909    1.273    4.000 
#    4.909    0.000    0.000    2.182    0.000    0.000 
#    0.000    7.273    0.000    0.000    0.000    0.000 
#
# Total GULP energy -245331.827152 kJ/mol
# GULP energy per Si atom -5575.723344 kJ/mol
# Density = 1.810449 g / cm^3
# Si number density = 18.145792 Si / 1000 Ang^3
#
#
#
# Elastic Constant Matrix: (Units=GPa)
#
#
# Indices 1 2 3 4 5 6 
#
# 1 89.5572 52.2335 54.8197 0.0000 0.0000 0.0000
# 2 52.2335 115.2249 67.2059 0.0000 0.0000 0.0000
# 3 54.8197 67.2059 132.4018 0.0000 0.0000 0.0000
# 4 0.0000 0.0000 0.0000 30.8952 0.0000 0.0000
# 5 0.0000 0.0000 0.0000 0.0000 20.5406 0.0000
# 6 0.0000 0.0000 0.0000 0.0000 0.0000 31.2079
#
#
#
# Elastic Compliance Matrix: (Units=1/GPa)
#
#
# Indices 1 2 3 4 5 6 
#
# 1 0.016802 -0.005056 -0.004390 0.000000 0.000000 0.000000
# 2 -0.005056 0.013850 -0.004937 0.000000 0.000000 0.000000
# 3 -0.004390 -0.004937 0.011876 0.000000 0.000000 0.000000
# 4 0.000000 0.000000 0.000000 0.032367 0.000000 0.000000
# 5 0.000000 0.000000 0.000000 0.000000 0.048684 0.000000
# 6 0.000000 0.000000 0.000000 0.000000 0.000000 0.032043
#
#
# Mechanical properties :
#
#
# Convention : Reuss Voigt Hill
#
# Bulk Modulus (GPa) = 72.66180 76.18910 74.42545
# Shear Modulus (GPa) = 26.45813 27.39039 26.92426
#
# Velocity S-wave (km/s) = 3.82263 3.88940 3.85616
# Velocity P-wave (km/s) = 7.72099 7.88975 7.80583
#
# Compressibility (1/GPa) = 0.01376239
#
# Stress axis : x y z
#
# Youngs Moduli (GPa) = 59.51517 72.20173 84.20026
#
# Poissons Ratio (x) = 0.36506 0.36968
# Poissons Ratio (y) = 0.30091 0.41568
# Poissons Ratio (z) = 0.26130 0.35644
#
# Static dielectric constant tensor:
#      x y z
#    x 2.521480 0.000000 0.000000 
#    y 0.000000 1.595910 0.000000 
#    z 0.000000 0.000000 1.621540 
# 
# From -- ./inp_files/25707.got.cif
#   From: 2010.05.17/outbox.cif.g08.bks.cpg/sg71_13_cif.got.tgz:25707.got - 2010.06.03 16:22:01.
