data_PCOD9519570
_publ_section_title
;
Structure prediction by ZEFSAII (Michael W. Deem and Ramdas Pophale) SiO2 
 PCOD9519570
Probable space group: I M M M
;
_chemical_formula_sum "Si O2"
_cell_formula_units_Z 116
_cell_length_a 28.027333
_cell_length_b 29.229624
_cell_length_c 7.917105
_cell_angle_alpha 90.000000
_cell_angle_beta 90.000000
_cell_angle_gamma 90.000000
_cell_volume 6485.917304
_symmetry_space_group_name_H-M "I M M M"
_symmetry_group_IT_number 71
_symmetry_cell_setting 'orthorhombic'
loop_
_space_group_symop_operation_xyz
x,y,z
-x,-y,z
x,-y,-z
-x,y,-z
-x,-y,-z
x,y,-z
-x,y,z
x,-y,z
1/2+x,1/2+y,1/2+z
1/2-x,1/2-y,1/2+z
1/2+x,1/2-y,1/2-z
1/2-x,1/2+y,1/2-z
1/2-x,1/2-y,1/2-z
1/2+x,1/2+y,1/2-z
1/2-x,1/2+y,1/2+z
1/2+x,1/2-y,1/2+z
loop_
_atom_site_type_symbol
_atom_site_label
_atom_site_fract_x
_atom_site_fract_y
_atom_site_fract_z
Si Si1 0.054613 0.551892 0.703970
Si Si2 0.857072 0.612746 0.798748
Si Si3 0.500000 0.576389 0.500000
Si Si4 0.673500 0.395253 0.805938
Si Si5 0.815826 0.705004 0.803475
Si Si6 0.425504 0.444890 0.198946
Si Si7 0.709935 0.302827 0.303899
Si Si8 0.732738 0.051978 0.799918
O O1 0.054854 0.551463 0.500000
O O2 0.067762 0.500000 0.759514
O O3 0.092531 0.589356 0.760644
O O4 0.000000 0.560673 0.758761
O O5 0.847994 0.664207 0.730299
O O6 0.815105 0.580479 0.730625
O O7 0.851062 0.614732 0.000000
O O8 0.540882 0.573639 0.347596
O O9 0.627526 0.425770 0.767999
O O10 0.678562 0.348064 0.705719
O O11 0.721643 0.424024 0.781183
O O12 0.670067 0.381130 0.000000
O O13 0.760491 0.689467 0.787886
O O14 0.814963 0.756808 0.734066
O O15 0.829177 0.709334 0.000000
O O16 0.426842 0.500000 0.210379
O O17 0.437729 0.433659 0.000000
O O18 0.722277 0.294045 0.500000
O O19 0.727023 0.000000 0.738850
O O20 0.741543 0.051176 0.000000
#
# Coordination Sequence:
#
# PCOD9519570 Si02
#       8
#    16  16   4  16  16  16  16  16
#     4   9  19  36  55  75 103 139 181 230 275 315
#     4  11  21  33  52  78 108 142 178 219 271 326
#     4  12  23  38  64  86 110 148 194 242 278 332
#     4  11  22  36  53  78 112 145 178 221 278 331
#     4   9  19  34  50  75 108 141 178 223 272 322
#     4  10  22  38  57  84 115 147 186 236 287 333
#     4  10  19  32  53  77 105 141 183 224 266 324
#     4  11  23  35  49  73 108 147 184 216 253 318
#
# _framework density 17.884903000000001
#
# number of rings (size 3 to 8) (size 9 to 14) (size 15 to 20)
#    0.000    1.793    1.379    3.724    1.931    5.517 
#    0.000    0.690    0.000    0.000    1.793    0.000 
#    0.000    0.000    0.000    0.000    0.000    0.000 
#
# Total GULP energy -322956.811626 kJ/mol
# GULP energy per Si atom -5568.220890 kJ/mol
# Density = 1.784420 g / cm^3
# Si number density = 17.884903 Si / 1000 Ang^3
#
#
#
# Elastic Constant Matrix: (Units=GPa)
#
#
# Indices 1 2 3 4 5 6 
#
# 1 74.0685 26.7556 6.2834 0.0000 0.0000 0.0000
# 2 26.7556 73.8929 3.5397 0.0000 0.0000 0.0000
# 3 6.2834 3.5397 39.4408 0.0000 0.0000 0.0000
# 4 0.0000 0.0000 0.0000 18.9800 0.0000 0.0000
# 5 0.0000 0.0000 0.0000 0.0000 7.4607 0.0000
# 6 0.0000 0.0000 0.0000 0.0000 0.0000 3.3007
#
#
#
# Elastic Compliance Matrix: (Units=1/GPa)
#
#
# Indices 1 2 3 4 5 6 
#
# 1 0.015688 -0.005585 -0.001998 0.000000 0.000000 0.000000
# 2 -0.005585 0.015580 -0.000509 0.000000 0.000000 0.000000
# 3 -0.001998 -0.000509 0.025718 0.000000 0.000000 0.000000
# 4 0.000000 0.000000 0.000000 0.052687 0.000000 0.000000
# 5 0.000000 0.000000 0.000000 0.000000 0.134036 0.000000
# 6 0.000000 0.000000 0.000000 0.000000 0.000000 0.302966
#
#
# Mechanical properties :
#
#
# Convention : Reuss Voigt Hill
#
# Bulk Modulus (GPa) = 24.50778 28.95108 26.72943
# Shear Modulus (GPa) = 8.67366 16.00318 12.33842
#
# Velocity S-wave (km/s) = 2.20460 2.99454 2.62940
# Velocity P-wave (km/s) = 4.49590 5.30839 4.91895
#
# Compressibility (1/GPa) = 0.04080337
#
# Stress axis : x y z
#
# Youngs Moduli (GPa) = 63.74365 64.18654 38.88264
#
# Poissons Ratio (x) = 0.35846 0.07769
# Poissons Ratio (y) = 0.35599 0.01977
# Poissons Ratio (z) = 0.12736 0.03264
#
# Static dielectric constant tensor:
#      x y z
#    x 1.583410 0.000000 0.000000 
#    y 0.000000 1.645130 0.000000 
#    z 0.000000 0.000000 1.659690 
# 
# From -- ./inp_files/13714.got.cif
#   From: 2010.05.17/outbox.cif.g08.bks.cpg/sg71_7_cif.got.tgz:13714.got - 2010.06.03 16:22:01.
