data_PCOD9519019
_publ_section_title
;
Structure prediction by ZEFSAII (Michael W. Deem and Ramdas Pophale) SiO2 
 PCOD9519019
Probable space group: I M M M
;
_chemical_formula_sum "Si O2"
_cell_formula_units_Z 120
_cell_length_a 28.622332
_cell_length_b 30.107627
_cell_length_c 8.941984
_cell_angle_alpha 90.000000
_cell_angle_beta 90.000000
_cell_angle_gamma 90.000000
_cell_volume 7705.759145
_symmetry_space_group_name_H-M "I M M M"
_symmetry_group_IT_number 71
_symmetry_cell_setting 'orthorhombic'
loop_
_space_group_symop_operation_xyz
x,y,z
-x,-y,z
x,-y,-z
-x,y,-z
-x,-y,-z
x,y,-z
-x,y,z
x,-y,z
1/2+x,1/2+y,1/2+z
1/2-x,1/2-y,1/2+z
1/2+x,1/2-y,1/2-z
1/2-x,1/2+y,1/2-z
1/2-x,1/2-y,1/2-z
1/2+x,1/2+y,1/2-z
1/2-x,1/2+y,1/2+z
1/2+x,1/2-y,1/2+z
loop_
_atom_site_type_symbol
_atom_site_label
_atom_site_fract_x
_atom_site_fract_y
_atom_site_fract_z
Si Si1 0.775705 0.053864 0.828072
Si Si2 0.055614 0.694114 0.178641
Si Si3 0.444810 0.620265 0.321375
Si Si4 0.592080 0.105353 0.819880
Si Si5 0.126702 0.947516 0.678611
Si Si6 0.677878 0.052626 0.321154
Si Si7 0.556693 0.286882 0.172159
Si Si8 0.000000 0.550627 0.318411
O O1 0.823442 0.067150 0.746416
O O2 0.728532 0.066436 0.741888
O O3 0.776029 0.000000 0.828918
O O4 0.774883 0.069001 0.000000
O O5 0.083644 0.654343 0.255349
O O6 0.070429 0.741964 0.242772
O O7 0.000000 0.688265 0.212564
O O8 0.060852 0.693008 0.000000
O O9 0.439593 0.620620 0.500000
O O10 0.500000 0.614323 0.287282
O O11 0.414203 0.581514 0.249750
O O12 0.429469 0.667782 0.254321
O O13 0.637501 0.081381 0.754658
O O14 0.546576 0.076594 0.773431
O O15 0.594126 0.106553 0.000000
O O16 0.127294 0.942527 0.500000
O O17 0.120448 0.000000 0.712458
O O18 0.676750 0.057319 0.500000
O O19 0.671064 0.000000 0.286060
O O20 0.500000 0.286880 0.172202
O O21 0.572308 0.286490 0.000000
O O22 0.000000 0.500000 0.264283
O O23 0.000000 0.549579 0.500000
#
# Coordination Sequence:
#
# PCOD9519019 Si02
#       8
#    16  16  16  16  16  16  16   8
#     4   9  17  31  51  72  93 121 160 204 246 287
#     4  10  19  31  47  67  94 124 158 201 249 296
#     4  10  20  33  49  72 103 136 169 202 238 282
#     4  11  20  31  47  67  93 125 164 204 246 295
#     4  10  20  33  50  73 102 135 168 202 240 282
#     4  10  20  33  48  68  95 125 159 202 250 296
#     4   9  17  30  49  70  93 123 161 202 244 287
#     4   9  18  30  43  61  89 125 163 201 240 289
#
# _framework density 15.572768
#
# number of rings (size 3 to 8) (size 9 to 14) (size 15 to 20)
#    0.000    2.200    0.667    3.200    0.000    6.933 
#    0.000    1.333    0.000    1.600    0.000    0.933 
#    0.000    0.000    0.000    0.000    0.000    0.000 
#
# Total GULP energy -334691.252775 kJ/mol
# GULP energy per Si atom -5578.187546 kJ/mol
# Density = 1.553732 g / cm^3
# Si number density = 15.572768 Si / 1000 Ang^3
#
#
#
# Elastic Constant Matrix: (Units=GPa)
#
#
# Indices 1 2 3 4 5 6 
#
# 1 101.3301 68.9015 60.6919 0.0000 0.0000 0.0000
# 2 68.9015 108.6021 63.4452 0.0000 0.0000 0.0000
# 3 60.6919 63.4452 93.1694 0.0000 0.0000 0.0000
# 4 0.0000 0.0000 0.0000 27.7840 0.0000 0.0000
# 5 0.0000 0.0000 0.0000 0.0000 26.5978 0.0000
# 6 0.0000 0.0000 0.0000 0.0000 0.0000 2.4071
#
#
#
# Elastic Compliance Matrix: (Units=1/GPa)
#
#
# Indices 1 2 3 4 5 6 
#
# 1 0.019932 -0.008404 -0.007262 0.000000 0.000000 0.000000
# 2 -0.008404 0.018834 -0.007351 0.000000 0.000000 0.000000
# 3 -0.007262 -0.007351 0.020469 0.000000 0.000000 0.000000
# 4 0.000000 0.000000 0.000000 0.035992 0.000000 0.000000
# 5 0.000000 0.000000 0.000000 0.000000 0.037597 0.000000
# 6 0.000000 0.000000 0.000000 0.000000 0.000000 0.415441
#
#
# Mechanical properties :
#
#
# Convention : Reuss Voigt Hill
#
# Bulk Modulus (GPa) = 75.74046 76.57541 76.15793
# Shear Modulus (GPa) = 8.35144 18.69531 13.52337
#
# Velocity S-wave (km/s) = 2.31829 3.46860 2.95006
# Velocity P-wave (km/s) = 7.47717 8.08214 7.78553
#
# Compressibility (1/GPa) = 0.01320298
#
# Stress axis : x y z
#
# Youngs Moduli (GPa) = 50.16979 53.09541 48.85360
#
# Poissons Ratio (x) = 0.44619 0.35476
# Poissons Ratio (y) = 0.42161 0.35913
# Poissons Ratio (z) = 0.36431 0.39031
#
# Static dielectric constant tensor:
#      x y z
#    x 1.497390 0.000000 0.000000 
#    y 0.000000 1.502490 0.000000 
#    z 0.000000 0.000000 1.518230 
# 
# From -- ./inp_files/15646.got.cif
#   From: 2010.05.17/outbox.cif.g08.bks.cpg/sg71_8_cif.got.tgz:15646.got - 2010.06.03 16:22:01.
