data_PCOD9519857
_publ_section_title
;
Structure prediction by ZEFSAII (Michael W. Deem and Ramdas Pophale) SiO2 
 PCOD9519857
Probable space group: I M M M
;
_chemical_formula_sum "Si O2"
_cell_formula_units_Z 80
_cell_length_a 7.374155
_cell_length_b 24.442265
_cell_length_c 20.335301
_cell_angle_alpha 90.000000
_cell_angle_beta 90.000000
_cell_angle_gamma 90.000000
_cell_volume 3665.256018
_symmetry_space_group_name_H-M "I M M M"
_symmetry_group_IT_number 71
_symmetry_cell_setting 'orthorhombic'
loop_
_space_group_symop_operation_xyz
x,y,z
-x,-y,z
x,-y,-z
-x,y,-z
-x,-y,-z
x,y,-z
-x,y,z
x,-y,z
1/2+x,1/2+y,1/2+z
1/2-x,1/2-y,1/2+z
1/2+x,1/2-y,1/2-z
1/2-x,1/2+y,1/2-z
1/2-x,1/2-y,1/2-z
1/2+x,1/2+y,1/2-z
1/2-x,1/2+y,1/2+z
1/2+x,1/2-y,1/2+z
loop_
_atom_site_type_symbol
_atom_site_label
_atom_site_fract_x
_atom_site_fract_y
_atom_site_fract_z
Si Si1 0.784116 0.244391 0.172278
Si Si2 0.780187 0.063205 0.931361
Si Si3 0.278191 0.375517 0.305375
Si Si4 0.282607 0.158947 0.424481
Si Si5 0.216272 0.063384 0.673816
O O1 0.750000 0.250000 0.250000
O O2 0.716856 0.182600 0.165086
O O3 0.713624 0.292896 0.125127
O O4 0.000000 0.244557 0.162081
O O5 0.718818 0.083705 0.861715
O O6 0.000000 0.068013 0.930342
O O7 0.735054 0.000000 0.934828
O O8 0.719336 0.090113 0.000000
O O9 0.500000 0.372510 0.301012
O O10 0.216001 0.398867 0.234929
O O11 0.216323 0.163115 0.500000
O O12 0.500000 0.164609 0.427145
O O13 0.247049 0.099975 0.391091
O O14 0.000000 0.059229 0.682596
O O15 0.283391 0.000000 0.672517
#
# Coordination Sequence:
#
# PCOD9519857 Si02
#       5
#    16  16  16  16  16
#     4  10  19  33  54  76 100 133 169 207 252 303
#     4   8  13  21  35  60  96 132 160 191 239 295
#     4   9  16  27  46  71  99 130 165 207 252 298
#     4  10  22  38  54  76 107 140 174 215 262 313
#     4  10  20  34  54  79 105 136 177 221 263 310
#
# _framework density 21.826578000000001
#
# number of rings (size 3 to 8) (size 9 to 14) (size 15 to 20)
#    0.000    2.600    2.000    1.200    0.000    4.400 
#    0.000    6.000    0.000    0.000    0.000    0.000 
#    0.000    0.800    0.000    6.800    0.000    7.600 
#
# Total GULP energy -222744.652511 kJ/mol
# GULP energy per Si atom -5568.616313 kJ/mol
# Density = 2.177690 g / cm^3
# Si number density = 21.826578 Si / 1000 Ang^3
#
#
#
# Elastic Constant Matrix: (Units=GPa)
#
#
# Indices 1 2 3 4 5 6 
#
# 1 77.6747 5.4569 -4.4026 0.0000 0.0000 0.0000
# 2 5.4569 146.0121 79.2433 0.0000 0.0000 0.0000
# 3 -4.4026 79.2433 161.8131 0.0000 0.0000 0.0000
# 4 0.0000 0.0000 0.0000 35.7093 0.0000 0.0000
# 5 0.0000 0.0000 0.0000 0.0000 -7.5734 0.0000
# 6 0.0000 0.0000 0.0000 0.0000 0.0000 5.8692
#
#
#
# Elastic Compliance Matrix: (Units=1/GPa)
#
#
# Indices 1 2 3 4 5 6 
#
# 1 0.012985 -0.000922 0.000805 0.000000 0.000000 0.000000
# 2 -0.000922 0.009393 -0.004625 0.000000 0.000000 0.000000
# 3 0.000805 -0.004625 0.008467 0.000000 0.000000 0.000000
# 4 0.000000 0.000000 0.000000 0.028004 0.000000 0.000000
# 5 0.000000 0.000000 0.000000 0.000000 -0.132042 0.000000
# 6 0.000000 0.000000 0.000000 0.000000 0.000000 0.170381
#
#
# Mechanical properties :
#
#
# Convention : Reuss Voigt Hill
#
# Bulk Modulus (GPa) = 46.81647 60.67724 53.74686
# Shear Modulus (GPa) = 43.93959 27.14786 35.54373
#
# Velocity S-wave (km/s) = 4.49165 3.53058 4.03980
# Velocity P-wave (km/s) = 6.95671 6.66934 6.81454
#
# Compressibility (1/GPa) = 0.02136000
#
# Stress axis : x y z
#
# Youngs Moduli (GPa) = 77.01434 106.45762 118.10636
#
# Poissons Ratio (x) = 0.09816 -0.09506
# Poissons Ratio (y) = 0.07101 0.54627
# Poissons Ratio (z) = -0.06198 0.49239
#
# Static dielectric constant tensor:
#      x y z
#    x 1.882510 0.000000 0.000000 
#    y 0.000000 2.373650 0.000000 
#    z 0.000000 0.000000 1.848890 
# 
# From -- ./inp_files/42239.got.cif
#   From: 2010.05.17/outbox.cif.g08.bks.cpg/sg71_22_cif.got.tgz:42239.got - 2010.06.03 16:22:01.
