data_PCOD9519232
_publ_section_title
;
Structure prediction by ZEFSAII (Michael W. Deem and Ramdas Pophale) SiO2 
 PCOD9519232
Probable space group: I M M M
;
_chemical_formula_sum "Si O2"
_cell_formula_units_Z 116
_cell_length_a 7.359968
_cell_length_b 27.260155
_cell_length_c 27.907042
_cell_angle_alpha 90.000000
_cell_angle_beta 90.000000
_cell_angle_gamma 90.000000
_cell_volume 5599.097794
_symmetry_space_group_name_H-M "I M M M"
_symmetry_group_IT_number 71
_symmetry_cell_setting 'orthorhombic'
loop_
_space_group_symop_operation_xyz
x,y,z
-x,-y,z
x,-y,-z
-x,y,-z
-x,-y,-z
x,y,-z
-x,y,z
x,-y,z
1/2+x,1/2+y,1/2+z
1/2-x,1/2-y,1/2+z
1/2+x,1/2-y,1/2-z
1/2-x,1/2+y,1/2-z
1/2-x,1/2-y,1/2-z
1/2+x,1/2+y,1/2-z
1/2-x,1/2+y,1/2+z
1/2+x,1/2-y,1/2+z
loop_
_atom_site_type_symbol
_atom_site_label
_atom_site_fract_x
_atom_site_fract_y
_atom_site_fract_z
Si Si1 0.778669 0.790902 0.845085
Si Si2 0.210370 0.194829 0.051621
Si Si3 0.720833 0.310913 0.051649
Si Si4 0.000000 0.400474 0.500000
Si Si5 0.291553 0.442222 0.572994
Si Si6 0.217589 0.555575 0.317507
Si Si7 0.710582 0.675173 0.846203
Si Si8 0.288515 0.352919 0.744415
O O1 0.714900 0.815129 0.895299
O O2 0.721287 0.734311 0.842426
O O3 0.712916 0.818671 0.797881
O O4 0.000000 0.792260 0.846764
O O5 0.213510 0.254482 0.051715
O O6 0.000000 0.178769 0.050233
O O7 0.300653 0.181502 0.000000
O O8 0.500000 0.308477 0.053422
O O9 0.785957 0.335668 0.100719
O O10 0.772279 0.332499 0.000000
O O11 0.841674 0.409646 0.457999
O O12 0.500000 0.438076 0.557405
O O13 0.237079 0.500000 0.567870
O O14 0.284056 0.430325 0.629468
O O15 0.278222 0.500000 0.308405
O O16 0.278099 0.592869 0.276862
O O17 0.000000 0.556260 0.319286
O O18 0.500000 0.659699 0.847812
O O19 0.791230 0.653791 0.797304
O O20 0.500000 0.338342 0.748598
#
# Coordination Sequence:
#
# PCOD9519232 Si02
#       8
#    16  16  16   4  16  16  16  16
#     4   9  17  28  43  64  92 123 156 193 234 287
#     4   8  13  22  37  55  77 111 151 187 223 264
#     4   8  13  22  37  58  85 118 153 187 225 269
#     4  12  19  30  52  82 110 128 162 214 262 324
#     4  10  19  31  51  77 103 131 161 204 266 322
#     4  10  21  38  56  72  92 121 162 211 258 310
#     4   9  17  28  43  67  97 126 158 196 236 285
#     4  10  20  32  47  68  95 124 157 198 247 303
#
# _framework density 20.717623
#
# number of rings (size 3 to 8) (size 9 to 14) (size 15 to 20)
#    0.000    2.759    0.690    1.655    0.000    2.483 
#    0.000    0.000    1.517    0.000    0.000    0.000 
#    0.000    0.552    0.000    6.897    0.000    1.103 
#
# Total GULP energy -323308.587976 kJ/mol
# GULP energy per Si atom -5574.286000 kJ/mol
# Density = 2.067047 g / cm^3
# Si number density = 20.717623 Si / 1000 Ang^3
#
#
#
# Elastic Constant Matrix: (Units=GPa)
#
#
# Indices 1 2 3 4 5 6 
#
# 1 83.5974 -13.4455 5.7215 0.0000 0.0000 0.0000
# 2 -13.4455 41.3328 46.9045 0.0000 0.0000 0.0000
# 3 5.7215 46.9045 234.0843 0.0000 0.0000 0.0000
# 4 0.0000 0.0000 0.0000 30.2527 0.0000 0.0000
# 5 0.0000 0.0000 0.0000 0.0000 4.6992 0.0000
# 6 0.0000 0.0000 0.0000 0.0000 0.0000 13.5451
#
#
#
# Elastic Compliance Matrix: (Units=1/GPa)
#
#
# Indices 1 2 3 4 5 6 
#
# 1 0.013023 0.005950 -0.001511 0.000000 0.000000 0.000000
# 2 0.005950 0.034033 -0.006965 0.000000 0.000000 0.000000
# 3 -0.001511 -0.006965 0.005704 0.000000 0.000000 0.000000
# 4 0.000000 0.000000 0.000000 0.033055 0.000000 0.000000
# 5 0.000000 0.000000 0.000000 0.000000 0.212803 0.000000
# 6 0.000000 0.000000 0.000000 0.000000 0.000000 0.073827
#
#
# Mechanical properties :
#
#
# Convention : Reuss Voigt Hill
#
# Bulk Modulus (GPa) = 20.95984 48.59727 34.77855
# Shear Modulus (GPa) = 12.70974 31.02166 21.86570
#
# Velocity S-wave (km/s) = 2.47953 3.87377 3.25224
# Velocity P-wave (km/s) = 4.28209 6.59666 5.56113
#
# Compressibility (1/GPa) = 0.04771029
#
# Stress axis : x y z
#
# Youngs Moduli (GPa) = 76.78996 29.38302 175.30134
#
# Poissons Ratio (x) = -0.17484 0.26481
# Poissons Ratio (y) = -0.45694 1.22094
# Poissons Ratio (z) = 0.11600 0.20465
#
# Static dielectric constant tensor:
#      x y z
#    x 1.781130 0.000000 0.000000 
#    y 0.000000 1.732680 0.000000 
#    z 0.000000 0.000000 1.809990 
# 
# From -- ./inp_files/63986.got.cif
#   From: 2010.05.17/outbox.cif.g08.bks.cpg/sg71_32_cif.got.tgz:63986.got - 2010.06.03 16:22:01.
