data_PCOD9519652
_publ_section_title
;
Structure prediction by ZEFSAII (Michael W. Deem and Ramdas Pophale) SiO2 
 PCOD9519652
Probable space group: I M M M
;
_chemical_formula_sum "Si O2"
_cell_formula_units_Z 112
_cell_length_a 14.073450
_cell_length_b 14.335495
_cell_length_c 31.632956
_cell_angle_alpha 90.000000
_cell_angle_beta 90.000000
_cell_angle_gamma 90.000000
_cell_volume 6381.944827
_symmetry_space_group_name_H-M "I M M M"
_symmetry_group_IT_number 71
_symmetry_cell_setting 'orthorhombic'
loop_
_space_group_symop_operation_xyz
x,y,z
-x,-y,z
x,-y,-z
-x,y,-z
-x,-y,-z
x,y,-z
-x,y,z
x,-y,z
1/2+x,1/2+y,1/2+z
1/2-x,1/2-y,1/2+z
1/2+x,1/2-y,1/2-z
1/2-x,1/2+y,1/2-z
1/2-x,1/2-y,1/2-z
1/2+x,1/2+y,1/2-z
1/2-x,1/2+y,1/2+z
1/2+x,1/2-y,1/2+z
loop_
_atom_site_type_symbol
_atom_site_label
_atom_site_fract_x
_atom_site_fract_y
_atom_site_fract_z
Si Si1 0.109671 0.770291 0.329699
Si Si2 0.215751 0.145053 0.744472
Si Si3 0.107265 0.600807 0.192553
Si Si4 0.888131 0.748264 0.881441
Si Si5 0.263747 0.392485 0.336684
Si Si6 0.308372 0.891623 0.548840
Si Si7 0.106819 0.107661 0.586469
O O1 0.140385 0.843647 0.293117
O O2 0.173812 0.677077 0.330743
O O3 0.121728 0.823790 0.374111
O O4 0.000000 0.745650 0.323732
O O5 0.250000 0.250000 0.750000
O O6 0.311368 0.097798 0.727356
O O7 0.185806 0.109039 0.790273
O O8 0.108345 0.500000 0.170193
O O9 0.128262 0.682671 0.159795
O O10 0.000000 0.614364 0.209525
O O11 0.828966 0.841486 0.871593
O O12 0.855257 0.684693 0.920645
O O13 0.000000 0.767260 0.884581
O O14 0.240835 0.500000 0.346662
O O15 0.334520 0.877899 0.500000
O O16 0.194425 0.881679 0.554761
O O17 0.332076 0.000000 0.560232
O O18 0.000000 0.123078 0.569245
O O19 0.110311 0.000000 0.601593
#
# Coordination Sequence:
#
# PCOD9519652 Si02
#       7
#    16  16  16  16  16  16  16
#     4  10  20  35  56  82 112 147 185 229 277 324
#     4  10  19  34  49  76 109 143 179 230 274 319
#     4  10  19  32  55  81 105 141 183 223 272 326
#     4  11  22  38  56  78 110 144 181 226 274 331
#     4  11  23  39  56  77 106 148 195 239 280 316
#     4  10  20  35  59  90 120 145 171 213 272 337
#     4   9  17  31  54  85 119 152 181 210 258 329
#
# _framework density 17.549509
#
# number of rings (size 3 to 8) (size 9 to 14) (size 15 to 20)
#    0.000    1.857    4.286    0.857    0.000    7.143 
#    0.000    2.143    0.000    0.429    0.000    1.000 
#    0.000    2.286    0.000    0.000    0.000    0.000 
#
# Total GULP energy -312023.986933 kJ/mol
# GULP energy per Si atom -5571.856910 kJ/mol
# Density = 1.750957 g / cm^3
# Si number density = 17.549509 Si / 1000 Ang^3
#
#
#
# Elastic Constant Matrix: (Units=GPa)
#
#
# Indices 1 2 3 4 5 6 
#
# 1 80.3711 39.2345 33.1668 0.0000 0.0000 0.0000
# 2 39.2345 96.8375 27.6184 0.0000 0.0000 0.0000
# 3 33.1668 27.6184 70.3830 0.0000 0.0000 0.0000
# 4 0.0000 0.0000 0.0000 21.3644 0.0000 0.0000
# 5 0.0000 0.0000 0.0000 0.0000 7.2244 0.0000
# 6 0.0000 0.0000 0.0000 0.0000 0.0000 16.7757
#
#
#
# Elastic Compliance Matrix: (Units=1/GPa)
#
#
# Indices 1 2 3 4 5 6 
#
# 1 0.017622 -0.005373 -0.006196 0.000000 0.000000 0.000000
# 2 -0.005373 0.013266 -0.002674 0.000000 0.000000 0.000000
# 3 -0.006196 -0.002674 0.018177 0.000000 0.000000 0.000000
# 4 0.000000 0.000000 0.000000 0.046807 0.000000 0.000000
# 5 0.000000 0.000000 0.000000 0.000000 0.138419 0.000000
# 6 0.000000 0.000000 0.000000 0.000000 0.000000 0.059610
#
#
# Mechanical properties :
#
#
# Convention : Reuss Voigt Hill
#
# Bulk Modulus (GPa) = 48.59035 49.73678 49.16356
# Shear Modulus (GPa) = 15.18626 18.91105 17.04865
#
# Velocity S-wave (km/s) = 2.94485 3.28622 3.12021
# Velocity P-wave (km/s) = 6.26981 6.54227 6.40749
#
# Compressibility (1/GPa) = 0.02058022
#
# Stress axis : x y z
#
# Youngs Moduli (GPa) = 56.74795 75.38127 55.01508
#
# Poissons Ratio (x) = 0.40499 0.34086
# Poissons Ratio (y) = 0.30488 0.14710
# Poissons Ratio (z) = 0.35160 0.20156
#
# Static dielectric constant tensor:
#      x y z
#    x 1.634270 0.000000 0.000000 
#    y 0.000000 1.567830 0.000000 
#    z 0.000000 0.000000 1.606900 
# 
# From -- ./inp_files/70091.got.cif
#   From: 2010.05.17/outbox.cif.g08.bks.cpg/sg71_36_cif.got.tgz:70091.got - 2010.06.03 16:22:01.
