data_PCOD9519284
_publ_section_title
;
Structure prediction by ZEFSAII (Michael W. Deem and Ramdas Pophale) SiO2 
 PCOD9519284
Probable space group: I M M M
;
_chemical_formula_sum "Si O2"
_cell_formula_units_Z 96
_cell_length_a 7.850922
_cell_length_b 25.863534
_cell_length_c 22.651606
_cell_angle_alpha 90.000000
_cell_angle_beta 90.000000
_cell_angle_gamma 90.000000
_cell_volume 4599.467222
_symmetry_space_group_name_H-M "I M M M"
_symmetry_group_IT_number 71
_symmetry_cell_setting 'orthorhombic'
loop_
_space_group_symop_operation_xyz
x,y,z
-x,-y,z
x,-y,-z
-x,y,-z
-x,-y,-z
x,y,-z
-x,y,z
x,-y,z
1/2+x,1/2+y,1/2+z
1/2-x,1/2-y,1/2+z
1/2+x,1/2-y,1/2-z
1/2-x,1/2+y,1/2-z
1/2-x,1/2-y,1/2-z
1/2+x,1/2+y,1/2-z
1/2-x,1/2+y,1/2+z
1/2+x,1/2-y,1/2+z
loop_
_atom_site_type_symbol
_atom_site_label
_atom_site_fract_x
_atom_site_fract_y
_atom_site_fract_z
Si Si1 0.207096 0.557124 0.861577
Si Si2 0.303376 0.835198 0.399569
Si Si3 0.000000 0.162982 0.071656
Si Si4 0.300897 0.085166 0.774560
Si Si5 0.180105 0.273296 0.568558
Si Si6 0.500000 0.556559 0.638712
Si Si7 0.795691 0.192206 0.268012
O O1 0.266119 0.500000 0.878939
O O2 0.266460 0.606280 0.899852
O O3 0.245000 0.566679 0.792216
O O4 0.000000 0.558219 0.865226
O O5 0.500000 0.835085 0.419169
O O6 0.209498 0.788123 0.430465
O O7 0.290968 0.819551 0.330816
O O8 0.162425 0.195381 0.093989
O O9 0.000000 0.105027 0.094885
O O10 0.000000 0.163641 0.000000
O O11 0.500000 0.072733 0.785105
O O12 0.273148 0.147012 0.774064
O O13 0.167384 0.061686 0.820161
O O14 0.171691 0.288634 0.500000
O O15 0.000000 0.284918 0.598198
O O16 0.500000 0.500000 0.610089
O O17 0.750000 0.250000 0.250000
O O18 0.000000 0.186757 0.273124
#
# Coordination Sequence:
#
# PCOD9519284 Si02
#       7
#    16  16   8  16  16   8  16
#     4   8  15  30  52  77 112 158 199 233 272 325
#     4  10  19  31  52  82 113 147 190 237 288 343
#     4  10  24  45  66  88 115 146 184 238 304 362
#     4  10  21  38  56  83 119 159 199 239 281 334
#     4  10  21  39  63  87 112 146 189 239 298 361
#     4  12  26  41  64  92 114 151 200 242 292 352
#     4  11  21  33  50  79 119 157 191 230 282 342
#
# _framework density 20.871981000000002
#
# number of rings (size 3 to 8) (size 9 to 14) (size 15 to 20)
#    0.000    2.000    1.667    3.500    2.333    1.833 
#    0.000    0.000    0.000    0.500    0.000    7.000 
#    0.000    0.000    0.000    0.000    0.000    0.000 
#
# Total GULP energy -268011.262739 kJ/mol
# GULP energy per Si atom -5583.567974 kJ/mol
# Density = 2.082448 g / cm^3
# Si number density = 20.871981 Si / 1000 Ang^3
#
#
#
# Elastic Constant Matrix: (Units=GPa)
#
#
# Indices 1 2 3 4 5 6 
#
# 1 130.5637 39.7369 14.1499 0.0000 0.0000 0.0000
# 2 39.7369 165.7315 6.4498 0.0000 0.0000 0.0000
# 3 14.1499 6.4498 15.9340 0.0000 0.0000 0.0000
# 4 0.0000 0.0000 0.0000 23.0903 0.0000 0.0000
# 5 0.0000 0.0000 0.0000 0.0000 7.2133 0.0000
# 6 0.0000 0.0000 0.0000 0.0000 0.0000 8.8597
#
#
#
# Elastic Compliance Matrix: (Units=1/GPa)
#
#
# Indices 1 2 3 4 5 6 
#
# 1 0.009017 -0.001880 -0.007246 0.000000 0.000000 0.000000
# 2 -0.001880 0.006522 -0.000971 0.000000 0.000000 0.000000
# 3 -0.007246 -0.000971 0.069587 0.000000 0.000000 0.000000
# 4 0.000000 0.000000 0.000000 0.043308 0.000000 0.000000
# 5 0.000000 0.000000 0.000000 0.000000 0.138633 0.000000
# 6 0.000000 0.000000 0.000000 0.000000 0.000000 0.112871
#
#
# Mechanical properties :
#
#
# Convention : Reuss Voigt Hill
#
# Bulk Modulus (GPa) = 15.40067 48.10027 31.75047
# Shear Modulus (GPa) = 11.85465 24.62549 18.24007
#
# Velocity S-wave (km/s) = 2.38580 3.43860 2.95939
# Velocity P-wave (km/s) = 3.87092 6.23383 5.18868
#
# Compressibility (1/GPa) = 0.06493223
#
# Stress axis : x y z
#
# Youngs Moduli (GPa) = 110.90743 153.31866 14.37056
#
# Poissons Ratio (x) = 0.28822 0.10413
# Poissons Ratio (y) = 0.20849 0.01395
# Poissons Ratio (z) = 0.80364 0.14884
#
# Static dielectric constant tensor:
#      x y z
#    x 1.797730 0.000000 0.000000 
#    y 0.000000 1.768140 0.000000 
#    z 0.000000 0.000000 1.758140 
# 
# From -- ./inp_files/63484.got.cif
#   From: 2010.05.17/outbox.cif.g08.bks.cpg/sg71_32_cif.got.tgz:63484.got - 2010.06.03 16:22:01.
