data_PCOD9519588
_publ_section_title
;
Structure prediction by ZEFSAII (Michael W. Deem and Ramdas Pophale) SiO2 
 PCOD9519588
Probable space group: I M M M
;
_chemical_formula_sum "Si O2"
_cell_formula_units_Z 88
_cell_length_a 7.466688
_cell_length_b 25.212778
_cell_length_c 20.625858
_cell_angle_alpha 90.000000
_cell_angle_beta 90.000000
_cell_angle_gamma 90.000000
_cell_volume 3882.940429
_symmetry_space_group_name_H-M "I M M M"
_symmetry_group_IT_number 71
_symmetry_cell_setting 'orthorhombic'
loop_
_space_group_symop_operation_xyz
x,y,z
-x,-y,z
x,-y,-z
-x,y,-z
-x,-y,-z
x,y,-z
-x,y,z
x,-y,z
1/2+x,1/2+y,1/2+z
1/2-x,1/2-y,1/2+z
1/2+x,1/2-y,1/2-z
1/2-x,1/2+y,1/2-z
1/2-x,1/2-y,1/2-z
1/2+x,1/2+y,1/2-z
1/2-x,1/2+y,1/2+z
1/2+x,1/2-y,1/2+z
loop_
_atom_site_type_symbol
_atom_site_label
_atom_site_fract_x
_atom_site_fract_y
_atom_site_fract_z
Si Si1 0.217336 0.558983 0.756183
Si Si2 0.281302 0.941871 0.893382
Si Si3 0.788343 0.754705 0.673379
Si Si4 0.287027 0.872021 0.627141
Si Si5 0.219345 0.437240 0.000000
Si Si6 0.218871 0.672664 0.569574
O O1 0.262723 0.500000 0.779462
O O2 0.273497 0.563998 0.681914
O O3 0.285287 0.601192 0.807224
O O4 0.000000 0.562609 0.753945
O O5 0.500000 0.942664 0.895796
O O6 0.222941 0.888378 0.927455
O O7 0.222651 0.000000 0.916684
O O8 0.750000 0.750000 0.750000
O O9 0.737789 0.809464 0.637664
O O10 0.715351 0.706030 0.630766
O O11 0.000000 0.751579 0.669062
O O12 0.500000 0.880941 0.626226
O O13 0.221416 0.903407 0.563395
O O14 0.272867 0.500000 0.000000
O O15 0.000000 0.437936 0.000000
O O16 0.269934 0.696421 0.500000
O O17 0.000000 0.671950 0.571919
#
# Coordination Sequence:
#
# PCOD9519588 Si02
#       6
#    16  16  16  16   8  16
#     4   8  13  23  43  71 101 134 172 214 260 309
#     4   8  13  22  39  65  95 125 159 203 255 306
#     4  11  23  38  57  78 105 143 187 233 281 338
#     4  10  19  32  53  79 109 145 186 231 276 329
#     4   9  18  32  53  85 121 155 192 237 290 348
#     4   9  18  31  47  70 102 137 169 206 259 322
#
# _framework density 22.663238
#
# number of rings (size 3 to 8) (size 9 to 14) (size 15 to 20)
#    0.000    2.818    0.000    3.273    1.273    5.455 
#    0.000    1.818    0.000    2.727    0.000    0.000 
#    0.000    2.182    0.000   12.364    0.000   11.636 
#
# Total GULP energy -245464.172293 kJ/mol
# GULP energy per Si atom -5578.731188 kJ/mol
# Density = 2.261166 g / cm^3
# Si number density = 22.663238 Si / 1000 Ang^3
#
#
#
# Elastic Constant Matrix: (Units=GPa)
#
#
# Indices 1 2 3 4 5 6 
#
# 1 61.3497 -7.1986 1.6324 0.0000 0.0000 0.0000
# 2 -7.1986 154.9004 91.0418 0.0000 0.0000 0.0000
# 3 1.6324 91.0418 148.1143 0.0000 0.0000 0.0000
# 4 0.0000 0.0000 0.0000 33.6640 0.0000 0.0000
# 5 0.0000 0.0000 0.0000 0.0000 -2.0006 0.0000
# 6 0.0000 0.0000 0.0000 0.0000 0.0000 8.9804
#
#
#
# Elastic Compliance Matrix: (Units=1/GPa)
#
#
# Indices 1 2 3 4 5 6 
#
# 1 0.016488 0.001367 -0.001022 0.000000 0.000000 0.000000
# 2 0.001367 0.010220 -0.006297 0.000000 0.000000 0.000000
# 3 -0.001022 -0.006297 0.010634 0.000000 0.000000 0.000000
# 4 0.000000 0.000000 0.000000 0.029705 0.000000 0.000000
# 5 0.000000 0.000000 0.000000 0.000000 -0.499847 0.000000
# 6 0.000000 0.000000 0.000000 0.000000 0.000000 0.111354
#
#
# Mechanical properties :
#
#
# Convention : Reuss Voigt Hill
#
# Bulk Modulus (GPa) = 39.31292 59.47949 49.39620
# Shear Modulus (GPa) = -16.60783 26.72134 5.05675
#
# Velocity S-wave (km/s) = -2.70998 3.43747 1.49536
# Velocity P-wave (km/s) = 2.75540 6.48512 4.98242
#
# Compressibility (1/GPa) = 0.02543693
#
# Stress axis : x y z
#
# Youngs Moduli (GPa) = 60.65176 97.84268 94.04159
#
# Poissons Ratio (x) = -0.13373 0.09610
# Poissons Ratio (y) = -0.08290 0.59221
# Poissons Ratio (z) = 0.06198 0.61615
#
# Static dielectric constant tensor:
#      x y z
#    x 1.902040 0.000000 0.000000 
#    y 0.000000 1.846980 0.000000 
#    z 0.000000 0.000000 1.840280 
# 
# From -- ./inp_files/50540.got.cif
#   From: 2010.05.17/outbox.cif.g08.bks.cpg/sg71_26_cif.got.tgz:50540.got - 2010.06.03 16:22:01.
