data_PCOD9519477
_publ_section_title
;
Structure prediction by ZEFSAII (Michael W. Deem and Ramdas Pophale) SiO2 
 PCOD9519477
Probable space group: I M M M
;
_chemical_formula_sum "Si O2"
_cell_formula_units_Z 68
_cell_length_a 17.151760
_cell_length_b 15.775766
_cell_length_c 12.365513
_cell_angle_alpha 90.000000
_cell_angle_beta 90.000000
_cell_angle_gamma 90.000000
_cell_volume 3345.887121
_symmetry_space_group_name_H-M "I M M M"
_symmetry_group_IT_number 71
_symmetry_cell_setting 'orthorhombic'
loop_
_space_group_symop_operation_xyz
x,y,z
-x,-y,z
x,-y,-z
-x,y,-z
-x,-y,-z
x,y,-z
-x,y,z
x,-y,z
1/2+x,1/2+y,1/2+z
1/2-x,1/2-y,1/2+z
1/2+x,1/2-y,1/2-z
1/2-x,1/2+y,1/2-z
1/2-x,1/2-y,1/2-z
1/2+x,1/2+y,1/2-z
1/2-x,1/2+y,1/2+z
1/2+x,1/2-y,1/2+z
loop_
_atom_site_type_symbol
_atom_site_label
_atom_site_fract_x
_atom_site_fract_y
_atom_site_fract_z
Si Si1 0.410290 0.359649 0.875399
Si Si2 0.865814 0.338003 0.376197
Si Si3 0.500000 0.867057 0.500000
Si Si4 0.681488 0.096843 0.500000
Si Si5 0.746539 0.401408 0.777165
Si Si6 0.000000 0.403289 0.773512
O O1 0.500000 0.377783 0.848244
O O2 0.395776 0.258511 0.874406
O O3 0.345484 0.396952 0.796742
O O4 0.396726 0.388341 0.000000
O O5 0.866842 0.367207 0.500000
O O6 0.781535 0.349080 0.321932
O O7 0.925062 0.389748 0.300831
O O8 0.411867 0.904081 0.500000
O O9 0.500000 0.837406 0.373953
O O10 0.714702 0.133685 0.388613
O O11 0.710124 0.000000 0.500000
O O12 0.769422 0.500000 0.763286
O O13 0.000000 0.500000 0.817423
#
# Coordination Sequence:
#
# PCOD9519477 Si02
#       6
#    16  16   4   8  16   8
#     4  10  21  39  62  87 120 157 197 249 304 360
#     4  11  23  39  58  84 120 163 200 237 294 358
#     4  12  21  34  56  86 122 154 185 240 313 356
#     4  10  19  32  51  82 115 147 185 231 299 350
#     4  11  22  37  60  87 119 154 196 252 300 355
#     4  12  22  34  57  87 119 154 195 245 296 358
#
# _framework density 20.323460000000001
#
# number of rings (size 3 to 8) (size 9 to 14) (size 15 to 20)
#    0.000    1.176    4.706    2.824    0.000    2.824 
#    0.000    1.176    0.000    0.706    0.000    1.647 
#    0.000    0.000    0.000    0.000    0.000    0.000 
#
# Total GULP energy -189720.311356 kJ/mol
# GULP energy per Si atom -5580.009158 kJ/mol
# Density = 2.027720 g / cm^3
# Si number density = 20.323460 Si / 1000 Ang^3
#
#
#
# Elastic Constant Matrix: (Units=GPa)
#
#
# Indices 1 2 3 4 5 6 
#
# 1 138.9343 8.2408 51.9893 0.0000 0.0000 0.0000
# 2 8.2408 27.8266 6.0597 0.0000 0.0000 0.0000
# 3 51.9893 6.0597 131.2271 0.0000 0.0000 0.0000
# 4 0.0000 0.0000 0.0000 13.7884 0.0000 0.0000
# 5 0.0000 0.0000 0.0000 0.0000 26.0037 0.0000
# 6 0.0000 0.0000 0.0000 0.0000 0.0000 24.4064
#
#
#
# Elastic Compliance Matrix: (Units=1/GPa)
#
#
# Indices 1 2 3 4 5 6 
#
# 1 0.008540 -0.001810 -0.003300 0.000000 0.000000 0.000000
# 2 -0.001810 0.036686 -0.000977 0.000000 0.000000 0.000000
# 3 -0.003300 -0.000977 0.008973 0.000000 0.000000 0.000000
# 4 0.000000 0.000000 0.000000 0.072525 0.000000 0.000000
# 5 0.000000 0.000000 0.000000 0.000000 0.038456 0.000000
# 6 0.000000 0.000000 0.000000 0.000000 0.000000 0.040973
#
#
# Mechanical properties :
#
#
# Convention : Reuss Voigt Hill
#
# Bulk Modulus (GPa) = 23.79570 47.84086 35.81828
# Shear Modulus (GPa) = 21.52075 28.28625 24.90350
#
# Velocity S-wave (km/s) = 3.25762 3.73473 3.50431
# Velocity P-wave (km/s) = 5.08757 6.49527 5.83403
#
# Compressibility (1/GPa) = 0.04202440
#
# Stress axis : x y z
#
# Youngs Moduli (GPa) = 117.09915 27.25856 111.44872
#
# Poissons Ratio (x) = 0.04935 0.36774
# Poissons Ratio (y) = 0.21201 0.10886
# Poissons Ratio (z) = 0.38639 0.02663
#
# Static dielectric constant tensor:
#      x y z
#    x 1.744420 0.000000 0.000000 
#    y 0.000000 1.732220 0.000000 
#    z 0.000000 0.000000 1.734930 
# 
# From -- ./inp_files/23516.got.cif
#   From: 2010.05.17/outbox.cif.g08.bks.cpg/sg71_12_cif.got.tgz:23516.got - 2010.06.03 16:22:01.
