data_PCOD9519136
_publ_section_title
;
Structure prediction by ZEFSAII (Michael W. Deem and Ramdas Pophale) SiO2 
 PCOD9519136
Probable space group: I M M M
;
_chemical_formula_sum "Si O2"
_cell_formula_units_Z 120
_cell_length_a 7.879032
_cell_length_b 29.633887
_cell_length_c 24.600491
_cell_angle_alpha 90.000000
_cell_angle_beta 90.000000
_cell_angle_gamma 90.000000
_cell_volume 5743.878703
_symmetry_space_group_name_H-M "I M M M"
_symmetry_group_IT_number 71
_symmetry_cell_setting 'orthorhombic'
loop_
_space_group_symop_operation_xyz
x,y,z
-x,-y,z
x,-y,-z
-x,y,-z
-x,-y,-z
x,y,-z
-x,y,z
x,-y,z
1/2+x,1/2+y,1/2+z
1/2-x,1/2-y,1/2+z
1/2+x,1/2-y,1/2-z
1/2-x,1/2+y,1/2-z
1/2-x,1/2-y,1/2-z
1/2+x,1/2+y,1/2-z
1/2-x,1/2+y,1/2+z
1/2+x,1/2-y,1/2+z
loop_
_atom_site_type_symbol
_atom_site_label
_atom_site_fract_x
_atom_site_fract_y
_atom_site_fract_z
Si Si1 0.302446 0.412959 0.126080
Si Si2 0.207608 0.224344 0.937701
Si Si3 0.291763 0.500000 0.061794
Si Si4 0.708336 0.649072 0.350388
Si Si5 0.193731 0.050108 0.851460
Si Si6 0.199038 0.682607 0.115062
Si Si7 0.807110 0.550387 0.766736
Si Si8 0.796425 0.197875 0.739243
O O1 0.500000 0.421089 0.136141
O O2 0.234270 0.454525 0.091309
O O3 0.279983 0.364768 0.098643
O O4 0.219039 0.414714 0.185399
O O5 0.259777 0.185565 0.895508
O O6 0.265494 0.272812 0.914822
O O7 0.000000 0.224703 0.936861
O O8 0.260324 0.217136 0.000000
O O9 0.500000 0.500000 0.062185
O O10 0.236292 0.500000 0.000000
O O11 0.500000 0.647529 0.349231
O O12 0.769726 0.598800 0.366491
O O13 0.761561 0.666933 0.290392
O O14 0.191800 0.054320 0.785819
O O15 0.000000 0.049014 0.871783
O O16 0.269109 0.000000 0.863315
O O17 0.224768 0.687302 0.179833
O O18 0.000000 0.679566 0.103609
O O19 0.778185 0.500000 0.790088
O O20 0.000000 0.552627 0.746694
O O21 0.750000 0.250000 0.750000
O O22 0.000000 0.193291 0.736386
#
# Coordination Sequence:
#
# PCOD9519136 Si02
#       8
#    16  16   8  16  16  16  16  16
#     4  11  21  35  55  76 100 136 175 216 269 328
#     4   9  18  34  55  76 101 138 182 224 269 321
#     4   9  20  38  57  75  97 133 183 231 276 331
#     4   9  17  31  51  76 105 139 179 215 256 318
#     4   9  17  29  49  77 109 141 173 211 255 310
#     4  11  22  36  54  81 110 139 179 228 276 326
#     4  10  19  31  49  74 106 139 173 213 256 309
#     4  11  20  33  54  81 112 145 180 222 271 328
#
# _framework density 20.891807
#
# number of rings (size 3 to 8) (size 9 to 14) (size 15 to 20)
#    0.000    2.067    2.000    2.400    0.000    2.133 
#    0.000    0.667    0.000    4.400    0.000    2.800 
#    0.000    0.000    0.000    3.333    0.000    3.467 
#
# Total GULP energy -334801.615005 kJ/mol
# GULP energy per Si atom -5580.026917 kJ/mol
# Density = 2.084426 g / cm^3
# Si number density = 20.891807 Si / 1000 Ang^3
#
#
#
# Elastic Constant Matrix: (Units=GPa)
#
#
# Indices 1 2 3 4 5 6 
#
# 1 29.1021 -10.1824 -8.0597 0.0000 0.0000 0.0000
# 2 -10.1824 157.4163 33.3799 0.0000 0.0000 0.0000
# 3 -8.0597 33.3799 77.0703 0.0000 0.0000 0.0000
# 4 0.0000 0.0000 0.0000 7.5948 0.0000 0.0000
# 5 0.0000 0.0000 0.0000 0.0000 5.3284 0.0000
# 6 0.0000 0.0000 0.0000 0.0000 0.0000 18.6357
#
#
#
# Elastic Compliance Matrix: (Units=1/GPa)
#
#
# Indices 1 2 3 4 5 6 
#
# 1 0.035783 0.001675 0.003017 0.000000 0.000000 0.000000
# 2 0.001675 0.007073 -0.002888 0.000000 0.000000 0.000000
# 3 0.003017 -0.002888 0.014542 0.000000 0.000000 0.000000
# 4 0.000000 0.000000 0.000000 0.131669 0.000000 0.000000
# 5 0.000000 0.000000 0.000000 0.000000 0.187675 0.000000
# 6 0.000000 0.000000 0.000000 0.000000 0.000000 0.053660
#
#
# Mechanical properties :
#
#
# Convention : Reuss Voigt Hill
#
# Bulk Modulus (GPa) = 16.39219 32.65158 24.52188
# Shear Modulus (GPa) = 11.18241 22.87517 17.02879
#
# Velocity S-wave (km/s) = 2.31606 3.31257 2.85808
# Velocity P-wave (km/s) = 3.87498 5.50397 4.75968
#
# Compressibility (1/GPa) = 0.06100467
#
# Stress axis : x y z
#
# Youngs Moduli (GPa) = 27.94602 141.37459 68.76806
#
# Poissons Ratio (x) = -0.23680 -0.20745
# Poissons Ratio (y) = -0.04681 0.19863
# Poissons Ratio (z) = -0.08430 0.40835
#
# Static dielectric constant tensor:
#      x y z
#    x 1.777780 0.000000 0.000000 
#    y 0.000000 1.807930 0.000000 
#    z 0.000000 0.000000 1.708860 
# 
# From -- ./inp_files/63788.got.cif
#   From: 2010.05.17/outbox.cif.g08.bks.cpg/sg71_32_cif.got.tgz:63788.got - 2010.06.03 16:22:01.
