data_PCOD9519266
_publ_section_title
;
Structure prediction by ZEFSAII (Michael W. Deem and Ramdas Pophale) SiO2 
 PCOD9519266
Probable space group: I M M M
;
_chemical_formula_sum "Si O2"
_cell_formula_units_Z 88
_cell_length_a 22.183952
_cell_length_b 15.231575
_cell_length_c 14.646981
_cell_angle_alpha 90.000000
_cell_angle_beta 90.000000
_cell_angle_gamma 90.000000
_cell_volume 4949.164036
_symmetry_space_group_name_H-M "I M M M"
_symmetry_group_IT_number 71
_symmetry_cell_setting 'orthorhombic'
loop_
_space_group_symop_operation_xyz
x,y,z
-x,-y,z
x,-y,-z
-x,y,-z
-x,-y,-z
x,y,-z
-x,y,z
x,-y,z
1/2+x,1/2+y,1/2+z
1/2-x,1/2-y,1/2+z
1/2+x,1/2-y,1/2-z
1/2-x,1/2+y,1/2-z
1/2-x,1/2-y,1/2-z
1/2+x,1/2+y,1/2-z
1/2-x,1/2+y,1/2+z
1/2+x,1/2-y,1/2+z
loop_
_atom_site_type_symbol
_atom_site_label
_atom_site_fract_x
_atom_site_fract_y
_atom_site_fract_z
Si Si1 0.000000 0.178981 0.898043
Si Si2 0.500000 0.397077 0.201394
Si Si3 0.807899 0.693652 0.276942
Si Si4 0.307560 0.000000 0.764016
Si Si5 0.433450 0.000000 0.329643
Si Si6 0.392270 0.181213 0.600501
Si Si7 0.877293 0.833666 0.608497
Si Si8 0.789682 0.000000 0.393279
O O1 0.000000 0.116685 0.810549
O O2 0.941746 0.242262 0.891840
O O3 0.000000 0.138464 0.000000
O O4 0.500000 0.500000 0.178618
O O5 0.440095 0.354194 0.158662
O O6 0.750000 0.750000 0.250000
O O7 0.793095 0.594201 0.308332
O O8 0.845976 0.686791 0.183334
O O9 0.846944 0.746970 0.350163
O O10 0.378897 0.000000 0.742636
O O11 0.268923 0.000000 0.670098
O O12 0.424886 0.087614 0.388481
O O13 0.500000 0.000000 0.287911
O O14 0.363583 0.186356 0.500000
O O15 0.886897 0.827483 0.500000
O O16 0.831044 0.914656 0.624826
O O17 0.772743 0.000000 0.500000
#
# Coordination Sequence:
#
# PCOD9519266 Si02
#       8
#     8   8  16   8   8  16  16   8
#     4  10  20  35  55  82 118 155 189 227 284 352
#     4  12  23  39  65  92 117 154 199 253 309 368
#     4  11  22  38  59  85 117 161 198 244 302 358
#     4  10  22  36  58  87 118 154 202 240 291 368
#     4  10  19  31  51  84 119 149 182 232 288 345
#     4  10  20  33  53  82 116 149 187 233 288 353
#     4  11  23  39  61  90 123 156 198 259 313 358
#     4  10  20  37  60  90 120 147 192 258 320 359
#
# _framework density 17.78078
#
# number of rings (size 3 to 8) (size 9 to 14) (size 15 to 20)
#    0.000    1.455    5.455    0.545    0.000    4.545 
#    0.000    0.455    0.000    0.000    0.000    1.273 
#    0.000    0.000    0.000    0.000    0.000    0.000 
#
# Total GULP energy -245542.092179 kJ/mol
# GULP energy per Si atom -5580.502095 kJ/mol
# Density = 1.774031 g / cm^3
# Si number density = 17.780780 Si / 1000 Ang^3
#
#
#
# Elastic Constant Matrix: (Units=GPa)
#
#
# Indices 1 2 3 4 5 6 
#
# 1 95.0162 36.1191 33.6593 0.0000 0.0000 0.0000
# 2 36.1191 121.8692 31.6513 0.0000 0.0000 0.0000
# 3 33.6593 31.6513 79.0322 0.0000 0.0000 0.0000
# 4 0.0000 0.0000 0.0000 19.9997 0.0000 0.0000
# 5 0.0000 0.0000 0.0000 0.0000 15.7979 0.0000
# 6 0.0000 0.0000 0.0000 0.0000 0.0000 24.0596
#
#
#
# Elastic Compliance Matrix: (Units=1/GPa)
#
#
# Indices 1 2 3 4 5 6 
#
# 1 0.013160 -0.002728 -0.004512 0.000000 0.000000 0.000000
# 2 -0.002728 0.009724 -0.002732 0.000000 0.000000 0.000000
# 3 -0.004512 -0.002732 0.015669 0.000000 0.000000 0.000000
# 4 0.000000 0.000000 0.000000 0.050001 0.000000 0.000000
# 5 0.000000 0.000000 0.000000 0.000000 0.063300 0.000000
# 6 0.000000 0.000000 0.000000 0.000000 0.000000 0.041563
#
#
# Mechanical properties :
#
#
# Convention : Reuss Voigt Hill
#
# Bulk Modulus (GPa) = 53.74234 55.41966 54.58100
# Shear Modulus (GPa) = 22.77237 24.93732 23.85484
#
# Velocity S-wave (km/s) = 3.58261 3.74904 3.66677
# Velocity P-wave (km/s) = 6.88506 7.06940 6.97784
#
# Compressibility (1/GPa) = 0.01860730
#
# Stress axis : x y z
#
# Youngs Moduli (GPa) = 75.98714 102.84080 63.82057
#
# Poissons Ratio (x) = 0.28060 0.28796
# Poissons Ratio (y) = 0.20733 0.17437
# Poissons Ratio (z) = 0.34286 0.28098
#
# Static dielectric constant tensor:
#      x y z
#    x 1.600790 0.000000 0.000000 
#    y 0.000000 1.629960 0.000000 
#    z 0.000000 0.000000 1.586930 
# 
# From -- ./inp_files/25734.got.cif
#   From: 2010.05.17/outbox.cif.g08.bks.cpg/sg71_13_cif.got.tgz:25734.got - 2010.06.03 16:22:01.
