data_PCOD9519067
_publ_section_title
;
Structure prediction by ZEFSAII (Michael W. Deem and Ramdas Pophale) SiO2 
 PCOD9519067
Probable space group: I M M M
;
_chemical_formula_sum "Si O2"
_cell_formula_units_Z 88
_cell_length_a 26.061170
_cell_length_b 21.075056
_cell_length_c 8.735481
_cell_angle_alpha 90.000000
_cell_angle_beta 90.000000
_cell_angle_gamma 90.000000
_cell_volume 4797.880976
_symmetry_space_group_name_H-M "I M M M"
_symmetry_group_IT_number 71
_symmetry_cell_setting 'orthorhombic'
loop_
_space_group_symop_operation_xyz
x,y,z
-x,-y,z
x,-y,-z
-x,y,-z
-x,-y,-z
x,y,-z
-x,y,z
x,-y,z
1/2+x,1/2+y,1/2+z
1/2-x,1/2-y,1/2+z
1/2+x,1/2-y,1/2-z
1/2-x,1/2+y,1/2-z
1/2-x,1/2-y,1/2-z
1/2+x,1/2+y,1/2-z
1/2-x,1/2+y,1/2+z
1/2+x,1/2-y,1/2+z
loop_
_atom_site_type_symbol
_atom_site_label
_atom_site_fract_x
_atom_site_fract_y
_atom_site_fract_z
Si Si1 0.705524 0.205758 0.316210
Si Si2 0.062611 0.000000 0.676833
Si Si3 0.438305 0.630919 0.326706
Si Si4 0.096281 0.258761 0.680902
Si Si5 0.831256 0.570035 0.813659
Si Si6 0.055963 0.614933 0.184856
O O1 0.707962 0.207094 0.500000
O O2 0.750000 0.250000 0.250000
O O3 0.651576 0.233017 0.258303
O O4 0.702474 0.131176 0.267127
O O5 0.080010 0.936294 0.761191
O O6 0.078341 0.000000 0.500000
O O7 0.000000 0.000000 0.679395
O O8 0.419730 0.641689 0.500000
O O9 0.500000 0.627907 0.331619
O O10 0.423505 0.689155 0.220119
O O11 0.099408 0.268701 0.500000
O O12 0.061099 0.313292 0.754967
O O13 0.814440 0.500000 0.762563
O O14 0.890950 0.581261 0.766004
O O15 0.831254 0.570168 0.000000
O O16 0.000000 0.588680 0.231838
O O17 0.056935 0.615222 0.000000
#
# Coordination Sequence:
#
# PCOD9519067 Si02
#       6
#    16   8  16  16  16  16
#     4  10  20  36  58  80 102 129 167 214 265 320
#     4   9  17  29  45  67  95 129 169 207 247 303
#     4  10  19  31  48  70  99 135 172 211 257 307
#     4  11  21  32  49  73 100 132 172 215 260 307
#     4   8  15  29  51  79 107 136 172 214 258 306
#     4   9  17  29  46  72 107 143 177 212 251 298
#
# _framework density 18.341429999999999
#
# number of rings (size 3 to 8) (size 9 to 14) (size 15 to 20)
#    0.000    2.455    0.000    4.636    0.000    5.091 
#    0.000    1.818    2.000   13.636    0.000    5.091 
#    0.000    0.000    0.000    0.000    0.000    0.000 
#
# Total GULP energy -245241.513301 kJ/mol
# GULP energy per Si atom -5573.670757 kJ/mol
# Density = 1.829968 g / cm^3
# Si number density = 18.341430 Si / 1000 Ang^3
#
#
#
# Elastic Constant Matrix: (Units=GPa)
#
#
# Indices 1 2 3 4 5 6 
#
# 1 63.3223 28.1350 14.2266 0.0000 0.0000 0.0000
# 2 28.1350 112.9017 -0.1862 0.0000 0.0000 0.0000
# 3 14.2266 -0.1862 28.2306 0.0000 0.0000 0.0000
# 4 0.0000 0.0000 0.0000 16.8356 0.0000 0.0000
# 5 0.0000 0.0000 0.0000 0.0000 21.4964 0.0000
# 6 0.0000 0.0000 0.0000 0.0000 0.0000 2.5078
#
#
#
# Elastic Compliance Matrix: (Units=1/GPa)
#
#
# Indices 1 2 3 4 5 6 
#
# 1 0.020369 -0.005093 -0.010298 0.000000 0.000000 0.000000
# 2 -0.005093 0.010131 0.002633 0.000000 0.000000 0.000000
# 3 -0.010298 0.002633 0.040630 0.000000 0.000000 0.000000
# 4 0.000000 0.000000 0.000000 0.059398 0.000000 0.000000
# 5 0.000000 0.000000 0.000000 0.000000 0.046519 0.000000
# 6 0.000000 0.000000 0.000000 0.000000 0.000000 0.398755
#
#
# Mechanical properties :
#
#
# Convention : Reuss Voigt Hill
#
# Bulk Modulus (GPa) = 21.92331 32.08948 27.00640
# Shear Modulus (GPa) = 8.11002 18.98658 13.54830
#
# Velocity S-wave (km/s) = 2.10506 3.22090 2.72080
# Velocity P-wave (km/s) = 4.22933 5.60053 4.96252
#
# Compressibility (1/GPa) = 0.04561354
#
# Stress axis : x y z
#
# Youngs Moduli (GPa) = 49.09469 98.70944 24.61255
#
# Poissons Ratio (x) = 0.50271 0.25347
# Poissons Ratio (y) = 0.25003 -0.06481
# Poissons Ratio (z) = 0.50559 -0.25994
#
# Static dielectric constant tensor:
#      x y z
#    x 1.613610 0.000000 0.000000 
#    y 0.000000 1.646890 0.000000 
#    z 0.000000 0.000000 1.625540 
# 
# From -- ./inp_files/12508.got.cif
#   From: 2010.05.17/outbox.cif.g08.bks.cpg/sg71_7_cif.got.tgz:12508.got - 2010.06.03 16:22:01.
