data_PCOD9519601
_publ_section_title
;
Structure prediction by ZEFSAII (Michael W. Deem and Ramdas Pophale) SiO2 
 PCOD9519601
Probable space group: I M M M
;
_chemical_formula_sum "Si O2"
_cell_formula_units_Z 90
_cell_length_a 24.676968
_cell_length_b 19.318738
_cell_length_c 10.138945
_cell_angle_alpha 90.000000
_cell_angle_beta 90.000000
_cell_angle_gamma 90.000000
_cell_volume 4833.517749
_symmetry_space_group_name_H-M "I M M M"
_symmetry_group_IT_number 71
_symmetry_cell_setting 'orthorhombic'
loop_
_space_group_symop_operation_xyz
x,y,z
-x,-y,z
x,-y,-z
-x,y,-z
-x,-y,-z
x,y,-z
-x,y,z
x,-y,z
1/2+x,1/2+y,1/2+z
1/2-x,1/2-y,1/2+z
1/2+x,1/2-y,1/2-z
1/2-x,1/2+y,1/2-z
1/2-x,1/2-y,1/2-z
1/2+x,1/2+y,1/2-z
1/2-x,1/2+y,1/2+z
1/2+x,1/2-y,1/2+z
loop_
_atom_site_type_symbol
_atom_site_label
_atom_site_fract_x
_atom_site_fract_y
_atom_site_fract_z
Si Si1 0.926932 0.500000 0.235003
Si Si2 0.440014 0.152196 0.649779
Si Si3 0.246741 0.859720 0.152131
Si Si4 0.063430 0.000000 0.340524
Si Si5 0.500000 0.000000 0.000000
Si Si6 0.644495 0.785179 0.849690
Si Si7 0.854540 0.875714 0.347061
Si Si8 0.185238 0.500000 0.647063
O O1 0.942258 0.569633 0.160855
O O2 0.953943 0.500000 0.380313
O O3 0.862501 0.500000 0.249836
O O4 0.428020 0.173176 0.500000
O O5 0.500000 0.179035 0.686402
O O6 0.394455 0.176348 0.749893
O O7 0.292421 0.801303 0.183695
O O8 0.196898 0.871622 0.250261
O O9 0.279371 0.931478 0.158013
O O10 0.228615 0.847757 0.000000
O O11 0.099493 0.068371 0.305531
O O12 0.060295 0.000000 0.500000
O O13 0.000000 0.000000 0.293770
O O14 0.628040 0.704683 0.847703
O O15 0.637568 0.811175 0.000000
O O16 0.839442 0.892807 0.500000
O O17 0.161865 0.500000 0.500000
#
# Coordination Sequence:
#
# PCOD9519601 Si02
#       8
#     8  16  16   8   2  16  16   8
#     4  12  21  36  55  81 113 149 206 240 282 326
#     4  11  24  39  55  80 118 158 196 244 296 343
#     4  10  20  35  56  82 117 157 188 234 290 344
#     4   9  19  38  64  87 117 148 183 241 311 357
#     4  12  24  28  66  88 100 168 202 262 286 316
#     4  10  22  37  58  84 115 153 201 244 286 350
#     4  10  21  38  60  90 115 145 192 241 291 360
#     4  10  19  32  53  80 115 148 191 235 271 326
#
# _framework density 18.619980999999999
#
# number of rings (size 3 to 8) (size 9 to 14) (size 15 to 20)
#    0.000    1.689    3.111    1.333    1.244    3.200 
#    0.000    1.778    0.000    1.067    0.000    0.000 
#    0.000    0.000    0.000    0.000    0.000    0.000 
#
# Total GULP energy -250519.488904 kJ/mol
# GULP energy per Si atom -5567.099753 kJ/mol
# Density = 1.857760 g / cm^3
# Si number density = 18.619981 Si / 1000 Ang^3
#
#
#
# Elastic Constant Matrix: (Units=GPa)
#
#
# Indices 1 2 3 4 5 6 
#
# 1 136.3026 43.9125 81.2717 0.0000 0.0000 0.0000
# 2 43.9125 92.9844 21.2912 0.0000 0.0000 0.0000
# 3 81.2717 21.2912 82.9746 0.0000 0.0000 0.0000
# 4 0.0000 0.0000 0.0000 9.2746 0.0000 0.0000
# 5 0.0000 0.0000 0.0000 0.0000 30.8896 0.0000
# 6 0.0000 0.0000 0.0000 0.0000 0.0000 21.8103
#
#
#
# Elastic Compliance Matrix: (Units=1/GPa)
#
#
# Indices 1 2 3 4 5 6 
#
# 1 0.019753 -0.005204 -0.018013 0.000000 0.000000 0.000000
# 2 -0.005204 0.012797 0.001814 0.000000 0.000000 0.000000
# 3 -0.018013 0.001814 0.029229 0.000000 0.000000 0.000000
# 4 0.000000 0.000000 0.000000 0.107822 0.000000 0.000000
# 5 0.000000 0.000000 0.000000 0.000000 0.032373 0.000000
# 6 0.000000 0.000000 0.000000 0.000000 0.000000 0.045850
#
#
# Mechanical properties :
#
#
# Convention : Reuss Voigt Hill
#
# Bulk Modulus (GPa) = 52.70497 67.24585 59.97541
# Shear Modulus (GPa) = 16.83752 23.44731 20.14242
#
# Velocity S-wave (km/s) = 3.01037 3.55245 3.29259
# Velocity P-wave (km/s) = 6.36005 7.28147 6.83630
#
# Compressibility (1/GPa) = 0.01897354
#
# Stress axis : x y z
#
# Youngs Moduli (GPa) = 50.62396 78.14373 34.21206
#
# Poissons Ratio (x) = 0.40668 0.61625
# Poissons Ratio (y) = 0.26346 -0.06205
# Poissons Ratio (z) = 0.91187 -0.14173
#
# Static dielectric constant tensor:
#      x y z
#    x 1.647710 0.000000 0.000000 
#    y 0.000000 1.670460 0.000000 
#    z 0.000000 0.000000 1.639480 
# 
# From -- ./inp_files/12676.got.cif
#   From: 2010.05.17/outbox.cif.g08.bks.cpg/sg71_7_cif.got.tgz:12676.got - 2010.06.03 16:22:01.
