data_PCOD9519571
_publ_section_title
;
Structure prediction by ZEFSAII (Michael W. Deem and Ramdas Pophale) SiO2 
 PCOD9519571
Probable space group: I M M M
;
_chemical_formula_sum "Si O2"
_cell_formula_units_Z 90
_cell_length_a 26.908277
_cell_length_b 7.812991
_cell_length_c 24.857705
_cell_angle_alpha 90.000000
_cell_angle_beta 90.000000
_cell_angle_gamma 90.000000
_cell_volume 5225.937886
_symmetry_space_group_name_H-M "I M M M"
_symmetry_group_IT_number 71
_symmetry_cell_setting 'orthorhombic'
loop_
_space_group_symop_operation_xyz
x,y,z
-x,-y,z
x,-y,-z
-x,y,-z
-x,-y,-z
x,y,-z
-x,y,z
x,-y,z
1/2+x,1/2+y,1/2+z
1/2-x,1/2-y,1/2+z
1/2+x,1/2-y,1/2-z
1/2-x,1/2+y,1/2-z
1/2-x,1/2-y,1/2-z
1/2+x,1/2+y,1/2-z
1/2-x,1/2+y,1/2+z
1/2+x,1/2-y,1/2+z
loop_
_atom_site_type_symbol
_atom_site_label
_atom_site_fract_x
_atom_site_fract_y
_atom_site_fract_z
Si Si1 0.443601 0.204738 0.500000
Si Si2 0.800317 0.000000 0.564128
Si Si3 0.000000 0.000000 0.500000
Si Si4 0.272442 0.701403 0.565107
Si Si5 0.120024 0.795634 0.104394
Si Si6 0.057593 0.792252 0.794131
Si Si7 0.584918 0.500000 0.904826
Si Si8 0.940004 0.309103 0.326326
O O1 0.500000 0.271564 0.500000
O O2 0.414260 0.260687 0.447056
O O3 0.445297 0.000000 0.500000
O O4 0.771466 0.171347 0.582505
O O5 0.858297 0.000000 0.576301
O O6 0.795251 0.000000 0.500000
O O7 0.044140 0.000000 0.547519
O O8 0.278612 0.711119 0.500000
O O9 0.263540 0.500000 0.577543
O O10 0.324113 0.762516 0.591655
O O11 0.092898 0.729815 0.157922
O O12 0.123653 0.000000 0.110183
O O13 0.074002 0.730117 0.735354
O O14 0.000000 0.739470 0.803246
O O15 0.057896 0.000000 0.793404
O O16 0.577425 0.334098 0.867408
O O17 0.923732 0.500000 0.341572
O O18 0.000000 0.304195 0.327072
#
# Coordination Sequence:
#
# PCOD9519571 Si02
#       8
#     8   8   2  16  16  16   8  16
#     4  11  23  31  40  69 115 156 188 243 313 354
#     4  10  22  36  60  86 110 150 182 228 285 342
#     4  12  24  40  70  96 128 158 156 234 276 348
#     4   9  18  34  54  80 109 145 199 240 283 339
#     4  10  19  32  53  77 105 150 200 249 297 339
#     4   9  17  31  53  82 111 148 200 245 281 337
#     4  12  22  42  64  92 126 145 183 215 286 351
#     4  10  20  36  60  86 117 158 189 222 271 334
#
# _framework density 17.221788
#
# number of rings (size 3 to 8) (size 9 to 14) (size 15 to 20)
#    0.000    2.044    3.111    0.800    1.244    2.844 
#    0.000    2.667    0.000    1.067    0.000    0.000 
#    0.000    0.000    0.000    0.000    0.000    0.000 
#
# Total GULP energy -250702.098952 kJ/mol
# GULP energy per Si atom -5571.157754 kJ/mol
# Density = 1.718259 g / cm^3
# Si number density = 17.221788 Si / 1000 Ang^3
#
#
#
# Elastic Constant Matrix: (Units=GPa)
#
#
# Indices 1 2 3 4 5 6 
#
# 1 135.7549 50.5657 55.6338 0.0000 0.0000 0.0000
# 2 50.5657 79.3417 45.0211 0.0000 0.0000 0.0000
# 3 55.6338 45.0211 97.1684 0.0000 0.0000 0.0000
# 4 0.0000 0.0000 0.0000 -36.0411 0.0000 0.0000
# 5 0.0000 0.0000 0.0000 0.0000 23.2332 0.0000
# 6 0.0000 0.0000 0.0000 0.0000 0.0000 19.0477
#
#
#
# Elastic Compliance Matrix: (Units=1/GPa)
#
#
# Indices 1 2 3 4 5 6 
#
# 1 0.010707 -0.004538 -0.004028 0.000000 0.000000 0.000000
# 2 -0.004538 0.019023 -0.006215 0.000000 0.000000 0.000000
# 3 -0.004028 -0.006215 0.015477 0.000000 0.000000 0.000000
# 4 0.000000 0.000000 0.000000 -0.027746 0.000000 0.000000
# 5 0.000000 0.000000 0.000000 0.000000 0.043042 0.000000
# 6 0.000000 0.000000 0.000000 0.000000 0.000000 0.052500
#
#
# Mechanical properties :
#
#
# Convention : Reuss Voigt Hill
#
# Bulk Modulus (GPa) = 63.92062 68.30068 66.11065
# Shear Modulus (GPa) = 33.83388 11.98426 22.90907
#
# Velocity S-wave (km/s) = 4.43719 2.64081 3.65120
# Velocity P-wave (km/s) = 7.96544 7.00315 7.49974
#
# Compressibility (1/GPa) = 0.01564440
#
# Stress axis : x y z
#
# Youngs Moduli (GPa) = 93.39449 52.56796 64.61105
#
# Poissons Ratio (x) = 0.23858 0.26023
# Poissons Ratio (y) = 0.42387 0.40159
# Poissons Ratio (z) = 0.37616 0.32673
#
# Static dielectric constant tensor:
#      x y z
#    x 1.573270 0.000000 0.000000 
#    y 0.000000 1.613990 0.000000 
#    z 0.000000 0.000000 1.562260 
# 
# From -- ./inp_files/55650.got.cif
#   From: 2010.05.17/outbox.cif.g08.bks.cpg/sg71_28_cif.got.tgz:55650.got - 2010.06.03 16:22:01.
