data_PCOD9519183
_publ_section_title
;
Structure prediction by ZEFSAII (Michael W. Deem and Ramdas Pophale) SiO2 
 PCOD9519183
Probable space group: I M M M
;
_chemical_formula_sum "Si O2"
_cell_formula_units_Z 72
_cell_length_a 19.011867
_cell_length_b 21.392824
_cell_length_c 9.819475
_cell_angle_alpha 90.000000
_cell_angle_beta 90.000000
_cell_angle_gamma 90.000000
_cell_volume 3993.752565
_symmetry_space_group_name_H-M "I M M M"
_symmetry_group_IT_number 71
_symmetry_cell_setting 'orthorhombic'
loop_
_space_group_symop_operation_xyz
x,y,z
-x,-y,z
x,-y,-z
-x,y,-z
-x,-y,-z
x,y,-z
-x,y,z
x,-y,z
1/2+x,1/2+y,1/2+z
1/2-x,1/2-y,1/2+z
1/2+x,1/2-y,1/2-z
1/2-x,1/2+y,1/2-z
1/2-x,1/2-y,1/2-z
1/2+x,1/2+y,1/2-z
1/2-x,1/2+y,1/2+z
1/2+x,1/2-y,1/2+z
loop_
_atom_site_type_symbol
_atom_site_label
_atom_site_fract_x
_atom_site_fract_y
_atom_site_fract_z
Si Si1 0.083886 0.570971 0.000000
Si Si2 0.581633 0.119338 0.207016
Si Si3 0.773496 0.567024 0.345934
Si Si4 0.292866 0.302460 0.333916
Si Si5 0.582659 0.266644 0.846133
O O1 0.098736 0.610360 0.133781
O O2 0.113706 0.500000 0.000000
O O3 0.000000 0.563296 0.000000
O O4 0.500000 0.100887 0.181751
O O5 0.642633 0.077577 0.144478
O O6 0.589416 0.191143 0.163913
O O7 0.746139 0.563617 0.500000
O O8 0.759603 0.500000 0.277608
O O9 0.739661 0.630527 0.291627
O O10 0.288497 0.295056 0.500000
O O11 0.250000 0.250000 0.250000
O O12 0.371124 0.296222 0.273212
O O13 0.500000 0.280816 0.831937
O O14 0.605537 0.284575 0.000000
#
# Coordination Sequence:
#
# PCOD9519183 Si02
#       5
#     8  16  16  16  16
#     4   9  18  30  42  64 104 148 186 226 266 309
#     4  10  19  31  50  75 109 150 188 224 270 328
#     4  10  21  36  53  76 108 145 184 227 275 329
#     4  11  22  37  59  84 114 151 191 235 282 336
#     4  10  21  37  58  84 114 145 184 237 289 337
#
# _framework density 18.028158000000001
#
# number of rings (size 3 to 8) (size 9 to 14) (size 15 to 20)
#    0.000    1.889    2.222    2.000    1.556    3.111 
#    2.000    1.111    0.000    0.667    0.000    4.667 
#    0.000    0.000    0.000    0.000    0.000    0.000 
#
# Total GULP energy -200490.229778 kJ/mol
# GULP energy per Si atom -5569.173049 kJ/mol
# Density = 1.798713 g / cm^3
# Si number density = 18.028158 Si / 1000 Ang^3
#
#
#
# Elastic Constant Matrix: (Units=GPa)
#
#
# Indices 1 2 3 4 5 6 
#
# 1 65.4451 41.5702 30.6809 0.0000 0.0000 0.0000
# 2 41.5702 119.1962 31.4447 0.0000 0.0000 0.0000
# 3 30.6809 31.4447 106.2404 0.0000 0.0000 0.0000
# 4 0.0000 0.0000 0.0000 9.2226 0.0000 0.0000
# 5 0.0000 0.0000 0.0000 0.0000 23.7527 0.0000
# 6 0.0000 0.0000 0.0000 0.0000 0.0000 8.5735
#
#
#
# Elastic Compliance Matrix: (Units=1/GPa)
#
#
# Indices 1 2 3 4 5 6 
#
# 1 0.021286 -0.006293 -0.004284 0.000000 0.000000 0.000000
# 2 -0.006293 0.010961 -0.001427 0.000000 0.000000 0.000000
# 3 -0.004284 -0.001427 0.011072 0.000000 0.000000 0.000000
# 4 0.000000 0.000000 0.000000 0.108430 0.000000 0.000000
# 5 0.000000 0.000000 0.000000 0.000000 0.042101 0.000000
# 6 0.000000 0.000000 0.000000 0.000000 0.000000 0.116638
#
#
# Mechanical properties :
#
#
# Convention : Reuss Voigt Hill
#
# Bulk Modulus (GPa) = 51.78670 55.36372 53.57521
# Shear Modulus (GPa) = 14.66566 20.78882 17.72724
#
# Velocity S-wave (km/s) = 2.85526 3.39946 3.13918
# Velocity P-wave (km/s) = 6.29745 6.79593 6.55143
#
# Compressibility (1/GPa) = 0.01930998
#
# Stress axis : x y z
#
# Youngs Moduli (GPa) = 46.97915 91.23481 90.31649
#
# Poissons Ratio (x) = 0.57417 0.38696
# Poissons Ratio (y) = 0.29566 0.12885
# Poissons Ratio (z) = 0.20128 0.13016
#
# Static dielectric constant tensor:
#      x y z
#    x 1.645480 0.000000 0.000000 
#    y 0.000000 1.642100 0.000000 
#    z 0.000000 0.000000 1.771560 
# 
# From -- ./inp_files/9931.got.cif
#   From: 2010.05.17/outbox.cif.g08.bks.cpg/sg71_5_cif.got.tgz:9931.got - 2010.06.03 16:22:01.
