data_PCOD9519068
_publ_section_title
;
Structure prediction by ZEFSAII (Michael W. Deem and Ramdas Pophale) SiO2 
 PCOD9519068
Probable space group: I M M M
;
_chemical_formula_sum "Si O2"
_cell_formula_units_Z 56
_cell_length_a 5.398312
_cell_length_b 19.161616
_cell_length_c 23.499699
_cell_angle_alpha 90.000000
_cell_angle_beta 90.000000
_cell_angle_gamma 90.000000
_cell_volume 2430.817832
_symmetry_space_group_name_H-M "I M M M"
_symmetry_group_IT_number 71
_symmetry_cell_setting 'orthorhombic'
loop_
_space_group_symop_operation_xyz
x,y,z
-x,-y,z
x,-y,-z
-x,y,-z
-x,-y,-z
x,y,-z
-x,y,z
x,-y,z
1/2+x,1/2+y,1/2+z
1/2-x,1/2-y,1/2+z
1/2+x,1/2-y,1/2-z
1/2-x,1/2+y,1/2-z
1/2-x,1/2-y,1/2-z
1/2+x,1/2+y,1/2-z
1/2-x,1/2+y,1/2+z
1/2+x,1/2-y,1/2+z
loop_
_atom_site_type_symbol
_atom_site_label
_atom_site_fract_x
_atom_site_fract_y
_atom_site_fract_z
Si Si1 0.500000 0.763405 0.714311
Si Si2 0.000000 0.579908 0.930693
Si Si3 0.500000 0.391226 0.313159
Si Si4 0.000000 0.419019 0.759237
Si Si5 0.500000 0.346483 0.069839
Si Si6 0.500000 0.607456 0.565032
Si Si7 0.000000 0.304637 0.564897
O O1 0.750000 0.750000 0.750000
O O2 0.500000 0.693551 0.674976
O O3 0.500000 0.847382 0.702263
O O4 0.250605 0.616290 0.911607
O O5 0.000000 0.500000 0.914294
O O6 0.000000 0.583112 0.000000
O O7 0.749180 0.410370 0.278585
O O8 0.500000 0.428867 0.374062
O O9 0.000000 0.500000 0.781341
O O10 0.500000 0.268878 0.096330
O O11 0.500000 0.352133 0.000000
O O12 0.500000 0.577771 0.500000
O O13 0.246827 0.651255 0.569574
O O14 0.000000 0.280355 0.500000
#
# Coordination Sequence:
#
# PCOD9519068 Si02
#       7
#     8   8   8   8   8   8   8
#     4   8  16  30  50  78 110 140 171 216 274 331
#     4   9  15  21  30  46  66  89 119 160 222 299
#     4  10  19  33  53  79 113 148 182 227 275 321
#     4  10  19  33  55  83 113 144 179 219 275 344
#     4   9  15  23  34  48  70  96 129 183 242 292
#     4  10  19  31  48  70  99 138 184 228 266 312
#     4   9  17  28  42  62  86 116 161 217 268 304
#
# _framework density 23.037514000000002
#
# number of rings (size 3 to 8) (size 9 to 14) (size 15 to 20)
#    0.000    2.714    0.000    2.571    0.000    5.143 
#    0.000    0.000    0.000    2.571    0.000    6.000 
#    0.000    7.429    0.000    0.000    0.000    5.143 
#
# Total GULP energy -155904.622444 kJ/mol
# GULP energy per Si atom -5568.022230 kJ/mol
# Density = 2.298508 g / cm^3
# Si number density = 23.037514 Si / 1000 Ang^3
#
#
#
# Elastic Constant Matrix: (Units=GPa)
#
#
# Indices 1 2 3 4 5 6 
#
# 1 225.3321 66.0448 31.4424 0.0000 0.0000 0.0000
# 2 66.0448 209.4938 24.6254 0.0000 0.0000 0.0000
# 3 31.4424 24.6254 91.9916 0.0000 0.0000 0.0000
# 4 0.0000 0.0000 0.0000 -12.1513 0.0000 0.0000
# 5 0.0000 0.0000 0.0000 0.0000 31.4536 0.0000
# 6 0.0000 0.0000 0.0000 0.0000 0.0000 7.3535
#
#
#
# Elastic Compliance Matrix: (Units=1/GPa)
#
#
# Indices 1 2 3 4 5 6 
#
# 1 0.005045 -0.001433 -0.001341 0.000000 0.000000 0.000000
# 2 -0.001433 0.005335 -0.000939 0.000000 0.000000 0.000000
# 3 -0.001341 -0.000939 0.011580 0.000000 0.000000 0.000000
# 4 0.000000 0.000000 0.000000 -0.082296 0.000000 0.000000
# 5 0.000000 0.000000 0.000000 0.000000 0.031793 0.000000
# 6 0.000000 0.000000 0.000000 0.000000 0.000000 0.135989
#
#
# Mechanical properties :
#
#
# Convention : Reuss Voigt Hill
#
# Bulk Modulus (GPa) = 68.79393 85.67139 77.23266
# Shear Modulus (GPa) = 41.76550 32.31150 37.03850
#
# Velocity S-wave (km/s) = 4.26248 3.74914 4.01402
# Velocity P-wave (km/s) = 7.35877 7.48398 7.42164
#
# Compressibility (1/GPa) = 0.01453617
#
# Stress axis : x y z
#
# Youngs Moduli (GPa) = 198.21774 187.42551 86.35531
#
# Poissons Ratio (x) = 0.26856 0.11578
# Poissons Ratio (y) = 0.28402 0.08105
# Poissons Ratio (z) = 0.26577 0.17590
#
# Static dielectric constant tensor:
#      x y z
#    x 1.758680 0.000000 0.000000 
#    y 0.000000 1.844130 0.000000 
#    z 0.000000 0.000000 1.877300 
# 
# From -- ./inp_files/41347.got.cif
#   From: 2010.05.17/outbox.cif.g08.bks.cpg/sg71_21_cif.got.tgz:41347.got - 2010.06.03 16:22:01.
