data_PCOD9519369
_publ_section_title
;
Structure prediction by ZEFSAII (Michael W. Deem and Ramdas Pophale) SiO2 
 PCOD9519369
Probable space group: I M M M
;
_chemical_formula_sum "Si O2"
_cell_formula_units_Z 120
_cell_length_a 28.229106
_cell_length_b 7.868644
_cell_length_c 27.576261
_cell_angle_alpha 90.000000
_cell_angle_beta 90.000000
_cell_angle_gamma 90.000000
_cell_volume 6125.371061
_symmetry_space_group_name_H-M "I M M M"
_symmetry_group_IT_number 71
_symmetry_cell_setting 'orthorhombic'
loop_
_space_group_symop_operation_xyz
x,y,z
-x,-y,z
x,-y,-z
-x,y,-z
-x,-y,-z
x,y,-z
-x,y,z
x,-y,z
1/2+x,1/2+y,1/2+z
1/2-x,1/2-y,1/2+z
1/2+x,1/2-y,1/2-z
1/2-x,1/2+y,1/2-z
1/2-x,1/2-y,1/2-z
1/2+x,1/2+y,1/2-z
1/2-x,1/2+y,1/2+z
1/2+x,1/2-y,1/2+z
loop_
_atom_site_type_symbol
_atom_site_label
_atom_site_fract_x
_atom_site_fract_y
_atom_site_fract_z
Si Si1 0.946381 0.295219 0.211388
Si Si2 0.442577 0.795515 0.500000
Si Si3 0.203109 0.702631 0.448565
Si Si4 0.315896 0.803873 0.660216
Si Si5 0.290276 0.197300 0.154765
Si Si6 0.442361 0.799732 0.605001
Si Si7 0.144389 0.807990 0.261059
Si Si8 0.685313 0.794205 0.446948
O O1 0.947708 0.500000 0.207720
O O2 0.929491 0.231021 0.158066
O O3 0.909472 0.247445 0.252530
O O4 0.000000 0.235579 0.219836
O O5 0.500000 0.778602 0.500000
O O6 0.426775 0.727836 0.552718
O O7 0.567041 0.000000 0.500000
O O8 0.185176 0.774847 0.500000
O O9 0.195693 0.500000 0.450383
O O10 0.186109 0.759907 0.395629
O O11 0.259573 0.739077 0.447659
O O12 0.258742 0.796444 0.661697
O O13 0.333139 0.708138 0.707617
O O14 0.331946 0.740272 0.606687
O O15 0.331403 0.000000 0.665227
O O16 0.324816 0.206827 0.200236
O O17 0.276245 0.000000 0.148009
O O18 0.500000 0.793467 0.605178
O O19 0.429388 0.000000 0.603835
O O20 0.146350 0.000000 0.277885
O O21 0.665651 0.740478 0.500000
O O22 0.683201 0.000000 0.446132
#
# Coordination Sequence:
#
# PCOD9519369 Si02
#       8
#    16   8  16  16  16  16  16  16
#     4   9  18  34  54  72  90 116 153 198 248 296
#     4   7   8  12  28  58  89 107 123 159 217 279
#     4   8  14  25  43  68  96 125 155 186 224 273
#     4  10  19  32  50  71  98 129 163 202 244 288
#     4  10  19  32  50  73 102 132 162 195 234 280
#     4   7  10  18  36  62  87 107 130 168 221 279
#     4  12  24  35  48  67  95 129 167 203 239 285
#     4   8  14  25  43  66  90 119 156 198 240 281
#
# _framework density 19.590648999999999
#
# number of rings (size 3 to 8) (size 9 to 14) (size 15 to 20)
#    0.000    3.000    0.000    4.000    0.000    1.333 
#    0.000    0.000    1.467    0.000    0.000    0.000 
#    0.000    3.200    0.000    6.133    0.000    1.733 
#
# Total GULP energy -334440.623147 kJ/mol
# GULP energy per Si atom -5574.010386 kJ/mol
# Density = 1.954606 g / cm^3
# Si number density = 19.590649 Si / 1000 Ang^3
#
#
#
# Elastic Constant Matrix: (Units=GPa)
#
#
# Indices 1 2 3 4 5 6 
#
# 1 57.7887 -0.9898 43.5793 0.0000 0.0000 0.0000
# 2 -0.9898 29.2812 -1.2433 0.0000 0.0000 0.0000
# 3 43.5793 -1.2433 122.1382 0.0000 0.0000 0.0000
# 4 0.0000 0.0000 0.0000 5.7336 0.0000 0.0000
# 5 0.0000 0.0000 0.0000 0.0000 33.7849 0.0000
# 6 0.0000 0.0000 0.0000 0.0000 0.0000 8.9089
#
#
#
# Elastic Compliance Matrix: (Units=1/GPa)
#
#
# Indices 1 2 3 4 5 6 
#
# 1 0.023680 0.000442 -0.008445 0.000000 0.000000 0.000000
# 2 0.000442 0.034175 0.000190 0.000000 0.000000 0.000000
# 3 -0.008445 0.000190 0.011202 0.000000 0.000000 0.000000
# 4 0.000000 0.000000 0.000000 0.174409 0.000000 0.000000
# 5 0.000000 0.000000 0.000000 0.000000 0.029599 0.000000
# 6 0.000000 0.000000 0.000000 0.000000 0.000000 0.112247
#
#
# Mechanical properties :
#
#
# Convention : Reuss Voigt Hill
#
# Bulk Modulus (GPa) = 18.71529 32.43338 25.57434
# Shear Modulus (GPa) = 11.94033 20.87628 16.40831
#
# Velocity S-wave (km/s) = 2.47147 3.26793 2.89720
# Velocity P-wave (km/s) = 4.20929 5.55254 4.92690
#
# Compressibility (1/GPa) = 0.05343224
#
# Stress axis : x y z
#
# Youngs Moduli (GPa) = 42.22922 29.26144 89.26591
#
# Poissons Ratio (x) = -0.01293 0.75382
# Poissons Ratio (y) = -0.01866 -0.01698
# Poissons Ratio (z) = 0.35661 -0.00557
#
# Static dielectric constant tensor:
#      x y z
#    x 1.703320 0.000000 0.000000 
#    y 0.000000 1.706180 0.000000 
#    z 0.000000 0.000000 1.754320 
# 
# From -- ./inp_files/67174.got.cif
#   From: 2010.05.17/outbox.cif.g08.bks.cpg/sg71_34_cif.got.tgz:67174.got - 2010.06.03 16:22:01.
