data_PCOD9519594
_publ_section_title
;
Structure prediction by ZEFSAII (Michael W. Deem and Ramdas Pophale) SiO2 
 PCOD9519594
Probable space group: I M M M
;
_chemical_formula_sum "Si O2"
_cell_formula_units_Z 96
_cell_length_a 7.969075
_cell_length_b 24.387924
_cell_length_c 26.295765
_cell_angle_alpha 90.000000
_cell_angle_beta 90.000000
_cell_angle_gamma 90.000000
_cell_volume 5110.560772
_symmetry_space_group_name_H-M "I M M M"
_symmetry_group_IT_number 71
_symmetry_cell_setting 'orthorhombic'
loop_
_space_group_symop_operation_xyz
x,y,z
-x,-y,z
x,-y,-z
-x,y,-z
-x,-y,-z
x,y,-z
-x,y,z
x,-y,z
1/2+x,1/2+y,1/2+z
1/2-x,1/2-y,1/2+z
1/2+x,1/2-y,1/2-z
1/2-x,1/2+y,1/2-z
1/2-x,1/2-y,1/2-z
1/2+x,1/2+y,1/2-z
1/2-x,1/2+y,1/2+z
1/2+x,1/2-y,1/2+z
loop_
_atom_site_type_symbol
_atom_site_label
_atom_site_fract_x
_atom_site_fract_y
_atom_site_fract_z
Si Si1 0.201553 0.133598 0.403761
Si Si2 0.202392 0.131514 0.901672
Si Si3 0.202340 0.749034 0.441225
Si Si4 0.797688 0.062537 0.193756
Si Si5 0.300180 0.062111 0.691287
Si Si6 0.794696 0.063113 0.000000
Si Si7 0.294483 0.437247 0.000000
O O1 0.263186 0.195323 0.414100
O O2 0.243403 0.105503 0.350529
O O3 0.261550 0.094866 0.449783
O O4 0.000000 0.135512 0.407422
O O5 0.250098 0.194107 0.911670
O O6 0.263759 0.104239 0.849336
O O7 0.000000 0.128716 0.901272
O O8 0.260829 0.095347 0.949732
O O9 0.262623 0.746660 0.500000
O O10 0.000000 0.751392 0.443316
O O11 0.750283 0.077114 0.251310
O O12 0.000000 0.061494 0.191037
O O13 0.738291 0.000000 0.184003
O O14 0.500000 0.059404 0.689184
O O15 0.233427 0.000000 0.680952
O O16 0.000000 0.063171 0.000000
O O17 0.741039 0.000000 0.000000
O O18 0.239016 0.500000 0.000000
O O19 0.500000 0.437258 0.000000
#
# Coordination Sequence:
#
# PCOD9519594 Si02
#       7
#    16  16  16  16  16   8   8
#     4  10  19  34  55  78 103 137 181 219 255 307
#     4  10  19  32  53  80 106 136 177 218 262 314
#     4  10  20  35  53  75 107 144 178 215 260 310
#     4   9  18  34  56  80 105 137 178 220 260 309
#     4  10  21  36  54  79 110 140 170 212 269 322
#     4   9  16  27  47  77 109 135 164 211 264 311
#     4   9  16  27  49  79 103 125 162 213 260 302
#
# _framework density 18.78463
#
# number of rings (size 3 to 8) (size 9 to 14) (size 15 to 20)
#    0.000    2.333    1.667    1.500    0.000    5.000 
#    0.000    1.250    0.000    3.500    0.000    0.000 
#    0.000    0.000    0.000    0.000    0.000    0.000 
#
# Total GULP energy -267884.944388 kJ/mol
# GULP energy per Si atom -5580.936341 kJ/mol
# Density = 1.874188 g / cm^3
# Si number density = 18.784630 Si / 1000 Ang^3
#
#
#
# Elastic Constant Matrix: (Units=GPa)
#
#
# Indices 1 2 3 4 5 6 
#
# 1 14.3516 10.9368 9.1587 0.0000 0.0000 0.0000
# 2 10.9368 200.2512 131.7445 0.0000 0.0000 0.0000
# 3 9.1587 131.7445 172.6538 0.0000 0.0000 0.0000
# 4 0.0000 0.0000 0.0000 16.7364 0.0000 0.0000
# 5 0.0000 0.0000 0.0000 0.0000 0.7422 0.0000
# 6 0.0000 0.0000 0.0000 0.0000 0.0000 23.5762
#
#
#
# Elastic Compliance Matrix: (Units=1/GPa)
#
#
# Indices 1 2 3 4 5 6 
#
# 1 0.072943 -0.002888 -0.001666 0.000000 0.000000 0.000000
# 2 -0.002888 0.010142 -0.007586 0.000000 0.000000 0.000000
# 3 -0.001666 -0.007586 0.011669 0.000000 0.000000 0.000000
# 4 0.000000 0.000000 0.000000 0.059750 0.000000 0.000000
# 5 0.000000 0.000000 0.000000 0.000000 1.347434 0.000000
# 6 0.000000 0.000000 0.000000 0.000000 0.000000 0.042416
#
#
# Mechanical properties :
#
#
# Convention : Reuss Voigt Hill
#
# Bulk Modulus (GPa) = 14.18952 76.77073 45.48013
# Shear Modulus (GPa) = 3.14046 23.90538 13.52292
#
# Velocity S-wave (km/s) = 1.29439 3.57123 2.68599
# Velocity P-wave (km/s) = 3.13115 7.61331 5.82094
#
# Compressibility (1/GPa) = 0.07047453
#
# Stress axis : x y z
#
# Youngs Moduli (GPa) = 13.70941 98.59856 85.69934
#
# Poissons Ratio (x) = 0.28474 0.14275
# Poissons Ratio (y) = 0.03959 0.65010
# Poissons Ratio (z) = 0.02284 0.74795
#
# Static dielectric constant tensor:
#      x y z
#    x 1.684620 0.000000 0.000000 
#    y 0.000000 1.643410 0.000000 
#    z 0.000000 0.000000 1.629260 
# 
# From -- ./inp_files/12913.got.cif
#   From: 2010.05.17/outbox.cif.g08.bks.cpg/sg71_7_cif.got.tgz:12913.got - 2010.06.03 16:22:01.
