data_PCOD9519706
_publ_section_title
;
Structure prediction by ZEFSAII (Michael W. Deem and Ramdas Pophale) SiO2 
 PCOD9519706
Probable space group: I M M M
;
_chemical_formula_sum "Si O2"
_cell_formula_units_Z 120
_cell_length_a 19.186720
_cell_length_b 20.851698
_cell_length_c 18.416062
_cell_angle_alpha 90.000000
_cell_angle_beta 90.000000
_cell_angle_gamma 90.000000
_cell_volume 7367.818731
_symmetry_space_group_name_H-M "I M M M"
_symmetry_group_IT_number 71
_symmetry_cell_setting 'orthorhombic'
loop_
_space_group_symop_operation_xyz
x,y,z
-x,-y,z
x,-y,-z
-x,y,-z
-x,-y,-z
x,y,-z
-x,y,z
x,-y,z
1/2+x,1/2+y,1/2+z
1/2-x,1/2-y,1/2+z
1/2+x,1/2-y,1/2-z
1/2-x,1/2+y,1/2-z
1/2-x,1/2-y,1/2-z
1/2+x,1/2+y,1/2-z
1/2-x,1/2+y,1/2+z
1/2+x,1/2-y,1/2+z
loop_
_atom_site_type_symbol
_atom_site_label
_atom_site_fract_x
_atom_site_fract_y
_atom_site_fract_z
Si Si1 0.077481 0.856291 0.274503
Si Si2 0.819687 0.314758 0.189272
Si Si3 0.079710 0.706691 0.685710
Si Si4 0.794179 0.832142 0.814827
Si Si5 0.081356 0.500000 0.588054
Si Si6 0.171902 0.625723 0.586813
Si Si7 0.381107 0.574875 0.079408
Si Si8 0.786961 0.427737 0.084094
O O1 0.083714 0.782392 0.300020
O O2 0.136433 0.866711 0.213907
O O3 0.088071 0.895010 0.348518
O O4 0.000000 0.867122 0.245536
O O5 0.886442 0.322070 0.241391
O O6 0.813029 0.241118 0.161895
O O7 0.754108 0.325197 0.243124
O O8 0.818002 0.369430 0.129269
O O9 0.127313 0.684946 0.618768
O O10 0.000000 0.687660 0.674259
O O11 0.746848 0.868262 0.873962
O O12 0.078017 0.500000 0.500000
O O13 0.126490 0.562874 0.608330
O O14 0.000000 0.500000 0.613313
O O15 0.178253 0.627289 0.500000
O O16 0.399173 0.500000 0.078347
O O17 0.297114 0.579340 0.085161
O O18 0.401614 0.602423 0.000000
O O19 0.802972 0.500000 0.111555
O O20 0.808386 0.424564 0.000000
#
# Coordination Sequence:
#
# PCOD9519706 Si02
#       8
#    16  16  16  16   8  16  16  16
#     4  10  19  33  50  67  99 139 166 202 250 292
#     4   9  16  31  50  67  98 132 160 206 253 284
#     4   9  19  33  49  72  99 128 163 200 247 304
#     4   9  18  32  47  72  97 124 169 211 247 292
#     4   9  18  34  52  70  99 131 150 181 249 315
#     4  10  20  33  52  74  97 126 159 204 252 297
#     4   9  18  31  46  68 101 134 163 198 241 293
#     4   9  17  29  48  74 101 131 165 201 243 291
#
# _framework density 16.287046
#
# number of rings (size 3 to 8) (size 9 to 14) (size 15 to 20)
#    0.000    2.733    1.333    2.000    0.000    2.400 
#    6.000    2.000    0.000    0.800    0.000    4.667 
#    0.000    1.600    0.000    0.000    0.000    0.000 
#
# Total GULP energy -334095.252523 kJ/mol
# GULP energy per Si atom -5568.254209 kJ/mol
# Density = 1.624998 g / cm^3
# Si number density = 16.287046 Si / 1000 Ang^3
#
#
#
# Elastic Constant Matrix: (Units=GPa)
#
#
# Indices 1 2 3 4 5 6 
#
# 1 103.5783 26.9793 51.2104 0.0000 0.0000 0.0000
# 2 26.9793 47.7875 41.2372 0.0000 0.0000 0.0000
# 3 51.2104 41.2372 71.7613 0.0000 0.0000 0.0000
# 4 0.0000 0.0000 0.0000 -341.5574 0.0000 0.0000
# 5 0.0000 0.0000 0.0000 0.0000 20.8561 0.0000
# 6 0.0000 0.0000 0.0000 0.0000 0.0000 9.5057
#
#
#
# Elastic Compliance Matrix: (Units=1/GPa)
#
#
# Indices 1 2 3 4 5 6 
#
# 1 0.014973 0.001522 -0.011560 0.000000 0.000000 0.000000
# 2 0.001522 0.041664 -0.025028 0.000000 0.000000 0.000000
# 3 -0.011560 -0.025028 0.036567 0.000000 0.000000 0.000000
# 4 0.000000 0.000000 0.000000 -0.002928 0.000000 0.000000
# 5 0.000000 0.000000 0.000000 0.000000 0.047948 0.000000
# 6 0.000000 0.000000 0.000000 0.000000 0.000000 0.105200
#
#
# Mechanical properties :
#
#
# Convention : Reuss Voigt Hill
#
# Bulk Modulus (GPa) = 43.34238 51.33119 47.33679
# Shear Modulus (GPa) = 15.56432 -55.32577 -19.88073
#
# Velocity S-wave (km/s) = 3.09467 -5.83463 -3.49757
# Velocity P-wave (km/s) = 6.28002 3.71559 3.58002
#
# Compressibility (1/GPa) = 0.02307211
#
# Stress axis : x y z
#
# Youngs Moduli (GPa) = 66.78466 24.00130 27.34720
#
# Poissons Ratio (x) = -0.03653 0.31613
# Poissons Ratio (y) = -0.10163 0.68445
# Poissons Ratio (z) = 0.77202 0.60071
#
# Static dielectric constant tensor:
#      x y z
#    x 1.570170 0.000000 0.000000 
#    y 0.000000 1.563390 0.000000 
#    z 0.000000 0.000000 1.532440 
# 
# From -- ./inp_files/46483.got.cif
#   From: 2010.05.17/outbox.cif.g08.bks.cpg/sg71_24_cif.got.tgz:46483.got - 2010.06.03 16:22:01.
