data_PCOD9519498
_publ_section_title
;
Structure prediction by ZEFSAII (Michael W. Deem and Ramdas Pophale) SiO2 
 PCOD9519498
Probable space group: I M M M
;
_chemical_formula_sum "Si O2"
_cell_formula_units_Z 80
_cell_length_a 25.657242
_cell_length_b 20.083894
_cell_length_c 9.073272
_cell_angle_alpha 90.000000
_cell_angle_beta 90.000000
_cell_angle_gamma 90.000000
_cell_volume 4675.432824
_symmetry_space_group_name_H-M "I M M M"
_symmetry_group_IT_number 71
_symmetry_cell_setting 'orthorhombic'
loop_
_space_group_symop_operation_xyz
x,y,z
-x,-y,z
x,-y,-z
-x,y,-z
-x,-y,-z
x,y,-z
-x,y,z
x,-y,z
1/2+x,1/2+y,1/2+z
1/2-x,1/2-y,1/2+z
1/2+x,1/2-y,1/2-z
1/2-x,1/2+y,1/2-z
1/2-x,1/2-y,1/2-z
1/2+x,1/2+y,1/2-z
1/2-x,1/2+y,1/2+z
1/2+x,1/2-y,1/2+z
loop_
_atom_site_type_symbol
_atom_site_label
_atom_site_fract_x
_atom_site_fract_y
_atom_site_fract_z
Si Si1 0.282061 0.500000 0.169515
Si Si2 0.441880 0.759954 0.323567
Si Si3 0.884095 0.000000 0.829854
Si Si4 0.334202 0.765699 0.825194
Si Si5 0.059295 0.117752 0.668517
Si Si6 0.243801 0.847333 0.672275
O O1 0.323251 0.500000 0.300352
O O2 0.255508 0.572566 0.182842
O O3 0.304484 0.500000 0.000000
O O4 0.438267 0.761262 0.500000
O O5 0.500000 0.787770 0.283375
O O6 0.388100 0.786082 0.253840
O O7 0.441631 0.685001 0.261303
O O8 0.905955 0.936033 0.747120
O O9 0.898608 0.000000 0.000000
O O10 0.288165 0.814166 0.771440
O O11 0.311022 0.690918 0.790996
O O12 0.341864 0.769373 0.000000
O O13 0.075995 0.130983 0.500000
O O14 0.000000 0.092046 0.663778
O O15 0.253635 0.830430 0.500000
#
# Coordination Sequence:
#
# PCOD9519498 Si02
#       6
#     8  16   8  16  16  16
#     4  10  20  35  53  72  97 130 168 208 251 299
#     4  10  20  33  50  73 100 128 161 205 252 297
#     4  12  23  31  44  65  92 127 165 206 247 290
#     4  10  19  32  52  76 103 136 170 206 250 301
#     4  10  20  33  47  63  88 125 167 207 246 290
#     4   9  19  34  52  74 100 132 170 211 253 298
#
# _framework density 17.110716
#
# number of rings (size 3 to 8) (size 9 to 14) (size 15 to 20)
#    0.000    2.000    0.000    4.200    0.000    6.800 
#    0.000    0.000    0.000    0.000    0.000    0.700 
#    0.000    5.600    0.000    0.000    0.000    0.000 
#
# Total GULP energy -222857.985187 kJ/mol
# GULP energy per Si atom -5571.449630 kJ/mol
# Density = 1.707177 g / cm^3
# Si number density = 17.110716 Si / 1000 Ang^3
#
#
#
# Elastic Constant Matrix: (Units=GPa)
#
#
# Indices 1 2 3 4 5 6 
#
# 1 98.8557 10.9406 48.0696 0.0000 0.0000 0.0000
# 2 10.9406 51.6950 18.2948 0.0000 0.0000 0.0000
# 3 48.0696 18.2948 67.9991 0.0000 0.0000 0.0000
# 4 0.0000 0.0000 0.0000 17.6301 0.0000 0.0000
# 5 0.0000 0.0000 0.0000 0.0000 31.9056 0.0000
# 6 0.0000 0.0000 0.0000 0.0000 0.0000 19.9171
#
#
#
# Elastic Compliance Matrix: (Units=1/GPa)
#
#
# Indices 1 2 3 4 5 6 
#
# 1 0.015435 0.000657 -0.011088 0.000000 0.000000 0.000000
# 2 0.000657 0.021408 -0.006224 0.000000 0.000000 0.000000
# 3 -0.011088 -0.006224 0.024219 0.000000 0.000000 0.000000
# 4 0.000000 0.000000 0.000000 0.056721 0.000000 0.000000
# 5 0.000000 0.000000 0.000000 0.000000 0.031342 0.000000
# 6 0.000000 0.000000 0.000000 0.000000 0.000000 0.050208
#
#
# Mechanical properties :
#
#
# Convention : Reuss Voigt Hill
#
# Bulk Modulus (GPa) = 36.03378 41.46219 38.74799
# Shear Modulus (GPa) = 20.67027 23.30687 21.98857
#
# Velocity S-wave (km/s) = 3.47944 3.69470 3.58868
# Velocity P-wave (km/s) = 6.10303 6.51808 6.31396
#
# Compressibility (1/GPa) = 0.02775174
#
# Stress axis : x y z
#
# Youngs Moduli (GPa) = 64.78965 46.71167 41.29012
#
# Poissons Ratio (x) = -0.03071 0.45782
# Poissons Ratio (y) = -0.04260 0.25701
# Poissons Ratio (z) = 0.71838 0.29075
#
# Static dielectric constant tensor:
#      x y z
#    x 1.641660 0.000000 0.000000 
#    y 0.000000 1.543860 0.000000 
#    z 0.000000 0.000000 1.569800 
# 
# From -- ./inp_files/10258.got.cif
#   From: 2010.05.17/outbox.cif.g08.bks.cpg/sg71_6_cif.got.tgz:10258.got - 2010.06.03 16:22:01.
