data_PCOD9519721
_publ_section_title
;
Structure prediction by ZEFSAII (Michael W. Deem and Ramdas Pophale) SiO2 
 PCOD9519721
Probable space group: I M M M
;
_chemical_formula_sum "Si O2"
_cell_formula_units_Z 82
_cell_length_a 9.834767
_cell_length_b 21.099170
_cell_length_c 24.780173
_cell_angle_alpha 90.000000
_cell_angle_beta 90.000000
_cell_angle_gamma 90.000000
_cell_volume 5142.020227
_symmetry_space_group_name_H-M "I M M M"
_symmetry_group_IT_number 71
_symmetry_cell_setting 'orthorhombic'
loop_
_space_group_symop_operation_xyz
x,y,z
-x,-y,z
x,-y,-z
-x,y,-z
-x,-y,-z
x,y,-z
-x,y,z
x,-y,z
1/2+x,1/2+y,1/2+z
1/2-x,1/2-y,1/2+z
1/2+x,1/2-y,1/2-z
1/2-x,1/2+y,1/2-z
1/2-x,1/2-y,1/2-z
1/2+x,1/2+y,1/2-z
1/2-x,1/2+y,1/2+z
1/2+x,1/2-y,1/2+z
loop_
_atom_site_type_symbol
_atom_site_label
_atom_site_fract_x
_atom_site_fract_y
_atom_site_fract_z
Si Si1 0.338963 0.751539 0.000000
Si Si2 0.338267 0.570751 0.787887
Si Si3 0.759421 0.102794 0.500000
Si Si4 0.500000 0.500000 0.000000
Si Si5 0.342126 0.264280 0.398014
Si Si6 0.162260 0.195619 0.221013
Si Si7 0.652346 0.113429 0.383428
O O1 0.313488 0.675425 0.000000
O O2 0.261355 0.776341 0.946699
O O3 0.500000 0.764027 0.000000
O O4 0.500000 0.573834 0.797768
O O5 0.306530 0.500000 0.767562
O O6 0.304235 0.627822 0.747340
O O7 0.260556 0.582664 0.843710
O O8 0.674989 0.094180 0.445268
O O9 0.882515 0.054890 0.500000
O O10 0.500000 0.274634 0.414618
O O11 0.313344 0.302047 0.343125
O O12 0.331693 0.189757 0.382353
O O13 0.250000 0.250000 0.250000
O O14 0.000000 0.207630 0.228905
O O15 0.500000 0.097500 0.365737
#
# Coordination Sequence:
#
# PCOD9519721 Si02
#       7
#     8  16   8   2  16  16  16
#     4  10  19  33  50  75  98 121 158 205 256 296
#     4  10  22  35  51  73 103 135 168 207 253 301
#     4  10  23  34  47  63  94 128 174 211 254 293
#     4  12  24  36  46  64  88 140 178 224 242 306
#     4   9  18  32  52  73  99 129 160 203 255 301
#     4  10  19  34  53  76 101 132 171 210 251 301
#     4  10  20  35  51  69  95 129 170 216 257 295
#
# _framework density 15.947039
#
# number of rings (size 3 to 8) (size 9 to 14) (size 15 to 20)
#    0.000    2.146    2.439    0.585    2.732    4.293 
#    0.000    0.488    0.000    0.000    0.000    0.683 
#    0.000    5.463    0.000    0.000    0.000    0.000 
#
# Total GULP energy -228412.073093 kJ/mol
# GULP energy per Si atom -5571.026173 kJ/mol
# Density = 1.591074 g / cm^3
# Si number density = 15.947039 Si / 1000 Ang^3
#
#
#
# Elastic Constant Matrix: (Units=GPa)
#
#
# Indices 1 2 3 4 5 6 
#
# 1 67.4662 39.7097 54.9748 0.0000 0.0000 0.0000
# 2 39.7097 82.4275 57.4044 0.0000 0.0000 0.0000
# 3 54.9748 57.4044 110.0577 0.0000 0.0000 0.0000
# 4 0.0000 0.0000 0.0000 5.5156 0.0000 0.0000
# 5 0.0000 0.0000 0.0000 0.0000 -11.6422 0.0000
# 6 0.0000 0.0000 0.0000 0.0000 0.0000 17.7465
#
#
#
# Elastic Compliance Matrix: (Units=1/GPa)
#
#
# Indices 1 2 3 4 5 6 
#
# 1 0.026535 -0.005579 -0.010345 0.000000 0.000000 0.000000
# 2 -0.005579 0.020226 -0.007763 0.000000 0.000000 0.000000
# 3 -0.010345 -0.007763 0.018302 0.000000 0.000000 0.000000
# 4 0.000000 0.000000 0.000000 0.181306 0.000000 0.000000
# 5 0.000000 0.000000 0.000000 0.000000 -0.085895 0.000000
# 6 0.000000 0.000000 0.000000 0.000000 0.000000 0.056349
#
#
# Mechanical properties :
#
#
# Convention : Reuss Voigt Hill
#
# Bulk Modulus (GPa) = 56.52755 62.68101 59.60428
# Shear Modulus (GPa) = 18.51214 9.51481 14.01348
#
# Velocity S-wave (km/s) = 3.41082 2.44529 2.96759
# Velocity P-wave (km/s) = 7.14392 6.88213 7.01425
#
# Compressibility (1/GPa) = 0.01769049
#
# Stress axis : x y z
#
# Youngs Moduli (GPa) = 37.68546 49.44201 54.63834
#
# Poissons Ratio (x) = 0.27585 0.56521
# Poissons Ratio (y) = 0.21026 0.42413
# Poissons Ratio (z) = 0.38984 0.38379
#
# Static dielectric constant tensor:
#      x y z
#    x 1.529140 0.000000 0.000000 
#    y 0.000000 1.531440 0.000000 
#    z 0.000000 0.000000 1.529670 
# 
# From -- ./inp_files/14788.got.cif
#   From: 2010.05.17/outbox.cif.g08.bks.cpg/sg71_8_cif.got.tgz:14788.got - 2010.06.03 16:22:01.
