data_PCOD9519966
_publ_section_title
;
Structure prediction by ZEFSAII (Michael W. Deem and Ramdas Pophale) SiO2 
 PCOD9519966
Probable space group: I M M M
;
_chemical_formula_sum "Si O2"
_cell_formula_units_Z 96
_cell_length_a 20.928761
_cell_length_b 8.833422
_cell_length_c 27.050331
_cell_angle_alpha 90.000000
_cell_angle_beta 90.000000
_cell_angle_gamma 90.000000
_cell_volume 5000.864424
_symmetry_space_group_name_H-M "I M M M"
_symmetry_group_IT_number 71
_symmetry_cell_setting 'orthorhombic'
loop_
_space_group_symop_operation_xyz
x,y,z
-x,-y,z
x,-y,-z
-x,y,-z
-x,-y,-z
x,y,-z
-x,y,z
x,-y,z
1/2+x,1/2+y,1/2+z
1/2-x,1/2-y,1/2+z
1/2+x,1/2-y,1/2-z
1/2-x,1/2+y,1/2-z
1/2-x,1/2-y,1/2-z
1/2+x,1/2+y,1/2-z
1/2-x,1/2+y,1/2+z
1/2+x,1/2-y,1/2+z
loop_
_atom_site_type_symbol
_atom_site_label
_atom_site_fract_x
_atom_site_fract_y
_atom_site_fract_z
Si Si1 0.105490 0.325436 0.717852
Si Si2 0.928190 0.680837 0.166916
Si Si3 0.695075 0.678375 0.614126
Si Si4 0.194452 0.176165 0.558212
Si Si5 0.728488 0.672426 0.799853
Si Si6 0.430917 0.824205 0.107025
O O1 0.132429 0.500000 0.720417
O O2 0.079913 0.296715 0.773385
O O3 0.153595 0.190645 0.705175
O O4 0.066475 0.326177 0.666972
O O5 0.924241 0.500000 0.159619
O O6 0.872417 0.755031 0.133830
O O7 0.000000 0.731855 0.153604
O O8 0.688703 0.500000 0.607639
O O9 0.736123 0.749395 0.569330
O O10 0.743583 0.722411 0.657962
O O11 0.181245 0.188101 0.500000
O O12 0.133632 0.245866 0.587258
O O13 0.199466 0.000000 0.572740
O O14 0.749746 0.500000 0.805951
O O15 0.750000 0.750000 0.750000
O O16 0.500000 0.762073 0.089381
O O17 0.426528 0.000000 0.091525
#
# Coordination Sequence:
#
# PCOD9519966 Si02
#       6
#    16  16  16  16  16  16
#     4  10  19  33  55  84 120 163 203 239 278 335
#     4  10  21  37  59  88 125 166 202 239 287 349
#     4  12  24  39  61  87 118 156 196 248 304 358
#     4  11  25  44  65  88 114 148 196 254 309 362
#     4  12  22  33  53  83 117 156 200 245 291 343
#     4  10  21  37  59  88 123 162 203 245 291 348
#
# _framework density 19.196681999999999
#
# number of rings (size 3 to 8) (size 9 to 14) (size 15 to 20)
#    0.000    1.167    3.333    4.000    0.000    4.333 
#    0.000    1.667    0.000    3.500    0.000    3.500 
#    0.000    0.000    0.000    0.000    0.000    0.000 
#
# Total GULP energy -267288.932965 kJ/mol
# GULP energy per Si atom -5568.519437 kJ/mol
# Density = 1.915299 g / cm^3
# Si number density = 19.196682 Si / 1000 Ang^3
#
#
#
# Elastic Constant Matrix: (Units=GPa)
#
#
# Indices 1 2 3 4 5 6 
#
# 1 146.7980 65.1155 38.4358 0.0000 0.0000 0.0000
# 2 65.1155 84.1886 27.6056 0.0000 0.0000 0.0000
# 3 38.4358 27.6056 59.5338 0.0000 0.0000 0.0000
# 4 0.0000 0.0000 0.0000 17.8982 0.0000 0.0000
# 5 0.0000 0.0000 0.0000 0.0000 -0.4387 0.0000
# 6 0.0000 0.0000 0.0000 0.0000 0.0000 24.7993
#
#
#
# Elastic Compliance Matrix: (Units=1/GPa)
#
#
# Indices 1 2 3 4 5 6 
#
# 1 0.011031 -0.007308 -0.003733 0.000000 0.000000 0.000000
# 2 -0.007308 0.018849 -0.004022 0.000000 0.000000 0.000000
# 3 -0.003733 -0.004022 0.021073 0.000000 0.000000 0.000000
# 4 0.000000 0.000000 0.000000 0.055872 0.000000 0.000000
# 5 0.000000 0.000000 0.000000 0.000000 -2.279291 0.000000
# 6 0.000000 0.000000 0.000000 0.000000 0.000000 0.040324
#
#
# Mechanical properties :
#
#
# Convention : Reuss Voigt Hill
#
# Bulk Modulus (GPa) = 48.01648 61.42601 54.72124
# Shear Modulus (GPa) = -2.38655 19.07598 8.34472
#
# Velocity S-wave (km/s) = -1.11620 3.15574 2.08720
# Velocity P-wave (km/s) = 4.83797 6.73394 5.86310
#
# Compressibility (1/GPa) = 0.02082618
#
# Stress axis : x y z
#
# Youngs Moduli (GPa) = 90.65278 53.05245 47.45521
#
# Poissons Ratio (x) = 0.38770 0.17716
# Poissons Ratio (y) = 0.66248 0.19088
# Poissons Ratio (z) = 0.33842 0.21339
#
# Static dielectric constant tensor:
#      x y z
#    x 1.706620 0.000000 0.000000 
#    y 0.000000 1.625940 0.000000 
#    z 0.000000 0.000000 1.306000 
# 
# From -- ./inp_files/66338.got.cif
#   From: 2010.05.17/outbox.cif.g08.bks.cpg/sg71_34_cif.got.tgz:66338.got - 2010.06.03 16:22:01.
