data_PCOD9519407
_publ_section_title
;
Structure prediction by ZEFSAII (Michael W. Deem and Ramdas Pophale) SiO2 
 PCOD9519407
Probable space group: I M M M
;
_chemical_formula_sum "Si O2"
_cell_formula_units_Z 112
_cell_length_a 16.671196
_cell_length_b 23.775050
_cell_length_c 15.554474
_cell_angle_alpha 90.000000
_cell_angle_beta 90.000000
_cell_angle_gamma 90.000000
_cell_volume 6165.148270
_symmetry_space_group_name_H-M "I M M M"
_symmetry_group_IT_number 71
_symmetry_cell_setting 'orthorhombic'
loop_
_space_group_symop_operation_xyz
x,y,z
-x,-y,z
x,-y,-z
-x,y,-z
-x,-y,-z
x,y,-z
-x,y,z
x,-y,z
1/2+x,1/2+y,1/2+z
1/2-x,1/2-y,1/2+z
1/2+x,1/2-y,1/2-z
1/2-x,1/2+y,1/2-z
1/2-x,1/2-y,1/2-z
1/2+x,1/2+y,1/2-z
1/2-x,1/2+y,1/2+z
1/2+x,1/2-y,1/2+z
loop_
_atom_site_type_symbol
_atom_site_label
_atom_site_fract_x
_atom_site_fract_y
_atom_site_fract_z
Si Si1 0.911625 0.849592 0.897172
Si Si2 0.763361 0.635218 0.400080
Si Si3 0.087677 0.260882 0.778281
Si Si4 0.910628 0.435159 0.329745
Si Si5 0.089747 0.435576 0.123382
Si Si6 0.663444 0.743095 0.096920
Si Si7 0.809726 0.330394 0.905848
O O1 0.827627 0.879253 0.872485
O O2 0.912835 0.794165 0.838325
O O3 0.000000 0.877154 0.885691
O O4 0.905078 0.836653 0.000000
O O5 0.769296 0.620651 0.500000
O O6 0.837186 0.603920 0.356239
O O7 0.777683 0.702588 0.393007
O O8 0.107522 0.246283 0.679953
O O9 0.149680 0.302065 0.823574
O O10 0.000000 0.287881 0.781956
O O11 0.899343 0.500000 0.359010
O O12 0.911583 0.435903 0.226691
O O13 0.000000 0.416384 0.359207
O O14 0.100699 0.500000 0.096038
O O15 0.159906 0.394056 0.095148
O O16 0.000000 0.416650 0.096011
O O17 0.716942 0.686705 0.100420
O O18 0.628254 0.747531 0.000000
O O19 0.835992 0.306657 0.000000
#
# Coordination Sequence:
#
# PCOD9519407 Si02
#       7
#    16  16  16  16  16  16  16
#     4   9  18  32  49  74 105 132 168 217 265 318
#     4  10  19  32  51  72 100 140 177 217 271 317
#     4  11  21  32  51  75 100 137 175 214 267 318
#     4   9  19  35  53  76 106 140 182 224 260 312
#     4   9  19  34  50  71 101 138 175 212 261 315
#     4  10  22  36  49  73 106 139 177 217 263 324
#     4  11  21  33  51  76 106 139 177 219 261 314
#
# _framework density 18.166636
#
# number of rings (size 3 to 8) (size 9 to 14) (size 15 to 20)
#    0.000    2.143    1.429    3.000    2.000    4.571 
#    0.000    2.857    0.000    0.429    0.000    2.000 
#    0.000    0.571    0.000    3.143    0.000    0.143 
#
# Total GULP energy -311938.752847 kJ/mol
# GULP energy per Si atom -5570.334872 kJ/mol
# Density = 1.812529 g / cm^3
# Si number density = 18.166636 Si / 1000 Ang^3
#
#
#
# Elastic Constant Matrix: (Units=GPa)
#
#
# Indices 1 2 3 4 5 6 
#
# 1 85.7109 28.3194 22.3287 0.0000 0.0000 0.0000
# 2 28.3194 50.8262 8.2756 -0.0001 0.0000 0.0000
# 3 22.3287 8.2756 69.9227 -0.0002 0.0000 0.0000
# 4 0.0000 -0.0001 -0.0002 5.6536 0.0000 0.0000
# 5 0.0000 0.0000 0.0000 0.0000 -32.2981 0.0000
# 6 0.0000 0.0000 0.0000 0.0000 0.0000 23.8183
#
#
#
# Elastic Compliance Matrix: (Units=1/GPa)
#
#
# Indices 1 2 3 4 5 6 
#
# 1 0.015301 -0.007882 -0.003953 0.000000 0.000000 0.000000
# 2 -0.007882 0.024122 -0.000338 0.000000 0.000000 0.000000
# 3 -0.003953 -0.000338 0.015604 0.000000 0.000000 0.000000
# 4 0.000000 0.000000 0.000000 0.176880 0.000000 0.000000
# 5 0.000000 0.000000 0.000000 0.000000 -0.030962 0.000000
# 6 0.000000 0.000000 0.000000 0.000000 0.000000 0.041984
#
#
# Mechanical properties :
#
#
# Convention : Reuss Voigt Hill
#
# Bulk Modulus (GPa) = 32.59407 36.03414 34.31410
# Shear Modulus (GPa) = 18.01785 9.27050 13.64418
#
# Velocity S-wave (km/s) = 3.15272 2.26144 2.74351
# Velocity P-wave (km/s) = 5.58870 5.16693 5.38195
#
# Compressibility (1/GPa) = 0.03068043
#
# Stress axis : x y z
#
# Youngs Moduli (GPa) = 65.35406 41.45670 64.08630
#
# Poissons Ratio (x) = 0.32676 0.25336
# Poissons Ratio (y) = 0.51511 0.02165
# Poissons Ratio (z) = 0.25837 0.01401
#
# Static dielectric constant tensor:
#      x y z
#    x 1.655530 0.000000 0.000000 
#    y 0.000000 1.626940 0.000000 
#    z 0.000000 0.000000 1.657750 
# 
# From -- ./inp_files/34856.got.cif
#   From: 2010.05.17/outbox.cif.g08.bks.cpg/sg71_18_cif.got.tgz:34856.got - 2010.06.03 16:22:01.
