data_PCOD9519071
_publ_section_title
;
Structure prediction by ZEFSAII (Michael W. Deem and Ramdas Pophale) SiO2 
 PCOD9519071
Probable space group: I M M M
;
_chemical_formula_sum "Si O2"
_cell_formula_units_Z 128
_cell_length_a 13.123082
_cell_length_b 23.588597
_cell_length_c 25.915259
_cell_angle_alpha 90.000000
_cell_angle_beta 90.000000
_cell_angle_gamma 90.000000
_cell_volume 8022.200402
_symmetry_space_group_name_H-M "I M M M"
_symmetry_group_IT_number 71
_symmetry_cell_setting 'orthorhombic'
loop_
_space_group_symop_operation_xyz
x,y,z
-x,-y,z
x,-y,-z
-x,y,-z
-x,-y,-z
x,y,-z
-x,y,z
x,-y,z
1/2+x,1/2+y,1/2+z
1/2-x,1/2-y,1/2+z
1/2+x,1/2-y,1/2-z
1/2-x,1/2+y,1/2-z
1/2-x,1/2-y,1/2-z
1/2+x,1/2+y,1/2-z
1/2-x,1/2+y,1/2+z
1/2+x,1/2-y,1/2+z
loop_
_atom_site_type_symbol
_atom_site_label
_atom_site_fract_x
_atom_site_fract_y
_atom_site_fract_z
Si Si1 0.617833 0.774706 0.353932
Si Si2 0.702180 0.433325 0.785784
Si Si3 0.881230 0.351925 0.245592
Si Si4 0.119827 0.932455 0.600935
Si Si5 0.883623 0.066997 0.174506
Si Si6 0.737973 0.834674 0.851391
Si Si7 0.247878 0.667843 0.941111
Si Si8 0.380637 0.218878 0.941220
O O1 0.500000 0.763549 0.366345
O O2 0.623098 0.803197 0.297611
O O3 0.682292 0.717198 0.351467
O O4 0.665500 0.816840 0.397094
O O5 0.723117 0.500000 0.787022
O O6 0.807448 0.400573 0.776822
O O7 0.645947 0.419217 0.839103
O O8 0.632096 0.422287 0.735833
O O9 0.831249 0.333892 0.299882
O O10 0.000000 0.368257 0.252042
O O11 0.193129 0.890912 0.569157
O O12 0.000000 0.921806 0.590797
O O13 0.137887 0.000000 0.592396
O O14 0.801685 0.107249 0.147661
O O15 0.000000 0.080254 0.160156
O O16 0.865962 0.000000 0.165745
O O17 0.668472 0.823847 0.900831
O O18 0.328516 0.719488 0.936250
O O19 0.207797 0.668690 0.000000
O O20 0.500000 0.224725 0.931797
O O21 0.364025 0.199859 0.000000
#
# Coordination Sequence:
#
# PCOD9519071 Si02
#       8
#    16  16  16  16  16  16  16  16
#     4  10  20  34  50  70  98 130 164 203 249 297
#     4   9  17  30  47  69  98 133 172 206 240 288
#     4  10  19  31  48  71 101 131 160 200 248 296
#     4  10  19  31  49  72  98 129 167 213 261 303
#     4   9  17  30  49  73 101 131 160 194 239 291
#     4  10  19  31  51  76 101 125 160 198 242 289
#     4  10  20  34  51  71  97 130 171 213 251 294
#     4   9  18  33  52  73  99 131 163 197 239 289
#
# _framework density 15.955722
#
# number of rings (size 3 to 8) (size 9 to 14) (size 15 to 20)
#    0.000    2.375    1.250    1.875    0.000    3.000 
#    0.000    0.625    0.000    3.000    0.000    2.625 
#    0.000    0.000    0.000    0.000    0.000    0.000 
#
# Total GULP energy -356650.957296 kJ/mol
# GULP energy per Si atom -5572.671208 kJ/mol
# Density = 1.591941 g / cm^3
# Si number density = 15.955722 Si / 1000 Ang^3
#
#
#
# Elastic Constant Matrix: (Units=GPa)
#
#
# Indices 1 2 3 4 5 6 
#
# 1 84.9881 14.7453 34.1863 0.0000 0.0000 0.0000
# 2 14.7453 24.1549 14.7190 0.0000 0.0000 0.0000
# 3 34.1863 14.7190 49.9423 0.0000 0.0000 0.0000
# 4 0.0000 0.0000 0.0000 24.7674 0.0000 0.0000
# 5 0.0000 0.0000 0.0000 0.0000 20.5899 0.0000
# 6 0.0000 0.0000 0.0000 0.0000 0.0000 23.5167
#
#
#
# Elastic Compliance Matrix: (Units=1/GPa)
#
#
# Indices 1 2 3 4 5 6 
#
# 1 0.016533 -0.003896 -0.010169 0.000000 0.000000 0.000000
# 2 -0.003896 0.051380 -0.012476 0.000000 0.000000 0.000000
# 3 -0.010169 -0.012476 0.030661 0.000000 0.000000 0.000000
# 4 0.000000 0.000000 0.000000 0.040376 0.000000 0.000000
# 5 0.000000 0.000000 0.000000 0.000000 0.048568 0.000000
# 6 0.000000 0.000000 0.000000 0.000000 0.000000 0.042523
#
#
# Mechanical properties :
#
#
# Convention : Reuss Voigt Hill
#
# Bulk Modulus (GPa) = 21.98175 31.82074 26.90124
# Shear Modulus (GPa) = 16.76254 20.13713 18.44984
#
# Velocity S-wave (km/s) = 3.24476 3.55641 3.40415
# Velocity P-wave (km/s) = 5.27680 6.07046 5.68749
#
# Compressibility (1/GPa) = 0.04549229
#
# Stress axis : x y z
#
# Youngs Moduli (GPa) = 60.48653 19.46284 32.61519
#
# Poissons Ratio (x) = 0.07583 0.33165
# Poissons Ratio (y) = 0.23565 0.40690
# Poissons Ratio (z) = 0.61506 0.24282
#
# Static dielectric constant tensor:
#      x y z
#    x 1.516430 0.000000 0.000000 
#    y 0.000000 1.516580 0.000000 
#    z 0.000000 0.000000 1.534850 
# 
# From -- ./inp_files/27890.got.cif
#   From: 2010.05.17/outbox.cif.g08.bks.cpg/sg71_14_cif.got.tgz:27890.got - 2010.06.03 16:22:01.
