data_PCOD9519101
_publ_section_title
;
Structure prediction by ZEFSAII (Michael W. Deem and Ramdas Pophale) SiO2 
 PCOD9519101
Probable space group: I M M M
;
_chemical_formula_sum "Si O2"
_cell_formula_units_Z 72
_cell_length_a 27.243885
_cell_length_b 7.319258
_cell_length_c 15.831112
_cell_angle_alpha 90.000000
_cell_angle_beta 90.000000
_cell_angle_gamma 90.000000
_cell_volume 3156.803256
_symmetry_space_group_name_H-M "I M M M"
_symmetry_group_IT_number 71
_symmetry_cell_setting 'orthorhombic'
loop_
_space_group_symop_operation_xyz
x,y,z
-x,-y,z
x,-y,-z
-x,y,-z
-x,-y,-z
x,y,-z
-x,y,z
x,-y,z
1/2+x,1/2+y,1/2+z
1/2-x,1/2-y,1/2+z
1/2+x,1/2-y,1/2-z
1/2-x,1/2+y,1/2-z
1/2-x,1/2-y,1/2-z
1/2+x,1/2+y,1/2-z
1/2-x,1/2+y,1/2+z
1/2+x,1/2-y,1/2+z
loop_
_atom_site_type_symbol
_atom_site_label
_atom_site_fract_x
_atom_site_fract_y
_atom_site_fract_z
Si Si1 0.055460 0.722888 0.317544
Si Si2 0.231155 0.717466 0.844452
Si Si3 0.880231 0.276830 0.839206
Si Si4 0.087316 0.710901 0.500000
Si Si5 0.443833 0.222712 0.500000
Si Si6 0.297652 0.721730 0.000000
O O1 0.057117 0.500000 0.318213
O O2 0.095297 0.781794 0.248720
O O3 0.067881 0.788184 0.411783
O O4 0.000000 0.774267 0.293553
O O5 0.228635 0.500000 0.857173
O O6 0.250000 0.750000 0.750000
O O7 0.175485 0.786285 0.851472
O O8 0.268220 0.784370 0.916650
O O9 0.879320 0.500000 0.838417
O O10 0.914543 0.221067 0.916684
O O11 0.070854 0.500000 0.500000
O O12 0.146215 0.716730 0.500000
O O13 0.500000 0.283223 0.500000
O O14 0.444409 0.000000 0.500000
O O15 0.299049 0.500000 0.000000
#
# Coordination Sequence:
#
# PCOD9519101 Si02
#       6
#    16  16  16   8   8   8
#     4   9  16  26  42  66  93 118 148 191 239 281
#     4  10  20  34  51  72  99 131 165 201 242 287
#     4   9  16  26  41  62  90 122 153 187 231 282
#     4  10  19  31  49  71  94 123 161 199 233 278
#     4   9  15  23  38  62  92 123 151 182 228 287
#     4  10  21  35  50  70 100 134 164 199 245 290
#
# _framework density 22.807881999999999
#
# number of rings (size 3 to 8) (size 9 to 14) (size 15 to 20)
#    0.000    2.556    0.000    3.000    0.000    9.333 
#    0.000    0.000    0.000    1.333    0.000    0.000 
#    0.000    3.556    0.000    0.000    0.000    0.222 
#
# Total GULP energy -201304.219049 kJ/mol
# GULP energy per Si atom -5591.783862 kJ/mol
# Density = 2.275597 g / cm^3
# Si number density = 22.807882 Si / 1000 Ang^3
#
#
#
# Elastic Constant Matrix: (Units=GPa)
#
#
# Indices 1 2 3 4 5 6 
#
# 1 94.2539 -12.2388 -6.7089 0.0000 0.0000 0.0000
# 2 -12.2388 91.0833 -9.4699 0.0000 0.0000 0.0000
# 3 -6.7089 -9.4699 85.9351 0.0000 0.0000 0.0000
# 4 0.0000 0.0000 0.0000 -6.1268 0.0000 0.0000
# 5 0.0000 0.0000 0.0000 0.0000 47.0956 0.0000
# 6 0.0000 0.0000 0.0000 0.0000 0.0000 7.6069
#
#
#
# Elastic Compliance Matrix: (Units=1/GPa)
#
#
# Indices 1 2 3 4 5 6 
#
# 1 0.010886 0.001569 0.001023 0.000000 0.000000 0.000000
# 2 0.001569 0.011332 0.001371 0.000000 0.000000 0.000000
# 3 0.001023 0.001371 0.011868 0.000000 0.000000 0.000000
# 4 0.000000 0.000000 0.000000 -0.163217 0.000000 0.000000
# 5 0.000000 0.000000 0.000000 0.000000 0.021233 0.000000
# 6 0.000000 0.000000 0.000000 0.000000 0.000000 0.131459
#
#
# Mechanical properties :
#
#
# Convention : Reuss Voigt Hill
#
# Bulk Modulus (GPa) = 23.80236 23.82634 23.81435
# Shear Modulus (GPa) = 168.69148 29.69447 99.19298
#
# Velocity S-wave (km/s) = 8.60944 3.61215 6.60190
# Velocity P-wave (km/s) = 10.45412 5.27883 8.28115
#
# Compressibility (1/GPa) = 0.04201265
#
# Stress axis : x y z
#
# Youngs Moduli (GPa) = 91.85950 88.24279 84.26263
#
# Poissons Ratio (x) = -0.13846 -0.08618
# Poissons Ratio (y) = -0.14414 -0.11555
# Poissons Ratio (z) = -0.09395 -0.12101
#
# Static dielectric constant tensor:
#      x y z
#    x 1.778490 0.000000 0.000000 
#    y 0.000000 1.916700 0.000000 
#    z 0.000000 0.000000 1.797980 
# 
# From -- ./inp_files/6188.got.cif
#   From: 2010.05.17/outbox.cif.g08.bks.cpg/sg71_4_cif.got.tgz:6188.got - 2010.06.03 16:22:01.
