data_PCOD9519345
_publ_section_title
;
Structure prediction by ZEFSAII (Michael W. Deem and Ramdas Pophale) SiO2 
 PCOD9519345
Probable space group: I M M M
;
_chemical_formula_sum "Si O2"
_cell_formula_units_Z 88
_cell_length_a 7.791864
_cell_length_b 19.077204
_cell_length_c 29.314385
_cell_angle_alpha 90.000000
_cell_angle_beta 90.000000
_cell_angle_gamma 90.000000
_cell_volume 4357.494773
_symmetry_space_group_name_H-M "I M M M"
_symmetry_group_IT_number 71
_symmetry_cell_setting 'orthorhombic'
loop_
_space_group_symop_operation_xyz
x,y,z
-x,-y,z
x,-y,-z
-x,y,-z
-x,-y,-z
x,y,-z
-x,y,z
x,-y,z
1/2+x,1/2+y,1/2+z
1/2-x,1/2-y,1/2+z
1/2+x,1/2-y,1/2-z
1/2-x,1/2+y,1/2-z
1/2-x,1/2-y,1/2-z
1/2+x,1/2+y,1/2-z
1/2-x,1/2+y,1/2+z
1/2+x,1/2-y,1/2+z
loop_
_atom_site_type_symbol
_atom_site_label
_atom_site_fract_x
_atom_site_fract_y
_atom_site_fract_z
Si Si1 0.209331 0.421838 0.052818
Si Si2 0.211155 0.292304 0.885399
Si Si3 0.292333 0.079364 0.207598
Si Si4 0.797609 0.500000 0.448898
Si Si5 0.706182 0.184506 0.281883
Si Si6 0.702511 0.636966 0.390669
O O1 0.263110 0.500000 0.068198
O O2 0.267475 0.356909 0.083297
O O3 0.000000 0.421484 0.053818
O O4 0.260049 0.413344 0.000000
O O5 0.268530 0.305006 0.833268
O O6 0.270374 0.215050 0.901384
O O7 0.000000 0.291856 0.885684
O O8 0.500000 0.078008 0.208504
O O9 0.231456 0.117260 0.253532
O O10 0.241582 0.121001 0.162249
O O11 0.229547 0.000000 0.203821
O O12 0.719787 0.500000 0.500000
O O13 0.757415 0.570587 0.420773
O O14 0.000000 0.500000 0.453669
O O15 0.500000 0.179571 0.284890
O O16 0.750000 0.250000 0.250000
O O17 0.500000 0.640746 0.396091
#
# Coordination Sequence:
#
# PCOD9519345 Si02
#       6
#    16  16  16   8  16  16
#     4   8  14  26  45  69 100 138 171 204 257 318
#     4   9  18  30  47  75 108 138 175 223 268 314
#     4  10  20  33  51  74 102 141 184 221 265 321
#     4  11  25  43  59  77 107 143 183 231 276 325
#     4  10  19  32  49  72 104 139 176 217 262 312
#     4  11  21  34  55  80 106 139 179 223 274 325
#
# _framework density 20.19509
#
# number of rings (size 3 to 8) (size 9 to 14) (size 15 to 20)
#    0.000    2.273    2.727    1.364    0.000    2.182 
#    0.000    5.455    0.000    0.000    0.000    0.000 
#    0.000    2.909    0.000   20.000    0.000   17.818 
#
# Total GULP energy -245485.123367 kJ/mol
# GULP energy per Si atom -5579.207349 kJ/mol
# Density = 2.014913 g / cm^3
# Si number density = 20.195090 Si / 1000 Ang^3
#
#
#
# Elastic Constant Matrix: (Units=GPa)
#
#
# Indices 1 2 3 4 5 6 
#
# 1 27.0992 10.4028 7.8737 0.0000 0.0000 0.0000
# 2 10.4028 215.7180 104.0262 0.0000 0.0000 0.0000
# 3 7.8737 104.0262 126.4619 0.0000 0.0000 0.0000
# 4 0.0000 0.0000 0.0000 40.7778 0.0000 0.0000
# 5 0.0000 0.0000 0.0000 0.0000 6.5290 0.0000
# 6 0.0000 0.0000 0.0000 0.0000 0.0000 0.5174
#
#
#
# Elastic Compliance Matrix: (Units=1/GPa)
#
#
# Indices 1 2 3 4 5 6 
#
# 1 0.037749 -0.001139 -0.001414 0.000000 0.000000 0.000000
# 2 -0.001139 0.007718 -0.006278 0.000000 0.000000 0.000000
# 3 -0.001414 -0.006278 0.013160 0.000000 0.000000 0.000000
# 4 0.000000 0.000000 0.000000 0.024523 0.000000 0.000000
# 5 0.000000 0.000000 0.000000 0.000000 0.153163 0.000000
# 6 0.000000 0.000000 0.000000 0.000000 0.000000 1.932917
#
#
# Mechanical properties :
#
#
# Convention : Reuss Voigt Hill
#
# Bulk Modulus (GPa) = 24.41020 68.20941 46.30980
# Shear Modulus (GPa) = 2.27216 26.02991 14.15103
#
# Velocity S-wave (km/s) = 1.06186 3.59405 2.64998
# Velocity P-wave (km/s) = 3.69010 7.14643 5.68719
#
# Compressibility (1/GPa) = 0.04096649
#
# Stress axis : x y z
#
# Youngs Moduli (GPa) = 26.49057 129.56781 75.99010
#
# Poissons Ratio (x) = 0.14754 0.10742
# Poissons Ratio (y) = 0.03017 0.47705
# Poissons Ratio (z) = 0.03745 0.81340
#
# Static dielectric constant tensor:
#      x y z
#    x 1.742640 0.000000 0.000000 
#    y 0.000000 1.736750 0.000000 
#    z 0.000000 0.000000 1.726480 
# 
# From -- ./inp_files/68027.got.cif
#   From: 2010.05.17/outbox.cif.g08.bks.cpg/sg71_35_cif.got.tgz:68027.got - 2010.06.03 16:22:01.
