data_PCOD9519182
_publ_section_title
;
Structure prediction by ZEFSAII (Michael W. Deem and Ramdas Pophale) SiO2 
 PCOD9519182
Probable space group: I M M M
;
_chemical_formula_sum "Si O2"
_cell_formula_units_Z 72
_cell_length_a 14.784648
_cell_length_b 8.305371
_cell_length_c 32.601910
_cell_angle_alpha 90.000000
_cell_angle_beta 90.000000
_cell_angle_gamma 90.000000
_cell_volume 4003.253301
_symmetry_space_group_name_H-M "I M M M"
_symmetry_group_IT_number 71
_symmetry_cell_setting 'orthorhombic'
loop_
_space_group_symop_operation_xyz
x,y,z
-x,-y,z
x,-y,-z
-x,y,-z
-x,-y,-z
x,y,-z
-x,y,z
x,-y,z
1/2+x,1/2+y,1/2+z
1/2-x,1/2-y,1/2+z
1/2+x,1/2-y,1/2-z
1/2-x,1/2+y,1/2-z
1/2-x,1/2-y,1/2-z
1/2+x,1/2+y,1/2-z
1/2-x,1/2+y,1/2+z
1/2+x,1/2-y,1/2+z
loop_
_atom_site_type_symbol
_atom_site_label
_atom_site_fract_x
_atom_site_fract_y
_atom_site_fract_z
Si Si1 0.303506 0.189972 0.954061
Si Si2 0.809961 0.308189 0.211692
Si Si3 0.302489 0.195539 0.133796
Si Si4 0.000000 0.692591 0.336046
Si Si5 0.000000 0.180873 0.548532
Si Si6 0.000000 0.809702 0.757409
O O1 0.265431 0.253054 0.910746
O O2 0.409838 0.217551 0.944991
O O3 0.284642 0.000000 0.956439
O O4 0.283582 0.257883 0.000000
O O5 0.812827 0.500000 0.211961
O O6 0.750000 0.250000 0.250000
O O7 0.762231 0.248454 0.170405
O O8 0.910248 0.241314 0.218555
O O9 0.405280 0.252926 0.144525
O O10 0.305412 0.000000 0.132762
O O11 0.000000 0.729872 0.287699
O O12 0.000000 0.500000 0.341394
O O13 0.000000 0.156638 0.500000
O O14 0.000000 0.000000 0.567127
O O15 0.000000 0.000000 0.751092
#
# Coordination Sequence:
#
# PCOD9519182 Si02
#       6
#    16  16  16   8   8   8
#     4   9  17  30  48  70  99 138 181 221 263 312
#     4  12  24  39  58  82 111 142 179 224 270 323
#     4  10  20  34  53  79 110 146 186 227 269 318
#     4  10  19  31  50  75 109 148 187 227 266 311
#     4   9  16  25  39  62  95 134 175 219 263 308
#     4  12  24  39  59  81 107 144 182 221 270 325
#
# _framework density 17.985371000000001
#
# number of rings (size 3 to 8) (size 9 to 14) (size 15 to 20)
#    0.000    1.667    2.222    4.000    0.000    4.000 
#    0.000    1.111    0.000    0.000    0.000    0.778 
#    0.000    6.222    0.000    0.000    0.000    0.000 
#
# Total GULP energy -200657.766537 kJ/mol
# GULP energy per Si atom -5573.826848 kJ/mol
# Density = 1.794444 g / cm^3
# Si number density = 17.985371 Si / 1000 Ang^3
#
#
#
# Elastic Constant Matrix: (Units=GPa)
#
#
# Indices 1 2 3 4 5 6 
#
# 1 92.2136 5.7425 53.2843 0.0000 0.0000 0.0000
# 2 5.7425 16.9264 -4.4546 0.0000 0.0000 0.0000
# 3 53.2843 -4.4546 169.4178 0.0000 0.0000 0.0000
# 4 0.0000 0.0000 0.0000 20.1471 0.0000 0.0000
# 5 0.0000 0.0000 0.0000 0.0000 42.4249 0.0000
# 6 0.0000 0.0000 0.0000 0.0000 0.0000 20.9165
#
#
#
# Elastic Compliance Matrix: (Units=1/GPa)
#
#
# Indices 1 2 3 4 5 6 
#
# 1 0.013809 -0.005868 -0.004497 0.000000 0.000000 0.000000
# 2 -0.005868 0.061985 0.003475 0.000000 0.000000 0.000000
# 3 -0.004497 0.003475 0.007408 0.000000 0.000000 0.000000
# 4 0.000000 0.000000 0.000000 0.049635 0.000000 0.000000
# 5 0.000000 0.000000 0.000000 0.000000 0.023571 0.000000
# 6 0.000000 0.000000 0.000000 0.000000 0.000000 0.047809
#
#
# Mechanical properties :
#
#
# Convention : Reuss Voigt Hill
#
# Bulk Modulus (GPa) = 14.40473 43.07801 28.74137
# Shear Modulus (GPa) = 20.73505 31.63009 26.18257
#
# Velocity S-wave (km/s) = 3.39910 4.19818 3.81960
# Velocity P-wave (km/s) = 4.84063 6.89227 5.95546
#
# Compressibility (1/GPa) = 0.06942162
#
# Stress axis : x y z
#
# Youngs Moduli (GPa) = 72.41915 16.13297 134.98186
#
# Poissons Ratio (x) = 0.09467 0.60705
# Poissons Ratio (y) = 0.42497 -0.46912
# Poissons Ratio (z) = 0.32569 -0.05607
#
# Static dielectric constant tensor:
#      x y z
#    x 1.702150 0.000000 0.000000 
#    y 0.000000 1.652630 0.000000 
#    z 0.000000 0.000000 1.682900 
# 
# From -- ./inp_files/67868.got.cif
#   From: 2010.05.17/outbox.cif.g08.bks.cpg/sg71_34_cif.got.tgz:67868.got - 2010.06.03 16:22:01.
