data_PCOD9519063
_publ_section_title
;
Structure prediction by ZEFSAII (Michael W. Deem and Ramdas Pophale) SiO2 
 PCOD9519063
Probable space group: I M M M
;
_chemical_formula_sum "Si O2"
_cell_formula_units_Z 80
_cell_length_a 13.806851
_cell_length_b 26.638620
_cell_length_c 12.435621
_cell_angle_alpha 90.000000
_cell_angle_beta 90.000000
_cell_angle_gamma 90.000000
_cell_volume 4573.764911
_symmetry_space_group_name_H-M "I M M M"
_symmetry_group_IT_number 71
_symmetry_cell_setting 'orthorhombic'
loop_
_space_group_symop_operation_xyz
x,y,z
-x,-y,z
x,-y,-z
-x,y,-z
-x,-y,-z
x,y,-z
-x,y,z
x,-y,z
1/2+x,1/2+y,1/2+z
1/2-x,1/2-y,1/2+z
1/2+x,1/2-y,1/2-z
1/2-x,1/2+y,1/2-z
1/2-x,1/2-y,1/2-z
1/2+x,1/2+y,1/2-z
1/2-x,1/2+y,1/2+z
1/2+x,1/2-y,1/2+z
loop_
_atom_site_type_symbol
_atom_site_label
_atom_site_fract_x
_atom_site_fract_y
_atom_site_fract_z
Si Si1 0.108774 0.266279 0.772922
Si Si2 0.791991 0.193190 0.620715
Si Si3 0.246504 0.584146 0.207094
Si Si4 0.888470 0.366240 0.372350
Si Si5 0.384489 0.500000 0.129321
Si Si6 0.394837 0.000000 0.373299
O O1 0.134792 0.216206 0.707537
O O2 0.191594 0.276795 0.859934
O O3 0.116559 0.312506 0.688033
O O4 0.000000 0.265480 0.815766
O O5 0.827646 0.199967 0.500000
O O6 0.768809 0.135347 0.644564
O O7 0.197833 0.600707 0.320367
O O8 0.339201 0.548121 0.190805
O O9 0.162896 0.549746 0.156809
O O10 0.876599 0.360926 0.500000
O O11 0.000000 0.384995 0.352985
O O12 0.500000 0.500000 0.132937
O O13 0.356305 0.500000 0.000000
O O14 0.500000 0.000000 0.321258
O O15 0.403532 0.000000 0.500000
#
# Coordination Sequence:
#
# PCOD9519063 Si02
#       6
#    16  16  16  16   8   8
#     4   9  19  33  48  71 103 134 163 198 241 290
#     4  10  19  31  50  75 100 129 166 205 244 288
#     4  10  19  33  51  73 100 126 163 207 245 288
#     4   9  17  31  52  76 102 132 161 192 239 296
#     4  10  21  37  54  71  96 131 167 206 252 294
#     4  10  19  31  48  70  98 128 153 189 250 309
#
# _framework density 17.491060999999998
#
# number of rings (size 3 to 8) (size 9 to 14) (size 15 to 20)
#    0.000    2.400    0.000    3.600    0.000    3.200 
#    0.000    2.000    0.000    6.600    0.000    0.000 
#    0.000    0.000    0.000    0.000    0.000    0.000 
#
# Total GULP energy -222737.790453 kJ/mol
# GULP energy per Si atom -5568.444761 kJ/mol
# Density = 1.745125 g / cm^3
# Si number density = 17.491061 Si / 1000 Ang^3
#
#
#
# Elastic Constant Matrix: (Units=GPa)
#
#
# Indices 1 2 3 4 5 6 
#
# 1 69.4600 7.6757 -10.0953 0.0000 0.0000 0.0000
# 2 7.6757 76.5511 1.4324 0.0000 0.0000 0.0000
# 3 -10.0953 1.4324 33.9080 -0.0001 0.0000 0.0000
# 4 0.0000 0.0000 -0.0001 11.1324 0.0000 0.0000
# 5 0.0000 0.0000 0.0000 0.0000 18.8393 0.0000
# 6 0.0000 0.0000 0.0000 0.0000 0.0000 5.6831
#
#
#
# Elastic Compliance Matrix: (Units=1/GPa)
#
#
# Indices 1 2 3 4 5 6 
#
# 1 0.015245 -0.001615 0.004607 0.000000 0.000000 0.000000
# 2 -0.001615 0.013245 -0.001040 0.000000 0.000000 0.000000
# 3 0.004607 -0.001040 0.030907 0.000000 0.000000 0.000000
# 4 0.000000 0.000000 0.000000 0.089828 0.000000 0.000000
# 5 0.000000 0.000000 0.000000 0.000000 0.053080 0.000000
# 6 0.000000 0.000000 0.000000 0.000000 0.000000 0.175961
#
#
# Mechanical properties :
#
#
# Convention : Reuss Voigt Hill
#
# Bulk Modulus (GPa) = 15.79771 19.77166 17.78468
# Shear Modulus (GPa) = 12.64343 19.19137 15.91740
#
# Velocity S-wave (km/s) = 2.69151 3.31601 3.01994
# Velocity P-wave (km/s) = 4.32555 5.09800 4.72758
#
# Compressibility (1/GPa) = 0.06330031
#
# Stress axis : x y z
#
# Youngs Moduli (GPa) = 65.59620 75.50280 32.35495
#
# Poissons Ratio (x) = 0.12192 -0.14906
# Poissons Ratio (y) = 0.10592 0.03366
# Poissons Ratio (z) = -0.30220 0.07854
#
# Static dielectric constant tensor:
#      x y z
#    x 1.620170 0.000000 0.000000 
#    y 0.000000 1.588870 0.000000 
#    z 0.000000 0.000000 1.572440 
# 
# From -- ./inp_files/22216.got.cif
#   From: 2010.05.17/outbox.cif.g08.bks.cpg/sg71_12_cif.got.tgz:22216.got - 2010.06.03 16:22:01.
