data_PCOD9519333
_publ_section_title
;
Structure prediction by ZEFSAII (Michael W. Deem and Ramdas Pophale) SiO2 
 PCOD9519333
Probable space group: I M M M
;
_chemical_formula_sum "Si O2"
_cell_formula_units_Z 116
_cell_length_a 7.643205
_cell_length_b 26.880923
_cell_length_c 23.626466
_cell_angle_alpha 90.000000
_cell_angle_beta 90.000000
_cell_angle_gamma 90.000000
_cell_volume 4854.208769
_symmetry_space_group_name_H-M "I M M M"
_symmetry_group_IT_number 71
_symmetry_cell_setting 'orthorhombic'
loop_
_space_group_symop_operation_xyz
x,y,z
-x,-y,z
x,-y,-z
-x,y,-z
-x,-y,-z
x,y,-z
-x,y,z
x,-y,z
1/2+x,1/2+y,1/2+z
1/2-x,1/2-y,1/2+z
1/2+x,1/2-y,1/2-z
1/2-x,1/2+y,1/2-z
1/2-x,1/2-y,1/2-z
1/2+x,1/2+y,1/2-z
1/2-x,1/2+y,1/2+z
1/2+x,1/2-y,1/2+z
loop_
_atom_site_type_symbol
_atom_site_label
_atom_site_fract_x
_atom_site_fract_y
_atom_site_fract_z
Si Si1 0.212762 0.946648 0.871753
Si Si2 0.291070 0.160030 0.563666
Si Si3 0.800681 0.930217 0.250887
Si Si4 0.806607 0.652819 0.437156
Si Si5 0.206697 0.320660 0.268867
Si Si6 0.000000 0.198240 0.000000
Si Si7 0.711892 0.444893 0.122273
Si Si8 0.289893 0.237527 0.343891
O O1 0.279057 0.949313 0.807158
O O2 0.272272 0.894246 0.897299
O O3 0.000000 0.944349 0.871212
O O4 0.260263 0.000000 0.899494
O O5 0.220470 0.163388 0.500000
O O6 0.500000 0.168424 0.560255
O O7 0.266540 0.104550 0.588646
O O8 0.222113 0.203120 0.605344
O O9 0.802122 0.871931 0.239152
O O10 0.723353 0.940399 0.312658
O O11 0.000000 0.948101 0.254011
O O12 0.806623 0.627826 0.500000
O O13 0.653880 0.693013 0.450055
O O14 0.000000 0.674285 0.427920
O O15 0.238196 0.293950 0.328994
O O16 0.268304 0.289165 0.214551
O O17 0.000000 0.328974 0.263143
O O18 0.500000 0.443721 0.122707
O O19 0.764281 0.500000 0.100419
O O20 0.500000 0.235891 0.344937
#
# Coordination Sequence:
#
# PCOD9519333 Si02
#       8
#    16  16  16  16  16   4  16  16
#     4  10  19  32  49  70 100 140 186 235 286 341
#     4  10  21  38  60  86 116 153 198 246 295 352
#     4  10  20  34  54  79 111 151 192 235 289 351
#     4   9  17  30  49  71  94 127 172 225 283 337
#     4  10  19  32  55  84 112 141 176 228 288 346
#     4   8  14  32  49  68  96 126 166 228 284 336
#     4  10  21  37  56  81 117 160 205 250 295 347
#     4   9  18  34  56  83 112 141 179 230 289 348
#
# _framework density 23.896788999999998
#
# number of rings (size 3 to 8) (size 9 to 14) (size 15 to 20)
#    0.414    1.931    2.069    0.828    0.000    4.690 
#    0.000    3.103    0.000    3.310    0.000    1.931 
#    0.000    0.000    0.000    0.000    0.000    0.000 
#
# Total GULP energy -323040.238254 kJ/mol
# GULP energy per Si atom -5569.659280 kJ/mol
# Density = 2.384240 g / cm^3
# Si number density = 23.896789 Si / 1000 Ang^3
#
#
#
# Elastic Constant Matrix: (Units=GPa)
#
#
# Indices 1 2 3 4 5 6 
#
# 1 75.6844 3.7141 8.9930 0.0000 0.0000 0.0000
# 2 3.7141 150.8341 47.2393 0.0000 0.0000 0.0000
# 3 8.9930 47.2393 128.0549 0.0000 0.0000 0.0000
# 4 0.0000 0.0000 0.0000 -32.3347 0.0000 0.0000
# 5 0.0000 0.0000 0.0000 0.0000 16.1688 0.0000
# 6 0.0000 0.0000 0.0000 0.0000 0.0000 9.4164
#
#
#
# Elastic Compliance Matrix: (Units=1/GPa)
#
#
# Indices 1 2 3 4 5 6 
#
# 1 0.013324 -0.000040 -0.000921 0.000000 0.000000 0.000000
# 2 -0.000040 0.007496 -0.002762 0.000000 0.000000 0.000000
# 3 -0.000921 -0.002762 0.008893 0.000000 0.000000 0.000000
# 4 0.000000 0.000000 0.000000 -0.030927 0.000000 0.000000
# 5 0.000000 0.000000 0.000000 0.000000 0.061848 0.000000
# 6 0.000000 0.000000 0.000000 0.000000 0.000000 0.106197
#
#
# Mechanical properties :
#
#
# Convention : Reuss Voigt Hill
#
# Bulk Modulus (GPa) = 44.91025 52.71849 48.81437
# Shear Modulus (GPa) = 27.51788 18.29190 22.90489
#
# Velocity S-wave (km/s) = 3.39710 2.76969 3.09931
# Velocity P-wave (km/s) = 5.84990 5.68656 5.76881
#
# Compressibility (1/GPa) = 0.02226663
#
# Stress axis : x y z
#
# Youngs Moduli (GPa) = 75.05162 133.40550 112.44917
#
# Poissons Ratio (x) = 0.00528 0.10358
# Poissons Ratio (y) = 0.00297 0.31064
# Poissons Ratio (z) = 0.06913 0.36853
#
# Static dielectric constant tensor:
#      x y z
#    x 1.928670 0.000000 0.000000 
#    y 0.000000 1.979590 0.000000 
#    z 0.000000 0.000000 1.948560 
# 
# From -- ./inp_files/58097.got.cif
#   From: 2010.05.17/outbox.cif.g08.bks.cpg/sg71_30_cif.got.tgz:58097.got - 2010.06.03 16:22:01.
