data_PCOD9519202
_publ_section_title
;
Structure prediction by ZEFSAII (Michael W. Deem and Ramdas Pophale) SiO2 
 PCOD9519202
Probable space group: I M M M
;
_chemical_formula_sum "Si O2"
_cell_formula_units_Z 104
_cell_length_a 30.476287
_cell_length_b 9.598979
_cell_length_c 20.225349
_cell_angle_alpha 90.000000
_cell_angle_beta 90.000000
_cell_angle_gamma 90.000000
_cell_volume 5916.748654
_symmetry_space_group_name_H-M "I M M M"
_symmetry_group_IT_number 71
_symmetry_cell_setting 'orthorhombic'
loop_
_space_group_symop_operation_xyz
x,y,z
-x,-y,z
x,-y,-z
-x,y,-z
-x,-y,-z
x,y,-z
-x,y,z
x,-y,z
1/2+x,1/2+y,1/2+z
1/2-x,1/2-y,1/2+z
1/2+x,1/2-y,1/2-z
1/2-x,1/2+y,1/2-z
1/2-x,1/2-y,1/2-z
1/2+x,1/2+y,1/2-z
1/2-x,1/2+y,1/2+z
1/2+x,1/2-y,1/2+z
loop_
_atom_site_type_symbol
_atom_site_label
_atom_site_fract_x
_atom_site_fract_y
_atom_site_fract_z
Si Si1 0.182285 0.345948 0.000000
Si Si2 0.500000 0.840610 0.080553
Si Si3 0.083193 0.839860 0.580108
Si Si4 0.834234 0.659371 0.385647
Si Si5 0.051520 0.832855 0.921525
Si Si6 0.732886 0.164803 0.000000
Si Si7 0.794368 0.339248 0.240144
Si Si8 0.630113 0.162729 0.636437
O O1 0.220771 0.236521 0.000000
O O2 0.153126 0.332987 0.935008
O O3 0.202652 0.500000 0.000000
O O4 0.457557 0.754461 0.101495
O O5 0.500000 0.000000 0.103347
O O6 0.500000 0.843447 0.000000
O O7 0.084348 0.838581 0.500000
O O8 0.126688 0.766424 0.605421
O O9 0.078840 0.000000 0.601088
O O10 0.848017 0.500000 0.403564
O O11 0.795492 0.700504 0.435567
O O12 0.817047 0.658401 0.311555
O O13 0.085851 0.752226 0.874457
O O14 0.000000 0.801088 0.907921
O O15 0.057291 0.000000 0.914777
O O16 0.059127 0.799462 0.000000
O O17 0.739137 0.000000 0.000000
O O18 0.783140 0.500000 0.221364
O O19 0.750000 0.250000 0.250000
O O20 0.831929 0.289662 0.188224
O O21 0.619903 0.000000 0.652386
#
# Coordination Sequence:
#
# PCOD9519202 Si02
#       8
#     8   8  16  16  16   8  16  16
#     4  10  20  32  49  75 107 136 168 212 262 313
#     4   9  17  29  49  75 105 139 169 204 257 314
#     4  10  19  31  50  78 106 132 167 214 262 309
#     4  10  20  35  53  74 102 137 177 221 266 317
#     4   9  18  33  55  85 116 144 179 225 274 326
#     4  10  20  32  50  74 100 132 176 223 263 311
#     4  10  22  38  56  78 108 144 184 226 271 327
#     4  10  20  35  54  80 111 144 181 222 269 326
#
# _framework density 17.577221999999999
#
# number of rings (size 3 to 8) (size 9 to 14) (size 15 to 20)
#    0.000    2.231    1.538    2.077    0.000    4.308 
#    0.000    0.769    1.692    0.000    0.000    0.000 
#    0.000    0.000    0.000    0.000    0.000    0.000 
#
# Total GULP energy -289877.569281 kJ/mol
# GULP energy per Si atom -5574.568640 kJ/mol
# Density = 1.753722 g / cm^3
# Si number density = 17.577222 Si / 1000 Ang^3
#
#
#
# Elastic Constant Matrix: (Units=GPa)
#
#
# Indices 1 2 3 4 5 6 
#
# 1 125.3653 75.9466 20.4886 0.0000 0.0000 0.0000
# 2 75.9466 94.1566 10.2392 0.0000 0.0000 0.0000
# 3 20.4886 10.2392 60.6474 0.0000 0.0000 0.0000
# 4 0.0000 0.0000 0.0000 -4.9894 0.0000 0.0000
# 5 0.0000 0.0000 0.0000 0.0000 32.1792 0.0000
# 6 0.0000 0.0000 0.0000 0.0000 0.0000 43.8916
#
#
#
# Elastic Compliance Matrix: (Units=1/GPa)
#
#
# Indices 1 2 3 4 5 6 
#
# 1 0.016235 -0.012733 -0.003335 0.000000 0.000000 0.000000
# 2 -0.012733 0.020805 0.000789 0.000000 0.000000 0.000000
# 3 -0.003335 0.000789 0.017482 0.000000 0.000000 0.000000
# 4 0.000000 0.000000 0.000000 -0.200423 0.000000 0.000000
# 5 0.000000 0.000000 0.000000 0.000000 0.031076 0.000000
# 6 0.000000 0.000000 0.000000 0.000000 0.000000 0.022783
#
#
# Mechanical properties :
#
#
# Convention : Reuss Voigt Hill
#
# Bulk Modulus (GPa) = 41.72780 54.83535 48.28158
# Shear Modulus (GPa) = -93.46486 25.78260 -33.84113
#
# Velocity S-wave (km/s) = -7.29995 3.83406 -4.39257
# Velocity P-wave (km/s) = 6.87467 7.13194 1.34228
#
# Compressibility (1/GPa) = 0.02396484
#
# Stress axis : x y z
#
# Youngs Moduli (GPa) = 61.59472 48.06563 57.20091
#
# Poissons Ratio (x) = 0.61200 0.19077
# Poissons Ratio (y) = 0.78426 -0.04513
# Poissons Ratio (z) = 0.20542 -0.03792
#
# Static dielectric constant tensor:
#      x y z
#    x 1.584130 0.000000 0.000000 
#    y 0.000000 1.611080 0.000000 
#    z 0.000000 0.000000 1.594410 
# 
# From -- ./inp_files/56753.got.cif
#   From: 2010.05.17/outbox.cif.g08.bks.cpg/sg71_29_cif.got.tgz:56753.got - 2010.06.03 16:22:01.
