data_PCOD9519051
_publ_section_title
;
Structure prediction by ZEFSAII (Michael W. Deem and Ramdas Pophale) SiO2 
 PCOD9519051
Probable space group: I M M M
;
_chemical_formula_sum "Si O2"
_cell_formula_units_Z 80
_cell_length_a 23.678116
_cell_length_b 17.968499
_cell_length_c 12.391603
_cell_angle_alpha 90.000000
_cell_angle_beta 90.000000
_cell_angle_gamma 90.000000
_cell_volume 5272.133936
_symmetry_space_group_name_H-M "I M M M"
_symmetry_group_IT_number 71
_symmetry_cell_setting 'orthorhombic'
loop_
_space_group_symop_operation_xyz
x,y,z
-x,-y,z
x,-y,-z
-x,y,-z
-x,-y,-z
x,y,-z
-x,y,z
x,-y,z
1/2+x,1/2+y,1/2+z
1/2-x,1/2-y,1/2+z
1/2+x,1/2-y,1/2-z
1/2-x,1/2+y,1/2-z
1/2-x,1/2-y,1/2-z
1/2+x,1/2+y,1/2-z
1/2-x,1/2+y,1/2+z
1/2+x,1/2-y,1/2+z
loop_
_atom_site_type_symbol
_atom_site_label
_atom_site_fract_x
_atom_site_fract_y
_atom_site_fract_z
Si Si1 0.434965 0.000000 0.368414
Si Si2 0.369868 0.852133 0.631039
Si Si3 0.749845 0.911530 0.628295
Si Si4 0.371750 0.410961 0.781463
Si Si5 0.066522 0.201328 0.130039
Si Si6 0.935627 0.090349 0.500000
O O1 0.403668 0.925292 0.332559
O O2 0.500000 0.000000 0.335632
O O3 0.433594 0.000000 0.500000
O O4 0.370701 0.852882 0.500000
O O5 0.304429 0.863317 0.660998
O O6 0.401639 0.777221 0.664454
O O7 0.761745 0.899919 0.500000
O O8 0.805607 0.896048 0.697512
O O9 0.736076 0.000000 0.638241
O O10 0.378303 0.500000 0.767912
O O11 0.400692 0.366477 0.685228
O O12 0.403537 0.387822 0.891563
O O13 0.000000 0.202527 0.159343
O O14 0.069452 0.196425 0.000000
O O15 0.000000 0.116426 0.500000
O O16 0.935934 0.000000 0.500000
#
# Coordination Sequence:
#
# PCOD9519051 Si02
#       6
#     8  16  16  16  16   8
#     4   9  14  22  40  66  92 121 155 186 223 276
#     4   9  16  27  44  67  92 124 152 186 232 276
#     4   9  15  27  47  71  97 116 146 188 239 288
#     4  10  19  31  48  69  90 123 158 194 236 273
#     4  10  21  34  45  63  96 131 161 190 222 269
#     4   9  16  28  46  68  88 109 147 199 243 273
#
# _framework density 15.174121
#
# number of rings (size 3 to 8) (size 9 to 14) (size 15 to 20)
#    0.000    2.600    2.000    1.200    0.000    4.800 
#    0.000    1.000    0.000    0.000    0.000    0.000 
#    0.000    0.800    0.000    4.000    0.000    1.300 
#
# Total GULP energy -222775.576556 kJ/mol
# GULP energy per Si atom -5569.389414 kJ/mol
# Density = 1.513958 g / cm^3
# Si number density = 15.174121 Si / 1000 Ang^3
#
#
#
# Elastic Constant Matrix: (Units=GPa)
#
#
# Indices 1 2 3 4 5 6 
#
# 1 145.7172 67.7049 33.0104 0.0000 0.0000 0.0000
# 2 67.7049 78.5487 25.9019 0.0000 0.0000 0.0000
# 3 33.0104 25.9019 24.8322 0.0000 0.0000 0.0000
# 4 0.0000 0.0000 0.0000 13.9018 0.0000 0.0000
# 5 0.0000 0.0000 0.0000 0.0000 15.6337 0.0000
# 6 0.0000 0.0000 0.0000 0.0000 0.0000 25.1151
#
#
#
# Elastic Compliance Matrix: (Units=1/GPa)
#
#
# Indices 1 2 3 4 5 6 
#
# 1 0.012445 -0.008036 -0.008162 0.000000 0.000000 0.000000
# 2 -0.008036 0.024594 -0.014972 0.000000 0.000000 0.000000
# 3 -0.008162 -0.014972 0.066737 0.000000 0.000000 0.000000
# 4 0.000000 0.000000 0.000000 0.071933 0.000000 0.000000
# 5 0.000000 0.000000 0.000000 0.000000 0.063964 0.000000
# 6 0.000000 0.000000 0.000000 0.000000 0.000000 0.039817
#
#
# Mechanical properties :
#
#
# Convention : Reuss Voigt Hill
#
# Bulk Modulus (GPa) = 24.13258 55.81472 39.97365
# Shear Modulus (GPa) = 14.05909 19.09552 16.57730
#
# Velocity S-wave (km/s) = 3.04718 3.55128 3.30884
# Velocity P-wave (km/s) = 5.32153 7.32654 6.40300
#
# Compressibility (1/GPa) = 0.04143776
#
# Stress axis : x y z
#
# Youngs Moduli (GPa) = 80.35185 40.66001 14.98419
#
# Poissons Ratio (x) = 0.32673 0.12230
# Poissons Ratio (y) = 0.64568 0.22434
# Poissons Ratio (z) = 0.65585 0.60874
#
# Static dielectric constant tensor:
#      x y z
#    x 1.519110 0.000000 0.000000 
#    y 0.000000 1.498970 0.000000 
#    z 0.000000 0.000000 1.481620 
# 
# From -- ./inp_files/25569.got.cif
#   From: 2010.05.17/outbox.cif.g08.bks.cpg/sg71_13_cif.got.tgz:25569.got - 2010.06.03 16:22:01.
