data_PCOD9519758
_publ_section_title
;
Structure prediction by ZEFSAII (Michael W. Deem and Ramdas Pophale) SiO2 
 PCOD9519758
Probable space group: I M M M
;
_chemical_formula_sum "Si O2"
_cell_formula_units_Z 56
_cell_length_a 19.660311
_cell_length_b 13.570037
_cell_length_c 13.196241
_cell_angle_alpha 90.000000
_cell_angle_beta 90.000000
_cell_angle_gamma 90.000000
_cell_volume 3520.640282
_symmetry_space_group_name_H-M "I M M M"
_symmetry_group_IT_number 71
_symmetry_cell_setting 'orthorhombic'
loop_
_space_group_symop_operation_xyz
x,y,z
-x,-y,z
x,-y,-z
-x,y,-z
-x,-y,-z
x,y,-z
-x,y,z
x,-y,z
1/2+x,1/2+y,1/2+z
1/2-x,1/2-y,1/2+z
1/2+x,1/2-y,1/2-z
1/2-x,1/2+y,1/2-z
1/2-x,1/2-y,1/2-z
1/2+x,1/2+y,1/2-z
1/2-x,1/2+y,1/2+z
1/2+x,1/2-y,1/2+z
loop_
_atom_site_type_symbol
_atom_site_label
_atom_site_fract_x
_atom_site_fract_y
_atom_site_fract_z
Si Si1 0.293951 0.500000 0.617162
Si Si2 0.861597 0.500000 0.684213
Si Si3 0.420754 0.209005 0.120754
Si Si4 0.804170 0.834367 0.722434
Si Si5 0.279406 0.000000 0.615381
O O1 0.313435 0.500000 0.500000
O O2 0.211525 0.500000 0.627325
O O3 0.317155 0.596247 0.679956
O O4 0.901243 0.598383 0.654625
O O5 0.840011 0.500000 0.802411
O O6 0.500000 0.227917 0.141548
O O7 0.370986 0.283774 0.178203
O O8 0.409604 0.216587 0.000000
O O9 0.750000 0.750000 0.750000
O O10 0.767408 0.905797 0.641595
O O11 0.301807 0.000000 0.500000
#
# Coordination Sequence:
#
# PCOD9519758 Si02
#       5
#     8   8  16  16   8
#     4  10  20  33  57  82 107 139 180 228 268 307
#     4  10  19  33  51  84 114 136 173 221 267 326
#     4  11  21  34  55  82 113 144 173 217 275 326
#     4  10  19  35  53  81 109 140 179 224 260 313
#     4  10  20  33  54  79 108 139 177 226 266 302
#
# _framework density 15.906198
#
# number of rings (size 3 to 8) (size 9 to 14) (size 15 to 20)
#    0.000    2.000    5.714    2.571    0.000    2.286 
#    0.000    2.857    0.000   12.857    0.000    0.000 
#    0.000    0.000    0.000    0.000    0.000    0.000 
#
# Total GULP energy -156176.389347 kJ/mol
# GULP energy per Si atom -5577.728191 kJ/mol
# Density = 1.586999 g / cm^3
# Si number density = 15.906198 Si / 1000 Ang^3
#
#
#
# Elastic Constant Matrix: (Units=GPa)
#
#
# Indices 1 2 3 4 5 6 
#
# 1 117.5748 64.8041 66.1040 0.0000 0.0000 0.0000
# 2 64.8041 130.6426 61.8641 0.0000 0.0000 0.0000
# 3 66.1040 61.8641 140.0350 0.0000 0.0000 0.0000
# 4 0.0000 0.0000 0.0000 6.1163 0.0000 0.0000
# 5 0.0000 0.0000 0.0000 0.0000 21.7112 0.0000
# 6 0.0000 0.0000 0.0000 0.0000 0.0000 15.4558
#
#
#
# Elastic Compliance Matrix: (Units=1/GPa)
#
#
# Indices 1 2 3 4 5 6 
#
# 1 0.013495 -0.004650 -0.004316 0.000000 0.000000 0.000000
# 2 -0.004650 0.011282 -0.002789 0.000000 0.000000 0.000000
# 3 -0.004316 -0.002789 0.010410 0.000000 0.000000 0.000000
# 4 0.000000 0.000000 0.000000 0.163498 0.000000 0.000000
# 5 0.000000 0.000000 0.000000 0.000000 0.046059 0.000000
# 6 0.000000 0.000000 0.000000 0.000000 0.000000 0.064701
#
#
# Mechanical properties :
#
#
# Convention : Reuss Voigt Hill
#
# Bulk Modulus (GPa) = 85.63800 85.97742 85.80771
# Shear Modulus (GPa) = 14.84352 21.68867 18.26609
#
# Velocity S-wave (km/s) = 3.05813 3.69661 3.39243
# Velocity P-wave (km/s) = 8.15020 8.50824 8.33114
#
# Compressibility (1/GPa) = 0.01167706
#
# Stress axis : x y z
#
# Youngs Moduli (GPa) = 74.10233 88.63815 96.05711
#
# Poissons Ratio (x) = 0.41219 0.41457
# Poissons Ratio (y) = 0.34459 0.26789
# Poissons Ratio (z) = 0.31982 0.24720
#
# Static dielectric constant tensor:
#      x y z
#    x 1.506680 0.000000 0.000000 
#    y 0.000000 1.543430 0.000000 
#    z 0.000000 0.000000 1.530750 
# 
# From -- ./inp_files/35788.got.cif
#   From: 2010.05.17/outbox.cif.g08.bks.cpg/sg71_18_cif.got.tgz:35788.got - 2010.06.03 16:22:01.
