data_PCOD9519399
_publ_section_title
;
Structure prediction by ZEFSAII (Michael W. Deem and Ramdas Pophale) SiO2 
 PCOD9519399
Probable space group: I M M M
;
_chemical_formula_sum "Si O2"
_cell_formula_units_Z 88
_cell_length_a 28.425442
_cell_length_b 10.096793
_cell_length_c 14.179852
_cell_angle_alpha 90.000000
_cell_angle_beta 90.000000
_cell_angle_gamma 90.000000
_cell_volume 4069.699821
_symmetry_space_group_name_H-M "I M M M"
_symmetry_group_IT_number 71
_symmetry_cell_setting 'orthorhombic'
loop_
_space_group_symop_operation_xyz
x,y,z
-x,-y,z
x,-y,-z
-x,y,-z
-x,-y,-z
x,y,-z
-x,y,z
x,-y,z
1/2+x,1/2+y,1/2+z
1/2-x,1/2-y,1/2+z
1/2+x,1/2-y,1/2-z
1/2-x,1/2+y,1/2-z
1/2-x,1/2-y,1/2-z
1/2+x,1/2+y,1/2-z
1/2-x,1/2+y,1/2+z
1/2+x,1/2-y,1/2+z
loop_
_atom_site_type_symbol
_atom_site_label
_atom_site_fract_x
_atom_site_fract_y
_atom_site_fract_z
Si Si1 0.688558 0.343291 0.613447
Si Si2 0.150145 0.359807 0.611320
Si Si3 0.055656 0.227394 0.392486
Si Si4 0.908192 0.149093 0.198104
Si Si5 0.774706 0.848712 0.385598
Si Si6 0.000000 0.155412 0.888805
O O1 0.681482 0.334061 0.500000
O O2 0.698103 0.500000 0.633333
O O3 0.641645 0.294654 0.666879
O O4 0.731679 0.247840 0.639611
O O5 0.161691 0.366018 0.500000
O O6 0.165020 0.500000 0.654900
O O7 0.093684 0.345349 0.615405
O O8 0.178029 0.229606 0.643320
O O9 0.060690 0.174343 0.500000
O O10 0.075708 0.141510 0.306681
O O11 0.000000 0.255072 0.379534
O O12 0.952418 0.218743 0.149223
O O13 0.904815 0.000000 0.158948
O O14 0.774522 0.857678 0.500000
O O15 0.727334 0.500000 0.149784
O O16 0.000000 0.000000 0.855326
O O17 0.000000 0.153682 0.000000
#
# Coordination Sequence:
#
# PCOD9519399 Si02
#       6
#    16  16  16  16  16   8
#     4   9  17  31  54  83 115 151 189 230 279 336
#     4   9  18  34  57  83 112 149 193 239 285 336
#     4  10  21  36  54  78 109 146 190 238 288 339
#     4  10  19  32  50  78 114 150 190 234 281 336
#     4   9  17  31  54  85 118 150 186 231 285 344
#     4   9  16  28  49  77 110 147 187 231 278 330
#
# _framework density 21.623217
#
# number of rings (size 3 to 8) (size 9 to 14) (size 15 to 20)
#    0.000    2.636    0.909    1.091    0.000    5.818 
#    0.000    6.364    0.000    0.000    0.000    0.000 
#    0.000    4.364    0.000    0.000    0.000    0.000 
#
# Total GULP energy -245026.989824 kJ/mol
# GULP energy per Si atom -5568.795223 kJ/mol
# Density = 2.157400 g / cm^3
# Si number density = 21.623217 Si / 1000 Ang^3
#
#
#
# Elastic Constant Matrix: (Units=GPa)
#
#
# Indices 1 2 3 4 5 6 
#
# 1 186.4060 77.6067 53.5392 0.0000 0.0000 0.0000
# 2 77.6067 121.2558 15.1211 0.0000 0.0000 0.0000
# 3 53.5392 15.1211 88.9033 0.0000 0.0000 0.0000
# 4 0.0000 0.0000 0.0000 5.1777 0.0000 0.0000
# 5 0.0000 0.0000 0.0000 0.0000 27.0648 0.0000
# 6 0.0000 0.0000 0.0000 0.0000 0.0000 19.1841
#
#
#
# Elastic Compliance Matrix: (Units=1/GPa)
#
#
# Indices 1 2 3 4 5 6 
#
# 1 0.008724 -0.005035 -0.004397 0.000000 0.000000 0.000000
# 2 -0.005035 0.011332 0.001105 0.000000 0.000000 0.000000
# 3 -0.004397 0.001105 0.013708 0.000000 0.000000 0.000000
# 4 0.000000 0.000000 0.000000 0.193135 0.000000 0.000000
# 5 0.000000 0.000000 0.000000 0.000000 0.036948 0.000000
# 6 0.000000 0.000000 0.000000 0.000000 0.000000 0.052127
#
#
# Mechanical properties :
#
#
# Convention : Reuss Voigt Hill
#
# Bulk Modulus (GPa) = 58.44862 76.56654 67.50758
# Shear Modulus (GPa) = 14.77838 26.97186 20.87512
#
# Velocity S-wave (km/s) = 2.61712 3.53563 3.11046
# Velocity P-wave (km/s) = 6.01844 7.22176 6.64738
#
# Compressibility (1/GPa) = 0.01710904
#
# Stress axis : x y z
#
# Youngs Moduli (GPa) = 114.62746 88.24666 72.94802
#
# Poissons Ratio (x) = 0.44434 0.32077
# Poissons Ratio (y) = 0.57717 -0.08060
# Poissons Ratio (z) = 0.50405 -0.09750
#
# Static dielectric constant tensor:
#      x y z
#    x 1.840190 0.000000 0.000000 
#    y 0.000000 1.797160 0.000000 
#    z 0.000000 0.000000 1.813450 
# 
# From -- ./inp_files/40173.got.cif
#   From: 2010.05.17/outbox.cif.g08.bks.cpg/sg71_21_cif.got.tgz:40173.got - 2010.06.03 16:22:01.
