data_PCOD9519776
_publ_section_title
;
Structure prediction by ZEFSAII (Michael W. Deem and Ramdas Pophale) SiO2 
 PCOD9519776
Probable space group: I M M M
;
_chemical_formula_sum "Si O2"
_cell_formula_units_Z 88
_cell_length_a 23.421620
_cell_length_b 21.524188
_cell_length_c 7.205498
_cell_angle_alpha 90.000000
_cell_angle_beta 90.000000
_cell_angle_gamma 90.000000
_cell_volume 3632.517450
_symmetry_space_group_name_H-M "I M M M"
_symmetry_group_IT_number 71
_symmetry_cell_setting 'orthorhombic'
loop_
_space_group_symop_operation_xyz
x,y,z
-x,-y,z
x,-y,-z
-x,y,-z
-x,-y,-z
x,y,-z
-x,y,z
x,-y,z
1/2+x,1/2+y,1/2+z
1/2-x,1/2-y,1/2+z
1/2+x,1/2-y,1/2-z
1/2-x,1/2+y,1/2-z
1/2-x,1/2-y,1/2-z
1/2+x,1/2+y,1/2-z
1/2-x,1/2+y,1/2+z
1/2+x,1/2-y,1/2+z
loop_
_atom_site_type_symbol
_atom_site_label
_atom_site_fract_x
_atom_site_fract_y
_atom_site_fract_z
Si Si1 0.921165 0.000000 0.275531
Si Si2 0.440385 0.637020 0.225279
Si Si3 0.732291 0.873533 0.275360
Si Si4 0.167822 0.784916 0.274382
Si Si5 0.891103 0.342808 0.709464
Si Si6 0.209759 0.000000 0.724698
Si Si7 0.500000 0.074136 0.773978
O O1 0.943171 0.066069 0.213416
O O2 0.855538 0.000000 0.227423
O O3 0.928228 0.000000 0.500000
O O4 0.500000 0.669352 0.280674
O O5 0.380530 0.665663 0.280113
O O6 0.439030 0.638111 0.000000
O O7 0.731118 0.870969 0.500000
O O8 0.770751 0.813751 0.214814
O O9 0.667686 0.880662 0.207857
O O10 0.763266 0.935876 0.214803
O O11 0.171296 0.780687 0.500000
O O12 0.137461 0.720795 0.209391
O O13 0.909421 0.325642 0.500000
O O14 0.943576 0.385074 0.782744
O O15 0.213416 0.000000 0.500000
O O16 0.500000 0.000000 0.717206
O O17 0.500000 0.072058 0.000000
#
# Coordination Sequence:
#
# PCOD9519776 Si02
#       7
#     8  16  16  16  16   8   8
#     4   9  13  22  35  57  92 131 161 187 226 281
#     4   9  15  21  35  60  94 130 161 191 229 279
#     4  10  19  33  52  74 103 134 163 199 248 299
#     4   9  17  29  46  71 100 130 163 201 245 296
#     4  10  21  35  54  76  98 127 167 208 252 302
#     4   9  16  27  45  67  94 130 164 191 234 294
#     4   9  20  38  55  73 101 134 168 214 265 303
#
# _framework density 24.225622999999999
#
# number of rings (size 3 to 8) (size 9 to 14) (size 15 to 20)
#    0.000    2.636    1.818    0.818    2.545    1.091 
#    0.000    0.455    0.000    0.545    0.000    0.000 
#    0.000    0.000    0.000    1.636    0.000    1.818 
#
# Total GULP energy -245196.173621 kJ/mol
# GULP energy per Si atom -5572.640310 kJ/mol
# Density = 2.417048 g / cm^3
# Si number density = 24.225623 Si / 1000 Ang^3
#
#
#
# Elastic Constant Matrix: (Units=GPa)
#
#
# Indices 1 2 3 4 5 6 
#
# 1 215.0986 83.4740 -1.7250 0.0000 0.0000 0.0000
# 2 83.4740 137.4527 2.1678 0.0000 0.0000 0.0000
# 3 -1.7250 2.1678 119.6027 0.0000 0.0000 0.0000
# 4 0.0000 0.0000 0.0000 -13.4412 0.0000 0.0000
# 5 0.0000 0.0000 0.0000 0.0000 44.7206 0.0000
# 6 0.0000 0.0000 0.0000 0.0000 0.0000 34.7890
#
#
#
# Elastic Compliance Matrix: (Units=1/GPa)
#
#
# Indices 1 2 3 4 5 6 
#
# 1 0.006085 -0.003698 0.000155 0.000000 0.000000 0.000000
# 2 -0.003698 0.009525 -0.000226 0.000000 0.000000 0.000000
# 3 0.000155 -0.000226 0.008367 0.000000 0.000000 0.000000
# 4 0.000000 0.000000 0.000000 -0.074398 0.000000 0.000000
# 5 0.000000 0.000000 0.000000 0.000000 0.022361 0.000000
# 6 0.000000 0.000000 0.000000 0.000000 0.000000 0.028745
#
#
# Mechanical properties :
#
#
# Convention : Reuss Voigt Hill
#
# Bulk Modulus (GPa) = 60.83142 71.10972 65.97057
# Shear Modulus (GPa) = 364.88017 39.09615 201.98816
#
# Velocity S-wave (km/s) = 12.28594 4.02161 9.14106
# Velocity P-wave (km/s) = 15.04740 7.14012 11.77721
#
# Compressibility (1/GPa) = 0.01643887
#
# Stress axis : x y z
#
# Youngs Moduli (GPa) = 164.32808 104.99133 119.51228
#
# Poissons Ratio (x) = 0.38826 -0.01850
# Poissons Ratio (y) = 0.60769 0.02701
# Poissons Ratio (z) = -0.02544 0.02372
#
# Static dielectric constant tensor:
#      x y z
#    x 1.956900 0.000000 0.000000 
#    y 0.000000 1.968470 0.000000 
#    z 0.000000 0.000000 1.998350 
# 
# From -- ./inp_files/12637.got.cif
#   From: 2010.05.17/outbox.cif.g08.bks.cpg/sg71_7_cif.got.tgz:12637.got - 2010.06.03 16:22:01.
