data_PCOD9519719
_publ_section_title
;
Structure prediction by ZEFSAII (Michael W. Deem and Ramdas Pophale) SiO2 
 PCOD9519719
Probable space group: I M M M
;
_chemical_formula_sum "Si O2"
_cell_formula_units_Z 72
_cell_length_a 16.223502
_cell_length_b 26.377149
_cell_length_c 10.044735
_cell_angle_alpha 90.000000
_cell_angle_beta 90.000000
_cell_angle_gamma 90.000000
_cell_volume 4298.440732
_symmetry_space_group_name_H-M "I M M M"
_symmetry_group_IT_number 71
_symmetry_cell_setting 'orthorhombic'
loop_
_space_group_symop_operation_xyz
x,y,z
-x,-y,z
x,-y,-z
-x,y,-z
-x,-y,-z
x,y,-z
-x,y,z
x,-y,z
1/2+x,1/2+y,1/2+z
1/2-x,1/2-y,1/2+z
1/2+x,1/2-y,1/2-z
1/2-x,1/2+y,1/2-z
1/2-x,1/2-y,1/2-z
1/2+x,1/2+y,1/2-z
1/2-x,1/2+y,1/2+z
1/2+x,1/2-y,1/2+z
loop_
_atom_site_type_symbol
_atom_site_label
_atom_site_fract_x
_atom_site_fract_y
_atom_site_fract_z
Si Si1 0.096302 0.152430 0.500000
Si Si2 0.599221 0.839677 0.500000
Si Si3 0.300011 0.057644 0.500000
Si Si4 0.303568 0.801520 0.245117
Si Si5 0.402673 0.439151 0.500000
Si Si6 0.690053 0.601623 0.764165
Si Si7 0.402080 0.233070 0.000000
O O1 0.123876 0.123643 0.368103
O O2 0.132355 0.209187 0.500000
O O3 0.000000 0.157146 0.500000
O O4 0.500000 0.836440 0.500000
O O5 0.631206 0.898140 0.500000
O O6 0.642660 0.812534 0.624569
O O7 0.245665 0.066925 0.364637
O O8 0.330376 0.000000 0.500000
O O9 0.250000 0.750000 0.250000
O O10 0.245422 0.850133 0.223008
O O11 0.367500 0.794857 0.127152
O O12 0.403154 0.500000 0.500000
O O13 0.500000 0.422371 0.500000
O O14 0.354102 0.421414 0.634027
O O15 0.500000 0.234497 0.000000
#
# Coordination Sequence:
#
# PCOD9519719 Si02
#       7
#     8   8   8  16   8  16   8
#     4  10  19  33  50  74 103 136 177 217 256 308
#     4  10  22  37  55  83 114 140 179 229 275 318
#     4   9  19  36  61  81 100 139 184 227 275 325
#     4  11  20  36  55  77 109 144 180 215 260 317
#     4  11  23  37  53  78 110 141 178 229 281 318
#     4  10  20  36  55  77 106 140 180 221 265 324
#     4  11  21  33  51  74 105 142 177 210 255 310
#
# _framework density 16.750260000000001
#
# number of rings (size 3 to 8) (size 9 to 14) (size 15 to 20)
#    0.000    1.667    2.222    4.000    0.000    0.222 
#    0.000    1.111    0.000    5.333    0.000    0.000 
#    0.000   16.000    0.000    0.000    0.000    0.000 
#
# Total GULP energy -200660.652401 kJ/mol
# GULP energy per Si atom -5573.907011 kJ/mol
# Density = 1.671214 g / cm^3
# Si number density = 16.750260 Si / 1000 Ang^3
#
#
#
# Elastic Constant Matrix: (Units=GPa)
#
#
# Indices 1 2 3 4 5 6 
#
# 1 115.5932 50.9076 65.4420 0.0000 0.0000 0.0000
# 2 50.9076 104.4536 63.1543 0.0001 -0.0001 0.0000
# 3 65.4420 63.1543 158.8825 0.0007 -0.0001 -0.0001
# 4 0.0000 0.0001 0.0007 18.6303 -0.0001 0.0000
# 5 0.0000 -0.0001 -0.0001 -0.0001 33.7990 0.0000
# 6 0.0000 0.0000 -0.0001 0.0000 0.0000 19.0113
#
#
#
# Elastic Compliance Matrix: (Units=1/GPa)
#
#
# Indices 1 2 3 4 5 6 
#
# 1 0.012372 -0.003882 -0.003553 0.000000 0.000000 0.000000
# 2 -0.003882 0.013820 -0.003895 0.000000 0.000000 0.000000
# 3 -0.003553 -0.003895 0.009305 0.000000 0.000000 0.000000
# 4 0.000000 0.000000 0.000000 0.053676 0.000000 0.000000
# 5 0.000000 0.000000 0.000000 0.000000 0.029587 0.000000
# 6 0.000000 0.000000 0.000000 0.000000 0.000000 0.052600
#
#
# Mechanical properties :
#
#
# Convention : Reuss Voigt Hill
#
# Bulk Modulus (GPa) = 77.88607 81.99303 79.93955
# Shear Modulus (GPa) = 25.21451 27.58315 26.39883
#
# Velocity S-wave (km/s) = 3.88405 4.06239 3.97423
# Velocity P-wave (km/s) = 8.16786 8.42975 8.29983
#
# Compressibility (1/GPa) = 0.01283927
#
# Stress axis : x y z
#
# Youngs Moduli (GPa) = 80.82785 72.35834 107.46368
#
# Poissons Ratio (x) = 0.28086 0.38182
# Poissons Ratio (y) = 0.31374 0.41853
# Poissons Ratio (z) = 0.28718 0.28181
#
# Static dielectric constant tensor:
#      x y z
#    x 1.588220 0.000000 0.000000 
#    y 0.000000 1.563320 0.000000 
#    z 0.000000 0.000000 1.526500 
# 
# From -- ./inp_files/6258.got.cif
#   From: 2010.05.17/outbox.cif.g08.bks.cpg/sg71_4_cif.got.tgz:6258.got - 2010.06.03 16:22:01.
