data_PCOD9519813
_publ_section_title
;
Structure prediction by ZEFSAII (Michael W. Deem and Ramdas Pophale) SiO2 
 PCOD9519813
Probable space group: I M M M
;
_chemical_formula_sum "Si O2"
_cell_formula_units_Z 88
_cell_length_a 8.199610
_cell_length_b 31.362536
_cell_length_c 15.145836
_cell_angle_alpha 90.000000
_cell_angle_beta 90.000000
_cell_angle_gamma 90.000000
_cell_volume 3894.911725
_symmetry_space_group_name_H-M "I M M M"
_symmetry_group_IT_number 71
_symmetry_cell_setting 'orthorhombic'
loop_
_space_group_symop_operation_xyz
x,y,z
-x,-y,z
x,-y,-z
-x,y,-z
-x,-y,-z
x,y,-z
-x,y,z
x,-y,z
1/2+x,1/2+y,1/2+z
1/2-x,1/2-y,1/2+z
1/2+x,1/2-y,1/2-z
1/2-x,1/2+y,1/2-z
1/2-x,1/2-y,1/2-z
1/2+x,1/2+y,1/2-z
1/2-x,1/2+y,1/2+z
1/2+x,1/2-y,1/2+z
loop_
_atom_site_type_symbol
_atom_site_label
_atom_site_fract_x
_atom_site_fract_y
_atom_site_fract_z
Si Si1 0.500000 0.451147 0.607846
Si Si2 0.805663 0.769743 0.341718
Si Si3 0.195219 0.045949 0.392657
Si Si4 0.823186 0.598582 0.608187
Si Si5 0.802275 0.862036 0.605037
Si Si6 0.677999 0.684355 0.399049
O O1 0.500000 0.500000 0.636626
O O2 0.500000 0.450429 0.500000
O O3 0.336095 0.427282 0.637256
O O4 0.750000 0.750000 0.250000
O O5 0.742339 0.817590 0.354655
O O6 0.738844 0.732440 0.403299
O O7 0.000000 0.770857 0.350369
O O8 0.212069 0.046532 0.500000
O O9 0.259840 0.091982 0.361278
O O10 0.000000 0.045664 0.375522
O O11 0.261360 0.000000 0.361470
O O12 0.827031 0.595790 0.500000
O O13 0.796127 0.647860 0.637020
O O14 0.000000 0.583118 0.638717
O O15 0.770367 0.859455 0.500000
O O16 0.000000 0.862770 0.615168
O O17 0.657760 0.670665 0.500000
O O18 0.500000 0.682501 0.354297
#
# Coordination Sequence:
#
# PCOD9519813 Si02
#       6
#     8  16  16  16  16  16
#     4   9  16  26  40  64 100 132 160 204 256 306
#     4  11  22  34  47  67  98 133 172 212 257 310
#     4   7   9  15  31  58  91 122 149 182 231 290
#     4   9  16  27  44  67  95 128 166 204 248 304
#     4   8  14  25  42  65  94 127 162 202 248 302
#     4  10  19  33  53  74  97 126 164 212 262 314
#
# _framework density 22.593581
#
# number of rings (size 3 to 8) (size 9 to 14) (size 15 to 20)
#    0.000    3.000    0.909    3.273    0.000    2.182 
#    0.000    1.818    0.000    0.000    0.000    1.273 
#    0.000    4.364    0.000   20.545    0.000   16.909 
#
# Total GULP energy -245161.635577 kJ/mol
# GULP energy per Si atom -5571.855354 kJ/mol
# Density = 2.254216 g / cm^3
# Si number density = 22.593581 Si / 1000 Ang^3
#
#
#
# Elastic Constant Matrix: (Units=GPa)
#
#
# Indices 1 2 3 4 5 6 
#
# 1 105.8757 58.1922 3.3471 0.0000 0.0000 0.0000
# 2 58.1922 243.8673 17.9354 0.0000 0.0000 0.0000
# 3 3.3471 17.9354 22.1206 -0.0001 0.0000 0.0000
# 4 0.0000 0.0000 -0.0001 6.8403 0.0000 0.0000
# 5 0.0000 0.0000 0.0000 0.0000 8.5632 0.0000
# 6 0.0000 0.0000 0.0000 0.0000 0.0000 19.3742
#
#
#
# Elastic Compliance Matrix: (Units=1/GPa)
#
#
# Indices 1 2 3 4 5 6 
#
# 1 0.010876 -0.002631 0.000488 0.000000 0.000000 0.000000
# 2 -0.002631 0.004997 -0.003654 0.000000 0.000000 0.000000
# 3 0.000488 -0.003654 0.048095 0.000001 0.000000 0.000000
# 4 0.000000 0.000000 0.000001 0.146193 0.000000 0.000000
# 5 0.000000 0.000000 0.000000 0.000000 0.116778 0.000000
# 6 0.000000 0.000000 0.000000 0.000000 0.000000 0.051615
#
#
# Mechanical properties :
#
#
# Convention : Reuss Voigt Hill
#
# Bulk Modulus (GPa) = 19.09341 58.97924 39.03632
# Shear Modulus (GPa) = 12.26673 26.44812 19.35742
#
# Velocity S-wave (km/s) = 2.33261 3.42512 2.93023
# Velocity P-wave (km/s) = 3.96534 6.46553 5.36316
#
# Compressibility (1/GPa) = 0.05237410
#
# Stress axis : x y z
#
# Youngs Moduli (GPa) = 91.94786 200.11508 20.79209
#
# Poissons Ratio (x) = 0.52651 -0.01014
# Poissons Ratio (y) = 0.24192 0.07597
# Poissons Ratio (z) = -0.04484 0.73113
#
# Static dielectric constant tensor:
#      x y z
#    x 1.848680 0.000000 0.000000 
#    y 0.000000 1.887440 0.000000 
#    z 0.000000 0.000000 1.783340 
# 
# From -- ./inp_files/42448.got.cif
#   From: 2010.05.17/outbox.cif.g08.bks.cpg/sg71_22_cif.got.tgz:42448.got - 2010.06.03 16:22:01.
