data_PCOD9519641
_publ_section_title
;
Structure prediction by ZEFSAII (Michael W. Deem and Ramdas Pophale) SiO2 
 PCOD9519641
Probable space group: I M M M
;
_chemical_formula_sum "Si O2"
_cell_formula_units_Z 88
_cell_length_a 19.840854
_cell_length_b 7.921160
_cell_length_c 29.276101
_cell_angle_alpha 90.000000
_cell_angle_beta 90.000000
_cell_angle_gamma 90.000000
_cell_volume 4601.107538
_symmetry_space_group_name_H-M "I M M M"
_symmetry_group_IT_number 71
_symmetry_cell_setting 'orthorhombic'
loop_
_space_group_symop_operation_xyz
x,y,z
-x,-y,z
x,-y,-z
-x,y,-z
-x,-y,-z
x,y,-z
-x,y,z
x,-y,z
1/2+x,1/2+y,1/2+z
1/2-x,1/2-y,1/2+z
1/2+x,1/2-y,1/2-z
1/2-x,1/2+y,1/2-z
1/2-x,1/2-y,1/2-z
1/2+x,1/2+y,1/2-z
1/2-x,1/2+y,1/2+z
1/2+x,1/2-y,1/2+z
loop_
_atom_site_type_symbol
_atom_site_label
_atom_site_fract_x
_atom_site_fract_y
_atom_site_fract_z
Si Si1 0.805309 0.294702 0.053619
Si Si2 0.341370 0.301742 0.294257
Si Si3 0.924347 0.700100 0.119859
Si Si4 0.661151 0.195187 0.906617
Si Si5 0.575856 0.500000 0.054355
Si Si6 0.812168 0.701934 0.697516
O O1 0.800524 0.500000 0.056936
O O2 0.869532 0.235643 0.083252
O O3 0.737367 0.219819 0.075208
O O4 0.810919 0.252359 0.000000
O O5 0.340330 0.500000 0.304332
O O6 0.393599 0.223723 0.329609
O O7 0.265240 0.232835 0.301860
O O8 0.352674 0.274701 0.240406
O O9 0.928875 0.500000 0.111466
O O10 0.000000 0.771236 0.116200
O O11 0.615038 0.332642 0.930617
O O12 0.659624 0.232914 0.852547
O O13 0.641483 0.000000 0.914077
O O14 0.500000 0.500000 0.072849
O O15 0.573607 0.500000 0.000000
O O16 0.809157 0.500000 0.704166
#
# Coordination Sequence:
#
# PCOD9519641 Si02
#       6
#    16  16  16  16   8  16
#     4  10  20  35  58  87 119 158 208 261 306 354
#     4  10  19  32  54  83 113 150 193 242 299 360
#     4  10  21  36  54  79 119 167 208 252 305 361
#     4  11  22  39  66  96 124 158 202 253 306 363
#     4  11  26  46  66  92 127 161 197 245 307 379
#     4   9  19  34  56  87 116 144 191 247 297 355
#
# _framework density 19.125829
#
# number of rings (size 3 to 8) (size 9 to 14) (size 15 to 20)
#    0.000    1.909    2.727    1.091    1.273    3.273 
#    0.000    3.636    0.000    1.091    0.000    2.545 
#    0.000    0.000    0.000    0.000    0.000    0.000 
#
# Total GULP energy -245612.255462 kJ/mol
# GULP energy per Si atom -5582.096715 kJ/mol
# Density = 1.908230 g / cm^3
# Si number density = 19.125829 Si / 1000 Ang^3
#
#
#
# Elastic Constant Matrix: (Units=GPa)
#
#
# Indices 1 2 3 4 5 6 
#
# 1 112.2075 32.9238 51.4258 0.0000 0.0000 0.0000
# 2 32.9238 52.4407 33.1653 0.0000 0.0000 0.0000
# 3 51.4258 33.1653 108.6700 0.0000 0.0000 0.0000
# 4 0.0000 0.0000 0.0000 25.5844 0.0000 0.0000
# 5 0.0000 0.0000 0.0000 0.0000 20.6729 0.0000
# 6 0.0000 0.0000 0.0000 0.0000 0.0000 3.4822
#
#
#
# Elastic Compliance Matrix: (Units=1/GPa)
#
#
# Indices 1 2 3 4 5 6 
#
# 1 0.012368 -0.005035 -0.004316 0.000000 0.000000 0.000000
# 2 -0.005035 0.025680 -0.005455 0.000000 0.000000 0.000000
# 3 -0.004316 -0.005455 0.012909 0.000000 0.000000 0.000000
# 4 0.000000 0.000000 0.000000 0.039086 0.000000 0.000000
# 5 0.000000 0.000000 0.000000 0.000000 0.048372 0.000000
# 6 0.000000 0.000000 0.000000 0.000000 0.000000 0.287178
#
#
# Mechanical properties :
#
#
# Convention : Reuss Voigt Hill
#
# Bulk Modulus (GPa) = 46.84836 56.48311 51.66574
# Shear Modulus (GPa) = 10.81503 20.33478 15.57490
#
# Velocity S-wave (km/s) = 2.38053 3.26423 2.85676
# Velocity P-wave (km/s) = 5.66603 6.61841 6.16065
#
# Compressibility (1/GPa) = 0.02134546
#
# Stress axis : x y z
#
# Youngs Moduli (GPa) = 80.85699 38.94083 77.46333
#
# Poissons Ratio (x) = 0.19607 0.33433
# Poissons Ratio (y) = 0.40712 0.42253
# Poissons Ratio (z) = 0.34898 0.21241
#
# Static dielectric constant tensor:
#      x y z
#    x 1.658330 0.000000 0.000000 
#    y 0.000000 1.668570 0.000000 
#    z 0.000000 0.000000 1.660070 
# 
# From -- ./inp_files/70345.got.cif
#   From: 2010.05.17/outbox.cif.g08.bks.cpg/sg71_36_cif.got.tgz:70345.got - 2010.06.03 16:22:01.
