data_PCOD9519698
_publ_section_title
;
Structure prediction by ZEFSAII (Michael W. Deem and Ramdas Pophale) SiO2 
 PCOD9519698
Probable space group: I M M M
;
_chemical_formula_sum "Si O2"
_cell_formula_units_Z 100
_cell_length_a 29.134904
_cell_length_b 27.097529
_cell_length_c 7.741146
_cell_angle_alpha 90.000000
_cell_angle_beta 90.000000
_cell_angle_gamma 90.000000
_cell_volume 6111.510181
_symmetry_space_group_name_H-M "I M M M"
_symmetry_group_IT_number 71
_symmetry_cell_setting 'orthorhombic'
loop_
_space_group_symop_operation_xyz
x,y,z
-x,-y,z
x,-y,-z
-x,y,-z
-x,-y,-z
x,y,-z
-x,y,z
x,-y,z
1/2+x,1/2+y,1/2+z
1/2-x,1/2-y,1/2+z
1/2+x,1/2-y,1/2-z
1/2-x,1/2+y,1/2-z
1/2-x,1/2-y,1/2-z
1/2+x,1/2+y,1/2-z
1/2-x,1/2+y,1/2+z
1/2+x,1/2-y,1/2+z
loop_
_atom_site_type_symbol
_atom_site_label
_atom_site_fract_x
_atom_site_fract_y
_atom_site_fract_z
Si Si1 0.712915 0.677300 0.300634
Si Si2 0.294233 0.055392 0.792304
Si Si3 0.553316 0.055469 0.710939
Si Si4 0.310382 0.782788 0.798387
Si Si5 0.371957 0.868719 0.699547
Si Si6 0.839545 0.000000 0.000000
Si Si7 0.311078 0.427450 0.806195
O O1 0.718633 0.662374 0.500000
O O2 0.687024 0.729468 0.288454
O O3 0.764410 0.689130 0.231100
O O4 0.687776 0.631891 0.211674
O O5 0.328902 0.094364 0.714837
O O6 0.243038 0.060543 0.720818
O O7 0.310670 0.000000 0.756481
O O8 0.291990 0.062044 0.000000
O O9 0.555883 0.055485 0.500000
O O10 0.500000 0.062334 0.757343
O O11 0.585859 0.099466 0.774247
O O12 0.567376 0.000000 0.766994
O O13 0.354084 0.817988 0.780380
O O14 0.301677 0.773395 0.000000
O O15 0.382005 0.858274 0.500000
O O16 0.835952 0.043007 0.153598
O O17 0.325129 0.441408 0.000000
#
# Coordination Sequence:
#
# PCOD9519698 Si02
#       7
#    16  16  16  16  16   4  16
#     4  10  19  33  47  63  86 114 146 188 229 276
#     4  11  20  31  40  56  84 110 139 181 230 276
#     4   8  15  29  46  64  88 115 147 192 244 299
#     4  10  20  31  45  61  84 113 145 182 232 279
#     4  11  20  28  44  67  84 107 145 188 236 289
#     4  12  22  36  44  66  88 116 151 194 219 276
#     4  12  21  32  48  63  87 118 148 184 233 275
#
# _framework density 16.362566999999999
#
# number of rings (size 3 to 8) (size 9 to 14) (size 15 to 20)
#    0.000    1.600    4.000    3.120    0.000    2.880 
#    0.000    0.000    0.000    1.920    0.000    5.600 
#    0.000    0.000    0.000    0.000    0.000    0.000 
#
# Total GULP energy -278443.490070 kJ/mol
# GULP energy per Si atom -5568.869801 kJ/mol
# Density = 1.632533 g / cm^3
# Si number density = 16.362567 Si / 1000 Ang^3
#
#
#
# Elastic Constant Matrix: (Units=GPa)
#
#
# Indices 1 2 3 4 5 6 
#
# 1 34.4904 24.5270 -5.5001 0.0000 0.0000 0.0000
# 2 24.5270 116.6922 19.1300 0.0000 0.0000 0.0000
# 3 -5.5001 19.1300 76.0048 0.0000 0.0000 0.0000
# 4 0.0000 0.0000 0.0000 25.5385 0.0000 0.0000
# 5 0.0000 0.0000 0.0000 0.0000 4.3174 0.0000
# 6 0.0000 0.0000 0.0000 0.0000 0.0000 23.8485
#
#
#
# Elastic Compliance Matrix: (Units=1/GPa)
#
#
# Indices 1 2 3 4 5 6 
#
# 1 0.035598 -0.008245 0.004651 0.000000 0.000000 0.000000
# 2 -0.008245 0.010848 -0.003327 0.000000 0.000000 0.000000
# 3 0.004651 -0.003327 0.014331 0.000000 0.000000 0.000000
# 4 0.000000 0.000000 0.000000 0.039157 0.000000 0.000000
# 5 0.000000 0.000000 0.000000 0.000000 0.231620 0.000000
# 6 0.000000 0.000000 0.000000 0.000000 0.000000 0.041931
#
#
# Mechanical properties :
#
#
# Convention : Reuss Voigt Hill
#
# Bulk Modulus (GPa) = 21.30550 33.72236 27.51393
# Shear Modulus (GPa) = 12.40783 23.34292 17.87537
#
# Velocity S-wave (km/s) = 2.75672 3.78114 3.30882
# Velocity P-wave (km/s) = 4.81475 6.30213 5.60797
#
# Compressibility (1/GPa) = 0.04693624
#
# Stress axis : x y z
#
# Youngs Moduli (GPa) = 28.09120 92.18372 69.77859
#
# Poissons Ratio (x) = 0.76003 -0.32456
# Poissons Ratio (y) = 0.23161 0.23215
# Poissons Ratio (z) = -0.13066 0.30669
#
# Static dielectric constant tensor:
#      x y z
#    x 1.521480 0.000000 0.000000 
#    y 0.000000 1.589820 0.000000 
#    z 0.000000 0.000000 1.605060 
# 
# From -- ./inp_files/17418.got.cif
#   From: 2010.05.17/outbox.cif.g08.bks.cpg/sg71_9_cif.got.tgz:17418.got - 2010.06.03 16:22:01.
