data_PCOD9519771
_publ_section_title
;
Structure prediction by ZEFSAII (Michael W. Deem and Ramdas Pophale) SiO2 
 PCOD9519771
Probable space group: I M M M
;
_chemical_formula_sum "Si O2"
_cell_formula_units_Z 80
_cell_length_a 13.472110
_cell_length_b 18.315968
_cell_length_c 20.465650
_cell_angle_alpha 90.000000
_cell_angle_beta 90.000000
_cell_angle_gamma 90.000000
_cell_volume 5049.996056
_symmetry_space_group_name_H-M "I M M M"
_symmetry_group_IT_number 71
_symmetry_cell_setting 'orthorhombic'
loop_
_space_group_symop_operation_xyz
x,y,z
-x,-y,z
x,-y,-z
-x,y,-z
-x,-y,-z
x,y,-z
-x,y,z
x,-y,z
1/2+x,1/2+y,1/2+z
1/2-x,1/2-y,1/2+z
1/2+x,1/2-y,1/2-z
1/2-x,1/2+y,1/2-z
1/2-x,1/2-y,1/2-z
1/2+x,1/2+y,1/2-z
1/2-x,1/2+y,1/2+z
1/2+x,1/2-y,1/2+z
loop_
_atom_site_type_symbol
_atom_site_label
_atom_site_fract_x
_atom_site_fract_y
_atom_site_fract_z
Si Si1 0.310630 0.156292 0.575985
Si Si2 0.887076 0.760148 0.576524
Si Si3 0.617588 0.000000 0.778189
Si Si4 0.188389 0.658813 0.310954
Si Si5 0.117167 0.500000 0.878874
Si Si6 0.112638 0.755531 0.190386
O O1 0.333217 0.170230 0.500000
O O2 0.195251 0.177370 0.587643
O O3 0.371520 0.208607 0.624489
O O4 0.334331 0.073108 0.593007
O O5 0.881304 0.739822 0.500000
O O6 0.857028 0.693904 0.623564
O O7 0.000000 0.783087 0.590568
O O8 0.666820 0.073688 0.804888
O O9 0.627059 0.000000 0.699518
O O10 0.500000 0.000000 0.793387
O O11 0.136679 0.700690 0.250195
O O12 0.304035 0.681680 0.308124
O O13 0.000000 0.500000 0.894772
O O14 0.000000 0.781534 0.195346
#
# Coordination Sequence:
#
# PCOD9519771 Si02
#       6
#    16  16   8  16   8  16
#     4  10  20  32  49  75 104 132 165 203 242 292
#     4   9  18  34  54  74  97 128 166 208 251 292
#     4  11  20  33  52  74 101 132 163 203 253 293
#     4  10  20  33  52  74  99 128 166 206 245 294
#     4  11  21  32  46  69 104 136 163 200 246 293
#     4  10  19  33  52  73  97 131 169 204 242 287
#
# _framework density 15.841597
#
# number of rings (size 3 to 8) (size 9 to 14) (size 15 to 20)
#    0.000    2.000    2.000    2.700    0.000    2.000 
#    0.000    1.500    0.000    5.400    0.000    0.000 
#    0.000    6.400    0.000    0.000    0.000    0.000 
#
# Total GULP energy -223150.015839 kJ/mol
# GULP energy per Si atom -5578.750396 kJ/mol
# Density = 1.580554 g / cm^3
# Si number density = 15.841597 Si / 1000 Ang^3
#
#
#
# Elastic Constant Matrix: (Units=GPa)
#
#
# Indices 1 2 3 4 5 6 
#
# 1 135.5395 63.3411 51.0235 0.0000 0.0000 0.0000
# 2 63.3411 120.2200 45.7804 0.0000 0.0000 0.0000
# 3 51.0235 45.7804 66.7954 0.0000 0.0000 0.0000
# 4 0.0000 0.0000 0.0000 19.6321 0.0000 0.0000
# 5 0.0000 0.0000 0.0000 0.0000 19.7403 0.0000
# 6 0.0000 0.0000 0.0000 0.0000 0.0000 9.8666
#
#
#
# Elastic Compliance Matrix: (Units=1/GPa)
#
#
# Indices 1 2 3 4 5 6 
#
# 1 0.011428 -0.003649 -0.006228 0.000000 0.000000 0.000000
# 2 -0.003649 0.012421 -0.005726 0.000000 0.000000 0.000000
# 3 -0.006228 -0.005726 0.023653 0.000000 0.000000 0.000000
# 4 0.000000 0.000000 0.000000 0.050937 0.000000 0.000000
# 5 0.000000 0.000000 0.000000 0.000000 0.050658 0.000000
# 6 0.000000 0.000000 0.000000 0.000000 0.000000 0.101352
#
#
# Mechanical properties :
#
#
# Convention : Reuss Voigt Hill
#
# Bulk Modulus (GPa) = 61.36648 71.42720 66.39684
# Shear Modulus (GPa) = 17.41626 20.67511 19.04569
#
# Velocity S-wave (km/s) = 3.31932 3.61656 3.47112
# Velocity P-wave (km/s) = 7.31520 7.91363 7.62029
#
# Compressibility (1/GPa) = 0.01629554
#
# Stress axis : x y z
#
# Youngs Moduli (GPa) = 87.50415 80.50764 42.27785
#
# Poissons Ratio (x) = 0.29380 0.26332
# Poissons Ratio (y) = 0.31933 0.24207
# Poissons Ratio (z) = 0.54501 0.46095
#
# Static dielectric constant tensor:
#      x y z
#    x 1.541040 0.000000 0.000000 
#    y 0.000000 1.484040 0.000000 
#    z 0.000000 0.000000 1.540260 
# 
# From -- ./inp_files/23871.got.cif
#   From: 2010.05.17/outbox.cif.g08.bks.cpg/sg71_12_cif.got.tgz:23871.got - 2010.06.03 16:22:01.
