data_PCOD9519304
_publ_section_title
;
Structure prediction by ZEFSAII (Michael W. Deem and Ramdas Pophale) SiO2 
 PCOD9519304
Probable space group: I M M M
;
_chemical_formula_sum "Si O2"
_cell_formula_units_Z 90
_cell_length_a 7.925395
_cell_length_b 25.219487
_cell_length_c 20.966054
_cell_angle_alpha 90.000000
_cell_angle_beta 90.000000
_cell_angle_gamma 90.000000
_cell_volume 4190.577383
_symmetry_space_group_name_H-M "I M M M"
_symmetry_group_IT_number 71
_symmetry_cell_setting 'orthorhombic'
loop_
_space_group_symop_operation_xyz
x,y,z
-x,-y,z
x,-y,-z
-x,y,-z
-x,-y,-z
x,y,-z
-x,y,z
x,-y,z
1/2+x,1/2+y,1/2+z
1/2-x,1/2-y,1/2+z
1/2+x,1/2-y,1/2-z
1/2-x,1/2+y,1/2-z
1/2-x,1/2-y,1/2-z
1/2+x,1/2+y,1/2-z
1/2-x,1/2+y,1/2+z
1/2+x,1/2-y,1/2+z
loop_
_atom_site_type_symbol
_atom_site_label
_atom_site_fract_x
_atom_site_fract_y
_atom_site_fract_z
Si Si1 0.000000 0.000000 0.000000
Si Si2 0.697789 0.390144 0.631940
Si Si3 0.295437 0.216885 0.572884
Si Si4 0.809560 0.587525 0.500000
Si Si5 0.193886 0.286760 0.691717
Si Si6 0.205585 0.594877 0.072242
Si Si7 0.297895 0.500000 0.309100
Si Si8 0.795365 0.500000 0.161938
O O1 0.846430 0.954340 0.000000
O O2 0.500000 0.396357 0.618987
O O3 0.787034 0.379083 0.564821
O O4 0.716185 0.342979 0.682250
O O5 0.765924 0.446108 0.658503
O O6 0.247866 0.230053 0.500000
O O7 0.500000 0.219845 0.576629
O O8 0.221917 0.254302 0.626673
O O9 0.245243 0.155593 0.585025
O O10 0.000000 0.564918 0.500000
O O11 0.250000 0.250000 0.750000
O O12 0.000000 0.299429 0.701319
O O13 0.262930 0.552072 0.123562
O O14 0.000000 0.594121 0.072408
O O15 0.257991 0.580769 0.000000
O O16 0.500000 0.500000 0.318796
O O17 0.262123 0.500000 0.234448
O O18 0.000000 0.500000 0.161511
#
# Coordination Sequence:
#
# PCOD9519304 Si02
#       8
#     2  16  16   8  16  16   8   8
#     4  12  22  44  68 110 152 192 230 292 362 404
#     4  11  24  47  73  98 135 178 225 281 351 415
#     4   9  19  38  64  92 125 170 216 265 324 393
#     4  12  25  43  75 110 141 187 238 292 352 425
#     4  12  27  45  67  97 132 175 227 285 346 418
#     4   8  15  30  55  88 122 157 204 253 307 371
#     4  10  25  43  63  89 128 172 210 259 331 406
#     4  10  19  31  56  90 124 162 207 262 309 368
#
# _framework density 21.476754
#
# number of rings (size 3 to 8) (size 9 to 14) (size 15 to 20)
#    0.000    1.778    0.889    4.133    4.978    2.844 
#    0.000    0.000    0.000    2.133    0.000    0.000 
#    0.000    0.000    0.000    0.000    0.000    0.000 
#
# Total GULP energy -251210.560243 kJ/mol
# GULP energy per Si atom -5582.456894 kJ/mol
# Density = 2.142787 g / cm^3
# Si number density = 21.476754 Si / 1000 Ang^3
#
#
#
# Elastic Constant Matrix: (Units=GPa)
#
#
# Indices 1 2 3 4 5 6 
#
# 1 67.2530 8.7954 7.7932 0.0000 0.0000 0.0000
# 2 8.7954 108.4303 65.8170 0.0000 0.0000 0.0000
# 3 7.7932 65.8170 103.1978 -0.0001 0.0000 0.0000
# 4 0.0000 0.0000 -0.0001 49.8016 0.0000 0.0000
# 5 0.0000 0.0000 0.0000 0.0000 32.6218 0.0000
# 6 0.0000 0.0000 0.0000 0.0000 0.0000 13.7905
#
#
#
# Elastic Compliance Matrix: (Units=1/GPa)
#
#
# Indices 1 2 3 4 5 6 
#
# 1 0.015050 -0.000866 -0.000584 0.000000 0.000000 0.000000
# 2 -0.000866 0.015098 -0.009564 0.000000 0.000000 0.000000
# 3 -0.000584 -0.009564 0.015834 0.000000 0.000000 0.000000
# 4 0.000000 0.000000 0.000000 0.020080 0.000000 0.000000
# 5 0.000000 0.000000 0.000000 0.000000 0.030654 0.000000
# 6 0.000000 0.000000 0.000000 0.000000 0.000000 0.072513
#
#
# Mechanical properties :
#
#
# Convention : Reuss Voigt Hill
#
# Bulk Modulus (GPa) = 41.74700 49.29915 45.52307
# Shear Modulus (GPa) = 25.09513 32.34115 28.71814
#
# Velocity S-wave (km/s) = 3.42201 3.88476 3.66071
# Velocity P-wave (km/s) = 5.92402 6.56706 6.25381
#
# Compressibility (1/GPa) = 0.02395382
#
# Stress axis : x y z
#
# Youngs Moduli (GPa) = 66.44426 66.23436 63.15644
#
# Poissons Ratio (x) = 0.05738 0.03689
# Poissons Ratio (y) = 0.05756 0.60401
# Poissons Ratio (z) = 0.03881 0.63344
#
# Static dielectric constant tensor:
#      x y z
#    x 1.786540 0.000000 0.000000 
#    y 0.000000 1.553230 0.000000 
#    z 0.000000 0.000000 1.719430 
# 
# From -- ./inp_files/50627.got.cif
#   From: 2010.05.17/outbox.cif.g08.bks.cpg/sg71_26_cif.got.tgz:50627.got - 2010.06.03 16:22:01.
