data_PCOD9519374
_publ_section_title
;
Structure prediction by ZEFSAII (Michael W. Deem and Ramdas Pophale) SiO2 
 PCOD9519374
Probable space group: I M M M
;
_chemical_formula_sum "Si O2"
_cell_formula_units_Z 72
_cell_length_a 8.284744
_cell_length_b 24.339209
_cell_length_c 15.908346
_cell_angle_alpha 90.000000
_cell_angle_beta 90.000000
_cell_angle_gamma 90.000000
_cell_volume 3207.824362
_symmetry_space_group_name_H-M "I M M M"
_symmetry_group_IT_number 71
_symmetry_cell_setting 'orthorhombic'
loop_
_space_group_symop_operation_xyz
x,y,z
-x,-y,z
x,-y,-z
-x,y,-z
-x,-y,-z
x,y,-z
-x,y,z
x,-y,z
1/2+x,1/2+y,1/2+z
1/2-x,1/2-y,1/2+z
1/2+x,1/2-y,1/2-z
1/2-x,1/2+y,1/2-z
1/2-x,1/2-y,1/2-z
1/2+x,1/2+y,1/2-z
1/2-x,1/2+y,1/2+z
1/2+x,1/2-y,1/2+z
loop_
_atom_site_type_symbol
_atom_site_label
_atom_site_fract_x
_atom_site_fract_y
_atom_site_fract_z
Si Si1 0.696340 0.061184 0.401638
Si Si2 0.813750 0.790581 0.132934
Si Si3 0.829953 0.397894 0.595034
Si Si4 0.195035 0.325836 0.185769
Si Si5 0.500000 0.435468 0.596976
O O1 0.742467 0.066849 0.500000
O O2 0.500000 0.061344 0.399454
O O3 0.746025 0.115235 0.350074
O O4 0.749019 0.000000 0.372606
O O5 0.693599 0.832700 0.089272
O O6 0.780766 0.726064 0.123642
O O7 0.788682 0.807770 0.230494
O O8 0.000000 0.800967 0.108549
O O9 0.832167 0.421000 0.500000
O O10 0.667433 0.418116 0.638082
O O11 0.000000 0.411987 0.636326
O O12 0.000000 0.326681 0.202946
O O13 0.500000 0.500000 0.591017
O O14 0.500000 0.413025 0.500000
#
# Coordination Sequence:
#
# PCOD9519374 Si02
#       5
#    16  16  16  16   8
#     4   8  14  27  49  77 106 133 168 220 276 330
#     4  10  19  32  50  72 105 144 181 227 274 326
#     4  10  20  34  54  79 107 141 180 225 275 326
#     4   9  18  31  50  75 102 139 182 222 274 334
#     4   9  18  34  54  76 104 136 172 216 266 318
#
# _framework density 22.445119999999999
#
# number of rings (size 3 to 8) (size 9 to 14) (size 15 to 20)
#    0.000    2.778    1.111    1.333    0.000    2.222 
#    0.000    5.556    0.000    3.333    0.000    1.556 
#    0.000    0.000    0.000    0.000    0.000    0.000 
#
# Total GULP energy -200614.552311 kJ/mol
# GULP energy per Si atom -5572.626453 kJ/mol
# Density = 2.239403 g / cm^3
# Si number density = 22.445120 Si / 1000 Ang^3
#
#
#
# Elastic Constant Matrix: (Units=GPa)
#
#
# Indices 1 2 3 4 5 6 
#
# 1 124.4076 32.6143 0.6371 0.0000 0.0000 0.0000
# 2 32.6143 164.7724 29.6837 0.0000 0.0000 0.0000
# 3 0.6371 29.6837 29.4070 -0.0001 0.0000 0.0000
# 4 0.0000 0.0000 -0.0001 29.1985 0.0000 0.0000
# 5 0.0000 0.0000 0.0000 0.0000 -8.6539 0.0000
# 6 0.0000 0.0000 0.0000 0.0000 0.0000 7.8105
#
#
#
# Elastic Compliance Matrix: (Units=1/GPa)
#
#
# Indices 1 2 3 4 5 6 
#
# 1 0.008561 -0.002030 0.001864 0.000000 0.000000 0.000000
# 2 -0.002030 0.007899 -0.007930 0.000000 0.000000 0.000000
# 3 0.001864 -0.007930 0.041969 0.000000 0.000000 0.000000
# 4 0.000000 0.000000 0.000000 0.034248 0.000000 0.000000
# 5 0.000000 0.000000 0.000000 0.000000 -0.115555 0.000000
# 6 0.000000 0.000000 0.000000 0.000000 0.000000 0.128033
#
#
# Mechanical properties :
#
#
# Convention : Reuss Voigt Hill
#
# Bulk Modulus (GPa) = 23.67571 49.38416 36.52993
# Shear Modulus (GPa) = 36.92028 22.71447 29.81737
#
# Velocity S-wave (km/s) = 4.06015 3.18465 3.64875
# Velocity P-wave (km/s) = 5.70534 5.96427 5.83625
#
# Compressibility (1/GPa) = 0.04223739
#
# Stress axis : x y z
#
# Youngs Moduli (GPa) = 116.81153 126.59224 23.82688
#
# Poissons Ratio (x) = 0.25702 -0.04441
# Poissons Ratio (y) = 0.23716 0.18894
# Poissons Ratio (z) = -0.21772 1.00384
#
# Static dielectric constant tensor:
#      x y z
#    x 1.868910 0.000000 0.000000 
#    y 0.000000 1.860160 0.000000 
#    z 0.000000 0.000000 1.867600 
# 
# From -- ./inp_files/50321.got.cif
#   From: 2010.05.17/outbox.cif.g08.bks.cpg/sg71_26_cif.got.tgz:50321.got - 2010.06.03 16:22:01.
