data_PCOD9519886
_publ_section_title
;
Structure prediction by ZEFSAII (Michael W. Deem and Ramdas Pophale) SiO2 
 PCOD9519886
Probable space group: I M M M
;
_chemical_formula_sum "Si O2"
_cell_formula_units_Z 104
_cell_length_a 20.773533
_cell_length_b 12.783821
_cell_length_c 23.264287
_cell_angle_alpha 90.000000
_cell_angle_beta 90.000000
_cell_angle_gamma 90.000000
_cell_volume 6178.183341
_symmetry_space_group_name_H-M "I M M M"
_symmetry_group_IT_number 71
_symmetry_cell_setting 'orthorhombic'
loop_
_space_group_symop_operation_xyz
x,y,z
-x,-y,z
x,-y,-z
-x,y,-z
-x,-y,-z
x,y,-z
-x,y,z
x,-y,z
1/2+x,1/2+y,1/2+z
1/2-x,1/2-y,1/2+z
1/2+x,1/2-y,1/2-z
1/2-x,1/2+y,1/2-z
1/2-x,1/2-y,1/2-z
1/2+x,1/2+y,1/2-z
1/2-x,1/2+y,1/2+z
1/2+x,1/2-y,1/2+z
loop_
_atom_site_type_symbol
_atom_site_label
_atom_site_fract_x
_atom_site_fract_y
_atom_site_fract_z
Si Si1 0.680582 0.122440 0.090047
Si Si2 0.423620 0.615237 0.740711
Si Si3 0.573557 0.873131 0.000000
Si Si4 0.807159 0.260480 0.064659
Si Si5 0.424017 0.623178 0.394490
Si Si6 0.278309 0.876973 0.319536
Si Si7 0.838184 0.718975 0.710432
O O1 0.744586 0.185591 0.072584
O O2 0.664836 0.143069 0.156409
O O3 0.691815 0.000000 0.079081
O O4 0.618013 0.157150 0.053982
O O5 0.500000 0.610068 0.742570
O O6 0.397572 0.500000 0.756936
O O7 0.406911 0.633005 0.673499
O O8 0.399607 0.708559 0.779950
O O9 0.500000 0.834062 0.000000
O O10 0.569835 0.000000 0.000000
O O11 0.872432 0.193132 0.072453
O O12 0.802218 0.341689 0.117450
O O13 0.805285 0.304698 0.000000
O O14 0.500000 0.650563 0.402177
O O15 0.417634 0.500000 0.409236
O O16 0.217435 0.804949 0.302374
O O17 0.327282 0.845011 0.268923
O O18 0.264676 0.000000 0.318209
#
# Coordination Sequence:
#
# PCOD9519886 Si02
#       7
#    16  16   8  16  16  16  16
#     4  10  20  33  52  80 108 136 174 216 262 311
#     4   9  17  31  52  77 106 137 168 207 259 317
#     4   9  18  34  52  72 106 144 172 205 250 304
#     4  11  21  34  54  76 102 139 180 216 260 314
#     4   9  18  32  51  77 107 137 170 215 269 315
#     4  10  21  35  51  76 107 135 169 219 265 304
#     4  10  19  33  54  79 103 134 171 213 260 316
#
# _framework density 16.833428000000001
#
# number of rings (size 3 to 8) (size 9 to 14) (size 15 to 20)
#    0.000    2.231    2.308    2.308    0.000    2.154 
#    0.000    0.769    0.000    2.769    0.000    1.077 
#    0.000    4.923    0.000    0.000    0.000    0.000 
#
# Total GULP energy -289682.176157 kJ/mol
# GULP energy per Si atom -5570.811080 kJ/mol
# Density = 1.679511 g / cm^3
# Si number density = 16.833428 Si / 1000 Ang^3
#
#
#
# Elastic Constant Matrix: (Units=GPa)
#
#
# Indices 1 2 3 4 5 6 
#
# 1 54.8119 12.3246 19.3796 0.0000 0.0000 0.0000
# 2 12.3246 50.4680 28.7616 0.0000 0.0000 0.0000
# 3 19.3796 28.7616 101.9281 0.0000 0.0000 0.0000
# 4 0.0000 0.0000 0.0000 11.5406 0.0000 0.0000
# 5 0.0000 0.0000 0.0000 0.0000 22.2556 0.0000
# 6 0.0000 0.0000 0.0000 0.0000 0.0000 21.2902
#
#
#
# Elastic Compliance Matrix: (Units=1/GPa)
#
#
# Indices 1 2 3 4 5 6 
#
# 1 0.019993 -0.003237 -0.002888 0.000000 0.000000 0.000000
# 2 -0.003237 0.024135 -0.006195 0.000000 0.000000 0.000000
# 3 -0.002888 -0.006195 0.012108 0.000000 0.000000 0.000000
# 4 0.000000 0.000000 0.000000 0.086651 0.000000 0.000000
# 5 0.000000 0.000000 0.000000 0.000000 0.044933 0.000000
# 6 0.000000 0.000000 0.000000 0.000000 0.000000 0.046970
#
#
# Mechanical properties :
#
#
# Convention : Reuss Voigt Hill
#
# Bulk Modulus (GPa) = 31.64828 36.45996 34.05412
# Shear Modulus (GPa) = 18.52116 20.80010 19.66063
#
# Velocity S-wave (km/s) = 3.32062 3.51898 3.42124
# Velocity P-wave (km/s) = 5.79169 6.18201 5.99003
#
# Compressibility (1/GPa) = 0.03159730
#
# Stress axis : x y z
#
# Youngs Moduli (GPa) = 50.01738 41.43280 82.58976
#
# Poissons Ratio (x) = 0.13410 0.23852
# Poissons Ratio (y) = 0.16188 0.51165
# Poissons Ratio (z) = 0.14445 0.25668
#
# Static dielectric constant tensor:
#      x y z
#    x 1.569470 0.000000 0.000000 
#    y 0.000000 1.546880 0.000000 
#    z 0.000000 0.000000 1.600090 
# 
# From -- ./inp_files/61319.got.cif
#   From: 2010.05.17/outbox.cif.g08.bks.cpg/sg71_31_cif.got.tgz:61319.got - 2010.06.03 16:22:01.
