data_PCOD9519348
_publ_section_title
;
Structure prediction by ZEFSAII (Michael W. Deem and Ramdas Pophale) SiO2 
 PCOD9519348
Probable space group: I M M M
;
_chemical_formula_sum "Si O2"
_cell_formula_units_Z 80
_cell_length_a 16.893164
_cell_length_b 26.142919
_cell_length_c 10.838422
_cell_angle_alpha 90.000000
_cell_angle_beta 90.000000
_cell_angle_gamma 90.000000
_cell_volume 4786.644038
_symmetry_space_group_name_H-M "I M M M"
_symmetry_group_IT_number 71
_symmetry_cell_setting 'orthorhombic'
loop_
_space_group_symop_operation_xyz
x,y,z
-x,-y,z
x,-y,-z
-x,y,-z
-x,-y,-z
x,y,-z
-x,y,z
x,-y,z
1/2+x,1/2+y,1/2+z
1/2-x,1/2-y,1/2+z
1/2+x,1/2-y,1/2-z
1/2-x,1/2+y,1/2-z
1/2-x,1/2-y,1/2-z
1/2+x,1/2+y,1/2-z
1/2-x,1/2+y,1/2+z
1/2+x,1/2-y,1/2+z
loop_
_atom_site_type_symbol
_atom_site_label
_atom_site_fract_x
_atom_site_fract_y
_atom_site_fract_z
Si Si1 0.287838 0.606900 0.700582
Si Si2 0.684683 0.795480 0.248953
Si Si3 0.908250 0.150140 0.000000
Si Si4 0.595390 0.171674 0.000000
Si Si5 0.091316 0.273192 0.000000
Si Si6 0.321359 0.940691 0.000000
Si Si7 0.083839 0.058177 0.646920
O O1 0.233077 0.652042 0.748145
O O2 0.357086 0.630045 0.614472
O O3 0.234944 0.568688 0.618692
O O4 0.335601 0.582078 0.809920
O O5 0.750000 0.750000 0.250000
O O6 0.633308 0.790436 0.373220
O O7 0.632758 0.800756 0.122202
O O8 0.906618 0.211464 0.000000
O O9 0.000000 0.133475 0.000000
O O10 0.500000 0.174848 0.000000
O O11 0.621978 0.110736 0.000000
O O12 0.000000 0.289947 0.000000
O O13 0.351700 0.000000 0.000000
O O14 0.082214 0.057565 0.500000
O O15 0.000000 0.082750 0.688420
O O16 0.083076 0.000000 0.692723
#
# Coordination Sequence:
#
# PCOD9519348 Si02
#       7
#    16  16   8   8   8   8  16
#     4  10  19  32  52  76 105 136 178 225 264 323
#     4  11  21  37  57  79 111 143 182 221 271 317
#     4  10  19  32  49  73 104 139 174 216 264 314
#     4  10  22  40  59  84 114 145 184 233 280 329
#     4  11  22  36  54  75 105 146 182 213 263 322
#     4   9  19  34  56  82 104 135 178 229 282 328
#     4   9  18  32  48  69 102 139 173 214 266 321
#
# _framework density 16.713172
#
# number of rings (size 3 to 8) (size 9 to 14) (size 15 to 20)
#    0.000    2.000    2.000    3.600    1.400    0.200 
#    0.000    0.000    0.000    4.800    0.000    0.000 
#    0.000    8.400    0.000    0.000    0.000    0.000 
#
# Total GULP energy -222684.195303 kJ/mol
# GULP energy per Si atom -5567.104883 kJ/mol
# Density = 1.667513 g / cm^3
# Si number density = 16.713172 Si / 1000 Ang^3
#
#
#
# Elastic Constant Matrix: (Units=GPa)
#
#
# Indices 1 2 3 4 5 6 
#
# 1 128.9821 34.6363 62.9649 0.0000 0.0000 0.0000
# 2 34.6363 63.4917 32.2824 0.0000 0.0000 0.0000
# 3 62.9649 32.2824 98.8763 0.0001 0.0002 0.0000
# 4 0.0000 0.0000 0.0001 24.1687 0.0000 0.0000
# 5 0.0000 0.0000 0.0002 0.0000 38.8955 0.0000
# 6 0.0000 0.0000 0.0000 0.0000 0.0000 15.7507
#
#
#
# Elastic Compliance Matrix: (Units=1/GPa)
#
#
# Indices 1 2 3 4 5 6 
#
# 1 0.011745 -0.003123 -0.006460 0.000000 0.000000 0.000000
# 2 -0.003123 0.019715 -0.004448 0.000000 0.000000 0.000000
# 3 -0.006460 -0.004448 0.015680 0.000000 0.000000 0.000000
# 4 0.000000 0.000000 0.000000 0.041376 0.000000 0.000000
# 5 0.000000 0.000000 0.000000 0.000000 0.025710 0.000000
# 6 0.000000 0.000000 0.000000 0.000000 0.000000 0.063489
#
#
# Mechanical properties :
#
#
# Convention : Reuss Voigt Hill
#
# Bulk Modulus (GPa) = 52.41549 61.23528 56.82538
# Shear Modulus (GPa) = 23.56977 26.52742 25.04860
#
# Velocity S-wave (km/s) = 3.75941 3.98831 3.87555
# Velocity P-wave (km/s) = 7.09042 7.61100 7.35532
#
# Compressibility (1/GPa) = 0.01907833
#
# Stress axis : x y z
#
# Youngs Moduli (GPa) = 85.14249 50.72181 63.77719
#
# Poissons Ratio (x) = 0.15839 0.41198
# Poissons Ratio (y) = 0.26588 0.28370
# Poissons Ratio (z) = 0.55000 0.22563
#
# Static dielectric constant tensor:
#      x y z
#    x 1.578960 0.000000 0.000000 
#    y 0.000000 1.568820 0.000000 
#    z 0.000000 0.000000 1.581310 
# 
# From -- ./inp_files/21974.got.cif
#   From: 2010.05.17/outbox.cif.g08.bks.cpg/sg71_11_cif.got.tgz:21974.got - 2010.06.03 16:22:01.
