data_PCOD9519971
_publ_section_title
;
Structure prediction by ZEFSAII (Michael W. Deem and Ramdas Pophale) SiO2 
 PCOD9519971
Probable space group: I M M M
;
_chemical_formula_sum "Si O2"
_cell_formula_units_Z 90
_cell_length_a 22.557118
_cell_length_b 7.405946
_cell_length_c 23.843381
_cell_angle_alpha 90.000000
_cell_angle_beta 90.000000
_cell_angle_gamma 90.000000
_cell_volume 3983.198879
_symmetry_space_group_name_H-M "I M M M"
_symmetry_group_IT_number 71
_symmetry_cell_setting 'orthorhombic'
loop_
_space_group_symop_operation_xyz
x,y,z
-x,-y,z
x,-y,-z
-x,y,-z
-x,-y,-z
x,y,-z
-x,y,z
x,-y,z
1/2+x,1/2+y,1/2+z
1/2-x,1/2-y,1/2+z
1/2+x,1/2-y,1/2-z
1/2-x,1/2+y,1/2-z
1/2-x,1/2-y,1/2-z
1/2+x,1/2+y,1/2-z
1/2-x,1/2+y,1/2+z
1/2+x,1/2-y,1/2+z
loop_
_atom_site_type_symbol
_atom_site_label
_atom_site_fract_x
_atom_site_fract_y
_atom_site_fract_z
Si Si1 0.000000 0.500000 0.500000
Si Si2 0.000000 0.280351 0.915901
Si Si3 0.624629 0.221385 0.765534
Si Si4 0.393547 0.301248 0.000000
Si Si5 0.794042 0.281694 0.164524
Si Si6 0.129964 0.720043 0.940898
Si Si7 0.500000 0.219538 0.286613
Si Si8 0.836206 0.290683 0.383177
O O1 0.946514 0.656291 0.500000
O O2 0.938028 0.220857 0.940722
O O3 0.000000 0.229857 0.851156
O O4 0.000000 0.500000 0.920176
O O5 0.678968 0.278322 0.724518
O O6 0.561563 0.277445 0.740669
O O7 0.628833 0.284926 0.829424
O O8 0.626505 0.000000 0.765842
O O9 0.352550 0.286530 0.056151
O O10 0.420220 0.500000 0.000000
O O11 0.792451 0.500000 0.166535
O O12 0.839521 0.222378 0.116137
O O13 0.730790 0.222072 0.140524
O O14 0.130803 0.500000 0.939440
O O15 0.158737 0.775081 0.000000
O O16 0.500000 0.000000 0.284447
O O17 0.851945 0.500000 0.388667
#
# Coordination Sequence:
#
# PCOD9519971 Si02
#       8
#     2   8  16   8  16  16   8  16
#     4  12  26  56  84 114 148 176 230 290 346 434
#     4   9  13  22  40  65 111 152 197 260 318 379
#     4   9  18  32  54  86 124 171 225 287 352 407
#     4  12  27  51  81 110 143 184 223 284 359 421
#     4  10  19  33  55  86 127 171 225 277 335 412
#     4   9  16  24  40  72 112 157 205 260 323 388
#     4   9  14  26  47  75 109 153 209 275 337 397
#     4  11  23  41  61  93 132 174 228 281 341 414
#
# _framework density 22.594904
#
# number of rings (size 3 to 8) (size 9 to 14) (size 15 to 20)
#    0.000    2.133    2.667    1.467    1.244    1.778 
#    1.600    0.889    0.000    0.000    0.000    4.978 
#    0.000    1.422    0.000    0.000    0.000    0.000 
#
# Total GULP energy -250906.485683 kJ/mol
# GULP energy per Si atom -5575.699682 kJ/mol
# Density = 2.254348 g / cm^3
# Si number density = 22.594904 Si / 1000 Ang^3
#
#
#
# Elastic Constant Matrix: (Units=GPa)
#
#
# Indices 1 2 3 4 5 6 
#
# 1 101.1468 4.0633 59.1996 0.0000 0.0000 0.0000
# 2 4.0633 100.0540 19.6197 0.0000 0.0000 0.0000
# 3 59.1996 19.6197 203.3903 0.0000 0.0000 0.0000
# 4 0.0000 0.0000 0.0000 -11.1567 0.0000 0.0000
# 5 0.0000 0.0000 0.0000 0.0000 15.7788 0.0000
# 6 0.0000 0.0000 0.0000 0.0000 0.0000 12.0174
#
#
#
# Elastic Compliance Matrix: (Units=1/GPa)
#
#
# Indices 1 2 3 4 5 6 
#
# 1 0.011921 0.000200 -0.003489 0.000000 0.000000 0.000000
# 2 0.000200 0.010191 -0.001041 0.000000 0.000000 0.000000
# 3 -0.003489 -0.001041 0.006033 0.000000 0.000000 0.000000
# 4 0.000000 0.000000 0.000000 -0.089632 0.000000 0.000000
# 5 0.000000 0.000000 0.000000 0.000000 0.063376 0.000000
# 6 0.000000 0.000000 0.000000 0.000000 0.000000 0.083213
#
#
# Mechanical properties :
#
#
# Convention : Reuss Voigt Hill
#
# Bulk Modulus (GPa) = 51.32532 63.37290 57.34911
# Shear Modulus (GPa) = 49.87276 24.77514 37.32395
#
# Velocity S-wave (km/s) = 4.70324 3.31493 4.06874
# Velocity P-wave (km/s) = 7.22902 6.53911 6.89270
#
# Compressibility (1/GPa) = 0.01948356
#
# Stress axis : x y z
#
# Youngs Moduli (GPa) = 83.88832 98.12905 165.76581
#
# Poissons Ratio (x) = -0.01963 0.57835
# Poissons Ratio (y) = -0.01678 0.17260
# Poissons Ratio (z) = 0.29268 0.10218
#
# Static dielectric constant tensor:
#      x y z
#    x 1.824740 0.000000 0.000000 
#    y 0.000000 1.871220 0.000000 
#    z 0.000000 0.000000 1.831500 
# 
# From -- ./inp_files/55675.got.cif
#   From: 2010.05.17/outbox.cif.g08.bks.cpg/sg71_28_cif.got.tgz:55675.got - 2010.06.03 16:22:01.
