data_PCOD9519402
_publ_section_title
;
Structure prediction by ZEFSAII (Michael W. Deem and Ramdas Pophale) SiO2 
 PCOD9519402
Probable space group: I M M M
;
_chemical_formula_sum "Si O2"
_cell_formula_units_Z 120
_cell_length_a 11.722523
_cell_length_b 20.432085
_cell_length_c 23.997936
_cell_angle_alpha 90.000000
_cell_angle_beta 90.000000
_cell_angle_gamma 90.000000
_cell_volume 5747.879712
_symmetry_space_group_name_H-M "I M M M"
_symmetry_group_IT_number 71
_symmetry_cell_setting 'orthorhombic'
loop_
_space_group_symop_operation_xyz
x,y,z
-x,-y,z
x,-y,-z
-x,y,-z
-x,-y,-z
x,y,-z
-x,y,z
x,-y,z
1/2+x,1/2+y,1/2+z
1/2-x,1/2-y,1/2+z
1/2+x,1/2-y,1/2-z
1/2-x,1/2+y,1/2-z
1/2-x,1/2-y,1/2-z
1/2+x,1/2+y,1/2-z
1/2-x,1/2+y,1/2+z
1/2+x,1/2-y,1/2+z
loop_
_atom_site_type_symbol
_atom_site_label
_atom_site_fract_x
_atom_site_fract_y
_atom_site_fract_z
Si Si1 0.138618 0.426880 0.500000
Si Si2 0.622028 0.266118 0.316996
Si Si3 0.327177 0.257307 0.436517
Si Si4 0.373133 0.896576 0.435401
Si Si5 0.365165 0.165347 0.899230
Si Si6 0.375600 0.424987 0.116664
Si Si7 0.135850 0.575600 0.293044
Si Si8 0.706567 0.652509 0.216939
O O1 0.182753 0.500000 0.500000
O O2 0.171255 0.387930 0.445102
O O3 0.000000 0.429352 0.500000
O O4 0.500000 0.233069 0.307409
O O5 0.623588 0.291195 0.380799
O O6 0.638632 0.320603 0.270121
O O7 0.720592 0.213036 0.307485
O O8 0.351522 0.279582 0.500000
O O9 0.366255 0.182532 0.433297
O O10 0.194495 0.269065 0.421735
O O11 0.375196 0.916490 0.500000
O O12 0.500000 0.915277 0.411576
O O13 0.249344 0.917861 0.412244
O O14 0.500000 0.174336 0.900348
O O15 0.338624 0.131148 0.840049
O O16 0.500000 0.413951 0.086955
O O17 0.378364 0.500000 0.135734
O O18 0.369484 0.376623 0.168694
O O19 0.162034 0.500000 0.309819
O O20 0.206244 0.597519 0.239278
O O21 0.000000 0.578168 0.283631
#
# Coordination Sequence:
#
# PCOD9519402 Si02
#       8
#     8  16  16  16  16  16  16  16
#     4   9  16  28  48  74 113 163 204 245 302 369
#     4  11  23  39  61  89 119 156 202 254 313 370
#     4  11  21  37  60  88 120 157 203 256 314 370
#     4  10  23  44  69  97 129 165 210 263 321 379
#     4  10  19  32  50  82 123 158 200 250 307 370
#     4  11  25  44  66  94 130 171 213 257 313 382
#     4  10  20  34  55  84 118 157 202 253 305 359
#     4  11  22  40  61  88 122 161 202 252 306 374
#
# _framework density 20.877264
#
# number of rings (size 3 to 8) (size 9 to 14) (size 15 to 20)
#    0.000    1.533    3.333    2.000    0.000    4.267 
#    0.000    2.667    0.000    0.000    0.000    0.000 
#    0.000    3.200    0.000    0.000    0.000    0.000 
#
# Total GULP energy -334201.558695 kJ/mol
# GULP energy per Si atom -5570.025978 kJ/mol
# Density = 2.082975 g / cm^3
# Si number density = 20.877264 Si / 1000 Ang^3
#
#
#
# Elastic Constant Matrix: (Units=GPa)
#
#
# Indices 1 2 3 4 5 6 
#
# 1 128.2292 32.1252 42.6613 0.0000 0.0000 0.0000
# 2 32.1252 50.6207 9.3309 0.0000 0.0000 0.0000
# 3 42.6613 9.3309 89.1754 0.0000 0.0000 0.0000
# 4 0.0000 0.0000 0.0000 16.2467 0.0000 0.0000
# 5 0.0000 0.0000 0.0000 0.0000 17.0935 0.0000
# 6 0.0000 0.0000 0.0000 0.0000 0.0000 22.2605
#
#
#
# Elastic Compliance Matrix: (Units=1/GPa)
#
#
# Indices 1 2 3 4 5 6 
#
# 1 0.010822 -0.006030 -0.004546 0.000000 0.000000 0.000000
# 2 -0.006030 0.023503 0.000425 0.000000 0.000000 0.000000
# 3 -0.004546 0.000425 0.013344 0.000000 0.000000 0.000000
# 4 0.000000 0.000000 0.000000 0.061551 0.000000 0.000000
# 5 0.000000 0.000000 0.000000 0.000000 0.058502 0.000000
# 6 0.000000 0.000000 0.000000 0.000000 0.000000 0.044923
#
#
# Mechanical properties :
#
#
# Convention : Reuss Voigt Hill
#
# Bulk Modulus (GPa) = 36.53921 48.47334 42.50627
# Shear Modulus (GPa) = 20.65541 23.38069 22.01805
#
# Velocity S-wave (km/s) = 3.14884 3.35014 3.25105
# Velocity P-wave (km/s) = 5.54619 6.18330 5.87339
#
# Compressibility (1/GPa) = 0.02736786
#
# Stress axis : x y z
#
# Youngs Moduli (GPa) = 92.40759 42.54781 74.93890
#
# Poissons Ratio (x) = 0.25655 0.34068
# Poissons Ratio (y) = 0.55719 -0.03187
# Poissons Ratio (z) = 0.42010 -0.01810
#
# Static dielectric constant tensor:
#      x y z
#    x 1.851150 0.000000 0.000000 
#    y 0.000000 1.749280 0.000000 
#    z 0.000000 0.000000 1.775880 
# 
# From -- ./inp_files/59090.got.cif
#   From: 2010.05.17/outbox.cif.g08.bks.cpg/sg71_30_cif.got.tgz:59090.got - 2010.06.03 16:22:01.
