data_PCOD9519134
_publ_section_title
;
Structure prediction by ZEFSAII (Michael W. Deem and Ramdas Pophale) SiO2 
 PCOD9519134
Probable space group: I M M M
;
_chemical_formula_sum "Si O2"
_cell_formula_units_Z 120
_cell_length_a 20.326228
_cell_length_b 14.744304
_cell_length_c 22.408169
_cell_angle_alpha 90.000000
_cell_angle_beta 90.000000
_cell_angle_gamma 90.000000
_cell_volume 6715.640517
_symmetry_space_group_name_H-M "I M M M"
_symmetry_group_IT_number 71
_symmetry_cell_setting 'orthorhombic'
loop_
_space_group_symop_operation_xyz
x,y,z
-x,-y,z
x,-y,-z
-x,y,-z
-x,-y,-z
x,y,-z
-x,y,z
x,-y,z
1/2+x,1/2+y,1/2+z
1/2-x,1/2-y,1/2+z
1/2+x,1/2-y,1/2-z
1/2-x,1/2+y,1/2-z
1/2-x,1/2-y,1/2-z
1/2+x,1/2+y,1/2-z
1/2-x,1/2+y,1/2+z
1/2+x,1/2-y,1/2+z
loop_
_atom_site_type_symbol
_atom_site_label
_atom_site_fract_x
_atom_site_fract_y
_atom_site_fract_z
Si Si1 0.425790 0.390705 0.760250
Si Si2 0.342642 0.606643 0.125937
Si Si3 0.625135 0.784247 0.070709
Si Si4 0.429184 0.211929 0.429193
Si Si5 0.000000 0.604580 0.426900
Si Si6 0.751023 0.396299 0.429872
Si Si7 0.700684 0.107060 0.570064
Si Si8 0.392110 0.604843 0.624363
O O1 0.500000 0.356815 0.774424
O O2 0.429260 0.500000 0.761590
O O3 0.369691 0.367982 0.808432
O O4 0.406691 0.367965 0.692557
O O5 0.357035 0.500000 0.115154
O O6 0.379603 0.678355 0.084251
O O7 0.265641 0.619337 0.110218
O O8 0.564220 0.841922 0.094227
O O9 0.693887 0.826991 0.092069
O O10 0.626483 0.797658 0.000000
O O11 0.429169 0.196186 0.500000
O O12 0.500000 0.178555 0.405331
O O13 0.362329 0.163517 0.407985
O O14 0.424559 0.318784 0.416311
O O15 0.000000 0.500000 0.408865
O O16 0.000000 0.605869 0.500000
O O17 0.734852 0.377929 0.500000
O O18 0.776777 0.500000 0.427618
O O19 0.684930 0.391981 0.391840
O O20 0.715748 0.131561 0.500000
O O21 0.684614 0.000000 0.570303
O O22 0.413778 0.500000 0.615223
#
# Coordination Sequence:
#
# PCOD9519134 Si02
#       8
#    16  16  16  16   8  16  16  16
#     4   9  19  35  52  69  96 134 170 208 251 300
#     4  10  20  33  52  75  99 130 171 212 257 305
#     4  10  19  31  49  74 104 136 168 206 255 304
#     4  10  20  32  49  76 107 135 166 206 249 299
#     4   9  18  32  49  71 101 137 174 204 238 297
#     4   9  17  30  50  75 103 134 167 206 249 298
#     4   9  18  34  54  74 101 137 172 209 254 301
#     4  10  19  32  51  74 101 132 167 203 253 310
#
# _framework density 17.868734
#
# number of rings (size 3 to 8) (size 9 to 14) (size 15 to 20)
#    0.000    2.467    0.000    2.400    0.933    6.400 
#    0.000    4.667    0.000    1.200    0.000    0.933 
#    0.000    0.000    0.000    0.000    0.000    0.000 
#
# Total GULP energy -334172.128135 kJ/mol
# GULP energy per Si atom -5569.535469 kJ/mol
# Density = 1.782806 g / cm^3
# Si number density = 17.868734 Si / 1000 Ang^3
#
#
#
# Elastic Constant Matrix: (Units=GPa)
#
#
# Indices 1 2 3 4 5 6 
#
# 1 102.2160 48.3061 32.3130 0.0000 0.0000 0.0000
# 2 48.3061 78.3650 2.8200 0.0000 0.0000 0.0000
# 3 32.3130 2.8200 22.4529 0.0000 0.0000 0.0000
# 4 0.0000 0.0000 0.0000 9.3386 0.0000 0.0000
# 5 0.0000 0.0000 0.0000 0.0000 -24.4060 0.0000
# 6 0.0000 0.0000 0.0000 0.0000 0.0000 19.8190
#
#
#
# Elastic Compliance Matrix: (Units=1/GPa)
#
#
# Indices 1 2 3 4 5 6 
#
# 1 0.032663 -0.018527 -0.044680 0.000000 0.000000 0.000000
# 2 -0.018527 0.023327 0.023733 0.000000 0.000000 0.000000
# 3 -0.044680 0.023733 0.105858 0.000000 0.000000 0.000000
# 4 0.000000 0.000000 0.000000 0.107082 0.000000 0.000000
# 5 0.000000 0.000000 0.000000 0.000000 -0.040974 0.000000
# 6 0.000000 0.000000 0.000000 0.000000 0.000000 0.050457
#
#
# Mechanical properties :
#
#
# Convention : Reuss Voigt Hill
#
# Bulk Modulus (GPa) = 12.06270 41.10133 26.58202
# Shear Modulus (GPa) = 12.98717 8.92331 10.95524
#
# Velocity S-wave (km/s) = 2.69887 2.23711 2.47876
# Velocity P-wave (km/s) = 4.05921 5.45203 4.80634
#
# Compressibility (1/GPa) = 0.08290017
#
# Stress axis : x y z
#
# Youngs Moduli (GPa) = 30.61557 42.86885 9.44659
#
# Poissons Ratio (x) = 0.79421 0.42208
# Poissons Ratio (y) = 0.56720 -0.22419
# Poissons Ratio (z) = 1.36791 -1.01739
#
# Static dielectric constant tensor:
#      x y z
#    x 1.653090 0.000000 0.000000 
#    y 0.000000 1.626500 0.000000 
#    z 0.000000 0.000000 1.602360 
# 
# From -- ./inp_files/55122.got.cif
#   From: 2010.05.17/outbox.cif.g08.bks.cpg/sg71_28_cif.got.tgz:55122.got - 2010.06.03 16:22:01.
