data_PCOD9519678
_publ_section_title
;
Structure prediction by ZEFSAII (Michael W. Deem and Ramdas Pophale) SiO2 
 PCOD9519678
Probable space group: I M M M
;
_chemical_formula_sum "Si O2"
_cell_formula_units_Z 80
_cell_length_a 21.972562
_cell_length_b 7.513807
_cell_length_c 23.605022
_cell_angle_alpha 90.000000
_cell_angle_beta 90.000000
_cell_angle_gamma 90.000000
_cell_volume 3897.132248
_symmetry_space_group_name_H-M "I M M M"
_symmetry_group_IT_number 71
_symmetry_cell_setting 'orthorhombic'
loop_
_space_group_symop_operation_xyz
x,y,z
-x,-y,z
x,-y,-z
-x,y,-z
-x,-y,-z
x,y,-z
-x,y,z
x,-y,z
1/2+x,1/2+y,1/2+z
1/2-x,1/2-y,1/2+z
1/2+x,1/2-y,1/2-z
1/2-x,1/2+y,1/2-z
1/2-x,1/2-y,1/2-z
1/2+x,1/2+y,1/2-z
1/2-x,1/2+y,1/2+z
1/2+x,1/2-y,1/2+z
loop_
_atom_site_type_symbol
_atom_site_label
_atom_site_fract_x
_atom_site_fract_y
_atom_site_fract_z
Si Si1 0.071028 0.212891 0.750036
Si Si2 0.500000 0.217798 0.935134
Si Si3 0.379593 0.787354 0.873332
Si Si4 0.743755 0.216848 0.933668
Si Si5 0.428629 0.000000 0.561291
Si Si6 0.634205 0.286270 0.633314
O O1 0.107345 0.256049 0.692731
O O2 0.112363 0.267866 0.803691
O O3 0.000000 0.280488 0.750026
O O4 0.066064 0.000000 0.753198
O O5 0.560563 0.281848 0.904726
O O6 0.500000 0.000000 0.932351
O O7 0.500000 0.268712 0.000000
O O8 0.318319 0.720662 0.903295
O O9 0.377872 0.000000 0.881097
O O10 0.799507 0.263827 0.891714
O O11 0.742944 0.000000 0.935666
O O12 0.749227 0.274157 0.000000
O O13 0.410351 0.178264 0.593185
O O14 0.500000 0.000000 0.556387
O O15 0.398302 0.000000 0.500000
O O16 0.628748 0.500000 0.629086
#
# Coordination Sequence:
#
# PCOD9519678 Si02
#       6
#    16   8  16  16   8  16
#     4  10  21  37  56  80 116 156 198 246 299 363
#     4   9  16  28  49  81 117 149 193 250 303 354
#     4  10  19  32  55  86 112 150 200 247 302 357
#     4   9  18  35  59  85 116 153 198 249 302 365
#     4  11  24  40  62  96 126 153 201 259 301 357
#     4  10  22  41  63  88 120 166 202 245 306 363
#
# _framework density 20.527915
#
# number of rings (size 3 to 8) (size 9 to 14) (size 15 to 20)
#    0.000    2.200    1.000    1.800    1.400    5.600 
#    1.800    1.000    0.000    2.400    0.000    0.000 
#    0.000    0.000    0.000    0.000    0.000    0.000 
#
# Total GULP energy -223076.554739 kJ/mol
# GULP energy per Si atom -5576.913868 kJ/mol
# Density = 2.048119 g / cm^3
# Si number density = 20.527915 Si / 1000 Ang^3
#
#
#
# Elastic Constant Matrix: (Units=GPa)
#
#
# Indices 1 2 3 4 5 6 
#
# 1 179.3104 18.4166 98.2462 0.0000 0.0000 0.0000
# 2 18.4166 45.0355 12.0169 0.0000 0.0000 0.0000
# 3 98.2462 12.0169 193.9858 0.0000 0.0000 0.0000
# 4 0.0000 0.0000 0.0000 51.6896 0.0000 0.0000
# 5 0.0000 0.0000 0.0000 0.0000 31.6698 0.0000
# 6 0.0000 0.0000 0.0000 0.0000 0.0000 -11.7996
#
#
#
# Elastic Compliance Matrix: (Units=1/GPa)
#
#
# Indices 1 2 3 4 5 6 
#
# 1 0.007929 -0.002207 -0.003879 0.000000 0.000000 0.000000
# 2 -0.002207 0.023192 -0.000319 0.000000 0.000000 0.000000
# 3 -0.003879 -0.000319 0.007139 0.000000 0.000000 0.000000
# 4 0.000000 0.000000 0.000000 0.019346 0.000000 0.000000
# 5 0.000000 0.000000 0.000000 0.000000 0.031576 0.000000
# 6 0.000000 0.000000 0.000000 0.000000 0.000000 -0.084749
#
#
# Mechanical properties :
#
#
# Convention : Reuss Voigt Hill
#
# Bulk Modulus (GPa) = 39.29201 75.07679 57.18440
# Shear Modulus (GPa) = 194.34457 33.62211 113.98334
#
# Velocity S-wave (km/s) = 9.74058 4.05145 7.45966
# Velocity P-wave (km/s) = 12.07011 7.65102 10.10509
#
# Compressibility (1/GPa) = 0.02545047
#
# Stress axis : x y z
#
# Youngs Moduli (GPa) = 126.11968 43.11753 140.06958
#
# Poissons Ratio (x) = 0.09518 0.54333
# Poissons Ratio (y) = 0.27840 0.04465
# Poissons Ratio (z) = 0.48921 0.01374
#
# Static dielectric constant tensor:
#      x y z
#    x 1.730650 0.000000 0.000000 
#    y 0.000000 1.783390 0.000000 
#    z 0.000000 0.000000 1.735390 
# 
# From -- ./inp_files/61049.got.cif
#   From: 2010.05.17/outbox.cif.g08.bks.cpg/sg71_31_cif.got.tgz:61049.got - 2010.06.03 16:22:01.
