data_PCOD9519555
_publ_section_title
;
Structure prediction by ZEFSAII (Michael W. Deem and Ramdas Pophale) SiO2 
 PCOD9519555
Probable space group: I M M M
;
_chemical_formula_sum "Si O2"
_cell_formula_units_Z 104
_cell_length_a 18.283968
_cell_length_b 12.569377
_cell_length_c 23.596143
_cell_angle_alpha 90.000000
_cell_angle_beta 90.000000
_cell_angle_gamma 90.000000
_cell_volume 5422.820441
_symmetry_space_group_name_H-M "I M M M"
_symmetry_group_IT_number 71
_symmetry_cell_setting 'orthorhombic'
loop_
_space_group_symop_operation_xyz
x,y,z
-x,-y,z
x,-y,-z
-x,y,-z
-x,-y,-z
x,y,-z
-x,y,z
x,-y,z
1/2+x,1/2+y,1/2+z
1/2-x,1/2-y,1/2+z
1/2+x,1/2-y,1/2-z
1/2-x,1/2+y,1/2-z
1/2-x,1/2-y,1/2-z
1/2+x,1/2+y,1/2-z
1/2-x,1/2+y,1/2+z
1/2+x,1/2-y,1/2+z
loop_
_atom_site_type_symbol
_atom_site_label
_atom_site_fract_x
_atom_site_fract_y
_atom_site_fract_z
Si Si1 0.588713 0.877704 0.938112
Si Si2 0.914858 0.765305 0.105287
Si Si3 0.286684 0.126073 0.438194
Si Si4 0.088373 0.000000 0.933809
Si Si5 0.713298 0.623669 0.179688
Si Si6 0.376902 0.878470 0.710657
Si Si7 0.083585 0.726312 0.680332
O O1 0.500000 0.879838 0.939008
O O2 0.606891 0.815282 0.881410
O O3 0.613686 0.000000 0.933428
O O4 0.612640 0.836189 0.000000
O O5 0.860244 0.694128 0.068127
O O6 0.891717 0.889275 0.097736
O O7 0.906805 0.710625 0.167310
O O8 0.000000 0.757844 0.088368
O O9 0.253473 0.144478 0.500000
O O10 0.235815 0.152474 0.384916
O O11 0.303389 0.000000 0.433450
O O12 0.000000 0.000000 0.935507
O O13 0.113623 0.000000 0.000000
O O14 0.694676 0.500000 0.180703
O O15 0.789094 0.637311 0.213571
O O16 0.643573 0.688578 0.199131
O O17 0.411746 0.864241 0.772035
O O18 0.389179 0.000000 0.689643
O O19 0.000000 0.765612 0.677342
#
# Coordination Sequence:
#
# PCOD9519555 Si02
#       7
#    16  16  16   8  16  16  16
#     4   8  15  29  49  75 107 138 170 218 281 340
#     4  10  19  32  52  81 115 150 187 231 279 328
#     4   9  18  33  55  80 106 144 190 234 284 333
#     4   9  18  32  50  74 110 156 194 222 266 326
#     4   9  20  38  55  74 108 149 184 225 272 332
#     4  10  21  38  59  82 110 148 190 232 285 340
#     4  11  21  33  56  86 110 140 183 231 286 341
#
# _framework density 19.178211000000001
#
# number of rings (size 3 to 8) (size 9 to 14) (size 15 to 20)
#    0.000    2.538    0.000    3.692    0.000    4.615 
#    1.385    0.769   13.538    0.000    0.000    4.308 
#    0.000    0.000    0.000    0.000    0.000    0.000 
#
# Total GULP energy -289685.481962 kJ/mol
# GULP energy per Si atom -5570.874653 kJ/mol
# Density = 1.913456 g / cm^3
# Si number density = 19.178211 Si / 1000 Ang^3
#
#
#
# Elastic Constant Matrix: (Units=GPa)
#
#
# Indices 1 2 3 4 5 6 
#
# 1 59.8464 49.5677 10.5376 0.0000 0.0000 0.0000
# 2 49.5677 95.6627 26.0986 0.0000 0.0000 0.0000
# 3 10.5376 26.0986 82.1323 0.0000 0.0000 0.0000
# 4 0.0000 0.0000 0.0000 20.2612 0.0000 0.0000
# 5 0.0000 0.0000 0.0000 0.0000 7.3376 0.0000
# 6 0.0000 0.0000 0.0000 0.0000 0.0000 22.7823
#
#
#
# Elastic Compliance Matrix: (Units=1/GPa)
#
#
# Indices 1 2 3 4 5 6 
#
# 1 0.029374 -0.015539 0.001169 0.000000 0.000000 0.000000
# 2 -0.015539 0.019666 -0.004255 0.000000 0.000000 0.000000
# 3 0.001169 -0.004255 0.013378 0.000000 0.000000 0.000000
# 4 0.000000 0.000000 0.000000 0.049355 0.000000 0.000000
# 5 0.000000 0.000000 0.000000 0.000000 0.136283 0.000000
# 6 0.000000 0.000000 0.000000 0.000000 0.000000 0.043894
#
#
# Mechanical properties :
#
#
# Convention : Reuss Voigt Hill
#
# Bulk Modulus (GPa) = 39.73515 45.56102 42.64808
# Shear Modulus (GPa) = 14.81088 20.17205 17.49146
#
# Velocity S-wave (km/s) = 2.78200 3.24670 3.02329
# Velocity P-wave (km/s) = 5.57524 6.15329 5.87138
#
# Compressibility (1/GPa) = 0.02516664
#
# Stress axis : x y z
#
# Youngs Moduli (GPa) = 34.04397 50.84943 74.75119
#
# Poissons Ratio (x) = 0.79015 -0.08739
# Poissons Ratio (y) = 0.52901 0.31810
# Poissons Ratio (z) = -0.03980 0.21639
#
# Static dielectric constant tensor:
#      x y z
#    x 1.652730 0.000000 0.000000 
#    y 0.000000 1.669990 0.000000 
#    z 0.000000 0.000000 1.710910 
# 
# From -- ./inp_files/66036.got.cif
#   From: 2010.05.17/outbox.cif.g08.bks.cpg/sg71_34_cif.got.tgz:66036.got - 2010.06.03 16:22:01.
