data_PCOD9519664
_publ_section_title
;
Structure prediction by ZEFSAII (Michael W. Deem and Ramdas Pophale) SiO2 
 PCOD9519664
Probable space group: I M M M
;
_chemical_formula_sum "Si O2"
_cell_formula_units_Z 100
_cell_length_a 22.066394
_cell_length_b 7.539819
_cell_length_c 28.271912
_cell_angle_alpha 90.000000
_cell_angle_beta 90.000000
_cell_angle_gamma 90.000000
_cell_volume 4703.785067
_symmetry_space_group_name_H-M "I M M M"
_symmetry_group_IT_number 71
_symmetry_cell_setting 'orthorhombic'
loop_
_space_group_symop_operation_xyz
x,y,z
-x,-y,z
x,-y,-z
-x,y,-z
-x,-y,-z
x,y,-z
-x,y,z
x,-y,z
1/2+x,1/2+y,1/2+z
1/2-x,1/2-y,1/2+z
1/2+x,1/2-y,1/2-z
1/2-x,1/2+y,1/2-z
1/2-x,1/2-y,1/2-z
1/2+x,1/2+y,1/2-z
1/2-x,1/2+y,1/2+z
1/2+x,1/2-y,1/2+z
loop_
_atom_site_type_symbol
_atom_site_label
_atom_site_fract_x
_atom_site_fract_y
_atom_site_fract_z
Si Si1 0.216390 0.208012 0.180000
Si Si2 0.842134 0.713690 0.727321
Si Si3 0.641576 0.205543 0.947624
Si Si4 0.223082 0.300003 0.926053
Si Si5 0.570044 0.782816 0.144753
Si Si6 0.089949 0.287933 0.053744
Si Si7 0.500000 0.500000 0.590859
O O1 0.162868 0.230898 0.218067
O O2 0.278746 0.274243 0.203896
O O3 0.210755 0.299166 0.129971
O O4 0.223933 0.000000 0.170332
O O5 0.842292 0.500000 0.727290
O O6 0.895764 0.773959 0.692836
O O7 0.713503 0.208560 0.937383
O O8 0.606462 0.279829 0.901904
O O9 0.622785 0.000000 0.950009
O O10 0.630224 0.283346 0.000000
O O11 0.231259 0.500000 0.943207
O O12 0.160334 0.232254 0.946689
O O13 0.500000 0.729750 0.143464
O O14 0.572030 0.000000 0.144856
O O15 0.086615 0.500000 0.065449
O O16 0.052374 0.157396 0.086669
O O17 0.066950 0.266442 0.000000
#
# Coordination Sequence:
#
# PCOD9519664 Si02
#       7
#    16  16  16  16  16  16   4
#     4  10  19  32  55  83 110 139 181 236 289 345
#     4   9  17  32  53  80 110 141 184 234 288 345
#     4  10  20  34  54  83 118 152 194 248 297 345
#     4  11  22  36  56  83 117 153 190 238 297 352
#     4   9  17  32  55  82 114 154 197 241 293 353
#     4  10  22  38  57  85 116 150 199 247 289 353
#     4  12  23  38  64  86 110 160 200 240 296 350
#
# _framework density 21.259475999999999
#
# number of rings (size 3 to 8) (size 9 to 14) (size 15 to 20)
#    0.000    2.080    1.600    2.400    2.240    2.560 
#    0.000    1.600    1.760    1.920    0.000    1.120 
#    0.000    0.000    0.000    0.000    0.000    0.000 
#
# Total GULP energy -278478.807354 kJ/mol
# GULP energy per Si atom -5569.576147 kJ/mol
# Density = 2.121109 g / cm^3
# Si number density = 21.259476 Si / 1000 Ang^3
#
#
#
# Elastic Constant Matrix: (Units=GPa)
#
#
# Indices 1 2 3 4 5 6 
#
# 1 115.3888 6.6358 33.0865 0.0000 0.0000 0.0000
# 2 6.6358 66.2691 0.8006 0.0000 0.0000 0.0000
# 3 33.0865 0.8006 113.3181 0.0000 0.0000 0.0000
# 4 0.0000 0.0000 0.0000 6.3014 0.0000 0.0000
# 5 0.0000 0.0000 0.0000 0.0000 36.0398 0.0000
# 6 0.0000 0.0000 0.0000 0.0000 0.0000 47.3356
#
#
#
# Elastic Compliance Matrix: (Units=1/GPa)
#
#
# Indices 1 2 3 4 5 6 
#
# 1 0.009514 -0.000919 -0.002771 0.000000 0.000000 0.000000
# 2 -0.000919 0.015180 0.000161 0.000000 0.000000 0.000000
# 3 -0.002771 0.000161 0.009633 0.000000 0.000000 0.000000
# 4 0.000000 0.000000 0.000000 0.158694 0.000000 0.000000
# 5 0.000000 0.000000 0.000000 0.000000 0.027747 0.000000
# 6 0.000000 0.000000 0.000000 0.000000 0.000000 0.021126
#
#
# Mechanical properties :
#
#
# Convention : Reuss Voigt Hill
#
# Bulk Modulus (GPa) = 36.67318 41.78022 39.22670
# Shear Modulus (GPa) = 19.37668 34.89889 27.13778
#
# Velocity S-wave (km/s) = 3.02228 4.05602 3.57669
# Velocity P-wave (km/s) = 5.42831 6.45215 5.96225
#
# Compressibility (1/GPa) = 0.02726788
#
# Stress axis : x y z
#
# Youngs Moduli (GPa) = 105.10973 65.87578 103.81251
#
# Poissons Ratio (x) = 0.06055 0.28770
# Poissons Ratio (y) = 0.09662 -0.01673
# Poissons Ratio (z) = 0.29130 -0.01061
#
# Static dielectric constant tensor:
#      x y z
#    x 1.751070 0.000000 0.000000 
#    y 0.000000 1.818810 0.000000 
#    z 0.000000 0.000000 1.804720 
# 
# From -- ./inp_files/66404.got.cif
#   From: 2010.05.17/outbox.cif.g08.bks.cpg/sg71_34_cif.got.tgz:66404.got - 2010.06.03 16:22:01.
