data_PCOD9519168
_publ_section_title
;
Structure prediction by ZEFSAII (Michael W. Deem and Ramdas Pophale) SiO2 
 PCOD9519168
Probable space group: I M M M
;
_chemical_formula_sum "Si O2"
_cell_formula_units_Z 88
_cell_length_a 25.534873
_cell_length_b 25.741908
_cell_length_c 8.472970
_cell_angle_alpha 90.000000
_cell_angle_beta 90.000000
_cell_angle_gamma 90.000000
_cell_volume 5569.421727
_symmetry_space_group_name_H-M "I M M M"
_symmetry_group_IT_number 71
_symmetry_cell_setting 'orthorhombic'
loop_
_space_group_symop_operation_xyz
x,y,z
-x,-y,z
x,-y,-z
-x,y,-z
-x,-y,-z
x,y,-z
-x,y,z
x,-y,z
1/2+x,1/2+y,1/2+z
1/2-x,1/2-y,1/2+z
1/2+x,1/2-y,1/2-z
1/2-x,1/2+y,1/2-z
1/2-x,1/2-y,1/2-z
1/2+x,1/2+y,1/2-z
1/2-x,1/2+y,1/2+z
1/2+x,1/2-y,1/2+z
loop_
_atom_site_type_symbol
_atom_site_label
_atom_site_fract_x
_atom_site_fract_y
_atom_site_fract_z
Si Si1 0.000000 0.939512 0.177308
Si Si2 0.755048 0.167698 0.809038
Si Si3 0.101089 0.108533 0.684970
Si Si4 0.792994 0.940922 0.810710
Si Si5 0.334919 0.753431 0.811042
Si Si6 0.060535 0.219110 0.188800
O O1 0.050472 0.924979 0.276129
O O2 0.000000 0.000000 0.154602
O O3 0.000000 0.914337 0.000000
O O4 0.757068 0.107655 0.755976
O O5 0.703085 0.199212 0.761783
O O6 0.804355 0.201401 0.746750
O O7 0.758235 0.168562 0.000000
O O8 0.112587 0.112262 0.500000
O O9 0.149456 0.080814 0.770271
O O10 0.083217 0.164520 0.748911
O O11 0.785185 0.000000 0.749350
O O12 0.787923 0.943795 0.000000
O O13 0.393738 0.757749 0.745987
O O14 0.337047 0.751466 0.000000
O O15 0.000000 0.226735 0.242847
O O16 0.059879 0.218495 0.000000
#
# Coordination Sequence:
#
# PCOD9519168 Si02
#       6
#     8  16  16  16  16  16
#     4  11  23  37  49  59  79 119 165 203 244 289
#     4   9  18  32  50  71  97 127 159 195 238 290
#     4  12  23  33  47  67  90 119 160 206 245 278
#     4  10  20  34  51  69  94 129 163 194 233 284
#     4  10  19  31  50  74  96 122 158 200 243 286
#     4  11  22  35  51  68  93 127 161 199 244 294
#
# _framework density 15.800564
#
# number of rings (size 3 to 8) (size 9 to 14) (size 15 to 20)
#    0.000    1.545    2.727    3.545    0.000    5.091 
#    0.000    0.000    0.000    0.000    0.000    0.000 
#    0.000    0.727    0.000    9.091    0.000    1.455 
#
# Total GULP energy -245281.166036 kJ/mol
# GULP energy per Si atom -5574.571955 kJ/mol
# Density = 1.576460 g / cm^3
# Si number density = 15.800564 Si / 1000 Ang^3
#
#
#
# Elastic Constant Matrix: (Units=GPa)
#
#
# Indices 1 2 3 4 5 6 
#
# 1 102.8423 61.5407 11.3946 0.0000 0.0000 0.0000
# 2 61.5407 98.9449 9.7304 0.0000 0.0000 0.0000
# 3 11.3946 9.7304 17.2441 0.0000 0.0000 0.0000
# 4 0.0000 0.0000 0.0000 13.8016 0.0000 0.0000
# 5 0.0000 0.0000 0.0000 0.0000 23.7406 0.0000
# 6 0.0000 0.0000 0.0000 0.0000 0.0000 12.6943
#
#
#
# Elastic Compliance Matrix: (Units=1/GPa)
#
#
# Indices 1 2 3 4 5 6 
#
# 1 0.015920 -0.009388 -0.005222 0.000000 0.000000 0.000000
# 2 -0.009388 0.016237 -0.002958 0.000000 0.000000 0.000000
# 3 -0.005222 -0.002958 0.063111 0.000000 0.000000 0.000000
# 4 0.000000 0.000000 0.000000 0.072455 0.000000 0.000000
# 5 0.000000 0.000000 0.000000 0.000000 0.042122 0.000000
# 6 0.000000 0.000000 0.000000 0.000000 0.000000 0.078775
#
#
# Mechanical properties :
#
#
# Convention : Reuss Voigt Hill
#
# Bulk Modulus (GPa) = 16.63057 42.70699 29.66878
# Shear Modulus (GPa) = 14.54325 19.13834 16.84079
#
# Velocity S-wave (km/s) = 3.03714 3.48407 3.26825
# Velocity P-wave (km/s) = 4.77987 6.57818 5.74976
#
# Compressibility (1/GPa) = 0.06013023
#
# Stress axis : x y z
#
# Youngs Moduli (GPa) = 62.81335 61.58841 15.84507
#
# Poissons Ratio (x) = 0.57821 0.08275
# Poissons Ratio (y) = 0.58971 0.04688
# Poissons Ratio (z) = 0.32803 0.18220
#
# Static dielectric constant tensor:
#      x y z
#    x 1.563080 0.000000 0.000000 
#    y 0.000000 1.570450 0.000000 
#    z 0.000000 0.000000 1.550310 
# 
# From -- ./inp_files/11374.got.cif
#   From: 2010.05.17/outbox.cif.g08.bks.cpg/sg71_6_cif.got.tgz:11374.got - 2010.06.03 16:22:01.
