data_PCOD9519889
_publ_section_title
;
Structure prediction by ZEFSAII (Michael W. Deem and Ramdas Pophale) SiO2 
 PCOD9519889
Probable space group: I M M M
;
_chemical_formula_sum "Si O2"
_cell_formula_units_Z 96
_cell_length_a 8.416557
_cell_length_b 24.258135
_cell_length_c 26.277744
_cell_angle_alpha 90.000000
_cell_angle_beta 90.000000
_cell_angle_gamma 90.000000
_cell_volume 5365.126360
_symmetry_space_group_name_H-M "I M M M"
_symmetry_group_IT_number 71
_symmetry_cell_setting 'orthorhombic'
loop_
_space_group_symop_operation_xyz
x,y,z
-x,-y,z
x,-y,-z
-x,y,-z
-x,-y,-z
x,y,-z
-x,y,z
x,-y,z
1/2+x,1/2+y,1/2+z
1/2-x,1/2-y,1/2+z
1/2+x,1/2-y,1/2-z
1/2-x,1/2+y,1/2-z
1/2-x,1/2-y,1/2-z
1/2+x,1/2+y,1/2-z
1/2-x,1/2+y,1/2+z
1/2+x,1/2-y,1/2+z
loop_
_atom_site_type_symbol
_atom_site_label
_atom_site_fract_x
_atom_site_fract_y
_atom_site_fract_z
Si Si1 0.688386 0.249579 0.808134
Si Si2 0.807697 0.063848 0.252355
Si Si3 0.190141 0.365430 0.152611
Si Si4 0.693699 0.063085 0.442079
Si Si5 0.307921 0.633612 0.653318
Si Si6 0.306209 0.563343 0.557745
O O1 0.500000 0.248298 0.805988
O O2 0.750000 0.250000 0.750000
O O3 0.742913 0.305100 0.836084
O O4 0.749812 0.195109 0.836350
O O5 0.738502 0.095245 0.300766
O O6 0.759221 0.095576 0.201057
O O7 0.000000 0.066023 0.255157
O O8 0.759730 0.000000 0.251199
O O9 0.247870 0.394026 0.100475
O O10 0.000000 0.361608 0.150621
O O11 0.743468 0.075628 0.500000
O O12 0.500000 0.063436 0.441675
O O13 0.741988 0.000000 0.429936
O O14 0.500000 0.634364 0.652506
O O15 0.252028 0.605423 0.601010
O O16 0.255902 0.576541 0.500000
O O17 0.500000 0.563982 0.558061
O O18 0.259754 0.500000 0.569242
#
# Coordination Sequence:
#
# PCOD9519889 Si02
#       6
#    16  16  16  16  16  16
#     4  12  24  39  56  75 103 142 182 224 271 323
#     4  10  20  32  49  76 110 143 173 214 269 324
#     4  11  21  34  55  81 107 139 180 224 268 316
#     4   8  15  30  53  81 111 140 172 215 265 312
#     4  10  19  33  54  79 108 142 180 220 265 316
#     4   8  14  27  51  83 114 142 176 219 263 308
#
# _framework density 17.893335
#
# number of rings (size 3 to 8) (size 9 to 14) (size 15 to 20)
#    0.000    2.167    1.667    4.000    0.000    3.000 
#    0.000    0.833    0.000    9.000    0.000    7.000 
#    0.000    0.000    0.000    0.000    0.000    0.000 
#
# Total GULP energy -267907.883421 kJ/mol
# GULP energy per Si atom -5581.414238 kJ/mol
# Density = 1.785261 g / cm^3
# Si number density = 17.893335 Si / 1000 Ang^3
#
#
#
# Elastic Constant Matrix: (Units=GPa)
#
#
# Indices 1 2 3 4 5 6 
#
# 1 18.9584 26.3864 26.3696 0.0000 0.0000 0.0000
# 2 26.3864 180.2827 117.6865 0.0000 0.0000 0.0000
# 3 26.3696 117.6865 167.4722 0.0000 0.0000 0.0000
# 4 0.0000 0.0000 0.0000 22.3357 0.0000 0.0000
# 5 0.0000 0.0000 0.0000 0.0000 18.9097 0.0000
# 6 0.0000 0.0000 0.0000 0.0000 0.0000 24.1371
#
#
#
# Elastic Compliance Matrix: (Units=1/GPa)
#
#
# Indices 1 2 3 4 5 6 
#
# 1 0.070552 -0.005680 -0.007117 0.000000 0.000000 0.000000
# 2 -0.005680 0.010705 -0.006628 0.000000 0.000000 0.000000
# 3 -0.007117 -0.006628 0.011750 0.000000 0.000000 0.000000
# 4 0.000000 0.000000 0.000000 0.044771 0.000000 0.000000
# 5 0.000000 0.000000 0.000000 0.000000 0.052883 0.000000
# 6 0.000000 0.000000 0.000000 0.000000 0.000000 0.041430
#
#
# Mechanical properties :
#
#
# Convention : Reuss Voigt Hill
#
# Bulk Modulus (GPa) = 18.46539 78.62205 48.54372
# Shear Modulus (GPa) = 17.30137 26.16121 21.73129
#
# Velocity S-wave (km/s) = 3.11290 3.82784 3.48874
# Velocity P-wave (km/s) = 4.82310 7.97315 6.58914
#
# Compressibility (1/GPa) = 0.05415537
#
# Stress axis : x y z
#
# Youngs Moduli (GPa) = 14.17394 93.41352 85.10819
#
# Poissons Ratio (x) = 0.53058 0.60576
# Poissons Ratio (y) = 0.08051 0.56413
# Poissons Ratio (z) = 0.10088 0.61918
#
# Static dielectric constant tensor:
#      x y z
#    x 1.630530 0.000000 0.000000 
#    y 0.000000 1.593120 0.000000 
#    z 0.000000 0.000000 1.624190 
# 
# From -- ./inp_files/10873.got.cif
#   From: 2010.05.17/outbox.cif.g08.bks.cpg/sg71_6_cif.got.tgz:10873.got - 2010.06.03 16:22:01.
