data_PCOD9519154
_publ_section_title
;
Structure prediction by ZEFSAII (Michael W. Deem and Ramdas Pophale) SiO2 
 PCOD9519154
Probable space group: I M M M
;
_chemical_formula_sum "Si O2"
_cell_formula_units_Z 88
_cell_length_a 7.813425
_cell_length_b 28.068963
_cell_length_c 23.464491
_cell_angle_alpha 90.000000
_cell_angle_beta 90.000000
_cell_angle_gamma 90.000000
_cell_volume 5146.108678
_symmetry_space_group_name_H-M "I M M M"
_symmetry_group_IT_number 71
_symmetry_cell_setting 'orthorhombic'
loop_
_space_group_symop_operation_xyz
x,y,z
-x,-y,z
x,-y,-z
-x,y,-z
-x,-y,-z
x,y,-z
-x,y,z
x,-y,z
1/2+x,1/2+y,1/2+z
1/2-x,1/2-y,1/2+z
1/2+x,1/2-y,1/2-z
1/2-x,1/2+y,1/2-z
1/2-x,1/2-y,1/2-z
1/2+x,1/2+y,1/2-z
1/2-x,1/2+y,1/2+z
1/2+x,1/2-y,1/2+z
loop_
_atom_site_type_symbol
_atom_site_label
_atom_site_fract_x
_atom_site_fract_y
_atom_site_fract_z
Si Si1 0.500000 0.358393 0.568806
Si Si2 0.690047 0.790402 0.069221
Si Si3 0.500000 0.556102 0.652349
Si Si4 0.295312 0.906540 0.636409
Si Si5 0.207688 0.684113 0.933931
Si Si6 0.700913 0.943212 0.242157
Si Si7 0.704524 0.500000 0.935264
O O1 0.500000 0.362545 0.500000
O O2 0.335031 0.327397 0.586755
O O3 0.500000 0.409176 0.598763
O O4 0.500000 0.803969 0.088004
O O5 0.730506 0.735994 0.085762
O O6 0.693528 0.789981 0.000000
O O7 0.500000 0.500000 0.637482
O O8 0.668680 0.565542 0.690738
O O9 0.500000 0.901987 0.639831
O O10 0.230012 0.859161 0.605229
O O11 0.238171 0.916093 0.700965
O O12 0.258812 0.952825 0.598331
O O13 0.000000 0.684882 0.933612
O O14 0.260609 0.676767 0.000000
O O15 0.500000 0.932189 0.230142
O O16 0.708317 0.000000 0.254967
O O17 0.500000 0.500000 0.937598
O O18 0.772166 0.500000 0.000000
#
# Coordination Sequence:
#
# PCOD9519154 Si02
#       7
#     8  16   8  16  16  16   8
#     4  10  20  37  60  86 114 135 164 204 255 331
#     4   9  17  31  53  79 107 141 176 209 253 312
#     4  10  22  37  60  86 108 140 165 211 268 310
#     4  10  19  31  50  71  96 141 189 232 277 315
#     4   9  16  28  47  74 105 137 179 229 272 314
#     4   9  18  34  54  77 102 137 190 227 255 309
#     4  11  23  31  39  65 107 145 181 236 291 328
#
# _framework density 17.100300000000001
#
# number of rings (size 3 to 8) (size 9 to 14) (size 15 to 20)
#    0.000    2.455    1.818    0.818    1.273    3.091 
#    0.000    1.818    0.000    1.091    0.000    5.091 
#    0.000    0.000    0.000    0.000    0.000    0.000 
#
# Total GULP energy -245342.998614 kJ/mol
# GULP energy per Si atom -5575.977241 kJ/mol
# Density = 1.706138 g / cm^3
# Si number density = 17.100300 Si / 1000 Ang^3
#
#
#
# Elastic Constant Matrix: (Units=GPa)
#
#
# Indices 1 2 3 4 5 6 
#
# 1 75.6266 45.7197 32.7289 0.0000 0.0000 0.0000
# 2 45.7197 113.3956 56.4079 0.0000 0.0000 0.0000
# 3 32.7289 56.4079 54.8035 0.0000 0.0000 0.0000
# 4 0.0000 0.0000 0.0000 9.7812 0.0000 0.0000
# 5 0.0000 0.0000 0.0000 0.0000 12.6854 0.0000
# 6 0.0000 0.0000 0.0000 0.0000 0.0000 -5.8792
#
#
#
# Elastic Compliance Matrix: (Units=1/GPa)
#
#
# Indices 1 2 3 4 5 6 
#
# 1 0.018704 -0.004067 -0.006984 0.000000 0.000000 0.000000
# 2 -0.004067 0.018956 -0.017082 0.000000 0.000000 0.000000
# 3 -0.006984 -0.017082 0.040000 0.000000 0.000000 0.000000
# 4 0.000000 0.000000 0.000000 0.102237 0.000000 0.000000
# 5 0.000000 0.000000 0.000000 0.000000 0.078831 0.000000
# 6 0.000000 0.000000 0.000000 0.000000 0.000000 -0.170091
#
#
# Mechanical properties :
#
#
# Convention : Reuss Voigt Hill
#
# Bulk Modulus (GPa) = 46.74251 57.05985 51.90118
# Shear Modulus (GPa) = 32.88729 10.58207 21.73468
#
# Velocity S-wave (km/s) = 4.39019 2.49032 3.56899
# Velocity P-wave (km/s) = 7.28642 6.45826 6.88480
#
# Compressibility (1/GPa) = 0.02139380
#
# Stress axis : x y z
#
# Youngs Moduli (GPa) = 53.46425 52.75459 25.00014
#
# Poissons Ratio (x) = 0.21456 0.17460
# Poissons Ratio (y) = 0.21744 0.42705
# Poissons Ratio (z) = 0.37340 0.90114
#
# Static dielectric constant tensor:
#      x y z
#    x 1.607640 0.000000 0.000000 
#    y 0.000000 1.374430 0.000000 
#    z 0.000000 0.000000 1.560240 
# 
# From -- ./inp_files/50547.got.cif
#   From: 2010.05.17/outbox.cif.g08.bks.cpg/sg71_26_cif.got.tgz:50547.got - 2010.06.03 16:22:01.
