data_PCOD9519984
_publ_section_title
;
Structure prediction by ZEFSAII (Michael W. Deem and Ramdas Pophale) SiO2 
 PCOD9519984
Probable space group: I M M M
;
_chemical_formula_sum "Si O2"
_cell_formula_units_Z 72
_cell_length_a 19.840950
_cell_length_b 8.680626
_cell_length_c 22.519641
_cell_angle_alpha 90.000000
_cell_angle_beta 90.000000
_cell_angle_gamma 90.000000
_cell_volume 3878.599801
_symmetry_space_group_name_H-M "I M M M"
_symmetry_group_IT_number 71
_symmetry_cell_setting 'orthorhombic'
loop_
_space_group_symop_operation_xyz
x,y,z
-x,-y,z
x,-y,-z
-x,y,-z
-x,-y,-z
x,y,-z
-x,y,z
x,-y,z
1/2+x,1/2+y,1/2+z
1/2-x,1/2-y,1/2+z
1/2+x,1/2-y,1/2-z
1/2-x,1/2+y,1/2-z
1/2-x,1/2-y,1/2-z
1/2+x,1/2+y,1/2-z
1/2-x,1/2+y,1/2+z
1/2+x,1/2-y,1/2+z
loop_
_atom_site_type_symbol
_atom_site_label
_atom_site_fract_x
_atom_site_fract_y
_atom_site_fract_z
Si Si1 0.921656 0.814858 0.770156
Si Si2 0.922438 0.315883 0.640214
Si Si3 0.162606 0.813693 0.884625
Si Si4 0.299461 0.315702 0.068504
Si Si5 0.922543 0.187777 0.000000
O O1 0.906425 0.736665 0.707392
O O2 0.873166 0.765647 0.823556
O O3 0.000000 0.781904 0.785458
O O4 0.915911 0.000000 0.763224
O O5 0.918507 0.500000 0.636336
O O6 0.869420 0.241830 0.595679
O O7 0.000000 0.268651 0.628240
O O8 0.237180 0.750257 0.894056
O O9 0.117287 0.764011 0.940971
O O10 0.164842 0.000000 0.885034
O O11 0.297375 0.500000 0.070026
O O12 0.292049 0.264389 0.000000
O O13 0.000000 0.239571 0.000000
O O14 0.923476 0.000000 0.000000
#
# Coordination Sequence:
#
# PCOD9519984 Si02
#       5
#    16  16  16  16   8
#     4   9  18  34  57  86 118 150 187 231 279 331
#     4  10  22  40  62  86 110 141 184 233 285 340
#     4  10  19  33  56  84 115 152 190 231 276 325
#     4  11  24  40  58  81 113 150 187 231 283 338
#     4   9  16  28  51  83 114 147 190 233 271 316
#
# _framework density 18.563400999999999
#
# number of rings (size 3 to 8) (size 9 to 14) (size 15 to 20)
#    0.000    2.111    1.111    2.000    0.000    7.556 
#    0.000    2.222    0.000    2.667    0.000    0.000 
#    0.000    0.000    0.000    0.000    0.000    0.000 
#
# Total GULP energy -201039.875397 kJ/mol
# GULP energy per Si atom -5584.440983 kJ/mol
# Density = 1.852115 g / cm^3
# Si number density = 18.563401 Si / 1000 Ang^3
#
#
#
# Elastic Constant Matrix: (Units=GPa)
#
#
# Indices 1 2 3 4 5 6 
#
# 1 95.1179 18.5849 40.7228 0.0000 0.0000 0.0000
# 2 18.5849 15.6226 15.7086 0.0000 0.0000 0.0000
# 3 40.7228 15.7086 51.7365 0.0000 0.0000 0.0000
# 4 0.0000 0.0000 0.0000 20.3820 0.0000 0.0000
# 5 0.0000 0.0000 0.0000 0.0000 33.1189 0.0000
# 6 0.0000 0.0000 0.0000 0.0000 0.0000 16.9505
#
#
#
# Elastic Compliance Matrix: (Units=1/GPa)
#
#
# Indices 1 2 3 4 5 6 
#
# 1 0.016807 -0.009633 -0.010304 0.000000 0.000000 0.000000
# 2 -0.009633 0.097662 -0.022071 0.000000 0.000000 0.000000
# 3 -0.010304 -0.022071 0.034141 0.000000 0.000000 0.000000
# 4 0.000000 0.000000 0.000000 0.049063 0.000000 0.000000
# 5 0.000000 0.000000 0.000000 0.000000 0.030194 0.000000
# 6 0.000000 0.000000 0.000000 0.000000 0.000000 0.058995
#
#
# Mechanical properties :
#
#
# Convention : Reuss Voigt Hill
#
# Bulk Modulus (GPa) = 15.48137 34.72329 25.10233
# Shear Modulus (GPa) = 12.74184 19.92099 16.33141
#
# Velocity S-wave (km/s) = 2.62276 3.27942 2.96930
# Velocity P-wave (km/s) = 4.18684 5.75199 5.03066
#
# Compressibility (1/GPa) = 0.06459375
#
# Stress axis : x y z
#
# Youngs Moduli (GPa) = 59.49911 10.23945 29.29062
#
# Poissons Ratio (x) = 0.09864 0.30182
# Poissons Ratio (y) = 0.57315 0.64646
# Poissons Ratio (z) = 0.61310 0.22599
#
# Static dielectric constant tensor:
#      x y z
#    x 1.620620 0.000000 0.000000 
#    y 0.000000 1.626590 0.000000 
#    z 0.000000 0.000000 1.619790 
# 
# From -- ./inp_files/7981.got.cif
#   From: 2010.05.17/outbox.cif.g08.bks.cpg/sg71_4_cif.got.tgz:7981.got - 2010.06.03 16:22:01.
