data_PCOD9519157
_publ_section_title
;
Structure prediction by ZEFSAII (Michael W. Deem and Ramdas Pophale) SiO2 
 PCOD9519157
Probable space group: I M M M
;
_chemical_formula_sum "Si O2"
_cell_formula_units_Z 104
_cell_length_a 8.086423
_cell_length_b 29.895772
_cell_length_c 22.959347
_cell_angle_alpha 90.000000
_cell_angle_beta 90.000000
_cell_angle_gamma 90.000000
_cell_volume 5550.418884
_symmetry_space_group_name_H-M "I M M M"
_symmetry_group_IT_number 71
_symmetry_cell_setting 'orthorhombic'
loop_
_space_group_symop_operation_xyz
x,y,z
-x,-y,z
x,-y,-z
-x,y,-z
-x,-y,-z
x,y,-z
-x,y,z
x,-y,z
1/2+x,1/2+y,1/2+z
1/2-x,1/2-y,1/2+z
1/2+x,1/2-y,1/2-z
1/2-x,1/2+y,1/2-z
1/2-x,1/2-y,1/2-z
1/2+x,1/2+y,1/2-z
1/2-x,1/2+y,1/2+z
1/2+x,1/2-y,1/2+z
loop_
_atom_site_type_symbol
_atom_site_label
_atom_site_fract_x
_atom_site_fract_y
_atom_site_fract_z
Si Si1 0.686053 0.394700 0.569234
Si Si2 0.199530 0.197653 0.256322
Si Si3 0.692878 0.636926 0.864020
Si Si4 0.300479 0.694627 0.370841
Si Si5 0.800563 0.281825 0.066385
Si Si6 0.500000 0.948661 0.071174
Si Si7 0.698828 0.051104 0.566620
O O1 0.677340 0.400882 0.500000
O O2 0.500000 0.402860 0.592710
O O3 0.733908 0.343791 0.583014
O O4 0.832204 0.425524 0.592226
O O5 0.250000 0.250000 0.250000
O O6 0.263466 0.165838 0.308661
O O7 0.252113 0.179343 0.193077
O O8 0.000000 0.197799 0.261093
O O9 0.500000 0.630979 0.852200
O O10 0.722160 0.671296 0.916893
O O11 0.756932 0.588966 0.886126
O O12 0.500000 0.699459 0.368990
O O13 0.236836 0.742766 0.391064
O O14 0.000000 0.285995 0.072415
O O15 0.766692 0.268975 0.000000
O O16 0.500000 0.000000 0.087069
O O17 0.500000 0.945533 0.000000
O O18 0.756158 0.062088 0.500000
O O19 0.500000 0.050084 0.564368
O O20 0.755045 0.000000 0.579898
#
# Coordination Sequence:
#
# PCOD9519157 Si02
#       7
#    16  16  16  16  16   8  16
#     4   9  17  31  52  77 104 136 176 219 269 326
#     4  10  20  35  52  72 101 139 182 217 251 305
#     4  11  22  33  49  78 111 139 173 218 268 321
#     4   9  17  32  52  70  97 134 176 218 257 307
#     4  10  19  31  50  73 100 140 180 213 255 309
#     4   9  18  32  50  76 108 136 168 214 264 318
#     4   9  19  37  60  82 103 135 181 225 268 325
#
# _framework density 18.737324999999998
#
# number of rings (size 3 to 8) (size 9 to 14) (size 15 to 20)
#    0.000    2.385    1.538    1.846    0.000    5.538 
#    2.769    2.308    0.000    0.923    0.000    4.308 
#    0.000    0.000    0.000    0.000    0.000    0.000 
#
# Total GULP energy -289544.374780 kJ/mol
# GULP energy per Si atom -5568.161053 kJ/mol
# Density = 1.869468 g / cm^3
# Si number density = 18.737325 Si / 1000 Ang^3
#
#
#
# Elastic Constant Matrix: (Units=GPa)
#
#
# Indices 1 2 3 4 5 6 
#
# 1 37.5028 37.0192 14.4138 0.0000 0.0000 0.0000
# 2 37.0192 130.4425 35.3750 0.0000 0.0000 0.0000
# 3 14.4138 35.3750 60.3835 0.0000 0.0000 0.0000
# 4 0.0000 0.0000 0.0000 21.4084 0.0000 0.0000
# 5 0.0000 0.0000 0.0000 0.0000 13.2264 0.0000
# 6 0.0000 0.0000 0.0000 0.0000 0.0000 28.6510
#
#
#
# Elastic Compliance Matrix: (Units=1/GPa)
#
#
# Indices 1 2 3 4 5 6 
#
# 1 0.037566 -0.009784 -0.003235 0.000000 0.000000 0.000000
# 2 -0.009784 0.011662 -0.004497 0.000000 0.000000 0.000000
# 3 -0.003235 -0.004497 0.019968 0.000000 0.000000 0.000000
# 4 0.000000 0.000000 0.000000 0.046711 0.000000 0.000000
# 5 0.000000 0.000000 0.000000 0.000000 0.075606 0.000000
# 6 0.000000 0.000000 0.000000 0.000000 0.000000 0.034903
#
#
# Mechanical properties :
#
#
# Convention : Reuss Voigt Hill
#
# Bulk Modulus (GPa) = 29.27086 44.66054 36.96570
# Shear Modulus (GPa) = 18.32612 22.09190 20.20901
#
# Velocity S-wave (km/s) = 3.13078 3.43743 3.28768
# Velocity P-wave (km/s) = 5.35954 6.29614 5.84662
#
# Compressibility (1/GPa) = 0.03416367
#
# Stress axis : x y z
#
# Youngs Moduli (GPa) = 26.62011 85.74658 50.08127
#
# Poissons Ratio (x) = 0.83891 0.16204
# Poissons Ratio (y) = 0.26044 0.22521
# Poissons Ratio (z) = 0.08613 0.38559
#
# Static dielectric constant tensor:
#      x y z
#    x 1.680980 0.000000 0.000000 
#    y 0.000000 1.646230 0.000000 
#    z 0.000000 0.000000 1.690470 
# 
# From -- ./inp_files/17269.got.cif
#   From: 2010.05.17/outbox.cif.g08.bks.cpg/sg71_9_cif.got.tgz:17269.got - 2010.06.03 16:22:01.
