data_PCOD9519286
_publ_section_title
;
Structure prediction by ZEFSAII (Michael W. Deem and Ramdas Pophale) SiO2 
 PCOD9519286
Probable space group: I M M M
;
_chemical_formula_sum "Si O2"
_cell_formula_units_Z 112
_cell_length_a 15.783470
_cell_length_b 25.814237
_cell_length_c 14.333026
_cell_angle_alpha 90.000000
_cell_angle_beta 90.000000
_cell_angle_gamma 90.000000
_cell_volume 5839.822819
_symmetry_space_group_name_H-M "I M M M"
_symmetry_group_IT_number 71
_symmetry_cell_setting 'orthorhombic'
loop_
_space_group_symop_operation_xyz
x,y,z
-x,-y,z
x,-y,-z
-x,y,-z
-x,-y,-z
x,y,-z
-x,y,z
x,-y,z
1/2+x,1/2+y,1/2+z
1/2-x,1/2-y,1/2+z
1/2+x,1/2-y,1/2-z
1/2-x,1/2+y,1/2-z
1/2-x,1/2-y,1/2-z
1/2+x,1/2+y,1/2-z
1/2-x,1/2+y,1/2+z
1/2+x,1/2-y,1/2+z
loop_
_atom_site_type_symbol
_atom_site_label
_atom_site_fract_x
_atom_site_fract_y
_atom_site_fract_z
Si Si1 0.094392 0.682906 0.104741
Si Si2 0.779221 0.558183 0.313525
Si Si3 0.599178 0.147372 0.888545
Si Si4 0.265545 0.906458 0.396885
Si Si5 0.593193 0.641341 0.155556
Si Si6 0.849019 0.746726 0.274471
Si Si7 0.908551 0.060205 0.175254
O O1 0.164528 0.638618 0.116143
O O2 0.106158 0.727039 0.180669
O O3 0.000000 0.660315 0.113970
O O4 0.103258 0.703928 0.000000
O O5 0.807083 0.500000 0.336888
O O6 0.845114 0.601492 0.344966
O O7 0.768084 0.561934 0.200298
O O8 0.687037 0.567503 0.362444
O O9 0.500000 0.142575 0.862502
O O10 0.633419 0.201829 0.849525
O O11 0.605508 0.145848 0.000000
O O12 0.280696 0.930884 0.500000
O O13 0.173409 0.879824 0.400028
O O14 0.500000 0.641531 0.110877
O O15 0.615848 0.698717 0.190655
O O16 0.587991 0.601998 0.242688
O O17 0.750000 0.750000 0.250000
O O18 0.000000 0.065421 0.123343
O O19 0.907093 0.000000 0.208542
#
# Coordination Sequence:
#
# PCOD9519286 Si02
#       7
#    16  16  16  16  16  16  16
#     4  10  20  35  56  78 107 151 193 231 284 349
#     4  10  20  37  61  88 117 155 203 252 299 351
#     4  11  25  43  62  87 121 161 201 245 301 356
#     4  10  20  35  54  83 118 151 191 238 291 356
#     4  10  19  31  52  82 115 156 200 241 285 341
#     4  12  21  37  59  84 120 154 193 247 296 347
#     4   8  15  31  55  83 116 151 189 236 293 352
#
# _framework density 19.178664000000001
#
# number of rings (size 3 to 8) (size 9 to 14) (size 15 to 20)
#    0.000    1.857    2.857    2.143    0.000    2.286 
#    0.000    0.714    0.000    0.429    0.000   15.000 
#    0.000    0.000    0.000    0.000    0.000    0.000 
#
# Total GULP energy -311976.962978 kJ/mol
# GULP energy per Si atom -5571.017196 kJ/mol
# Density = 1.913501 g / cm^3
# Si number density = 19.178664 Si / 1000 Ang^3
#
#
#
# Elastic Constant Matrix: (Units=GPa)
#
#
# Indices 1 2 3 4 5 6 
#
# 1 150.0519 49.0544 21.1983 0.0000 0.0000 0.0000
# 2 49.0544 100.4675 21.3919 0.0000 0.0000 0.0000
# 3 21.1983 21.3919 59.0757 0.0001 0.0001 0.0000
# 4 0.0000 0.0000 0.0001 -0.3302 0.0000 0.0000
# 5 0.0000 0.0000 0.0001 0.0000 38.5804 0.0000
# 6 0.0000 0.0000 0.0000 0.0000 0.0000 23.0414
#
#
#
# Elastic Compliance Matrix: (Units=1/GPa)
#
#
# Indices 1 2 3 4 5 6 
#
# 1 0.008066 -0.003599 -0.001591 -0.000001 0.000000 0.000000
# 2 -0.003599 0.012391 -0.003195 0.000000 0.000000 0.000000
# 3 -0.001591 -0.003195 0.018655 0.000007 0.000000 0.000000
# 4 -0.000001 0.000000 0.000007 -3.028403 0.000003 0.000000
# 5 0.000000 0.000000 0.000000 0.000003 0.025920 0.000000
# 6 0.000000 0.000000 0.000000 0.000000 0.000000 0.043400
#
#
# Mechanical properties :
#
#
# Convention : Reuss Voigt Hill
#
# Bulk Modulus (GPa) = 44.76075 54.76491 49.76283
# Shear Modulus (GPa) = -1.72667 26.78837 12.53085
#
# Velocity S-wave (km/s) = -0.94987 3.74141 2.55889
# Velocity P-wave (km/s) = 4.71025 6.87614 5.89355
#
# Compressibility (1/GPa) = 0.02234100
#
# Stress axis : x y z
#
# Youngs Moduli (GPa) = 123.97966 80.70156 53.60385
#
# Poissons Ratio (x) = 0.29049 0.08528
# Poissons Ratio (y) = 0.44626 0.17129
# Poissons Ratio (z) = 0.19724 0.25787
#
# Static dielectric constant tensor:
#      x y z
#    x 1.714630 0.000000 0.000000 
#    y 0.000000 1.624560 0.000000 
#    z 0.000000 0.000000 1.682210 
# 
# From -- ./inp_files/34895.got.cif
#   From: 2010.05.17/outbox.cif.g08.bks.cpg/sg71_18_cif.got.tgz:34895.got - 2010.06.03 16:22:01.
