data_PCOD9519535
_publ_section_title
;
Structure prediction by ZEFSAII (Michael W. Deem and Ramdas Pophale) SiO2 
 PCOD9519535
Probable space group: I M M M
;
_chemical_formula_sum "Si O2"
_cell_formula_units_Z 88
_cell_length_a 32.793894
_cell_length_b 7.582474
_cell_length_c 19.419167
_cell_angle_alpha 90.000000
_cell_angle_beta 90.000000
_cell_angle_gamma 90.000000
_cell_volume 4828.747707
_symmetry_space_group_name_H-M "I M M M"
_symmetry_group_IT_number 71
_symmetry_cell_setting 'orthorhombic'
loop_
_space_group_symop_operation_xyz
x,y,z
-x,-y,z
x,-y,-z
-x,y,-z
-x,-y,-z
x,y,-z
-x,y,z
x,-y,z
1/2+x,1/2+y,1/2+z
1/2-x,1/2-y,1/2+z
1/2+x,1/2-y,1/2-z
1/2-x,1/2+y,1/2-z
1/2-x,1/2-y,1/2-z
1/2+x,1/2+y,1/2-z
1/2-x,1/2+y,1/2+z
1/2+x,1/2-y,1/2+z
loop_
_atom_site_type_symbol
_atom_site_label
_atom_site_fract_x
_atom_site_fract_y
_atom_site_fract_z
Si Si1 0.451870 0.000000 0.924281
Si Si2 0.896478 0.790505 0.918958
Si Si3 0.453749 0.286595 0.297942
Si Si4 0.591750 0.708473 0.839349
Si Si5 0.173968 0.707484 0.581008
Si Si6 0.739251 0.500000 0.083033
Si Si7 0.168630 0.500000 0.916552
O O1 0.437302 0.825763 0.886298
O O2 0.500000 0.000000 0.927981
O O3 0.432964 0.000000 0.000000
O O4 0.934435 0.737626 0.871164
O O5 0.857730 0.672420 0.898181
O O6 0.888779 0.000000 0.909466
O O7 0.904578 0.761075 0.000000
O O8 0.500000 0.220821 0.286367
O O9 0.456155 0.500000 0.297050
O O10 0.421551 0.239528 0.238063
O O11 0.584908 0.500000 0.846830
O O12 0.636849 0.750301 0.867452
O O13 0.163267 0.747933 0.500000
O O14 0.183029 0.500000 0.584341
O O15 0.212399 0.828532 0.600352
O O16 0.785268 0.500000 0.110671
O O17 0.742488 0.500000 0.000000
O O18 0.170931 0.500000 0.000000
#
# Coordination Sequence:
#
# PCOD9519535 Si02
#       7
#     8  16  16  16  16   8   8
#     4  11  24  37  50  74 105 140 187 234 274 323
#     4   9  18  34  57  83 111 145 179 218 275 330
#     4   9  19  35  55  82 110 142 187 228 269 328
#     4  11  21  35  55  76 105 147 182 228 276 325
#     4  10  19  32  52  79 106 137 180 227 273 319
#     4   9  18  32  53  82 110 138 176 225 274 324
#     4   9  18  33  54  83 114 139 175 221 268 331
#
# _framework density 18.224188000000002
#
# number of rings (size 3 to 8) (size 9 to 14) (size 15 to 20)
#    0.000    2.273    1.818    1.091    0.000    4.000 
#    0.000    7.727    0.000    2.727    0.000    0.000 
#    0.000    0.000    0.000    0.000    0.000    0.000 
#
# Total GULP energy -245252.366191 kJ/mol
# GULP energy per Si atom -5573.917413 kJ/mol
# Density = 1.818271 g / cm^3
# Si number density = 18.224188 Si / 1000 Ang^3
#
#
#
# Elastic Constant Matrix: (Units=GPa)
#
#
# Indices 1 2 3 4 5 6 
#
# 1 117.0555 32.3602 49.8811 0.0000 0.0000 0.0000
# 2 32.3602 88.5421 33.9265 0.0000 0.0000 0.0000
# 3 49.8811 33.9265 80.1412 0.0000 0.0000 0.0000
# 4 0.0000 0.0000 0.0000 18.9317 0.0000 0.0000
# 5 0.0000 0.0000 0.0000 0.0000 44.5963 0.0000
# 6 0.0000 0.0000 0.0000 0.0000 0.0000 20.6512
#
#
#
# Elastic Compliance Matrix: (Units=1/GPa)
#
#
# Indices 1 2 3 4 5 6 
#
# 1 0.011862 -0.001798 -0.006622 0.000000 0.000000 0.000000
# 2 -0.001798 0.013753 -0.004703 0.000000 0.000000 0.000000
# 3 -0.006622 -0.004703 0.018590 0.000000 0.000000 0.000000
# 4 0.000000 0.000000 0.000000 0.052821 0.000000 0.000000
# 5 0.000000 0.000000 0.000000 0.000000 0.022423 0.000000
# 6 0.000000 0.000000 0.000000 0.000000 0.000000 0.048423
#
#
# Mechanical properties :
#
#
# Convention : Reuss Voigt Hill
#
# Bulk Modulus (GPa) = 55.68023 57.56383 56.62203
# Shear Modulus (GPa) = 24.98676 28.14059 26.56367
#
# Velocity S-wave (km/s) = 3.70682 3.93381 3.82200
# Velocity P-wave (km/s) = 6.99571 7.23106 7.11436
#
# Compressibility (1/GPa) = 0.01795970
#
# Stress axis : x y z
#
# Youngs Moduli (GPa) = 84.30444 72.71002 53.79094
#
# Poissons Ratio (x) = 0.13073 0.35619
# Poissons Ratio (y) = 0.15157 0.25299
# Poissons Ratio (z) = 0.55825 0.34197
#
# Static dielectric constant tensor:
#      x y z
#    x 1.616020 0.000000 0.000000 
#    y 0.000000 1.617030 0.000000 
#    z 0.000000 0.000000 1.641790 
# 
# From -- ./inp_files/56609.got.cif
#   From: 2010.05.17/outbox.cif.g08.bks.cpg/sg71_29_cif.got.tgz:56609.got - 2010.06.03 16:22:01.
