data_PCOD9519930
_publ_section_title
;
Structure prediction by ZEFSAII (Michael W. Deem and Ramdas Pophale) SiO2 
 PCOD9519930
Probable space group: I M M M
;
_chemical_formula_sum "Si O2"
_cell_formula_units_Z 72
_cell_length_a 33.612808
_cell_length_b 8.471834
_cell_length_c 13.672302
_cell_angle_alpha 90.000000
_cell_angle_beta 90.000000
_cell_angle_gamma 90.000000
_cell_volume 3893.353835
_symmetry_space_group_name_H-M "I M M M"
_symmetry_group_IT_number 71
_symmetry_cell_setting 'orthorhombic'
loop_
_space_group_symop_operation_xyz
x,y,z
-x,-y,z
x,-y,-z
-x,y,-z
-x,-y,-z
x,y,-z
-x,y,z
x,-y,z
1/2+x,1/2+y,1/2+z
1/2-x,1/2-y,1/2+z
1/2+x,1/2-y,1/2-z
1/2-x,1/2+y,1/2-z
1/2-x,1/2-y,1/2-z
1/2+x,1/2+y,1/2-z
1/2-x,1/2+y,1/2+z
1/2+x,1/2-y,1/2+z
loop_
_atom_site_type_symbol
_atom_site_label
_atom_site_fract_x
_atom_site_fract_y
_atom_site_fract_z
Si Si1 0.500000 0.808219 0.385709
Si Si2 0.133023 0.188768 0.611992
Si Si3 0.207325 0.319973 0.277511
Si Si4 0.084089 0.689555 0.796071
Si Si5 0.158969 0.820001 0.887946
O O1 0.500000 0.754431 0.500000
O O2 0.460564 0.763160 0.325140
O O3 0.500000 0.000000 0.390046
O O4 0.126363 0.240236 0.500000
O O5 0.177902 0.233945 0.645992
O O6 0.101961 0.262472 0.689960
O O7 0.129094 0.000000 0.616778
O O8 0.211939 0.500000 0.308569
O O9 0.250000 0.250000 0.250000
O O10 0.182850 0.302254 0.177224
O O11 0.087424 0.500000 0.805317
O O12 0.113221 0.775966 0.872158
O O13 0.166026 0.000000 0.852498
O O14 0.170433 0.811846 0.000000
#
# Coordination Sequence:
#
# PCOD9519930 Si02
#       5
#     8  16  16  16  16
#     4   9  18  32  52  81 114 144 175 215 266 321
#     4  10  21  38  58  78 105 142 181 223 271 321
#     4  11  22  36  55  78 106 137 173 219 264 312
#     4  10  19  33  55  80 107 139 177 221 264 313
#     4  10  20  34  52  75 105 138 171 210 257 311
#
# _framework density 18.493054000000001
#
# number of rings (size 3 to 8) (size 9 to 14) (size 15 to 20)
#    0.000    1.889    0.000    7.333    0.000    5.333 
#    0.000    2.778    0.000    7.333    0.000    0.000 
#    0.000    0.000    0.000    0.000    0.000    0.000 
#
# Total GULP energy -200718.416992 kJ/mol
# GULP energy per Si atom -5575.511583 kJ/mol
# Density = 1.845096 g / cm^3
# Si number density = 18.493054 Si / 1000 Ang^3
#
#
#
# Elastic Constant Matrix: (Units=GPa)
#
#
# Indices 1 2 3 4 5 6 
#
# 1 119.0432 1.5473 20.3969 0.0000 0.0000 0.0000
# 2 1.5473 50.1362 3.0301 0.0000 0.0000 0.0000
# 3 20.3969 3.0301 94.2561 0.0000 0.0000 0.0000
# 4 0.0000 0.0000 0.0000 26.0844 0.0000 0.0000
# 5 0.0000 0.0000 0.0000 0.0000 7.1514 0.0000
# 6 0.0000 0.0000 0.0000 0.0000 0.0000 24.5571
#
#
#
# Elastic Compliance Matrix: (Units=1/GPa)
#
#
# Indices 1 2 3 4 5 6 
#
# 1 0.008725 -0.000155 -0.001883 0.000000 0.000000 0.000000
# 2 -0.000155 0.019987 -0.000609 0.000000 0.000000 0.000000
# 3 -0.001883 -0.000609 0.011036 0.000000 0.000000 0.000000
# 4 0.000000 0.000000 0.000000 0.038337 0.000000 0.000000
# 5 0.000000 0.000000 0.000000 0.000000 0.139834 0.000000
# 6 0.000000 0.000000 0.000000 0.000000 0.000000 0.040721
#
#
# Mechanical properties :
#
#
# Convention : Reuss Voigt Hill
#
# Bulk Modulus (GPa) = 29.02434 34.82044 31.92239
# Shear Modulus (GPa) = 18.15406 27.45598 22.80502
#
# Velocity S-wave (km/s) = 3.13656 3.85731 3.51546
# Velocity P-wave (km/s) = 5.37086 6.22160 5.81182
#
# Compressibility (1/GPa) = 0.03445384
#
# Stress axis : x y z
#
# Youngs Moduli (GPa) = 114.61348 50.03187 90.60875
#
# Poissons Ratio (x) = 0.00778 0.17062
# Poissons Ratio (y) = 0.01782 0.05517
# Poissons Ratio (z) = 0.21583 0.03046
#
# Static dielectric constant tensor:
#      x y z
#    x 1.671410 0.000000 0.000000 
#    y 0.000000 1.645800 0.000000 
#    z 0.000000 0.000000 1.640590 
# 
# From -- ./inp_files/40690.got.cif
#   From: 2010.05.17/outbox.cif.g08.bks.cpg/sg71_21_cif.got.tgz:40690.got - 2010.06.03 16:22:01.
