data_PCOD9519735
_publ_section_title
;
Structure prediction by ZEFSAII (Michael W. Deem and Ramdas Pophale) SiO2 
 PCOD9519735
Probable space group: I M M M
;
_chemical_formula_sum "Si O2"
_cell_formula_units_Z 104
_cell_length_a 23.000958
_cell_length_b 30.360913
_cell_length_c 9.333184
_cell_angle_alpha 90.000000
_cell_angle_beta 90.000000
_cell_angle_gamma 90.000000
_cell_volume 6517.643174
_symmetry_space_group_name_H-M "I M M M"
_symmetry_group_IT_number 71
_symmetry_cell_setting 'orthorhombic'
loop_
_space_group_symop_operation_xyz
x,y,z
-x,-y,z
x,-y,-z
-x,y,-z
-x,-y,-z
x,y,-z
-x,y,z
x,-y,z
1/2+x,1/2+y,1/2+z
1/2-x,1/2-y,1/2+z
1/2+x,1/2-y,1/2-z
1/2-x,1/2+y,1/2-z
1/2-x,1/2-y,1/2-z
1/2+x,1/2+y,1/2-z
1/2-x,1/2+y,1/2+z
1/2+x,1/2-y,1/2+z
loop_
_atom_site_type_symbol
_atom_site_label
_atom_site_fract_x
_atom_site_fract_y
_atom_site_fract_z
Si Si1 0.068764 0.617642 0.172609
Si Si2 0.431430 0.696903 0.170688
Si Si3 0.273893 0.448084 0.168711
Si Si4 0.929358 0.716361 0.834690
Si Si5 0.845241 0.552035 0.329607
Si Si6 0.500000 0.552604 0.329621
Si Si7 0.106200 0.899708 0.327690
O O1 0.087608 0.667400 0.215047
O O2 0.106652 0.581604 0.252726
O O3 0.000000 0.612683 0.203548
O O4 0.075429 0.614305 0.000000
O O5 0.500000 0.690693 0.206494
O O6 0.410012 0.741397 0.245530
O O7 0.399105 0.651865 0.210065
O O8 0.427686 0.702462 0.000000
O O9 0.287398 0.500000 0.188679
O O10 0.217805 0.437262 0.263041
O O11 0.330773 0.419848 0.203617
O O12 0.260105 0.441694 0.000000
O O13 0.000000 0.716182 0.831020
O O14 0.911868 0.721365 0.000000
O O15 0.845554 0.558928 0.500000
O O16 0.855639 0.500000 0.302115
O O17 0.500000 0.500000 0.308286
O O18 0.500000 0.561385 0.500000
O O19 0.556407 0.573877 0.255436
O O20 0.096064 0.903603 0.500000
#
# Coordination Sequence:
#
# PCOD9519735 Si02
#       7
#    16  16  16  16  16   8  16
#     4   9  18  33  53  77 103 130 162 198 236 283
#     4   9  16  27  44  69  99 127 158 199 246 294
#     4   9  18  33  53  72  90 124 172 210 243 289
#     4   8  15  28  46  69  97 128 159 193 236 287
#     4  10  21  35  51  73 102 132 160 197 244 292
#     4  11  23  33  43  67 101 133 165 207 260 307
#     4  10  19  33  51  71  96 128 168 211 251 297
#
# _framework density 15.956689000000001
#
# number of rings (size 3 to 8) (size 9 to 14) (size 15 to 20)
#    0.000    2.692    0.769    2.077    0.000    4.615 
#    0.000    4.615    0.000    0.923    0.000    0.000 
#    0.000    0.000    0.000    0.000    0.000    0.000 
#
# Total GULP energy -289814.033389 kJ/mol
# GULP energy per Si atom -5573.346796 kJ/mol
# Density = 1.592037 g / cm^3
# Si number density = 15.956689 Si / 1000 Ang^3
#
#
#
# Elastic Constant Matrix: (Units=GPa)
#
#
# Indices 1 2 3 4 5 6 
#
# 1 89.7360 85.7407 56.8209 0.0000 0.0000 0.0000
# 2 85.7407 136.1733 73.1364 0.0000 0.0000 0.0000
# 3 56.8209 73.1364 52.9884 0.0000 0.0000 0.0000
# 4 0.0000 0.0000 0.0000 30.7381 0.0000 0.0000
# 5 0.0000 0.0000 0.0000 0.0000 15.1139 0.0000
# 6 0.0000 0.0000 0.0000 0.0000 0.0000 10.0120
#
#
#
# Elastic Compliance Matrix: (Units=1/GPa)
#
#
# Indices 1 2 3 4 5 6 
#
# 1 0.036648 -0.007609 -0.028796 0.000000 0.000000 0.000000
# 2 -0.007609 0.029967 -0.033201 0.000000 0.000000 0.000000
# 3 -0.028796 -0.033201 0.095576 0.000000 0.000000 0.000000
# 4 0.000000 0.000000 0.000000 0.032533 0.000000 0.000000
# 5 0.000000 0.000000 0.000000 0.000000 0.066164 0.000000
# 6 0.000000 0.000000 0.000000 0.000000 0.000000 0.099880
#
#
# Mechanical properties :
#
#
# Convention : Reuss Voigt Hill
#
# Bulk Modulus (GPa) = 43.52042 78.92153 61.22097
# Shear Modulus (GPa) = 9.84951 15.38612 12.61782
#
# Velocity S-wave (km/s) = 2.48718 3.10859 2.81509
# Velocity P-wave (km/s) = 5.96501 7.90264 7.00118
#
# Compressibility (1/GPa) = 0.02297772
#
# Stress axis : x y z
#
# Youngs Moduli (GPa) = 27.28669 33.37057 10.46288
#
# Poissons Ratio (x) = 0.25393 0.30129
# Poissons Ratio (y) = 0.20763 0.34738
# Poissons Ratio (z) = 0.78574 1.10794
#
# Static dielectric constant tensor:
#      x y z
#    x 1.504450 0.000000 0.000000 
#    y 0.000000 1.535840 0.000000 
#    z 0.000000 0.000000 1.530890 
# 
# From -- ./inp_files/11048.got.cif
#   From: 2010.05.17/outbox.cif.g08.bks.cpg/sg71_6_cif.got.tgz:11048.got - 2010.06.03 16:22:01.
