data_PCOD9519977
_publ_section_title
;
Structure prediction by ZEFSAII (Michael W. Deem and Ramdas Pophale) SiO2 
 PCOD9519977
Probable space group: I M M M
;
_chemical_formula_sum "Si O2"
_cell_formula_units_Z 88
_cell_length_a 24.216843
_cell_length_b 15.497216
_cell_length_c 13.074097
_cell_angle_alpha 90.000000
_cell_angle_beta 90.000000
_cell_angle_gamma 90.000000
_cell_volume 4906.625542
_symmetry_space_group_name_H-M "I M M M"
_symmetry_group_IT_number 71
_symmetry_cell_setting 'orthorhombic'
loop_
_space_group_symop_operation_xyz
x,y,z
-x,-y,z
x,-y,-z
-x,y,-z
-x,-y,-z
x,y,-z
-x,y,z
x,-y,z
1/2+x,1/2+y,1/2+z
1/2-x,1/2-y,1/2+z
1/2+x,1/2-y,1/2-z
1/2-x,1/2+y,1/2-z
1/2-x,1/2-y,1/2-z
1/2+x,1/2+y,1/2-z
1/2-x,1/2+y,1/2+z
1/2+x,1/2-y,1/2+z
loop_
_atom_site_type_symbol
_atom_site_label
_atom_site_fract_x
_atom_site_fract_y
_atom_site_fract_z
Si Si1 0.654014 0.730971 0.883680
Si Si2 0.934172 0.500000 0.120733
Si Si3 0.064912 0.904314 0.669552
Si Si4 0.564191 0.676295 0.385465
Si Si5 0.752957 0.901829 0.622250
Si Si6 0.633274 0.162190 0.689748
O O1 0.600218 0.670004 0.882015
O O2 0.702557 0.668519 0.841190
O O3 0.643349 0.808762 0.806349
O O4 0.666550 0.757342 0.000000
O O5 0.908614 0.416120 0.173477
O O6 0.000000 0.500000 0.126420
O O7 0.918237 0.500000 0.000000
O O8 0.071049 0.889817 0.791952
O O9 0.000000 0.897286 0.645784
O O10 0.084156 0.000000 0.640464
O O11 0.572135 0.641323 0.500000
O O12 0.500000 0.707126 0.379066
O O13 0.605894 0.755139 0.365717
O O14 0.760471 0.905872 0.500000
O O15 0.691732 0.868075 0.645013
O O16 0.760265 0.000000 0.662066
#
# Coordination Sequence:
#
# PCOD9519977 Si02
#       6
#    16   8  16  16  16  16
#     4  10  22  37  53  75 104 142 182 220 261 312
#     4  11  22  36  59  89 115 139 173 223 280 331
#     4   9  18  32  50  73 100 132 173 219 264 311
#     4   9  17  29  47  73 106 138 166 205 262 326
#     4  10  19  33  56  83 108 134 172 219 269 318
#     4  11  20  34  54  79 107 140 175 220 266 320
#
# _framework density 17.934932
#
# number of rings (size 3 to 8) (size 9 to 14) (size 15 to 20)
#    0.000    2.091    0.909    3.273    0.000    4.000 
#    0.000    3.182    0.000    0.545    0.000    0.000 
#    0.000    0.000    0.000    0.000    0.000    0.000 
#
# Total GULP energy -245448.141878 kJ/mol
# GULP energy per Si atom -5578.366861 kJ/mol
# Density = 1.789411 g / cm^3
# Si number density = 17.934932 Si / 1000 Ang^3
#
#
#
# Elastic Constant Matrix: (Units=GPa)
#
#
# Indices 1 2 3 4 5 6 
#
# 1 64.8104 28.1748 13.3922 0.0000 0.0000 0.0000
# 2 28.1748 76.6997 17.4060 0.0000 0.0000 0.0000
# 3 13.3922 17.4060 64.3327 0.0000 0.0000 0.0000
# 4 0.0000 0.0000 0.0000 9.6261 0.0000 0.0000
# 5 0.0000 0.0000 0.0000 0.0000 19.8293 0.0000
# 6 0.0000 0.0000 0.0000 0.0000 0.0000 49.0965
#
#
#
# Elastic Compliance Matrix: (Units=1/GPa)
#
#
# Indices 1 2 3 4 5 6 
#
# 1 0.018639 -0.006357 -0.002160 0.000000 0.000000 0.000000
# 2 -0.006357 0.016059 -0.003022 0.000000 0.000000 0.000000
# 3 -0.002160 -0.003022 0.016811 0.000000 0.000000 0.000000
# 4 0.000000 0.000000 0.000000 0.103884 0.000000 0.000000
# 5 0.000000 0.000000 0.000000 0.000000 0.050430 0.000000
# 6 0.000000 0.000000 0.000000 0.000000 0.000000 0.020368
#
#
# Mechanical properties :
#
#
# Convention : Reuss Voigt Hill
#
# Bulk Modulus (GPa) = 35.17128 35.97654 35.57391
# Shear Modulus (GPa) = 19.32389 25.50170 22.41280
#
# Velocity S-wave (km/s) = 3.28601 3.77490 3.53891
# Velocity P-wave (km/s) = 5.83525 6.25323 6.04785
#
# Compressibility (1/GPa) = 0.02843229
#
# Stress axis : x y z
#
# Youngs Moduli (GPa) = 53.64962 62.27172 59.48332
#
# Poissons Ratio (x) = 0.39585 0.12850
# Poissons Ratio (y) = 0.34104 0.17973
# Poissons Ratio (z) = 0.11590 0.18816
#
# Static dielectric constant tensor:
#      x y z
#    x 1.614870 0.000000 0.000000 
#    y 0.000000 1.606710 0.000000 
#    z 0.000000 0.000000 1.623960 
# 
# From -- ./inp_files/28607.got.cif
#   From: 2010.05.17/outbox.cif.g08.bks.cpg/sg71_15_cif.got.tgz:28607.got - 2010.06.03 16:22:01.
