data_PCOD9519670
_publ_section_title
;
Structure prediction by ZEFSAII (Michael W. Deem and Ramdas Pophale) SiO2 
 PCOD9519670
Probable space group: I M M M
;
_chemical_formula_sum "Si O2"
_cell_formula_units_Z 72
_cell_length_a 7.795976
_cell_length_b 23.269594
_cell_length_c 18.010870
_cell_angle_alpha 90.000000
_cell_angle_beta 90.000000
_cell_angle_gamma 90.000000
_cell_volume 3267.337452
_symmetry_space_group_name_H-M "I M M M"
_symmetry_group_IT_number 71
_symmetry_cell_setting 'orthorhombic'
loop_
_space_group_symop_operation_xyz
x,y,z
-x,-y,z
x,-y,-z
-x,y,-z
-x,-y,-z
x,y,-z
-x,y,z
x,-y,z
1/2+x,1/2+y,1/2+z
1/2-x,1/2-y,1/2+z
1/2+x,1/2-y,1/2-z
1/2-x,1/2+y,1/2-z
1/2-x,1/2-y,1/2-z
1/2+x,1/2+y,1/2-z
1/2-x,1/2+y,1/2+z
1/2+x,1/2-y,1/2+z
loop_
_atom_site_type_symbol
_atom_site_label
_atom_site_fract_x
_atom_site_fract_y
_atom_site_fract_z
Si Si1 0.201407 0.000000 0.416352
Si Si2 0.208169 0.163542 0.804327
Si Si3 0.210238 0.740894 0.081594
Si Si4 0.790937 0.935560 0.084160
Si Si5 0.699336 0.123943 0.359506
O O1 0.239646 0.059272 0.373340
O O2 0.280233 0.000000 0.500000
O O3 0.000000 0.000000 0.425450
O O4 0.264830 0.221044 0.847712
O O5 0.263342 0.111963 0.858308
O O6 0.276153 0.148050 0.723520
O O7 0.000000 0.164787 0.799528
O O8 0.272989 0.675482 0.090246
O O9 0.000000 0.741610 0.083290
O O10 0.259101 0.763954 0.000000
O O11 0.000000 0.934967 0.083572
O O12 0.737003 0.000000 0.104474
O O13 0.735520 0.923649 0.000000
O O14 0.500000 0.121565 0.377212
#
# Coordination Sequence:
#
# PCOD9519670 Si02
#       5
#     8  16  16  16  16
#     4  11  25  45  67  89 112 143 192 249 297 344
#     4  10  19  32  55  84 116 152 194 242 286 333
#     4   9  18  34  57  84 114 153 201 247 289 340
#     4   8  14  25  44  73 106 141 187 239 283 325
#     4  11  23  38  58  85 120 158 193 235 293 356
#
# _framework density 22.036293000000001
#
# number of rings (size 3 to 8) (size 9 to 14) (size 15 to 20)
#    0.000    2.333    0.000    3.667    1.556    4.444 
#    0.000    1.111    0.000    5.333    0.000    1.556 
#    0.000    0.000    0.000    0.000    0.000    0.000 
#
# Total GULP energy -200914.351907 kJ/mol
# GULP energy per Si atom -5580.954220 kJ/mol
# Density = 2.198614 g / cm^3
# Si number density = 22.036293 Si / 1000 Ang^3
#
#
#
# Elastic Constant Matrix: (Units=GPa)
#
#
# Indices 1 2 3 4 5 6 
#
# 1 24.0687 3.1821 -9.3171 0.0000 0.0000 0.0000
# 2 3.1821 137.6434 67.5789 0.0000 0.0000 0.0000
# 3 -9.3171 67.5789 92.5398 0.0001 0.0000 0.0000
# 4 0.0000 0.0000 0.0001 40.0210 0.0000 0.0000
# 5 0.0000 0.0000 0.0000 0.0000 7.2775 0.0000
# 6 0.0000 0.0000 0.0000 0.0000 0.0000 -5.3940
#
#
#
# Elastic Compliance Matrix: (Units=1/GPa)
#
#
# Indices 1 2 3 4 5 6 
#
# 1 0.045452 -0.005141 0.008330 0.000000 0.000000 0.000000
# 2 -0.005141 0.011907 -0.009213 0.000000 0.000000 0.000000
# 3 0.008330 -0.009213 0.018373 0.000000 0.000000 0.000000
# 4 0.000000 0.000000 0.000000 0.024987 0.000000 0.000000
# 5 0.000000 0.000000 0.000000 0.000000 0.137410 0.000000
# 6 0.000000 0.000000 0.000000 0.000000 0.000000 -0.185393
#
#
# Mechanical properties :
#
#
# Convention : Reuss Voigt Hill
#
# Bulk Modulus (GPa) = 15.70218 41.90439 28.80329
# Shear Modulus (GPa) = 58.13113 21.23477 39.68295
#
# Velocity S-wave (km/s) = 5.14169 3.10760 4.24819
# Velocity P-wave (km/s) = 6.51079 5.65098 6.09606
#
# Compressibility (1/GPa) = 0.06368541
#
# Stress axis : x y z
#
# Youngs Moduli (GPa) = 22.00114 83.98144 54.42783
#
# Poissons Ratio (x) = 0.43173 -0.45340
# Poissons Ratio (y) = 0.11310 0.50145
# Poissons Ratio (z) = -0.18328 0.77374
#
# Static dielectric constant tensor:
#      x y z
#    x 1.796150 0.000000 0.000000 
#    y 0.000000 1.838490 0.000000 
#    z 0.000000 0.000000 1.803960 
# 
# From -- ./inp_files/32593.got.cif
#   From: 2010.05.17/outbox.cif.g08.bks.cpg/sg71_17_cif.got.tgz:32593.got - 2010.06.03 16:22:01.
