data_PCOD9519543
_publ_section_title
;
Structure prediction by ZEFSAII (Michael W. Deem and Ramdas Pophale) SiO2 
 PCOD9519543
Probable space group: I M M M
;
_chemical_formula_sum "Si O2"
_cell_formula_units_Z 116
_cell_length_a 7.601349
_cell_length_b 24.062312
_cell_length_c 26.539526
_cell_angle_alpha 90.000000
_cell_angle_beta 90.000000
_cell_angle_gamma 90.000000
_cell_volume 4854.239372
_symmetry_space_group_name_H-M "I M M M"
_symmetry_group_IT_number 71
_symmetry_cell_setting 'orthorhombic'
loop_
_space_group_symop_operation_xyz
x,y,z
-x,-y,z
x,-y,-z
-x,y,-z
-x,-y,-z
x,y,-z
-x,y,z
x,-y,z
1/2+x,1/2+y,1/2+z
1/2-x,1/2-y,1/2+z
1/2+x,1/2-y,1/2-z
1/2-x,1/2+y,1/2-z
1/2-x,1/2-y,1/2-z
1/2+x,1/2+y,1/2-z
1/2-x,1/2+y,1/2+z
1/2+x,1/2-y,1/2+z
loop_
_atom_site_type_symbol
_atom_site_label
_atom_site_fract_x
_atom_site_fract_y
_atom_site_fract_z
Si Si1 0.699405 0.059912 0.419252
Si Si2 0.786737 0.436387 0.621431
Si Si3 0.295023 0.134554 0.783002
Si Si4 0.784978 0.682657 0.922511
Si Si5 0.201061 0.939170 0.307092
Si Si6 0.792954 0.161111 0.055685
Si Si7 0.789898 0.231231 0.152649
Si Si8 0.500000 0.276390 0.000000
O O1 0.500000 0.058734 0.438525
O O2 0.772666 0.119538 0.433935
O O3 0.691946 0.064067 0.358492
O O4 0.781793 0.000000 0.432041
O O5 0.729369 0.500000 0.622762
O O6 0.722038 0.402335 0.670525
O O7 0.726874 0.402777 0.572267
O O8 0.000000 0.435197 0.621902
O O9 0.500000 0.122421 0.779542
O O10 0.219645 0.110719 0.731637
O O11 0.276031 0.199148 0.798124
O O12 0.753520 0.705975 0.865655
O O13 0.000000 0.687487 0.931197
O O14 0.657664 0.718128 0.957222
O O15 0.000000 0.940521 0.324389
O O16 0.241290 0.000000 0.282808
O O17 0.725202 0.193888 0.104920
O O18 0.000000 0.175090 0.052565
O O19 0.713027 0.170121 0.000000
O O20 0.000000 0.226714 0.155595
#
# Coordination Sequence:
#
# PCOD9519543 Si02
#       8
#    16  16  16  16  16  16  16   4
#     4   9  19  39  66  92 123 162 200 244 303 368
#     4   9  18  31  44  62  93 132 172 224 286 339
#     4  10  19  32  52  79 111 148 196 247 299 359
#     4  10  23  43  65  94 129 163 204 256 311 367
#     4  10  20  33  55  87 120 157 204 253 302 366
#     4   9  18  31  47  67  90 126 174 224 282 343
#     4   9  19  36  56  77 111 151 190 246 306 357
#     4  12  26  40  69 100 124 164 213 258 300 380
#
# _framework density 23.896636999999998
#
# number of rings (size 3 to 8) (size 9 to 14) (size 15 to 20)
#    0.000    2.483    0.000    1.448    2.897    2.759 
#    0.000    2.759    0.000    1.655    0.000    0.000 
#    0.000    0.000    0.000    0.000    0.000    0.000 
#
# Total GULP energy -322976.047057 kJ/mol
# GULP energy per Si atom -5568.552535 kJ/mol
# Density = 2.384225 g / cm^3
# Si number density = 23.896637 Si / 1000 Ang^3
#
#
#
# Elastic Constant Matrix: (Units=GPa)
#
#
# Indices 1 2 3 4 5 6 
#
# 1 69.2369 0.6906 7.6643 0.0000 0.0001 0.0000
# 2 0.6906 103.5174 10.8601 0.0000 0.0004 0.0000
# 3 7.6643 10.8601 62.4163 0.0000 0.0018 0.0000
# 4 0.0000 0.0000 0.0000 -13.3914 0.0011 0.0000
# 5 0.0001 0.0004 0.0018 0.0011********** 0.0000
# 6 0.0000 0.0000 0.0000 0.0000 0.0000 -18.0178
#
#
#
# Elastic Compliance Matrix: (Units=1/GPa)
#
#
# Indices 1 2 3 4 5 6 
#
# 1 0.014643 0.000093 -0.001814 0.000000 0.000000 0.000000
# 2 0.000093 0.009840 -0.001724 0.000000 0.000000 0.000000
# 3 -0.001814 -0.001724 0.016544 0.000000 0.000000 0.000000
# 4 0.000000 0.000000 0.000000 -0.074675 0.000000 0.000000
# 5 0.000000 0.000000 0.000000 0.000000 -0.000057 0.000000
# 6 0.000000 0.000000 0.000000 0.000000 0.000000 -0.055501
#
#
# Mechanical properties :
#
#
# Convention : Reuss Voigt Hill
#
# Bulk Modulus (GPa) = 29.29339 30.40007 29.84673
# Shear Modulus (GPa) = -70.48670 -3511.67363 -1791.08017
#
# Velocity S-wave (km/s) = -5.43696 -38.37599 -27.40691
# Velocity P-wave (km/s) = 5.20856 44.16869 31.44839
#
# Compressibility (1/GPa) = 0.03413739
#
# Stress axis : x y z
#
# Youngs Moduli (GPa) = 68.29167 101.62178 60.44448
#
# Poissons Ratio (x) = -0.00941 0.10966
# Poissons Ratio (y) = -0.00633 0.10418
# Poissons Ratio (z) = 0.12389 0.17515
#
# Static dielectric constant tensor:
#      x y z
#    x 1.901930 0.000000 0.000000 
#    y 0.000000 1.999630 0.000000 
#    z 0.000000 0.000000 1.932410 
# 
# From -- ./inp_files/62071.got.cif
#   From: 2010.05.17/outbox.cif.g08.bks.cpg/sg71_32_cif.got.tgz:62071.got - 2010.06.03 16:22:01.
