data_PCOD9519252
_publ_section_title
;
Structure prediction by ZEFSAII (Michael W. Deem and Ramdas Pophale) SiO2 
 PCOD9519252
Probable space group: I M M M
;
_chemical_formula_sum "Si O2"
_cell_formula_units_Z 72
_cell_length_a 19.955973
_cell_length_b 8.509111
_cell_length_c 15.982483
_cell_angle_alpha 90.000000
_cell_angle_beta 90.000000
_cell_angle_gamma 90.000000
_cell_volume 2713.946910
_symmetry_space_group_name_H-M "I M M M"
_symmetry_group_IT_number 71
_symmetry_cell_setting 'orthorhombic'
loop_
_space_group_symop_operation_xyz
x,y,z
-x,-y,z
x,-y,-z
-x,y,-z
-x,-y,-z
x,y,-z
-x,y,z
x,-y,z
1/2+x,1/2+y,1/2+z
1/2-x,1/2-y,1/2+z
1/2+x,1/2-y,1/2-z
1/2-x,1/2+y,1/2-z
1/2-x,1/2-y,1/2-z
1/2+x,1/2+y,1/2-z
1/2-x,1/2+y,1/2+z
1/2+x,1/2-y,1/2+z
loop_
_atom_site_type_symbol
_atom_site_label
_atom_site_fract_x
_atom_site_fract_y
_atom_site_fract_z
Si Si1 0.073163 0.000000 0.631045
Si Si2 0.275395 0.500000 0.094512
Si Si3 0.096002 0.668387 0.375264
Si Si4 0.248928 0.817934 0.844920
Si Si5 0.077767 0.326967 0.175042
Si Si6 0.917861 0.000000 0.097339
O O1 0.155375 0.000000 0.653325
O O2 0.070519 0.169209 0.588981
O O3 0.000000 0.000000 0.682249
O O4 0.230884 0.343327 0.107037
O O5 0.301588 0.500000 0.000000
O O6 0.071012 0.500000 0.404392
O O7 0.175629 0.665117 0.380230
O O8 0.081271 0.681827 0.275607
O O9 0.250000 0.750000 0.750000
O O10 0.224571 0.000000 0.847909
O O11 0.104060 0.500000 0.152431
O O12 0.000000 0.328048 0.149760
O O13 0.105627 0.163781 0.139253
O O14 0.000000 0.000000 0.101958
O O15 0.898706 0.000000 0.000000
#
# Coordination Sequence:
#
# PCOD9519252 Si02
#       6
#     8   8  16  16  16   8
#     4  10  19  31  51  79 115 157 193 228 274 336
#     4  10  22  38  57  87 124 157 199 247 295 356
#     4   9  18  30  48  77 105 133 174 229 283 330
#     4  10  19  35  60  87 108 144 192 243 298 354
#     4   9  16  26  41  62  87 117 153 197 253 309
#     4   9  17  27  38  54  79 115 157 195 234 292
#
# _framework density 26.529626
#
# number of rings (size 3 to 8) (size 9 to 14) (size 15 to 20)
#    0.000    2.556    1.111    1.333    0.000    3.333 
#    0.000    2.222    0.000    1.333    0.000    6.222 
#    0.000    0.000    0.000    0.000    0.000    0.889 
#
# Total GULP energy -200455.303523 kJ/mol
# GULP energy per Si atom -5568.202876 kJ/mol
# Density = 2.646924 g / cm^3
# Si number density = 26.529626 Si / 1000 Ang^3
#
#
#
# Elastic Constant Matrix: (Units=GPa)
#
#
# Indices 1 2 3 4 5 6 
#
# 1 108.7346 72.3077 -5.2403 0.0000 0.0000 0.0000
# 2 72.3077 402.9088 78.2842 0.0000 0.0000 0.0000
# 3 -5.2403 78.2842 99.6876 0.0000 0.0000 0.0000
# 4 0.0000 0.0000 0.0000 -109.9261 0.0000 0.0000
# 5 0.0000 0.0000 0.0000 0.0000 14.5654 0.0000
# 6 0.0000 0.0000 0.0000 0.0000 0.0000 20.3243
#
#
#
# Elastic Compliance Matrix: (Units=1/GPa)
#
#
# Indices 1 2 3 4 5 6 
#
# 1 0.010947 -0.002450 0.002500 0.000000 0.000000 0.000000
# 2 -0.002450 0.003477 -0.002859 0.000000 0.000000 0.000000
# 3 0.002500 -0.002859 0.012408 0.000000 0.000000 0.000000
# 4 0.000000 0.000000 0.000000 -0.009097 0.000000 0.000000
# 5 0.000000 0.000000 0.000000 0.000000 0.068656 0.000000
# 6 0.000000 0.000000 0.000000 0.000000 0.000000 0.049202
#
#
# Mechanical properties :
#
#
# Convention : Reuss Voigt Hill
#
# Bulk Modulus (GPa) = 47.14352 100.22601 73.68477
# Shear Modulus (GPa) = 33.71916 16.05803 24.88860
#
# Velocity S-wave (km/s) = 3.56898 2.46293 3.06624
# Velocity P-wave (km/s) = 5.89849 6.77856 6.35378
#
# Compressibility (1/GPa) = 0.02121182
#
# Stress axis : x y z
#
# Youngs Moduli (GPa) = 91.35337 287.58310 80.59142
#
# Poissons Ratio (x) = 0.70462 -0.20144
# Poissons Ratio (y) = 0.22383 0.23045
# Poissons Ratio (z) = -0.22834 0.82234
#
# Static dielectric constant tensor:
#      x y z
#    x 2.343740 0.000000 0.000000 
#    y 0.000000 2.119410 0.000000 
#    z 0.000000 0.000000 1.932700 
# 
# From -- ./inp_files/55425.got.cif
#   From: 2010.05.17/outbox.cif.g08.bks.cpg/sg71_28_cif.got.tgz:55425.got - 2010.06.03 16:22:01.
