data_PCOD9519723
_publ_section_title
;
Structure prediction by ZEFSAII (Michael W. Deem and Ramdas Pophale) SiO2 
 PCOD9519723
Probable space group: I M M M
;
_chemical_formula_sum "Si O2"
_cell_formula_units_Z 56
_cell_length_a 24.716840
_cell_length_b 18.959326
_cell_length_c 7.593014
_cell_angle_alpha 90.000000
_cell_angle_beta 90.000000
_cell_angle_gamma 90.000000
_cell_volume 3558.197425
_symmetry_space_group_name_H-M "I M M M"
_symmetry_group_IT_number 71
_symmetry_cell_setting 'orthorhombic'
loop_
_space_group_symop_operation_xyz
x,y,z
-x,-y,z
x,-y,-z
-x,y,-z
-x,-y,-z
x,y,-z
-x,y,z
x,-y,z
1/2+x,1/2+y,1/2+z
1/2-x,1/2-y,1/2+z
1/2+x,1/2-y,1/2-z
1/2-x,1/2+y,1/2-z
1/2-x,1/2-y,1/2-z
1/2+x,1/2+y,1/2-z
1/2-x,1/2+y,1/2+z
1/2+x,1/2-y,1/2+z
loop_
_atom_site_type_symbol
_atom_site_label
_atom_site_fract_x
_atom_site_fract_y
_atom_site_fract_z
Si Si1 0.563407 0.584527 0.000000
Si Si2 0.359296 0.640385 0.298227
Si Si3 0.741465 0.920269 0.785281
Si Si4 0.809366 0.281393 0.290209
O O1 0.593958 0.615528 0.169576
O O2 0.569138 0.500000 0.000000
O O3 0.500000 0.601852 0.000000
O O4 0.368524 0.618923 0.500000
O O5 0.302001 0.605760 0.237247
O O6 0.350268 0.724904 0.290168
O O7 0.697365 0.862099 0.728160
O O8 0.732250 0.000000 0.725847
O O9 0.740817 0.919449 0.000000
O O10 0.817997 0.280994 0.500000
O O11 0.750000 0.250000 0.250000
#
# Coordination Sequence:
#
# PCOD9519723 Si02
#       4
#     8  16  16  16
#     4  11  24  38  52  72  93 119 165 213 247 282
#     4  10  19  33  51  67  94 130 163 197 241 287
#     4   8  14  24  42  69  98 129 161 189 227 281
#     4   9  15  25  43  67  95 127 162 196 230 283
#
# _framework density 15.738305
#
# number of rings (size 3 to 8) (size 9 to 14) (size 15 to 20)
#    0.000    2.714    1.429    3.429    0.000    2.286 
#    0.000    1.429    0.000    0.000    0.000    0.000 
#    0.000    2.286    0.000    2.571    0.000    0.000 
#
# Total GULP energy -155973.436929 kJ/mol
# GULP energy per Si atom -5570.479890 kJ/mol
# Density = 1.570248 g / cm^3
# Si number density = 15.738305 Si / 1000 Ang^3
#
#
#
# Elastic Constant Matrix: (Units=GPa)
#
#
# Indices 1 2 3 4 5 6 
#
# 1 64.0927 39.4302 30.5542 0.0000 0.0000 0.0000
# 2 39.4302 128.1456 15.4819 0.0000 0.0000 0.0000
# 3 30.5542 15.4819 70.1964 0.0000 0.0000 0.0000
# 4 0.0000 0.0000 0.0000 12.4455 0.0000 0.0000
# 5 0.0000 0.0000 0.0000 0.0000 15.2224 0.0000
# 6 0.0000 0.0000 0.0000 0.0000 0.0000 20.8236
#
#
#
# Elastic Compliance Matrix: (Units=1/GPa)
#
#
# Indices 1 2 3 4 5 6 
#
# 1 0.023683 -0.006207 -0.008939 0.000000 0.000000 0.000000
# 2 -0.006207 0.009644 0.000575 0.000000 0.000000 0.000000
# 3 -0.008939 0.000575 0.018010 0.000000 0.000000 0.000000
# 4 0.000000 0.000000 0.000000 0.080350 0.000000 0.000000
# 5 0.000000 0.000000 0.000000 0.000000 0.065693 0.000000
# 6 0.000000 0.000000 0.000000 0.000000 0.000000 0.048022
#
#
# Mechanical properties :
#
#
# Convention : Reuss Voigt Hill
#
# Bulk Modulus (GPa) = 45.05852 48.15192 46.60522
# Shear Modulus (GPa) = 17.73408 21.49619 19.61513
#
# Velocity S-wave (km/s) = 3.36044 3.69975 3.53417
# Velocity P-wave (km/s) = 6.61428 6.99376 6.80667
#
# Compressibility (1/GPa) = 0.02219336
#
# Stress axis : x y z
#
# Youngs Moduli (GPa) = 42.22515 103.69032 55.52481
#
# Poissons Ratio (x) = 0.64362 0.49635
# Poissons Ratio (y) = 0.26210 -0.03191
# Poissons Ratio (z) = 0.37746 -0.05959
#
# Static dielectric constant tensor:
#      x y z
#    x 1.475580 0.000000 0.000000 
#    y 0.000000 1.582380 0.000000 
#    z 0.000000 0.000000 1.633700 
# 
# From -- ./inp_files/9461.got.cif
#   From: 2010.05.17/outbox.cif.g08.bks.cpg/sg71_5_cif.got.tgz:9461.got - 2010.06.03 16:22:01.
