data_PCOD9519442
_publ_section_title
;
Structure prediction by ZEFSAII (Michael W. Deem and Ramdas Pophale) SiO2 
 PCOD9519442
Probable space group: I M M M
;
_chemical_formula_sum "Si O2"
_cell_formula_units_Z 104
_cell_length_a 34.210143
_cell_length_b 13.070374
_cell_length_c 14.372585
_cell_angle_alpha 90.000000
_cell_angle_beta 90.000000
_cell_angle_gamma 90.000000
_cell_volume 6426.548510
_symmetry_space_group_name_H-M "I M M M"
_symmetry_group_IT_number 71
_symmetry_cell_setting 'orthorhombic'
loop_
_space_group_symop_operation_xyz
x,y,z
-x,-y,z
x,-y,-z
-x,y,-z
-x,-y,-z
x,y,-z
-x,y,z
x,-y,z
1/2+x,1/2+y,1/2+z
1/2-x,1/2-y,1/2+z
1/2+x,1/2-y,1/2-z
1/2-x,1/2+y,1/2-z
1/2-x,1/2-y,1/2-z
1/2+x,1/2+y,1/2-z
1/2-x,1/2+y,1/2+z
1/2+x,1/2-y,1/2+z
loop_
_atom_site_type_symbol
_atom_site_label
_atom_site_fract_x
_atom_site_fract_y
_atom_site_fract_z
Si Si1 0.828033 0.878760 0.776383
Si Si2 0.407050 0.379701 0.610394
Si Si3 0.412172 0.120484 0.892273
Si Si4 0.047443 0.500000 0.893672
Si Si5 0.752757 0.122528 0.892667
Si Si6 0.669481 0.772224 0.892232
Si Si7 0.453161 0.205259 0.716394
O O1 0.863667 0.863340 0.848207
O O2 0.787478 0.845246 0.824330
O O3 0.835623 0.817072 0.682391
O O4 0.825528 0.000000 0.757910
O O5 0.408185 0.359097 0.500000
O O6 0.416763 0.500000 0.624164
O O7 0.435446 0.304046 0.665899
O O8 0.366501 0.149132 0.881800
O O9 0.436393 0.187557 0.819498
O O10 0.418440 0.000000 0.874099
O O11 0.422850 0.140296 0.000000
O O12 0.059180 0.603475 0.841075
O O13 0.000000 0.500000 0.894786
O O14 0.061209 0.500000 0.000000
O O15 0.711130 0.174301 0.874949
O O16 0.748373 0.000000 0.884812
O O17 0.763942 0.144419 0.000000
O O18 0.668993 0.736922 0.000000
O O19 0.500000 0.210217 0.717779
#
# Coordination Sequence:
#
# PCOD9519442 Si02
#       7
#    16  16  16   8  16  16  16
#     4  10  19  32  51  75 103 135 171 212 255 300
#     4  10  21  37  56  78 105 139 179 220 261 310
#     4  10  20  35  55  79 107 138 174 216 261 312
#     4   9  18  32  51  77 105 133 166 206 265 333
#     4   9  17  30  50  76 103 131 166 207 251 301
#     4  10  19  32  51  75 103 136 172 210 253 303
#     4  11  21  35  55  78 106 137 171 220 273 319
#
# _framework density 16.182870000000001
#
# number of rings (size 3 to 8) (size 9 to 14) (size 15 to 20)
#    0.000    2.077    2.308    1.846    0.000    5.538 
#    0.000    1.538    0.000    0.462    0.000    1.077 
#    0.000    0.000    0.000    0.000    0.000    0.000 
#
# Total GULP energy -289975.406779 kJ/mol
# GULP energy per Si atom -5576.450130 kJ/mol
# Density = 1.614604 g / cm^3
# Si number density = 16.182870 Si / 1000 Ang^3
#
#
#
# Elastic Constant Matrix: (Units=GPa)
#
#
# Indices 1 2 3 4 5 6 
#
# 1 76.8408 42.5035 52.4851 0.0000 0.0000 0.0000
# 2 42.5035 69.4610 63.7062 0.0000 0.0000 0.0000
# 3 52.4851 63.7062 117.8046 0.0000 0.0000 0.0000
# 4 0.0000 0.0000 0.0000 30.4387 0.0000 0.0000
# 5 0.0000 0.0000 0.0000 0.0000 25.7382 0.0000
# 6 0.0000 0.0000 0.0000 0.0000 0.0000 25.5957
#
#
#
# Elastic Compliance Matrix: (Units=1/GPa)
#
#
# Indices 1 2 3 4 5 6 
#
# 1 0.020937 -0.008445 -0.004761 0.000000 0.000000 0.000000
# 2 -0.008445 0.031969 -0.013526 0.000000 0.000000 0.000000
# 3 -0.004761 -0.013526 0.017925 0.000000 0.000000 0.000000
# 4 0.000000 0.000000 0.000000 0.032853 0.000000 0.000000
# 5 0.000000 0.000000 0.000000 0.000000 0.038853 0.000000
# 6 0.000000 0.000000 0.000000 0.000000 0.000000 0.039069
#
#
# Mechanical properties :
#
#
# Convention : Reuss Voigt Hill
#
# Bulk Modulus (GPa) = 57.58072 64.61068 61.09570
# Shear Modulus (GPa) = 20.75906 23.38195 22.07051
#
# Velocity S-wave (km/s) = 3.58548 3.80525 3.69700
# Velocity P-wave (km/s) = 7.26632 7.70186 7.48726
#
# Compressibility (1/GPa) = 0.01736692
#
# Stress axis : x y z
#
# Youngs Moduli (GPa) = 47.76199 31.28002 55.78954
#
# Poissons Ratio (x) = 0.26415 0.26563
# Poissons Ratio (y) = 0.40333 0.75461
# Poissons Ratio (z) = 0.22741 0.42309
#
# Static dielectric constant tensor:
#      x y z
#    x 1.528190 0.000000 0.000000 
#    y 0.000000 1.520320 0.000000 
#    z 0.000000 0.000000 1.536700 
# 
# From -- ./inp_files/22668.got.cif
#   From: 2010.05.17/outbox.cif.g08.bks.cpg/sg71_12_cif.got.tgz:22668.got - 2010.06.03 16:22:01.
