data_PCOD9519452
_publ_section_title
;
Structure prediction by ZEFSAII (Michael W. Deem and Ramdas Pophale) SiO2 
 PCOD9519452
Probable space group: I M M M
;
_chemical_formula_sum "Si O2"
_cell_formula_units_Z 104
_cell_length_a 21.696428
_cell_length_b 29.630383
_cell_length_c 7.729876
_cell_angle_alpha 90.000000
_cell_angle_beta 90.000000
_cell_angle_gamma 90.000000
_cell_volume 4969.332217
_symmetry_space_group_name_H-M "I M M M"
_symmetry_group_IT_number 71
_symmetry_cell_setting 'orthorhombic'
loop_
_space_group_symop_operation_xyz
x,y,z
-x,-y,z
x,-y,-z
-x,y,-z
-x,-y,-z
x,y,-z
-x,y,z
x,-y,z
1/2+x,1/2+y,1/2+z
1/2-x,1/2-y,1/2+z
1/2+x,1/2-y,1/2-z
1/2-x,1/2+y,1/2-z
1/2-x,1/2-y,1/2-z
1/2+x,1/2+y,1/2-z
1/2-x,1/2+y,1/2+z
1/2+x,1/2-y,1/2+z
loop_
_atom_site_type_symbol
_atom_site_label
_atom_site_fract_x
_atom_site_fract_y
_atom_site_fract_z
Si Si1 0.230106 0.052125 0.794037
Si Si2 0.870097 0.448810 0.206592
Si Si3 0.500000 0.552325 0.787289
Si Si4 0.567440 0.859119 0.204550
Si Si5 0.319164 0.800046 0.209633
Si Si6 0.319851 0.303004 0.792983
Si Si7 0.615285 0.389207 0.200469
O O1 0.300389 0.065243 0.754756
O O2 0.178318 0.082455 0.708556
O O3 0.223251 0.000000 0.737550
O O4 0.221162 0.054439 0.000000
O O5 0.879577 0.500000 0.271815
O O6 0.916776 0.411704 0.274945
O O7 0.874716 0.449643 0.000000
O O8 0.500000 0.500000 0.730897
O O9 0.560224 0.580097 0.727776
O O10 0.500000 0.550829 0.000000
O O11 0.500000 0.848797 0.278407
O O12 0.624965 0.830670 0.275445
O O13 0.565235 0.849215 0.000000
O O14 0.326589 0.748268 0.271566
O O15 0.251116 0.816556 0.260036
O O16 0.320071 0.799935 0.000000
O O17 0.366887 0.340473 0.722095
O O18 0.328049 0.301548 0.000000
O O19 0.598585 0.381436 0.000000
#
# Coordination Sequence:
#
# PCOD9519452 Si02
#       7
#    16  16   8  16  16  16  16
#     4  10  20  33  51  76 104 134 170 214 264 313
#     4  10  21  36  54  77 104 134 170 214 260 305
#     4   9  18  32  49  71 103 141 177 215 260 311
#     4  10  21  36  53  75 104 140 177 209 251 305
#     4   9  18  34  53  75 103 134 167 208 259 311
#     4   9  18  32  52  78 103 128 167 216 262 306
#     4  10  19  32  51  76 103 136 177 218 262 311
#
# _framework density 20.928364999999999
#
# number of rings (size 3 to 8) (size 9 to 14) (size 15 to 20)
#    0.000    2.385    0.000    2.308    0.000    6.769 
#    1.385    1.923    0.000    1.385    0.000    0.000 
#    0.000    0.000    0.000    0.000    0.000    0.000 
#
# Total GULP energy -290282.436069 kJ/mol
# GULP energy per Si atom -5582.354540 kJ/mol
# Density = 2.088073 g / cm^3
# Si number density = 20.928365 Si / 1000 Ang^3
#
#
#
# Elastic Constant Matrix: (Units=GPa)
#
#
# Indices 1 2 3 4 5 6 
#
# 1 110.6810 77.6259 -4.7376 0.0000 0.0000 0.0000
# 2 77.6259 109.5878 -0.9234 0.0000 0.0000 0.0000
# 3 -4.7376 -0.9234 32.9844 0.0000 0.0000 0.0000
# 4 0.0000 0.0000 0.0000 12.4989 0.0000 0.0000
# 5 0.0000 0.0000 0.0000 0.0000 15.9283 0.0000
# 6 0.0000 0.0000 0.0000 0.0000 0.0000 33.1978
#
#
#
# Elastic Compliance Matrix: (Units=1/GPa)
#
#
# Indices 1 2 3 4 5 6 
#
# 1 0.018119 -0.012816 0.002244 0.000000 0.000000 0.000000
# 2 -0.012816 0.018192 -0.001331 0.000000 0.000000 0.000000
# 3 0.002244 -0.001331 0.030602 0.000000 0.000000 0.000000
# 4 0.000000 0.000000 0.000000 0.080007 0.000000 0.000000
# 5 0.000000 0.000000 0.000000 0.000000 0.062781 0.000000
# 6 0.000000 0.000000 0.000000 0.000000 0.000000 0.030122
#
#
# Mechanical properties :
#
#
# Convention : Reuss Voigt Hill
#
# Bulk Modulus (GPa) = 23.19839 44.13145 33.66492
# Shear Modulus (GPa) = 17.98558 24.41089 21.19823
#
# Velocity S-wave (km/s) = 2.93471 3.41897 3.18605
# Velocity P-wave (km/s) = 4.75312 6.05958 5.44567
#
# Compressibility (1/GPa) = 0.04310643
#
# Stress axis : x y z
#
# Youngs Moduli (GPa) = 55.18948 54.96946 32.67725
#
# Poissons Ratio (x) = 0.70448 -0.07332
# Poissons Ratio (y) = 0.70730 0.04351
# Poissons Ratio (z) = -0.12383 0.07319
#
# Static dielectric constant tensor:
#      x y z
#    x 1.727350 0.000000 0.000000 
#    y 0.000000 1.768760 0.000000 
#    z 0.000000 0.000000 1.783860 
# 
# From -- ./inp_files/11535.got.cif
#   From: 2010.05.17/outbox.cif.g08.bks.cpg/sg71_6_cif.got.tgz:11535.got - 2010.06.03 16:22:01.
