data_PCOD9519124
_publ_section_title
;
Structure prediction by ZEFSAII (Michael W. Deem and Ramdas Pophale) SiO2 
 PCOD9519124
Probable space group: I M M M
;
_chemical_formula_sum "Si O2"
_cell_formula_units_Z 104
_cell_length_a 9.725166
_cell_length_b 24.422706
_cell_length_c 24.555252
_cell_angle_alpha 90.000000
_cell_angle_beta 90.000000
_cell_angle_gamma 90.000000
_cell_volume 5832.237487
_symmetry_space_group_name_H-M "I M M M"
_symmetry_group_IT_number 71
_symmetry_cell_setting 'orthorhombic'
loop_
_space_group_symop_operation_xyz
x,y,z
-x,-y,z
x,-y,-z
-x,y,-z
-x,-y,-z
x,y,-z
-x,y,z
x,-y,z
1/2+x,1/2+y,1/2+z
1/2-x,1/2-y,1/2+z
1/2+x,1/2-y,1/2-z
1/2-x,1/2+y,1/2-z
1/2-x,1/2-y,1/2-z
1/2+x,1/2+y,1/2-z
1/2-x,1/2+y,1/2+z
1/2+x,1/2-y,1/2+z
loop_
_atom_site_type_symbol
_atom_site_label
_atom_site_fract_x
_atom_site_fract_y
_atom_site_fract_z
Si Si1 0.339105 0.933973 0.359552
Si Si2 0.158855 0.255148 0.934011
Si Si3 0.157799 0.066418 0.744476
Si Si4 0.338739 0.640115 0.065710
Si Si5 0.763936 0.365805 0.435486
Si Si6 0.000000 0.060005 0.064596
Si Si7 0.148588 0.436292 0.657745
O O1 0.500000 0.917047 0.360022
O O2 0.256397 0.916582 0.305173
O O3 0.250974 0.908432 0.408579
O O4 0.336824 0.000000 0.362134
O O5 0.258885 0.304385 0.917039
O O6 0.225818 0.196412 0.921320
O O7 0.000000 0.259502 0.914597
O O8 0.151840 0.256988 0.000000
O O9 0.231633 0.080791 0.801046
O O10 0.000000 0.085725 0.740063
O O11 0.154228 0.000000 0.743180
O O12 0.500000 0.639131 0.082159
O O13 0.335760 0.637424 0.000000
O O14 0.801329 0.368344 0.500000
O O15 0.630443 0.403088 0.425400
O O16 0.860755 0.395856 0.393118
O O17 0.000000 0.000000 0.091387
O O18 0.000000 0.052076 0.000000
O O19 0.170711 0.500000 0.640491
O O20 0.000000 0.435692 0.687078
#
# Coordination Sequence:
#
# PCOD9519124 Si02
#       7
#    16  16  16  16  16   8  16
#     4  10  20  35  57  83 111 141 172 209 257 315
#     4   9  17  32  52  72  99 136 181 224 262 310
#     4   9  18  33  54  77 101 134 176 218 260 311
#     4  10  21  35  53  80 112 144 177 215 258 305
#     4  10  19  31  49  73 101 138 180 223 271 320
#     4   9  16  26  42  68 100 130 165 213 264 314
#     4  10  21  34  48  71 105 141 177 220 269 320
#
# _framework density 17.831921000000001
#
# number of rings (size 3 to 8) (size 9 to 14) (size 15 to 20)
#    0.000    2.385    0.769    1.846    1.077    5.846 
#    0.000    3.846    0.000    0.923    0.000    0.000 
#    0.000    0.000    0.000    0.000    0.000    0.000 
#
# Total GULP energy -289555.274884 kJ/mol
# GULP energy per Si atom -5568.370671 kJ/mol
# Density = 1.779133 g / cm^3
# Si number density = 17.831921 Si / 1000 Ang^3
#
#
#
# Elastic Constant Matrix: (Units=GPa)
#
#
# Indices 1 2 3 4 5 6 
#
# 1 162.2913 46.1539 49.1854 0.0000 0.0000 0.0000
# 2 46.1539 58.0763 23.5176 0.0000 0.0000 0.0000
# 3 49.1854 23.5176 52.8347 0.0000 0.0000 0.0000
# 4 0.0000 0.0000 0.0000 3.1513 0.0000 0.0000
# 5 0.0000 0.0000 0.0000 0.0000 57.4809 0.0000
# 6 0.0000 0.0000 0.0000 0.0000 0.0000 25.4575
#
#
#
# Elastic Compliance Matrix: (Units=1/GPa)
#
#
# Indices 1 2 3 4 5 6 
#
# 1 0.009602 -0.004893 -0.006761 0.000000 0.000000 0.000000
# 2 -0.004893 0.023498 -0.005904 0.000000 0.000000 0.000000
# 3 -0.006761 -0.005904 0.027849 0.000000 0.000000 0.000000
# 4 0.000000 0.000000 0.000000 0.317328 0.000000 0.000000
# 5 0.000000 0.000000 0.000000 0.000000 0.017397 0.000000
# 6 0.000000 0.000000 0.000000 0.000000 0.000000 0.039281
#
#
# Mechanical properties :
#
#
# Convention : Reuss Voigt Hill
#
# Bulk Modulus (GPa) = 38.71060 56.76845 47.73953
# Shear Modulus (GPa) = 10.44530 27.50763 18.97647
#
# Velocity S-wave (km/s) = 2.42288 3.93186 3.26572
# Velocity P-wave (km/s) = 5.43901 7.24687 6.40703
#
# Compressibility (1/GPa) = 0.02583272
#
# Stress axis : x y z
#
# Youngs Moduli (GPa) = 104.14021 42.55615 35.90776
#
# Poissons Ratio (x) = 0.20824 0.24278
# Poissons Ratio (y) = 0.50959 0.21201
# Poissons Ratio (z) = 0.70410 0.25126
#
# Static dielectric constant tensor:
#      x y z
#    x 1.860500 0.000000 0.000000 
#    y 0.000000 1.596470 0.000000 
#    z 0.000000 0.000000 1.622860 
# 
# From -- ./inp_files/63564.got.cif
#   From: 2010.05.17/outbox.cif.g08.bks.cpg/sg71_32_cif.got.tgz:63564.got - 2010.06.03 16:22:01.
