data_PCOD9519632
_publ_section_title
;
Structure prediction by ZEFSAII (Michael W. Deem and Ramdas Pophale) SiO2 
 PCOD9519632
Probable space group: I M M M
;
_chemical_formula_sum "Si O2"
_cell_formula_units_Z 80
_cell_length_a 10.547460
_cell_length_b 15.252804
_cell_length_c 23.464198
_cell_angle_alpha 90.000000
_cell_angle_beta 90.000000
_cell_angle_gamma 90.000000
_cell_volume 3774.881225
_symmetry_space_group_name_H-M "I M M M"
_symmetry_group_IT_number 71
_symmetry_cell_setting 'orthorhombic'
loop_
_space_group_symop_operation_xyz
x,y,z
-x,-y,z
x,-y,-z
-x,y,-z
-x,-y,-z
x,y,-z
-x,y,z
x,-y,z
1/2+x,1/2+y,1/2+z
1/2-x,1/2-y,1/2+z
1/2+x,1/2-y,1/2-z
1/2-x,1/2+y,1/2-z
1/2-x,1/2-y,1/2-z
1/2+x,1/2+y,1/2-z
1/2-x,1/2+y,1/2+z
1/2+x,1/2-y,1/2+z
loop_
_atom_site_type_symbol
_atom_site_label
_atom_site_fract_x
_atom_site_fract_y
_atom_site_fract_z
Si Si1 0.000000 0.605903 0.632535
Si Si2 0.500000 0.335282 0.251348
Si Si3 0.000000 0.898447 0.125499
Si Si4 0.146556 0.392778 0.935639
Si Si5 0.000000 0.362144 0.233360
Si Si6 0.251838 0.892426 0.066055
Si Si7 0.731713 0.399136 0.822082
O O1 0.000000 0.629144 0.698605
O O2 0.875500 0.637385 0.599857
O O3 0.000000 0.500000 0.629887
O O4 0.500000 0.397232 0.306392
O O5 0.500000 0.240289 0.279344
O O6 0.374368 0.348494 0.213547
O O7 0.873035 0.859825 0.098457
O O8 0.000000 0.000000 0.107127
O O9 0.147712 0.500000 0.934161
O O10 0.239243 0.363693 0.885361
O O11 0.000000 0.367233 0.924307
O O12 0.179796 0.365964 0.000000
O O13 0.869350 0.399603 0.208471
O O14 0.253501 0.000000 0.067400
O O15 0.251928 0.867064 0.000000
O O16 0.687339 0.500000 0.825839
#
# Coordination Sequence:
#
# PCOD9519632 Si02
#       7
#     8   8   8  16   8  16  16
#     4  10  19  32  54  82 107 136 182 232 272 324
#     4  12  26  39  54  82 126 157 185 240 303 342
#     4  10  19  34  54  76 105 148 188 220 266 338
#     4   8  14  28  55  89 114 136 181 242 288 329
#     4  12  24  39  58  82 116 157 199 234 285 344
#     4   9  17  30  52  81 107 132 174 232 282 322
#     4  11  21  38  62  88 114 151 197 240 283 344
#
# _framework density 21.192720000000001
#
# number of rings (size 3 to 8) (size 9 to 14) (size 15 to 20)
#    0.000    2.000    1.000    4.800    0.000    4.000 
#    0.000    0.500    0.000    9.600    0.000    0.000 
#    0.000    0.000    0.000    0.000    0.000    0.000 
#
# Total GULP energy -223476.313329 kJ/mol
# GULP energy per Si atom -5586.907833 kJ/mol
# Density = 2.114448 g / cm^3
# Si number density = 21.192720 Si / 1000 Ang^3
#
#
#
# Elastic Constant Matrix: (Units=GPa)
#
#
# Indices 1 2 3 4 5 6 
#
# 1 130.0560 -6.7543 60.3301 0.0000 0.0000 0.0000
# 2 -6.7543 34.0677 -23.0783 0.0000 0.0000 0.0000
# 3 60.3301 -23.0783 145.9181 0.0000 0.0000 0.0000
# 4 0.0000 0.0000 0.0000 -28.7850 0.0000 0.0000
# 5 0.0000 0.0000 0.0000 0.0000 -13.9095 0.0000
# 6 0.0000 0.0000 0.0000 0.0000 0.0000 27.7631
#
#
#
# Elastic Compliance Matrix: (Units=1/GPa)
#
#
# Indices 1 2 3 4 5 6 
#
# 1 0.009537 -0.000874 -0.004081 0.000000 0.000000 0.000000
# 2 -0.000874 0.032956 0.005574 0.000000 0.000000 0.000000
# 3 -0.004081 0.005574 0.009422 0.000000 0.000000 0.000000
# 4 0.000000 0.000000 0.000000 -0.034740 0.000000 0.000000
# 5 0.000000 0.000000 0.000000 0.000000 -0.071893 0.000000
# 6 0.000000 0.000000 0.000000 0.000000 0.000000 0.036019
#
#
# Mechanical properties :
#
#
# Convention : Reuss Voigt Hill
#
# Bulk Modulus (GPa) = 18.81417 41.22630 30.02023
# Shear Modulus (GPa) = -2252.70598 15.65000 -1118.52799
#
# Velocity S-wave (km/s) = -32.63847 2.72041 -22.99858
# Velocity P-wave (km/s) = 37.56944 5.41875 26.28783
#
# Compressibility (1/GPa) = 0.05315143
#
# Stress axis : x y z
#
# Youngs Moduli (GPa) = 104.85701 30.34373 106.13385
#
# Poissons Ratio (x) = 0.02652 0.43316
# Poissons Ratio (y) = 0.09164 -0.59155
# Poissons Ratio (z) = 0.42795 -0.16912
#
# Static dielectric constant tensor:
#      x y z
#    x 1.765930 0.000000 0.000000 
#    y 0.000000 1.806460 0.000000 
#    z 0.000000 0.000000 1.742540 
# 
# From -- ./inp_files/51754.got.cif
#   From: 2010.05.17/outbox.cif.g08.bks.cpg/sg71_26_cif.got.tgz:51754.got - 2010.06.03 16:22:01.
