data_PCOD9519505
_publ_section_title
;
Structure prediction by ZEFSAII (Michael W. Deem and Ramdas Pophale) SiO2 
 PCOD9519505
Probable space group: I M M M
;
_chemical_formula_sum "Si O2"
_cell_formula_units_Z 104
_cell_length_a 27.184795
_cell_length_b 8.155536
_cell_length_c 19.800292
_cell_angle_alpha 90.000000
_cell_angle_beta 90.000000
_cell_angle_gamma 90.000000
_cell_volume 4389.854909
_symmetry_space_group_name_H-M "I M M M"
_symmetry_group_IT_number 71
_symmetry_cell_setting 'orthorhombic'
loop_
_space_group_symop_operation_xyz
x,y,z
-x,-y,z
x,-y,-z
-x,y,-z
-x,-y,-z
x,y,-z
-x,y,z
x,-y,z
1/2+x,1/2+y,1/2+z
1/2-x,1/2-y,1/2+z
1/2+x,1/2-y,1/2-z
1/2-x,1/2+y,1/2-z
1/2-x,1/2-y,1/2-z
1/2+x,1/2+y,1/2-z
1/2-x,1/2+y,1/2+z
1/2+x,1/2-y,1/2+z
loop_
_atom_site_type_symbol
_atom_site_label
_atom_site_fract_x
_atom_site_fract_y
_atom_site_fract_z
Si Si1 0.442206 0.500000 0.422165
Si Si2 0.692000 0.807773 0.895735
Si Si3 0.446744 0.304601 0.221166
Si Si4 0.597439 0.826006 0.576851
Si Si5 0.082551 0.699493 0.574296
Si Si6 0.799492 0.803099 0.103081
Si Si7 0.162640 0.195845 0.747120
O O1 0.500000 0.500000 0.424724
O O2 0.422636 0.500000 0.500000
O O3 0.423819 0.664949 0.388558
O O4 0.639969 0.744479 0.922793
O O5 0.745366 0.744097 0.917138
O O6 0.688380 0.784332 0.815226
O O7 0.692948 0.000000 0.912517
O O8 0.500000 0.238576 0.244859
O O9 0.447332 0.500000 0.233117
O O10 0.442869 0.272268 0.140328
O O11 0.394083 0.242671 0.248777
O O12 0.577042 0.829925 0.500000
O O13 0.655394 0.794935 0.572120
O O14 0.586378 0.000000 0.608885
O O15 0.062716 0.741301 0.500000
O O16 0.081511 0.500000 0.580524
O O17 0.809042 0.781448 0.183087
O O18 0.804488 0.000000 0.088751
O O19 0.161631 0.000000 0.733054
#
# Coordination Sequence:
#
# PCOD9519505 Si02
#       7
#     8  16  16  16  16  16  16
#     4   9  18  36  60  80 104 140 176 216 266 316
#     4   9  18  31  49  73 100 138 178 218 266 321
#     4   9  18  33  51  70  96 132 170 212 266 318
#     4  10  21  36  55  82 113 143 180 224 270 325
#     4   9  18  32  48  70 100 131 171 217 261 313
#     4  10  19  32  52  76 107 142 180 217 268 327
#     4   9  18  32  50  72 101 132 176 225 266 320
#
# _framework density 23.690988000000001
#
# number of rings (size 3 to 8) (size 9 to 14) (size 15 to 20)
#    0.000    2.692    0.769    0.462    0.000    3.077 
#    0.000    5.385    0.000    0.000    0.000    0.000 
#    0.000    0.000    0.000    0.000    0.000    0.000 
#
# Total GULP energy -290321.203765 kJ/mol
# GULP energy per Si atom -5583.100072 kJ/mol
# Density = 2.363707 g / cm^3
# Si number density = 23.690988 Si / 1000 Ang^3
#
#
#
# Elastic Constant Matrix: (Units=GPa)
#
#
# Indices 1 2 3 4 5 6 
#
# 1 123.1549 22.9497 -7.6013 0.0000 0.0000 0.0000
# 2 22.9497 75.4460 3.6879 0.0000 0.0000 0.0000
# 3 -7.6013 3.6879 72.8731 0.0000 0.0000 0.0000
# 4 0.0000 0.0000 0.0000 33.5421 0.0000 0.0000
# 5 0.0000 0.0000 0.0000 0.0000 12.4890 0.0000
# 6 0.0000 0.0000 0.0000 0.0000 0.0000 -4.6620
#
#
#
# Elastic Compliance Matrix: (Units=1/GPa)
#
#
# Indices 1 2 3 4 5 6 
#
# 1 0.008686 -0.002693 0.001042 0.000000 0.000000 0.000000
# 2 -0.002693 0.014122 -0.000996 0.000000 0.000000 0.000000
# 3 0.001042 -0.000996 0.013882 0.000000 0.000000 0.000000
# 4 0.000000 0.000000 0.000000 0.029813 0.000000 0.000000
# 5 0.000000 0.000000 0.000000 0.000000 0.080070 0.000000
# 6 0.000000 0.000000 0.000000 0.000000 0.000000 -0.214498
#
#
# Mechanical properties :
#
#
# Convention : Reuss Voigt Hill
#
# Bulk Modulus (GPa) = 31.84996 34.39405 33.12200
# Shear Modulus (GPa) = -95.84821 25.10300 -35.37261
#
# Velocity S-wave (km/s) = -6.36753 3.25868 -3.86823
# Velocity P-wave (km/s) = 6.37084 5.35798 2.43717
#
# Compressibility (1/GPa) = 0.03139721
#
# Stress axis : x y z
#
# Youngs Moduli (GPa) = 115.12714 70.80948 72.03779
#
# Poissons Ratio (x) = 0.19070 -0.07509
# Poissons Ratio (y) = 0.31005 0.07172
# Poissons Ratio (z) = -0.12000 0.07050
#
# Static dielectric constant tensor:
#      x y z
#    x 1.899240 0.000000 0.000000 
#    y 0.000000 1.914150 0.000000 
#    z 0.000000 0.000000 1.947330 
# 
# From -- ./inp_files/61978.got.cif
#   From: 2010.05.17/outbox.cif.g08.bks.cpg/sg71_31_cif.got.tgz:61978.got - 2010.06.03 16:22:01.
