data_PCOD9519818
_publ_section_title
;
Structure prediction by ZEFSAII (Michael W. Deem and Ramdas Pophale) SiO2 
 PCOD9519818
Probable space group: I M M M
;
_chemical_formula_sum "Si O2"
_cell_formula_units_Z 104
_cell_length_a 19.226819
_cell_length_b 9.925894
_cell_length_c 29.834911
_cell_angle_alpha 90.000000
_cell_angle_beta 90.000000
_cell_angle_gamma 90.000000
_cell_volume 5693.794880
_symmetry_space_group_name_H-M "I M M M"
_symmetry_group_IT_number 71
_symmetry_cell_setting 'orthorhombic'
loop_
_space_group_symop_operation_xyz
x,y,z
-x,-y,z
x,-y,-z
-x,y,-z
-x,-y,-z
x,y,-z
-x,y,z
x,-y,z
1/2+x,1/2+y,1/2+z
1/2-x,1/2-y,1/2+z
1/2+x,1/2-y,1/2-z
1/2-x,1/2+y,1/2-z
1/2-x,1/2-y,1/2-z
1/2+x,1/2+y,1/2-z
1/2-x,1/2+y,1/2+z
1/2+x,1/2-y,1/2+z
loop_
_atom_site_type_symbol
_atom_site_label
_atom_site_fract_x
_atom_site_fract_y
_atom_site_fract_z
Si Si1 0.831197 0.340481 0.702199
Si Si2 0.330488 0.658770 0.709534
Si Si3 0.923363 0.500000 0.553461
Si Si4 0.306910 0.659131 0.447319
Si Si5 0.343044 0.273725 0.947299
Si Si6 0.582327 0.351683 0.861822
Si Si7 0.578520 0.663086 0.376342
O O1 0.847533 0.500000 0.705473
O O2 0.748689 0.329677 0.691217
O O3 0.839046 0.259471 0.748902
O O4 0.878547 0.262644 0.666469
O O5 0.339557 0.500000 0.722122
O O6 0.384537 0.694331 0.670598
O O7 0.931787 0.500000 0.500000
O O8 0.879223 0.369213 0.562544
O O9 0.000000 0.500000 0.574388
O O10 0.324074 0.665551 0.500000
O O11 0.290928 0.500000 0.437557
O O12 0.238637 0.749227 0.439898
O O13 0.370508 0.703845 0.416504
O O14 0.381102 0.360812 0.910246
O O15 0.353851 0.309057 0.000000
O O16 0.500000 0.323946 0.866506
O O17 0.589606 0.500000 0.839869
O O18 0.500000 0.715049 0.379563
O O19 0.575254 0.500000 0.378582
#
# Coordination Sequence:
#
# PCOD9519818 Si02
#       7
#    16  16   8  16  16  16  16
#     4  10  21  37  59  84 107 138 181 227 273 325
#     4   9  18  35  58  82 111 143 177 222 274 327
#     4   9  16  26  44  72  99 125 165 217 266 312
#     4   9  16  28  47  74 109 143 177 222 271 312
#     4  10  19  33  53  75 101 138 183 226 270 323
#     4  11  25  40  53  75 110 148 181 221 277 331
#     4   9  17  28  46  74 106 144 184 216 257 319
#
# _framework density 18.265498999999998
#
# number of rings (size 3 to 8) (size 9 to 14) (size 15 to 20)
#    0.000    2.385    0.769    1.846    1.077    4.308 
#    0.000    3.846    0.000    0.000    0.000    0.000 
#    0.000    0.000    0.000    9.385    0.000    2.769 
#
# Total GULP energy -289837.496142 kJ/mol
# GULP energy per Si atom -5573.798003 kJ/mol
# Density = 1.822393 g / cm^3
# Si number density = 18.265499 Si / 1000 Ang^3
#
#
#
# Elastic Constant Matrix: (Units=GPa)
#
#
# Indices 1 2 3 4 5 6 
#
# 1 146.8053 49.6707 85.2393 0.0000 0.0000 0.0000
# 2 49.6707 91.4493 45.9406 0.0000 0.0000 0.0000
# 3 85.2393 45.9406 85.2055 0.0000 0.0000 0.0000
# 4 0.0000 0.0000 0.0000-2545.6936 0.0000 0.0000
# 5 0.0000 0.0000 0.0000 0.0000 15.0885 0.0000
# 6 0.0000 0.0000 0.0000 0.0000 0.0000 23.9520
#
#
#
# Elastic Compliance Matrix: (Units=1/GPa)
#
#
# Indices 1 2 3 4 5 6 
#
# 1 0.016306 -0.000908 -0.015823 0.000000 0.000000 0.000000
# 2 -0.000908 0.015048 -0.007205 0.000000 0.000000 0.000000
# 3 -0.015823 -0.007205 0.031451 0.000000 0.000000 0.000000
# 4 0.000000 0.000000 0.000000 -0.000393 0.000000 0.000000
# 5 0.000000 0.000000 0.000000 0.000000 0.066276 0.000000
# 6 0.000000 0.000000 0.000000 0.000000 0.000000 0.041750
#
#
# Mechanical properties :
#
#
# Convention : Reuss Voigt Hill
#
# Bulk Modulus (GPa) = 66.96938 76.12902 71.54920
# Shear Modulus (GPa) = 22.39258 -491.82333 -234.71538
#
# Velocity S-wave (km/s) = 3.50515 -16.42705 -11.34817
# Velocity P-wave (km/s) = 7.28872 17.83334 11.50874
#
# Compressibility (1/GPa) = 0.01493220
#
# Stress axis : x y z
#
# Youngs Moduli (GPa) = 61.32558 66.45541 31.79558
#
# Poissons Ratio (x) = 0.06032 0.50312
# Poissons Ratio (y) = 0.05567 0.22909
# Poissons Ratio (z) = 0.97038 0.47883
#
# Static dielectric constant tensor:
#      x y z
#    x 1.624950 0.000000 0.000000 
#    y 0.000000 0.406050 0.000000 
#    z 0.000000 0.000000 1.633940 
# 
# From -- ./inp_files/70495.got.cif
#   From: 2010.05.17/outbox.cif.g08.bks.cpg/sg71_36_cif.got.tgz:70495.got - 2010.06.03 16:22:01.
