data_PCOD9519065
_publ_section_title
;
Structure prediction by ZEFSAII (Michael W. Deem and Ramdas Pophale) SiO2 
 PCOD9519065
Probable space group: I M M M
;
_chemical_formula_sum "Si O2"
_cell_formula_units_Z 104
_cell_length_a 32.902408
_cell_length_b 21.075276
_cell_length_c 8.598824
_cell_angle_alpha 90.000000
_cell_angle_beta 90.000000
_cell_angle_gamma 90.000000
_cell_volume 5962.659565
_symmetry_space_group_name_H-M "I M M M"
_symmetry_group_IT_number 71
_symmetry_cell_setting 'orthorhombic'
loop_
_space_group_symop_operation_xyz
x,y,z
-x,-y,z
x,-y,-z
-x,y,-z
-x,-y,-z
x,y,-z
-x,y,z
x,-y,z
1/2+x,1/2+y,1/2+z
1/2-x,1/2-y,1/2+z
1/2+x,1/2-y,1/2-z
1/2-x,1/2+y,1/2-z
1/2-x,1/2-y,1/2-z
1/2+x,1/2+y,1/2-z
1/2-x,1/2+y,1/2+z
1/2+x,1/2-y,1/2+z
loop_
_atom_site_type_symbol
_atom_site_label
_atom_site_fract_x
_atom_site_fract_y
_atom_site_fract_z
Si Si1 0.132943 0.308784 0.312324
Si Si2 0.770353 0.072013 0.186198
Si Si3 0.045824 0.000000 0.810747
Si Si4 0.168464 0.176575 0.315375
Si Si5 0.083017 0.867103 0.813411
Si Si6 0.179315 0.571552 0.186019
Si Si7 0.954831 0.743938 0.687744
O O1 0.133861 0.310045 0.500000
O O2 0.162249 0.249941 0.262041
O O3 0.149795 0.374197 0.247603
O O4 0.086033 0.294427 0.265716
O O5 0.797986 0.130125 0.243596
O O6 0.724501 0.080750 0.246093
O O7 0.783660 0.000000 0.236232
O O8 0.770648 0.072451 0.000000
O O9 0.067867 0.064064 0.764975
O O10 0.000000 0.000000 0.753032
O O11 0.044691 0.000000 0.000000
O O12 0.174555 0.177704 0.500000
O O13 0.124977 0.147326 0.271827
O O14 0.051506 0.812830 0.763510
O O15 0.088747 0.865264 0.000000
O O16 0.166207 0.500000 0.229984
O O17 0.181636 0.574948 0.000000
O O18 0.953191 0.749980 0.500000
O O19 0.000000 0.718926 0.728091
#
# Coordination Sequence:
#
# PCOD9519065 Si02
#       7
#    16  16   8  16  16  16  16
#     4   9  19  35  55  79 106 137 174 214 259 311
#     4  10  21  36  55  78 105 140 182 220 259 310
#     4   9  18  30  43  63  93 129 171 219 265 307
#     4  10  21  36  52  75 106 139 177 220 266 309
#     4  10  19  31  48  70  98 134 177 221 265 312
#     4  10  21  37  57  81 107 135 169 210 260 315
#     4   9  18  34  54  76 104 135 170 215 262 309
#
# _framework density 17.441880999999999
#
# number of rings (size 3 to 8) (size 9 to 14) (size 15 to 20)
#    0.000    2.385    0.000    3.231    1.077    6.462 
#    0.000    1.154    0.000    3.231    0.000    3.231 
#    0.000    0.000    0.000    0.000    0.000    0.000 
#
# Total GULP energy -289891.603146 kJ/mol
# GULP energy per Si atom -5574.838522 kJ/mol
# Density = 1.740218 g / cm^3
# Si number density = 17.441881 Si / 1000 Ang^3
#
#
#
# Elastic Constant Matrix: (Units=GPa)
#
#
# Indices 1 2 3 4 5 6 
#
# 1 86.1027 82.8591 19.9749 0.0000 0.0000 0.0000
# 2 82.8591 150.3719 31.2377 0.0000 0.0000 0.0000
# 3 19.9749 31.2377 17.7947 0.0000 0.0000 0.0000
# 4 0.0000 0.0000 0.0000 32.4969 0.0000 0.0000
# 5 0.0000 0.0000 0.0000 0.0000 26.6024 0.0000
# 6 0.0000 0.0000 0.0000 0.0000 0.0000 12.7575
#
#
#
# Elastic Compliance Matrix: (Units=1/GPa)
#
#
# Indices 1 2 3 4 5 6 
#
# 1 0.025144 -0.012579 -0.006143 0.000000 0.000000 0.000000
# 2 -0.012579 0.016760 -0.015302 0.000000 0.000000 0.000000
# 3 -0.006143 -0.015302 0.089954 0.000000 0.000000 0.000000
# 4 0.000000 0.000000 0.000000 0.030772 0.000000 0.000000
# 5 0.000000 0.000000 0.000000 0.000000 0.037591 0.000000
# 6 0.000000 0.000000 0.000000 0.000000 0.000000 0.078385
#
#
# Mechanical properties :
#
#
# Convention : Reuss Voigt Hill
#
# Bulk Modulus (GPa) = 15.67135 58.04585 36.85860
# Shear Modulus (GPa) = 13.58975 22.38454 17.98715
#
# Velocity S-wave (km/s) = 2.79434 3.58631 3.21481
# Velocity P-wave (km/s) = 4.40631 7.10638 5.91254
#
# Compressibility (1/GPa) = 0.06381072
#
# Stress axis : x y z
#
# Youngs Moduli (GPa) = 39.77027 59.66472 11.11682
#
# Poissons Ratio (x) = 0.75053 0.06829
# Poissons Ratio (y) = 0.50027 0.17011
# Poissons Ratio (z) = 0.24431 0.91297
#
# Static dielectric constant tensor:
#      x y z
#    x 1.588550 0.000000 0.000000 
#    y 0.000000 1.564750 0.000000 
#    z 0.000000 0.000000 1.590160 
# 
# From -- ./inp_files/16990.got.cif
#   From: 2010.05.17/outbox.cif.g08.bks.cpg/sg71_9_cif.got.tgz:16990.got - 2010.06.03 16:22:01.
