data_PCOD9519089
_publ_section_title
;
Structure prediction by ZEFSAII (Michael W. Deem and Ramdas Pophale) SiO2 
 PCOD9519089
Probable space group: I M M M
;
_chemical_formula_sum "Si O2"
_cell_formula_units_Z 104
_cell_length_a 25.083562
_cell_length_b 8.681407
_cell_length_c 23.655872
_cell_angle_alpha 90.000000
_cell_angle_beta 90.000000
_cell_angle_gamma 90.000000
_cell_volume 5151.317134
_symmetry_space_group_name_H-M "I M M M"
_symmetry_group_IT_number 71
_symmetry_cell_setting 'orthorhombic'
loop_
_space_group_symop_operation_xyz
x,y,z
-x,-y,z
x,-y,-z
-x,y,-z
-x,-y,-z
x,y,-z
-x,y,z
x,-y,z
1/2+x,1/2+y,1/2+z
1/2-x,1/2-y,1/2+z
1/2+x,1/2-y,1/2-z
1/2-x,1/2+y,1/2-z
1/2-x,1/2-y,1/2-z
1/2+x,1/2+y,1/2-z
1/2-x,1/2+y,1/2+z
1/2+x,1/2-y,1/2+z
loop_
_atom_site_type_symbol
_atom_site_label
_atom_site_fract_x
_atom_site_fract_y
_atom_site_fract_z
Si Si1 0.722647 0.684670 0.062798
Si Si2 0.436164 0.818942 0.000000
Si Si3 0.385511 0.684585 0.113865
Si Si4 0.168808 0.179283 0.103480
Si Si5 0.798354 0.675748 0.782089
Si Si6 0.941054 0.814101 0.148472
Si Si7 0.412841 0.174156 0.769803
O O1 0.724092 0.500000 0.065420
O O2 0.677085 0.736031 0.107310
O O3 0.783041 0.742469 0.069940
O O4 0.703981 0.730582 0.000000
O O5 0.413610 0.741381 0.943257
O O6 0.500000 0.805365 0.000000
O O7 0.422032 0.000000 0.000000
O O8 0.385468 0.500000 0.115957
O O9 0.415805 0.745312 0.169486
O O10 0.187564 0.209776 0.167385
O O11 0.107759 0.240162 0.108255
O O12 0.167280 0.000000 0.088257
O O13 0.787406 0.500000 0.802472
O O14 0.750000 0.750000 0.750000
O O15 0.849759 0.668037 0.742703
O O16 0.935177 0.754700 0.213118
O O17 0.000000 0.770898 0.127956
O O18 0.937178 0.000000 0.150429
O O19 0.433630 0.000000 0.772783
#
# Coordination Sequence:
#
# PCOD9519089 Si02
#       7
#    16   8  16  16  16  16  16
#     4  10  21  38  58  82 112 146 186 233 282 332
#     4  11  25  43  61  81 107 141 184 235 284 325
#     4  11  22  39  60  82 109 147 191 230 277 331
#     4  10  20  33  53  82 110 141 182 227 280 339
#     4  10  19  31  48  73 106 142 176 214 265 323
#     4   9  19  37  58  80 110 148 188 229 276 334
#     4  10  21  34  51  79 110 140 178 224 271 321
#
# _framework density 20.189011000000001
#
# number of rings (size 3 to 8) (size 9 to 14) (size 15 to 20)
#    0.000    1.923    0.769    3.000    0.000    8.000 
#    0.000    0.000    0.000    0.462    0.000    3.231 
#    0.000    0.000    0.000    0.000    0.000    0.000 
#
# Total GULP energy -289923.583194 kJ/mol
# GULP energy per Si atom -5575.453523 kJ/mol
# Density = 2.014306 g / cm^3
# Si number density = 20.189011 Si / 1000 Ang^3
#
#
#
# Elastic Constant Matrix: (Units=GPa)
#
#
# Indices 1 2 3 4 5 6 
#
# 1 89.1926 7.5569 -13.3613 0.0000 0.0000 0.0000
# 2 7.5569 28.9405 2.5408 0.0000 0.0000 0.0000
# 3 -13.3613 2.5408 33.2122 0.0000 0.0000 0.0000
# 4 0.0000 0.0000 0.0000 24.6823 0.0000 0.0000
# 5 0.0000 0.0000 0.0000 0.0000 20.3880 0.0000
# 6 0.0000 0.0000 0.0000 0.0000 0.0000 20.4663
#
#
#
# Elastic Compliance Matrix: (Units=1/GPa)
#
#
# Indices 1 2 3 4 5 6 
#
# 1 0.012307 -0.003673 0.005232 0.000000 0.000000 0.000000
# 2 -0.003673 0.035883 -0.004223 0.000000 0.000000 0.000000
# 3 0.005232 -0.004223 0.032537 0.000000 0.000000 0.000000
# 4 0.000000 0.000000 0.000000 0.040515 0.000000 0.000000
# 5 0.000000 0.000000 0.000000 0.000000 0.049049 0.000000
# 6 0.000000 0.000000 0.000000 0.000000 0.000000 0.048861
#
#
# Mechanical properties :
#
#
# Convention : Reuss Voigt Hill
#
# Bulk Modulus (GPa) = 13.26257 16.09090 14.67673
# Shear Modulus (GPa) = 20.03107 23.41456 21.72281
#
# Velocity S-wave (km/s) = 3.15330 3.40923 3.28376
# Velocity P-wave (km/s) = 4.45435 4.84609 4.65434
#
# Compressibility (1/GPa) = 0.07540018
#
# Stress axis : x y z
#
# Youngs Moduli (GPa) = 81.25695 27.86801 30.73395
#
# Poissons Ratio (x) = 0.10235 -0.16080
# Poissons Ratio (y) = 0.29844 0.12978
# Poissons Ratio (z) = -0.42513 0.11768
#
# Static dielectric constant tensor:
#      x y z
#    x 1.763810 0.000000 0.000000 
#    y 0.000000 1.711970 0.000000 
#    z 0.000000 0.000000 1.678870 
# 
# From -- ./inp_files/13336.got.cif
#   From: 2010.05.17/outbox.cif.g08.bks.cpg/sg71_7_cif.got.tgz:13336.got - 2010.06.03 16:22:01.
