data_PCOD9519649
_publ_section_title
;
Structure prediction by ZEFSAII (Michael W. Deem and Ramdas Pophale) SiO2 
 PCOD9519649
Probable space group: I M M M
;
_chemical_formula_sum "Si O2"
_cell_formula_units_Z 80
_cell_length_a 19.460635
_cell_length_b 22.211601
_cell_length_c 11.741176
_cell_angle_alpha 90.000000
_cell_angle_beta 90.000000
_cell_angle_gamma 90.000000
_cell_volume 5075.145163
_symmetry_space_group_name_H-M "I M M M"
_symmetry_group_IT_number 71
_symmetry_cell_setting 'orthorhombic'
loop_
_space_group_symop_operation_xyz
x,y,z
-x,-y,z
x,-y,-z
-x,y,-z
-x,-y,-z
x,y,-z
-x,y,z
x,-y,z
1/2+x,1/2+y,1/2+z
1/2-x,1/2-y,1/2+z
1/2+x,1/2-y,1/2-z
1/2-x,1/2+y,1/2-z
1/2-x,1/2-y,1/2-z
1/2+x,1/2+y,1/2-z
1/2-x,1/2+y,1/2+z
1/2+x,1/2-y,1/2+z
loop_
_atom_site_type_symbol
_atom_site_label
_atom_site_fract_x
_atom_site_fract_y
_atom_site_fract_z
Si Si1 0.804768 0.069825 0.000000
Si Si2 0.080023 0.654059 0.366163
Si Si3 0.860566 0.241536 0.789998
Si Si4 0.239185 0.170607 0.367877
Si Si5 0.797881 0.429232 0.287199
Si Si6 0.921014 0.828988 0.000000
O O1 0.756410 0.079486 0.109904
O O2 0.867571 0.115799 0.000000
O O3 0.827104 0.000000 0.000000
O O4 0.092849 0.666699 0.500000
O O5 0.098547 0.711864 0.289640
O O6 0.130902 0.601087 0.326694
O O7 0.000000 0.638444 0.352596
O O8 0.824137 0.192429 0.709392
O O9 0.798904 0.279501 0.848766
O O10 0.904931 0.210762 0.888124
O O11 0.221385 0.167328 0.500000
O O12 0.269171 0.108430 0.319079
O O13 0.805279 0.500000 0.265793
O O14 0.000000 0.848398 0.000000
#
# Coordination Sequence:
#
# PCOD9519649 Si02
#       6
#     8  16  16  16  16   8
#     4  10  20  37  55  78 104 134 174 221 271 307
#     4  10  20  33  51  77 109 144 178 215 265 320
#     4  10  20  33  50  79 110 135 171 216 268 311
#     4  10  19  32  55  78 103 137 178 217 261 312
#     4  10  20  34  54  76 105 138 177 226 265 307
#     4  12  22  35  56  81 108 140 174 211 267 327
#
# _framework density 15.763096000000001
#
# number of rings (size 3 to 8) (size 9 to 14) (size 15 to 20)
#    0.000    1.800    4.000    1.200    0.000    1.000 
#    0.000    1.000    0.000    0.000    0.000    2.800 
#    0.000    3.200    0.000    0.000    0.000    0.000 
#
# Total GULP energy -223197.879144 kJ/mol
# GULP energy per Si atom -5579.946979 kJ/mol
# Density = 1.572722 g / cm^3
# Si number density = 15.763096 Si / 1000 Ang^3
#
#
#
# Elastic Constant Matrix: (Units=GPa)
#
#
# Indices 1 2 3 4 5 6 
#
# 1 92.3045 59.9460 38.9150 0.0000 0.0000 0.0000
# 2 59.9460 106.9255 54.4968 0.0000 0.0000 0.0000
# 3 38.9150 54.4968 113.1526 0.0000 0.0000 0.0000
# 4 0.0000 0.0000 0.0000 15.6053 0.0000 0.0000
# 5 0.0000 0.0000 0.0000 0.0000 17.8625 0.0000
# 6 0.0000 0.0000 0.0000 0.0000 0.0000 8.5210
#
#
#
# Elastic Compliance Matrix: (Units=1/GPa)
#
#
# Indices 1 2 3 4 5 6 
#
# 1 0.017278 -0.008824 -0.001692 0.000000 0.000000 0.000000
# 2 -0.008824 0.016901 -0.005105 0.000000 0.000000 0.000000
# 3 -0.001692 -0.005105 0.011878 0.000000 0.000000 0.000000
# 4 0.000000 0.000000 0.000000 0.064081 0.000000 0.000000
# 5 0.000000 0.000000 0.000000 0.000000 0.055983 0.000000
# 6 0.000000 0.000000 0.000000 0.000000 0.000000 0.117358
#
#
# Mechanical properties :
#
#
# Convention : Reuss Voigt Hill
#
# Bulk Modulus (GPa) = 67.50198 68.78866 68.14532
# Shear Modulus (GPa) = 15.64159 18.99942 17.32050
#
# Velocity S-wave (km/s) = 3.15348 3.47552 3.31841
# Velocity P-wave (km/s) = 7.49500 7.73560 7.61625
#
# Compressibility (1/GPa) = 0.01481438
#
# Stress axis : x y z
#
# Youngs Moduli (GPa) = 57.87773 59.16674 84.18588
#
# Poissons Ratio (x) = 0.52209 0.14247
# Poissons Ratio (y) = 0.51071 0.42980
# Poissons Ratio (z) = 0.09794 0.30207
#
# Static dielectric constant tensor:
#      x y z
#    x 1.507400 0.000000 0.000000 
#    y 0.000000 1.509300 0.000000 
#    z 0.000000 0.000000 1.511220 
# 
# From -- ./inp_files/10308.got.cif
#   From: 2010.05.17/outbox.cif.g08.bks.cpg/sg71_6_cif.got.tgz:10308.got - 2010.06.03 16:22:01.
