data_PCOD9519561
_publ_section_title
;
Structure prediction by ZEFSAII (Michael W. Deem and Ramdas Pophale) SiO2 
 PCOD9519561
Probable space group: I M M M
;
_chemical_formula_sum "Si O2"
_cell_formula_units_Z 56
_cell_length_a 7.977178
_cell_length_b 25.735645
_cell_length_c 14.241219
_cell_angle_alpha 90.000000
_cell_angle_beta 90.000000
_cell_angle_gamma 90.000000
_cell_volume 2923.691231
_symmetry_space_group_name_H-M "I M M M"
_symmetry_group_IT_number 71
_symmetry_cell_setting 'orthorhombic'
loop_
_space_group_symop_operation_xyz
x,y,z
-x,-y,z
x,-y,-z
-x,y,-z
-x,-y,-z
x,y,-z
-x,y,z
x,-y,z
1/2+x,1/2+y,1/2+z
1/2-x,1/2-y,1/2+z
1/2+x,1/2-y,1/2-z
1/2-x,1/2+y,1/2-z
1/2-x,1/2-y,1/2-z
1/2+x,1/2+y,1/2-z
1/2-x,1/2+y,1/2+z
1/2+x,1/2-y,1/2+z
loop_
_atom_site_type_symbol
_atom_site_label
_atom_site_fract_x
_atom_site_fract_y
_atom_site_fract_z
Si Si1 0.814386 0.117038 0.794715
Si Si2 0.195753 0.279536 0.612359
Si Si3 0.500000 0.937854 0.109095
Si Si4 0.199993 0.338377 0.891992
O O1 0.796052 0.174872 0.837896
O O2 0.665036 0.084254 0.840403
O O3 0.785300 0.124652 0.683761
O O4 0.000000 0.096502 0.814433
O O5 0.208593 0.286424 0.500000
O O6 0.258736 0.221547 0.632738
O O7 0.000000 0.284046 0.639127
O O8 0.500000 0.000000 0.111964
O O9 0.500000 0.920613 0.000000
O O10 0.000000 0.345149 0.886640
O O11 0.253944 0.346551 0.000000
#
# Coordination Sequence:
#
# PCOD9519561 Si02
#       4
#    16  16   8  16
#     4  12  23  38  63  90 122 161 203 249 305 366
#     4  10  19  32  52  84 127 167 205 247 292 352
#     4  11  26  48  69  91 119 151 200 262 314 363
#     4  10  20  35  56  87 128 169 206 245 290 352
#
# _framework density 19.153870000000001
#
# number of rings (size 3 to 8) (size 9 to 14) (size 15 to 20)
#    0.000    1.286    2.857    3.429    0.000    5.714 
#    0.000    1.429    0.000    1.714    0.000    2.000 
#    0.000    0.000    0.000    0.000    0.000    0.000 
#
# Total GULP energy -156592.742558 kJ/mol
# GULP energy per Si atom -5592.597948 kJ/mol
# Density = 1.911027 g / cm^3
# Si number density = 19.153870 Si / 1000 Ang^3
#
#
#
# Elastic Constant Matrix: (Units=GPa)
#
#
# Indices 1 2 3 4 5 6 
#
# 1 141.1128 33.3657 49.1677 0.0000 0.0000 0.0000
# 2 33.3657 46.8931 45.0418 0.0000 0.0000 0.0000
# 3 49.1677 45.0418 85.4957 0.0001 0.0000 0.0000
# 4 0.0000 0.0000 0.0001 22.6658 0.0000 0.0000
# 5 0.0000 0.0000 0.0000 0.0000 19.2159 0.0000
# 6 0.0000 0.0000 0.0000 0.0000 0.0000 7.7655
#
#
#
# Elastic Compliance Matrix: (Units=1/GPa)
#
#
# Indices 1 2 3 4 5 6 
#
# 1 0.009055 -0.002917 -0.003671 0.000000 0.000000 0.000000
# 2 -0.002917 0.044111 -0.021561 0.000000 0.000000 0.000000
# 3 -0.003671 -0.021561 0.025167 0.000000 0.000000 0.000000
# 4 0.000000 0.000000 0.000000 0.044119 0.000000 0.000000
# 5 0.000000 0.000000 0.000000 0.000000 0.052040 0.000000
# 6 0.000000 0.000000 0.000000 0.000000 0.000000 0.128775
#
#
# Mechanical properties :
#
#
# Convention : Reuss Voigt Hill
#
# Bulk Modulus (GPa) = 45.38382 58.73911 52.06147
# Shear Modulus (GPa) = 13.62728 19.65787 16.64257
#
# Velocity S-wave (km/s) = 2.67022 3.20709 2.95089
# Velocity P-wave (km/s) = 5.76650 6.66689 6.23298
#
# Compressibility (1/GPa) = 0.02203429
#
# Stress axis : x y z
#
# Youngs Moduli (GPa) = 110.43275 22.67004 39.73506
#
# Poissons Ratio (x) = 0.06614 0.14585
# Poissons Ratio (y) = 0.32217 0.85674
# Poissons Ratio (z) = 0.40536 0.48880
#
# Static dielectric constant tensor:
#      x y z
#    x 1.686210 0.000000 0.000000 
#    y 0.000000 1.621820 0.000000 
#    z 0.000000 0.000000 1.701220 
# 
# From -- ./inp_files/11903.got.cif
#   From: 2010.05.17/outbox.cif.g08.bks.cpg/sg71_6_cif.got.tgz:11903.got - 2010.06.03 16:22:01.
