data_PCOD9519600
_publ_section_title
;
Structure prediction by ZEFSAII (Michael W. Deem and Ramdas Pophale) SiO2 
 PCOD9519600
Probable space group: I M M M
;
_chemical_formula_sum "Si O2"
_cell_formula_units_Z 112
_cell_length_a 13.964984
_cell_length_b 23.984955
_cell_length_c 17.711893
_cell_angle_alpha 90.000000
_cell_angle_beta 90.000000
_cell_angle_gamma 90.000000
_cell_volume 5932.589931
_symmetry_space_group_name_H-M "I M M M"
_symmetry_group_IT_number 71
_symmetry_cell_setting 'orthorhombic'
loop_
_space_group_symop_operation_xyz
x,y,z
-x,-y,z
x,-y,-z
-x,y,-z
-x,-y,-z
x,y,-z
-x,y,z
x,-y,z
1/2+x,1/2+y,1/2+z
1/2-x,1/2-y,1/2+z
1/2+x,1/2-y,1/2-z
1/2-x,1/2+y,1/2-z
1/2-x,1/2-y,1/2-z
1/2+x,1/2+y,1/2-z
1/2-x,1/2+y,1/2+z
1/2+x,1/2-y,1/2+z
loop_
_atom_site_type_symbol
_atom_site_label
_atom_site_fract_x
_atom_site_fract_y
_atom_site_fract_z
Si Si1 0.801254 0.936427 0.912178
Si Si2 0.889578 0.831893 0.349460
Si Si3 0.215282 0.064942 0.410876
Si Si4 0.108888 0.434495 0.800985
Si Si5 0.888812 0.831131 0.830619
Si Si6 0.217141 0.726462 0.589696
Si Si7 0.110859 0.616640 0.362186
O O1 0.857306 0.891510 0.862363
O O2 0.688701 0.921860 0.903786
O O3 0.818725 0.000000 0.888856
O O4 0.828027 0.929908 0.000000
O O5 0.863365 0.892761 0.379996
O O6 0.875465 0.829857 0.259346
O O7 0.821816 0.786693 0.388493
O O8 0.000000 0.818495 0.365936
O O9 0.229796 0.073183 0.500000
O O10 0.312276 0.076592 0.364127
O O11 0.190188 0.000000 0.398550
O O12 0.117764 0.500000 0.778586
O O13 0.122552 0.397347 0.726551
O O14 0.000000 0.426430 0.828477
O O15 0.817404 0.787896 0.870396
O O16 0.000000 0.820681 0.847507
O O17 0.226447 0.720208 0.500000
O O18 0.142727 0.679529 0.619392
O O19 0.000000 0.606849 0.382260
#
# Coordination Sequence:
#
# PCOD9519600 Si02
#       7
#    16  16  16  16  16  16  16
#     4  10  21  35  53  82 119 155 190 232 282 333
#     4  11  24  41  61  84 112 147 185 227 277 334
#     4  10  21  37  58  83 111 145 186 234 284 333
#     4   9  18  33  54  80 111 148 187 229 278 329
#     4  10  22  40  62  86 112 147 190 233 276 326
#     4  11  23  39  60  84 113 147 182 227 281 334
#     4  10  19  32  53  80 111 150 192 231 275 330
#
# _framework density 18.878768999999998
#
# number of rings (size 3 to 8) (size 9 to 14) (size 15 to 20)
#    0.000    1.857    0.000    5.143    0.000    7.429 
#    0.000    7.143    0.000    1.714    0.000    0.000 
#    0.000    0.000    0.000    0.000    0.000    0.000 
#
# Total GULP energy -312826.282014 kJ/mol
# GULP energy per Si atom -5586.183607 kJ/mol
# Density = 1.883580 g / cm^3
# Si number density = 18.878769 Si / 1000 Ang^3
#
#
#
# Elastic Constant Matrix: (Units=GPa)
#
#
# Indices 1 2 3 4 5 6 
#
# 1 72.1360 31.6211 40.2124 0.0000 0.0000 0.0000
# 2 31.6211 67.0400 33.3160 0.0001 0.0000 0.0000
# 3 40.2124 33.3160 73.9232 0.0002 0.0001 0.0000
# 4 0.0000 0.0001 0.0002 32.8848 0.0000 0.0000
# 5 0.0000 0.0000 0.0001 0.0000 -27.0810 0.0000
# 6 0.0000 0.0000 0.0000 0.0000 0.0000 12.9364
#
#
#
# Elastic Compliance Matrix: (Units=1/GPa)
#
#
# Indices 1 2 3 4 5 6 
#
# 1 0.021386 -0.005549 -0.009133 0.000000 0.000000 0.000000
# 2 -0.005549 0.020661 -0.006293 0.000000 0.000000 0.000000
# 3 -0.009133 -0.006293 0.021332 0.000000 0.000000 0.000000
# 4 0.000000 0.000000 0.000000 0.030409 0.000000 0.000000
# 5 0.000000 0.000000 0.000000 0.000000 -0.036926 0.000000
# 6 0.000000 0.000000 0.000000 0.000000 0.000000 0.077302
#
#
# Mechanical properties :
#
#
# Convention : Reuss Voigt Hill
#
# Bulk Modulus (GPa) = 46.66458 47.04425 46.85442
# Shear Modulus (GPa) = 27.28418 10.94468 19.11443
#
# Velocity S-wave (km/s) = 3.80574 2.41038 3.18541
# Velocity P-wave (km/s) = 6.63952 5.72012 6.19690
#
# Compressibility (1/GPa) = 0.02142953
#
# Stress axis : x y z
#
# Youngs Moduli (GPa) = 46.75929 48.40005 46.87819
#
# Poissons Ratio (x) = 0.26856 0.42813
# Poissons Ratio (y) = 0.25945 0.29502
# Poissons Ratio (z) = 0.42705 0.30460
#
# Static dielectric constant tensor:
#      x y z
#    x 1.646180 0.000000 0.000000 
#    y 0.000000 1.646850 0.000000 
#    z 0.000000 0.000000 1.630690 
# 
# From -- ./inp_files/34863.got.cif
#   From: 2010.05.17/outbox.cif.g08.bks.cpg/sg71_18_cif.got.tgz:34863.got - 2010.06.03 16:22:01.
