data_PCOD9519403
_publ_section_title
;
Structure prediction by ZEFSAII (Michael W. Deem and Ramdas Pophale) SiO2 
 PCOD9519403
Probable space group: I M M M
;
_chemical_formula_sum "Si O2"
_cell_formula_units_Z 120
_cell_length_a 29.402374
_cell_length_b 14.765025
_cell_length_c 15.760282
_cell_angle_alpha 90.000000
_cell_angle_beta 90.000000
_cell_angle_gamma 90.000000
_cell_volume 6841.960590
_symmetry_space_group_name_H-M "I M M M"
_symmetry_group_IT_number 71
_symmetry_cell_setting 'orthorhombic'
loop_
_space_group_symop_operation_xyz
x,y,z
-x,-y,z
x,-y,-z
-x,y,-z
-x,-y,-z
x,y,-z
-x,y,z
x,-y,z
1/2+x,1/2+y,1/2+z
1/2-x,1/2-y,1/2+z
1/2+x,1/2-y,1/2-z
1/2-x,1/2+y,1/2-z
1/2-x,1/2-y,1/2-z
1/2+x,1/2+y,1/2-z
1/2-x,1/2+y,1/2+z
1/2+x,1/2-y,1/2+z
loop_
_atom_site_type_symbol
_atom_site_label
_atom_site_fract_x
_atom_site_fract_y
_atom_site_fract_z
Si Si1 0.090691 0.710257 0.103771
Si Si2 0.265767 0.278713 0.842574
Si Si3 0.850864 0.107702 0.603217
Si Si4 0.548780 0.608991 0.898344
Si Si5 0.872145 0.101776 0.103640
Si Si6 0.319565 0.102706 0.398216
Si Si7 0.232012 0.901409 0.899615
Si Si8 0.500000 0.894724 0.603536
O O1 0.096650 0.814678 0.130949
O O2 0.135531 0.655473 0.131729
O O3 0.045137 0.658998 0.130769
O O4 0.090566 0.710300 0.000000
O O5 0.250000 0.250000 0.750000
O O6 0.312008 0.333470 0.853199
O O7 0.225648 0.341467 0.878965
O O8 0.265799 0.181092 0.886982
O O9 0.847390 0.117056 0.500000
O O10 0.901411 0.138481 0.631796
O O11 0.845397 0.000000 0.620945
O O12 0.500000 0.643325 0.864259
O O13 0.548757 0.500000 0.888048
O O14 0.548626 0.625141 0.000000
O O15 0.819670 0.119033 0.130814
O O16 0.884879 0.000000 0.131469
O O17 0.872786 0.101367 0.000000
O O18 0.323404 0.097983 0.500000
O O19 0.317264 0.000000 0.365355
O O20 0.245683 0.000000 0.864393
O O21 0.226944 0.910135 0.000000
O O22 0.500000 0.895448 0.500000
O O23 0.500000 0.000000 0.630152
#
# Coordination Sequence:
#
# PCOD9519403 Si02
#       8
#    16  16  16  16  16  16  16   8
#     4   9  15  25  42  64  89 114 143 184 234 282
#     4  12  23  31  42  65  97 130 154 190 234 281
#     4   9  17  30  49  72 100 131 159 193 238 288
#     4   7  10  19  39  69 100 124 147 180 226 279
#     4   8  13  23  41  61  78 102 143 188 221 256
#     4  10  19  32  51  70  89 118 156 193 231 285
#     4   9  17  31  49  63  78 110 157 199 230 267
#     4   9  16  24  35  59  93 117 136 178 244 297
#
# _framework density 17.538833
#
# number of rings (size 3 to 8) (size 9 to 14) (size 15 to 20)
#    0.000    2.867    1.333    4.000    0.000    3.733 
#    0.000    0.333    0.000    2.000    1.733    0.000 
#    0.000    0.533    0.000    4.933    0.000    0.267 
#
# Total GULP energy -334004.941917 kJ/mol
# GULP energy per Si atom -5566.749032 kJ/mol
# Density = 1.749891 g / cm^3
# Si number density = 17.538833 Si / 1000 Ang^3
#
#
#
# Elastic Constant Matrix: (Units=GPa)
#
#
# Indices 1 2 3 4 5 6 
#
# 1 163.7300 74.7855 10.8999 0.0000 0.0000 0.0000
# 2 74.7855 127.0858 11.1407 0.0000 0.0000 0.0000
# 3 10.8999 11.1407 13.1680 0.0000 0.0000 0.0000
# 4 0.0000 0.0000 0.0000 -7.0190 0.0000 0.0000
# 5 0.0000 0.0000 0.0000 0.0000 -0.9684 0.0000
# 6 0.0000 0.0000 0.0000 0.0000 0.0000 1.8357
#
#
#
# Elastic Compliance Matrix: (Units=1/GPa)
#
#
# Indices 1 2 3 4 5 6 
#
# 1 0.008462 -0.004715 -0.003015 0.000000 0.000000 0.000000
# 2 -0.004715 0.011127 -0.005510 0.000000 0.000000 0.000000
# 3 -0.003015 -0.005510 0.083100 0.000000 0.000000 0.000000
# 4 0.000000 0.000000 0.000000 -0.142471 0.000000 0.000000
# 5 0.000000 0.000000 0.000000 0.000000 -1.032647 0.000000
# 6 0.000000 0.000000 0.000000 0.000000 0.000000 0.544761
#
#
# Mechanical properties :
#
#
# Convention : Reuss Voigt Hill
#
# Bulk Modulus (GPa) = 13.12222 55.29289 34.20755
# Shear Modulus (GPa) = -10.50897 12.58016 1.03560
#
# Velocity S-wave (km/s) = -2.45048 2.68110 0.76925
# Velocity P-wave (km/s) = 0.71302 6.41707 4.50946
#
# Compressibility (1/GPa) = 0.07620664
#
# Stress axis : x y z
#
# Youngs Moduli (GPa) = 118.17353 89.87484 12.03370
#
# Poissons Ratio (x) = 0.42379 0.03628
# Poissons Ratio (y) = 0.55723 0.06631
# Poissons Ratio (z) = 0.35631 0.49525
#
# Static dielectric constant tensor:
#      x y z
#    x 1.616050 0.000000 0.000000 
#    y 0.000000 1.593120 0.000000 
#    z 0.000000 0.000000 1.590890 
# 
# From -- ./inp_files/41173.got.cif
#   From: 2010.05.17/outbox.cif.g08.bks.cpg/sg71_21_cif.got.tgz:41173.got - 2010.06.03 16:22:01.
