data_PCOD9519658
_publ_section_title
;
Structure prediction by ZEFSAII (Michael W. Deem and Ramdas Pophale) SiO2 
 PCOD9519658
Probable space group: I M M M
;
_chemical_formula_sum "Si O2"
_cell_formula_units_Z 66
_cell_length_a 26.145777
_cell_length_b 15.886395
_cell_length_c 7.488095
_cell_angle_alpha 90.000000
_cell_angle_beta 90.000000
_cell_angle_gamma 90.000000
_cell_volume 3110.271171
_symmetry_space_group_name_H-M "I M M M"
_symmetry_group_IT_number 71
_symmetry_cell_setting 'orthorhombic'
loop_
_space_group_symop_operation_xyz
x,y,z
-x,-y,z
x,-y,-z
-x,y,-z
-x,-y,-z
x,y,-z
-x,y,z
x,-y,z
1/2+x,1/2+y,1/2+z
1/2-x,1/2-y,1/2+z
1/2+x,1/2-y,1/2-z
1/2-x,1/2+y,1/2-z
1/2-x,1/2-y,1/2-z
1/2+x,1/2+y,1/2-z
1/2-x,1/2+y,1/2+z
1/2+x,1/2-y,1/2+z
loop_
_atom_site_type_symbol
_atom_site_label
_atom_site_fract_x
_atom_site_fract_y
_atom_site_fract_z
Si Si1 0.845800 0.164380 0.217232
Si Si2 0.239085 0.402800 0.715539
Si Si3 0.374147 0.844212 0.293911
Si Si4 0.411607 0.500000 0.800178
Si Si5 0.559408 0.000000 0.280898
Si Si6 0.000000 0.000000 0.000000
O O1 0.786753 0.154047 0.274739
O O2 0.871576 0.250420 0.283704
O O3 0.876578 0.082362 0.273980
O O4 0.845291 0.166543 0.000000
O O5 0.235837 0.398379 0.500000
O O6 0.249818 0.500000 0.763113
O O7 0.184168 0.376678 0.788414
O O8 0.390212 0.834522 0.500000
O O9 0.410640 0.916570 0.217567
O O10 0.455435 0.500000 0.654417
O O11 0.432334 0.500000 0.000000
O O12 0.500000 0.000000 0.231374
O O13 0.562142 0.000000 0.500000
#
# Coordination Sequence:
#
# PCOD9519658 Si02
#       6
#    16  16  16   8   8   2
#     4  10  20  39  60  90 127 168 205 263 326 386
#     4  10  19  32  55  81 125 171 203 253 331 389
#     4  10  20  34  58  87 120 162 211 261 323 381
#     4  12  25  44  72  98 125 172 216 264 330 382
#     4   9  18  35  53  81 115 152 209 266 308 380
#     4  12  26  52  72  90 140 166 210 284 318 386
#
# _framework density 21.220015
#
# number of rings (size 3 to 8) (size 9 to 14) (size 15 to 20)
#    0.000    1.818    3.636    0.909    0.000    1.939 
#    2.182    0.000    0.000    1.455    0.000    0.000 
#    0.000    0.000    0.000    0.000    0.000    0.000 
#
# Total GULP energy -184145.779906 kJ/mol
# GULP energy per Si atom -5580.175149 kJ/mol
# Density = 2.117172 g / cm^3
# Si number density = 21.220015 Si / 1000 Ang^3
#
#
#
# Elastic Constant Matrix: (Units=GPa)
#
#
# Indices 1 2 3 4 5 6 
#
# 1 155.6276 83.5922 17.5313 0.0000 0.0000 0.0000
# 2 83.5922 194.0843 10.2563 0.0000 0.0000 0.0000
# 3 17.5313 10.2563 80.6178 0.0000 0.0000 0.0000
# 4 0.0000 0.0000 0.0000 -7.5691 0.0000 0.0000
# 5 0.0000 0.0000 0.0000 0.0000 53.4119 0.0000
# 6 0.0000 0.0000 0.0000 0.0000 0.0000 10.5966
#
#
#
# Elastic Compliance Matrix: (Units=1/GPa)
#
#
# Indices 1 2 3 4 5 6 
#
# 1 0.008512 -0.003593 -0.001394 0.000000 0.000000 0.000000
# 2 -0.003593 0.006704 -0.000072 0.000000 0.000000 0.000000
# 3 -0.001394 -0.000072 0.012716 0.000000 0.000000 0.000000
# 4 0.000000 0.000000 0.000000 -0.132117 0.000000 0.000000
# 5 0.000000 0.000000 0.000000 0.000000 0.018722 0.000000
# 6 0.000000 0.000000 0.000000 0.000000 0.000000 0.094369
#
#
# Mechanical properties :
#
#
# Convention : Reuss Voigt Hill
#
# Bulk Modulus (GPa) = 56.12975 72.56545 64.34760
# Shear Modulus (GPa) = 200.30188 32.55123 116.42656
#
# Velocity S-wave (km/s) = 9.72614 3.92086 7.41522
# Velocity P-wave (km/s) = 12.35472 7.40057 10.18351
#
# Compressibility (1/GPa) = 0.01781586
#
# Stress axis : x y z
#
# Youngs Moduli (GPa) = 117.47677 149.17554 78.63821
#
# Poissons Ratio (x) = 0.53593 0.10963
# Poissons Ratio (y) = 0.42205 0.00563
# Poissons Ratio (z) = 0.16377 0.01068
#
# Static dielectric constant tensor:
#      x y z
#    x 1.698970 0.000000 0.000000 
#    y 0.000000 1.772970 0.000000 
#    z 0.000000 0.000000 1.782290 
# 
# From -- ./inp_files/5917.got.cif
#   From: 2010.05.17/outbox.cif.g08.bks.cpg/sg71_3_cif.got.tgz:5917.got - 2010.06.03 16:22:01.
