data_PCOD9519750
_publ_section_title
;
Structure prediction by ZEFSAII (Michael W. Deem and Ramdas Pophale) SiO2 
 PCOD9519750
Probable space group: I M M M
;
_chemical_formula_sum "Si O2"
_cell_formula_units_Z 112
_cell_length_a 16.347285
_cell_length_b 18.980558
_cell_length_c 19.870463
_cell_angle_alpha 90.000000
_cell_angle_beta 90.000000
_cell_angle_gamma 90.000000
_cell_volume 6165.419005
_symmetry_space_group_name_H-M "I M M M"
_symmetry_group_IT_number 71
_symmetry_cell_setting 'orthorhombic'
loop_
_space_group_symop_operation_xyz
x,y,z
-x,-y,z
x,-y,-z
-x,y,-z
-x,-y,-z
x,y,-z
-x,y,z
x,-y,z
1/2+x,1/2+y,1/2+z
1/2-x,1/2-y,1/2+z
1/2+x,1/2-y,1/2-z
1/2-x,1/2+y,1/2-z
1/2-x,1/2-y,1/2-z
1/2+x,1/2+y,1/2-z
1/2-x,1/2+y,1/2+z
1/2+x,1/2-y,1/2+z
loop_
_atom_site_type_symbol
_atom_site_label
_atom_site_fract_x
_atom_site_fract_y
_atom_site_fract_z
Si Si1 0.699266 0.422289 0.614333
Si Si2 0.880718 0.425256 0.576237
Si Si3 0.591607 0.228198 0.919503
Si Si4 0.098163 0.216283 0.922297
Si Si5 0.906311 0.683449 0.800075
Si Si6 0.175432 0.217637 0.704293
Si Si7 0.258147 0.080988 0.731590
O O1 0.660823 0.500000 0.603839
O O2 0.782834 0.419192 0.572705
O O3 0.642478 0.356135 0.598983
O O4 0.734941 0.419220 0.689764
O O5 0.911282 0.427890 0.500000
O O6 0.900257 0.500000 0.610161
O O7 0.911869 0.352866 0.605298
O O8 0.500000 0.258934 0.910712
O O9 0.661885 0.260115 0.872698
O O10 0.609533 0.229105 0.000000
O O11 0.119149 0.278780 0.870291
O O12 0.000000 0.206680 0.917698
O O13 0.118852 0.232113 0.000000
O O14 0.898687 0.746395 0.744951
O O15 0.844276 0.620494 0.781595
O O16 0.000000 0.659957 0.804487
O O17 0.250000 0.250000 0.750000
O O18 0.189843 0.134387 0.703024
O O19 0.257995 0.000000 0.708159
#
# Coordination Sequence:
#
# PCOD9519750 Si02
#       7
#    16  16  16  16  16  16  16
#     4  10  19  33  51  75 109 147 184 224 271 331
#     4   9  17  28  45  73 109 147 181 214 259 317
#     4  10  21  35  54  81 109 143 187 233 282 335
#     4  10  21  35  52  78 111 148 189 233 281 331
#     4  10  20  35  58  84 112 147 187 233 282 331
#     4  10  19  35  57  79 110 144 184 228 278 332
#     4  10  21  36  56  80 110 144 184 230 280 338
#
# _framework density 18.165837
#
# number of rings (size 3 to 8) (size 9 to 14) (size 15 to 20)
#    0.000    2.143    1.429    2.571    2.000    1.714 
#    0.000    2.143    0.000    9.429    0.000    3.000 
#    0.000    0.000    0.000    0.000    0.000    0.000 
#
# Total GULP energy -311840.545457 kJ/mol
# GULP energy per Si atom -5568.581169 kJ/mol
# Density = 1.812449 g / cm^3
# Si number density = 18.165837 Si / 1000 Ang^3
#
#
#
# Elastic Constant Matrix: (Units=GPa)
#
#
# Indices 1 2 3 4 5 6 
#
# 1 47.2894 33.4344 27.8945 0.0000 0.0000 0.0000
# 2 33.4344 125.4691 38.8842 0.0000 0.0000 0.0000
# 3 27.8945 38.8842 86.9041 0.0000 0.0000 0.0000
# 4 0.0000 0.0000 0.0000 21.3091 0.0000 0.0000
# 5 0.0000 0.0000 0.0000 0.0000 10.3647 0.0000
# 6 0.0000 0.0000 0.0000 0.0000 0.0000 19.1086
#
#
#
# Elastic Compliance Matrix: (Units=1/GPa)
#
#
# Indices 1 2 3 4 5 6 
#
# 1 0.029177 -0.005657 -0.006834 0.000000 0.000000 0.000000
# 2 -0.005657 0.010350 -0.002815 0.000000 0.000000 0.000000
# 3 -0.006834 -0.002815 0.014960 0.000000 0.000000 0.000000
# 4 0.000000 0.000000 0.000000 0.046928 0.000000 0.000000
# 5 0.000000 0.000000 0.000000 0.000000 0.096481 0.000000
# 6 0.000000 0.000000 0.000000 0.000000 0.000000 0.052333
#
#
# Mechanical properties :
#
#
# Convention : Reuss Voigt Hill
#
# Bulk Modulus (GPa) = 41.88536 51.12097 46.50317
# Shear Modulus (GPa) = 17.31299 20.78645 19.04972
#
# Velocity S-wave (km/s) = 3.09050 3.38636 3.24181
# Velocity P-wave (km/s) = 5.98684 6.59487 6.29819
#
# Compressibility (1/GPa) = 0.02387469
#
# Stress axis : x y z
#
# Youngs Moduli (GPa) = 34.27333 96.61830 66.84417
#
# Poissons Ratio (x) = 0.54657 0.45682
# Poissons Ratio (y) = 0.19389 0.18818
# Poissons Ratio (z) = 0.23423 0.27200
#
# Static dielectric constant tensor:
#      x y z
#    x 1.673850 0.000000 0.000000 
#    y 0.000000 1.655230 0.000000 
#    z 0.000000 0.000000 1.668700 
# 
# From -- ./inp_files/54273.got.cif
#   From: 2010.05.17/outbox.cif.g08.bks.cpg/sg71_28_cif.got.tgz:54273.got - 2010.06.03 16:22:01.
