data_PCOD9519445
_publ_section_title
;
Structure prediction by ZEFSAII (Michael W. Deem and Ramdas Pophale) SiO2 
 PCOD9519445
Probable space group: I M M M
;
_chemical_formula_sum "Si O2"
_cell_formula_units_Z 96
_cell_length_a 16.094775
_cell_length_b 23.361314
_cell_length_c 14.957074
_cell_angle_alpha 90.000000
_cell_angle_beta 90.000000
_cell_angle_gamma 90.000000
_cell_volume 5623.786423
_symmetry_space_group_name_H-M "I M M M"
_symmetry_group_IT_number 71
_symmetry_cell_setting 'orthorhombic'
loop_
_space_group_symop_operation_xyz
x,y,z
-x,-y,z
x,-y,-z
-x,y,-z
-x,-y,-z
x,y,-z
-x,y,z
x,-y,z
1/2+x,1/2+y,1/2+z
1/2-x,1/2-y,1/2+z
1/2+x,1/2-y,1/2-z
1/2-x,1/2+y,1/2-z
1/2-x,1/2-y,1/2-z
1/2+x,1/2+y,1/2-z
1/2-x,1/2+y,1/2+z
1/2+x,1/2-y,1/2+z
loop_
_atom_site_type_symbol
_atom_site_label
_atom_site_fract_x
_atom_site_fract_y
_atom_site_fract_z
Si Si1 0.000000 0.566814 0.892537
Si Si2 0.091170 0.931010 0.500000
Si Si3 0.280338 0.262075 0.604603
Si Si4 0.172337 0.371436 0.107368
Si Si5 0.322782 0.567631 0.812878
Si Si6 0.594006 0.336449 0.720679
Si Si7 0.592933 0.739058 0.896561
O O1 0.919278 0.605025 0.871129
O O2 0.000000 0.500000 0.859071
O O3 0.000000 0.561525 0.000000
O O4 0.136066 0.917585 0.408538
O O5 0.000000 0.905187 0.500000
O O6 0.084945 0.000000 0.500000
O O7 0.295095 0.273244 0.500000
O O8 0.306589 0.195616 0.620810
O O9 0.339516 0.301501 0.663398
O O10 0.181169 0.270715 0.620670
O O11 0.232151 0.406619 0.172494
O O12 0.186480 0.382852 0.000000
O O13 0.321876 0.500000 0.801463
O O14 0.373879 0.599562 0.736536
O O15 0.500000 0.333507 0.684934
O O16 0.592457 0.308272 0.819533
O O17 0.500000 0.767121 0.890821
O O18 0.600436 0.718288 0.000000
#
# Coordination Sequence:
#
# PCOD9519445 Si02
#       7
#     8   8  16  16  16  16  16
#     4   9  18  30  46  70 102 140 180 216 259 320
#     4   9  18  30  46  71 101 133 171 210 254 323
#     4  10  21  37  56  78 107 142 189 235 275 322
#     4  10  19  32  51  75 104 140 179 222 270 325
#     4  11  21  33  51  74 106 144 179 218 270 330
#     4  11  23  35  53  78 110 148 185 229 275 324
#     4   9  18  33  53  78 108 139 168 209 269 332
#
# _framework density 17.070350000000001
#
# number of rings (size 3 to 8) (size 9 to 14) (size 15 to 20)
#    0.000    2.000    2.500    1.500    2.333    2.000 
#    0.000    0.000    0.000    0.500    0.000    1.167 
#    0.000    0.000    0.000    4.167    0.000    0.333 
#
# Total GULP energy -267354.732604 kJ/mol
# GULP energy per Si atom -5569.890263 kJ/mol
# Density = 1.703150 g / cm^3
# Si number density = 17.070350 Si / 1000 Ang^3
#
#
#
# Elastic Constant Matrix: (Units=GPa)
#
#
# Indices 1 2 3 4 5 6 
#
# 1 156.8240 61.1977 38.8321 0.0000 0.0000 0.0000
# 2 61.1977 78.3819 35.7146 0.0000 0.0000 0.0000
# 3 38.8321 35.7146 37.3266 0.0000 0.0000 0.0000
# 4 0.0000 0.0000 0.0000 12.9612 0.0000 0.0000
# 5 0.0000 0.0000 0.0000 0.0000 17.7969 0.0000
# 6 0.0000 0.0000 0.0000 0.0000 0.0000 12.0013
#
#
#
# Elastic Compliance Matrix: (Units=1/GPa)
#
#
# Indices 1 2 3 4 5 6 
#
# 1 0.009676 -0.005262 -0.005031 0.000000 0.000000 0.000000
# 2 -0.005262 0.025481 -0.018906 0.000000 0.000000 0.000000
# 3 -0.005031 -0.018906 0.050115 0.000000 0.000000 0.000000
# 4 0.000000 0.000000 0.000000 0.077153 0.000000 0.000000
# 5 0.000000 0.000000 0.000000 0.000000 0.056189 0.000000
# 6 0.000000 0.000000 0.000000 0.000000 0.000000 0.083325
#
#
# Mechanical properties :
#
#
# Convention : Reuss Voigt Hill
#
# Bulk Modulus (GPa) = 37.21325 60.44680 48.83002
# Shear Modulus (GPa) = 13.53928 17.67109 15.60518
#
# Velocity S-wave (km/s) = 2.81934 3.22093 3.02680
# Velocity P-wave (km/s) = 5.69609 7.02281 6.39395
#
# Compressibility (1/GPa) = 0.02687215
#
# Stress axis : x y z
#
# Youngs Moduli (GPa) = 103.35056 39.24482 19.95423
#
# Poissons Ratio (x) = 0.20651 0.10040
# Poissons Ratio (y) = 0.54383 0.37726
# Poissons Ratio (z) = 0.51999 0.74198
#
# Static dielectric constant tensor:
#      x y z
#    x 1.652850 0.000000 0.000000 
#    y 0.000000 1.572310 0.000000 
#    z 0.000000 0.000000 1.589780 
# 
# From -- ./inp_files/34771.got.cif
#   From: 2010.05.17/outbox.cif.g08.bks.cpg/sg71_18_cif.got.tgz:34771.got - 2010.06.03 16:22:01.
