data_PCOD9519453
_publ_section_title
;
Structure prediction by ZEFSAII (Michael W. Deem and Ramdas Pophale) SiO2 
 PCOD9519453
Probable space group: I M M M
;
_chemical_formula_sum "Si O2"
_cell_formula_units_Z 80
_cell_length_a 19.068599
_cell_length_b 27.643282
_cell_length_c 8.697164
_cell_angle_alpha 90.000000
_cell_angle_beta 90.000000
_cell_angle_gamma 90.000000
_cell_volume 4584.437429
_symmetry_space_group_name_H-M "I M M M"
_symmetry_group_IT_number 71
_symmetry_cell_setting 'orthorhombic'
loop_
_space_group_symop_operation_xyz
x,y,z
-x,-y,z
x,-y,-z
-x,y,-z
-x,-y,-z
x,y,-z
-x,y,z
x,-y,z
1/2+x,1/2+y,1/2+z
1/2-x,1/2-y,1/2+z
1/2+x,1/2-y,1/2-z
1/2-x,1/2+y,1/2-z
1/2-x,1/2-y,1/2-z
1/2+x,1/2+y,1/2-z
1/2-x,1/2+y,1/2+z
1/2+x,1/2-y,1/2+z
loop_
_atom_site_type_symbol
_atom_site_label
_atom_site_fract_x
_atom_site_fract_y
_atom_site_fract_z
Si Si1 0.856739 0.446431 0.186221
Si Si2 0.920640 0.057010 0.815348
Si Si3 0.285011 0.394006 0.816794
Si Si4 0.579420 0.155127 0.686172
Si Si5 0.782968 0.701328 0.317235
O O1 0.875306 0.500000 0.244128
O O2 0.776269 0.432618 0.223421
O O3 0.902506 0.400187 0.235411
O O4 0.862149 0.447949 0.000000
O O5 0.860035 0.086783 0.734268
O O6 0.000000 0.071327 0.771767
O O7 0.912614 0.000000 0.779741
O O8 0.914498 0.062109 0.000000
O O9 0.263843 0.344210 0.735939
O O10 0.282064 0.386966 0.000000
O O11 0.584577 0.156474 0.500000
O O12 0.500000 0.167532 0.729906
O O13 0.639305 0.189558 0.753441
O O14 0.785148 0.704053 0.500000
O O15 0.750000 0.750000 0.250000
#
# Coordination Sequence:
#
# PCOD9519453 Si02
#       5
#    16  16  16  16  16
#     4   8  14  25  44  73 106 138 171 205 241 283
#     4   9  18  32  49  72 106 145 179 213 260 315
#     4  10  19  32  51  76 104 134 174 220 262 308
#     4   9  18  33  53  79 111 142 172 209 252 298
#     4  11  22  38  59  79 101 131 170 216 266 318
#
# _framework density 17.450341999999999
#
# number of rings (size 3 to 8) (size 9 to 14) (size 15 to 20)
#    0.000    2.600    0.000    4.800    0.000    2.400 
#    0.000    4.000    0.000   11.400    0.000    5.600 
#    0.000    0.000    0.000    0.000    0.000    0.000 
#
# Total GULP energy -223070.380705 kJ/mol
# GULP energy per Si atom -5576.759518 kJ/mol
# Density = 1.741062 g / cm^3
# Si number density = 17.450342 Si / 1000 Ang^3
#
#
#
# Elastic Constant Matrix: (Units=GPa)
#
#
# Indices 1 2 3 4 5 6 
#
# 1 147.1411 65.6077 51.6479 0.0000 0.0000 0.0000
# 2 65.6077 103.7150 39.2120 0.0000 0.0000 0.0000
# 3 51.6479 39.2120 55.0676 0.0000 0.0000 0.0000
# 4 0.0000 0.0000 0.0000 20.8599 0.0000 0.0000
# 5 0.0000 0.0000 0.0000 0.0000 28.2181 0.0000
# 6 0.0000 0.0000 0.0000 0.0000 0.0000 11.0273
#
#
#
# Elastic Compliance Matrix: (Units=1/GPa)
#
#
# Indices 1 2 3 4 5 6 
#
# 1 0.011398 -0.004336 -0.007603 0.000000 0.000000 0.000000
# 2 -0.004336 0.014843 -0.006503 0.000000 0.000000 0.000000
# 3 -0.007603 -0.006503 0.029921 0.000000 0.000000 0.000000
# 4 0.000000 0.000000 0.000000 0.047939 0.000000 0.000000
# 5 0.000000 0.000000 0.000000 0.000000 0.035438 0.000000
# 6 0.000000 0.000000 0.000000 0.000000 0.000000 0.090684
#
#
# Mechanical properties :
#
#
# Convention : Reuss Voigt Hill
#
# Bulk Modulus (GPa) = 51.87002 68.76211 60.31607
# Shear Modulus (GPa) = 18.27937 21.98480 20.13208
#
# Velocity S-wave (km/s) = 3.24003 3.55329 3.40027
# Velocity P-wave (km/s) = 6.61710 7.50496 7.07497
#
# Compressibility (1/GPa) = 0.01927896
#
# Stress axis : x y z
#
# Youngs Moduli (GPa) = 87.73365 67.37178 33.42150
#
# Poissons Ratio (x) = 0.29210 0.25410
# Poissons Ratio (y) = 0.38039 0.21733
# Poissons Ratio (z) = 0.66704 0.43811
#
# Static dielectric constant tensor:
#      x y z
#    x 1.588150 0.000000 0.000000 
#    y 0.000000 1.580380 0.000000 
#    z 0.000000 0.000000 1.590900 
# 
# From -- ./inp_files/8260.got.cif
#   From: 2010.05.17/outbox.cif.g08.bks.cpg/sg71_5_cif.got.tgz:8260.got - 2010.06.03 16:22:01.
