data_PCOD9519635
_publ_section_title
;
Structure prediction by ZEFSAII (Michael W. Deem and Ramdas Pophale) SiO2 
 PCOD9519635
Probable space group: I M M M
;
_chemical_formula_sum "Si O2"
_cell_formula_units_Z 104
_cell_length_a 8.588257
_cell_length_b 30.978237
_cell_length_c 21.133435
_cell_angle_alpha 90.000000
_cell_angle_beta 90.000000
_cell_angle_gamma 90.000000
_cell_volume 5622.530532
_symmetry_space_group_name_H-M "I M M M"
_symmetry_group_IT_number 71
_symmetry_cell_setting 'orthorhombic'
loop_
_space_group_symop_operation_xyz
x,y,z
-x,-y,z
x,-y,-z
-x,y,-z
-x,-y,-z
x,y,-z
-x,y,z
x,-y,z
1/2+x,1/2+y,1/2+z
1/2-x,1/2-y,1/2+z
1/2+x,1/2-y,1/2-z
1/2-x,1/2+y,1/2-z
1/2-x,1/2-y,1/2-z
1/2+x,1/2+y,1/2-z
1/2-x,1/2+y,1/2+z
1/2+x,1/2-y,1/2+z
loop_
_atom_site_type_symbol
_atom_site_label
_atom_site_fract_x
_atom_site_fract_y
_atom_site_fract_z
Si Si1 0.812063 0.131490 0.855055
Si Si2 0.187474 0.450188 0.136370
Si Si3 0.677169 0.552152 0.000000
Si Si4 0.186041 0.633206 0.785474
Si Si5 0.187687 0.781379 0.927459
Si Si6 0.315054 0.725435 0.187356
Si Si7 0.810369 0.952677 0.072971
O O1 0.734513 0.136946 0.787458
O O2 0.776914 0.170332 0.902982
O O3 0.757797 0.086587 0.884771
O O4 0.000000 0.130829 0.846825
O O5 0.242569 0.500000 0.148600
O O6 0.238631 0.436695 0.065555
O O7 0.240414 0.412436 0.184216
O O8 0.000000 0.451645 0.138542
O O9 0.673023 0.500000 0.000000
O O10 0.500000 0.568313 0.000000
O O11 0.256202 0.676247 0.816245
O O12 0.000000 0.634709 0.791524
O O13 0.261104 0.750032 0.875631
O O14 0.000000 0.776436 0.925588
O O15 0.238412 0.774885 0.000000
O O16 0.500000 0.725891 0.192834
O O17 0.250000 0.750000 0.250000
O O18 0.000000 0.952056 0.073177
O O19 0.760340 0.000000 0.095186
O O20 0.763109 0.947304 0.000000
#
# Coordination Sequence:
#
# PCOD9519635 Si02
#       7
#    16  16   8  16  16  16  16
#     4  10  19  32  54  82 112 149 191 235 282 334
#     4   9  19  37  59  82 112 152 194 231 276 342
#     4   9  17  31  55  85 113 143 183 235 291 337
#     4  11  23  38  58  84 114 151 191 232 281 340
#     4  10  21  38  61  88 117 151 193 240 288 345
#     4  12  24  41  64  87 116 153 194 241 293 348
#     4   8  14  26  46  75 111 148 187 230 275 326
#
# _framework density 18.497008000000001
#
# number of rings (size 3 to 8) (size 9 to 14) (size 15 to 20)
#    0.000    2.077    1.538    3.000    0.000    4.923 
#    1.385    0.000    0.000    1.385    0.000    1.077 
#    0.000    0.000    0.000    0.000    0.000    0.000 
#
# Total GULP energy -290087.763526 kJ/mol
# GULP energy per Si atom -5578.610837 kJ/mol
# Density = 1.845491 g / cm^3
# Si number density = 18.497008 Si / 1000 Ang^3
#
#
#
# Elastic Constant Matrix: (Units=GPa)
#
#
# Indices 1 2 3 4 5 6 
#
# 1 34.0266 42.4633 37.3522 0.0000 0.0000 0.0000
# 2 42.4633 136.8187 68.4698 0.0000 0.0000 0.0000
# 3 37.3522 68.4698 119.6336 0.0001 0.0000 0.0000
# 4 0.0000 0.0000 0.0001 38.3322 0.0000 0.0000
# 5 0.0000 0.0000 0.0000 0.0000 16.1974 0.0000
# 6 0.0000 0.0000 0.0000 0.0000 0.0000 18.3279
#
#
#
# Elastic Compliance Matrix: (Units=1/GPa)
#
#
# Indices 1 2 3 4 5 6 
#
# 1 0.056147 -0.012126 -0.010590 0.000000 0.000000 0.000000
# 2 -0.012126 0.012861 -0.003575 0.000000 0.000000 0.000000
# 3 -0.010590 -0.003575 0.013711 0.000000 0.000000 0.000000
# 4 0.000000 0.000000 0.000000 0.026088 0.000000 0.000000
# 5 0.000000 0.000000 0.000000 0.000000 0.061738 0.000000
# 6 0.000000 0.000000 0.000000 0.000000 0.000000 0.054562
#
#
# Mechanical properties :
#
#
# Convention : Reuss Voigt Hill
#
# Bulk Modulus (GPa) = 33.18158 65.22772 49.20465
# Shear Modulus (GPa) = 17.37710 24.05108 20.71409
#
# Velocity S-wave (km/s) = 3.06838 3.60984 3.35006
# Velocity P-wave (km/s) = 5.52549 7.26051 6.45159
#
# Compressibility (1/GPa) = 0.03013720
#
# Stress axis : x y z
#
# Youngs Moduli (GPa) = 17.81052 77.75168 72.93201
#
# Poissons Ratio (x) = 0.94282 0.77236
# Poissons Ratio (y) = 0.21597 0.26073
# Poissons Ratio (z) = 0.18862 0.27796
#
# Static dielectric constant tensor:
#      x y z
#    x 1.638460 0.000000 0.000000 
#    y 0.000000 1.650910 0.000000 
#    z 0.000000 0.000000 1.615260 
# 
# From -- ./inp_files/51166.got.cif
#   From: 2010.05.17/outbox.cif.g08.bks.cpg/sg71_26_cif.got.tgz:51166.got - 2010.06.03 16:22:01.
