data_PCOD9519850
_publ_section_title
;
Structure prediction by ZEFSAII (Michael W. Deem and Ramdas Pophale) SiO2 
 PCOD9519850
Probable space group: I M M M
;
_chemical_formula_sum "Si O2"
_cell_formula_units_Z 116
_cell_length_a 25.137513
_cell_length_b 14.646490
_cell_length_c 18.066134
_cell_angle_alpha 90.000000
_cell_angle_beta 90.000000
_cell_angle_gamma 90.000000
_cell_volume 6651.522964
_symmetry_space_group_name_H-M "I M M M"
_symmetry_group_IT_number 71
_symmetry_cell_setting 'orthorhombic'
loop_
_space_group_symop_operation_xyz
x,y,z
-x,-y,z
x,-y,-z
-x,y,-z
-x,-y,-z
x,y,-z
-x,y,z
x,-y,z
1/2+x,1/2+y,1/2+z
1/2-x,1/2-y,1/2+z
1/2+x,1/2-y,1/2-z
1/2-x,1/2+y,1/2-z
1/2-x,1/2-y,1/2-z
1/2+x,1/2+y,1/2-z
1/2-x,1/2+y,1/2+z
1/2+x,1/2-y,1/2+z
loop_
_atom_site_type_symbol
_atom_site_label
_atom_site_fract_x
_atom_site_fract_y
_atom_site_fract_z
Si Si1 0.263573 0.661473 0.119578
Si Si2 0.280281 0.647456 0.415884
Si Si3 0.561365 0.608775 0.740612
Si Si4 0.712737 0.896488 0.228335
Si Si5 0.757239 0.000000 0.500000
Si Si6 0.937141 0.602105 0.411502
Si Si7 0.594910 0.607567 0.419359
Si Si8 0.366711 0.750954 0.171508
O O1 0.225127 0.744024 0.095594
O O2 0.250466 0.630997 0.203438
O O3 0.322882 0.702871 0.119833
O O4 0.257910 0.579061 0.064325
O O5 0.262584 0.623827 0.500000
O O6 0.244781 0.607346 0.349511
O O7 0.341571 0.618298 0.409258
O O8 0.500000 0.618277 0.764385
O O9 0.575175 0.500000 0.745300
O O10 0.566737 0.639761 0.655001
O O11 0.600478 0.672586 0.787055
O O12 0.667262 0.819388 0.223705
O O13 0.693251 0.000000 0.239287
O O14 0.930904 0.607518 0.500000
O O15 0.919070 0.500000 0.388435
O O16 0.905281 0.682445 0.373321
O O17 0.000000 0.609096 0.395379
O O18 0.580672 0.647866 0.500000
O O19 0.582843 0.500000 0.423066
#
# Coordination Sequence:
#
# PCOD9519850 Si02
#       8
#    16  16  16  16   4  16  16  16
#     4  11  23  38  54  76 107 144 186 224 260 306
#     4  10  19  33  53  80 111 143 176 210 258 316
#     4  10  21  36  53  76 104 137 177 218 266 316
#     4  11  22  36  54  79 113 144 176 221 267 315
#     4  12  24  40  56  72 101 150 189 222 260 304
#     4   9  19  37  59  82 108 136 169 216 271 321
#     4   9  17  30  51  77 105 137 171 209 255 310
#     4  11  22  35  57  80 107 138 177 219 265 317
#
# _framework density 17.439615
#
# number of rings (size 3 to 8) (size 9 to 14) (size 15 to 20)
#    0.000    1.793    1.379    4.966    1.931    2.759 
#    0.000    1.379    0.000    0.000    0.000    2.897 
#    0.000    0.000    0.000   10.828    0.000    0.552 
#
# Total GULP energy -323020.970618 kJ/mol
# GULP energy per Si atom -5569.327080 kJ/mol
# Density = 1.739992 g / cm^3
# Si number density = 17.439615 Si / 1000 Ang^3
#
#
#
# Elastic Constant Matrix: (Units=GPa)
#
#
# Indices 1 2 3 4 5 6 
#
# 1 38.1799 17.9127 21.0856 0.0000 0.0000 0.0000
# 2 17.9127 93.1273 22.3744 0.0000 0.0000 0.0000
# 3 21.0856 22.3744 81.0559 0.0000 0.0000 0.0000
# 4 0.0000 0.0000 0.0000 26.3081 0.0000 0.0000
# 5 0.0000 0.0000 0.0000 0.0000 30.2956 0.0000
# 6 0.0000 0.0000 0.0000 0.0000 0.0000 13.7932
#
#
#
# Elastic Compliance Matrix: (Units=1/GPa)
#
#
# Indices 1 2 3 4 5 6 
#
# 1 0.032244 -0.004484 -0.007150 0.000000 0.000000 0.000000
# 2 -0.004484 0.012124 -0.002180 0.000000 0.000000 0.000000
# 3 -0.007150 -0.002180 0.014799 0.000000 0.000000 0.000000
# 4 0.000000 0.000000 0.000000 0.038011 0.000000 0.000000
# 5 0.000000 0.000000 0.000000 0.000000 0.033008 0.000000
# 6 0.000000 0.000000 0.000000 0.000000 0.000000 0.072499
#
#
# Mechanical properties :
#
#
# Convention : Reuss Voigt Hill
#
# Bulk Modulus (GPa) = 31.70723 37.23427 34.47075
# Shear Modulus (GPa) = 20.76166 24.14542 22.45354
#
# Velocity S-wave (km/s) = 3.45409 3.72494 3.59207
# Velocity P-wave (km/s) = 5.84194 6.31641 6.08380
#
# Compressibility (1/GPa) = 0.03153855
#
# Stress axis : x y z
#
# Youngs Moduli (GPa) = 31.01306 82.47872 67.57214
#
# Poissons Ratio (x) = 0.36986 0.48315
# Poissons Ratio (y) = 0.13907 0.14732
# Poissons Ratio (z) = 0.22175 0.17982
#
# Static dielectric constant tensor:
#      x y z
#    x 1.594600 0.000000 0.000000 
#    y 0.000000 1.586920 0.000000 
#    z 0.000000 0.000000 1.612660 
# 
# From -- ./inp_files/49058.got.cif
#   From: 2010.05.17/outbox.cif.g08.bks.cpg/sg71_25_cif.got.tgz:49058.got - 2010.06.03 16:22:01.
