data_PCOD9519466
_publ_section_title
;
Structure prediction by ZEFSAII (Michael W. Deem and Ramdas Pophale) SiO2 
 PCOD9519466
Probable space group: I M M M
;
_chemical_formula_sum "Si O2"
_cell_formula_units_Z 120
_cell_length_a 13.846597
_cell_length_b 31.150559
_cell_length_c 15.059207
_cell_angle_alpha 90.000000
_cell_angle_beta 90.000000
_cell_angle_gamma 90.000000
_cell_volume 6495.476262
_symmetry_space_group_name_H-M "I M M M"
_symmetry_group_IT_number 71
_symmetry_cell_setting 'orthorhombic'
loop_
_space_group_symop_operation_xyz
x,y,z
-x,-y,z
x,-y,-z
-x,y,-z
-x,-y,-z
x,y,-z
-x,y,z
x,-y,z
1/2+x,1/2+y,1/2+z
1/2-x,1/2-y,1/2+z
1/2+x,1/2-y,1/2-z
1/2-x,1/2+y,1/2-z
1/2-x,1/2-y,1/2-z
1/2+x,1/2+y,1/2-z
1/2-x,1/2+y,1/2+z
1/2+x,1/2-y,1/2+z
loop_
_atom_site_type_symbol
_atom_site_label
_atom_site_fract_x
_atom_site_fract_y
_atom_site_fract_z
Si Si1 0.116985 0.788374 0.102667
Si Si2 0.107180 0.757307 0.605131
Si Si3 0.611238 0.166573 0.847354
Si Si4 0.111474 0.500000 0.607903
Si Si5 0.109524 0.689021 0.141027
Si Si6 0.766229 0.583296 0.395451
Si Si7 0.884085 0.872757 0.781797
Si Si8 0.303844 0.652152 0.899753
O O1 0.139025 0.739457 0.133374
O O2 0.142811 0.827195 0.169550
O O3 0.000000 0.789839 0.099969
O O4 0.150206 0.794743 0.000000
O O5 0.097089 0.760143 0.500000
O O6 0.155697 0.711864 0.622051
O O7 0.157912 0.800850 0.629991
O O8 0.000000 0.756312 0.647903
O O9 0.500000 0.164357 0.880649
O O10 0.608814 0.172440 0.741898
O O11 0.668192 0.125371 0.878952
O O12 0.107577 0.500000 0.500000
O O13 0.171099 0.542290 0.634046
O O14 0.000000 0.500000 0.639099
O O15 0.189357 0.659233 0.096348
O O16 0.000000 0.685998 0.106434
O O17 0.745860 0.579354 0.500000
O O18 0.668503 0.591450 0.341241
O O19 0.841008 0.875874 0.682185
O O20 0.000000 0.875731 0.779466
O O21 0.339081 0.641992 0.000000
#
# Coordination Sequence:
#
# PCOD9519466 Si02
#       8
#    16  16  16   8  16  16  16  16
#     4   9  18  32  49  71 106 154 197 234 281 332
#     4   9  18  30  44  68 102 142 189 235 276 318
#     4  10  19  32  51  77 109 144 186 237 283 324
#     4   9  20  40  65  93 124 153 179 213 267 339
#     4  10  20  33  48  71 106 146 194 245 289 331
#     4  11  22  37  60  88 117 149 182 217 270 339
#     4  11  23  38  55  80 113 149 194 243 282 327
#     4  11  22  35  53  75 106 152 199 241 290 333
#
# _framework density 18.474397
#
# number of rings (size 3 to 8) (size 9 to 14) (size 15 to 20)
#    0.000    1.933    1.333    2.800    1.867    6.933 
#    0.000    0.333    0.000    1.200    0.000    0.467 
#    0.000    1.600    0.000    0.000    0.000    0.000 
#
# Total GULP energy -334774.024594 kJ/mol
# GULP energy per Si atom -5579.567077 kJ/mol
# Density = 1.843235 g / cm^3
# Si number density = 18.474397 Si / 1000 Ang^3
#
#
#
# Elastic Constant Matrix: (Units=GPa)
#
#
# Indices 1 2 3 4 5 6 
#
# 1 96.2901 29.8101 37.3130 0.0001 0.0000 0.0000
# 2 29.8101 52.7465 34.4122 -0.0002 0.0000 0.0000
# 3 37.3130 34.4122 95.0728 0.0004 -0.0005 -0.0002
# 4 0.0001 -0.0002 0.0004 11.8575 -0.0002 -0.0002
# 5 0.0000 0.0000 -0.0005 -0.0002 18.2379 0.0001
# 6 0.0000 0.0000 -0.0002 -0.0002 0.0001 21.3740
#
#
#
# Elastic Compliance Matrix: (Units=1/GPa)
#
#
# Indices 1 2 3 4 5 6 
#
# 1 0.013325 -0.005392 -0.003278 0.000000 0.000000 0.000000
# 2 -0.005392 0.027002 -0.007657 0.000001 0.000000 0.000000
# 3 -0.003278 -0.007657 0.014576 -0.000001 0.000000 0.000000
# 4 0.000000 0.000001 -0.000001 0.084335 0.000001 0.000001
# 5 0.000000 0.000000 0.000000 0.000001 0.054831 0.000000
# 6 0.000000 0.000000 0.000000 0.000001 0.000000 0.046786
#
#
# Mechanical properties :
#
#
# Convention : Reuss Voigt Hill
#
# Bulk Modulus (GPa) = 44.94707 49.68667 47.31687
# Shear Modulus (GPa) = 17.79837 19.79882 18.79860
#
# Velocity S-wave (km/s) = 3.10725 3.27722 3.19336
# Velocity P-wave (km/s) = 6.10373 6.42444 6.26614
#
# Compressibility (1/GPa) = 0.02224839
#
# Stress axis : x y z
#
# Youngs Moduli (GPa) = 75.04811 37.03489 68.60481
#
# Poissons Ratio (x) = 0.19970 0.22487
# Poissons Ratio (y) = 0.40467 0.52532
# Poissons Ratio (z) = 0.24599 0.28358
#
# Static dielectric constant tensor:
#      x y z
#    x 1.737550 0.000000 0.000000 
#    y 0.000000 1.607380 0.000000 
#    z 0.000000 0.000000 1.664750 
# 
# From -- ./inp_files/35437.got.cif
#   From: 2010.05.17/outbox.cif.g08.bks.cpg/sg71_18_cif.got.tgz:35437.got - 2010.06.03 16:22:01.
