data_PCOD9519371
_publ_section_title
;
Structure prediction by ZEFSAII (Michael W. Deem and Ramdas Pophale) SiO2 
 PCOD9519371
Probable space group: I M M M
;
_chemical_formula_sum "Si O2"
_cell_formula_units_Z 96
_cell_length_a 7.703011
_cell_length_b 21.493825
_cell_length_c 24.235791
_cell_angle_alpha 90.000000
_cell_angle_beta 90.000000
_cell_angle_gamma 90.000000
_cell_volume 4012.651338
_symmetry_space_group_name_H-M "I M M M"
_symmetry_group_IT_number 71
_symmetry_cell_setting 'orthorhombic'
loop_
_space_group_symop_operation_xyz
x,y,z
-x,-y,z
x,-y,-z
-x,y,-z
-x,-y,-z
x,y,-z
-x,y,z
x,-y,z
1/2+x,1/2+y,1/2+z
1/2-x,1/2-y,1/2+z
1/2+x,1/2-y,1/2-z
1/2-x,1/2+y,1/2-z
1/2-x,1/2-y,1/2-z
1/2+x,1/2+y,1/2-z
1/2-x,1/2+y,1/2+z
1/2+x,1/2-y,1/2+z
loop_
_atom_site_type_symbol
_atom_site_label
_atom_site_fract_x
_atom_site_fract_y
_atom_site_fract_z
Si Si1 0.786520 0.871143 0.677317
Si Si2 0.300232 0.703117 0.559840
Si Si3 0.700217 0.932631 0.087118
Si Si4 0.697275 0.232643 0.177314
Si Si5 0.197883 0.902392 0.207044
Si Si6 0.211054 0.926696 0.560843
O O1 0.729080 0.800490 0.688901
O O2 0.735221 0.911751 0.730771
O O3 0.728838 0.893573 0.617001
O O4 0.000000 0.870559 0.677307
O O5 0.233219 0.721559 0.500000
O O6 0.500000 0.722945 0.565297
O O7 0.294815 0.628127 0.565040
O O8 0.194995 0.728528 0.610978
O O9 0.500000 0.928228 0.069635
O O10 0.705009 0.928547 0.153949
O O11 0.770081 0.000000 0.070567
O O12 0.500000 0.227700 0.197684
O O13 0.799988 0.172385 0.197138
O O14 0.000000 0.924510 0.203803
O O15 0.269585 0.903712 0.500000
O O16 0.000000 0.922640 0.561021
O O17 0.254524 0.000000 0.564316
#
# Coordination Sequence:
#
# PCOD9519371 Si02
#       6
#    16  16  16  16  16  16
#     4   9  18  29  45  73 100 127 167 205 241 292
#     4  10  21  36  53  74 101 132 168 209 251 298
#     4  10  21  36  53  74 101 132 168 209 251 298
#     4  10  19  32  50  72 101 133 165 204 249 295
#     4  10  19  32  50  72 101 133 165 204 249 295
#     4   8  14  26  43  63  92 127 158 194 241 287
#
# _framework density 23.924330999999999
#
# number of rings (size 3 to 8) (size 9 to 14) (size 15 to 20)
#    0.000    2.500    0.000    5.000    0.000    4.333 
#    0.000    7.500    0.000    0.000    0.000    0.000 
#    0.000    0.000    0.000   29.333    0.000   26.000 
#
# Total GULP energy -268112.847246 kJ/mol
# GULP energy per Si atom -5585.684318 kJ/mol
# Density = 2.386988 g / cm^3
# Si number density = 23.924331 Si / 1000 Ang^3
#
#
#
# Elastic Constant Matrix: (Units=GPa)
#
#
# Indices 1 2 3 4 5 6 
#
# 1 57.4473 0.3596 9.2927 0.0000 0.0000 0.0000
# 2 0.3596 42.9454 3.4656 0.0000 0.0000 0.0000
# 3 9.2927 3.4656 151.0561 0.0000 0.0000 0.0000
# 4 0.0000 0.0000 0.0000 -15.4126 0.0000 0.0000
# 5 0.0000 0.0000 0.0000 0.0000 11.7525 0.0000
# 6 0.0000 0.0000 0.0000 0.0000 0.0000 -68.1993
#
#
#
# Elastic Compliance Matrix: (Units=1/GPa)
#
#
# Indices 1 2 3 4 5 6 
#
# 1 0.017582 -0.000060 -0.001080 0.000000 0.000000 0.000000
# 2 -0.000060 0.023329 -0.000532 0.000000 0.000000 0.000000
# 3 -0.001080 -0.000532 0.006699 0.000000 0.000000 0.000000
# 4 0.000000 0.000000 0.000000 -0.064882 0.000000 0.000000
# 5 0.000000 0.000000 0.000000 0.000000 0.085088 0.000000
# 6 0.000000 0.000000 0.000000 0.000000 0.000000 -0.014663
#
#
# Mechanical properties :
#
#
# Convention : Reuss Voigt Hill
#
# Bulk Modulus (GPa) = 22.59060 30.85385 26.72223
# Shear Modulus (GPa) = 70.17324 1.51685 35.84505
#
# Velocity S-wave (km/s) = 5.42172 0.79712 3.87495
# Velocity P-wave (km/s) = 6.97541 3.71101 5.58695
#
# Compressibility (1/GPa) = 0.04426619
#
# Stress axis : x y z
#
# Youngs Moduli (GPa) = 56.87514 42.86550 149.28248
#
# Poissons Ratio (x) = 0.00257 0.16126
# Poissons Ratio (y) = 0.00342 0.07935
# Poissons Ratio (z) = 0.06144 0.02278
#
# Static dielectric constant tensor:
#      x y z
#    x 1.822760 0.000000 0.000000 
#    y 0.000000 1.894070 0.000000 
#    z 0.000000 0.000000 1.952850 
# 
# From -- ./inp_files/57731.got.cif
#   From: 2010.05.17/outbox.cif.g08.bks.cpg/sg71_29_cif.got.tgz:57731.got - 2010.06.03 16:22:01.
