data_PCOD9519189
_publ_section_title
;
Structure prediction by ZEFSAII (Michael W. Deem and Ramdas Pophale) SiO2 
 PCOD9519189
Probable space group: I M M M
;
_chemical_formula_sum "Si O2"
_cell_formula_units_Z 120
_cell_length_a 8.556919
_cell_length_b 29.342482
_cell_length_c 28.114137
_cell_angle_alpha 90.000000
_cell_angle_beta 90.000000
_cell_angle_gamma 90.000000
_cell_volume 7058.932428
_symmetry_space_group_name_H-M "I M M M"
_symmetry_group_IT_number 71
_symmetry_cell_setting 'orthorhombic'
loop_
_space_group_symop_operation_xyz
x,y,z
-x,-y,z
x,-y,-z
-x,y,-z
-x,-y,-z
x,y,-z
-x,y,z
x,-y,z
1/2+x,1/2+y,1/2+z
1/2-x,1/2-y,1/2+z
1/2+x,1/2-y,1/2-z
1/2-x,1/2+y,1/2-z
1/2-x,1/2-y,1/2-z
1/2+x,1/2+y,1/2-z
1/2-x,1/2+y,1/2+z
1/2+x,1/2-y,1/2+z
loop_
_atom_site_type_symbol
_atom_site_label
_atom_site_fract_x
_atom_site_fract_y
_atom_site_fract_z
Si Si1 0.814403 0.865173 0.734641
Si Si2 0.685118 0.911428 0.101418
Si Si3 0.312599 0.804538 0.656875
Si Si4 0.188282 0.723147 0.051903
Si Si5 0.822168 0.000000 0.943801
Si Si6 0.682550 0.210031 0.807302
Si Si7 0.311286 0.946778 0.205860
Si Si8 0.316893 0.681466 0.405702
O O1 0.750897 0.848721 0.683668
O O2 0.758383 0.825513 0.770983
O O3 0.750577 0.913593 0.753007
O O4 0.000000 0.866228 0.734303
O O5 0.500000 0.902612 0.100813
O O6 0.728403 0.956365 0.073294
O O7 0.733790 0.922757 0.155921
O O8 0.777654 0.869240 0.078969
O O9 0.500000 0.804660 0.656871
O O10 0.257136 0.798747 0.601958
O O11 0.257920 0.760025 0.686871
O O12 0.215584 0.777331 0.058466
O O13 0.000000 0.716789 0.051284
O O14 0.248760 0.708083 0.000000
O O15 0.000000 0.000000 0.924164
O O16 0.832210 0.000000 0.000000
O O17 0.500000 0.214556 0.796206
O O18 0.710601 0.189071 0.859446
O O19 0.500000 0.947021 0.207258
O O20 0.260222 0.000000 0.207444
O O21 0.500000 0.685505 0.392110
#
# Coordination Sequence:
#
# PCOD9519189 Si02
#       8
#    16  16  16  16   8  16  16  16
#     4  12  23  34  51  76 106 137 171 209 257 313
#     4  11  21  36  56  75  98 128 166 217 271 321
#     4  10  20  34  52  75 104 137 174 213 259 308
#     4   8  16  32  53  75 100 132 171 213 252 294
#     4  11  25  41  55  71  93 125 169 223 276 325
#     4  11  20  32  49  72 104 137 173 212 254 303
#     4  10  21  38  57  77 102 133 170 213 265 318
#     4  10  19  31  50  76 102 132 170 210 255 308
#
# _framework density 16.999739000000002
#
# number of rings (size 3 to 8) (size 9 to 14) (size 15 to 20)
#    0.000    1.667    2.000    5.000    0.000    1.867 
#    0.000    1.333    0.000   14.000    0.000    0.000 
#    0.000    0.533    0.000    6.133    0.000    1.733 
#
# Total GULP energy -334803.279703 kJ/mol
# GULP energy per Si atom -5580.054662 kJ/mol
# Density = 1.696105 g / cm^3
# Si number density = 16.999739 Si / 1000 Ang^3
#
#
#
# Elastic Constant Matrix: (Units=GPa)
#
#
# Indices 1 2 3 4 5 6 
#
# 1 49.4947 15.6409 15.2908 0.0000 0.0000 0.0000
# 2 15.6409 46.8813 30.4783 0.0000 0.0000 0.0000
# 3 15.2908 30.4783 81.6470 0.0000 0.0000 0.0000
# 4 0.0000 0.0000 0.0000 5.4633 0.0000 0.0000
# 5 0.0000 0.0000 0.0000 0.0000 16.5321 0.0000
# 6 0.0000 0.0000 0.0000 0.0000 0.0000 39.1638
#
#
#
# Elastic Compliance Matrix: (Units=1/GPa)
#
#
# Indices 1 2 3 4 5 6 
#
# 1 0.022804 -0.006380 -0.001889 0.000000 0.000000 0.000000
# 2 -0.006380 0.029951 -0.009986 0.000000 0.000000 0.000000
# 3 -0.001889 -0.009986 0.016329 0.000000 0.000000 0.000000
# 4 0.000000 0.000000 0.000000 0.183041 0.000000 0.000000
# 5 0.000000 0.000000 0.000000 0.000000 0.060488 0.000000
# 6 0.000000 0.000000 0.000000 0.000000 0.000000 0.025534
#
#
# Mechanical properties :
#
#
# Convention : Reuss Voigt Hill
#
# Bulk Modulus (GPa) = 30.69869 33.42699 32.06284
# Shear Modulus (GPa) = 12.96968 20.00603 16.48786
#
# Velocity S-wave (km/s) = 2.76512 3.43424 3.11768
# Velocity P-wave (km/s) = 5.31903 5.95241 5.64461
#
# Compressibility (1/GPa) = 0.03257469
#
# Stress axis : x y z
#
# Youngs Moduli (GPa) = 43.85212 33.38810 61.23994
#
# Poissons Ratio (x) = 0.21301 0.11569
# Poissons Ratio (y) = 0.27977 0.61152
# Poissons Ratio (z) = 0.08284 0.33340
#
# Static dielectric constant tensor:
#      x y z
#    x 1.585670 0.000000 0.000000 
#    y 0.000000 1.579420 0.000000 
#    z 0.000000 0.000000 1.601970 
# 
# From -- ./inp_files/63798.got.cif
#   From: 2010.05.17/outbox.cif.g08.bks.cpg/sg71_32_cif.got.tgz:63798.got - 2010.06.03 16:22:01.
