data_PCOD9519817
_publ_section_title
;
Structure prediction by ZEFSAII (Michael W. Deem and Ramdas Pophale) SiO2 
 PCOD9519817
Probable space group: I M M M
;
_chemical_formula_sum "Si O2"
_cell_formula_units_Z 112
_cell_length_a 15.097361
_cell_length_b 26.564024
_cell_length_c 16.079795
_cell_angle_alpha 90.000000
_cell_angle_beta 90.000000
_cell_angle_gamma 90.000000
_cell_volume 6448.748077
_symmetry_space_group_name_H-M "I M M M"
_symmetry_group_IT_number 71
_symmetry_cell_setting 'orthorhombic'
loop_
_space_group_symop_operation_xyz
x,y,z
-x,-y,z
x,-y,-z
-x,y,-z
-x,-y,-z
x,y,-z
-x,y,z
x,-y,z
1/2+x,1/2+y,1/2+z
1/2-x,1/2-y,1/2+z
1/2+x,1/2-y,1/2-z
1/2-x,1/2+y,1/2-z
1/2-x,1/2-y,1/2-z
1/2+x,1/2+y,1/2-z
1/2-x,1/2+y,1/2+z
1/2+x,1/2-y,1/2+z
loop_
_atom_site_type_symbol
_atom_site_label
_atom_site_fract_x
_atom_site_fract_y
_atom_site_fract_z
Si Si1 0.645697 0.441591 0.903877
Si Si2 0.233384 0.304321 0.712069
Si Si3 0.892396 0.558318 0.407087
Si Si4 0.599618 0.121116 0.747767
Si Si5 0.100600 0.152796 0.712157
Si Si6 0.640232 0.941648 0.409759
Si Si7 0.397797 0.752248 0.902758
O O1 0.620690 0.500000 0.884498
O O2 0.614133 0.399071 0.839374
O O3 0.752879 0.439498 0.903516
O O4 0.617385 0.431378 0.000000
O O5 0.250000 0.250000 0.750000
O O6 0.165023 0.333701 0.770660
O O7 0.324353 0.335989 0.718172
O O8 0.174962 0.292087 0.630172
O O9 0.865170 0.574904 0.500000
O O10 0.865270 0.500000 0.395837
O O11 0.864625 0.592172 0.329591
O O12 0.000000 0.558561 0.405837
O O13 0.500000 0.138061 0.764237
O O14 0.600467 0.084940 0.669351
O O15 0.109978 0.199712 0.647571
O O16 0.000000 0.153861 0.744641
O O17 0.614801 0.920187 0.500000
O O18 0.615078 0.000000 0.408563
O O19 0.500000 0.770078 0.890887
O O20 0.385085 0.742899 0.000000
#
# Coordination Sequence:
#
# PCOD9519817 Si02
#       7
#    16  16  16  16  16  16  16
#     4   9  17  30  49  74 104 135 170 215 259 298
#     4  10  21  36  50  71 100 133 166 213 266 305
#     4   8  15  28  46  72 105 132 153 188 244 306
#     4  11  20  31  51  75  99 134 174 208 250 309
#     4  10  19  33  53  75 101 136 174 208 252 309
#     4   9  18  32  49  72 105 141 173 205 242 296
#     4   9  18  33  55  81 104 128 164 211 262 316
#
# _framework density 17.367712000000001
#
# number of rings (size 3 to 8) (size 9 to 14) (size 15 to 20)
#    0.000    2.571    1.429    2.571    0.000    3.429 
#    0.000    2.857    0.000    0.429    0.000    0.000 
#    0.000    0.000    0.000    2.857    0.000    0.143 
#
# Total GULP energy -311838.462245 kJ/mol
# GULP energy per Si atom -5568.543969 kJ/mol
# Density = 1.732818 g / cm^3
# Si number density = 17.367712 Si / 1000 Ang^3
#
#
#
# Elastic Constant Matrix: (Units=GPa)
#
#
# Indices 1 2 3 4 5 6 
#
# 1 91.4072 33.3407 26.3581 0.0000 0.0000 0.0000
# 2 33.3407 73.9216 33.4677 0.0000 0.0000 0.0000
# 3 26.3581 33.4677 73.3348 0.0000 0.0000 0.0000
# 4 0.0000 0.0000 0.0000 15.8445 0.0000 0.0000
# 5 0.0000 0.0000 0.0000 0.0000 15.3031 0.0000
# 6 0.0000 0.0000 0.0000 0.0000 0.0000 10.1701
#
#
#
# Elastic Compliance Matrix: (Units=1/GPa)
#
#
# Indices 1 2 3 4 5 6 
#
# 1 0.013479 -0.004898 -0.002609 0.000000 0.000000 0.000000
# 2 -0.004898 0.018831 -0.006833 0.000000 0.000000 0.000000
# 3 -0.002609 -0.006833 0.017692 0.000000 0.000000 0.000000
# 4 0.000000 0.000000 0.000000 0.063113 0.000000 0.000000
# 5 0.000000 0.000000 0.000000 0.000000 0.065346 0.000000
# 6 0.000000 0.000000 0.000000 0.000000 0.000000 0.098327
#
#
# Mechanical properties :
#
#
# Convention : Reuss Voigt Hill
#
# Bulk Modulus (GPa) = 46.90241 47.22183 47.06212
# Shear Modulus (GPa) = 15.99604 17.96336 16.97970
#
# Velocity S-wave (km/s) = 3.03813 3.21954 3.13015
# Velocity P-wave (km/s) = 6.27464 6.40851 6.34193
#
# Compressibility (1/GPa) = 0.02132087
#
# Stress axis : x y z
#
# Youngs Moduli (GPa) = 74.18925 53.10460 56.52125
#
# Poissons Ratio (x) = 0.26011 0.14748
# Poissons Ratio (y) = 0.36338 0.38623
# Poissons Ratio (z) = 0.19359 0.36288
#
# Static dielectric constant tensor:
#      x y z
#    x 1.629550 0.000000 0.000000 
#    y 0.000000 1.598380 0.000000 
#    z 0.000000 0.000000 1.600730 
# 
# From -- ./inp_files/35089.got.cif
#   From: 2010.05.17/outbox.cif.g08.bks.cpg/sg71_18_cif.got.tgz:35089.got - 2010.06.03 16:22:01.
