data_PCOD9519245
_publ_section_title
;
Structure prediction by ZEFSAII (Michael W. Deem and Ramdas Pophale) SiO2 
 PCOD9519245
Probable space group: I M M M
;
_chemical_formula_sum "Si O2"
_cell_formula_units_Z 92
_cell_length_a 15.776551
_cell_length_b 15.637779
_cell_length_c 20.260725
_cell_angle_alpha 90.000000
_cell_angle_beta 90.000000
_cell_angle_gamma 90.000000
_cell_volume 4998.527880
_symmetry_space_group_name_H-M "I M M M"
_symmetry_group_IT_number 71
_symmetry_cell_setting 'orthorhombic'
loop_
_space_group_symop_operation_xyz
x,y,z
-x,-y,z
x,-y,-z
-x,y,-z
-x,-y,-z
x,y,-z
-x,y,z
x,-y,z
1/2+x,1/2+y,1/2+z
1/2-x,1/2-y,1/2+z
1/2+x,1/2-y,1/2-z
1/2-x,1/2+y,1/2-z
1/2-x,1/2-y,1/2-z
1/2+x,1/2+y,1/2-z
1/2-x,1/2+y,1/2+z
1/2+x,1/2-y,1/2+z
loop_
_atom_site_type_symbol
_atom_site_label
_atom_site_fract_x
_atom_site_fract_y
_atom_site_fract_z
Si Si1 0.318451 0.104061 0.638163
Si Si2 0.648343 0.633784 0.203386
Si Si3 0.744700 0.403330 0.662670
Si Si4 0.597348 0.825403 0.229659
Si Si5 0.092592 0.104151 0.077823
Si Si6 0.500000 0.500000 0.824680
Si Si7 0.596971 0.104187 0.500000
O O1 0.224123 0.139966 0.650337
O O2 0.375322 0.138135 0.698805
O O3 0.356531 0.129406 0.567504
O O4 0.315106 0.000000 0.641679
O O5 0.695302 0.595644 0.267626
O O6 0.611580 0.724162 0.226296
O O7 0.574232 0.573710 0.178789
O O8 0.760641 0.500000 0.640299
O O9 0.834414 0.360904 0.677238
O O10 0.675962 0.361706 0.613731
O O11 0.500000 0.847473 0.216104
O O12 0.000000 0.133498 0.103614
O O13 0.092921 0.000000 0.086399
O O14 0.095843 0.120956 0.000000
O O15 0.500000 0.134955 0.500000
O O16 0.595050 0.000000 0.500000
#
# Coordination Sequence:
#
# PCOD9519245 Si02
#       7
#    16  16  16  16  16   4   8
#     4  10  19  35  56  84 118 147 184 226 279 334
#     4  11  21  35  55  82 107 140 183 235 282 326
#     4  10  19  31  51  79 108 142 179 215 272 327
#     4  11  22  34  53  79 112 147 180 227 274 326
#     4   8  15  27  47  76 108 141 180 223 265 317
#     4  12  20  36  60  85 103 140 190 236 282 340
#     4   9  18  32  56  84 112 152 188 219 268 338
#
# _framework density 18.405419999999999
#
# number of rings (size 3 to 8) (size 9 to 14) (size 15 to 20)
#    0.000    2.000    2.609    4.696    1.217    2.087 
#    0.000    0.000    7.652    1.565    0.000    2.435 
#    0.000    0.000    0.000    0.000    0.000    0.000 
#
# Total GULP energy -256071.992851 kJ/mol
# GULP energy per Si atom -5566.782453 kJ/mol
# Density = 1.836353 g / cm^3
# Si number density = 18.405420 Si / 1000 Ang^3
#
#
#
# Elastic Constant Matrix: (Units=GPa)
#
#
# Indices 1 2 3 4 5 6 
#
# 1 196.2625 22.6558 62.9235 0.0000 0.0000 0.0000
# 2 22.6558 34.7070 13.3340 0.0000 0.0000 0.0000
# 3 62.9235 13.3340 75.2198 0.0000 0.0000 0.0000
# 4 0.0000 0.0000 0.0000 -9.0537 0.0000 0.0000
# 5 0.0000 0.0000 0.0000 0.0000 19.7826 0.0000
# 6 0.0000 0.0000 0.0000 0.0000 0.0000 47.1836
#
#
#
# Elastic Compliance Matrix: (Units=1/GPa)
#
#
# Indices 1 2 3 4 5 6 
#
# 1 0.007167 -0.002549 -0.005543 0.000000 0.000000 0.000000
# 2 -0.002549 0.031825 -0.003510 0.000000 0.000000 0.000000
# 3 -0.005543 -0.003510 0.018554 0.000000 0.000000 0.000000
# 4 0.000000 0.000000 0.000000 -0.110452 0.000000 0.000000
# 5 0.000000 0.000000 0.000000 0.000000 0.050550 0.000000
# 6 0.000000 0.000000 0.000000 0.000000 0.000000 0.021194
#
#
# Mechanical properties :
#
#
# Convention : Reuss Voigt Hill
#
# Bulk Modulus (GPa) = 29.11877 56.00178 42.56027
# Shear Modulus (GPa) = 93.48121 25.40088 59.44105
#
# Velocity S-wave (km/s) = 7.13444 3.71897 5.68907
# Velocity P-wave (km/s) = 9.14998 6.99527 8.14420
#
# Compressibility (1/GPa) = 0.03434211
#
# Stress axis : x y z
#
# Youngs Moduli (GPa) = 139.53514 31.42223 53.89773
#
# Poissons Ratio (x) = 0.08008 0.29877
# Poissons Ratio (y) = 0.35561 0.18916
# Poissons Ratio (z) = 0.77349 0.11028
#
# Static dielectric constant tensor:
#      x y z
#    x 1.638870 0.000000 0.000000 
#    y 0.000000 1.674840 0.000000 
#    z 0.000000 0.000000 1.631490 
# 
# From -- ./inp_files/53011.got.cif
#   From: 2010.05.17/outbox.cif.g08.bks.cpg/sg71_27_cif.got.tgz:53011.got - 2010.06.03 16:22:01.
