data_PCOD9519169
_publ_section_title
;
Structure prediction by ZEFSAII (Michael W. Deem and Ramdas Pophale) SiO2 
 PCOD9519169
Probable space group: I M M M
;
_chemical_formula_sum "Si O2"
_cell_formula_units_Z 88
_cell_length_a 25.900161
_cell_length_b 25.384567
_cell_length_c 8.414356
_cell_angle_alpha 90.000000
_cell_angle_beta 90.000000
_cell_angle_gamma 90.000000
_cell_volume 5532.139285
_symmetry_space_group_name_H-M "I M M M"
_symmetry_group_IT_number 71
_symmetry_cell_setting 'orthorhombic'
loop_
_space_group_symop_operation_xyz
x,y,z
-x,-y,z
x,-y,-z
-x,y,-z
-x,-y,-z
x,y,-z
-x,y,z
x,-y,z
1/2+x,1/2+y,1/2+z
1/2-x,1/2-y,1/2+z
1/2+x,1/2-y,1/2-z
1/2-x,1/2+y,1/2-z
1/2-x,1/2-y,1/2-z
1/2+x,1/2+y,1/2-z
1/2-x,1/2+y,1/2+z
1/2+x,1/2-y,1/2+z
loop_
_atom_site_type_symbol
_atom_site_label
_atom_site_fract_x
_atom_site_fract_y
_atom_site_fract_z
Si Si1 0.500000 0.061443 0.320489
Si Si2 0.797607 0.439458 0.809844
Si Si3 0.244133 0.334627 0.309741
Si Si4 0.058806 0.274397 0.809964
Si Si5 0.097869 0.386187 0.685967
Si Si6 0.832293 0.245615 0.192451
O O1 0.500000 0.086078 0.500000
O O2 0.450314 0.076871 0.221227
O O3 0.500000 0.000000 0.341881
O O4 0.790247 0.500000 0.753157
O O5 0.758331 0.394231 0.751944
O O6 0.852242 0.415673 0.753348
O O7 0.797094 0.440565 0.000000
O O8 0.242620 0.335508 0.500000
O O9 0.195313 0.299376 0.251861
O O10 0.294689 0.301908 0.257267
O O11 0.079915 0.332567 0.771015
O O12 0.108184 0.240028 0.753969
O O13 0.000000 0.267193 0.746908
O O14 0.055503 0.268292 0.000000
O O15 0.105552 0.375672 0.500000
O O16 0.831897 0.247859 0.000000
#
# Coordination Sequence:
#
# PCOD9519169 Si02
#       6
#     8  16  16  16  16  16
#     4  11  23  37  49  59  79 119 165 203 244 289
#     4  11  23  37  51  67  92 127 164 201 245 297
#     4  10  19  31  50  74  97 123 158 201 245 288
#     4  10  19  32  51  70  95 130 163 194 234 286
#     4  12  23  33  47  68  92 119 159 207 247 280
#     4   9  18  32  50  72  98 127 159 195 240 294
#
# _framework density 15.907047
#
# number of rings (size 3 to 8) (size 9 to 14) (size 15 to 20)
#    0.000    1.545    2.727    3.545    0.000    5.091 
#    0.000    0.000    0.000    0.000    0.000    0.000 
#    0.000    0.727    0.000    9.091    0.000    1.455 
#
# Total GULP energy -245263.079996 kJ/mol
# GULP energy per Si atom -5574.160909 kJ/mol
# Density = 1.587084 g / cm^3
# Si number density = 15.907047 Si / 1000 Ang^3
#
#
#
# Elastic Constant Matrix: (Units=GPa)
#
#
# Indices 1 2 3 4 5 6 
#
# 1 119.9718 58.4541 10.2260 0.0000 0.0000 0.0000
# 2 58.4541 83.4937 7.2712 0.0000 0.0000 0.0000
# 3 10.2260 7.2712 16.6085 0.0000 0.0000 0.0000
# 4 0.0000 0.0000 0.0000 18.8669 0.0000 0.0000
# 5 0.0000 0.0000 0.0000 0.0000 19.4371 0.0000
# 6 0.0000 0.0000 0.0000 0.0000 0.0000 18.9003
#
#
#
# Elastic Compliance Matrix: (Units=1/GPa)
#
#
# Indices 1 2 3 4 5 6 
#
# 1 0.012920 -0.008684 -0.004153 0.000000 0.000000 0.000000
# 2 -0.008684 0.018288 -0.002660 0.000000 0.000000 0.000000
# 3 -0.004153 -0.002660 0.063932 0.000000 0.000000 0.000000
# 4 0.000000 0.000000 0.000000 0.053003 0.000000 0.000000
# 5 0.000000 0.000000 0.000000 0.000000 0.051448 0.000000
# 6 0.000000 0.000000 0.000000 0.000000 0.000000 0.052909
#
#
# Mechanical properties :
#
#
# Convention : Reuss Voigt Hill
#
# Bulk Modulus (GPa) = 15.58940 41.33072 28.46006
# Shear Modulus (GPa) = 16.40008 21.04904 18.72456
#
# Velocity S-wave (km/s) = 3.21439 3.64160 3.43465
# Velocity P-wave (km/s) = 4.85778 6.61216 5.80167
#
# Compressibility (1/GPa) = 0.06414614
#
# Stress axis : x y z
#
# Youngs Moduli (GPa) = 77.39718 54.68017 15.64169
#
# Poissons Ratio (x) = 0.47484 0.06497
# Poissons Ratio (y) = 0.67211 0.04160
# Poissons Ratio (z) = 0.32146 0.14544
#
# Static dielectric constant tensor:
#      x y z
#    x 1.578670 0.000000 0.000000 
#    y 0.000000 1.545950 0.000000 
#    z 0.000000 0.000000 1.555560 
# 
# From -- ./inp_files/10974.got.cif
#   From: 2010.05.17/outbox.cif.g08.bks.cpg/sg71_6_cif.got.tgz:10974.got - 2010.06.03 16:22:01.
