data_PCOD9519122
_publ_section_title
;
Structure prediction by ZEFSAII (Michael W. Deem and Ramdas Pophale) SiO2 
 PCOD9519122
Probable space group: I M M M
;
_chemical_formula_sum "Si O2"
_cell_formula_units_Z 96
_cell_length_a 21.030620
_cell_length_b 20.268018
_cell_length_c 14.172847
_cell_angle_alpha 90.000000
_cell_angle_beta 90.000000
_cell_angle_gamma 90.000000
_cell_volume 6041.161644
_symmetry_space_group_name_H-M "I M M M"
_symmetry_group_IT_number 71
_symmetry_cell_setting 'orthorhombic'
loop_
_space_group_symop_operation_xyz
x,y,z
-x,-y,z
x,-y,-z
-x,y,-z
-x,-y,-z
x,y,-z
-x,y,z
x,-y,z
1/2+x,1/2+y,1/2+z
1/2-x,1/2-y,1/2+z
1/2+x,1/2-y,1/2-z
1/2-x,1/2+y,1/2-z
1/2-x,1/2-y,1/2-z
1/2+x,1/2+y,1/2-z
1/2-x,1/2+y,1/2+z
1/2+x,1/2-y,1/2+z
loop_
_atom_site_type_symbol
_atom_site_label
_atom_site_fract_x
_atom_site_fract_y
_atom_site_fract_z
Si Si1 0.000000 0.425315 0.114633
Si Si2 0.922220 0.210387 0.213251
Si Si3 0.000000 0.928857 0.387315
Si Si4 0.122504 0.658405 0.886098
Si Si5 0.076938 0.926690 0.889109
Si Si6 0.754188 0.423741 0.114436
Si Si7 0.625192 0.345354 0.887894
O O1 0.063068 0.386932 0.143007
O O2 0.000000 0.500000 0.148678
O O3 0.000000 0.426877 0.000000
O O4 0.892769 0.269274 0.152375
O O5 0.904653 0.139197 0.167290
O O6 0.889459 0.213612 0.316331
O O7 0.000000 0.215440 0.216840
O O8 0.935978 0.890888 0.366736
O O9 0.000000 0.935637 0.500000
O O10 0.000000 0.000000 0.340924
O O11 0.186843 0.621665 0.854304
O O12 0.124209 0.661586 0.000000
O O13 0.000000 0.927822 0.884832
O O14 0.099196 0.000000 0.856958
O O15 0.093975 0.919826 0.000000
O O16 0.756098 0.500000 0.147987
O O17 0.688394 0.386365 0.135262
O O18 0.757731 0.427309 0.000000
O O19 0.625852 0.329532 0.000000
#
# Coordination Sequence:
#
# PCOD9519122 Si02
#       7
#     8  16   8  16  16  16  16
#     4   9  16  27  46  72 100 127 154 188 236 295
#     4  11  20  30  46  70  97 128 164 206 246 291
#     4   9  16  27  44  64  85 112 150 196 241 278
#     4  10  19  31  49  73 101 130 160 196 243 297
#     4   8  15  27  41  59  87 123 159 194 234 282
#     4   9  18  33  51  71  98 131 162 196 245 302
#     4  10  20  33  47  66  94 128 164 204 244 285
#
# _framework density 15.890984
#
# number of rings (size 3 to 8) (size 9 to 14) (size 15 to 20)
#    0.000    2.500    1.667    2.000    0.000    6.667 
#    0.000    0.000    0.000    0.000    0.000    0.000 
#    0.000    4.667    0.000    0.000    0.000    0.000 
#
# Total GULP energy -267235.785121 kJ/mol
# GULP energy per Si atom -5567.412190 kJ/mol
# Density = 1.585482 g / cm^3
# Si number density = 15.890984 Si / 1000 Ang^3
#
#
#
# Elastic Constant Matrix: (Units=GPa)
#
#
# Indices 1 2 3 4 5 6 
#
# 1 115.3129 47.6901 23.7334 0.0000 0.0000 0.0000
# 2 47.6901 99.4152 32.5075 0.0000 0.0000 0.0000
# 3 23.7334 32.5075 44.8411 0.0000 0.0000 0.0000
# 4 0.0000 0.0000 0.0000 8.7015 0.0000 0.0000
# 5 0.0000 0.0000 0.0000 0.0000 2.9780 0.0000
# 6 0.0000 0.0000 0.0000 0.0000 0.0000 -17.9142
#
#
#
# Elastic Compliance Matrix: (Units=1/GPa)
#
#
# Indices 1 2 3 4 5 6 
#
# 1 0.011050 -0.004441 -0.002629 0.000000 0.000000 0.000000
# 2 -0.004441 0.014969 -0.008501 0.000000 0.000000 0.000000
# 3 -0.002629 -0.008501 0.029855 0.000000 0.000000 0.000000
# 4 0.000000 0.000000 0.000000 0.114922 0.000000 0.000000
# 5 0.000000 0.000000 0.000000 0.000000 0.335797 0.000000
# 6 0.000000 0.000000 0.000000 0.000000 0.000000 -0.055821
#
#
# Mechanical properties :
#
#
# Convention : Reuss Voigt Hill
#
# Bulk Modulus (GPa) = 40.43371 51.93680 46.18525
# Shear Modulus (GPa) = 10.20079 9.12894 9.66487
#
# Velocity S-wave (km/s) = 2.53637 2.39942 2.46884
# Velocity P-wave (km/s) = 5.83757 6.35849 6.10359
#
# Compressibility (1/GPa) = 0.02473184
#
# Stress axis : x y z
#
# Youngs Moduli (GPa) = 90.49921 66.80467 33.49491
#
# Poissons Ratio (x) = 0.29668 0.08805
# Poissons Ratio (y) = 0.40191 0.28475
# Poissons Ratio (z) = 0.23791 0.56792
#
# Static dielectric constant tensor:
#      x y z
#    x 1.511390 0.000000 0.000000 
#    y 0.000000 1.560280 0.000000 
#    z 0.000000 0.000000 1.558700 
# 
# From -- ./inp_files/47455.got.cif
#   From: 2010.05.17/outbox.cif.g08.bks.cpg/sg71_24_cif.got.tgz:47455.got - 2010.06.03 16:22:01.
