data_PCOD9519893
_publ_section_title
;
Structure prediction by ZEFSAII (Michael W. Deem and Ramdas Pophale) SiO2 
 PCOD9519893
Probable space group: I M M M
;
_chemical_formula_sum "Si O2"
_cell_formula_units_Z 128
_cell_length_a 21.559562
_cell_length_b 20.549206
_cell_length_c 14.659940
_cell_angle_alpha 90.000000
_cell_angle_beta 90.000000
_cell_angle_gamma 90.000000
_cell_volume 6494.820791
_symmetry_space_group_name_H-M "I M M M"
_symmetry_group_IT_number 71
_symmetry_cell_setting 'orthorhombic'
loop_
_space_group_symop_operation_xyz
x,y,z
-x,-y,z
x,-y,-z
-x,y,-z
-x,-y,-z
x,y,-z
-x,y,z
x,-y,z
1/2+x,1/2+y,1/2+z
1/2-x,1/2-y,1/2+z
1/2+x,1/2-y,1/2-z
1/2-x,1/2+y,1/2-z
1/2-x,1/2-y,1/2-z
1/2+x,1/2+y,1/2-z
1/2-x,1/2+y,1/2+z
1/2+x,1/2-y,1/2+z
loop_
_atom_site_type_symbol
_atom_site_label
_atom_site_fract_x
_atom_site_fract_y
_atom_site_fract_z
Si Si1 0.305580 0.325853 0.389002
Si Si2 0.796827 0.570570 0.392313
Si Si3 0.932210 0.653143 0.148819
Si Si4 0.431665 0.694320 0.307136
Si Si5 0.097950 0.775484 0.602744
Si Si6 0.188674 0.426705 0.894489
Si Si7 0.931427 0.373966 0.637336
Si Si8 0.757088 0.804722 0.609176
O O1 0.310229 0.325249 0.500000
O O2 0.249559 0.373243 0.360688
O O3 0.371907 0.342495 0.345871
O O4 0.285285 0.253979 0.355555
O O5 0.784896 0.567554 0.500000
O O6 0.783083 0.500000 0.351763
O O7 0.869754 0.586029 0.383912
O O8 0.925079 0.731435 0.153894
O O9 0.876082 0.612654 0.107399
O O10 0.933425 0.631469 0.253876
O O11 0.000000 0.639111 0.108316
O O12 0.500000 0.670752 0.335449
O O13 0.430443 0.696994 0.196507
O O14 0.082584 0.800982 0.500000
O O15 0.080340 0.699325 0.602264
O O16 0.171410 0.785486 0.617667
O O17 0.183808 0.500000 0.856014
O O18 0.237397 0.375029 0.852984
O O19 0.206317 0.434546 0.000000
O O20 0.000000 0.396732 0.606812
O O21 0.745502 0.806614 0.500000
#
# Coordination Sequence:
#
# PCOD9519893 Si02
#       8
#    16  16  16  16  16  16  16  16
#     4  10  19  35  57  79 108 144 183 230 275 321
#     4  10  21  36  54  79 109 142 181 220 263 320
#     4   9  19  33  46  67 101 138 179 222 261 314
#     4  10  21  34  53  83 109 138 185 231 278 333
#     4  10  19  33  54  79 110 145 180 224 273 322
#     4  10  20  33  49  71 102 139 179 226 274 320
#     4  10  20  33  51  76 108 146 182 217 261 315
#     4   9  17  31  52  77 101 136 182 222 271 325
#
# _framework density 19.708010999999999
#
# number of rings (size 3 to 8) (size 9 to 14) (size 15 to 20)
#    0.000    2.250    2.500    1.500    0.000    4.750 
#    0.000    3.750    0.000    0.375    0.000    1.750 
#    0.000    1.500    0.000   20.625    0.000    0.000 
#
# Total GULP energy -356701.577129 kJ/mol
# GULP energy per Si atom -5573.462143 kJ/mol
# Density = 1.966315 g / cm^3
# Si number density = 19.708011 Si / 1000 Ang^3
#
#
#
# Elastic Constant Matrix: (Units=GPa)
#
#
# Indices 1 2 3 4 5 6 
#
# 1 140.8246 55.9530 14.1337 0.0000 0.0000 0.0000
# 2 55.9530 67.5066 13.6697 0.0000 0.0000 0.0000
# 3 14.1337 13.6697 67.9763 0.0000 0.0000 0.0000
# 4 0.0000 0.0000 0.0000 1.7541 0.0000 0.0000
# 5 0.0000 0.0000 0.0000 0.0000 29.2005 0.0000
# 6 0.0000 0.0000 0.0000 0.0000 0.0000 -24.7290
#
#
#
# Elastic Compliance Matrix: (Units=1/GPa)
#
#
# Indices 1 2 3 4 5 6 
#
# 1 0.010601 -0.008695 -0.000456 0.000000 0.000000 0.000000
# 2 -0.008695 0.022573 -0.002732 0.000000 0.000000 0.000000
# 3 -0.000456 -0.002732 0.015355 0.000000 0.000000 0.000000
# 4 0.000000 0.000000 0.000000 0.570096 0.000000 0.000000
# 5 0.000000 0.000000 0.000000 0.000000 0.034246 0.000000
# 6 0.000000 0.000000 0.000000 0.000000 0.000000 -0.040438
#
#
# Mechanical properties :
#
#
# Convention : Reuss Voigt Hill
#
# Bulk Modulus (GPa) = 40.37871 49.31338 44.84605
# Shear Modulus (GPa) = 7.75853 14.08184 10.92018
#
# Velocity S-wave (km/s) = 1.98627 2.67596 2.35648
# Velocity P-wave (km/s) = 5.07871 5.88421 5.49624
#
# Compressibility (1/GPa) = 0.02476553
#
# Stress axis : x y z
#
# Youngs Moduli (GPa) = 94.32737 44.30056 65.12500
#
# Poissons Ratio (x) = 0.38518 0.02968
# Poissons Ratio (y) = 0.82015 0.17789
# Poissons Ratio (z) = 0.04299 0.12101
#
# Static dielectric constant tensor:
#      x y z
#    x 1.717790 0.000000 0.000000 
#    y 0.000000 1.701060 0.000000 
#    z 0.000000 0.000000 1.752870 
# 
# From -- ./inp_files/47719.got.cif
#   From: 2010.05.17/outbox.cif.g08.bks.cpg/sg71_24_cif.got.tgz:47719.got - 2010.06.03 16:22:01.
