data_PCOD9519764
_publ_section_title
;
Structure prediction by ZEFSAII (Michael W. Deem and Ramdas Pophale) SiO2 
 PCOD9519764
Probable space group: I M M M
;
_chemical_formula_sum "Si O2"
_cell_formula_units_Z 104
_cell_length_a 24.156613
_cell_length_b 32.779697
_cell_length_c 7.761705
_cell_angle_alpha 90.000000
_cell_angle_beta 90.000000
_cell_angle_gamma 90.000000
_cell_volume 6146.078587
_symmetry_space_group_name_H-M "I M M M"
_symmetry_group_IT_number 71
_symmetry_cell_setting 'orthorhombic'
loop_
_space_group_symop_operation_xyz
x,y,z
-x,-y,z
x,-y,-z
-x,y,-z
-x,-y,-z
x,y,-z
-x,y,z
x,-y,z
1/2+x,1/2+y,1/2+z
1/2-x,1/2-y,1/2+z
1/2+x,1/2-y,1/2-z
1/2-x,1/2+y,1/2-z
1/2-x,1/2-y,1/2-z
1/2+x,1/2+y,1/2-z
1/2-x,1/2+y,1/2+z
1/2+x,1/2-y,1/2+z
loop_
_atom_site_type_symbol
_atom_site_label
_atom_site_fract_x
_atom_site_fract_y
_atom_site_fract_z
Si Si1 0.147630 0.046246 0.708222
Si Si2 0.063742 0.115809 0.708831
Si Si3 0.567294 0.764660 0.000000
Si Si4 0.937073 0.500000 0.790975
Si Si5 0.225514 0.546764 0.704710
Si Si6 0.932913 0.640102 0.500000
Si Si7 0.616691 0.914481 0.299935
Si Si8 0.432673 0.292785 0.308297
O O1 0.145457 0.045807 0.500000
O O2 0.103823 0.079762 0.768871
O O3 0.210439 0.056265 0.760113
O O4 0.135630 0.000000 0.768477
O O5 0.063565 0.116113 0.500000
O O6 0.082947 0.160566 0.767608
O O7 0.000000 0.109722 0.765090
O O8 0.581798 0.812045 0.000000
O O9 0.586447 0.739340 0.166369
O O10 0.500000 0.763388 0.000000
O O11 0.907714 0.541719 0.739908
O O12 0.000000 0.500000 0.730211
O O13 0.936904 0.500000 0.000000
O O14 0.216221 0.546949 0.500000
O O15 0.215982 0.500000 0.768732
O O16 0.182456 0.578065 0.787047
O O17 0.907323 0.618618 0.669069
O O18 0.000000 0.635720 0.500000
O O19 0.601132 0.907131 0.500000
O O20 0.415079 0.281532 0.500000
O O21 0.500000 0.292715 0.302861
#
# Coordination Sequence:
#
# PCOD9519764 Si02
#       8
#    16  16   8   8  16   8  16  16
#     4   9  18  30  46  72 107 144 182 222 261 304
#     4   9  16  28  47  73 109 145 177 217 262 311
#     4   9  18  34  51  72 104 136 167 211 262 315
#     4   9  18  31  49  73 100 135 172 206 250 305
#     4  10  19  33  52  72  97 134 183 230 262 297
#     4  11  24  37  52  79 112 139 169 213 268 327
#     4  11  21  35  54  75 103 140 179 217 260 310
#     4   9  16  28  50  75  99 132 173 214 256 308
#
# _framework density 16.921358999999999
#
# number of rings (size 3 to 8) (size 9 to 14) (size 15 to 20)
#    0.000    2.385    2.308    0.923    0.000    3.385 
#    0.000    3.846    0.000    0.000    0.000    5.385 
#    0.000    0.000    0.000    0.000    0.000    0.000 
#
# Total GULP energy -289988.579626 kJ/mol
# GULP energy per Si atom -5576.703454 kJ/mol
# Density = 1.688285 g / cm^3
# Si number density = 16.921359 Si / 1000 Ang^3
#
#
#
# Elastic Constant Matrix: (Units=GPa)
#
#
# Indices 1 2 3 4 5 6 
#
# 1 66.8588 62.3198 27.8756 0.0000 0.0000 0.0000
# 2 62.3198 142.3782 63.0625 0.0000 0.0000 0.0000
# 3 27.8756 63.0625 90.9575 0.0000 0.0000 0.0000
# 4 0.0000 0.0000 0.0000 3.7468 0.0000 0.0000
# 5 0.0000 0.0000 0.0000 0.0000 16.2745 0.0000
# 6 0.0000 0.0000 0.0000 0.0000 0.0000 3.8215
#
#
#
# Elastic Compliance Matrix: (Units=1/GPa)
#
#
# Indices 1 2 3 4 5 6 
#
# 1 0.025265 -0.011010 -0.000109 0.000000 0.000000 0.000000
# 2 -0.011010 0.014934 -0.006980 0.000000 0.000000 0.000000
# 3 -0.000109 -0.006980 0.015867 0.000000 0.000000 0.000000
# 4 0.000000 0.000000 0.000000 0.266893 0.000000 0.000000
# 5 0.000000 0.000000 0.000000 0.000000 0.061446 0.000000
# 6 0.000000 0.000000 0.000000 0.000000 0.000000 0.261678
#
#
# Mechanical properties :
#
#
# Convention : Reuss Voigt Hill
#
# Bulk Modulus (GPa) = 50.33370 67.41226 58.87298
# Shear Modulus (GPa) = 7.25789 14.56434 10.91112
#
# Velocity S-wave (km/s) = 2.07328 2.93696 2.54207
# Velocity P-wave (km/s) = 5.96168 7.17120 6.59423
#
# Compressibility (1/GPa) = 0.01986741
#
# Stress axis : x y z
#
# Youngs Moduli (GPa) = 39.57987 66.95924 63.02384
#
# Poissons Ratio (x) = 0.73725 0.00689
# Poissons Ratio (y) = 0.43579 0.43991
# Poissons Ratio (z) = 0.00433 0.46738
#
# Static dielectric constant tensor:
#      x y z
#    x 1.566660 0.000000 0.000000 
#    y 0.000000 1.553150 0.000000 
#    z 0.000000 0.000000 1.601870 
# 
# From -- ./inp_files/13679.got.cif
#   From: 2010.05.17/outbox.cif.g08.bks.cpg/sg71_7_cif.got.tgz:13679.got - 2010.06.03 16:22:01.
