data_PCOD9519446
_publ_section_title
;
Structure prediction by ZEFSAII (Michael W. Deem and Ramdas Pophale) SiO2 
 PCOD9519446
Probable space group: I M M M
;
_chemical_formula_sum "Si O2"
_cell_formula_units_Z 88
_cell_length_a 17.434527
_cell_length_b 7.365849
_cell_length_c 29.293774
_cell_angle_alpha 90.000000
_cell_angle_beta 90.000000
_cell_angle_gamma 90.000000
_cell_volume 3761.909189
_symmetry_space_group_name_H-M "I M M M"
_symmetry_group_IT_number 71
_symmetry_cell_setting 'orthorhombic'
loop_
_space_group_symop_operation_xyz
x,y,z
-x,-y,z
x,-y,-z
-x,y,-z
-x,-y,-z
x,y,-z
-x,y,z
x,-y,z
1/2+x,1/2+y,1/2+z
1/2-x,1/2-y,1/2+z
1/2+x,1/2-y,1/2-z
1/2-x,1/2+y,1/2-z
1/2-x,1/2-y,1/2-z
1/2+x,1/2+y,1/2-z
1/2-x,1/2+y,1/2+z
1/2+x,1/2-y,1/2+z
loop_
_atom_site_type_symbol
_atom_site_label
_atom_site_fract_x
_atom_site_fract_y
_atom_site_fract_z
Si Si1 0.808088 0.221209 0.052266
Si Si2 0.154431 0.278813 0.395792
Si Si3 0.087245 0.222551 0.133497
Si Si4 0.821008 0.801170 0.782057
Si Si5 0.000000 0.278607 0.552523
Si Si6 0.912666 0.281160 0.697255
O O1 0.730292 0.279839 0.077917
O O2 0.879040 0.272967 0.084301
O O3 0.806145 0.000000 0.051263
O O4 0.811491 0.282550 0.000000
O O5 0.154977 0.500000 0.395479
O O6 0.144307 0.222282 0.343177
O O7 0.077532 0.221830 0.422227
O O8 0.145582 0.290466 0.172750
O O9 0.000000 0.282019 0.140839
O O10 0.086293 0.000000 0.135749
O O11 0.750000 0.750000 0.750000
O O12 0.890358 0.798646 0.745829
O O13 0.798665 0.000000 0.798461
O O14 0.000000 0.500000 0.553419
O O15 0.000000 0.222237 0.500000
O O16 0.907752 0.500000 0.701343
O O17 0.000000 0.237019 0.684332
#
# Coordination Sequence:
#
# PCOD9519446 Si02
#       6
#    16  16  16  16   8  16
#     4   9  16  25  40  63  93 131 171 209 252 307
#     4   9  15  25  39  63  99 137 173 210 255 302
#     4   9  18  32  48  68  97 133 169 206 255 313
#     4  11  22  36  54  76 103 137 174 216 266 319
#     4   9  14  20  34  58  93 137 177 211 252 305
#     4  10  19  32  51  75 106 144 179 212 254 305
#
# _framework density 23.392378999999998
#
# number of rings (size 3 to 8) (size 9 to 14) (size 15 to 20)
#    0.000    2.455    0.909    2.727    0.000    6.545 
#    0.000    1.818    0.000    0.000    0.000    0.000 
#    0.000   25.455    0.000   17.273    0.000   18.909 
#
# Total GULP energy -245814.154039 kJ/mol
# GULP energy per Si atom -5586.685319 kJ/mol
# Density = 2.333914 g / cm^3
# Si number density = 23.392379 Si / 1000 Ang^3
#
#
#
# Elastic Constant Matrix: (Units=GPa)
#
#
# Indices 1 2 3 4 5 6 
#
# 1 125.8863 4.9881 47.9650 0.0000 0.0000 0.0000
# 2 4.9881 75.7654 -3.5244 0.0000 0.0000 0.0000
# 3 47.9650 -3.5244 157.3317 0.0000 0.0000 0.0000
# 4 0.0000 0.0000 0.0000 0.6197 0.0000 0.0000
# 5 0.0000 0.0000 0.0000 0.0000 39.3260 0.0000
# 6 0.0000 0.0000 0.0000 0.0000 0.0000 -0.9970
#
#
#
# Elastic Compliance Matrix: (Units=1/GPa)
#
#
# Indices 1 2 3 4 5 6 
#
# 1 0.009027 -0.000723 -0.002768 0.000000 0.000000 0.000000
# 2 -0.000723 0.013270 0.000518 0.000000 0.000000 0.000000
# 3 -0.002768 0.000518 0.007212 0.000000 0.000000 0.000000
# 4 0.000000 0.000000 0.000000 1.613781 0.000000 0.000000
# 5 0.000000 0.000000 0.000000 0.000000 0.025428 0.000000
# 6 0.000000 0.000000 0.000000 0.000000 0.000000 -1.003043
#
#
# Mechanical properties :
#
#
# Convention : Reuss Voigt Hill
#
# Bulk Modulus (GPa) = 42.44174 50.87121 46.65648
# Shear Modulus (GPa) = 7.35860 28.42673 17.89267
#
# Velocity S-wave (km/s) = 1.77554 3.48977 2.76867
# Velocity P-wave (km/s) = 4.73141 6.16702 5.49629
#
# Compressibility (1/GPa) = 0.02356171
#
# Stress axis : x y z
#
# Youngs Moduli (GPa) = 110.77789 75.35616 138.66673
#
# Poissons Ratio (x) = 0.05449 0.38386
# Poissons Ratio (y) = 0.08010 -0.07179
# Poissons Ratio (z) = 0.30666 -0.03901
#
# Static dielectric constant tensor:
#      x y z
#    x 1.856510 0.000000 0.000000 
#    y 0.000000 -5.380920 0.000000 
#    z 0.000000 0.000000 1.840170 
# 
# From -- ./inp_files/42474.got.cif
#   From: 2010.05.17/outbox.cif.g08.bks.cpg/sg71_22_cif.got.tgz:42474.got - 2010.06.03 16:22:01.
