data_PCOD9519331
_publ_section_title
;
Structure prediction by ZEFSAII (Michael W. Deem and Ramdas Pophale) SiO2 
 PCOD9519331
Probable space group: I M M M
;
_chemical_formula_sum "Si O2"
_cell_formula_units_Z 120
_cell_length_a 7.621420
_cell_length_b 27.133160
_cell_length_c 28.461039
_cell_angle_alpha 90.000000
_cell_angle_beta 90.000000
_cell_angle_gamma 90.000000
_cell_volume 5885.549566
_symmetry_space_group_name_H-M "I M M M"
_symmetry_group_IT_number 71
_symmetry_cell_setting 'orthorhombic'
loop_
_space_group_symop_operation_xyz
x,y,z
-x,-y,z
x,-y,-z
-x,y,-z
-x,-y,-z
x,y,-z
-x,y,z
x,-y,z
1/2+x,1/2+y,1/2+z
1/2-x,1/2-y,1/2+z
1/2+x,1/2-y,1/2-z
1/2-x,1/2+y,1/2-z
1/2-x,1/2-y,1/2-z
1/2+x,1/2+y,1/2-z
1/2-x,1/2+y,1/2+z
1/2+x,1/2-y,1/2+z
loop_
_atom_site_type_symbol
_atom_site_label
_atom_site_fract_x
_atom_site_fract_y
_atom_site_fract_z
Si Si1 0.784748 0.556516 0.000000
Si Si2 0.705066 0.135322 0.574523
Si Si3 0.790122 0.440391 0.550095
Si Si4 0.711759 0.753830 0.448034
Si Si5 0.288197 0.140401 0.219738
Si Si6 0.707254 0.337493 0.173681
Si Si7 0.215014 0.443438 0.348142
Si Si8 0.291055 0.228143 0.846450
O O1 0.726584 0.589393 0.044701
O O2 0.724018 0.500000 0.000000
O O3 0.000000 0.554177 0.000000
O O4 0.500000 0.138294 0.562527
O O5 0.776803 0.189636 0.560642
O O6 0.721741 0.130582 0.630474
O O7 0.718105 0.422135 0.500000
O O8 0.767718 0.500000 0.550702
O O9 0.725162 0.423251 0.600837
O O10 0.000000 0.431711 0.549336
O O11 0.770414 0.737519 0.500000
O O12 0.500000 0.754839 0.448229
O O13 0.763206 0.722447 0.402311
O O14 0.500000 0.140837 0.217671
O O15 0.239803 0.144543 0.273931
O O16 0.227420 0.090943 0.194066
O O17 0.222215 0.186004 0.188001
O O18 0.500000 0.335028 0.166100
O O19 0.780811 0.281970 0.167495
O O20 0.270074 0.500000 0.343024
O O21 0.000000 0.443492 0.349295
O O22 0.500000 0.229220 0.839109
#
# Coordination Sequence:
#
# PCOD9519331 Si02
#       8
#     8  16  16  16  16  16  16  16
#     4   9  16  28  51  81 107 129 159 203 248 289
#     4   9  16  30  51  74  98 124 158 197 236 282
#     4   7   9  15  30  53  80 107 134 166 206 253
#     4   9  16  28  48  72  97 128 163 195 230 283
#     4  10  19  32  49  69  94 123 157 200 245 286
#     4  10  20  33  49  69  93 124 163 200 238 287
#     4   8  14  25  42  64  88 115 149 187 228 278
#     4   9  19  32  46  69  98 125 156 197 245 290
#
# _framework density 20.388922000000001
#
# number of rings (size 3 to 8) (size 9 to 14) (size 15 to 20)
#    0.000    3.133    0.667    2.000    0.000    1.333 
#    0.000    1.667    0.000    7.600    0.000    0.000 
#    0.000    0.000    0.000    4.800    0.000    3.733 
#
# Total GULP energy -334390.246321 kJ/mol
# GULP energy per Si atom -5573.170772 kJ/mol
# Density = 2.034252 g / cm^3
# Si number density = 20.388922 Si / 1000 Ang^3
#
#
#
# Elastic Constant Matrix: (Units=GPa)
#
#
# Indices 1 2 3 4 5 6 
#
# 1 37.7526 2.4807 -9.6624 0.0000 0.0000 0.0000
# 2 2.4807 66.6109 62.4182 0.0000 0.0000 0.0000
# 3 -9.6624 62.4182 184.5929 0.0000 0.0000 0.0000
# 4 0.0000 0.0000 0.0000 15.6700 0.0000 0.0000
# 5 0.0000 0.0000 0.0000 0.0000 11.3351 0.0000
# 6 0.0000 0.0000 0.0000 0.0000 0.0000 1.9318
#
#
#
# Elastic Compliance Matrix: (Units=1/GPa)
#
#
# Indices 1 2 3 4 5 6 
#
# 1 0.027382 -0.003459 0.002603 0.000000 0.000000 0.000000
# 2 -0.003459 0.022413 -0.007760 0.000000 0.000000 0.000000
# 3 0.002603 -0.007760 0.008177 0.000000 0.000000 0.000000
# 4 0.000000 0.000000 0.000000 0.063816 0.000000 0.000000
# 5 0.000000 0.000000 0.000000 0.000000 0.088221 0.000000
# 6 0.000000 0.000000 0.000000 0.000000 0.000000 0.517639
#
#
# Mechanical properties :
#
#
# Convention : Reuss Voigt Hill
#
# Bulk Modulus (GPa) = 24.54555 44.38104 34.46329
# Shear Modulus (GPa) = 6.59231 21.36873 13.98052
#
# Velocity S-wave (km/s) = 1.80008 3.24088 2.62141
# Velocity P-wave (km/s) = 4.04786 5.98489 5.10902
#
# Compressibility (1/GPa) = 0.04074059
#
# Stress axis : x y z
#
# Youngs Moduli (GPa) = 36.52082 44.61779 122.28814
#
# Poissons Ratio (x) = 0.15432 -0.31829
# Poissons Ratio (y) = 0.12631 0.94891
# Poissons Ratio (z) = -0.09506 0.34622
#
# Static dielectric constant tensor:
#      x y z
#    x 1.772690 0.000000 0.000000 
#    y 0.000000 1.720080 0.000000 
#    z 0.000000 0.000000 1.740890 
# 
# From -- ./inp_files/63831.got.cif
#   From: 2010.05.17/outbox.cif.g08.bks.cpg/sg71_32_cif.got.tgz:63831.got - 2010.06.03 16:22:01.
