data_PCOD9519715
_publ_section_title
;
Structure prediction by ZEFSAII (Michael W. Deem and Ramdas Pophale) SiO2 
 PCOD9519715
Probable space group: I M M M
;
_chemical_formula_sum "Si O2"
_cell_formula_units_Z 88
_cell_length_a 26.472318
_cell_length_b 20.843598
_cell_length_c 8.781746
_cell_angle_alpha 90.000000
_cell_angle_beta 90.000000
_cell_angle_gamma 90.000000
_cell_volume 4845.577358
_symmetry_space_group_name_H-M "I M M M"
_symmetry_group_IT_number 71
_symmetry_cell_setting 'orthorhombic'
loop_
_space_group_symop_operation_xyz
x,y,z
-x,-y,z
x,-y,-z
-x,y,-z
-x,-y,-z
x,y,-z
-x,y,z
x,-y,z
1/2+x,1/2+y,1/2+z
1/2-x,1/2-y,1/2+z
1/2+x,1/2-y,1/2-z
1/2-x,1/2+y,1/2-z
1/2-x,1/2-y,1/2-z
1/2+x,1/2+y,1/2-z
1/2-x,1/2+y,1/2+z
1/2+x,1/2-y,1/2+z
loop_
_atom_site_type_symbol
_atom_site_label
_atom_site_fract_x
_atom_site_fract_y
_atom_site_fract_z
Si Si1 0.667911 0.141620 0.180781
Si Si2 0.439278 0.365448 0.823407
Si Si3 0.364341 0.268226 0.680092
Si Si4 0.719189 0.640277 0.816096
Si Si5 0.212957 0.000000 0.679602
Si Si6 0.177410 0.500000 0.319950
Si Si7 0.438607 0.500000 0.326298
O O1 0.634585 0.195958 0.258522
O O2 0.724658 0.146776 0.248401
O O3 0.650673 0.067958 0.206676
O O4 0.669978 0.152748 0.000000
O O5 0.500000 0.360943 0.813681
O O6 0.412454 0.309903 0.729336
O O7 0.424119 0.435287 0.760347
O O8 0.424168 0.360346 0.000000
O O9 0.358051 0.268639 0.500000
O O10 0.316675 0.303854 0.757138
O O11 0.697158 0.570483 0.763596
O O12 0.721843 0.641000 0.000000
O O13 0.272917 0.000000 0.715130
O O14 0.202953 0.000000 0.500000
O O15 0.193157 0.500000 0.500000
O O16 0.500000 0.500000 0.330662
O O17 0.420182 0.500000 0.500000
#
# Coordination Sequence:
#
# PCOD9519715 Si02
#       7
#    16  16  16  16   8   8   8
#     4  10  19  34  53  75 102 132 168 208 252 302
#     4  10  21  38  58  78 101 132 171 214 257 300
#     4  12  24  35  49  73 103 136 171 208 255 305
#     4  10  19  33  50  71 101 136 173 212 253 298
#     4   8  16  29  47  68  93 129 170 209 248 289
#     4   8  16  30  51  73  95 126 163 204 246 294
#     4   9  17  32  55  80 105 134 168 208 253 300
#
# _framework density 18.160890999999999
#
# number of rings (size 3 to 8) (size 9 to 14) (size 15 to 20)
#    0.000    2.091    0.000    4.091    0.000    4.364 
#    0.000    2.727    0.000    0.000    0.000    0.636 
#    0.000    5.091    0.000    0.000    0.000    0.000 
#
# Total GULP energy -245578.902381 kJ/mol
# GULP energy per Si atom -5581.338690 kJ/mol
# Density = 1.811956 g / cm^3
# Si number density = 18.160891 Si / 1000 Ang^3
#
#
#
# Elastic Constant Matrix: (Units=GPa)
#
#
# Indices 1 2 3 4 5 6 
#
# 1 28.4320 24.3121 13.9966 0.0000 0.0000 0.0000
# 2 24.3121 135.6578 38.9684 0.0000 0.0000 0.0000
# 3 13.9966 38.9684 79.9818 0.0000 0.0000 0.0000
# 4 0.0000 0.0000 0.0000 27.9649 0.0000 0.0000
# 5 0.0000 0.0000 0.0000 0.0000 20.5566 0.0000
# 6 0.0000 0.0000 0.0000 0.0000 0.0000 38.7856
#
#
#
# Elastic Compliance Matrix: (Units=1/GPa)
#
#
# Indices 1 2 3 4 5 6 
#
# 1 0.042808 -0.006418 -0.004364 0.000000 0.000000 0.000000
# 2 -0.006418 0.009533 -0.003522 0.000000 0.000000 0.000000
# 3 -0.004364 -0.003522 0.014982 0.000000 0.000000 0.000000
# 4 0.000000 0.000000 0.000000 0.035759 0.000000 0.000000
# 5 0.000000 0.000000 0.000000 0.000000 0.048646 0.000000
# 6 0.000000 0.000000 0.000000 0.000000 0.000000 0.025783
#
#
# Mechanical properties :
#
#
# Convention : Reuss Voigt Hill
#
# Bulk Modulus (GPa) = 25.82927 44.29176 35.06051
# Shear Modulus (GPa) = 22.82835 28.58104 25.70470
#
# Velocity S-wave (km/s) = 3.54927 3.97138 3.76624
# Velocity P-wave (km/s) = 5.57224 6.74319 6.18548
#
# Compressibility (1/GPa) = 0.03871577
#
# Stress axis : x y z
#
# Youngs Moduli (GPa) = 23.35988 104.89487 66.74509
#
# Poissons Ratio (x) = 0.67325 0.29129
# Poissons Ratio (y) = 0.14993 0.23505
# Poissons Ratio (z) = 0.10195 0.36940
#
# Static dielectric constant tensor:
#      x y z
#    x 1.607630 0.000000 0.000000 
#    y 0.000000 1.668530 0.000000 
#    z 0.000000 0.000000 1.613880 
# 
# From -- ./inp_files/12597.got.cif
#   From: 2010.05.17/outbox.cif.g08.bks.cpg/sg71_7_cif.got.tgz:12597.got - 2010.06.03 16:22:01.
