data_PCOD9519163
_publ_section_title
;
Structure prediction by ZEFSAII (Michael W. Deem and Ramdas Pophale) SiO2 
 PCOD9519163
Probable space group: I M M M
;
_chemical_formula_sum "Si O2"
_cell_formula_units_Z 72
_cell_length_a 16.842491
_cell_length_b 29.079637
_cell_length_c 8.738710
_cell_angle_alpha 90.000000
_cell_angle_beta 90.000000
_cell_angle_gamma 90.000000
_cell_volume 4279.988796
_symmetry_space_group_name_H-M "I M M M"
_symmetry_group_IT_number 71
_symmetry_cell_setting 'orthorhombic'
loop_
_space_group_symop_operation_xyz
x,y,z
-x,-y,z
x,-y,-z
-x,y,-z
-x,-y,-z
x,y,-z
-x,y,z
x,-y,z
1/2+x,1/2+y,1/2+z
1/2-x,1/2-y,1/2+z
1/2+x,1/2-y,1/2-z
1/2-x,1/2+y,1/2-z
1/2-x,1/2-y,1/2-z
1/2+x,1/2+y,1/2-z
1/2-x,1/2+y,1/2+z
1/2+x,1/2-y,1/2+z
loop_
_atom_site_type_symbol
_atom_site_label
_atom_site_fract_x
_atom_site_fract_y
_atom_site_fract_z
Si Si1 0.674303 0.722788 0.683541
Si Si2 0.500000 0.555767 0.174942
Si Si3 0.412932 0.811425 0.685781
Si Si4 0.251585 0.137968 0.683380
Si Si5 0.331478 0.446420 0.317151
O O1 0.679015 0.719564 0.500000
O O2 0.750000 0.750000 0.750000
O O3 0.603209 0.757681 0.723221
O O4 0.683529 0.672544 0.754513
O O5 0.500000 0.500000 0.172753
O O6 0.581261 0.568611 0.259008
O O7 0.500000 0.572200 0.000000
O O8 0.412785 0.814048 0.500000
O O9 0.500000 0.825900 0.740800
O O10 0.337231 0.841774 0.736047
O O11 0.250328 0.138794 0.500000
O O12 0.232580 0.087558 0.744573
O O13 0.329128 0.443452 0.500000
O O14 0.319925 0.500000 0.273307
#
# Coordination Sequence:
#
# PCOD9519163 Si02
#       5
#    16   8  16  16  16
#     4   9  16  28  47  68  94 126 160 201 246 295
#     4   9  17  31  51  73  97 123 155 199 245 287
#     4   8  15  29  49  72  96 126 165 206 248 293
#     4  10  19  31  50  73  99 130 165 208 253 297
#     4  10  20  34  52  73  99 132 168 203 243 297
#
# _framework density 16.822474
#
# number of rings (size 3 to 8) (size 9 to 14) (size 15 to 20)
#    0.000    2.778    0.000    3.667    0.000    2.667 
#    2.000    0.000    0.000   24.000    0.000    4.667 
#    0.000    0.000    0.000    0.000    0.000    0.000 
#
# Total GULP energy -200416.112503 kJ/mol
# GULP energy per Si atom -5567.114236 kJ/mol
# Density = 1.678419 g / cm^3
# Si number density = 16.822474 Si / 1000 Ang^3
#
#
#
# Elastic Constant Matrix: (Units=GPa)
#
#
# Indices 1 2 3 4 5 6 
#
# 1 103.3051 54.6364 25.5658 0.0000 0.0005 0.0002
# 2 54.6364 99.2905 35.4946 -0.0022 -0.0009 -0.0003
# 3 25.5658 35.4946 50.2347 -0.0121 -0.0034 -0.0009
# 4 0.0000 -0.0022 -0.0121 29.1333 -0.0020 -0.0003
# 5 0.0005 -0.0009 -0.0034 -0.0020 18.1921 0.0004
# 6 0.0002 -0.0003 -0.0009 -0.0003 0.0004 20.8170
#
#
#
# Elastic Compliance Matrix: (Units=1/GPa)
#
#
# Indices 1 2 3 4 5 6 
#
# 1 0.013837 -0.006819 -0.002224 -0.000001 -0.000001 0.000000
# 2 -0.006819 0.016836 -0.008425 -0.000002 -0.000001 0.000000
# 3 -0.002224 -0.008425 0.026991 0.000011 0.000005 0.000001
# 4 -0.000001 -0.000002 0.000011 0.034325 0.000004 0.000000
# 5 -0.000001 -0.000001 0.000005 0.000004 0.054969 -0.000001
# 6 0.000000 0.000000 0.000001 0.000000 -0.000001 0.048038
#
#
# Mechanical properties :
#
#
# Convention : Reuss Voigt Hill
#
# Bulk Modulus (GPa) = 43.99912 53.80264 48.90088
# Shear Modulus (GPa) = 21.05198 22.77073 21.91136
#
# Velocity S-wave (km/s) = 3.54138 3.68311 3.61294
# Velocity P-wave (km/s) = 6.55237 7.08090 6.82175
#
# Compressibility (1/GPa) = 0.02272773
#
# Stress axis : x y z
#
# Youngs Moduli (GPa) = 72.27065 59.39790 37.04887
#
# Poissons Ratio (x) = 0.40504 0.08239
# Poissons Ratio (y) = 0.49281 0.31215
# Poissons Ratio (z) = 0.16072 0.50044
#
# Static dielectric constant tensor:
#      x y z
#    x 1.578030 0.000000 0.000000 
#    y 0.000000 1.560890 0.000000 
#    z 0.000000 0.000000 1.565400 
# 
# From -- ./inp_files/6474.got.cif
#   From: 2010.05.17/outbox.cif.g08.bks.cpg/sg71_4_cif.got.tgz:6474.got - 2010.06.03 16:22:01.
