data_PCOD9519176
_publ_section_title
;
Structure prediction by ZEFSAII (Michael W. Deem and Ramdas Pophale) SiO2 
 PCOD9519176
Probable space group: I M M M
;
_chemical_formula_sum "Si O2"
_cell_formula_units_Z 72
_cell_length_a 7.549842
_cell_length_b 13.858763
_cell_length_c 32.141034
_cell_angle_alpha 90.000000
_cell_angle_beta 90.000000
_cell_angle_gamma 90.000000
_cell_volume 3362.963666
_symmetry_space_group_name_H-M "I M M M"
_symmetry_group_IT_number 71
_symmetry_cell_setting 'orthorhombic'
loop_
_space_group_symop_operation_xyz
x,y,z
-x,-y,z
x,-y,-z
-x,y,-z
-x,-y,-z
x,y,-z
-x,y,z
x,-y,z
1/2+x,1/2+y,1/2+z
1/2-x,1/2-y,1/2+z
1/2+x,1/2-y,1/2-z
1/2-x,1/2+y,1/2-z
1/2-x,1/2-y,1/2-z
1/2+x,1/2+y,1/2-z
1/2-x,1/2+y,1/2+z
1/2+x,1/2-y,1/2+z
loop_
_atom_site_type_symbol
_atom_site_label
_atom_site_fract_x
_atom_site_fract_y
_atom_site_fract_z
Si Si1 0.784510 0.107336 0.048882
Si Si2 0.787643 0.604983 0.731780
Si Si3 0.289074 0.293543 0.815503
Si Si4 0.294288 0.803820 0.589607
Si Si5 0.783581 0.500000 0.048492
O O1 0.719702 0.200658 0.074268
O O2 0.000000 0.105168 0.051611
O O3 0.723424 0.000000 0.062397
O O4 0.740556 0.118989 0.000000
O O5 0.718701 0.500000 0.720104
O O6 0.749654 0.628236 0.779950
O O7 0.719288 0.692980 0.703932
O O8 0.000000 0.604617 0.727224
O O9 0.500000 0.286901 0.820020
O O10 0.214236 0.312318 0.860795
O O11 0.500000 0.801447 0.576481
O O12 0.218021 0.901109 0.569517
O O13 0.000000 0.500000 0.052386
O O14 0.740504 0.500000 0.000000
#
# Coordination Sequence:
#
# PCOD9519176 Si02
#       5
#    16  16  16  16   8
#     4   8  14  26  46  72  99 127 164 213 261 297
#     4   9  19  37  58  74  96 133 173 211 251 301
#     4  10  21  35  51  77 106 132 166 208 257 309
#     4  10  19  31  50  75 102 133 170 212 254 304
#     4   9  18  32  51  75 101 135 179 219 251 291
#
# _framework density 21.409687999999999
#
# number of rings (size 3 to 8) (size 9 to 14) (size 15 to 20)
#    0.000    2.778    0.000    2.000    1.556    4.889 
#    0.000    0.000    0.000    3.333    0.000    1.556 
#    0.000    0.000    0.000    0.000    0.000    0.000 
#
# Total GULP energy -200895.171817 kJ/mol
# GULP energy per Si atom -5580.421439 kJ/mol
# Density = 2.136096 g / cm^3
# Si number density = 21.409688 Si / 1000 Ang^3
#
#
#
# Elastic Constant Matrix: (Units=GPa)
#
#
# Indices 1 2 3 4 5 6 
#
# 1 53.0725 7.0448 -12.7378 0.0000 0.0000 0.0000
# 2 7.0448 139.1940 61.0961 0.0000 0.0000 0.0000
# 3 -12.7378 61.0961 98.5215 0.0000 0.0000 0.0000
# 4 0.0000 0.0000 0.0000 -4.1692 0.0000 0.0000
# 5 0.0000 0.0000 0.0000 0.0000 -12.9422 0.0000
# 6 0.0000 0.0000 0.0000 0.0000 0.0000 -2.5852
#
#
#
# Elastic Compliance Matrix: (Units=1/GPa)
#
#
# Indices 1 2 3 4 5 6 
#
# 1 0.020316 -0.002997 0.004485 0.000000 0.000000 0.000000
# 2 -0.002997 0.010313 -0.006783 0.000000 0.000000 0.000000
# 3 0.004485 -0.006783 0.014936 0.000000 0.000000 0.000000
# 4 0.000000 0.000000 0.000000 -0.239856 0.000000 0.000000
# 5 0.000000 0.000000 0.000000 0.000000 -0.077267 0.000000
# 6 0.000000 0.000000 0.000000 0.000000 0.000000 -0.386824
#
#
# Mechanical properties :
#
#
# Convention : Reuss Voigt Hill
#
# Bulk Modulus (GPa) = 28.59066 44.62157 36.60611
# Shear Modulus (GPa) = -7.85999 11.75303 1.94652
#
# Velocity S-wave (km/s) = -1.91812 2.34553 0.95454
# Velocity P-wave (km/s) = 2.91161 5.31247 4.28368
#
# Compressibility (1/GPa) = 0.03497646
#
# Stress axis : x y z
#
# Youngs Moduli (GPa) = 49.22127 96.96397 66.95118
#
# Poissons Ratio (x) = 0.29059 -0.30029
# Poissons Ratio (y) = 0.14751 0.45413
# Poissons Ratio (z) = -0.22077 0.65770
#
# Static dielectric constant tensor:
#      x y z
#    x 1.800970 0.000000 0.000000 
#    y 0.000000 1.803390 0.000000 
#    z 0.000000 0.000000 1.707200 
# 
# From -- ./inp_files/6470.got.cif
#   From: 2010.05.17/outbox.cif.g08.bks.cpg/sg71_4_cif.got.tgz:6470.got - 2010.06.03 16:22:01.
