data_PCOD9519979
_publ_section_title
;
Structure prediction by ZEFSAII (Michael W. Deem and Ramdas Pophale) SiO2 
 PCOD9519979
Probable space group: I M M M
;
_chemical_formula_sum "Si O2"
_cell_formula_units_Z 100
_cell_length_a 28.295352
_cell_length_b 21.988288
_cell_length_c 7.775735
_cell_angle_alpha 90.000000
_cell_angle_beta 90.000000
_cell_angle_gamma 90.000000
_cell_volume 4837.800654
_symmetry_space_group_name_H-M "I M M M"
_symmetry_group_IT_number 71
_symmetry_cell_setting 'orthorhombic'
loop_
_space_group_symop_operation_xyz
x,y,z
-x,-y,z
x,-y,-z
-x,y,-z
-x,-y,-z
x,y,-z
-x,y,z
x,-y,z
1/2+x,1/2+y,1/2+z
1/2-x,1/2-y,1/2+z
1/2+x,1/2-y,1/2-z
1/2-x,1/2+y,1/2-z
1/2-x,1/2-y,1/2-z
1/2+x,1/2+y,1/2-z
1/2-x,1/2+y,1/2+z
1/2+x,1/2-y,1/2+z
loop_
_atom_site_type_symbol
_atom_site_label
_atom_site_fract_x
_atom_site_fract_y
_atom_site_fract_z
Si Si1 0.552717 0.648992 0.294821
Si Si2 0.225351 0.841808 0.207459
Si Si3 0.357711 0.429787 0.710698
Si Si4 0.575683 0.786550 0.194051
Si Si5 0.413628 0.000000 0.000000
Si Si6 0.180417 0.712523 0.797882
Si Si7 0.945359 0.416252 0.807972
O O1 0.551273 0.639283 0.500000
O O2 0.500000 0.635214 0.226439
O O3 0.596129 0.607772 0.229716
O O4 0.564144 0.719849 0.264824
O O5 0.190279 0.895175 0.264792
O O6 0.201773 0.777517 0.259087
O O7 0.279023 0.837759 0.271751
O O8 0.227281 0.842907 0.000000
O O9 0.357878 0.428444 0.500000
O O10 0.359050 0.500000 0.763703
O O11 0.631978 0.796607 0.200525
O O12 0.555428 0.843500 0.294583
O O13 0.558139 0.788968 0.000000
O O14 0.417263 0.947316 0.846971
O O15 0.169230 0.717120 0.000000
O O16 0.000000 0.435000 0.786697
O O17 0.929014 0.432477 0.000000
#
# Coordination Sequence:
#
# PCOD9519979 Si02
#       7
#    16  16  16  16   4  16  16
#     4  10  20  35  55  83 120 157 199 254 312 364
#     4   9  17  32  54  82 112 143 188 242 300 362
#     4   9  17  32  56  84 116 156 201 249 305 372
#     4  12  23  36  57  86 120 157 203 253 311 373
#     4  12  23  42  64  90 122 160 212 252 296 370
#     4  10  19  33  56  83 112 144 186 242 304 364
#     4  11  23  39  62  89 120 160 205 255 306 362
#
# _framework density 20.670549999999999
#
# number of rings (size 3 to 8) (size 9 to 14) (size 15 to 20)
#    0.000    1.760    2.400    3.360    0.000    3.840 
#    0.000    1.600    1.760    1.920    0.000    1.120 
#    0.000    0.000    0.000    0.000    0.000    0.000 
#
# Total GULP energy -278679.691506 kJ/mol
# GULP energy per Si atom -5573.593830 kJ/mol
# Density = 2.062350 g / cm^3
# Si number density = 20.670550 Si / 1000 Ang^3
#
#
#
# Elastic Constant Matrix: (Units=GPa)
#
#
# Indices 1 2 3 4 5 6 
#
# 1 100.1594 36.9033 7.5162 0.0000 0.0000 0.0000
# 2 36.9033 133.7743 5.0348 0.0000 0.0000 0.0000
# 3 7.5162 5.0348 67.8098 0.0000 0.0000 0.0000
# 4 0.0000 0.0000 0.0000 17.1478 0.0000 0.0000
# 5 0.0000 0.0000 0.0000 0.0000 7.6380 0.0000
# 6 0.0000 0.0000 0.0000 0.0000 0.0000 55.6466
#
#
#
# Elastic Compliance Matrix: (Units=1/GPa)
#
#
# Indices 1 2 3 4 5 6 
#
# 1 0.011183 -0.003047 -0.001013 0.000000 0.000000 0.000000
# 2 -0.003047 0.008326 -0.000281 0.000000 0.000000 0.000000
# 3 -0.001013 -0.000281 0.014880 0.000000 0.000000 0.000000
# 4 0.000000 0.000000 0.000000 0.058317 0.000000 0.000000
# 5 0.000000 0.000000 0.000000 0.000000 0.130925 0.000000
# 6 0.000000 0.000000 0.000000 0.000000 0.000000 0.017971
#
#
# Mechanical properties :
#
#
# Convention : Reuss Voigt Hill
#
# Bulk Modulus (GPa) = 38.89813 44.51689 41.70751
# Shear Modulus (GPa) = 19.31609 32.90577 26.11093
#
# Velocity S-wave (km/s) = 3.06023 3.99421 3.55800
# Velocity P-wave (km/s) = 5.59872 6.54635 6.09100
#
# Compressibility (1/GPa) = 0.02570818
#
# Stress axis : x y z
#
# Youngs Moduli (GPa) = 89.42401 120.10118 67.20309
#
# Poissons Ratio (x) = 0.36592 0.06810
# Poissons Ratio (y) = 0.27245 0.01885
# Poissons Ratio (z) = 0.09061 0.03369
#
# Static dielectric constant tensor:
#      x y z
#    x 1.760500 0.000000 0.000000 
#    y 0.000000 1.726940 0.000000 
#    z 0.000000 0.000000 1.763970 
# 
# From -- ./inp_files/14991.got.cif
#   From: 2010.05.17/outbox.cif.g08.bks.cpg/sg71_8_cif.got.tgz:14991.got - 2010.06.03 16:22:01.
