data_PCOD9519334
_publ_section_title
;
Structure prediction by ZEFSAII (Michael W. Deem and Ramdas Pophale) SiO2 
 PCOD9519334
Probable space group: I M M M
;
_chemical_formula_sum "Si O2"
_cell_formula_units_Z 128
_cell_length_a 19.990053
_cell_length_b 13.360553
_cell_length_c 28.618132
_cell_angle_alpha 90.000000
_cell_angle_beta 90.000000
_cell_angle_gamma 90.000000
_cell_volume 7643.278111
_symmetry_space_group_name_H-M "I M M M"
_symmetry_group_IT_number 71
_symmetry_cell_setting 'orthorhombic'
loop_
_space_group_symop_operation_xyz
x,y,z
-x,-y,z
x,-y,-z
-x,y,-z
-x,-y,-z
x,y,-z
-x,y,z
x,-y,z
1/2+x,1/2+y,1/2+z
1/2-x,1/2-y,1/2+z
1/2+x,1/2-y,1/2-z
1/2-x,1/2+y,1/2-z
1/2-x,1/2-y,1/2-z
1/2+x,1/2+y,1/2-z
1/2-x,1/2+y,1/2+z
1/2+x,1/2-y,1/2+z
loop_
_atom_site_type_symbol
_atom_site_label
_atom_site_fract_x
_atom_site_fract_y
_atom_site_fract_z
Si Si1 0.639728 0.885092 0.268275
Si Si2 0.608190 0.615811 0.946405
Si Si3 0.922097 0.745291 0.360243
Si Si4 0.580425 0.388477 0.666559
Si Si5 0.730258 0.883168 0.447994
Si Si6 0.801966 0.385264 0.666552
Si Si7 0.076550 0.812631 0.262900
Si Si8 0.683598 0.766827 0.641777
O O1 0.687218 0.881425 0.222648
O O2 0.583869 0.802264 0.254883
O O3 0.674320 0.844005 0.315146
O O4 0.617013 0.000000 0.273584
O O5 0.589201 0.500000 0.936667
O O6 0.581971 0.691728 0.907598
O O7 0.688984 0.621705 0.944562
O O8 0.587947 0.638431 0.000000
O O9 0.871048 0.652691 0.357470
O O10 0.897714 0.813138 0.315834
O O11 0.000000 0.717497 0.351835
O O12 0.500000 0.375960 0.666471
O O13 0.595961 0.500000 0.649953
O O14 0.606138 0.376328 0.720436
O O15 0.617325 0.301203 0.639230
O O16 0.711757 0.847096 0.500000
O O17 0.698376 0.822976 0.405990
O O18 0.712192 0.000000 0.444518
O O19 0.787485 0.500000 0.653759
O O20 0.744054 0.309054 0.652635
O O21 0.000000 0.844199 0.266283
#
# Coordination Sequence:
#
# PCOD9519334 Si02
#       8
#    16  16  16  16  16  16  16  16
#     4   9  18  29  44  70 101 127 157 200 246 290
#     4   9  18  33  51  72  98 127 161 203 253 300
#     4  10  19  32  49  70  97 131 169 208 247 286
#     4   9  18  32  49  72 103 135 163 194 236 286
#     4   9  18  33  54  78 101 126 158 198 246 298
#     4  10  20  33  47  69  99 130 167 205 241 285
#     4   8  16  29  45  66  96 134 170 198 232 284
#     4  11  18  31  54  74  97 127 164 200 241 289
#
# _framework density 16.746741
#
# number of rings (size 3 to 8) (size 9 to 14) (size 15 to 20)
#    0.000    2.625    1.250    1.875    0.000    1.500 
#    0.000    4.375    0.000    4.125    0.000    2.625 
#    0.000    0.000    0.000    0.000    0.000    0.000 
#
# Total GULP energy -356357.740923 kJ/mol
# GULP energy per Si atom -5568.089702 kJ/mol
# Density = 1.670862 g / cm^3
# Si number density = 16.746741 Si / 1000 Ang^3
#
#
#
# Elastic Constant Matrix: (Units=GPa)
#
#
# Indices 1 2 3 4 5 6 
#
# 1 35.9389 17.9082 23.1667 0.0000 0.0000 0.0000
# 2 17.9082 68.6784 41.1220 0.0000 0.0000 0.0000
# 3 23.1667 41.1220 96.7066 0.0000 0.0000 0.0000
# 4 0.0000 0.0000 0.0000 24.9802 0.0000 0.0000
# 5 0.0000 0.0000 0.0000 0.0000 19.4301 0.0000
# 6 0.0000 0.0000 0.0000 0.0000 0.0000 15.4413
#
#
#
# Elastic Compliance Matrix: (Units=1/GPa)
#
#
# Indices 1 2 3 4 5 6 
#
# 1 0.034339 -0.005405 -0.005928 0.000000 0.000000 0.000000
# 2 -0.005405 0.020385 -0.007373 0.000000 0.000000 0.000000
# 3 -0.005928 -0.007373 0.014896 0.000000 0.000000 0.000000
# 4 0.000000 0.000000 0.000000 0.040032 0.000000 0.000000
# 5 0.000000 0.000000 0.000000 0.000000 0.051467 0.000000
# 6 0.000000 0.000000 0.000000 0.000000 0.000000 0.064761
#
#
# Mechanical properties :
#
#
# Convention : Reuss Voigt Hill
#
# Bulk Modulus (GPa) = 31.04815 40.63532 35.84174
# Shear Modulus (GPa) = 18.24630 19.91211 19.07921
#
# Velocity S-wave (km/s) = 3.30440 3.45195 3.37898
# Velocity P-wave (km/s) = 5.75664 6.34076 6.05574
#
# Compressibility (1/GPa) = 0.03220803
#
# Stress axis : x y z
#
# Youngs Moduli (GPa) = 29.12102 49.05609 67.13208
#
# Poissons Ratio (x) = 0.26513 0.39796
# Poissons Ratio (y) = 0.15739 0.49499
# Poissons Ratio (z) = 0.17263 0.36171
#
# Static dielectric constant tensor:
#      x y z
#    x 1.583490 0.000000 0.000000 
#    y 0.000000 1.561000 0.000000 
#    z 0.000000 0.000000 1.567030 
# 
# From -- ./inp_files/61747.got.cif
#   From: 2010.05.17/outbox.cif.g08.bks.cpg/sg71_31_cif.got.tgz:61747.got - 2010.06.03 16:22:01.
