data_PCOD9519939
_publ_section_title
;
Structure prediction by ZEFSAII (Michael W. Deem and Ramdas Pophale) SiO2 
 PCOD9519939
Probable space group: I M M M
;
_chemical_formula_sum "Si O2"
_cell_formula_units_Z 88
_cell_length_a 17.283774
_cell_length_b 15.278054
_cell_length_c 15.141910
_cell_angle_alpha 90.000000
_cell_angle_beta 90.000000
_cell_angle_gamma 90.000000
_cell_volume 3998.409587
_symmetry_space_group_name_H-M "I M M M"
_symmetry_group_IT_number 71
_symmetry_cell_setting 'orthorhombic'
loop_
_space_group_symop_operation_xyz
x,y,z
-x,-y,z
x,-y,-z
-x,y,-z
-x,-y,-z
x,y,-z
-x,y,z
x,-y,z
1/2+x,1/2+y,1/2+z
1/2-x,1/2-y,1/2+z
1/2+x,1/2-y,1/2-z
1/2-x,1/2+y,1/2-z
1/2-x,1/2-y,1/2-z
1/2+x,1/2+y,1/2-z
1/2-x,1/2+y,1/2+z
1/2+x,1/2-y,1/2+z
loop_
_atom_site_type_symbol
_atom_site_label
_atom_site_fract_x
_atom_site_fract_y
_atom_site_fract_z
Si Si1 0.224326 0.653490 0.396827
Si Si2 0.363470 0.601584 0.716570
Si Si3 0.651004 0.599562 0.905833
Si Si4 0.408750 0.893791 0.229409
Si Si5 0.500000 0.392370 0.401447
Si Si6 0.315766 0.837854 0.401772
O O1 0.225683 0.624978 0.500000
O O2 0.280241 0.602772 0.328756
O O3 0.140451 0.644600 0.352849
O O4 0.266260 0.748011 0.393965
O O5 0.384154 0.500000 0.728010
O O6 0.371774 0.642445 0.813284
O O7 0.424521 0.639448 0.648606
O O8 0.620919 0.500000 0.908700
O O9 0.744074 0.594775 0.900294
O O10 0.631003 0.642696 0.000000
O O11 0.500000 0.874199 0.224228
O O12 0.371474 0.855782 0.319948
O O13 0.399879 0.000000 0.229831
O O14 0.500000 0.500000 0.404803
O O15 0.500000 0.360317 0.500000
O O16 0.352008 0.840236 0.500000
#
# Coordination Sequence:
#
# PCOD9519939 Si02
#       6
#    16  16  16  16   8  16
#     4  11  23  39  61  88 120 163 209 256 312 375
#     4  10  19  33  55  81 110 149 195 245 306 374
#     4   9  17  31  55  83 109 144 192 243 297 365
#     4  11  24  41  63  94 130 168 214 265 315 374
#     4   9  18  32  49  75 111 145 183 235 293 356
#     4  10  21  39  62  87 119 158 203 256 316 379
#
# _framework density 22.008749999999999
#
# number of rings (size 3 to 8) (size 9 to 14) (size 15 to 20)
#    0.000    1.909    1.818    2.182    0.000    4.000 
#    1.636    2.273    0.000    2.727    0.000    0.000 
#    0.000    0.000    0.000    0.364    0.000    0.000 
#
# Total GULP energy -245381.856868 kJ/mol
# GULP energy per Si atom -5576.860383 kJ/mol
# Density = 2.195866 g / cm^3
# Si number density = 22.008750 Si / 1000 Ang^3
#
#
#
# Elastic Constant Matrix: (Units=GPa)
#
#
# Indices 1 2 3 4 5 6 
#
# 1 93.7281 7.4017 75.0460 0.0000 0.0000 0.0000
# 2 7.4017 51.6727 20.1647 0.0000 0.0000 0.0000
# 3 75.0460 20.1647 249.8783 0.0000 0.0000 0.0000
# 4 0.0000 0.0000 0.0000 17.4571 0.0000 0.0000
# 5 0.0000 0.0000 0.0000 0.0000 25.2158 0.0000
# 6 0.0000 0.0000 0.0000 0.0000 0.0000 16.3316
#
#
#
# Elastic Compliance Matrix: (Units=1/GPa)
#
#
# Indices 1 2 3 4 5 6 
#
# 1 0.014054 -0.000378 -0.004190 0.000000 0.000000 0.000000
# 2 -0.000378 0.019992 -0.001500 0.000000 0.000000 0.000000
# 3 -0.004190 -0.001500 0.005381 0.000000 0.000000 0.000000
# 4 0.000000 0.000000 0.000000 0.057283 0.000000 0.000000
# 5 0.000000 0.000000 0.000000 0.000000 0.039658 0.000000
# 6 0.000000 0.000000 0.000000 0.000000 0.000000 0.061231
#
#
# Mechanical properties :
#
#
# Convention : Reuss Voigt Hill
#
# Bulk Modulus (GPa) = 36.64153 66.72264 51.68209
# Shear Modulus (GPa) = 22.84847 31.31201 27.08024
#
# Velocity S-wave (km/s) = 3.22553 3.77597 3.51155
# Velocity P-wave (km/s) = 5.52783 7.02800 6.32257
#
# Compressibility (1/GPa) = 0.02729144
#
# Stress axis : x y z
#
# Youngs Moduli (GPa) = 71.15334 50.01998 185.82242
#
# Poissons Ratio (x) = 0.01890 0.77867
# Poissons Ratio (y) = 0.02689 0.27870
# Poissons Ratio (z) = 0.29816 0.07502
#
# Static dielectric constant tensor:
#      x y z
#    x 1.797320 0.000000 0.000000 
#    y 0.000000 1.922910 0.000000 
#    z 0.000000 0.000000 1.853240 
# 
# From -- ./inp_files/36362.got.cif
#   From: 2010.05.17/outbox.cif.g08.bks.cpg/sg71_19_cif.got.tgz:36362.got - 2010.06.03 16:22:01.
