data_PCOD9519323
_publ_section_title
;
Structure prediction by ZEFSAII (Michael W. Deem and Ramdas Pophale) SiO2 
 PCOD9519323
Probable space group: I M M M
;
_chemical_formula_sum "Si O2"
_cell_formula_units_Z 96
_cell_length_a 11.567928
_cell_length_b 28.530382
_cell_length_c 18.313546
_cell_angle_alpha 90.000000
_cell_angle_beta 90.000000
_cell_angle_gamma 90.000000
_cell_volume 6044.155194
_symmetry_space_group_name_H-M "I M M M"
_symmetry_group_IT_number 71
_symmetry_cell_setting 'orthorhombic'
loop_
_space_group_symop_operation_xyz
x,y,z
-x,-y,z
x,-y,-z
-x,y,-z
-x,-y,-z
x,y,-z
-x,y,z
x,-y,z
1/2+x,1/2+y,1/2+z
1/2-x,1/2-y,1/2+z
1/2+x,1/2-y,1/2-z
1/2-x,1/2+y,1/2-z
1/2-x,1/2-y,1/2-z
1/2+x,1/2+y,1/2-z
1/2-x,1/2+y,1/2+z
1/2+x,1/2-y,1/2+z
loop_
_atom_site_type_symbol
_atom_site_label
_atom_site_fract_x
_atom_site_fract_y
_atom_site_fract_z
Si Si1 0.000000 0.845821 0.200765
Si Si2 0.000000 0.948025 0.811388
Si Si3 0.000000 0.165864 0.371708
Si Si4 0.000000 0.935077 0.418964
Si Si5 0.204138 0.948879 0.693015
Si Si6 0.136652 0.643432 0.800952
Si Si7 0.760000 0.792282 0.808910
Si Si8 0.260248 0.712322 0.086700
O O1 0.000000 0.853588 0.288823
O O2 0.885461 0.815791 0.188454
O O3 0.000000 0.895077 0.157155
O O4 0.884339 0.947176 0.761454
O O5 0.000000 0.000000 0.848489
O O6 0.000000 0.120720 0.421178
O O7 0.113832 0.194767 0.388320
O O8 0.884618 0.947909 0.374882
O O9 0.000000 0.952942 0.500000
O O10 0.288492 0.904294 0.691986
O O11 0.263394 0.000000 0.694103
O O12 0.173775 0.669075 0.725075
O O13 0.173498 0.679129 0.866459
O O14 0.000000 0.635012 0.802877
O O15 0.750000 0.750000 0.750000
O O16 0.743849 0.765875 0.885369
O O17 0.243995 0.707794 0.000000
#
# Coordination Sequence:
#
# PCOD9519323 Si02
#       8
#     8   8   8   8  16  16  16  16
#     4  12  16  35  54  76  97 128 168 207 253 295
#     4   9  15  28  51  73  97 117 147 208 262 289
#     4  12  18  32  55  73  96 125 168 217 248 278
#     4  11  18  30  50  74  97 124 166 214 257 287
#     4  10  19  32  48  71  97 123 159 208 256 292
#     4  11  22  35  51  69  98 137 167 202 246 299
#     4  10  21  32  52  71  99 129 166 204 244 297
#     4  11  23  35  50  73 100 132 168 205 243 290
#
# _framework density 15.883113
#
# number of rings (size 3 to 8) (size 9 to 14) (size 15 to 20)
#    0.000    1.333    8.333    1.500    5.833    1.333 
#    0.000    0.000    0.000    0.000    0.000    2.333 
#    0.000    3.333    0.000    1.500    0.000    0.000 
#
# Total GULP energy -267256.192655 kJ/mol
# GULP energy per Si atom -5567.837347 kJ/mol
# Density = 1.584696 g / cm^3
# Si number density = 15.883113 Si / 1000 Ang^3
#
#
#
# Elastic Constant Matrix: (Units=GPa)
#
#
# Indices 1 2 3 4 5 6 
#
# 1 109.2917 53.7684 14.4320 0.0000 0.0000 0.0000
# 2 53.7684 132.8293 25.6064 0.0000 0.0000 0.0000
# 3 14.4320 25.6064 30.4624 0.0000 0.0000 0.0000
# 4 0.0000 0.0000 0.0000 -9.9633 0.0000 0.0000
# 5 0.0000 0.0000 0.0000 0.0000 -93.0928 0.0000
# 6 0.0000 0.0000 0.0000 0.0000 0.0000 7.6744
#
#
#
# Elastic Compliance Matrix: (Units=1/GPa)
#
#
# Indices 1 2 3 4 5 6 
#
# 1 0.011510 -0.004306 -0.001834 0.000000 0.000000 0.000000
# 2 -0.004306 0.010595 -0.006866 0.000000 0.000000 0.000000
# 3 -0.001834 -0.006866 0.039468 0.000000 0.000000 0.000000
# 4 0.000000 0.000000 0.000000 -0.100368 0.000000 0.000000
# 5 0.000000 0.000000 0.000000 0.000000 -0.010742 0.000000
# 6 0.000000 0.000000 0.000000 0.000000 0.000000 0.130303
#
#
# Mechanical properties :
#
#
# Convention : Reuss Voigt Hill
#
# Bulk Modulus (GPa) = 28.12015 51.13302 39.62658
# Shear Modulus (GPa) = 42.14735 -7.15790 17.49473
#
# Velocity S-wave (km/s) = 5.15689 -2.12518 3.32244
# Velocity P-wave (km/s) = 7.29390 5.12263 6.30247
#
# Compressibility (1/GPa) = 0.03556169
#
# Stress axis : x y z
#
# Youngs Moduli (GPa) = 86.87872 94.38365 25.33710
#
# Poissons Ratio (x) = 0.40640 0.04646
# Poissons Ratio (y) = 0.37408 0.17397
# Poissons Ratio (z) = 0.15932 0.64806
#
# Static dielectric constant tensor:
#      x y z
#    x 1.527560 0.000000 0.000000 
#    y 0.000000 1.596310 0.000000 
#    z 0.000000 0.000000 1.544640 
# 
# From -- ./inp_files/52332.got.cif
#   From: 2010.05.17/outbox.cif.g08.bks.cpg/sg71_27_cif.got.tgz:52332.got - 2010.06.03 16:22:01.
