data_PCOD9519620
_publ_section_title
;
Structure prediction by ZEFSAII (Michael W. Deem and Ramdas Pophale) SiO2 
 PCOD9519620
Probable space group: I M M M
;
_chemical_formula_sum "Si O2"
_cell_formula_units_Z 80
_cell_length_a 7.386189
_cell_length_b 35.493823
_cell_length_c 13.317869
_cell_angle_alpha 90.000000
_cell_angle_beta 90.000000
_cell_angle_gamma 90.000000
_cell_volume 3491.466941
_symmetry_space_group_name_H-M "I M M M"
_symmetry_group_IT_number 71
_symmetry_cell_setting 'orthorhombic'
loop_
_space_group_symop_operation_xyz
x,y,z
-x,-y,z
x,-y,-z
-x,y,-z
-x,-y,-z
x,y,-z
-x,y,z
x,-y,z
1/2+x,1/2+y,1/2+z
1/2-x,1/2-y,1/2+z
1/2+x,1/2-y,1/2-z
1/2-x,1/2+y,1/2-z
1/2-x,1/2-y,1/2-z
1/2+x,1/2+y,1/2-z
1/2-x,1/2+y,1/2+z
1/2+x,1/2-y,1/2+z
loop_
_atom_site_type_symbol
_atom_site_label
_atom_site_fract_x
_atom_site_fract_y
_atom_site_fract_z
Si Si1 0.290847 0.185721 0.500000
Si Si2 0.219084 0.348490 0.611361
Si Si3 0.789265 0.063039 0.889876
Si Si4 0.219565 0.902048 0.500000
Si Si5 0.720932 0.541546 0.827441
Si Si6 0.283421 0.792463 0.283897
O O1 0.500000 0.198437 0.500000
O O2 0.285268 0.140516 0.500000
O O3 0.210170 0.199984 0.604667
O O4 0.273749 0.334882 0.500000
O O5 0.280091 0.391661 0.621006
O O6 0.285034 0.321967 0.700741
O O7 0.000000 0.349008 0.613494
O O8 0.713782 0.046604 0.786765
O O9 0.000000 0.051754 0.892989
O O10 0.711325 0.053513 0.000000
O O11 0.278740 0.925404 0.598070
O O12 0.000000 0.900938 0.500000
O O13 0.500000 0.543123 0.825506
O O14 0.770610 0.500000 0.864905
O O15 0.500000 0.798360 0.287880
O O16 0.250000 0.750000 0.250000
#
# Coordination Sequence:
#
# PCOD9519620 Si02
#       6
#     8  16  16   8  16  16
#     4  10  22  39  55  77 108 138 166 206 263 309
#     4   9  18  33  52  72  96 130 168 204 247 299
#     4   9  17  29  47  72  98 127 167 208 248 297
#     4  10  19  32  54  78  98 130 178 214 244 297
#     4   9  17  29  47  73 104 133 165 211 258 296
#     4  10  22  37  54  76 103 133 166 205 253 307
#
# _framework density 22.913003
#
# number of rings (size 3 to 8) (size 9 to 14) (size 15 to 20)
#    0.000    2.600    0.000    1.500    1.400    3.200 
#    0.000    2.000    0.000    3.000    0.000    2.800 
#    0.000    0.000    0.000    0.000    0.000    0.000 
#
# Total GULP energy -223501.084906 kJ/mol
# GULP energy per Si atom -5587.527123 kJ/mol
# Density = 2.286085 g / cm^3
# Si number density = 22.913003 Si / 1000 Ang^3
#
#
#
# Elastic Constant Matrix: (Units=GPa)
#
#
# Indices 1 2 3 4 5 6 
#
# 1 82.7542 -14.8418 6.7302 0.0000 0.0000 0.0000
# 2 -14.8418 92.5434 68.6402 0.0001 -0.0001 0.0000
# 3 6.7302 68.6402 185.3818 0.0003 -0.0001 0.0000
# 4 0.0000 0.0001 0.0003 -6.5608 0.0001 0.0000
# 5 0.0000 -0.0001 -0.0001 0.0001 -12.3143 0.0000
# 6 0.0000 0.0000 0.0000 0.0000 0.0000 2.0393
#
#
#
# Elastic Compliance Matrix: (Units=1/GPa)
#
#
# Indices 1 2 3 4 5 6 
#
# 1 0.012815 0.003309 -0.001690 0.000000 0.000000 0.000000
# 2 0.003309 0.015751 -0.005952 0.000000 0.000000 0.000000
# 3 -0.001690 -0.005952 0.007660 0.000000 0.000000 0.000000
# 4 0.000000 0.000000 0.000000 -0.152419 -0.000001 0.000003
# 5 0.000000 0.000000 0.000000 -0.000001 -0.081206 0.000000
# 6 0.000000 0.000000 0.000000 0.000003 0.000000 0.490362
#
#
# Mechanical properties :
#
#
# Convention : Reuss Voigt Hill
#
# Bulk Modulus (GPa) = 36.28660 53.52628 44.90644
# Shear Modulus (GPa) = 16.08673 16.64289 16.36481
#
# Velocity S-wave (km/s) = 2.65255 2.69801 2.67538
# Velocity P-wave (km/s) = 5.02518 5.75474 5.40229
#
# Compressibility (1/GPa) = 0.02755838
#
# Stress axis : x y z
#
# Youngs Moduli (GPa) = 78.03406 63.48696 130.55602
#
# Poissons Ratio (x) = -0.21008 0.22070
# Poissons Ratio (y) = -0.25822 0.77710
# Poissons Ratio (z) = 0.13191 0.37789
#
# Static dielectric constant tensor:
#      x y z
#    x 1.866570 0.000000 0.000000 
#    y 0.000000 1.773990 0.000000 
#    z 0.000000 0.000000 1.869850 
# 
# From -- ./inp_files/20195.got.cif
#   From: 2010.05.17/outbox.cif.g08.bks.cpg/sg71_11_cif.got.tgz:20195.got - 2010.06.03 16:22:01.
