data_PCOD9519961
_publ_section_title
;
Structure prediction by ZEFSAII (Michael W. Deem and Ramdas Pophale) SiO2 
 PCOD9519961
Probable space group: I M M M
;
_chemical_formula_sum "Si O2"
_cell_formula_units_Z 80
_cell_length_a 13.776811
_cell_length_b 11.050562
_cell_length_c 25.158711
_cell_angle_alpha 90.000000
_cell_angle_beta 90.000000
_cell_angle_gamma 90.000000
_cell_volume 3830.200004
_symmetry_space_group_name_H-M "I M M M"
_symmetry_group_IT_number 71
_symmetry_cell_setting 'orthorhombic'
loop_
_space_group_symop_operation_xyz
x,y,z
-x,-y,z
x,-y,-z
-x,y,-z
-x,-y,-z
x,y,-z
-x,y,z
x,-y,z
1/2+x,1/2+y,1/2+z
1/2-x,1/2-y,1/2+z
1/2+x,1/2-y,1/2-z
1/2-x,1/2+y,1/2-z
1/2-x,1/2-y,1/2-z
1/2+x,1/2+y,1/2-z
1/2-x,1/2+y,1/2+z
1/2+x,1/2-y,1/2+z
loop_
_atom_site_type_symbol
_atom_site_label
_atom_site_fract_x
_atom_site_fract_y
_atom_site_fract_z
Si Si1 0.390019 0.775158 0.937953
Si Si2 0.827847 0.000000 0.178827
Si Si3 0.395539 0.000000 0.776220
Si Si4 0.155049 0.740113 0.214303
Si Si5 0.256492 0.500000 0.438175
Si Si6 0.273329 0.141821 0.396174
Si Si7 0.388964 0.852486 0.500000
O O1 0.500000 0.804202 0.922678
O O2 0.339608 0.671726 0.903614
O O3 0.316704 0.886756 0.932978
O O4 0.390868 0.738619 0.000000
O O5 0.876060 0.879899 0.204754
O O6 0.709870 0.000000 0.193571
O O7 0.826637 0.000000 0.113744
O O8 0.396750 0.123861 0.741056
O O9 0.500000 0.000000 0.806617
O O10 0.250000 0.750000 0.250000
O O11 0.184109 0.701216 0.155487
O O12 0.295115 0.500000 0.500000
O O13 0.330937 0.187025 0.448063
O O14 0.288081 0.000000 0.392540
O O15 0.500000 0.811828 0.500000
O O16 0.389267 0.000000 0.500000
#
# Coordination Sequence:
#
# PCOD9519961 Si02
#       7
#    16   8   8  16   8  16   8
#     4  10  20  33  51  80 117 156 193 232 285 361
#     4  10  20  38  63  89 120 157 197 244 301 363
#     4  10  22  40  64  91 117 152 206 260 307 359
#     4  10  21  39  60  87 116 157 201 249 303 364
#     4  10  19  33  55  83 118 153 194 233 282 355
#     4  11  20  35  57  84 119 155 195 245 307 367
#     4   9  20  36  57  86 115 148 201 259 303 355
#
# _framework density 20.886638000000001
#
# number of rings (size 3 to 8) (size 9 to 14) (size 15 to 20)
#    0.000    1.900    4.000    0.300    0.000    3.200 
#    0.000    1.500    0.000    0.000    0.000    3.500 
#    0.000    0.000    0.000    0.000    0.000    0.000 
#
# Total GULP energy -222869.526813 kJ/mol
# GULP energy per Si atom -5571.738170 kJ/mol
# Density = 2.083910 g / cm^3
# Si number density = 20.886638 Si / 1000 Ang^3
#
#
#
# Elastic Constant Matrix: (Units=GPa)
#
#
# Indices 1 2 3 4 5 6 
#
# 1 56.7918 20.9674 0.0323 0.0000 0.0000 0.0000
# 2 20.9674 120.4952 26.3926 0.0000 0.0000 0.0000
# 3 0.0323 26.3926 78.8343 0.0000 0.0000 0.0000
# 4 0.0000 0.0000 0.0000 30.6075 0.0000 0.0000
# 5 0.0000 0.0000 0.0000 0.0000 3.9192 0.0000
# 6 0.0000 0.0000 0.0000 0.0000 0.0000 -23.9051
#
#
#
# Elastic Compliance Matrix: (Units=1/GPa)
#
#
# Indices 1 2 3 4 5 6 
#
# 1 0.018918 -0.003551 0.001181 0.000000 0.000000 0.000000
# 2 -0.003551 0.009622 -0.003220 0.000000 0.000000 0.000000
# 3 0.001181 -0.003220 0.013762 0.000000 0.000000 0.000000
# 4 0.000000 0.000000 0.000000 0.032672 0.000000 0.000000
# 5 0.000000 0.000000 0.000000 0.000000 0.255155 0.000000
# 6 0.000000 0.000000 0.000000 0.000000 0.000000 -0.041832
#
#
# Mechanical properties :
#
#
# Convention : Reuss Voigt Hill
#
# Bulk Modulus (GPa) = 32.12987 38.98956 35.55971
# Shear Modulus (GPa) = 16.13675 16.03960 16.08817
#
# Velocity S-wave (km/s) = 2.78256 2.77417 2.77837
# Velocity P-wave (km/s) = 5.07345 5.38230 5.23015
#
# Compressibility (1/GPa) = 0.03112368
#
# Stress axis : x y z
#
# Youngs Moduli (GPa) = 52.85857 103.92623 72.66209
#
# Poissons Ratio (x) = 0.36901 -0.08581
# Poissons Ratio (y) = 0.18768 0.23397
# Poissons Ratio (z) = -0.06242 0.33463
#
# Static dielectric constant tensor:
#      x y z
#    x 1.730600 0.000000 0.000000 
#    y 0.000000 1.771840 0.000000 
#    z 0.000000 0.000000 1.738010 
# 
# From -- ./inp_files/59661.got.cif
#   From: 2010.05.17/outbox.cif.g08.bks.cpg/sg71_30_cif.got.tgz:59661.got - 2010.06.03 16:22:01.
