data_PCOD9519120
_publ_section_title
;
Structure prediction by ZEFSAII (Michael W. Deem and Ramdas Pophale) SiO2 
 PCOD9519120
Probable space group: I M M M
;
_chemical_formula_sum "Si O2"
_cell_formula_units_Z 80
_cell_length_a 10.445797
_cell_length_b 21.876808
_cell_length_c 19.585257
_cell_angle_alpha 90.000000
_cell_angle_beta 90.000000
_cell_angle_gamma 90.000000
_cell_volume 4475.636549
_symmetry_space_group_name_H-M "I M M M"
_symmetry_group_IT_number 71
_symmetry_cell_setting 'orthorhombic'
loop_
_space_group_symop_operation_xyz
x,y,z
-x,-y,z
x,-y,-z
-x,y,-z
-x,-y,-z
x,y,-z
-x,y,z
x,-y,z
1/2+x,1/2+y,1/2+z
1/2-x,1/2-y,1/2+z
1/2+x,1/2-y,1/2-z
1/2-x,1/2+y,1/2-z
1/2-x,1/2-y,1/2-z
1/2+x,1/2+y,1/2-z
1/2-x,1/2+y,1/2+z
1/2+x,1/2-y,1/2+z
loop_
_atom_site_type_symbol
_atom_site_label
_atom_site_fract_x
_atom_site_fract_y
_atom_site_fract_z
Si Si1 0.141775 0.669145 0.732914
Si Si2 0.646778 0.568996 0.731354
Si Si3 0.859595 0.090896 0.391456
Si Si4 0.775381 0.776201 0.637560
Si Si5 0.148027 0.411235 0.000000
Si Si6 0.355295 0.762786 0.500000
O O1 0.250089 0.620238 0.712559
O O2 0.150297 0.726461 0.681866
O O3 0.173138 0.695014 0.808770
O O4 0.000000 0.642261 0.732361
O O5 0.500000 0.585311 0.712301
O O6 0.673938 0.500000 0.707015
O O7 0.650078 0.568324 0.814001
O O8 0.854463 0.164849 0.386804
O O9 0.736997 0.071635 0.435583
O O10 0.000000 0.073090 0.418426
O O11 0.714148 0.746476 0.570441
O O12 0.141647 0.337194 0.000000
O O13 0.000000 0.432006 0.000000
O O14 0.500000 0.740053 0.500000
#
# Coordination Sequence:
#
# PCOD9519120 Si02
#       6
#    16  16  16  16   8   8
#     4  10  19  31  49  73 100 129 161 197 239 288
#     4   9  19  34  49  66  89 119 157 200 242 282
#     4   9  16  28  46  64  87 121 157 190 227 276
#     4   9  18  29  46  72 102 128 156 194 238 282
#     4   9  17  27  40  62  91 121 153 190 231 272
#     4   9  16  27  43  66  97 130 160 190 229 279
#
# _framework density 17.874552999999999
#
# number of rings (size 3 to 8) (size 9 to 14) (size 15 to 20)
#    0.000    2.800    0.000    1.500    0.000   10.800 
#    0.000    2.000    0.000    3.000    0.000    0.700 
#    0.000    4.000    0.000    0.000    0.000    0.000 
#
# Total GULP energy -222868.480488 kJ/mol
# GULP energy per Si atom -5571.712012 kJ/mol
# Density = 1.783387 g / cm^3
# Si number density = 17.874553 Si / 1000 Ang^3
#
#
#
# Elastic Constant Matrix: (Units=GPa)
#
#
# Indices 1 2 3 4 5 6 
#
# 1 140.2997 43.6240 24.9325 0.0000 0.0000 0.0000
# 2 43.6240 67.1343 6.6815 0.0000 0.0000 0.0000
# 3 24.9325 6.6815 56.0506 0.0000 0.0000 0.0000
# 4 0.0000 0.0000 0.0000 -6.7181 0.0000 0.0000
# 5 0.0000 0.0000 0.0000 0.0000 5.2783 0.0000
# 6 0.0000 0.0000 0.0000 0.0000 0.0000 29.3284
#
#
#
# Elastic Compliance Matrix: (Units=1/GPa)
#
#
# Indices 1 2 3 4 5 6 
#
# 1 0.009588 -0.005876 -0.003565 0.000000 0.000000 0.000000
# 2 -0.005876 0.018675 0.000387 0.000000 0.000000 0.000000
# 3 -0.003565 0.000387 0.019380 0.000000 0.000000 0.000000
# 4 0.000000 0.000000 0.000000 -0.148851 0.000000 0.000000
# 5 0.000000 0.000000 0.000000 0.000000 0.189455 0.000000
# 6 0.000000 0.000000 0.000000 0.000000 0.000000 0.034097
#
#
# Mechanical properties :
#
#
# Convention : Reuss Voigt Hill
#
# Bulk Modulus (GPa) = 33.85470 45.99560 39.92515
# Shear Modulus (GPa) = 33.26789 18.12750 25.69770
#
# Velocity S-wave (km/s) = 4.31883 3.18803 3.79577
# Velocity P-wave (km/s) = 6.62201 6.27214 6.44944
#
# Compressibility (1/GPa) = 0.02953800
#
# Stress axis : x y z
#
# Youngs Moduli (GPa) = 104.29765 53.54788 51.59850
#
# Poissons Ratio (x) = 0.31462 0.18392
# Poissons Ratio (y) = 0.61280 -0.01999
# Poissons Ratio (z) = 0.37177 -0.02075
#
# Static dielectric constant tensor:
#      x y z
#    x 1.631560 0.000000 0.000000 
#    y 0.000000 1.627770 0.000000 
#    z 0.000000 0.000000 1.601380 
# 
# From -- ./inp_files/50416.got.cif
#   From: 2010.05.17/outbox.cif.g08.bks.cpg/sg71_26_cif.got.tgz:50416.got - 2010.06.03 16:22:01.
