data_PCOD9519127
_publ_section_title
;
Structure prediction by ZEFSAII (Michael W. Deem and Ramdas Pophale) SiO2 
 PCOD9519127
Probable space group: I M M M
;
_chemical_formula_sum "Si O2"
_cell_formula_units_Z 56
_cell_length_a 14.776576
_cell_length_b 13.309108
_cell_length_c 17.636588
_cell_angle_alpha 90.000000
_cell_angle_beta 90.000000
_cell_angle_gamma 90.000000
_cell_volume 3468.465115
_symmetry_space_group_name_H-M "I M M M"
_symmetry_group_IT_number 71
_symmetry_cell_setting 'orthorhombic'
loop_
_space_group_symop_operation_xyz
x,y,z
-x,-y,z
x,-y,-z
-x,y,-z
-x,-y,-z
x,y,-z
-x,y,z
x,-y,z
1/2+x,1/2+y,1/2+z
1/2-x,1/2-y,1/2+z
1/2+x,1/2-y,1/2-z
1/2-x,1/2+y,1/2-z
1/2-x,1/2-y,1/2-z
1/2+x,1/2+y,1/2-z
1/2-x,1/2+y,1/2+z
1/2+x,1/2-y,1/2+z
loop_
_atom_site_type_symbol
_atom_site_label
_atom_site_fract_x
_atom_site_fract_y
_atom_site_fract_z
Si Si1 0.000000 0.885920 0.822050
Si Si2 0.860744 0.194108 0.700217
Si Si3 0.156426 0.381885 0.204092
Si Si4 0.500000 0.383940 0.910833
Si Si5 0.500000 0.815919 0.590531
O O1 0.913142 0.865267 0.767722
O O2 0.000000 0.802394 0.887568
O O3 0.000000 0.000000 0.848639
O O4 0.871548 0.309645 0.726160
O O5 0.758391 0.157390 0.690026
O O6 0.913760 0.169919 0.624339
O O7 0.155887 0.500000 0.220646
O O8 0.087952 0.360808 0.134210
O O9 0.500000 0.500000 0.884670
O O10 0.500000 0.382255 0.000000
O O11 0.500000 0.832702 0.500000
#
# Coordination Sequence:
#
# PCOD9519127 Si02
#       5
#     8  16  16   8   8
#     4   9  16  31  54  72  90 119 156 201 241 270
#     4   9  18  32  51  74  94 115 156 201 232 275
#     4  10  19  32  51  70  92 126 159 192 232 270
#     4  10  19  31  49  73  99 122 147 190 243 284
#     4  10  22  33  42  68 103 130 159 188 221 277
#
# _framework density 16.14547
#
# number of rings (size 3 to 8) (size 9 to 14) (size 15 to 20)
#    0.000    2.429    0.000    4.714    0.000    2.571 
#    0.000    0.000    0.000    1.714    0.000    0.000 
#    0.000    0.000    0.000    0.000    0.000    0.000 
#
# Total GULP energy -155977.612564 kJ/mol
# GULP energy per Si atom -5570.629020 kJ/mol
# Density = 1.610872 g / cm^3
# Si number density = 16.145470 Si / 1000 Ang^3
#
#
#
# Elastic Constant Matrix: (Units=GPa)
#
#
# Indices 1 2 3 4 5 6 
#
# 1 110.4764 35.1684 48.0263 0.0000 0.0000 0.0000
# 2 35.1684 155.4122 50.1227 0.0000 0.0000 0.0000
# 3 48.0263 50.1227 85.2259 0.0000 0.0000 0.0000
# 4 0.0000 0.0000 0.0000 15.5276 0.0000 0.0000
# 5 0.0000 0.0000 0.0000 0.0000 11.3930 0.0000
# 6 0.0000 0.0000 0.0000 0.0000 0.0000 4.6047
#
#
#
# Elastic Compliance Matrix: (Units=1/GPa)
#
#
# Indices 1 2 3 4 5 6 
#
# 1 0.012044 -0.000662 -0.006397 0.000000 0.000000 0.000000
# 2 -0.000662 0.007977 -0.004318 0.000000 0.000000 0.000000
# 3 -0.006397 -0.004318 0.017878 0.000000 0.000000 0.000000
# 4 0.000000 0.000000 0.000000 0.064401 0.000000 0.000000
# 5 0.000000 0.000000 0.000000 0.000000 0.087773 0.000000
# 6 0.000000 0.000000 0.000000 0.000000 0.000000 0.217171
#
#
# Mechanical properties :
#
#
# Convention : Reuss Voigt Hill
#
# Bulk Modulus (GPa) = 66.03604 68.63881 67.33742
# Shear Modulus (GPa) = 11.49299 20.82486 16.15892
#
# Velocity S-wave (km/s) = 2.67093 3.59531 3.16703
# Velocity P-wave (km/s) = 7.10642 7.73564 7.42770
#
# Compressibility (1/GPa) = 0.01514325
#
# Stress axis : x y z
#
# Youngs Moduli (GPa) = 83.03209 125.35963 55.93395
#
# Poissons Ratio (x) = 0.08300 0.35783
# Poissons Ratio (y) = 0.05498 0.24154
# Poissons Ratio (z) = 0.53119 0.54134
#
# Static dielectric constant tensor:
#      x y z
#    x 1.554820 0.000000 0.000000 
#    y 0.000000 1.553970 0.000000 
#    z 0.000000 0.000000 1.505990 
# 
# From -- ./inp_files/21142.got.cif
#   From: 2010.05.17/outbox.cif.g08.bks.cpg/sg71_11_cif.got.tgz:21142.got - 2010.06.03 16:22:01.
