data_PCOD9519113
_publ_section_title
;
Structure prediction by ZEFSAII (Michael W. Deem and Ramdas Pophale) SiO2 
 PCOD9519113
Probable space group: I M M M
;
_chemical_formula_sum "Si O2"
_cell_formula_units_Z 80
_cell_length_a 13.061149
_cell_length_b 25.949554
_cell_length_c 13.226727
_cell_angle_alpha 90.000000
_cell_angle_beta 90.000000
_cell_angle_gamma 90.000000
_cell_volume 4482.947693
_symmetry_space_group_name_H-M "I M M M"
_symmetry_group_IT_number 71
_symmetry_cell_setting 'orthorhombic'
loop_
_space_group_symop_operation_xyz
x,y,z
-x,-y,z
x,-y,-z
-x,y,-z
-x,-y,-z
x,y,-z
-x,y,z
x,-y,z
1/2+x,1/2+y,1/2+z
1/2-x,1/2-y,1/2+z
1/2+x,1/2-y,1/2-z
1/2-x,1/2+y,1/2-z
1/2-x,1/2-y,1/2-z
1/2+x,1/2+y,1/2-z
1/2-x,1/2+y,1/2+z
1/2+x,1/2-y,1/2+z
loop_
_atom_site_type_symbol
_atom_site_label
_atom_site_fract_x
_atom_site_fract_y
_atom_site_fract_z
Si Si1 0.384769 0.336895 0.808384
Si Si2 0.615322 0.213652 0.200586
Si Si3 0.728726 0.634905 0.385376
Si Si4 0.332176 0.857077 0.384947
Si Si5 0.117611 0.439563 0.722207
O O1 0.500000 0.349013 0.841377
O O2 0.374658 0.274890 0.800900
O O3 0.360287 0.359688 0.697432
O O4 0.291503 0.356139 0.877223
O O5 0.500000 0.200524 0.167262
O O6 0.699169 0.185112 0.132538
O O7 0.630953 0.189676 0.312583
O O8 0.694587 0.631318 0.500000
O O9 0.802558 0.587773 0.352938
O O10 0.365759 0.853092 0.500000
O O11 0.370047 0.908164 0.327081
O O12 0.137720 0.500000 0.733840
O O13 0.000000 0.433003 0.687721
#
# Coordination Sequence:
#
# PCOD9519113 Si02
#       5
#    16  16  16  16  16
#     4   9  19  34  48  66  96 131 165 198 232 274
#     4   9  18  31  46  68 100 133 160 190 232 280
#     4  10  19  31  49  72  97 125 159 198 237 277
#     4  10  19  31  49  72  97 125 159 198 237 277
#     4   9  19  35  52  72  99 126 151 185 234 290
#
# _framework density 17.845400999999999
#
# number of rings (size 3 to 8) (size 9 to 14) (size 15 to 20)
#    0.000    3.000    0.000    4.800    0.000    8.000 
#    0.000    6.000    0.000    9.600    0.000   11.200 
#    0.000    0.000    0.000    0.000    0.000    0.000 
#
# Total GULP energy -222969.796264 kJ/mol
# GULP energy per Si atom -5574.244907 kJ/mol
# Density = 1.780478 g / cm^3
# Si number density = 17.845401 Si / 1000 Ang^3
#
#
#
# Elastic Constant Matrix: (Units=GPa)
#
#
# Indices 1 2 3 4 5 6 
#
# 1 67.6622 12.2614 -33.5066 0.0000 0.0000 0.0000
# 2 12.2614 65.4690 -3.1553 -0.0001 0.0000 0.0000
# 3 -33.5066 -3.1553 53.6912 -0.0003 -0.0001 0.0000
# 4 0.0000 -0.0001 -0.0003 -1.6286 0.0000 0.0000
# 5 0.0000 0.0000 -0.0001 0.0000 -0.7869 0.0000
# 6 0.0000 0.0000 0.0000 0.0000 0.0000 25.2159
#
#
#
# Elastic Compliance Matrix: (Units=1/GPa)
#
#
# Indices 1 2 3 4 5 6 
#
# 1 0.022158 -0.003493 0.013623 -0.000002 -0.000001 0.000000
# 2 -0.003493 0.015869 -0.001248 -0.000001 0.000000 0.000000
# 3 0.013623 -0.001248 0.027053 -0.000004 -0.000002 0.000000
# 4 -0.000002 -0.000001 -0.000004 -0.614012 0.000014 0.000000
# 5 -0.000001 0.000000 -0.000002 0.000014 -1.270839 0.000000
# 6 0.000000 0.000000 0.000000 0.000000 0.000000 0.039658
#
#
# Mechanical properties :
#
#
# Convention : Reuss Voigt Hill
#
# Bulk Modulus (GPa) = 12.07084 15.33572 13.70328
# Shear Modulus (GPa) = -2.82444 18.64161 7.90858
#
# Velocity S-wave (km/s) = -1.25943 3.23556 2.10745
# Velocity P-wave (km/s) = 2.15961 4.75087 3.69017
#
# Compressibility (1/GPa) = 0.08284425
#
# Stress axis : x y z
#
# Youngs Moduli (GPa) = 45.12948 63.01780 36.96416
#
# Poissons Ratio (x) = 0.22015 -0.50356
# Poissons Ratio (y) = 0.15765 0.04611
# Poissons Ratio (z) = -0.61480 0.07862
#
# Static dielectric constant tensor:
#      x y z
#    x 1.637680 0.000000 0.000000 
#    y 0.000000 1.596110 0.000000 
#    z 0.000000 0.000000 1.601900 
# 
# From -- ./inp_files/32877.got.cif
#   From: 2010.05.17/outbox.cif.g08.bks.cpg/sg71_17_cif.got.tgz:32877.got - 2010.06.03 16:22:01.
