data_PCOD9519112
_publ_section_title
;
Structure prediction by ZEFSAII (Michael W. Deem and Ramdas Pophale) SiO2 
 PCOD9519112
Probable space group: I M M M
;
_chemical_formula_sum "Si O2"
_cell_formula_units_Z 104
_cell_length_a 9.136289
_cell_length_b 32.956516
_cell_length_c 20.640413
_cell_angle_alpha 90.000000
_cell_angle_beta 90.000000
_cell_angle_gamma 90.000000
_cell_volume 6214.833610
_symmetry_space_group_name_H-M "I M M M"
_symmetry_group_IT_number 71
_symmetry_cell_setting 'orthorhombic'
loop_
_space_group_symop_operation_xyz
x,y,z
-x,-y,z
x,-y,-z
-x,y,-z
-x,-y,-z
x,y,-z
-x,y,z
x,-y,z
1/2+x,1/2+y,1/2+z
1/2-x,1/2-y,1/2+z
1/2+x,1/2-y,1/2-z
1/2-x,1/2+y,1/2-z
1/2-x,1/2-y,1/2-z
1/2+x,1/2+y,1/2-z
1/2-x,1/2+y,1/2+z
1/2+x,1/2-y,1/2+z
loop_
_atom_site_type_symbol
_atom_site_label
_atom_site_fract_x
_atom_site_fract_y
_atom_site_fract_z
Si Si1 0.327183 0.155300 0.685282
Si Si2 0.175606 0.135710 0.179151
Si Si3 0.336235 0.500000 0.923703
Si Si4 0.828933 0.562463 0.842264
Si Si5 0.176257 0.280455 0.925572
Si Si6 0.324560 0.455381 0.706862
Si Si7 0.173419 0.693288 0.424262
O O1 0.500000 0.161540 0.700709
O O2 0.237177 0.152569 0.752155
O O3 0.312969 0.110745 0.654071
O O4 0.282653 0.188332 0.631552
O O5 0.213241 0.087523 0.173031
O O6 0.248485 0.161375 0.122282
O O7 0.000000 0.139624 0.178159
O O8 0.500000 0.500000 0.895636
O O9 0.250688 0.460856 0.899142
O O10 0.344070 0.500000 0.000000
O O11 0.754626 0.547759 0.775881
O O12 0.000000 0.552616 0.840977
O O13 0.255421 0.237616 0.914863
O O14 0.000000 0.275157 0.922501
O O15 0.210120 0.293951 0.000000
O O16 0.500000 0.454464 0.716104
O O17 0.288621 0.500000 0.677803
O O18 0.193988 0.682649 0.500000
O O19 0.000000 0.694854 0.411048
#
# Coordination Sequence:
#
# PCOD9519112 Si02
#       7
#    16  16   8  16  16  16  16
#     4   9  19  34  52  77 108 136 167 214 265 309
#     4  10  20  33  53  81 107 136 174 211 254 308
#     4  11  23  35  45  61  91 133 176 215 258 305
#     4  10  19  31  49  72  96 126 166 211 257 303
#     4   9  18  34  55  76 100 136 178 215 258 312
#     4   9  17  31  52  75 102 133 163 201 249 302
#     4  10  21  37  56  77 103 135 170 212 261 311
#
# _framework density 16.734155999999999
#
# number of rings (size 3 to 8) (size 9 to 14) (size 15 to 20)
#    0.000    2.385    0.769    1.615    0.000    4.615 
#    0.000    1.538    0.000    2.308    0.000    3.231 
#    0.000    0.000    0.000    0.000    0.000    0.000 
#
# Total GULP energy -289809.038042 kJ/mol
# GULP energy per Si atom -5573.250732 kJ/mol
# Density = 1.669607 g / cm^3
# Si number density = 16.734156 Si / 1000 Ang^3
#
#
#
# Elastic Constant Matrix: (Units=GPa)
#
#
# Indices 1 2 3 4 5 6 
#
# 1 46.8900 54.4118 47.6993 0.0000 0.0000 0.0000
# 2 54.4118 131.6595 79.6433 0.0000 0.0000 0.0000
# 3 47.6993 79.6433 80.8068 0.0000 0.0000 0.0000
# 4 0.0000 0.0000 0.0000 31.7163 0.0000 0.0000
# 5 0.0000 0.0000 0.0000 0.0000 23.0653 0.0000
# 6 0.0000 0.0000 0.0000 0.0000 0.0000 23.2704
#
#
#
# Elastic Compliance Matrix: (Units=1/GPa)
#
#
# Indices 1 2 3 4 5 6 
#
# 1 0.056485 -0.007862 -0.025594 0.000000 0.000000 0.000000
# 2 -0.007862 0.019904 -0.014977 0.000000 0.000000 0.000000
# 3 -0.025594 -0.014977 0.042244 0.000000 0.000000 0.000000
# 4 0.000000 0.000000 0.000000 0.031529 0.000000 0.000000
# 5 0.000000 0.000000 0.000000 0.000000 0.043355 0.000000
# 6 0.000000 0.000000 0.000000 0.000000 0.000000 0.042973
#
#
# Mechanical properties :
#
#
# Convention : Reuss Voigt Hill
#
# Bulk Modulus (GPa) = 45.93826 69.20725 57.57275
# Shear Modulus (GPa) = 14.67942 20.78387 17.73165
#
# Velocity S-wave (km/s) = 2.96499 3.52803 3.25869
# Velocity P-wave (km/s) = 6.26362 7.61857 6.97408
#
# Compressibility (1/GPa) = 0.02176835
#
# Stress axis : x y z
#
# Youngs Moduli (GPa) = 17.70379 50.24049 23.67180
#
# Poissons Ratio (x) = 0.39498 0.60586
# Poissons Ratio (y) = 0.13918 0.35453
# Poissons Ratio (z) = 0.45311 0.75245
#
# Static dielectric constant tensor:
#      x y z
#    x 1.562540 0.000000 0.000000 
#    y 0.000000 1.578460 0.000000 
#    z 0.000000 0.000000 1.536770 
# 
# From -- ./inp_files/51134.got.cif
#   From: 2010.05.17/outbox.cif.g08.bks.cpg/sg71_26_cif.got.tgz:51134.got - 2010.06.03 16:22:01.
