data_PCOD9519531
_publ_section_title
;
Structure prediction by ZEFSAII (Michael W. Deem and Ramdas Pophale) SiO2 
 PCOD9519531
Probable space group: I M M M
;
_chemical_formula_sum "Si O2"
_cell_formula_units_Z 48
_cell_length_a 8.497204
_cell_length_b 7.783237
_cell_length_c 39.157011
_cell_angle_alpha 90.000000
_cell_angle_beta 90.000000
_cell_angle_gamma 90.000000
_cell_volume 2589.678391
_symmetry_space_group_name_H-M "I M M M"
_symmetry_group_IT_number 71
_symmetry_cell_setting 'orthorhombic'
loop_
_space_group_symop_operation_xyz
x,y,z
-x,-y,z
x,-y,-z
-x,y,-z
-x,-y,-z
x,y,-z
-x,y,z
x,-y,z
1/2+x,1/2+y,1/2+z
1/2-x,1/2-y,1/2+z
1/2+x,1/2-y,1/2-z
1/2-x,1/2+y,1/2-z
1/2-x,1/2-y,1/2-z
1/2+x,1/2+y,1/2-z
1/2-x,1/2+y,1/2+z
1/2+x,1/2-y,1/2+z
loop_
_atom_site_type_symbol
_atom_site_label
_atom_site_fract_x
_atom_site_fract_y
_atom_site_fract_z
Si Si1 0.308867 0.000000 0.411670
Si Si2 0.808271 0.196057 0.038795
Si Si3 0.311095 0.696818 0.712638
Si Si4 0.812895 0.000000 0.665267
O O1 0.257236 0.833127 0.433238
O O2 0.500000 0.000000 0.410404
O O3 0.245726 0.000000 0.373515
O O4 0.000000 0.197429 0.038838
O O5 0.758848 0.000000 0.045786
O O6 0.760238 0.241815 0.000000
O O7 0.500000 0.703701 0.712973
O O8 0.262774 0.500000 0.705471
O O9 0.250000 0.750000 0.750000
O O10 0.248951 0.832460 0.685238
O O11 0.000000 0.000000 0.666463
#
# Coordination Sequence:
#
# PCOD9519531 Si02
#       4
#     8  16  16   8
#     4  10  19  32  52  78 110 146 188 238 288 339
#     4   8  14  26  48  79 110 140 180 233 290 343
#     4  11  23  40  65  91 115 145 186 238 293 348
#     4  12  26  41  57  83 120 162 200 238 287 345
#
# _framework density 18.535119999999999
#
# number of rings (size 3 to 8) (size 9 to 14) (size 15 to 20)
#    0.000    2.000    1.667    4.000    0.000    5.333 
#    0.000    3.333    0.000    2.000    0.000    2.333 
#    0.000    0.000    0.000    0.000    0.000    0.000 
#
# Total GULP energy -134017.811620 kJ/mol
# GULP energy per Si atom -5584.075484 kJ/mol
# Density = 1.849293 g / cm^3
# Si number density = 18.535120 Si / 1000 Ang^3
#
#
#
# Elastic Constant Matrix: (Units=GPa)
#
#
# Indices 1 2 3 4 5 6 
#
# 1 42.6713 47.2217 36.0808 0.0000 0.0000 0.0000
# 2 47.2217 194.7107 137.3680 0.0000 0.0000 0.0000
# 3 36.0808 137.3680 198.3379 0.0000 0.0000 0.0000
# 4 0.0000 0.0000 0.0000 7.2107 0.0000 0.0000
# 5 0.0000 0.0000 0.0000 0.0000 24.9482 0.0000
# 6 0.0000 0.0000 0.0000 0.0000 0.0000 15.2729
#
#
#
# Elastic Compliance Matrix: (Units=1/GPa)
#
#
# Indices 1 2 3 4 5 6 
#
# 1 0.032109 -0.007169 -0.000876 0.000000 0.000000 0.000000
# 2 -0.007169 0.011644 -0.006760 0.000000 0.000000 0.000000
# 3 -0.000876 -0.006760 0.009883 0.000000 0.000000 0.000000
# 4 0.000000 0.000000 0.000000 0.138683 0.000000 0.000000
# 5 0.000000 0.000000 0.000000 0.000000 0.040083 0.000000
# 6 0.000000 0.000000 0.000000 0.000000 0.000000 0.065476
#
#
# Mechanical properties :
#
#
# Convention : Reuss Voigt Hill
#
# Bulk Modulus (GPa) = 41.62190 97.45122 69.53656
# Shear Modulus (GPa) = 14.90321 23.82296 19.36308
#
# Velocity S-wave (km/s) = 2.83866 3.58898 3.23564
# Velocity P-wave (km/s) = 5.76614 8.35853 7.18030
#
# Compressibility (1/GPa) = 0.02402581
#
# Stress axis : x y z
#
# Youngs Moduli (GPa) = 31.14355 85.88134 101.18001
#
# Poissons Ratio (x) = 0.61572 0.08860
# Poissons Ratio (y) = 0.22328 0.68401
# Poissons Ratio (z) = 0.02727 0.58059
#
# Static dielectric constant tensor:
#      x y z
#    x 1.643050 0.000000 0.000000 
#    y 0.000000 1.644350 0.000000 
#    z 0.000000 0.000000 1.597880 
# 
# From -- ./inp_files/67569.got.cif
#   From: 2010.05.17/outbox.cif.g08.bks.cpg/sg71_34_cif.got.tgz:67569.got - 2010.06.03 16:22:01.
