data_PCOD9519233
_publ_section_title
;
Structure prediction by ZEFSAII (Michael W. Deem and Ramdas Pophale) SiO2 
 PCOD9519233
Probable space group: I M M M
;
_chemical_formula_sum "Si O2"
_cell_formula_units_Z 88
_cell_length_a 22.573607
_cell_length_b 23.420286
_cell_length_c 9.526960
_cell_angle_alpha 90.000000
_cell_angle_beta 90.000000
_cell_angle_gamma 90.000000
_cell_volume 5036.716376
_symmetry_space_group_name_H-M "I M M M"
_symmetry_group_IT_number 71
_symmetry_cell_setting 'orthorhombic'
loop_
_space_group_symop_operation_xyz
x,y,z
-x,-y,z
x,-y,-z
-x,y,-z
-x,-y,-z
x,y,-z
-x,y,z
x,-y,z
1/2+x,1/2+y,1/2+z
1/2-x,1/2-y,1/2+z
1/2+x,1/2-y,1/2-z
1/2-x,1/2+y,1/2-z
1/2-x,1/2-y,1/2-z
1/2+x,1/2+y,1/2-z
1/2-x,1/2+y,1/2+z
1/2+x,1/2-y,1/2+z
loop_
_atom_site_type_symbol
_atom_site_label
_atom_site_fract_x
_atom_site_fract_y
_atom_site_fract_z
Si Si1 0.810408 0.238117 0.165480
Si Si2 0.876714 0.123306 0.830872
Si Si3 0.659337 0.134291 0.662975
Si Si4 0.070747 0.566511 0.341836
Si Si5 0.500000 0.567190 0.671776
Si Si6 0.244434 0.934800 0.832384
O O1 0.750000 0.250000 0.250000
O O2 0.849893 0.184535 0.216233
O O3 0.845092 0.297674 0.175874
O O4 0.796110 0.228021 0.000000
O O5 0.824235 0.078385 0.801643
O O6 0.940283 0.100200 0.780806
O O7 0.882171 0.127844 0.000000
O O8 0.667639 0.120273 0.500000
O O9 0.602335 0.104163 0.727186
O O10 0.714469 0.109360 0.750588
O O11 0.089375 0.583350 0.500000
O O12 0.086839 0.500000 0.323980
O O13 0.000000 0.570491 0.334569
O O14 0.500000 0.500000 0.712655
O O15 0.500000 0.567386 0.500000
O O16 0.259460 0.000000 0.795641
O O17 0.252678 0.927862 0.000000
#
# Coordination Sequence:
#
# PCOD9519233 Si02
#       6
#    16  16  16  16   8  16
#     4  10  20  35  53  75 103 140 178 213 259 314
#     4   9  17  31  50  74 105 138 172 216 267 314
#     4  11  22  33  49  77 108 138 173 215 267 321
#     4   9  19  37  58  77 100 135 178 217 257 312
#     4   9  16  28  50  80 109 135 170 221 276 324
#     4  10  19  31  51  77 103 135 175 216 261 316
#
# _framework density 17.471699999999998
#
# number of rings (size 3 to 8) (size 9 to 14) (size 15 to 20)
#    0.000    2.273    1.818    2.182    0.000    6.182 
#    1.636    0.909    0.000    0.000    0.000    1.909 
#    0.000    4.364    0.000    0.000    0.000    0.000 
#
# Total GULP energy -245286.648309 kJ/mol
# GULP energy per Si atom -5574.696552 kJ/mol
# Density = 1.743193 g / cm^3
# Si number density = 17.471700 Si / 1000 Ang^3
#
#
#
# Elastic Constant Matrix: (Units=GPa)
#
#
# Indices 1 2 3 4 5 6 
#
# 1 95.2190 53.4384 20.2325 0.0000 0.0000 0.0000
# 2 53.4384 103.0265 32.9768 0.0000 0.0000 0.0000
# 3 20.2325 32.9768 29.9815 0.0000 0.0000 0.0000
# 4 0.0000 0.0000 0.0000 19.8800 0.0000 0.0000
# 5 0.0000 0.0000 0.0000 0.0000 10.3972 0.0000
# 6 0.0000 0.0000 0.0000 0.0000 0.0000 61.4696
#
#
#
# Elastic Compliance Matrix: (Units=1/GPa)
#
#
# Indices 1 2 3 4 5 6 
#
# 1 0.014926 -0.006973 -0.002403 0.000000 0.000000 0.000000
# 2 -0.006973 0.018237 -0.015354 0.000000 0.000000 0.000000
# 3 -0.002403 -0.015354 0.051864 0.000000 0.000000 0.000000
# 4 0.000000 0.000000 0.000000 0.050302 0.000000 0.000000
# 5 0.000000 0.000000 0.000000 0.000000 0.096179 0.000000
# 6 0.000000 0.000000 0.000000 0.000000 0.000000 0.016268
#
#
# Mechanical properties :
#
#
# Convention : Reuss Voigt Hill
#
# Bulk Modulus (GPa) = 28.11582 49.05802 38.58692
# Shear Modulus (GPa) = 16.17640 26.45465 21.31553
#
# Velocity S-wave (km/s) = 3.04610 3.89542 3.49664
# Velocity P-wave (km/s) = 5.33843 6.95499 6.19963
#
# Compressibility (1/GPa) = 0.03556717
#
# Stress axis : x y z
#
# Youngs Moduli (GPa) = 66.99766 54.83242 19.28129
#
# Poissons Ratio (x) = 0.38233 0.04634
# Poissons Ratio (y) = 0.46715 0.29605
# Poissons Ratio (z) = 0.16101 0.84190
#
# Static dielectric constant tensor:
#      x y z
#    x 1.601210 0.000000 0.000000 
#    y 0.000000 1.602760 0.000000 
#    z 0.000000 0.000000 1.585380 
# 
# From -- ./inp_files/10510.got.cif
#   From: 2010.05.17/outbox.cif.g08.bks.cpg/sg71_6_cif.got.tgz:10510.got - 2010.06.03 16:22:01.
