data_PCOD9519707
_publ_section_title
;
Structure prediction by ZEFSAII (Michael W. Deem and Ramdas Pophale) SiO2 
 PCOD9519707
Probable space group: I M M M
;
_chemical_formula_sum "Si O2"
_cell_formula_units_Z 72
_cell_length_a 32.852980
_cell_length_b 7.670963
_cell_length_c 14.872495
_cell_angle_alpha 90.000000
_cell_angle_beta 90.000000
_cell_angle_gamma 90.000000
_cell_volume 3748.076866
_symmetry_space_group_name_H-M "I M M M"
_symmetry_group_IT_number 71
_symmetry_cell_setting 'orthorhombic'
loop_
_space_group_symop_operation_xyz
x,y,z
-x,-y,z
x,-y,-z
-x,y,-z
-x,-y,-z
x,y,-z
-x,y,z
x,-y,z
1/2+x,1/2+y,1/2+z
1/2-x,1/2-y,1/2+z
1/2+x,1/2-y,1/2-z
1/2-x,1/2+y,1/2-z
1/2-x,1/2-y,1/2-z
1/2+x,1/2+y,1/2-z
1/2-x,1/2+y,1/2+z
1/2+x,1/2-y,1/2+z
loop_
_atom_site_type_symbol
_atom_site_label
_atom_site_fract_x
_atom_site_fract_y
_atom_site_fract_z
Si Si1 0.954339 0.799271 0.300426
Si Si2 0.632618 0.709827 0.197355
Si Si3 0.334240 0.792978 0.000000
Si Si4 0.710119 0.709397 0.308053
Si Si5 0.759477 0.786009 0.000000
Si Si6 0.548059 0.805622 0.000000
O O1 0.911375 0.719938 0.269074
O O2 0.945801 0.794570 0.407732
O O3 0.000000 0.722870 0.285163
O O4 0.956602 0.000000 0.270733
O O5 0.630525 0.500000 0.206649
O O6 0.643382 0.742711 0.092515
O O7 0.670160 0.776639 0.257062
O O8 0.287640 0.725767 0.000000
O O9 0.331416 0.000000 0.000000
O O10 0.706314 0.500000 0.312059
O O11 0.750000 0.750000 0.250000
O O12 0.718265 0.771774 0.409175
O O13 0.758838 0.000000 0.000000
O O14 0.500000 0.832390 0.000000
O O15 0.567473 0.000000 0.000000
#
# Coordination Sequence:
#
# PCOD9519707 Si02
#       6
#    16  16   8  16   8   8
#     4   9  17  29  42  57  82 116 150 183 220 261
#     4  10  20  31  46  68  91 119 156 192 223 262
#     4  11  20  30  46  67  94 126 155 185 225 270
#     4  10  19  33  50  68  91 117 149 185 222 267
#     4   9  18  32  48  66  90 120 148 176 222 272
#     4   9  16  25  38  58  83 113 149 184 217 256
#
# _framework density 19.209851
#
# number of rings (size 3 to 8) (size 9 to 14) (size 15 to 20)
#    0.000    2.333    2.222    1.333    0.000    4.889 
#    0.000    0.556    0.000    0.000    0.000    0.778 
#    0.000    6.222    0.000    0.000    0.000   15.667 
#
# Total GULP energy -200521.984965 kJ/mol
# GULP energy per Si atom -5570.055138 kJ/mol
# Density = 1.916613 g / cm^3
# Si number density = 19.209851 Si / 1000 Ang^3
#
#
#
# Elastic Constant Matrix: (Units=GPa)
#
#
# Indices 1 2 3 4 5 6 
#
# 1 224.0462 5.0632 72.3621 0.0000 0.0000 0.0000
# 2 5.0632 42.6112 -0.8544 0.0000 0.0000 0.0000
# 3 72.3621 -0.8544 102.0884 0.0000 0.0000 0.0000
# 4 0.0000 0.0000 0.0000 -6.2372 0.0000 0.0000
# 5 0.0000 0.0000 0.0000 0.0000 16.7345 0.0000
# 6 0.0000 0.0000 0.0000 0.0000 0.0000 12.1383
#
#
#
# Elastic Compliance Matrix: (Units=1/GPa)
#
#
# Indices 1 2 3 4 5 6 
#
# 1 0.005814 -0.000774 -0.004128 0.000000 0.000000 0.000000
# 2 -0.000774 0.023575 0.000746 0.000000 0.000000 0.000000
# 3 -0.004128 0.000746 0.012727 0.000000 0.000000 0.000000
# 4 0.000000 0.000000 0.000000 -0.160328 0.000000 0.000000
# 5 0.000000 0.000000 0.000000 0.000000 0.059757 0.000000
# 6 0.000000 0.000000 0.000000 0.000000 0.000000 0.082384
#
#
# Mechanical properties :
#
#
# Convention : Reuss Voigt Hill
#
# Bulk Modulus (GPa) = 29.58121 57.98752 43.78437
# Shear Modulus (GPa) = 114.92153 24.00543 69.46348
#
# Velocity S-wave (km/s) = 7.74301 3.53886 6.01987
# Velocity P-wave (km/s) = 9.76582 6.85200 8.43567
#
# Compressibility (1/GPa) = 0.03380524
#
# Stress axis : x y z
#
# Youngs Moduli (GPa) = 172.00025 42.41799 78.57107
#
# Poissons Ratio (x) = 0.03281 0.32430
# Poissons Ratio (y) = 0.13306 -0.05858
# Poissons Ratio (z) = 0.70993 -0.03163
#
# Static dielectric constant tensor:
#      x y z
#    x 1.761770 0.000000 0.000000 
#    y 0.000000 1.732750 0.000000 
#    z 0.000000 0.000000 1.681890 
# 
# From -- ./inp_files/40733.got.cif
#   From: 2010.05.17/outbox.cif.g08.bks.cpg/sg71_21_cif.got.tgz:40733.got - 2010.06.03 16:22:01.
