data_PCOD9519037
_publ_section_title
;
Structure prediction by ZEFSAII (Michael W. Deem and Ramdas Pophale) SiO2 
 PCOD9519037
Probable space group: I M M M
;
_chemical_formula_sum "Si O2"
_cell_formula_units_Z 104
_cell_length_a 23.963705
_cell_length_b 25.272565
_cell_length_c 8.567275
_cell_angle_alpha 90.000000
_cell_angle_beta 90.000000
_cell_angle_gamma 90.000000
_cell_volume 5188.549858
_symmetry_space_group_name_H-M "I M M M"
_symmetry_group_IT_number 71
_symmetry_cell_setting 'orthorhombic'
loop_
_space_group_symop_operation_xyz
x,y,z
-x,-y,z
x,-y,-z
-x,y,-z
-x,-y,-z
x,y,-z
-x,y,z
x,-y,z
1/2+x,1/2+y,1/2+z
1/2-x,1/2-y,1/2+z
1/2+x,1/2-y,1/2-z
1/2-x,1/2+y,1/2-z
1/2-x,1/2-y,1/2-z
1/2+x,1/2+y,1/2-z
1/2-x,1/2+y,1/2+z
1/2+x,1/2-y,1/2+z
loop_
_atom_site_type_symbol
_atom_site_label
_atom_site_fract_x
_atom_site_fract_y
_atom_site_fract_z
Si Si1 0.770577 0.911120 0.324011
Si Si2 0.104802 0.332907 0.680787
Si Si3 0.848801 0.441605 0.311665
Si Si4 0.937842 0.225652 0.812791
Si Si5 0.613981 0.619080 0.688480
Si Si6 0.782826 0.297796 0.177603
Si Si7 0.000000 0.061030 0.190197
O O1 0.773180 0.932072 0.500000
O O2 0.715764 0.934964 0.240809
O O3 0.831203 0.911684 0.246088
O O4 0.755902 0.848947 0.330092
O O5 0.088813 0.336005 0.500000
O O6 0.112301 0.392874 0.745566
O O7 0.070088 0.286028 0.759261
O O8 0.167250 0.311488 0.706424
O O9 0.849304 0.438540 0.500000
O O10 0.868083 0.500000 0.263325
O O11 0.893532 0.180827 0.759290
O O12 0.000000 0.207969 0.765367
O O13 0.935692 0.225435 0.000000
O O14 0.616355 0.619541 0.500000
O O15 0.557094 0.589802 0.738357
O O16 0.750000 0.250000 0.250000
O O17 0.803413 0.287036 0.000000
O O18 0.000000 0.000000 0.239030
O O19 0.000000 0.062601 0.000000
#
# Coordination Sequence:
#
# PCOD9519037 Si02
#       7
#    16  16  16  16  16  16   8
#     4  10  21  33  48  75 107 136 168 210 260 313
#     4  10  20  33  52  79 106 133 172 220 270 324
#     4   9  19  37  58  78 103 138 178 217 262 320
#     4  10  20  35  55  78 107 143 182 224 271 322
#     4  10  19  34  54  76 103 138 181 224 265 309
#     4  10  19  31  47  70 103 138 171 207 255 314
#     4   9  18  34  55  75  95 127 178 229 262 296
#
# _framework density 20.044136000000002
#
# number of rings (size 3 to 8) (size 9 to 14) (size 15 to 20)
#    0.000    2.231    0.769    2.308    0.000    6.769 
#    0.000    1.923    0.000    0.923    0.000    3.231 
#    0.000    0.000    0.000    0.000    0.000    0.000 
#
# Total GULP energy -289758.112815 kJ/mol
# GULP energy per Si atom -5572.271400 kJ/mol
# Density = 1.999851 g / cm^3
# Si number density = 20.044136 Si / 1000 Ang^3
#
#
#
# Elastic Constant Matrix: (Units=GPa)
#
#
# Indices 1 2 3 4 5 6 
#
# 1 36.3772 -3.1761 1.0723 0.0000 0.0000 0.0000
# 2 -3.1761 110.4390 6.9204 0.0000 0.0000 0.0000
# 3 1.0723 6.9204 17.1989 0.0000 0.0000 0.0000
# 4 0.0000 0.0000 0.0000 16.7588 0.0000 0.0000
# 5 0.0000 0.0000 0.0000 0.0000 16.6013 0.0000
# 6 0.0000 0.0000 0.0000 0.0000 0.0000 21.4558
#
#
#
# Elastic Compliance Matrix: (Units=1/GPa)
#
#
# Indices 1 2 3 4 5 6 
#
# 1 0.027632 0.000926 -0.002095 0.000000 0.000000 0.000000
# 2 0.000926 0.009320 -0.003808 0.000000 0.000000 0.000000
# 3 -0.002095 -0.003808 0.059806 0.000000 0.000000 0.000000
# 4 0.000000 0.000000 0.000000 0.059670 0.000000 0.000000
# 5 0.000000 0.000000 0.000000 0.000000 0.060236 0.000000
# 6 0.000000 0.000000 0.000000 0.000000 0.000000 0.046607
#
#
# Mechanical properties :
#
#
# Convention : Reuss Voigt Hill
#
# Bulk Modulus (GPa) = 11.52022 19.29424 15.40723
# Shear Modulus (GPa) = 16.54745 21.57641 19.06193
#
# Velocity S-wave (km/s) = 2.87636 3.28448 3.08717
# Velocity P-wave (km/s) = 4.09770 4.90210 4.51784
#
# Compressibility (1/GPa) = 0.08680392
#
# Stress axis : x y z
#
# Youngs Moduli (GPa) = 36.18950 107.29597 16.72071
#
# Poissons Ratio (x) = -0.09935 0.03504
# Poissons Ratio (y) = -0.03351 0.06367
# Poissons Ratio (z) = 0.07583 0.40857
#
# Static dielectric constant tensor:
#      x y z
#    x 1.675410 0.000000 0.000000 
#    y 0.000000 1.746910 0.000000 
#    z 0.000000 0.000000 1.714990 
# 
# From -- ./inp_files/13302.got.cif
#   From: 2010.05.17/outbox.cif.g08.bks.cpg/sg71_7_cif.got.tgz:13302.got - 2010.06.03 16:22:01.
