data_PCOD9519568
_publ_section_title
;
Structure prediction by ZEFSAII (Michael W. Deem and Ramdas Pophale) SiO2 
 PCOD9519568
Probable space group: I M M M
;
_chemical_formula_sum "Si O2"
_cell_formula_units_Z 72
_cell_length_a 18.215106
_cell_length_b 7.442747
_cell_length_c 24.813363
_cell_angle_alpha 90.000000
_cell_angle_beta 90.000000
_cell_angle_gamma 90.000000
_cell_volume 3363.958181
_symmetry_space_group_name_H-M "I M M M"
_symmetry_group_IT_number 71
_symmetry_cell_setting 'orthorhombic'
loop_
_space_group_symop_operation_xyz
x,y,z
-x,-y,z
x,-y,-z
-x,y,-z
-x,-y,-z
x,y,-z
-x,y,z
x,-y,z
1/2+x,1/2+y,1/2+z
1/2-x,1/2-y,1/2+z
1/2+x,1/2-y,1/2-z
1/2-x,1/2+y,1/2-z
1/2-x,1/2-y,1/2-z
1/2+x,1/2+y,1/2-z
1/2-x,1/2+y,1/2+z
1/2+x,1/2-y,1/2+z
loop_
_atom_site_type_symbol
_atom_site_label
_atom_site_fract_x
_atom_site_fract_y
_atom_site_fract_z
Si Si1 0.500000 0.219869 0.438457
Si Si2 0.163712 0.285287 0.756046
Si Si3 0.144089 0.716224 0.876220
Si Si4 0.795742 0.714156 0.438675
Si Si5 0.915408 0.720058 0.647079
O O1 0.500000 0.277103 0.500000
O O2 0.573632 0.280120 0.408923
O O3 0.500000 0.000000 0.437870
O O4 0.152799 0.500000 0.756712
O O5 0.250000 0.250000 0.750000
O O6 0.142301 0.215300 0.814951
O O7 0.119155 0.219154 0.704100
O O8 0.139944 0.500000 0.873570
O O9 0.219680 0.756987 0.906926
O O10 0.793317 0.784954 0.500000
O O11 0.805413 0.500000 0.442583
O O12 0.862558 0.781124 0.401435
O O13 0.914046 0.500000 0.647184
O O14 0.000000 0.774357 0.641393
#
# Coordination Sequence:
#
# PCOD9519568 Si02
#       5
#     8  16  16  16  16
#     4   9  18  32  49  73 105 135 166 208 251 296
#     4  10  19  32  53  77 101 130 166 207 252 300
#     4  10  20  33  53  78 102 133 171 210 253 303
#     4  10  20  34  53  76 102 134 171 210 254 304
#     4   9  18  32  51  76 105 135 168 210 255 299
#
# _framework density 21.403357
#
# number of rings (size 3 to 8) (size 9 to 14) (size 15 to 20)
#    0.000    2.333    2.222    0.667    1.556    1.778 
#    0.000    2.778    0.000    4.667    0.000    1.556 
#    0.000    0.000    0.000    0.000    0.000    0.000 
#
# Total GULP energy -201120.861409 kJ/mol
# GULP energy per Si atom -5586.690595 kJ/mol
# Density = 2.135464 g / cm^3
# Si number density = 21.403357 Si / 1000 Ang^3
#
#
#
# Elastic Constant Matrix: (Units=GPa)
#
#
# Indices 1 2 3 4 5 6 
#
# 1 197.1537 -0.6280 112.6376 0.0000 0.0000 0.0000
# 2 -0.6280 67.4184 13.3791 0.0000 0.0000 0.0000
# 3 112.6376 13.3791 220.4574 0.0000 0.0000 0.0000
# 4 0.0000 0.0000 0.0000 7.5055 0.0000 0.0000
# 5 0.0000 0.0000 0.0000 0.0000 34.8368 0.0000
# 6 0.0000 0.0000 0.0000 0.0000 0.0000 56.7879
#
#
#
# Elastic Compliance Matrix: (Units=1/GPa)
#
#
# Indices 1 2 3 4 5 6 
#
# 1 0.007206 0.000808 -0.003731 0.000000 0.000000 0.000000
# 2 0.000808 0.015104 -0.001329 0.000000 0.000000 0.000000
# 3 -0.003731 -0.001329 0.006523 0.000000 0.000000 0.000000
# 4 0.000000 0.000000 0.000000 0.133235 0.000000 0.000000
# 5 0.000000 0.000000 0.000000 0.000000 0.028705 0.000000
# 6 0.000000 0.000000 0.000000 0.000000 0.000000 0.017609
#
#
# Mechanical properties :
#
#
# Convention : Reuss Voigt Hill
#
# Bulk Modulus (GPa) = 49.19310 81.75632 65.47471
# Shear Modulus (GPa) = 22.35493 43.80209 33.07851
#
# Velocity S-wave (km/s) = 3.23532 4.52874 3.93553
# Velocity P-wave (km/s) = 6.08195 8.10104 7.16299
#
# Compressibility (1/GPa) = 0.02032805
#
# Stress axis : x y z
#
# Youngs Moduli (GPa) = 138.76771 66.20744 153.30595
#
# Poissons Ratio (x) = -0.05346 0.57197
# Poissons Ratio (y) = -0.11206 0.20378
# Poissons Ratio (z) = 0.51773 0.08800
#
# Static dielectric constant tensor:
#      x y z
#    x 1.706170 0.000000 0.000000 
#    y 0.000000 1.847720 0.000000 
#    z 0.000000 0.000000 1.771050 
# 
# From -- ./inp_files/6038.got.cif
#   From: 2010.05.17/outbox.cif.g08.bks.cpg/sg71_4_cif.got.tgz:6038.got - 2010.06.03 16:22:01.
