data_PCOD9519841
_publ_section_title
;
Structure prediction by ZEFSAII (Michael W. Deem and Ramdas Pophale) SiO2 
 PCOD9519841
Probable space group: I M M M
;
_chemical_formula_sum "Si O2"
_cell_formula_units_Z 90
_cell_length_a 7.397239
_cell_length_b 21.520178
_cell_length_c 28.889037
_cell_angle_alpha 90.000000
_cell_angle_beta 90.000000
_cell_angle_gamma 90.000000
_cell_volume 4598.842911
_symmetry_space_group_name_H-M "I M M M"
_symmetry_group_IT_number 71
_symmetry_cell_setting 'orthorhombic'
loop_
_space_group_symop_operation_xyz
x,y,z
-x,-y,z
x,-y,-z
-x,y,-z
-x,-y,-z
x,y,-z
-x,y,z
x,-y,z
1/2+x,1/2+y,1/2+z
1/2-x,1/2-y,1/2+z
1/2+x,1/2-y,1/2-z
1/2-x,1/2+y,1/2-z
1/2-x,1/2-y,1/2-z
1/2+x,1/2+y,1/2-z
1/2-x,1/2+y,1/2+z
1/2+x,1/2-y,1/2+z
loop_
_atom_site_type_symbol
_atom_site_label
_atom_site_fract_x
_atom_site_fract_y
_atom_site_fract_z
Si Si1 0.219808 0.296789 0.413882
Si Si2 0.718014 0.114294 0.000000
Si Si3 0.000000 0.000000 0.000000
Si Si4 0.282928 0.661592 0.947408
Si Si5 0.279674 0.833082 0.287402
Si Si6 0.209261 0.691069 0.687070
Si Si7 0.285024 0.929875 0.635850
O O1 0.260206 0.343705 0.455083
O O2 0.282938 0.227259 0.426541
O O3 0.287740 0.319127 0.363820
O O4 0.000000 0.293181 0.410781
O O5 0.500000 0.101968 0.000000
O O6 0.841218 0.054178 0.000000
O O7 0.500000 0.666244 0.949754
O O8 0.241964 0.606078 0.912330
O O9 0.217327 0.652788 0.000000
O O10 0.500000 0.831727 0.287289
O O11 0.218771 0.765421 0.304879
O O12 0.216339 0.838955 0.234179
O O13 0.216722 0.886119 0.322516
O O14 0.500000 0.828239 0.814793
O O15 0.500000 0.933975 0.642900
O O16 0.212842 0.000000 0.635465
#
# Coordination Sequence:
#
# PCOD9519841 Si02
#       7
#    16   8   2  16  16  16  16
#     4   9  16  31  56  84 109 141 176 227 286 330
#     4  10  21  41  65  88 122 156 191 234 285 345
#     4  12  26  44  60  98 116 160 200 224 272 370
#     4  10  19  33  53  78 106 135 179 234 277 321
#     4   9  17  29  46  74 103 135 173 223 277 329
#     4   9  16  28  51  78 104 129 172 226 281 332
#     4  10  21  35  48  67 104 151 186 220 274 332
#
# _framework density 19.570141
#
# number of rings (size 3 to 8) (size 9 to 14) (size 15 to 20)
#    0.000    2.489    2.667    0.133    0.000    1.067 
#    3.200    1.778    1.956    0.000    0.000    0.000 
#    0.000    0.000    0.000    0.000    0.000    0.000 
#
# Total GULP energy -250780.685335 kJ/mol
# GULP energy per Si atom -5572.904119 kJ/mol
# Density = 1.952560 g / cm^3
# Si number density = 19.570141 Si / 1000 Ang^3
#
#
#
# Elastic Constant Matrix: (Units=GPa)
#
#
# Indices 1 2 3 4 5 6 
#
# 1 71.8516 3.5988 3.5762 0.0000 0.0000 0.0000
# 2 3.5988 94.6959 57.0571 0.0000 0.0000 0.0000
# 3 3.5762 57.0571 195.9287 0.0000 0.0000 0.0000
# 4 0.0000 0.0000 0.0000 0.9146 0.0000 0.0000
# 5 0.0000 0.0000 0.0000 0.0000 8.0761 0.0000
# 6 0.0000 0.0000 0.0000 0.0000 0.0000 40.4273
#
#
#
# Elastic Compliance Matrix: (Units=1/GPa)
#
#
# Indices 1 2 3 4 5 6 
#
# 1 0.013947 -0.000457 -0.000122 0.000000 0.000000 0.000000
# 2 -0.000457 0.012822 -0.003726 0.000000 0.000000 0.000000
# 3 -0.000122 -0.003726 0.006191 0.000000 0.000000 0.000000
# 4 0.000000 0.000000 0.000000 1.093362 0.000000 0.000000
# 5 0.000000 0.000000 0.000000 0.000000 0.123823 0.000000
# 6 0.000000 0.000000 0.000000 0.000000 0.000000 0.024736
#
#
# Mechanical properties :
#
#
# Convention : Reuss Voigt Hill
#
# Bulk Modulus (GPa) = 41.06460 54.54892 47.80676
# Shear Modulus (GPa) = 3.87115 29.76653 16.81884
#
# Velocity S-wave (km/s) = 1.40797 3.90425 2.93476
# Velocity P-wave (km/s) = 4.86539 6.94682 5.99710
#
# Compressibility (1/GPa) = 0.02435187
#
# Stress axis : x y z
#
# Youngs Moduli (GPa) = 71.70252 77.98899 161.52246
#
# Poissons Ratio (x) = 0.03562 0.01963
# Poissons Ratio (y) = 0.03275 0.60178
# Poissons Ratio (z) = 0.00871 0.29056
#
# Static dielectric constant tensor:
#      x y z
#    x 1.800140 0.000000 0.000000 
#    y 0.000000 1.632430 0.000000 
#    z 0.000000 0.000000 1.712160 
# 
# From -- ./inp_files/55601.got.cif
#   From: 2010.05.17/outbox.cif.g08.bks.cpg/sg71_28_cif.got.tgz:55601.got - 2010.06.03 16:22:01.
