data_PCOD9519196
_publ_section_title
;
Structure prediction by ZEFSAII (Michael W. Deem and Ramdas Pophale) SiO2 
 PCOD9519196
Probable space group: I M M M
;
_chemical_formula_sum "Si O2"
_cell_formula_units_Z 80
_cell_length_a 7.585797
_cell_length_b 26.805096
_cell_length_c 18.621748
_cell_angle_alpha 90.000000
_cell_angle_beta 90.000000
_cell_angle_gamma 90.000000
_cell_volume 3786.509308
_symmetry_space_group_name_H-M "I M M M"
_symmetry_group_IT_number 71
_symmetry_cell_setting 'orthorhombic'
loop_
_space_group_symop_operation_xyz
x,y,z
-x,-y,z
x,-y,-z
-x,y,-z
-x,-y,-z
x,y,-z
-x,y,z
x,-y,z
1/2+x,1/2+y,1/2+z
1/2-x,1/2-y,1/2+z
1/2+x,1/2-y,1/2-z
1/2-x,1/2+y,1/2-z
1/2-x,1/2-y,1/2-z
1/2+x,1/2+y,1/2-z
1/2-x,1/2+y,1/2+z
1/2+x,1/2-y,1/2+z
loop_
_atom_site_type_symbol
_atom_site_label
_atom_site_fract_x
_atom_site_fract_y
_atom_site_fract_z
Si Si1 0.783777 0.500000 0.916745
Si Si2 0.792000 0.098200 0.173692
Si Si3 0.284722 0.308111 0.417040
Si Si4 0.789270 0.500000 0.581979
Si Si5 0.214784 0.696509 0.916458
Si Si6 0.205942 0.598685 0.161604
O O1 0.719569 0.549870 0.877251
O O2 0.000000 0.500000 0.913037
O O3 0.735562 0.500000 0.000000
O O4 0.721597 0.147142 0.132935
O O5 0.764593 0.049372 0.125232
O O6 0.716912 0.092902 0.253191
O O7 0.000000 0.104983 0.183132
O O8 0.232940 0.316317 0.500000
O O9 0.500000 0.308836 0.416033
O O10 0.227389 0.252354 0.395474
O O11 0.720923 0.500000 0.500000
O O12 0.000000 0.500000 0.578796
O O13 0.279329 0.651238 0.867218
O O14 0.000000 0.697828 0.913980
O O15 0.262457 0.687995 0.000000
O O16 0.000000 0.599958 0.141413
#
# Coordination Sequence:
#
# PCOD9519196 Si02
#       6
#     8  16  16   8  16  16
#     4   9  17  30  50  74  96 123 166 215 258 304
#     4  11  22  35  53  77 107 141 173 206 253 316
#     4   8  15  29  49  73 100 132 175 222 259 297
#     4  11  24  41  60  80 102 129 166 215 264 308
#     4   8  14  27  49  75 101 134 180 227 264 300
#     4  10  19  31  50  76 106 137 171 216 265 306
#
# _framework density 21.127637
#
# number of rings (size 3 to 8) (size 9 to 14) (size 15 to 20)
#    0.000    2.600    0.000    3.900    0.000    5.600 
#    0.000    0.000    0.000    4.200    0.000    5.600 
#    0.000    0.000    0.000    0.000    0.000    0.000 
#
# Total GULP energy -223346.286140 kJ/mol
# GULP energy per Si atom -5583.657154 kJ/mol
# Density = 2.107955 g / cm^3
# Si number density = 21.127637 Si / 1000 Ang^3
#
#
#
# Elastic Constant Matrix: (Units=GPa)
#
#
# Indices 1 2 3 4 5 6 
#
# 1 43.7825 -5.0855 -16.9348 0.0000 0.0000 0.0000
# 2 -5.0855 213.6951 120.8445 0.0000 0.0000 0.0000
# 3 -16.9348 120.8445 133.4864 0.0001 -0.0001 0.0000
# 4 0.0000 0.0000 0.0001 11.2892 0.0000 0.0000
# 5 0.0000 0.0000 -0.0001 0.0000 -7.1089 0.0000
# 6 0.0000 0.0000 0.0000 0.0000 0.0000 -31.1335
#
#
#
# Elastic Compliance Matrix: (Units=1/GPa)
#
#
# Indices 1 2 3 4 5 6 
#
# 1 0.024614 -0.002418 0.005312 0.000000 0.000000 0.000000
# 2 -0.002418 0.009826 -0.009202 0.000000 0.000000 0.000000
# 3 0.005312 -0.009202 0.016496 0.000000 0.000000 0.000000
# 4 0.000000 0.000000 0.000000 0.088580 -0.000001 0.000000
# 5 0.000000 0.000000 0.000000 -0.000001 -0.140669 0.000000
# 6 0.000000 0.000000 0.000000 0.000000 0.000000 -0.032120
#
#
# Mechanical properties :
#
#
# Convention : Reuss Voigt Hill
#
# Bulk Modulus (GPa) = 26.09693 65.40137 45.74915
# Shear Modulus (GPa) = -634.20755 14.08536 -310.06109
#
# Velocity S-wave (km/s) = -17.34447 2.58481 -12.12744
# Velocity P-wave (km/s) = 19.71621 6.31909 13.20602
#
# Compressibility (1/GPa) = 0.03831868
#
# Stress axis : x y z
#
# Youngs Moduli (GPa) = 40.62762 101.77403 60.62190
#
# Poissons Ratio (x) = 0.24609 -0.32200
# Poissons Ratio (y) = 0.09824 0.55784
# Poissons Ratio (z) = -0.21580 0.93651
#
# Static dielectric constant tensor:
#      x y z
#    x 1.808480 0.000000 0.000000 
#    y 0.000000 1.757440 0.000000 
#    z 0.000000 0.000000 1.705990 
# 
# From -- ./inp_files/42274.got.cif
#   From: 2010.05.17/outbox.cif.g08.bks.cpg/sg71_22_cif.got.tgz:42274.got - 2010.06.03 16:22:01.
