data_PCOD9519069
_publ_section_title
;
Structure prediction by ZEFSAII (Michael W. Deem and Ramdas Pophale) SiO2 
 PCOD9519069
Probable space group: I M M M
;
_chemical_formula_sum "Si O2"
_cell_formula_units_Z 72
_cell_length_a 15.426009
_cell_length_b 7.425868
_cell_length_c 27.795436
_cell_angle_alpha 90.000000
_cell_angle_beta 90.000000
_cell_angle_gamma 90.000000
_cell_volume 3184.009070
_symmetry_space_group_name_H-M "I M M M"
_symmetry_group_IT_number 71
_symmetry_cell_setting 'orthorhombic'
loop_
_space_group_symop_operation_xyz
x,y,z
-x,-y,z
x,-y,-z
-x,y,-z
-x,-y,-z
x,y,-z
-x,y,z
x,-y,z
1/2+x,1/2+y,1/2+z
1/2-x,1/2-y,1/2+z
1/2+x,1/2-y,1/2-z
1/2-x,1/2+y,1/2-z
1/2-x,1/2-y,1/2-z
1/2+x,1/2+y,1/2-z
1/2-x,1/2+y,1/2+z
1/2+x,1/2-y,1/2+z
loop_
_atom_site_type_symbol
_atom_site_label
_atom_site_fract_x
_atom_site_fract_y
_atom_site_fract_z
Si Si1 0.398839 0.719595 0.500000
Si Si2 0.098027 0.720419 0.372767
Si Si3 0.848504 0.713332 0.734152
Si Si4 0.091076 0.790406 0.836489
Si Si5 0.775707 0.780657 0.088164
O O1 0.402064 0.500000 0.500000
O O2 0.500000 0.778450 0.500000
O O3 0.340739 0.775064 0.454182
O O4 0.097993 0.500000 0.372564
O O5 0.123837 0.779377 0.318447
O O6 0.175822 0.778269 0.408205
O O7 0.000000 0.777423 0.384160
O O8 0.860218 0.500000 0.732443
O O9 0.750000 0.750000 0.750000
O O10 0.902488 0.781577 0.779365
O O11 0.176173 0.720872 0.862820
O O12 0.000000 0.708432 0.852725
O O13 0.088800 0.000000 0.850185
O O14 0.771455 0.000000 0.085867
#
# Coordination Sequence:
#
# PCOD9519069 Si02
#       5
#     8  16  16  16  16
#     4   9  16  26  43  67  94 126 160 199 250 302
#     4   9  17  29  45  64  91 128 162 194 241 295
#     4  11  20  32  49  70  99 133 170 207 246 294
#     4  10  19  31  48  71 100 133 167 205 248 295
#     4   9  16  28  44  66  95 125 161 204 247 294
#
# _framework density 22.612998999999999
#
# number of rings (size 3 to 8) (size 9 to 14) (size 15 to 20)
#    0.000    2.333    2.222    2.000    0.000    4.000 
#    0.000    0.556    0.000    3.333    0.000    0.778 
#    0.000    2.667    0.000    2.000    0.000    2.222 
#
# Total GULP energy -200838.775936 kJ/mol
# GULP energy per Si atom -5578.854887 kJ/mol
# Density = 2.256153 g / cm^3
# Si number density = 22.612999 Si / 1000 Ang^3
#
#
#
# Elastic Constant Matrix: (Units=GPa)
#
#
# Indices 1 2 3 4 5 6 
#
# 1 258.3488 2.6535 78.9018 0.0000 0.0000 0.0000
# 2 2.6535 67.0273 -5.1466 0.0000 0.0000 0.0000
# 3 78.9018 -5.1466 97.7208 0.0000 0.0000 0.0000
# 4 0.0000 0.0000 0.0000 8.0889 0.0000 0.0000
# 5 0.0000 0.0000 0.0000 0.0000 25.3359 0.0000
# 6 0.0000 0.0000 0.0000 0.0000 0.0000 -9.9666
#
#
#
# Elastic Compliance Matrix: (Units=1/GPa)
#
#
# Indices 1 2 3 4 5 6 
#
# 1 0.005156 -0.000526 -0.004191 0.000000 0.000000 0.000000
# 2 -0.000526 0.015034 0.001216 0.000000 0.000000 0.000000
# 3 -0.004191 0.001216 0.013681 0.000000 0.000000 0.000000
# 4 0.000000 0.000000 0.000000 0.123626 0.000000 0.000000
# 5 0.000000 0.000000 0.000000 0.000000 0.039470 0.000000
# 6 0.000000 0.000000 0.000000 0.000000 0.000000 -0.100335
#
#
# Mechanical properties :
#
#
# Convention : Reuss Voigt Hill
#
# Bulk Modulus (GPa) = 37.21627 63.99048 50.60337
# Shear Modulus (GPa) = 44.40960 27.80419 36.10690
#
# Velocity S-wave (km/s) = 4.43640 3.51032 4.00025
# Velocity P-wave (km/s) = 6.53726 6.69248 6.61533
#
# Compressibility (1/GPa) = 0.02686997
#
# Stress axis : x y z
#
# Youngs Moduli (GPa) = 193.94740 66.51809 73.09394
#
# Poissons Ratio (x) = 0.03498 0.30632
# Poissons Ratio (y) = 0.10200 -0.08891
# Poissons Ratio (z) = 0.81279 -0.08091
#
# Static dielectric constant tensor:
#      x y z
#    x 1.867910 0.000000 0.000000 
#    y 0.000000 1.791370 0.000000 
#    z 0.000000 0.000000 1.826160 
# 
# From -- ./inp_files/6043.got.cif
#   From: 2010.05.17/outbox.cif.g08.bks.cpg/sg71_4_cif.got.tgz:6043.got - 2010.06.03 16:22:01.
