data_PCOD9519107
_publ_section_title
;
Structure prediction by ZEFSAII (Michael W. Deem and Ramdas Pophale) SiO2 
 PCOD9519107
Probable space group: I M M M
;
_chemical_formula_sum "Si O2"
_cell_formula_units_Z 104
_cell_length_a 11.475358
_cell_length_b 19.613054
_cell_length_c 26.285894
_cell_angle_alpha 90.000000
_cell_angle_beta 90.000000
_cell_angle_gamma 90.000000
_cell_volume 5916.082472
_symmetry_space_group_name_H-M "I M M M"
_symmetry_group_IT_number 71
_symmetry_cell_setting 'orthorhombic'
loop_
_space_group_symop_operation_xyz
x,y,z
-x,-y,z
x,-y,-z
-x,y,-z
-x,-y,-z
x,y,-z
-x,y,z
x,-y,z
1/2+x,1/2+y,1/2+z
1/2-x,1/2-y,1/2+z
1/2+x,1/2-y,1/2-z
1/2-x,1/2+y,1/2-z
1/2-x,1/2-y,1/2-z
1/2+x,1/2+y,1/2-z
1/2-x,1/2+y,1/2+z
1/2+x,1/2-y,1/2+z
loop_
_atom_site_type_symbol
_atom_site_label
_atom_site_fract_x
_atom_site_fract_y
_atom_site_fract_z
Si Si1 0.629626 0.283763 0.772354
Si Si2 0.635317 0.078115 0.139396
Si Si3 0.000000 0.081678 0.438715
Si Si4 0.635931 0.924122 0.660080
Si Si5 0.694238 0.325052 0.113131
Si Si6 0.707943 0.576128 0.261243
Si Si7 0.139275 0.306594 0.441914
O O1 0.500000 0.251377 0.763603
O O2 0.750000 0.250000 0.750000
O O3 0.645659 0.295135 0.833109
O O4 0.627616 0.359045 0.747663
O O5 0.500000 0.089001 0.154341
O O6 0.717450 0.085928 0.187872
O O7 0.665076 0.131658 0.095882
O O8 0.644992 0.000000 0.121201
O O9 0.891333 0.119156 0.411866
O O10 0.000000 0.093327 0.500000
O O11 0.000000 0.000000 0.430045
O O12 0.500000 0.916004 0.669101
O O13 0.687955 0.864545 0.626025
O O14 0.704187 0.922239 0.713361
O O15 0.656285 0.000000 0.637900
O O16 0.703432 0.261438 0.075774
O O17 0.654633 0.500000 0.262190
O O18 0.164423 0.324172 0.500000
O O19 0.000000 0.291992 0.437954
#
# Coordination Sequence:
#
# PCOD9519107 Si02
#       7
#    16  16   8  16  16  16  16
#     4  11  23  37  54  81 116 155 190 228 278 336
#     4   9  17  30  49  74 104 139 178 219 269 332
#     4  11  22  36  58  84 109 141 189 245 297 344
#     4   9  18  32  51  78 111 146 182 219 267 334
#     4  11  20  35  54  78 109 146 184 229 284 334
#     4   9  18  32  52  77 107 144 181 219 266 322
#     4  10  19  31  49  71  98 133 174 227 283 331
#
# _framework density 17.5792
#
# number of rings (size 3 to 8) (size 9 to 14) (size 15 to 20)
#    0.000    2.077    1.538    2.308    0.000    7.385 
#    0.000    1.538    0.000    1.846    0.000    5.385 
#    0.000    0.000    0.000    9.385    0.000    1.077 
#
# Total GULP energy -289933.692069 kJ/mol
# GULP energy per Si atom -5575.647924 kJ/mol
# Density = 1.753919 g / cm^3
# Si number density = 17.579200 Si / 1000 Ang^3
#
#
#
# Elastic Constant Matrix: (Units=GPa)
#
#
# Indices 1 2 3 4 5 6 
#
# 1 68.1362 21.8294 3.2120 0.0000 0.0000 0.0000
# 2 21.8294 62.7266 21.6658 0.0000 0.0000 0.0000
# 3 3.2120 21.6658 51.2307 0.0000 0.0000 0.0000
# 4 0.0000 0.0000 0.0000 27.8255 0.0000 0.0000
# 5 0.0000 0.0000 0.0000 0.0000 52.8387 0.0000
# 6 0.0000 0.0000 0.0000 0.0000 0.0000 23.4820
#
#
#
# Elastic Compliance Matrix: (Units=1/GPa)
#
#
# Indices 1 2 3 4 5 6 
#
# 1 0.016636 -0.006358 0.001646 0.000000 0.000000 0.000000
# 2 -0.006358 0.021099 -0.008524 0.000000 0.000000 0.000000
# 3 0.001646 -0.008524 0.023021 0.000000 0.000000 0.000000
# 4 0.000000 0.000000 0.000000 0.035938 0.000000 0.000000
# 5 0.000000 0.000000 0.000000 0.000000 0.018926 0.000000
# 6 0.000000 0.000000 0.000000 0.000000 0.000000 0.042586
#
#
# Mechanical properties :
#
#
# Convention : Reuss Voigt Hill
#
# Bulk Modulus (GPa) = 29.16859 30.61199 29.89029
# Shear Modulus (GPa) = 25.49633 29.85499 27.67566
#
# Velocity S-wave (km/s) = 3.81250 4.12553 3.97210
# Velocity P-wave (km/s) = 6.00074 6.33600 6.17065
#
# Compressibility (1/GPa) = 0.03428345
#
# Stress axis : x y z
#
# Youngs Moduli (GPa) = 60.11123 47.39534 43.43785
#
# Poissons Ratio (x) = 0.30133 -0.07149
# Poissons Ratio (y) = 0.38218 0.37028
# Poissons Ratio (z) = -0.09893 0.40402
#
# Static dielectric constant tensor:
#      x y z
#    x 1.603530 0.000000 0.000000 
#    y 0.000000 1.641660 0.000000 
#    z 0.000000 0.000000 1.574770 
# 
# From -- ./inp_files/64652.got.cif
#   From: 2010.05.17/outbox.cif.g08.bks.cpg/sg71_33_cif.got.tgz:64652.got - 2010.06.03 16:22:01.
