data_PCOD9519868
_publ_section_title
;
Structure prediction by ZEFSAII (Michael W. Deem and Ramdas Pophale) SiO2 
 PCOD9519868
Probable space group: I M M M
;
_chemical_formula_sum "Si O2"
_cell_formula_units_Z 88
_cell_length_a 29.612829
_cell_length_b 9.294355
_cell_length_c 17.498743
_cell_angle_alpha 90.000000
_cell_angle_beta 90.000000
_cell_angle_gamma 90.000000
_cell_volume 4816.216576
_symmetry_space_group_name_H-M "I M M M"
_symmetry_group_IT_number 71
_symmetry_cell_setting 'orthorhombic'
loop_
_space_group_symop_operation_xyz
x,y,z
-x,-y,z
x,-y,-z
-x,y,-z
-x,-y,-z
x,y,-z
-x,y,z
x,-y,z
1/2+x,1/2+y,1/2+z
1/2-x,1/2-y,1/2+z
1/2+x,1/2-y,1/2-z
1/2-x,1/2+y,1/2-z
1/2-x,1/2-y,1/2-z
1/2+x,1/2+y,1/2-z
1/2-x,1/2+y,1/2+z
1/2+x,1/2-y,1/2+z
loop_
_atom_site_type_symbol
_atom_site_label
_atom_site_fract_x
_atom_site_fract_y
_atom_site_fract_z
Si Si1 0.947606 0.164745 0.653010
Si Si2 0.679031 0.835379 0.000000
Si Si3 0.071080 0.663644 0.500000
Si Si4 0.412597 0.675317 0.686419
Si Si5 0.500000 0.324501 0.588798
Si Si6 0.189126 0.829618 0.186148
Si Si7 0.778444 0.169286 0.359244
O O1 0.943782 0.255012 0.576339
O O2 0.920898 0.222857 0.726160
O O3 0.000000 0.159768 0.676903
O O4 0.932867 0.000000 0.637306
O O5 0.695916 0.753003 0.074673
O O6 0.625148 0.837039 0.000000
O O7 0.695596 0.000000 0.000000
O O8 0.054698 0.500000 0.500000
O O9 0.414045 0.500000 0.688366
O O10 0.454233 0.721738 0.632841
O O11 0.361657 0.714162 0.663289
O O12 0.500000 0.500000 0.590167
O O13 0.500000 0.280446 0.500000
O O14 0.196479 0.813189 0.277584
O O15 0.228551 0.736484 0.148701
O O16 0.195188 0.000000 0.169105
O O17 0.776235 0.000000 0.375728
#
# Coordination Sequence:
#
# PCOD9519868 Si02
#       7
#    16   8   8  16   8  16  16
#     4  10  19  33  54  77 106 147 191 229 263 308
#     4  11  23  38  54  75 106 141 177 222 274 329
#     4  11  24  36  49  76 112 144 177 225 276 325
#     4   9  16  30  51  77 108 142 182 225 267 315
#     4   9  16  28  48  77 111 138 168 223 278 312
#     4   9  18  33  54  79 108 142 179 220 267 320
#     4  10  20  35  55  78 106 140 179 223 269 320
#
# _framework density 18.271604
#
# number of rings (size 3 to 8) (size 9 to 14) (size 15 to 20)
#    0.000    2.273    0.909    2.455    0.000    5.091 
#    1.636    0.909    0.000    0.000    0.000    0.000 
#    0.000    2.909    0.000    0.000    0.000    0.000 
#
# Total GULP energy -245490.198444 kJ/mol
# GULP energy per Si atom -5579.322692 kJ/mol
# Density = 1.823002 g / cm^3
# Si number density = 18.271604 Si / 1000 Ang^3
#
#
#
# Elastic Constant Matrix: (Units=GPa)
#
#
# Indices 1 2 3 4 5 6 
#
# 1 118.0494 25.0695 22.0577 0.0000 0.0000 0.0000
# 2 25.0695 58.8956 21.4114 0.0000 0.0000 0.0000
# 3 22.0577 21.4114 46.5273 0.0000 0.0000 0.0000
# 4 0.0000 0.0000 0.0000 12.2312 0.0000 0.0000
# 5 0.0000 0.0000 0.0000 0.0000 22.7174 0.0000
# 6 0.0000 0.0000 0.0000 0.0000 0.0000 20.2995
#
#
#
# Elastic Compliance Matrix: (Units=1/GPa)
#
#
# Indices 1 2 3 4 5 6 
#
# 1 0.009704 -0.002952 -0.003242 0.000000 0.000000 0.000000
# 2 -0.002952 0.021289 -0.008397 0.000000 0.000000 0.000000
# 3 -0.003242 -0.008397 0.026894 0.000000 0.000000 0.000000
# 4 0.000000 0.000000 0.000000 0.081758 0.000000 0.000000
# 5 0.000000 0.000000 0.000000 0.000000 0.044019 0.000000
# 6 0.000000 0.000000 0.000000 0.000000 0.000000 0.049262
#
#
# Mechanical properties :
#
#
# Convention : Reuss Voigt Hill
#
# Bulk Modulus (GPa) = 34.83833 40.06105 37.44969
# Shear Modulus (GPa) = 18.40427 21.37852 19.89139
#
# Velocity S-wave (km/s) = 3.17718 3.42430 3.30305
# Velocity P-wave (km/s) = 5.70680 6.13248 5.92347
#
# Compressibility (1/GPa) = 0.02870402
#
# Stress axis : x y z
#
# Youngs Moduli (GPa) = 103.05391 46.97357 37.18290
#
# Poissons Ratio (x) = 0.13866 0.12054
# Poissons Ratio (y) = 0.30420 0.31224
# Poissons Ratio (z) = 0.33409 0.39445
#
# Static dielectric constant tensor:
#      x y z
#    x 1.636330 0.000000 0.000000 
#    y 0.000000 1.609550 0.000000 
#    z 0.000000 0.000000 1.605180 
# 
# From -- ./inp_files/42546.got.cif
#   From: 2010.05.17/outbox.cif.g08.bks.cpg/sg71_22_cif.got.tgz:42546.got - 2010.06.03 16:22:01.
