data_PCOD9519151
_publ_section_title
;
Structure prediction by ZEFSAII (Michael W. Deem and Ramdas Pophale) SiO2 
 PCOD9519151
Probable space group: I M M M
;
_chemical_formula_sum "Si O2"
_cell_formula_units_Z 104
_cell_length_a 31.109523
_cell_length_b 8.424464
_cell_length_c 21.128499
_cell_angle_alpha 90.000000
_cell_angle_beta 90.000000
_cell_angle_gamma 90.000000
_cell_volume 5537.379342
_symmetry_space_group_name_H-M "I M M M"
_symmetry_group_IT_number 71
_symmetry_cell_setting 'orthorhombic'
loop_
_space_group_symop_operation_xyz
x,y,z
-x,-y,z
x,-y,-z
-x,y,-z
-x,-y,-z
x,y,-z
-x,y,z
x,-y,z
1/2+x,1/2+y,1/2+z
1/2-x,1/2-y,1/2+z
1/2+x,1/2-y,1/2-z
1/2-x,1/2+y,1/2-z
1/2-x,1/2-y,1/2-z
1/2+x,1/2+y,1/2-z
1/2-x,1/2+y,1/2+z
1/2+x,1/2-y,1/2+z
loop_
_atom_site_type_symbol
_atom_site_label
_atom_site_fract_x
_atom_site_fract_y
_atom_site_fract_z
Si Si1 0.176532 0.188260 0.000000
Si Si2 0.500000 0.817141 0.077104
Si Si3 0.089893 0.820614 0.576293
Si Si4 0.826243 0.684062 0.378130
Si Si5 0.049523 0.808504 0.926282
Si Si6 0.721833 0.190978 0.000000
Si Si7 0.799339 0.307106 0.242397
Si Si8 0.636212 0.188905 0.629437
O O1 0.157680 0.264146 0.063022
O O2 0.227610 0.210814 0.000000
O O3 0.166824 0.000000 0.000000
O O4 0.457389 0.727247 0.097607
O O5 0.500000 0.000000 0.097098
O O6 0.500000 0.816522 0.000000
O O7 0.090856 0.813330 0.500000
O O8 0.124674 0.700510 0.602283
O O9 0.100788 0.000000 0.595091
O O10 0.813218 0.500000 0.373943
O O11 0.799119 0.757618 0.435877
O O12 0.819797 0.749644 0.308501
O O13 0.087120 0.751303 0.879008
O O14 0.000000 0.759559 0.911476
O O15 0.050368 0.000000 0.926113
O O16 0.058383 0.758700 0.000000
O O17 0.712715 0.000000 0.000000
O O18 0.798352 0.500000 0.238278
O O19 0.750000 0.250000 0.250000
O O20 0.830679 0.253041 0.184733
O O21 0.633495 0.000000 0.636250
#
# Coordination Sequence:
#
# PCOD9519151 Si02
#       8
#     8   8  16  16  16   8  16  16
#     4  11  21  35  56  82 110 146 189 230 274 330
#     4   9  17  29  49  75 103 139 177 212 259 320
#     4  10  19  31  49  78 110 136 167 217 274 321
#     4  10  19  35  56  77 103 141 186 228 272 330
#     4   9  18  34  58  88 118 149 189 234 281 342
#     4   9  18  31  53  79 101 133 185 237 269 314
#     4  10  23  40  58  81 114 152 193 237 285 343
#     4  11  22  36  55  85 119 150 186 236 291 342
#
# _framework density 18.781447
#
# number of rings (size 3 to 8) (size 9 to 14) (size 15 to 20)
#    0.000    2.077    1.538    2.769    0.000    4.923 
#    0.000    2.308    1.692    0.000    0.000    0.000 
#    0.000    0.000    0.000    0.000    0.000    0.000 
#
# Total GULP energy -289751.874475 kJ/mol
# GULP energy per Si atom -5572.151432 kJ/mol
# Density = 1.873870 g / cm^3
# Si number density = 18.781447 Si / 1000 Ang^3
#
#
#
# Elastic Constant Matrix: (Units=GPa)
#
#
# Indices 1 2 3 4 5 6 
#
# 1 108.5088 8.5396 67.6717 0.0000 0.0000 0.0000
# 2 8.5396 19.3684 18.2949 0.0000 0.0000 0.0000
# 3 67.6717 18.2949 113.9381 0.0000 0.0000 0.0000
# 4 0.0000 0.0000 0.0000 8.1893 0.0000 0.0000
# 5 0.0000 0.0000 0.0000 0.0000 -6.1733 0.0000
# 6 0.0000 0.0000 0.0000 0.0000 0.0000 24.8433
#
#
#
# Elastic Compliance Matrix: (Units=1/GPa)
#
#
# Indices 1 2 3 4 5 6 
#
# 1 0.014709 0.002083 -0.009070 0.000000 0.000000 0.000000
# 2 0.002083 0.061156 -0.011057 0.000000 0.000000 0.000000
# 3 -0.009070 -0.011057 0.015939 0.000000 0.000000 0.000000
# 4 0.000000 0.000000 0.000000 0.122110 0.000000 0.000000
# 5 0.000000 0.000000 0.000000 0.000000 -0.161989 0.000000
# 6 0.000000 0.000000 0.000000 0.000000 0.000000 0.040252
#
#
# Mechanical properties :
#
#
# Convention : Reuss Voigt Hill
#
# Bulk Modulus (GPa) = 17.94844 47.86971 32.90908
# Shear Modulus (GPa) = 34.05087 15.19247 24.62167
#
# Velocity S-wave (km/s) = 4.26256 2.84722 3.62464
# Velocity P-wave (km/s) = 5.81404 6.02926 5.92263
#
# Compressibility (1/GPa) = 0.05571513
#
# Stress axis : x y z
#
# Youngs Moduli (GPa) = 67.98688 16.35159 62.73818
#
# Poissons Ratio (x) = -0.03405 0.56906
# Poissons Ratio (y) = -0.14158 0.69367
# Poissons Ratio (z) = 0.61667 0.18079
#
# Static dielectric constant tensor:
#      x y z
#    x 1.683430 0.000000 0.000000 
#    y 0.000000 1.667940 0.000000 
#    z 0.000000 0.000000 1.645400 
# 
# From -- ./inp_files/56754.got.cif
#   From: 2010.05.17/outbox.cif.g08.bks.cpg/sg71_29_cif.got.tgz:56754.got - 2010.06.03 16:22:01.
