data_PCOD9519947
_publ_section_title
;
Structure prediction by ZEFSAII (Michael W. Deem and Ramdas Pophale) SiO2 
 PCOD9519947
Probable space group: I M M M
;
_chemical_formula_sum "Si O2"
_cell_formula_units_Z 104
_cell_length_a 23.064338
_cell_length_b 28.177430
_cell_length_c 8.471401
_cell_angle_alpha 90.000000
_cell_angle_beta 90.000000
_cell_angle_gamma 90.000000
_cell_volume 5505.510729
_symmetry_space_group_name_H-M "I M M M"
_symmetry_group_IT_number 71
_symmetry_cell_setting 'orthorhombic'
loop_
_space_group_symop_operation_xyz
x,y,z
-x,-y,z
x,-y,-z
-x,y,-z
-x,-y,-z
x,y,-z
-x,y,z
x,-y,z
1/2+x,1/2+y,1/2+z
1/2-x,1/2-y,1/2+z
1/2+x,1/2-y,1/2-z
1/2-x,1/2+y,1/2-z
1/2-x,1/2-y,1/2-z
1/2+x,1/2+y,1/2-z
1/2-x,1/2+y,1/2+z
1/2+x,1/2-y,1/2+z
loop_
_atom_site_type_symbol
_atom_site_label
_atom_site_fract_x
_atom_site_fract_y
_atom_site_fract_z
Si Si1 0.608282 0.692785 0.679303
Si Si2 0.840742 0.632424 0.816368
Si Si3 0.133278 0.906451 0.192087
Si Si4 0.934189 0.000000 0.192569
Si Si5 0.253801 0.698188 0.320355
Si Si6 0.744324 0.944625 0.308496
Si Si7 0.933854 0.706226 0.688168
O O1 0.585429 0.695073 0.500000
O O2 0.598221 0.640376 0.749995
O O3 0.678084 0.689156 0.673510
O O4 0.589892 0.741903 0.759460
O O5 0.784347 0.665358 0.790658
O O6 0.815204 0.581991 0.756417
O O7 0.892809 0.662777 0.741410
O O8 0.854595 0.627220 0.000000
O O9 0.199493 0.916137 0.245526
O O10 0.099144 0.953121 0.243327
O O11 0.133787 0.903501 0.000000
O O12 0.000000 0.000000 0.245837
O O13 0.933875 0.000000 0.000000
O O14 0.230796 0.694908 0.500000
O O15 0.250000 0.750000 0.250000
O O16 0.745810 0.942931 0.500000
O O17 0.746964 0.000000 0.259935
O O18 0.934677 0.706161 0.500000
O O19 0.000000 0.700892 0.747218
#
# Coordination Sequence:
#
# PCOD9519947 Si02
#       7
#    16  16  16   8  16  16  16
#     4  10  21  34  53  83 114 148 188 228 276 329
#     4  11  22  36  58  85 112 148 186 226 283 342
#     4  10  19  33  55  82 111 147 191 235 279 327
#     4   9  18  32  51  75 105 145 192 237 274 313
#     4  11  20  31  51  81 114 143 178 222 271 326
#     4  10  21  36  56  85 118 146 177 226 287 343
#     4  11  25  42  59  80 110 150 192 235 282 336
#
# _framework density 18.890163999999999
#
# number of rings (size 3 to 8) (size 9 to 14) (size 15 to 20)
#    0.000    1.615    3.846    1.385    0.000    3.692 
#    0.000    1.538    0.000    1.385    0.000    3.231 
#    0.000    0.000    0.000    0.000    0.000    0.000 
#
# Total GULP energy -289760.982183 kJ/mol
# GULP energy per Si atom -5572.326580 kJ/mol
# Density = 1.884717 g / cm^3
# Si number density = 18.890164 Si / 1000 Ang^3
#
#
#
# Elastic Constant Matrix: (Units=GPa)
#
#
# Indices 1 2 3 4 5 6 
#
# 1 105.7447 47.2360 13.3316 0.0000 0.0000 0.0000
# 2 47.2360 109.5238 14.9708 0.0000 0.0000 0.0000
# 3 13.3316 14.9708 21.6988 0.0000 0.0000 0.0000
# 4 0.0000 0.0000 0.0000 7.8894 0.0000 0.0000
# 5 0.0000 0.0000 0.0000 0.0000 16.6166 0.0000
# 6 0.0000 0.0000 0.0000 0.0000 0.0000 13.4442
#
#
#
# Elastic Compliance Matrix: (Units=1/GPa)
#
#
# Indices 1 2 3 4 5 6 
#
# 1 0.012053 -0.004622 -0.004216 0.000000 0.000000 0.000000
# 2 -0.004622 0.011854 -0.005339 0.000000 0.000000 0.000000
# 3 -0.004216 -0.005339 0.052359 0.000000 0.000000 0.000000
# 4 0.000000 0.000000 0.000000 0.126752 0.000000 0.000000
# 5 0.000000 0.000000 0.000000 0.000000 0.060181 0.000000
# 6 0.000000 0.000000 0.000000 0.000000 0.000000 0.074381
#
#
# Mechanical properties :
#
#
# Convention : Reuss Voigt Hill
#
# Bulk Modulus (GPa) = 20.87156 43.11602 31.99379
# Shear Modulus (GPa) = 13.09229 18.35197 15.72213
#
# Velocity S-wave (km/s) = 2.63549 3.12029 2.88808
# Velocity P-wave (km/s) = 4.50932 5.98796 5.30046
#
# Compressibility (1/GPa) = 0.04791209
#
# Stress axis : x y z
#
# Youngs Moduli (GPa) = 82.96746 84.36316 19.09880
#
# Poissons Ratio (x) = 0.38992 0.08053
# Poissons Ratio (y) = 0.38347 0.10196
# Poissons Ratio (z) = 0.34982 0.45037
#
# Static dielectric constant tensor:
#      x y z
#    x 1.675080 0.000000 0.000000 
#    y 0.000000 1.741940 0.000000 
#    z 0.000000 0.000000 1.664680 
# 
# From -- ./inp_files/13347.got.cif
#   From: 2010.05.17/outbox.cif.g08.bks.cpg/sg71_7_cif.got.tgz:13347.got - 2010.06.03 16:22:01.
