data_PCOD9519502
_publ_section_title
;
Structure prediction by ZEFSAII (Michael W. Deem and Ramdas Pophale) SiO2 
 PCOD9519502
Probable space group: I M M M
;
_chemical_formula_sum "Si O2"
_cell_formula_units_Z 104
_cell_length_a 20.277531
_cell_length_b 8.348282
_cell_length_c 26.754672
_cell_angle_alpha 90.000000
_cell_angle_beta 90.000000
_cell_angle_gamma 90.000000
_cell_volume 4529.099022
_symmetry_space_group_name_H-M "I M M M"
_symmetry_group_IT_number 71
_symmetry_cell_setting 'orthorhombic'
loop_
_space_group_symop_operation_xyz
x,y,z
-x,-y,z
x,-y,-z
-x,y,-z
-x,-y,-z
x,y,-z
-x,y,z
x,-y,z
1/2+x,1/2+y,1/2+z
1/2-x,1/2-y,1/2+z
1/2+x,1/2-y,1/2-z
1/2-x,1/2+y,1/2-z
1/2-x,1/2-y,1/2-z
1/2+x,1/2+y,1/2-z
1/2-x,1/2+y,1/2+z
1/2+x,1/2-y,1/2+z
loop_
_atom_site_type_symbol
_atom_site_label
_atom_site_fract_x
_atom_site_fract_y
_atom_site_fract_z
Si Si1 0.104264 0.312201 0.313323
Si Si2 0.215361 0.691681 0.554157
Si Si3 0.576751 0.000000 0.440921
Si Si4 0.428058 0.311555 0.080868
Si Si5 0.575497 0.326837 0.598685
Si Si6 0.886695 0.813682 0.210940
Si Si7 0.753215 0.805806 0.162987
O O1 0.096658 0.500000 0.324902
O O2 0.074161 0.215391 0.359185
O O3 0.081497 0.275452 0.257477
O O4 0.182323 0.270963 0.313496
O O5 0.237777 0.754979 0.500000
O O6 0.223564 0.500000 0.553977
O O7 0.137114 0.726856 0.560073
O O8 0.248821 0.751250 0.605437
O O9 0.606743 0.166761 0.422809
O O10 0.500000 0.000000 0.421953
O O11 0.575050 0.000000 0.500000
O O12 0.500000 0.254063 0.063066
O O13 0.422818 0.500000 0.069849
O O14 0.500000 0.333250 0.580145
O O15 0.607000 0.500000 0.586498
O O16 0.575210 0.311835 0.658503
O O17 0.814970 0.745517 0.194698
O O18 0.880065 0.000000 0.225994
O O19 0.760207 0.000000 0.161740
#
# Coordination Sequence:
#
# PCOD9519502 Si02
#       7
#    16  16   8  16  16  16  16
#     4  10  20  33  52  77 103 136 177 219 263 315
#     4   9  18  34  56  79 105 138 176 222 271 318
#     4   9  18  34  56  76 100 136 172 214 262 310
#     4  10  21  36  53  75 106 141 178 221 265 318
#     4   9  19  34  52  78 109 139 176 220 267 324
#     4  10  19  32  52  76 106 142 175 213 266 321
#     4   8  16  32  51  75 104 135 176 218 260 315
#
# _framework density 22.962624000000002
#
# number of rings (size 3 to 8) (size 9 to 14) (size 15 to 20)
#    0.000    2.692    0.000    2.308    1.077    2.769 
#    0.000    8.462    0.000    2.769    0.000    0.000 
#    0.000    0.000    0.000    0.000    0.000    0.000 
#
# Total GULP energy -290240.632634 kJ/mol
# GULP energy per Si atom -5581.550628 kJ/mol
# Density = 2.291036 g / cm^3
# Si number density = 22.962624 Si / 1000 Ang^3
#
#
#
# Elastic Constant Matrix: (Units=GPa)
#
#
# Indices 1 2 3 4 5 6 
#
# 1 76.0664 2.5397 -8.0226 0.0000 0.0000 0.0000
# 2 2.5397 72.3067 23.7812 0.0000 0.0000 0.0000
# 3 -8.0226 23.7812 106.3189 0.0000 0.0000 0.0000
# 4 0.0000 0.0000 0.0000 34.7680 0.0000 0.0000
# 5 0.0000 0.0000 0.0000 0.0000 15.5897 0.0000
# 6 0.0000 0.0000 0.0000 0.0000 0.0000 13.1470
#
#
#
# Elastic Compliance Matrix: (Units=1/GPa)
#
#
# Indices 1 2 3 4 5 6 
#
# 1 0.013301 -0.000861 0.001196 0.000000 0.000000 0.000000
# 2 -0.000861 0.014984 -0.003417 0.000000 0.000000 0.000000
# 3 0.001196 -0.003417 0.010260 0.000000 0.000000 0.000000
# 4 0.000000 0.000000 0.000000 0.028762 0.000000 0.000000
# 5 0.000000 0.000000 0.000000 0.000000 0.064145 0.000000
# 6 0.000000 0.000000 0.000000 0.000000 0.000000 0.076063
#
#
# Mechanical properties :
#
#
# Convention : Reuss Voigt Hill
#
# Bulk Modulus (GPa) = 30.87997 32.36540 31.62269
# Shear Modulus (GPa) = 22.27456 28.46053 25.36754
#
# Velocity S-wave (km/s) = 3.11792 3.52437 3.32736
# Velocity P-wave (km/s) = 5.14189 5.53959 5.34444
#
# Compressibility (1/GPa) = 0.03238345
#
# Stress axis : x y z
#
# Youngs Moduli (GPa) = 75.18061 66.73839 97.46468
#
# Poissons Ratio (x) = 0.05744 -0.11659
# Poissons Ratio (y) = 0.06470 0.33299
# Poissons Ratio (z) = -0.08993 0.22801
#
# Static dielectric constant tensor:
#      x y z
#    x 1.892640 0.000000 0.000000 
#    y 0.000000 1.851360 0.000000 
#    z 0.000000 0.000000 1.853350 
# 
# From -- ./inp_files/61936.got.cif
#   From: 2010.05.17/outbox.cif.g08.bks.cpg/sg71_31_cif.got.tgz:61936.got - 2010.06.03 16:22:01.
