data_PCOD9519865
_publ_section_title
;
Structure prediction by ZEFSAII (Michael W. Deem and Ramdas Pophale) SiO2 
 PCOD9519865
Probable space group: I M M M
;
_chemical_formula_sum "Si O2"
_cell_formula_units_Z 104
_cell_length_a 14.194635
_cell_length_b 31.370837
_cell_length_c 14.175242
_cell_angle_alpha 90.000000
_cell_angle_beta 90.000000
_cell_angle_gamma 90.000000
_cell_volume 6312.200971
_symmetry_space_group_name_H-M "I M M M"
_symmetry_group_IT_number 71
_symmetry_cell_setting 'orthorhombic'
loop_
_space_group_symop_operation_xyz
x,y,z
-x,-y,z
x,-y,-z
-x,y,-z
-x,-y,-z
x,y,-z
-x,y,z
x,-y,z
1/2+x,1/2+y,1/2+z
1/2-x,1/2-y,1/2+z
1/2+x,1/2-y,1/2-z
1/2-x,1/2+y,1/2-z
1/2-x,1/2-y,1/2-z
1/2+x,1/2+y,1/2-z
1/2-x,1/2+y,1/2+z
1/2+x,1/2-y,1/2+z
loop_
_atom_site_type_symbol
_atom_site_label
_atom_site_fract_x
_atom_site_fract_y
_atom_site_fract_z
Si Si1 0.614337 0.500000 0.392074
Si Si2 0.111999 0.748017 0.108437
Si Si3 0.804551 0.049247 0.390135
Si Si4 0.223365 0.163891 0.111847
Si Si5 0.389863 0.169949 0.745020
Si Si6 0.605939 0.088193 0.610006
Si Si7 0.112400 0.087287 0.210588
O O1 0.500000 0.500000 0.391635
O O2 0.646287 0.500000 0.500000
O O3 0.643166 0.456665 0.340524
O O4 0.169443 0.791205 0.124187
O O5 0.136478 0.710926 0.181684
O O6 0.000000 0.756622 0.117054
O O7 0.128536 0.733810 0.000000
O O8 0.825030 0.058145 0.500000
O O9 0.692472 0.056125 0.375978
O O10 0.857895 0.080350 0.318919
O O11 0.830304 0.000000 0.371475
O O12 0.322601 0.166251 0.165475
O O13 0.163209 0.126692 0.161222
O O14 0.232277 0.155913 0.000000
O O15 0.500000 0.173728 0.770712
O O16 0.380549 0.128368 0.678508
O O17 0.609904 0.102059 0.500000
O O18 0.500000 0.070800 0.625629
O O19 0.000000 0.091652 0.202190
#
# Coordination Sequence:
#
# PCOD9519865 Si02
#       7
#     8  16  16  16  16  16  16
#     4   9  18  32  51  73  94 125 173 221 257 292
#     4   9  18  33  54  80 105 130 166 212 259 306
#     4  10  20  34  53  78 107 137 169 208 261 321
#     4  11  22  35  52  76 105 138 176 216 257 301
#     4  10  19  33  54  77 104 136 170 210 257 308
#     4   9  17  31  53  79 103 130 168 213 257 302
#     4  11  21  35  53  74 102 136 174 216 261 307
#
# _framework density 16.476026999999998
#
# number of rings (size 3 to 8) (size 9 to 14) (size 15 to 20)
#    0.000    2.077    2.308    1.846    0.000    4.308 
#    0.000    2.308    0.000    0.000    0.000    2.154 
#    0.000    4.923    0.000    0.000    0.000    0.000 
#
# Total GULP energy -289987.980468 kJ/mol
# GULP energy per Si atom -5576.691932 kJ/mol
# Density = 1.643853 g / cm^3
# Si number density = 16.476027 Si / 1000 Ang^3
#
#
#
# Elastic Constant Matrix: (Units=GPa)
#
#
# Indices 1 2 3 4 5 6 
#
# 1 61.8957 33.6011 48.5392 0.0000 0.0000 0.0000
# 2 33.6011 62.7587 44.8761 0.0000 0.0000 0.0000
# 3 48.5392 44.8761 100.7190 0.0001 -0.0001 0.0000
# 4 0.0000 0.0000 0.0001 27.7738 0.0000 0.0000
# 5 0.0000 0.0000 -0.0001 0.0000 26.3431 0.0000
# 6 0.0000 0.0000 0.0000 0.0000 0.0000 20.3606
#
#
#
# Elastic Compliance Matrix: (Units=1/GPa)
#
#
# Indices 1 2 3 4 5 6 
#
# 1 0.028449 -0.007966 -0.010161 0.000000 0.000000 0.000000
# 2 -0.007966 0.025615 -0.007574 0.000000 0.000000 0.000000
# 3 -0.010161 -0.007574 0.018200 0.000000 0.000000 0.000000
# 4 0.000000 0.000000 0.000000 0.036005 0.000000 0.000000
# 5 0.000000 0.000000 0.000000 0.000000 0.037961 0.000000
# 6 0.000000 0.000000 0.000000 0.000000 0.000000 0.049114
#
#
# Mechanical properties :
#
#
# Convention : Reuss Voigt Hill
#
# Bulk Modulus (GPa) = 47.93360 53.26737 50.60049
# Shear Modulus (GPa) = 19.70833 21.45265 20.58049
#
# Velocity S-wave (km/s) = 3.46234 3.61231 3.53812
# Velocity P-wave (km/s) = 6.71862 7.05683 6.88980
#
# Compressibility (1/GPa) = 0.02086219
#
# Stress axis : x y z
#
# Youngs Moduli (GPa) = 35.15051 39.04001 54.94463
#
# Poissons Ratio (x) = 0.31099 0.55830
# Poissons Ratio (y) = 0.28001 0.41614
# Poissons Ratio (z) = 0.35717 0.29568
#
# Static dielectric constant tensor:
#      x y z
#    x 1.545580 0.000000 0.000000 
#    y 0.000000 1.533990 0.000000 
#    z 0.000000 0.000000 1.548530 
# 
# From -- ./inp_files/22674.got.cif
#   From: 2010.05.17/outbox.cif.g08.bks.cpg/sg71_12_cif.got.tgz:22674.got - 2010.06.03 16:22:01.
