data_PCOD9519630
_publ_section_title
;
Structure prediction by ZEFSAII (Michael W. Deem and Ramdas Pophale) SiO2 
 PCOD9519630
Probable space group: I M M M
;
_chemical_formula_sum "Si O2"
_cell_formula_units_Z 104
_cell_length_a 27.668809
_cell_length_b 12.243603
_cell_length_c 18.001192
_cell_angle_alpha 90.000000
_cell_angle_beta 90.000000
_cell_angle_gamma 90.000000
_cell_volume 6098.190241
_symmetry_space_group_name_H-M "I M M M"
_symmetry_group_IT_number 71
_symmetry_cell_setting 'orthorhombic'
loop_
_space_group_symop_operation_xyz
x,y,z
-x,-y,z
x,-y,-z
-x,y,-z
-x,-y,-z
x,y,-z
-x,y,z
x,-y,z
1/2+x,1/2+y,1/2+z
1/2-x,1/2-y,1/2+z
1/2+x,1/2-y,1/2-z
1/2-x,1/2+y,1/2-z
1/2-x,1/2-y,1/2-z
1/2+x,1/2+y,1/2-z
1/2-x,1/2+y,1/2+z
1/2+x,1/2-y,1/2+z
loop_
_atom_site_type_symbol
_atom_site_label
_atom_site_fract_x
_atom_site_fract_y
_atom_site_fract_z
Si Si1 0.788195 0.373228 0.305462
Si Si2 0.944825 0.500000 0.587169
Si Si3 0.266095 0.375216 0.000000
Si Si4 0.888573 0.714666 0.361970
Si Si5 0.618027 0.627466 0.000000
Si Si6 0.115066 0.627244 0.085439
Si Si7 0.788519 0.280002 0.140739
Si Si8 0.943083 0.628098 0.770012
O O1 0.796855 0.500000 0.319003
O O2 0.832068 0.306528 0.343991
O O3 0.788161 0.349178 0.217226
O O4 0.736484 0.333554 0.336251
O O5 0.950523 0.500000 0.500000
O O6 0.914190 0.393131 0.605859
O O7 0.000000 0.500000 0.618418
O O8 0.323711 0.369418 0.000000
O O9 0.244747 0.324148 0.925481
O O10 0.250282 0.500000 0.000000
O O11 0.896280 0.808672 0.423759
O O12 0.914629 0.714625 0.281304
O O13 0.602707 0.500000 0.000000
O O14 0.132519 0.500000 0.092202
O O15 0.157756 0.708717 0.109078
O O16 0.072685 0.640166 0.144828
O O17 0.101237 0.643422 0.000000
O O18 0.930195 0.500000 0.750486
O O19 0.000000 0.641233 0.761124
#
# Coordination Sequence:
#
# PCOD9519630 Si02
#       8
#    16   8   8  16   8  16  16  16
#     4  11  22  35  53  80 112 147 185 235 283 331
#     4  11  22  34  58  88 109 139 187 245 297 345
#     4  11  20  34  54  74 106 148 192 219 260 330
#     4  12  20  37  58  81 114 147 190 238 289 342
#     4  11  26  41  55  82 115 154 193 238 285 343
#     4  10  19  32  54  81 115 155 189 225 271 334
#     4  11  21  33  51  79 110 149 188 220 272 331
#     4  10  20  34  56  86 115 145 185 236 292 342
#
# _framework density 17.054238999999999
#
# number of rings (size 3 to 8) (size 9 to 14) (size 15 to 20)
#    0.000    1.154    6.154    1.846    0.000    0.308 
#    0.000    2.692    0.000    3.692    0.000    0.000 
#    0.000    0.000    0.000    2.769    0.000    0.308 
#
# Total GULP energy -289750.137614 kJ/mol
# GULP energy per Si atom -5572.118031 kJ/mol
# Density = 1.701542 g / cm^3
# Si number density = 17.054239 Si / 1000 Ang^3
#
#
#
# Elastic Constant Matrix: (Units=GPa)
#
#
# Indices 1 2 3 4 5 6 
#
# 1 57.5938 19.2579 26.6135 0.0000 0.0000 0.0000
# 2 19.2579 68.1102 44.3025 0.0000 0.0000 0.0000
# 3 26.6135 44.3025 131.6857 0.0000 0.0000 0.0000
# 4 0.0000 0.0000 0.0000 17.6232 0.0000 0.0000
# 5 0.0000 0.0000 0.0000 0.0000 32.6476 0.0000
# 6 0.0000 0.0000 0.0000 0.0000 0.0000 14.2381
#
#
#
# Elastic Compliance Matrix: (Units=1/GPa)
#
#
# Indices 1 2 3 4 5 6 
#
# 1 0.019913 -0.003856 -0.002727 0.000000 0.000000 0.000000
# 2 -0.003856 0.019542 -0.005795 0.000000 0.000000 0.000000
# 3 -0.002727 -0.005795 0.010095 0.000000 0.000000 0.000000
# 4 0.000000 0.000000 0.000000 0.056743 0.000000 0.000000
# 5 0.000000 0.000000 0.000000 0.000000 0.030630 0.000000
# 6 0.000000 0.000000 0.000000 0.000000 0.000000 0.070234
#
#
# Mechanical properties :
#
#
# Convention : Reuss Voigt Hill
#
# Bulk Modulus (GPa) = 40.33525 48.63749 44.48637
# Shear Modulus (GPa) = 20.81794 24.04950 22.43372
#
# Velocity S-wave (km/s) = 3.49763 3.75931 3.63083
# Velocity P-wave (km/s) = 6.32564 6.88654 6.61204
#
# Compressibility (1/GPa) = 0.02479221
#
# Stress axis : x y z
#
# Youngs Moduli (GPa) = 50.21960 51.17220 99.06364
#
# Poissons Ratio (x) = 0.19735 0.27013
# Poissons Ratio (y) = 0.19367 0.57407
# Poissons Ratio (z) = 0.13694 0.29654
#
# Static dielectric constant tensor:
#      x y z
#    x 1.578470 0.000000 0.000000 
#    y 0.000000 1.563390 0.000000 
#    z 0.000000 0.000000 1.664830 
# 
# From -- ./inp_files/48891.got.cif
#   From: 2010.05.17/outbox.cif.g08.bks.cpg/sg71_25_cif.got.tgz:48891.got - 2010.06.03 16:22:01.
