data_PCOD9519679
_publ_section_title
;
Structure prediction by ZEFSAII (Michael W. Deem and Ramdas Pophale) SiO2 
 PCOD9519679
Probable space group: I M M M
;
_chemical_formula_sum "Si O2"
_cell_formula_units_Z 92
_cell_length_a 22.802291
_cell_length_b 26.566463
_cell_length_c 7.496500
_cell_angle_alpha 90.000000
_cell_angle_beta 90.000000
_cell_angle_gamma 90.000000
_cell_volume 4541.201434
_symmetry_space_group_name_H-M "I M M M"
_symmetry_group_IT_number 71
_symmetry_cell_setting 'orthorhombic'
loop_
_space_group_symop_operation_xyz
x,y,z
-x,-y,z
x,-y,-z
-x,y,-z
-x,-y,-z
x,y,-z
-x,y,z
x,-y,z
1/2+x,1/2+y,1/2+z
1/2-x,1/2-y,1/2+z
1/2+x,1/2-y,1/2-z
1/2-x,1/2+y,1/2-z
1/2-x,1/2-y,1/2-z
1/2+x,1/2+y,1/2-z
1/2-x,1/2+y,1/2+z
1/2+x,1/2-y,1/2+z
loop_
_atom_site_type_symbol
_atom_site_label
_atom_site_fract_x
_atom_site_fract_y
_atom_site_fract_z
Si Si1 0.870077 0.825996 0.716106
Si Si2 0.931839 0.926277 0.795206
Si Si3 0.429633 0.060477 0.000000
Si Si4 0.565669 0.772533 0.214844
Si Si5 0.112453 0.000000 0.500000
Si Si6 0.242547 0.309799 0.213220
Si Si7 0.127792 0.629358 0.203863
O O1 0.871913 0.826293 0.500000
O O2 0.914260 0.868075 0.782377
O O3 0.889807 0.770535 0.774201
O O4 0.803366 0.834875 0.774129
O O5 0.892833 0.956598 0.656433
O O6 0.000000 0.934243 0.743464
O O7 0.925074 0.942128 0.000000
O O8 0.397225 0.085943 0.169426
O O9 0.500000 0.072381 0.000000
O O10 0.423936 0.000000 0.000000
O O11 0.500000 0.755923 0.256209
O O12 0.580065 0.826105 0.296081
O O13 0.570404 0.777898 0.000000
O O14 0.250000 0.250000 0.250000
O O15 0.185671 0.340748 0.276824
O O16 0.239260 0.313297 0.000000
O O17 0.138270 0.612266 0.000000
#
# Coordination Sequence:
#
# PCOD9519679 Si02
#       7
#    16  16   8  16   4  16  16
#     4  10  20  36  58  86 125 168 209 253 308 376
#     4  11  23  38  60  89 118 158 212 263 320 380
#     4  11  26  48  73  98 125 168 227 283 337 396
#     4  10  19  32  55  89 129 168 204 246 305 378
#     4  12  23  42  66  82 116 164 206 268 327 368
#     4  10  21  36  61  94 129 172 214 249 305 383
#     4  11  23  40  65  98 134 169 209 265 326 389
#
# _framework density 20.258956000000001
#
# number of rings (size 3 to 8) (size 9 to 14) (size 15 to 20)
#    0.000    1.478    3.478    2.087    1.217    4.522 
#    0.000    0.870    1.913    0.000    0.000    0.000 
#    0.000    0.000    0.000    0.000    0.000    0.000 
#
# Total GULP energy -256360.463135 kJ/mol
# GULP energy per Si atom -5573.053546 kJ/mol
# Density = 2.021285 g / cm^3
# Si number density = 20.258956 Si / 1000 Ang^3
#
#
#
# Elastic Constant Matrix: (Units=GPa)
#
#
# Indices 1 2 3 4 5 6 
#
# 1 95.8590 23.6452 24.7802 0.0000 0.0000 0.0000
# 2 23.6452 108.4959 31.2954 0.0000 0.0000 0.0000
# 3 24.7802 31.2954 93.4881 0.0000 0.0000 0.0000
# 4 0.0000 0.0000 0.0000 10.7954 0.0000 0.0000
# 5 0.0000 0.0000 0.0000 0.0000 15.6102 0.0000
# 6 0.0000 0.0000 0.0000 0.0000 0.0000 22.5686
#
#
#
# Elastic Compliance Matrix: (Units=1/GPa)
#
#
# Indices 1 2 3 4 5 6 
#
# 1 0.011509 -0.001802 -0.002447 0.000000 0.000000 0.000000
# 2 -0.001802 0.010484 -0.003032 0.000000 0.000000 0.000000
# 3 -0.002447 -0.003032 0.012360 0.000000 0.000000 0.000000
# 4 0.000000 0.000000 0.000000 0.092632 0.000000 0.000000
# 5 0.000000 0.000000 0.000000 0.000000 0.064061 0.000000
# 6 0.000000 0.000000 0.000000 0.000000 0.000000 0.044309
#
#
# Mechanical properties :
#
#
# Convention : Reuss Voigt Hill
#
# Bulk Modulus (GPa) = 50.52923 50.80940 50.66932
# Shear Modulus (GPa) = 19.49198 24.33631 21.91414
#
# Velocity S-wave (km/s) = 3.10521 3.46968 3.29249
# Velocity P-wave (km/s) = 6.15242 6.41763 6.28642
#
# Compressibility (1/GPa) = 0.01979052
#
# Stress axis : x y z
#
# Youngs Moduli (GPa) = 86.88691 95.38089 80.90497
#
# Poissons Ratio (x) = 0.17191 0.19800
# Poissons Ratio (y) = 0.15660 0.24530
# Poissons Ratio (z) = 0.21264 0.28919
#
# Static dielectric constant tensor:
#      x y z
#    x 1.753930 0.000000 0.000000 
#    y 0.000000 1.712660 0.000000 
#    z 0.000000 0.000000 1.758540 
# 
# From -- ./inp_files/12887.got.cif
#   From: 2010.05.17/outbox.cif.g08.bks.cpg/sg71_7_cif.got.tgz:12887.got - 2010.06.03 16:22:01.
