data_PCOD9519296
_publ_section_title
;
Structure prediction by ZEFSAII (Michael W. Deem and Ramdas Pophale) SiO2 
 PCOD9519296
Probable space group: I M M M
;
_chemical_formula_sum "Si O2"
_cell_formula_units_Z 72
_cell_length_a 25.493638
_cell_length_b 7.865814
_cell_length_c 17.388223
_cell_angle_alpha 90.000000
_cell_angle_beta 90.000000
_cell_angle_gamma 90.000000
_cell_volume 3486.829315
_symmetry_space_group_name_H-M "I M M M"
_symmetry_group_IT_number 71
_symmetry_cell_setting 'orthorhombic'
loop_
_space_group_symop_operation_xyz
x,y,z
-x,-y,z
x,-y,-z
-x,y,-z
-x,-y,-z
x,y,-z
-x,y,z
x,-y,z
1/2+x,1/2+y,1/2+z
1/2-x,1/2-y,1/2+z
1/2+x,1/2-y,1/2-z
1/2-x,1/2+y,1/2-z
1/2-x,1/2-y,1/2-z
1/2+x,1/2+y,1/2-z
1/2-x,1/2+y,1/2+z
1/2+x,1/2-y,1/2+z
loop_
_atom_site_type_symbol
_atom_site_label
_atom_site_fract_x
_atom_site_fract_y
_atom_site_fract_z
Si Si1 0.739151 0.792100 0.915107
Si Si2 0.059513 0.292586 0.587118
Si Si3 0.059077 0.299927 0.000000
Si Si4 0.650490 0.206154 0.200873
Si Si5 0.645131 0.699699 0.621862
O O1 0.702819 0.736463 0.844323
O O2 0.798838 0.729685 0.906995
O O3 0.739261 0.000000 0.912843
O O4 0.718556 0.744930 0.000000
O O5 0.072377 0.239511 0.500000
O O6 0.060177 0.500000 0.587145
O O7 0.101729 0.236411 0.648775
O O8 0.000000 0.239743 0.604599
O O9 0.094749 0.259056 0.925685
O O10 0.052855 0.500000 0.000000
O O11 0.000000 0.223441 0.000000
O O12 0.643926 0.267243 0.287443
O O13 0.651121 0.000000 0.202597
O O14 0.647607 0.500000 0.607506
#
# Coordination Sequence:
#
# PCOD9519296 Si02
#       5
#    16  16   8  16  16
#     4   9  17  32  55  81 111 150 194 237 282 332
#     4   8  14  26  46  74 106 139 179 228 276 319
#     4  11  25  45  67  87 107 139 190 245 292 344
#     4  10  19  31  53  83 113 148 192 237 280 328
#     4  11  22  38  58  81 115 150 183 230 288 349
#
# _framework density 20.649131000000001
#
# number of rings (size 3 to 8) (size 9 to 14) (size 15 to 20)
#    0.000    2.333    1.111    3.000    0.000    4.444 
#    0.000    3.333    0.000    2.000    0.000    1.556 
#    0.000    0.000    0.000    0.000    0.000    0.000 
#
# Total GULP energy -200934.951839 kJ/mol
# GULP energy per Si atom -5581.526440 kJ/mol
# Density = 2.060213 g / cm^3
# Si number density = 20.649131 Si / 1000 Ang^3
#
#
#
# Elastic Constant Matrix: (Units=GPa)
#
#
# Indices 1 2 3 4 5 6 
#
# 1 155.0666 12.2868 97.8112 0.0000 0.0000 0.0000
# 2 12.2868 24.9135 2.3557 0.0000 0.0000 0.0000
# 3 97.8112 2.3557 157.1103 0.0000 0.0000 0.0000
# 4 0.0000 0.0000 0.0000 7.5657 0.0000 0.0000
# 5 0.0000 0.0000 0.0000 0.0000 8.1501 0.0000
# 6 0.0000 0.0000 0.0000 0.0000 0.0000 8.6750
#
#
#
# Elastic Compliance Matrix: (Units=1/GPa)
#
#
# Indices 1 2 3 4 5 6 
#
# 1 0.011177 -0.004861 -0.006886 0.000000 0.000000 0.000000
# 2 -0.004861 0.042310 0.002392 0.000000 0.000000 0.000000
# 3 -0.006886 0.002392 0.010616 0.000000 0.000000 0.000000
# 4 0.000000 0.000000 0.000000 0.132175 0.000000 0.000000
# 5 0.000000 0.000000 0.000000 0.000000 0.122698 0.000000
# 6 0.000000 0.000000 0.000000 0.000000 0.000000 0.115273
#
#
# Mechanical properties :
#
#
# Convention : Reuss Voigt Hill
#
# Bulk Modulus (GPa) = 22.02962 62.44420 42.23691
# Shear Modulus (GPa) = 10.68168 19.85395 15.26782
#
# Velocity S-wave (km/s) = 2.27688 3.10416 2.72213
# Velocity P-wave (km/s) = 4.19571 6.56917 5.51171
#
# Compressibility (1/GPa) = 0.04539342
#
# Stress axis : x y z
#
# Youngs Moduli (GPa) = 89.46692 23.63501 94.19854
#
# Poissons Ratio (x) = 0.11490 0.64862
# Poissons Ratio (y) = 0.43493 -0.22533
# Poissons Ratio (z) = 0.61604 -0.05654
#
# Static dielectric constant tensor:
#      x y z
#    x 1.765780 0.000000 0.000000 
#    y 0.000000 1.748990 0.000000 
#    z 0.000000 0.000000 1.723490 
# 
# From -- ./inp_files/39965.got.cif
#   From: 2010.05.17/outbox.cif.g08.bks.cpg/sg71_20_cif.got.tgz:39965.got - 2010.06.03 16:22:01.
