data_PCOD9519774
_publ_section_title
;
Structure prediction by ZEFSAII (Michael W. Deem and Ramdas Pophale) SiO2 
 PCOD9519774
Probable space group: I M M M
;
_chemical_formula_sum "Si O2"
_cell_formula_units_Z 72
_cell_length_a 16.343915
_cell_length_b 29.031343
_cell_length_c 8.597749
_cell_angle_alpha 90.000000
_cell_angle_beta 90.000000
_cell_angle_gamma 90.000000
_cell_volume 4079.509832
_symmetry_space_group_name_H-M "I M M M"
_symmetry_group_IT_number 71
_symmetry_cell_setting 'orthorhombic'
loop_
_space_group_symop_operation_xyz
x,y,z
-x,-y,z
x,-y,-z
-x,y,-z
-x,-y,-z
x,y,-z
-x,y,z
x,-y,z
1/2+x,1/2+y,1/2+z
1/2-x,1/2-y,1/2+z
1/2+x,1/2-y,1/2-z
1/2-x,1/2+y,1/2-z
1/2-x,1/2-y,1/2-z
1/2+x,1/2+y,1/2-z
1/2-x,1/2+y,1/2+z
1/2+x,1/2-y,1/2+z
loop_
_atom_site_type_symbol
_atom_site_label
_atom_site_fract_x
_atom_site_fract_y
_atom_site_fract_z
Si Si1 0.323450 0.383695 0.812292
Si Si2 0.678432 0.053956 0.188694
Si Si3 0.500000 0.610718 0.820129
Si Si4 0.324650 0.719924 0.314560
Si Si5 0.500000 0.944017 0.819397
Si Si6 0.500000 0.722834 0.179726
O O1 0.249933 0.415479 0.757614
O O2 0.411869 0.402598 0.753454
O O3 0.314197 0.332096 0.748047
O O4 0.326511 0.381298 0.000000
O O5 0.588119 0.069573 0.246655
O O6 0.689037 0.000000 0.228165
O O7 0.678671 0.057041 0.000000
O O8 0.500000 0.666707 0.817206
O O9 0.500000 0.595616 0.000000
O O10 0.323044 0.719834 0.500000
O O11 0.250000 0.750000 0.250000
O O12 0.414474 0.736906 0.258250
O O13 0.500000 0.000000 0.819923
O O14 0.500000 0.929353 0.000000
O O15 0.500000 0.737158 0.000000
#
# Coordination Sequence:
#
# PCOD9519774 Si02
#       6
#    16  16   8  16   8   8
#     4  10  19  33  52  74 100 131 168 210 256 304
#     4   9  17  31  51  74  99 129 167 209 253 304
#     4   7  14  29  48  67  92 128 164 196 236 295
#     4  11  21  35  55  79 105 136 174 215 258 304
#     4   7  12  26  48  69  92 127 166 200 242 301
#     4   9  17  33  54  77 104 135 170 208 254 310
#
# _framework density 17.649179
#
# number of rings (size 3 to 8) (size 9 to 14) (size 15 to 20)
#    0.000    2.778    0.000    5.667    0.000    0.444 
#    0.000    3.889    0.000    6.667    0.000    0.000 
#    0.000    0.000    0.000    0.000    0.000    0.000 
#
# Total GULP energy -200490.649826 kJ/mol
# GULP energy per Si atom -5569.184717 kJ/mol
# Density = 1.760901 g / cm^3
# Si number density = 17.649179 Si / 1000 Ang^3
#
#
#
# Elastic Constant Matrix: (Units=GPa)
#
#
# Indices 1 2 3 4 5 6 
#
# 1 237.4411 76.1109 60.8459 0.0002 -0.0003 -0.0001
# 2 76.1109 45.7248 30.0893 -0.0003 0.0002 0.0002
# 3 60.8459 30.0893 77.4194 -0.0044 -0.0020 -0.0020
# 4 0.0002 -0.0003 -0.0044 21.3454 0.0000 0.0000
# 5 -0.0003 0.0002 -0.0020 0.0000 31.7157 0.0001
# 6 -0.0001 0.0002 -0.0020 0.0000 0.0001 33.9274
#
#
#
# Elastic Compliance Matrix: (Units=1/GPa)
#
#
# Indices 1 2 3 4 5 6 
#
# 1 0.009196 -0.014177 -0.001717 -0.000001 0.000000 0.000000
# 2 -0.014177 0.051242 -0.008773 -0.000001 -0.000001 -0.000001
# 3 -0.001717 -0.008773 0.017676 0.000004 0.000001 0.000001
# 4 -0.000001 -0.000001 0.000004 0.046848 0.000000 0.000000
# 5 0.000000 -0.000001 0.000001 0.000000 0.031530 0.000000
# 6 0.000000 -0.000001 0.000001 0.000000 0.000000 0.029475
#
#
# Mechanical properties :
#
#
# Convention : Reuss Voigt Hill
#
# Bulk Modulus (GPa) = 34.74813 77.18638 55.96725
# Shear Modulus (GPa) = 20.41687 30.30030 25.35858
#
# Velocity S-wave (km/s) = 3.40489 4.14794 3.79464
# Velocity P-wave (km/s) = 5.93201 8.17124 7.13995
#
# Compressibility (1/GPa) = 0.02877853
#
# Stress axis : x y z
#
# Youngs Moduli (GPa) = 108.74146 19.51537 56.57340
#
# Poissons Ratio (x) = 0.27667 0.09716
# Poissons Ratio (y) = 1.54165 0.49632
# Poissons Ratio (z) = 0.18676 0.17121
#
# Static dielectric constant tensor:
#      x y z
#    x 1.650600 0.000000 0.000000 
#    y 0.000000 1.568110 0.000000 
#    z 0.000000 0.000000 1.602560 
# 
# From -- ./inp_files/6518.got.cif
#   From: 2010.05.17/outbox.cif.g08.bks.cpg/sg71_4_cif.got.tgz:6518.got - 2010.06.03 16:22:01.
