data_PCOD9519577
_publ_section_title
;
Structure prediction by ZEFSAII (Michael W. Deem and Ramdas Pophale) SiO2 
 PCOD9519577
Probable space group: I M M M
;
_chemical_formula_sum "Si O2"
_cell_formula_units_Z 104
_cell_length_a 23.925236
_cell_length_b 9.433249
_cell_length_c 25.962669
_cell_angle_alpha 90.000000
_cell_angle_beta 90.000000
_cell_angle_gamma 90.000000
_cell_volume 5859.585088
_symmetry_space_group_name_H-M "I M M M"
_symmetry_group_IT_number 71
_symmetry_cell_setting 'orthorhombic'
loop_
_space_group_symop_operation_xyz
x,y,z
-x,-y,z
x,-y,-z
-x,y,-z
-x,-y,-z
x,y,-z
-x,y,z
x,-y,z
1/2+x,1/2+y,1/2+z
1/2-x,1/2-y,1/2+z
1/2+x,1/2-y,1/2-z
1/2-x,1/2+y,1/2-z
1/2-x,1/2-y,1/2-z
1/2+x,1/2+y,1/2-z
1/2-x,1/2+y,1/2+z
1/2+x,1/2-y,1/2+z
loop_
_atom_site_type_symbol
_atom_site_label
_atom_site_fract_x
_atom_site_fract_y
_atom_site_fract_z
Si Si1 0.340280 0.332042 0.358764
Si Si2 0.064378 0.827689 0.940373
Si Si3 0.839184 0.667135 0.248741
Si Si4 0.713345 0.833485 0.144403
Si Si5 0.113868 0.162661 0.405525
Si Si6 0.064225 0.840962 0.704338
Si Si7 0.433154 0.837177 0.000000
O O1 0.349695 0.500000 0.349425
O O2 0.387987 0.283382 0.399295
O O3 0.338686 0.249964 0.304827
O O4 0.275982 0.317322 0.376773
O O5 0.000000 0.785453 0.927398
O O6 0.065126 0.000000 0.940256
O O7 0.075572 0.784115 0.000000
O O8 0.836429 0.500000 0.239246
O O9 0.794033 0.699986 0.294212
O O10 0.897412 0.718119 0.273606
O O11 0.670830 0.732350 0.115043
O O12 0.697454 0.000000 0.139273
O O13 0.071880 0.163332 0.357027
O O14 0.089513 0.256321 0.450578
O O15 0.122322 0.000000 0.421346
O O16 0.000000 0.826084 0.719107
O O17 0.083714 0.000000 0.720688
O O18 0.500000 0.833705 0.000000
O O19 0.414535 0.000000 0.000000
#
# Coordination Sequence:
#
# PCOD9519577 Si02
#       7
#    16  16  16  16  16  16   8
#     4  10  19  32  53  79 104 135 178 218 258 314
#     4   8  15  30  52  77 103 129 163 212 266 315
#     4  10  20  32  48  72 106 141 173 213 263 316
#     4   9  19  35  51  73 106 141 177 217 265 320
#     4  10  20  35  55  77 103 137 178 224 270 315
#     4   9  18  33  52  73  99 134 175 217 263 315
#     4  11  23  37  55  79 107 141 180 221 266 315
#
# _framework density 17.748695999999999
#
# number of rings (size 3 to 8) (size 9 to 14) (size 15 to 20)
#    0.000    2.538    0.000    2.538    0.000    4.000 
#    1.385    1.538    0.000    0.462    0.000    1.077 
#    0.000    0.000    0.000    0.000    0.000    0.000 
#
# Total GULP energy -289683.931143 kJ/mol
# GULP energy per Si atom -5570.844830 kJ/mol
# Density = 1.770830 g / cm^3
# Si number density = 17.748696 Si / 1000 Ang^3
#
#
#
# Elastic Constant Matrix: (Units=GPa)
#
#
# Indices 1 2 3 4 5 6 
#
# 1 94.4332 36.8422 45.9446 0.0000 0.0000 0.0000
# 2 36.8422 62.6799 43.2786 0.0000 0.0000 0.0000
# 3 45.9446 43.2786 72.1368 0.0000 0.0000 0.0000
# 4 0.0000 0.0000 0.0000 28.7449 0.0000 0.0000
# 5 0.0000 0.0000 0.0000 0.0000 14.0663 0.0000
# 6 0.0000 0.0000 0.0000 0.0000 0.0000 17.9312
#
#
#
# Elastic Compliance Matrix: (Units=1/GPa)
#
#
# Indices 1 2 3 4 5 6 
#
# 1 0.015917 -0.004022 -0.007725 0.000000 0.000000 0.000000
# 2 -0.004022 0.028253 -0.014389 0.000000 0.000000 0.000000
# 3 -0.007725 -0.014389 0.027415 0.000000 0.000000 0.000000
# 4 0.000000 0.000000 0.000000 0.034789 0.000000 0.000000
# 5 0.000000 0.000000 0.000000 0.000000 0.071092 0.000000
# 6 0.000000 0.000000 0.000000 0.000000 0.000000 0.055769
#
#
# Mechanical properties :
#
#
# Convention : Reuss Voigt Hill
#
# Bulk Modulus (GPa) = 51.77561 53.48677 52.63119
# Shear Modulus (GPa) = 17.12657 19.02744 18.07700
#
# Velocity S-wave (km/s) = 3.10973 3.27777 3.19485
# Velocity P-wave (km/s) = 6.49067 6.67278 6.58235
#
# Compressibility (1/GPa) = 0.01931411
#
# Stress axis : x y z
#
# Youngs Moduli (GPa) = 62.82624 35.39404 36.47633
#
# Poissons Ratio (x) = 0.14236 0.28176
# Poissons Ratio (y) = 0.25270 0.52485
# Poissons Ratio (z) = 0.48530 0.50928
#
# Static dielectric constant tensor:
#      x y z
#    x 1.613620 0.000000 0.000000 
#    y 0.000000 1.591920 0.000000 
#    z 0.000000 0.000000 1.608000 
# 
# From -- ./inp_files/66845.got.cif
#   From: 2010.05.17/outbox.cif.g08.bks.cpg/sg71_34_cif.got.tgz:66845.got - 2010.06.03 16:22:01.
