data_PCOD9519128
_publ_section_title
;
Structure prediction by ZEFSAII (Michael W. Deem and Ramdas Pophale) SiO2 
 PCOD9519128
Probable space group: I M M M
;
_chemical_formula_sum "Si O2"
_cell_formula_units_Z 64
_cell_length_a 20.098642
_cell_length_b 20.414552
_cell_length_c 8.652132
_cell_angle_alpha 90.000000
_cell_angle_beta 90.000000
_cell_angle_gamma 90.000000
_cell_volume 3550.011050
_symmetry_space_group_name_H-M "I M M M"
_symmetry_group_IT_number 71
_symmetry_cell_setting 'orthorhombic'
loop_
_space_group_symop_operation_xyz
x,y,z
-x,-y,z
x,-y,-z
-x,y,-z
-x,-y,-z
x,y,-z
-x,y,z
x,-y,z
1/2+x,1/2+y,1/2+z
1/2-x,1/2-y,1/2+z
1/2+x,1/2-y,1/2-z
1/2-x,1/2+y,1/2-z
1/2-x,1/2-y,1/2-z
1/2+x,1/2+y,1/2-z
1/2-x,1/2+y,1/2+z
1/2+x,1/2-y,1/2+z
loop_
_atom_site_type_symbol
_atom_site_label
_atom_site_fract_x
_atom_site_fract_y
_atom_site_fract_z
Si Si1 0.755660 0.500000 0.677755
Si Si2 0.000000 0.741257 0.676919
Si Si3 0.246090 0.645844 0.313121
Si Si4 0.888860 0.500000 0.172386
Si Si5 0.000000 0.390823 0.172595
Si Si6 0.855989 0.254166 0.184484
O O1 0.733031 0.500000 0.500000
O O2 0.738714 0.571972 0.743922
O O3 0.835339 0.500000 0.694301
O O4 0.000000 0.662758 0.696731
O O5 0.930016 0.760029 0.755267
O O6 0.000000 0.761828 0.500000
O O7 0.240588 0.643455 0.500000
O O8 0.178726 0.679698 0.249838
O O9 0.305948 0.695148 0.271971
O O10 0.936497 0.437519 0.181384
O O11 0.857181 0.500000 0.000000
O O12 0.000000 0.359413 0.000000
O O13 0.857426 0.259702 0.000000
#
# Coordination Sequence:
#
# PCOD9519128 Si02
#       6
#     8   8  16   8   8  16
#     4  10  19  31  49  73  99 126 160 202 247 294
#     4  12  23  33  49  73  99 128 168 212 253 296
#     4   9  19  35  54  77 104 133 166 206 250 297
#     4   9  18  30  44  66  97 131 163 194 232 287
#     4   9  18  32  46  64  95 131 165 198 236 287
#     4  10  20  35  54  75 102 135 170 206 248 299
#
# _framework density 18.028113000000001
#
# number of rings (size 3 to 8) (size 9 to 14) (size 15 to 20)
#    0.000    2.250    0.000    4.125    0.000    7.000 
#    0.000    1.250    0.000    0.750    0.000    5.250 
#    0.000    0.000    0.000    0.000    0.000    0.000 
#
# Total GULP energy -178368.320643 kJ/mol
# GULP energy per Si atom -5574.010020 kJ/mol
# Density = 1.798708 g / cm^3
# Si number density = 18.028113 Si / 1000 Ang^3
#
#
#
# Elastic Constant Matrix: (Units=GPa)
#
#
# Indices 1 2 3 4 5 6 
#
# 1 104.7566 36.0474 20.7116 0.0000 0.0000 0.0000
# 2 36.0474 114.6171 13.6957 0.0000 0.0000 0.0000
# 3 20.7116 13.6957 27.9607 0.0000 0.0000 0.0000
# 4 0.0000 0.0000 0.0000 20.4165 0.0000 0.0000
# 5 0.0000 0.0000 0.0000 0.0000 26.4953 0.0000
# 6 0.0000 0.0000 0.0000 0.0000 0.0000 21.1532
#
#
#
# Elastic Compliance Matrix: (Units=1/GPa)
#
#
# Indices 1 2 3 4 5 6 
#
# 1 0.012020 -0.002885 -0.007490 0.000000 0.000000 0.000000
# 2 -0.002885 0.009960 -0.002741 0.000000 0.000000 0.000000
# 3 -0.007490 -0.002741 0.042656 0.000000 0.000000 0.000000
# 4 0.000000 0.000000 0.000000 0.048980 0.000000 0.000000
# 5 0.000000 0.000000 0.000000 0.000000 0.037743 0.000000
# 6 0.000000 0.000000 0.000000 0.000000 0.000000 0.047274
#
#
# Mechanical properties :
#
#
# Convention : Reuss Voigt Hill
#
# Bulk Modulus (GPa) = 26.04063 43.13821 34.58942
# Shear Modulus (GPa) = 21.03796 25.40497 23.22147
#
# Velocity S-wave (km/s) = 3.41978 3.75799 3.59286
# Velocity P-wave (km/s) = 5.48352 6.54295 6.03652
#
# Compressibility (1/GPa) = 0.03840154
#
# Stress axis : x y z
#
# Youngs Moduli (GPa) = 83.19699 100.40507 23.44358
#
# Poissons Ratio (x) = 0.28969 0.17560
# Poissons Ratio (y) = 0.24004 0.06426
# Poissons Ratio (z) = 0.62317 0.27523
#
# Static dielectric constant tensor:
#      x y z
#    x 1.612090 0.000000 0.000000 
#    y 0.000000 1.656740 0.000000 
#    z 0.000000 0.000000 1.649710 
# 
# From -- ./inp_files/9835.got.cif
#   From: 2010.05.17/outbox.cif.g08.bks.cpg/sg71_5_cif.got.tgz:9835.got - 2010.06.03 16:22:01.
