data_PCOD9519389
_publ_section_title
;
Structure prediction by ZEFSAII (Michael W. Deem and Ramdas Pophale) SiO2 
 PCOD9519389
Probable space group: I M M M
;
_chemical_formula_sum "Si O2"
_cell_formula_units_Z 88
_cell_length_a 18.831615
_cell_length_b 13.014366
_cell_length_c 21.262017
_cell_angle_alpha 90.000000
_cell_angle_beta 90.000000
_cell_angle_gamma 90.000000
_cell_volume 5210.927657
_symmetry_space_group_name_H-M "I M M M"
_symmetry_group_IT_number 71
_symmetry_cell_setting 'orthorhombic'
loop_
_space_group_symop_operation_xyz
x,y,z
-x,-y,z
x,-y,-z
-x,y,-z
-x,-y,-z
x,y,-z
-x,y,z
x,-y,z
1/2+x,1/2+y,1/2+z
1/2-x,1/2-y,1/2+z
1/2+x,1/2-y,1/2-z
1/2-x,1/2+y,1/2-z
1/2-x,1/2-y,1/2-z
1/2+x,1/2+y,1/2-z
1/2-x,1/2+y,1/2+z
1/2+x,1/2-y,1/2+z
loop_
_atom_site_type_symbol
_atom_site_label
_atom_site_fract_x
_atom_site_fract_y
_atom_site_fract_z
Si Si1 0.174557 0.741589 0.676854
Si Si2 0.915619 0.293728 0.133179
Si Si3 0.585045 0.380791 0.727142
Si Si4 0.586149 0.880723 0.500000
Si Si5 0.584004 0.121997 0.074315
Si Si6 0.793915 0.384624 0.797009
O O1 0.123840 0.816675 0.718132
O O2 0.132727 0.690061 0.619804
O O3 0.203287 0.655945 0.725682
O O4 0.243040 0.811001 0.662364
O O5 0.900087 0.181462 0.162474
O O6 0.893161 0.318960 0.062388
O O7 0.873092 0.372235 0.176891
O O8 0.000000 0.309194 0.137773
O O9 0.500000 0.377308 0.737037
O O10 0.606715 0.500000 0.724992
O O11 0.500000 0.885167 0.500000
O O12 0.610885 0.000000 0.500000
O O13 0.500000 0.141460 0.086443
O O14 0.596133 0.000000 0.085424
O O15 0.596713 0.141481 0.000000
O O16 0.768761 0.500000 0.800429
#
# Coordination Sequence:
#
# PCOD9519389 Si02
#       6
#    16  16  16   8  16  16
#     4  10  19  32  50  74 103 137 167 210 253 310
#     4   9  18  32  49  71  96 126 169 215 260 305
#     4   9  17  30  49  71  96 129 167 207 252 302
#     4   9  16  28  47  67  91 123 155 198 256 306
#     4   9  18  34  57  83 109 137 170 211 260 312
#     4  10  20  32  48  73 101 133 170 212 261 306
#
# _framework density 16.887588999999998
#
# number of rings (size 3 to 8) (size 9 to 14) (size 15 to 20)
#    0.000    2.636    0.000    2.727    0.000    1.818 
#    1.636    1.364    0.000    4.364    0.000    6.364 
#    0.000    0.000    0.000    0.000    0.000    0.000 
#
# Total GULP energy -245089.842671 kJ/mol
# GULP energy per Si atom -5570.223697 kJ/mol
# Density = 1.684915 g / cm^3
# Si number density = 16.887589 Si / 1000 Ang^3
#
#
#
# Elastic Constant Matrix: (Units=GPa)
#
#
# Indices 1 2 3 4 5 6 
#
# 1 52.7362 46.0987 38.6402 0.0000 0.0000 0.0000
# 2 46.0987 110.6666 61.9355 0.0000 0.0000 0.0000
# 3 38.6402 61.9355 83.6915 0.0000 0.0000 0.0000
# 4 0.0000 0.0000 0.0000 18.6250 0.0000 0.0000
# 5 0.0000 0.0000 0.0000 0.0000 23.6080 0.0000
# 6 0.0000 0.0000 0.0000 0.0000 0.0000 20.1949
#
#
#
# Elastic Compliance Matrix: (Units=1/GPa)
#
#
# Indices 1 2 3 4 5 6 
#
# 1 0.033145 -0.008948 -0.008681 0.000000 0.000000 0.000000
# 2 -0.008948 0.017840 -0.009071 0.000000 0.000000 0.000000
# 3 -0.008681 -0.009071 0.022670 0.000000 0.000000 0.000000
# 4 0.000000 0.000000 0.000000 0.053691 0.000000 0.000000
# 5 0.000000 0.000000 0.000000 0.000000 0.042359 0.000000
# 6 0.000000 0.000000 0.000000 0.000000 0.000000 0.049517
#
#
# Mechanical properties :
#
#
# Convention : Reuss Voigt Hill
#
# Bulk Modulus (GPa) = 49.37246 60.04923 54.71085
# Shear Modulus (GPa) = 17.89713 19.18024 18.53869
#
# Velocity S-wave (km/s) = 3.25896 3.37376 3.31686
# Velocity P-wave (km/s) = 6.59246 7.12824 6.86557
#
# Compressibility (1/GPa) = 0.02025420
#
# Stress axis : x y z
#
# Youngs Moduli (GPa) = 30.17061 56.05230 44.11180
#
# Poissons Ratio (x) = 0.50158 0.38292
# Poissons Ratio (y) = 0.26998 0.40015
# Poissons Ratio (z) = 0.26190 0.50847
#
# Static dielectric constant tensor:
#      x y z
#    x 1.600550 0.000000 0.000000 
#    y 0.000000 1.571740 0.000000 
#    z 0.000000 0.000000 1.559590 
# 
# From -- ./inp_files/23935.got.cif
#   From: 2010.05.17/outbox.cif.g08.bks.cpg/sg71_12_cif.got.tgz:23935.got - 2010.06.03 16:22:01.
