data_PCOD9519364
_publ_section_title
;
Structure prediction by ZEFSAII (Michael W. Deem and Ramdas Pophale) SiO2 
 PCOD9519364
Probable space group: I M M M
;
_chemical_formula_sum "Si O2"
_cell_formula_units_Z 104
_cell_length_a 29.426599
_cell_length_b 21.733461
_cell_length_c 7.292606
_cell_angle_alpha 90.000000
_cell_angle_beta 90.000000
_cell_angle_gamma 90.000000
_cell_volume 4663.926672
_symmetry_space_group_name_H-M "I M M M"
_symmetry_group_IT_number 71
_symmetry_cell_setting 'orthorhombic'
loop_
_space_group_symop_operation_xyz
x,y,z
-x,-y,z
x,-y,-z
-x,y,-z
-x,-y,-z
x,y,-z
-x,y,z
x,-y,z
1/2+x,1/2+y,1/2+z
1/2-x,1/2-y,1/2+z
1/2+x,1/2-y,1/2-z
1/2-x,1/2+y,1/2-z
1/2-x,1/2-y,1/2-z
1/2+x,1/2+y,1/2-z
1/2-x,1/2+y,1/2+z
1/2+x,1/2-y,1/2+z
loop_
_atom_site_type_symbol
_atom_site_label
_atom_site_fract_x
_atom_site_fract_y
_atom_site_fract_z
Si Si1 0.447837 0.500000 0.723699
Si Si2 0.050814 0.323091 0.276840
Si Si3 0.127748 0.092929 0.787124
Si Si4 0.133542 0.763494 0.720973
Si Si5 0.196378 0.658031 0.722467
Si Si6 0.727944 0.567484 0.723873
Si Si7 0.887186 0.430415 0.277278
O O1 0.500000 0.500000 0.787785
O O2 0.450715 0.500000 0.500000
O O3 0.417271 0.558759 0.783046
O O4 0.050463 0.321674 0.500000
O O5 0.089056 0.274497 0.219264
O O6 0.069239 0.390233 0.222997
O O7 0.000000 0.310305 0.214047
O O8 0.128531 0.166335 0.776403
O O9 0.176158 0.071412 0.710462
O O10 0.129242 0.075268 0.000000
O O11 0.134399 0.762455 0.500000
O O12 0.178054 0.724862 0.783229
O O13 0.198189 0.660479 0.500000
O O14 0.242823 0.626260 0.785202
O O15 0.156881 0.609448 0.773221
O O16 0.728001 0.569483 0.500000
O O17 0.747215 0.500000 0.773362
O O18 0.886804 0.432320 0.500000
O O19 0.886461 0.500000 0.211538
#
# Coordination Sequence:
#
# PCOD9519364 Si02
#       7
#     8  16  16  16  16  16  16
#     4   9  18  34  53  71  93 117 145 191 246 286
#     4   8  14  24  37  54  80 115 149 178 211 254
#     4  10  19  32  50  71  89 110 146 187 227 269
#     4   9  18  31  45  64  93 124 149 176 217 269
#     4   8  14  24  39  61  89 121 150 176 214 261
#     4   9  15  25  44  67  90 116 149 187 221 260
#     4   8  12  18  30  52  83 115 146 178 213 253
#
# _framework density 22.298807
#
# number of rings (size 3 to 8) (size 9 to 14) (size 15 to 20)
#    0.000    3.308    0.769    2.308    0.000    3.385 
#    0.000    1.923    0.000    0.462    0.000    0.000 
#    0.000   14.769    0.000    5.538    0.000    6.154 
#
# Total GULP energy -290087.498876 kJ/mol
# GULP energy per Si atom -5578.605748 kJ/mol
# Density = 2.224805 g / cm^3
# Si number density = 22.298807 Si / 1000 Ang^3
#
#
#
# Elastic Constant Matrix: (Units=GPa)
#
#
# Indices 1 2 3 4 5 6 
#
# 1 156.6552 72.2957 5.4356 0.0000 0.0000 0.0000
# 2 72.2957 177.6742 -2.4059 0.0000 0.0000 0.0000
# 3 5.4356 -2.4059 93.0520 0.0000 0.0000 0.0000
# 4 0.0000 0.0000 0.0000 17.2037 0.0000 0.0000
# 5 0.0000 0.0000 0.0000 0.0000 -17.5367 0.0000
# 6 0.0000 0.0000 0.0000 0.0000 0.0000 15.7143
#
#
#
# Elastic Compliance Matrix: (Units=1/GPa)
#
#
# Indices 1 2 3 4 5 6 
#
# 1 0.007887 -0.003216 -0.000544 0.000000 0.000000 0.000000
# 2 -0.003216 0.006942 0.000367 0.000000 0.000000 0.000000
# 3 -0.000544 0.000367 0.010788 0.000000 0.000000 0.000000
# 4 0.000000 0.000000 0.000000 0.058127 0.000000 0.000000
# 5 0.000000 0.000000 0.000000 0.000000 -0.057023 0.000000
# 6 0.000000 0.000000 0.000000 0.000000 0.000000 0.063636
#
#
# Mechanical properties :
#
#
# Convention : Reuss Voigt Hill
#
# Bulk Modulus (GPa) = 53.10454 64.22581 58.66518
# Shear Modulus (GPa) = 48.34673 26.54665 37.44669
#
# Velocity S-wave (km/s) = 4.66137 3.45410 4.10239
# Velocity P-wave (km/s) = 7.26896 6.69124 6.98607
#
# Compressibility (1/GPa) = 0.01883078
#
# Stress axis : x y z
#
# Youngs Moduli (GPa) = 126.79572 144.05002 92.69600
#
# Poissons Ratio (x) = 0.46333 0.05041
# Poissons Ratio (y) = 0.40783 -0.03405
# Poissons Ratio (z) = 0.06896 -0.05292
#
# Static dielectric constant tensor:
#      x y z
#    x 1.805710 0.000000 0.000000 
#    y 0.000000 1.805340 0.000000 
#    z 0.000000 0.000000 1.876310 
# 
# From -- ./inp_files/30202.got.cif
#   From: 2010.05.17/outbox.cif.g08.bks.cpg/sg71_16_cif.got.tgz:30202.got - 2010.06.03 16:22:01.
