data_PCOD9519816
_publ_section_title
;
Structure prediction by ZEFSAII (Michael W. Deem and Ramdas Pophale) SiO2 
 PCOD9519816
Probable space group: I M M M
;
_chemical_formula_sum "Si O2"
_cell_formula_units_Z 72
_cell_length_a 28.316953
_cell_length_b 8.013132
_cell_length_c 16.746423
_cell_angle_alpha 90.000000
_cell_angle_beta 90.000000
_cell_angle_gamma 90.000000
_cell_volume 3799.888679
_symmetry_space_group_name_H-M "I M M M"
_symmetry_group_IT_number 71
_symmetry_cell_setting 'orthorhombic'
loop_
_space_group_symop_operation_xyz
x,y,z
-x,-y,z
x,-y,-z
-x,y,-z
-x,-y,-z
x,y,-z
-x,y,z
x,-y,z
1/2+x,1/2+y,1/2+z
1/2-x,1/2-y,1/2+z
1/2+x,1/2-y,1/2-z
1/2-x,1/2+y,1/2-z
1/2-x,1/2-y,1/2-z
1/2+x,1/2+y,1/2-z
1/2-x,1/2+y,1/2+z
1/2+x,1/2-y,1/2+z
loop_
_atom_site_type_symbol
_atom_site_label
_atom_site_fract_x
_atom_site_fract_y
_atom_site_fract_z
Si Si1 0.894576 0.301223 0.663369
Si Si2 0.643040 0.704237 0.587926
Si Si3 0.195721 0.800709 0.246624
Si Si4 0.552423 0.699711 0.324000
Si Si5 0.444598 0.795799 0.000000
O O1 0.899138 0.500000 0.663812
O O2 0.840031 0.260002 0.684117
O O3 0.925101 0.232869 0.737336
O O4 0.916533 0.240761 0.579614
O O5 0.657295 0.760329 0.500000
O O6 0.643963 0.500000 0.587964
O O7 0.674989 0.760552 0.661725
O O8 0.590042 0.758522 0.610549
O O9 0.250000 0.750000 0.250000
O O10 0.192657 0.000000 0.247380
O O11 0.500000 0.770557 0.330324
O O12 0.549602 0.500000 0.332982
O O13 0.500000 0.744664 0.000000
O O14 0.444675 0.000000 0.000000
#
# Coordination Sequence:
#
# PCOD9519816 Si02
#       5
#    16  16  16  16   8
#     4  10  19  33  53  75 101 135 176 218 257 304
#     4   8  15  29  49  73  98 126 163 205 242 287
#     4  10  20  36  56  76 101 131 167 211 261 313
#     4   9  17  29  47  73 104 135 167 205 250 299
#     4   9  18  32  51  77 107 139 179 223 260 305
#
# _framework density 18.947924
#
# number of rings (size 3 to 8) (size 9 to 14) (size 15 to 20)
#    0.000    2.778    0.000    3.333    0.000    1.778 
#    2.000    4.444    0.000   20.000    0.000    6.222 
#    0.000    0.000    0.000    0.000    0.000    0.000 
#
# Total GULP energy -200644.518177 kJ/mol
# GULP energy per Si atom -5573.458838 kJ/mol
# Density = 1.890480 g / cm^3
# Si number density = 18.947924 Si / 1000 Ang^3
#
#
#
# Elastic Constant Matrix: (Units=GPa)
#
#
# Indices 1 2 3 4 5 6 
#
# 1 155.5611 -1.8011 58.8918 0.0000 0.0000 0.0000
# 2 -1.8011 12.4573 -3.0559 0.0000 0.0000 0.0000
# 3 58.8918 -3.0559 120.9582 0.0000 0.0000 0.0000
# 4 0.0000 0.0000 0.0000 0.9768 0.0000 0.0000
# 5 0.0000 0.0000 0.0000 0.0000 15.0836 0.0000
# 6 0.0000 0.0000 0.0000 0.0000 0.0000 22.9034
#
#
#
# Elastic Compliance Matrix: (Units=1/GPa)
#
#
# Indices 1 2 3 4 5 6 
#
# 1 0.007881 0.000199 -0.003832 0.000000 0.000000 0.000000
# 2 0.000199 0.080780 0.001944 0.000000 0.000000 0.000000
# 3 -0.003832 0.001944 0.010182 0.000000 0.000000 0.000000
# 4 0.000000 0.000000 0.000000 1.023758 0.000000 0.000000
# 5 0.000000 0.000000 0.000000 0.000000 0.066297 0.000000
# 6 0.000000 0.000000 0.000000 0.000000 0.000000 0.043662
#
#
# Mechanical properties :
#
#
# Convention : Reuss Voigt Hill
#
# Bulk Modulus (GPa) = 10.47499 44.11623 27.29561
# Shear Modulus (GPa) = 3.94396 23.45557 13.69977
#
# Velocity S-wave (km/s) = 1.44430 3.52219 2.69182
# Velocity P-wave (km/s) = 2.88472 6.31463 4.90898
#
# Compressibility (1/GPa) = 0.09546545
#
# Stress axis : x y z
#
# Youngs Moduli (GPa) = 126.88013 12.37932 98.20996
#
# Poissons Ratio (x) = -0.00247 0.37637
# Poissons Ratio (y) = -0.02530 -0.19090
# Poissons Ratio (z) = 0.48624 -0.02406
#
# Static dielectric constant tensor:
#      x y z
#    x 1.646390 0.000000 0.000000 
#    y 0.000000 1.686610 0.000000 
#    z 0.000000 0.000000 1.658030 
# 
# From -- ./inp_files/6438.got.cif
#   From: 2010.05.17/outbox.cif.g08.bks.cpg/sg71_4_cif.got.tgz:6438.got - 2010.06.03 16:22:01.
