data_PCOD9519308
_publ_section_title
;
Structure prediction by ZEFSAII (Michael W. Deem and Ramdas Pophale) SiO2 
 PCOD9519308
Probable space group: I M M M
;
_chemical_formula_sum "Si O2"
_cell_formula_units_Z 128
_cell_length_a 12.915776
_cell_length_b 20.476088
_cell_length_c 29.240470
_cell_angle_alpha 90.000000
_cell_angle_beta 90.000000
_cell_angle_gamma 90.000000
_cell_volume 7733.068207
_symmetry_space_group_name_H-M "I M M M"
_symmetry_group_IT_number 71
_symmetry_cell_setting 'orthorhombic'
loop_
_space_group_symop_operation_xyz
x,y,z
-x,-y,z
x,-y,-z
-x,y,-z
-x,-y,-z
x,y,-z
-x,y,z
x,-y,z
1/2+x,1/2+y,1/2+z
1/2-x,1/2-y,1/2+z
1/2+x,1/2-y,1/2-z
1/2-x,1/2+y,1/2-z
1/2-x,1/2-y,1/2-z
1/2+x,1/2+y,1/2-z
1/2-x,1/2+y,1/2+z
1/2+x,1/2-y,1/2+z
loop_
_atom_site_type_symbol
_atom_site_label
_atom_site_fract_x
_atom_site_fract_y
_atom_site_fract_z
Si Si1 0.878714 0.574099 0.054819
Si Si2 0.125523 0.426417 0.553299
Si Si3 0.613700 0.577497 0.283523
Si Si4 0.120581 0.074636 0.675464
Si Si5 0.877498 0.298613 0.388177
Si Si6 0.258372 0.827650 0.382935
Si Si7 0.621204 0.214939 0.295604
Si Si8 0.283716 0.831736 0.207048
O O1 0.848922 0.500000 0.069017
O O2 0.809475 0.629158 0.077771
O O3 0.000000 0.582919 0.066748
O O4 0.870897 0.577037 0.000000
O O5 0.155650 0.417169 0.500000
O O6 0.159969 0.500000 0.567553
O O7 0.154782 0.363960 0.583991
O O8 0.000000 0.427655 0.554491
O O9 0.500000 0.602579 0.298792
O O10 0.611009 0.500000 0.287995
O O11 0.624502 0.592055 0.229250
O O12 0.717063 0.605070 0.305811
O O13 0.181015 0.126192 0.645517
O O14 0.000000 0.075159 0.662610
O O15 0.159266 0.000000 0.670413
O O16 0.805026 0.236239 0.399101
O O17 0.857877 0.311309 0.334246
O O18 0.000000 0.286114 0.396326
O O19 0.345981 0.808721 0.345816
O O20 0.500000 0.227855 0.292367
O O21 0.655252 0.166016 0.254821
O O22 0.691739 0.278603 0.287628
#
# Coordination Sequence:
#
# PCOD9519308 Si02
#       8
#    16  16  16  16  16  16  16  16
#     4   9  19  36  56  76  99 131 170 211 258 309
#     4   8  15  31  53  71  90 122 161 196 236 296
#     4   9  17  30  48  68  91 123 166 212 250 288
#     4   9  17  29  46  67  92 126 168 207 242 288
#     4  10  21  32  47  75 106 134 165 206 259 307
#     4  11  19  31  50  73  99 129 166 210 250 295
#     4  10  20  31  45  65  91 126 164 198 235 285
#     4  10  19  32  46  66  94 130 162 198 243 295
#
# _framework density 16.552292000000001
#
# number of rings (size 3 to 8) (size 9 to 14) (size 15 to 20)
#    0.000    2.500    1.250    3.375    0.000    1.000 
#    0.000    0.000    0.000    3.000    0.000    4.375 
#    0.000    0.000    0.000   49.500    0.000    4.250 
#
# Total GULP energy -356391.397506 kJ/mol
# GULP energy per Si atom -5568.615586 kJ/mol
# Density = 1.651462 g / cm^3
# Si number density = 16.552292 Si / 1000 Ang^3
#
#
#
# Elastic Constant Matrix: (Units=GPa)
#
#
# Indices 1 2 3 4 5 6 
#
# 1 59.4622 34.6997 29.1794 0.0000 0.0000 0.0000
# 2 34.6997 88.9911 34.9226 0.0000 0.0000 0.0000
# 3 29.1794 34.9226 33.7938 0.0000 0.0000 0.0000
# 4 0.0000 0.0000 0.0000 26.9190 0.0000 0.0000
# 5 0.0000 0.0000 0.0000 0.0000 11.0197 0.0000
# 6 0.0000 0.0000 0.0000 0.0000 0.0000 25.6216
#
#
#
# Elastic Compliance Matrix: (Units=1/GPa)
#
#
# Indices 1 2 3 4 5 6 
#
# 1 0.029519 -0.002536 -0.022867 0.000000 0.000000 0.000000
# 2 -0.002536 0.019121 -0.017569 0.000000 0.000000 0.000000
# 3 -0.022867 -0.017569 0.067492 0.000000 0.000000 0.000000
# 4 0.000000 0.000000 0.000000 0.037148 0.000000 0.000000
# 5 0.000000 0.000000 0.000000 0.000000 0.090746 0.000000
# 6 0.000000 0.000000 0.000000 0.000000 0.000000 0.039030
#
#
# Mechanical properties :
#
#
# Convention : Reuss Voigt Hill
#
# Bulk Modulus (GPa) = 33.12783 42.20561 37.66672
# Shear Modulus (GPa) = 13.19035 18.27508 15.73272
#
# Velocity S-wave (km/s) = 2.82599 3.32638 3.08634
# Velocity P-wave (km/s) = 5.54128 6.34876 5.95871
#
# Compressibility (1/GPa) = 0.03018610
#
# Stress axis : x y z
#
# Youngs Moduli (GPa) = 33.87642 52.29904 14.81648
#
# Poissons Ratio (x) = 0.13265 0.33881
# Poissons Ratio (y) = 0.08593 0.26032
# Poissons Ratio (z) = 0.77466 0.91886
#
# Static dielectric constant tensor:
#      x y z
#    x 1.578070 0.000000 0.000000 
#    y 0.000000 1.603840 0.000000 
#    z 0.000000 0.000000 1.543450 
# 
# From -- ./inp_files/59207.got.cif
#   From: 2010.05.17/outbox.cif.g08.bks.cpg/sg71_30_cif.got.tgz:59207.got - 2010.06.03 16:22:01.
