data_PCOD9519782
_publ_section_title
;
Structure prediction by ZEFSAII (Michael W. Deem and Ramdas Pophale) SiO2 
 PCOD9519782
Probable space group: I M M M
;
_chemical_formula_sum "Si O2"
_cell_formula_units_Z 72
_cell_length_a 31.062380
_cell_length_b 14.922804
_cell_length_c 7.856065
_cell_angle_alpha 90.000000
_cell_angle_beta 90.000000
_cell_angle_gamma 90.000000
_cell_volume 3641.583154
_symmetry_space_group_name_H-M "I M M M"
_symmetry_group_IT_number 71
_symmetry_cell_setting 'orthorhombic'
loop_
_space_group_symop_operation_xyz
x,y,z
-x,-y,z
x,-y,-z
-x,y,-z
-x,-y,-z
x,y,-z
-x,y,z
x,-y,z
1/2+x,1/2+y,1/2+z
1/2-x,1/2-y,1/2+z
1/2+x,1/2-y,1/2-z
1/2-x,1/2+y,1/2-z
1/2-x,1/2-y,1/2-z
1/2+x,1/2+y,1/2-z
1/2-x,1/2+y,1/2+z
1/2+x,1/2-y,1/2+z
loop_
_atom_site_type_symbol
_atom_site_label
_atom_site_fract_x
_atom_site_fract_y
_atom_site_fract_z
Si Si1 0.337348 0.000000 0.797555
Si Si2 0.792047 0.192651 0.205054
Si Si3 0.950239 0.000000 0.296831
Si Si4 0.372711 0.192391 0.295090
Si Si5 0.262057 0.500000 0.708741
Si Si6 0.048893 0.194672 0.203420
O O1 0.361613 0.909840 0.744626
O O2 0.287860 0.000000 0.733160
O O3 0.334445 0.000000 0.000000
O O4 0.750000 0.250000 0.250000
O O5 0.834013 0.244474 0.270057
O O6 0.785080 0.091116 0.265603
O O7 0.795028 0.189285 0.000000
O O8 0.932277 0.095057 0.236435
O O9 0.950282 0.000000 0.500000
O O10 0.000000 0.000000 0.233638
O O11 0.373366 0.200470 0.500000
O O12 0.418150 0.230792 0.230899
O O13 0.261764 0.500000 0.500000
O O14 0.000000 0.199482 0.273540
O O15 0.045706 0.204557 0.000000
#
# Coordination Sequence:
#
# PCOD9519782 Si02
#       6
#     8  16   8  16   8  16
#     4  11  21  35  55  75 102 141 176 214 266 323
#     4  10  19  33  52  75 103 133 169 211 256 307
#     4   9  17  30  51  79 109 140 172 211 260 311
#     4  10  21  35  55  80 104 135 178 223 262 309
#     4   9  18  32  50  73 102 136 168 202 254 312
#     4   9  18  34  55  79 108 142 178 216 260 310
#
# _framework density 19.771622000000001
#
# number of rings (size 3 to 8) (size 9 to 14) (size 15 to 20)
#    0.000    2.333    2.222    0.667    0.000    3.111 
#    0.000    4.444    0.000    3.333    0.000    0.000 
#    0.000    0.000    0.000    0.000    0.000    0.000 
#
# Total GULP energy -200863.375642 kJ/mol
# GULP energy per Si atom -5579.538212 kJ/mol
# Density = 1.972662 g / cm^3
# Si number density = 19.771622 Si / 1000 Ang^3
#
#
#
# Elastic Constant Matrix: (Units=GPa)
#
#
# Indices 1 2 3 4 5 6 
#
# 1 118.3722 94.0526 10.0771 0.0000 0.0000 0.0000
# 2 94.0526 203.2449 1.5034 0.0000 0.0000 0.0000
# 3 10.0771 1.5034 20.5536 0.0000 0.0000 0.0000
# 4 0.0000 0.0000 0.0000 14.0185 0.0000 0.0000
# 5 0.0000 0.0000 0.0000 0.0000 14.0180 0.0000
# 6 0.0000 0.0000 0.0000 0.0000 0.0000 25.8226
#
#
#
# Elastic Compliance Matrix: (Units=1/GPa)
#
#
# Indices 1 2 3 4 5 6 
#
# 1 0.014171 -0.006510 -0.006472 0.000000 0.000000 0.000000
# 2 -0.006510 0.007913 0.002613 0.000000 0.000000 0.000000
# 3 -0.006472 0.002613 0.051635 0.000000 0.000000 0.000000
# 4 0.000000 0.000000 0.000000 0.071334 0.000000 0.000000
# 5 0.000000 0.000000 0.000000 0.000000 0.071337 0.000000
# 6 0.000000 0.000000 0.000000 0.000000 0.000000 0.038726
#
#
# Mechanical properties :
#
#
# Convention : Reuss Voigt Hill
#
# Bulk Modulus (GPa) = 18.87430 61.49299 40.18364
# Shear Modulus (GPa) = 17.03489 26.54100 21.78795
#
# Velocity S-wave (km/s) = 2.93846 3.66782 3.32321
# Velocity P-wave (km/s) = 4.59125 7.00760 5.92393
#
# Compressibility (1/GPa) = 0.05298209
#
# Stress axis : x y z
#
# Youngs Moduli (GPa) = 70.56458 126.36810 19.36667
#
# Poissons Ratio (x) = 0.82266 0.12534
# Poissons Ratio (y) = 0.45938 -0.05060
# Poissons Ratio (z) = 0.45668 -0.33019
#
# Static dielectric constant tensor:
#      x y z
#    x 1.711780 0.000000 0.000000 
#    y 0.000000 1.779340 0.000000 
#    z 0.000000 0.000000 1.708380 
# 
# From -- ./inp_files/6228.got.cif
#   From: 2010.05.17/outbox.cif.g08.bks.cpg/sg71_4_cif.got.tgz:6228.got - 2010.06.03 16:22:01.
