data_PCOD9519711
_publ_section_title
;
Structure prediction by ZEFSAII (Michael W. Deem and Ramdas Pophale) SiO2 
 PCOD9519711
Probable space group: I M M M
;
_chemical_formula_sum "Si O2"
_cell_formula_units_Z 120
_cell_length_a 27.857989
_cell_length_b 9.307819
_cell_length_c 28.665050
_cell_angle_alpha 90.000000
_cell_angle_beta 90.000000
_cell_angle_gamma 90.000000
_cell_volume 7432.764890
_symmetry_space_group_name_H-M "I M M M"
_symmetry_group_IT_number 71
_symmetry_cell_setting 'orthorhombic'
loop_
_space_group_symop_operation_xyz
x,y,z
-x,-y,z
x,-y,-z
-x,y,-z
-x,-y,-z
x,y,-z
-x,y,z
x,-y,z
1/2+x,1/2+y,1/2+z
1/2-x,1/2-y,1/2+z
1/2+x,1/2-y,1/2-z
1/2-x,1/2+y,1/2-z
1/2-x,1/2-y,1/2-z
1/2+x,1/2+y,1/2-z
1/2-x,1/2+y,1/2+z
1/2+x,1/2-y,1/2+z
loop_
_atom_site_type_symbol
_atom_site_label
_atom_site_fract_x
_atom_site_fract_y
_atom_site_fract_z
Si Si1 0.445175 0.174498 0.053486
Si Si2 0.056532 0.832126 0.715082
Si Si3 0.698126 0.333526 0.706418
Si Si4 0.441388 0.335679 0.500000
Si Si5 0.379311 0.826975 0.860007
Si Si6 0.291437 0.670792 0.183909
Si Si7 0.411752 0.666923 0.680548
Si Si8 0.057653 0.337860 0.090426
O O1 0.500000 0.220232 0.065580
O O2 0.405804 0.217148 0.091747
O O3 0.445673 0.000000 0.053596
O O4 0.435231 0.219760 0.000000
O O5 0.086253 0.730578 0.681136
O O6 0.066236 0.795681 0.769099
O O7 0.000000 0.822439 0.705444
O O8 0.071807 0.000000 0.708883
O O9 0.714142 0.500000 0.702917
O O10 0.693698 0.301709 0.761832
O O11 0.737586 0.232812 0.682755
O O12 0.645565 0.320766 0.684996
O O13 0.425733 0.500000 0.500000
O O14 0.500000 0.335236 0.500000
O O15 0.425102 0.254504 0.546460
O O16 0.328178 0.753109 0.849784
O O17 0.375184 0.000000 0.858787
O O18 0.293043 0.500000 0.176038
O O19 0.424269 0.500000 0.671332
O O20 0.429864 0.764169 0.638953
O O21 0.076154 0.500000 0.088136
O O22 0.000000 0.343191 0.086877
#
# Coordination Sequence:
#
# PCOD9519711 Si02
#       8
#    16  16  16   8  16  16  16  16
#     4   8  15  29  48  71 100 132 167 209 254 297
#     4  10  20  33  47  66  99 139 170 198 238 290
#     4   9  18  33  51  71  96 126 165 206 241 286
#     4   9  17  31  51  71  91 123 167 205 239 283
#     4  11  20  30  49  75 100 128 167 209 249 296
#     4  10  19  33  51  71  98 128 161 200 249 297
#     4  10  19  33  50  69  96 131 167 199 238 294
#     4  10  20  32  47  71 102 131 162 204 247 285
#
# _framework density 16.144732000000001
#
# number of rings (size 3 to 8) (size 9 to 14) (size 15 to 20)
#    0.000    2.333    1.333    2.600    0.000    4.533 
#    0.000    0.000    0.000    1.600    1.733    4.667 
#    0.000    0.000    0.000    0.000    0.000    0.000 
#
# Total GULP energy -334555.328582 kJ/mol
# GULP energy per Si atom -5575.922143 kJ/mol
# Density = 1.610799 g / cm^3
# Si number density = 16.144732 Si / 1000 Ang^3
#
#
#
# Elastic Constant Matrix: (Units=GPa)
#
#
# Indices 1 2 3 4 5 6 
#
# 1 42.8797 22.0375 17.0456 0.0000 0.0000 0.0000
# 2 22.0375 65.7076 40.5794 0.0000 0.0000 0.0000
# 3 17.0456 40.5794 72.5276 0.0000 0.0000 0.0000
# 4 0.0000 0.0000 0.0000 20.0785 0.0000 0.0000
# 5 0.0000 0.0000 0.0000 0.0000 14.2964 0.0000
# 6 0.0000 0.0000 0.0000 0.0000 0.0000 25.7856
#
#
#
# Elastic Compliance Matrix: (Units=1/GPa)
#
#
# Indices 1 2 3 4 5 6 
#
# 1 0.028377 -0.008249 -0.002054 0.000000 0.000000 0.000000
# 2 -0.008249 0.025652 -0.012414 0.000000 0.000000 0.000000
# 3 -0.002054 -0.012414 0.021216 0.000000 0.000000 0.000000
# 4 0.000000 0.000000 0.000000 0.049804 0.000000 0.000000
# 5 0.000000 0.000000 0.000000 0.000000 0.069948 0.000000
# 6 0.000000 0.000000 0.000000 0.000000 0.000000 0.038781
#
#
# Mechanical properties :
#
#
# Convention : Reuss Voigt Hill
#
# Bulk Modulus (GPa) = 33.54353 37.82665 35.68509
# Shear Modulus (GPa) = 17.29216 18.79559 18.04388
#
# Velocity S-wave (km/s) = 3.27627 3.41573 3.34673
# Velocity P-wave (km/s) = 5.92738 6.24795 6.08977
#
# Compressibility (1/GPa) = 0.02981201
#
# Stress axis : x y z
#
# Youngs Moduli (GPa) = 35.23997 38.98367 47.13416
#
# Poissons Ratio (x) = 0.32156 0.09681
# Poissons Ratio (y) = 0.29068 0.58510
# Poissons Ratio (z) = 0.07238 0.48393
#
# Static dielectric constant tensor:
#      x y z
#    x 1.539300 0.000000 0.000000 
#    y 0.000000 1.546840 0.000000 
#    z 0.000000 0.000000 1.524120 
# 
# From -- ./inp_files/67158.got.cif
#   From: 2010.05.17/outbox.cif.g08.bks.cpg/sg71_34_cif.got.tgz:67158.got - 2010.06.03 16:22:01.
