data_PCOD9519081
_publ_section_title
;
Structure prediction by ZEFSAII (Michael W. Deem and Ramdas Pophale) SiO2 
 PCOD9519081
Probable space group: I M M M
;
_chemical_formula_sum "Si O2"
_cell_formula_units_Z 96
_cell_length_a 9.725003
_cell_length_b 20.264097
_cell_length_c 27.866128
_cell_angle_alpha 90.000000
_cell_angle_beta 90.000000
_cell_angle_gamma 90.000000
_cell_volume 5491.533374
_symmetry_space_group_name_H-M "I M M M"
_symmetry_group_IT_number 71
_symmetry_cell_setting 'orthorhombic'
loop_
_space_group_symop_operation_xyz
x,y,z
-x,-y,z
x,-y,-z
-x,y,-z
-x,-y,-z
x,y,-z
-x,y,z
x,-y,z
1/2+x,1/2+y,1/2+z
1/2-x,1/2-y,1/2+z
1/2+x,1/2-y,1/2-z
1/2-x,1/2+y,1/2-z
1/2-x,1/2-y,1/2-z
1/2+x,1/2+y,1/2-z
1/2-x,1/2+y,1/2+z
1/2+x,1/2-y,1/2+z
loop_
_atom_site_type_symbol
_atom_site_label
_atom_site_fract_x
_atom_site_fract_y
_atom_site_fract_z
Si Si1 0.657092 0.425108 0.441445
Si Si2 0.660948 0.205839 0.610163
Si Si3 0.844217 0.695812 0.442439
Si Si4 0.338504 0.284979 0.708944
Si Si5 0.338531 0.075277 0.336432
Si Si6 0.335724 0.426476 0.260656
O O1 0.656663 0.424777 0.500000
O O2 0.500000 0.410824 0.426018
O O3 0.692038 0.500000 0.426720
O O4 0.760577 0.368661 0.425159
O O5 0.500000 0.210380 0.596216
O O6 0.759657 0.239672 0.572155
O O7 0.680545 0.247950 0.658909
O O8 0.693931 0.130711 0.624426
O O9 0.849394 0.691529 0.500000
O O10 0.000000 0.697121 0.423929
O O11 0.500000 0.279171 0.721451
O O12 0.250000 0.250000 0.750000
O O13 0.304525 0.362885 0.706994
O O14 0.500000 0.084912 0.323339
O O15 0.245510 0.083077 0.289232
O O16 0.322305 0.000000 0.353552
O O17 0.500000 0.425986 0.251781
O O18 0.300767 0.500000 0.279429
#
# Coordination Sequence:
#
# PCOD9519081 Si02
#       6
#    16  16  16  16  16  16
#     4   8  14  27  49  74  97 124 160 200 244 296
#     4  10  20  33  50  74 101 131 169 208 252 305
#     4  10  21  35  51  73 100 131 169 214 261 304
#     4  10  19  31  48  72 101 131 165 203 244 294
#     4   9  17  30  49  73 100 128 162 205 247 293
#     4   9  17  29  46  69  99 134 167 199 238 287
#
# _framework density 17.481456999999999
#
# number of rings (size 3 to 8) (size 9 to 14) (size 15 to 20)
#    0.000    2.667    1.667    1.000    0.000    2.667 
#    0.000    2.500    0.000    3.500    0.000    3.500 
#    0.000    0.000    0.000    0.000    0.000    0.000 
#
# Total GULP energy -267529.385443 kJ/mol
# GULP energy per Si atom -5573.528863 kJ/mol
# Density = 1.744167 g / cm^3
# Si number density = 17.481457 Si / 1000 Ang^3
#
#
#
# Elastic Constant Matrix: (Units=GPa)
#
#
# Indices 1 2 3 4 5 6 
#
# 1 52.2243 47.7836 16.4416 0.0000 0.0000 0.0000
# 2 47.7836 126.9656 14.7723 0.0000 0.0000 0.0000
# 3 16.4416 14.7723 8.8319 0.0000 0.0000 0.0000
# 4 0.0000 0.0000 0.0000 24.9587 0.0000 0.0000
# 5 0.0000 0.0000 0.0000 0.0000 19.2082 0.0000
# 6 0.0000 0.0000 0.0000 0.0000 0.0000 22.4628
#
#
#
# Elastic Compliance Matrix: (Units=1/GPa)
#
#
# Indices 1 2 3 4 5 6 
#
# 1 0.056841 -0.011275 -0.086958 0.000000 0.000000 0.000000
# 2 -0.011275 0.012016 0.000892 0.000000 0.000000 0.000000
# 3 -0.086958 0.000892 0.273618 0.000000 0.000000 0.000000
# 4 0.000000 0.000000 0.000000 0.040066 0.000000 0.000000
# 5 0.000000 0.000000 0.000000 0.000000 0.052061 0.000000
# 6 0.000000 0.000000 0.000000 0.000000 0.000000 0.044518
#
#
# Mechanical properties :
#
#
# Convention : Reuss Voigt Hill
#
# Bulk Modulus (GPa) = 6.76625 38.44630 22.60627
# Shear Modulus (GPa) = 6.91500 20.59423 13.75461
#
# Velocity S-wave (km/s) = 1.99103 3.43601 2.80806
# Velocity P-wave (km/s) = 3.02730 6.14670 4.84492
#
# Compressibility (1/GPa) = 0.14779236
#
# Stress axis : x y z
#
# Youngs Moduli (GPa) = 17.59303 83.22507 3.65473
#
# Poissons Ratio (x) = 0.93833 0.31781
# Poissons Ratio (y) = 0.19835 -0.00326
# Poissons Ratio (z) = 1.52985 -0.07420
#
# Static dielectric constant tensor:
#      x y z
#    x 1.591810 0.000000 0.000000 
#    y 0.000000 1.625970 0.000000 
#    z 0.000000 0.000000 1.586590 
# 
# From -- ./inp_files/14869.got.cif
#   From: 2010.05.17/outbox.cif.g08.bks.cpg/sg71_8_cif.got.tgz:14869.got - 2010.06.03 16:22:01.
