data_PCOD9519416
_publ_section_title
;
Structure prediction by ZEFSAII (Michael W. Deem and Ramdas Pophale) SiO2 
 PCOD9519416
Probable space group: I M M M
;
_chemical_formula_sum "Si O2"
_cell_formula_units_Z 96
_cell_length_a 19.313905
_cell_length_b 32.580494
_cell_length_c 8.797401
_cell_angle_alpha 90.000000
_cell_angle_beta 90.000000
_cell_angle_gamma 90.000000
_cell_volume 5535.822343
_symmetry_space_group_name_H-M "I M M M"
_symmetry_group_IT_number 71
_symmetry_cell_setting 'orthorhombic'
loop_
_space_group_symop_operation_xyz
x,y,z
-x,-y,z
x,-y,-z
-x,y,-z
-x,-y,-z
x,y,-z
-x,y,z
x,-y,z
1/2+x,1/2+y,1/2+z
1/2-x,1/2-y,1/2+z
1/2+x,1/2-y,1/2-z
1/2-x,1/2+y,1/2-z
1/2-x,1/2-y,1/2-z
1/2+x,1/2+y,1/2-z
1/2-x,1/2+y,1/2+z
1/2+x,1/2-y,1/2+z
loop_
_atom_site_type_symbol
_atom_site_label
_atom_site_fract_x
_atom_site_fract_y
_atom_site_fract_z
Si Si1 0.920355 0.838815 0.682651
Si Si2 0.159759 0.500000 0.675204
Si Si3 0.581690 0.837120 0.316341
Si Si4 0.323440 0.413932 0.182895
Si Si5 0.584085 0.253646 0.676632
Si Si6 0.671594 0.500000 0.675618
Si Si7 0.169739 0.410978 0.316330
O O1 0.921320 0.838703 0.500000
O O2 0.873262 0.876819 0.731650
O O3 0.893500 0.794496 0.737069
O O4 0.000000 0.843585 0.736020
O O5 0.136325 0.500000 0.500000
O O6 0.243944 0.500000 0.677073
O O7 0.140489 0.544564 0.739638
O O8 0.588613 0.838900 0.500000
O O9 0.500000 0.840982 0.281405
O O10 0.606187 0.791432 0.267432
O O11 0.623973 0.873400 0.240029
O O12 0.349567 0.458070 0.242117
O O13 0.247165 0.407061 0.251279
O O14 0.319288 0.414752 0.000000
O O15 0.603427 0.257402 0.500000
O O16 0.500000 0.252699 0.683762
O O17 0.650036 0.500000 0.500000
O O18 0.172968 0.412228 0.500000
#
# Coordination Sequence:
#
# PCOD9519416 Si02
#       7
#    16   8  16  16  16   8  16
#     4   9  18  32  50  73  99 126 160 202 243 287
#     4   7  14  29  46  65  90 120 153 191 232 273
#     4   9  18  33  51  72  99 128 160 200 244 291
#     4  10  19  32  51  73  98 129 162 197 243 292
#     4   8  15  29  49  70  93 125 161 196 239 290
#     4   9  17  31  50  71  96 126 163 202 236 280
#     4  10  19  32  51  73  97 126 162 203 244 286
#
# _framework density 17.341598000000001
#
# number of rings (size 3 to 8) (size 9 to 14) (size 15 to 20)
#    0.000    3.000    0.000    3.250    0.000    2.333 
#    0.000    4.583    0.000    5.000    0.000    0.000 
#    0.000    0.000    0.000    0.000    0.000    0.000 
#
# Total GULP energy -267276.969514 kJ/mol
# GULP energy per Si atom -5568.270198 kJ/mol
# Density = 1.730213 g / cm^3
# Si number density = 17.341598 Si / 1000 Ang^3
#
#
#
# Elastic Constant Matrix: (Units=GPa)
#
#
# Indices 1 2 3 4 5 6 
#
# 1 40.5983 68.3860 24.3735 0.0009 0.0001 0.0000
# 2 68.3860 217.2160 50.2678 0.0001 0.0005 0.0001
# 3 24.3735 50.2678 36.9335 -0.0180 0.0029 0.0004
# 4 0.0009 0.0001 -0.0180 33.5162 0.0009 0.0001
# 5 0.0001 0.0005 0.0029 0.0009 14.1536 0.0008
# 6 0.0000 0.0001 0.0004 0.0001 0.0008 33.1724
#
#
#
# Elastic Compliance Matrix: (Units=1/GPa)
#
#
# Indices 1 2 3 4 5 6 
#
# 1 0.061803 -0.014625 -0.020880 -0.000013 0.000005 0.000000
# 2 -0.014625 0.010181 -0.004206 -0.000002 0.000001 0.000000
# 3 -0.020880 -0.004206 0.046579 0.000026 -0.000009 -0.000001
# 4 -0.000013 -0.000002 0.000026 0.029836 -0.000002 0.000000
# 5 0.000005 0.000001 -0.000009 -0.000002 0.070653 -0.000002
# 6 0.000000 0.000000 -0.000001 0.000000 -0.000002 0.030146
#
#
# Mechanical properties :
#
#
# Convention : Reuss Voigt Hill
#
# Bulk Modulus (GPa) = 25.54834 64.53360 45.04097
# Shear Modulus (GPa) = 14.63411 26.28314 20.45863
#
# Velocity S-wave (km/s) = 2.90810 3.89731 3.43846
# Velocity P-wave (km/s) = 5.10299 7.58591 6.46477
#
# Compressibility (1/GPa) = 0.03914148
#
# Stress axis : x y z
#
# Youngs Moduli (GPa) = 16.18050 98.21776 21.46887
#
# Poissons Ratio (x) = 1.43647 0.44827
# Poissons Ratio (y) = 0.23665 0.09029
# Poissons Ratio (z) = 0.33785 0.41307
#
# Static dielectric constant tensor:
#      x y z
#    x 1.570490 0.000000 0.000000 
#    y 0.000000 1.618700 0.000000 
#    z 0.000000 0.000000 1.587940 
# 
# From -- ./inp_files/13229.got.cif
#   From: 2010.05.17/outbox.cif.g08.bks.cpg/sg71_7_cif.got.tgz:13229.got - 2010.06.03 16:22:01.
