data_PCOD9519410
_publ_section_title
;
Structure prediction by ZEFSAII (Michael W. Deem and Ramdas Pophale) SiO2 
 PCOD9519410
Probable space group: I M M M
;
_chemical_formula_sum "Si O2"
_cell_formula_units_Z 128
_cell_length_a 25.974098
_cell_length_b 29.834953
_cell_length_c 7.381898
_cell_angle_alpha 90.000000
_cell_angle_beta 90.000000
_cell_angle_gamma 90.000000
_cell_volume 5720.498457
_symmetry_space_group_name_H-M "I M M M"
_symmetry_group_IT_number 71
_symmetry_cell_setting 'orthorhombic'
loop_
_space_group_symop_operation_xyz
x,y,z
-x,-y,z
x,-y,-z
-x,y,-z
-x,-y,-z
x,y,-z
-x,y,z
x,-y,z
1/2+x,1/2+y,1/2+z
1/2-x,1/2-y,1/2+z
1/2+x,1/2-y,1/2-z
1/2-x,1/2+y,1/2-z
1/2-x,1/2-y,1/2-z
1/2+x,1/2+y,1/2-z
1/2-x,1/2+y,1/2+z
1/2+x,1/2-y,1/2+z
loop_
_atom_site_type_symbol
_atom_site_label
_atom_site_fract_x
_atom_site_fract_y
_atom_site_fract_z
Si Si1 0.092252 0.784881 0.780971
Si Si2 0.291924 0.288119 0.715783
Si Si3 0.744974 0.614050 0.278591
Si Si4 0.941848 0.115806 0.220904
Si Si5 0.640583 0.124970 0.206432
Si Si6 0.151712 0.051633 0.221272
Si Si7 0.444703 0.188436 0.212078
Si Si8 0.942394 0.448131 0.781074
O O1 0.150891 0.777827 0.716678
O O2 0.071892 0.833421 0.722174
O O3 0.060444 0.741703 0.723851
O O4 0.091320 0.785345 0.000000
O O5 0.296430 0.292030 0.500000
O O6 0.250000 0.250000 0.750000
O O7 0.274447 0.336952 0.779793
O O8 0.744112 0.612083 0.500000
O O9 0.804159 0.611182 0.216626
O O10 0.704232 0.576463 0.220304
O O11 0.897492 0.081297 0.278407
O O12 0.000000 0.104229 0.276958
O O13 0.941159 0.115829 0.000000
O O14 0.606026 0.164616 0.291183
O O15 0.602052 0.083185 0.207899
O O16 0.652322 0.139335 0.000000
O O17 0.149034 0.000000 0.279032
O O18 0.151427 0.051711 0.000000
O O19 0.500000 0.174530 0.290829
O O20 0.445479 0.175901 0.000000
O O21 0.935254 0.500000 0.730556
O O22 0.000000 0.434431 0.723341
O O23 0.940916 0.445649 0.000000
#
# Coordination Sequence:
#
# PCOD9519410 Si02
#       8
#    16  16  16  16  16  16  16  16
#     4  10  19  32  51  74 100 133 175 216 255 303
#     4  10  19  32  51  72  99 134 170 209 254 302
#     4   9  17  31  47  68 100 132 163 207 257 301
#     4   9  16  27  44  68  99 131 165 208 253 298
#     4  10  20  33  52  75 101 133 170 213 258 303
#     4   9  16  27  44  67  98 135 169 202 249 307
#     4  10  21  35  49  71 105 139 171 212 263 312
#     4   9  19  36  55  74  99 132 168 209 259 309
#
# _framework density 22.375672000000002
#
# number of rings (size 3 to 8) (size 9 to 14) (size 15 to 20)
#    0.000    2.500    1.250    1.875    0.000    4.500 
#    0.000    3.750    0.000    0.000    0.000    0.000 
#    0.000    1.500    0.000    2.625    0.000    2.500 
#
# Total GULP energy -357513.305866 kJ/mol
# GULP energy per Si atom -5586.145404 kJ/mol
# Density = 2.232474 g / cm^3
# Si number density = 22.375672 Si / 1000 Ang^3
#
#
#
# Elastic Constant Matrix: (Units=GPa)
#
#
# Indices 1 2 3 4 5 6 
#
# 1 211.0065 93.2088 3.6767 0.0000 0.0000 0.0000
# 2 93.2088 158.7229 -3.9547 0.0000 0.0000 0.0000
# 3 3.6767 -3.9547 77.9492 0.0000 0.0000 0.0000
# 4 0.0000 0.0000 0.0000 10.1818 0.0000 0.0000
# 5 0.0000 0.0000 0.0000 0.0000 -1.4395 0.0000
# 6 0.0000 0.0000 0.0000 0.0000 0.0000 -223.3113
#
#
#
# Elastic Compliance Matrix: (Units=1/GPa)
#
#
# Indices 1 2 3 4 5 6 
#
# 1 0.006418 -0.003781 -0.000495 0.000000 0.000000 0.000000
# 2 -0.003781 0.008536 0.000611 0.000000 0.000000 0.000000
# 3 -0.000495 0.000611 0.012883 0.000000 0.000000 0.000000
# 4 0.000000 0.000000 0.000000 0.098215 0.000000 0.000000
# 5 0.000000 0.000000 0.000000 0.000000 -0.694663 0.000000
# 6 0.000000 0.000000 0.000000 0.000000 0.000000 -0.004478
#
#
# Mechanical properties :
#
#
# Convention : Reuss Voigt Hill
#
# Bulk Modulus (GPa) = 48.76026 70.39335 59.57680
# Shear Modulus (GPa) = -8.94576 -19.26396 -14.10486
#
# Velocity S-wave (km/s) = -2.00167 -2.93735 -2.51343
# Velocity P-wave (km/s) = 4.06162 4.47482 4.27322
#
# Compressibility (1/GPa) = 0.02050850
#
# Stress axis : x y z
#
# Youngs Moduli (GPa) = 155.80811 117.14977 77.62034
#
# Poissons Ratio (x) = 0.44298 0.03839
# Poissons Ratio (y) = 0.58916 -0.04746
# Poissons Ratio (z) = 0.07706 -0.07163
#
# Static dielectric constant tensor:
#      x y z
#    x 1.828240 0.000000 0.000000 
#    y 0.000000 1.775560 0.000000 
#    z 0.000000 0.000000 1.939720 
# 
# From -- ./inp_files/27868.got.cif
#   From: 2010.05.17/outbox.cif.g08.bks.cpg/sg71_14_cif.got.tgz:27868.got - 2010.06.03 16:22:01.
