data_PCOD9519579
_publ_section_title
;
Structure prediction by ZEFSAII (Michael W. Deem and Ramdas Pophale) SiO2 
 PCOD9519579
Probable space group: I M M M
;
_chemical_formula_sum "Si O2"
_cell_formula_units_Z 112
_cell_length_a 14.265468
_cell_length_b 24.253673
_cell_length_c 18.006676
_cell_angle_alpha 90.000000
_cell_angle_beta 90.000000
_cell_angle_gamma 90.000000
_cell_volume 6230.129758
_symmetry_space_group_name_H-M "I M M M"
_symmetry_group_IT_number 71
_symmetry_cell_setting 'orthorhombic'
loop_
_space_group_symop_operation_xyz
x,y,z
-x,-y,z
x,-y,-z
-x,y,-z
-x,-y,-z
x,y,-z
-x,y,z
x,-y,z
1/2+x,1/2+y,1/2+z
1/2-x,1/2-y,1/2+z
1/2+x,1/2-y,1/2-z
1/2-x,1/2+y,1/2-z
1/2-x,1/2-y,1/2-z
1/2+x,1/2+y,1/2-z
1/2-x,1/2+y,1/2+z
1/2+x,1/2-y,1/2+z
loop_
_atom_site_type_symbol
_atom_site_label
_atom_site_fract_x
_atom_site_fract_y
_atom_site_fract_z
Si Si1 0.226166 0.235555 0.335252
Si Si2 0.394186 0.435002 0.678601
Si Si3 0.392827 0.162566 0.162482
Si Si4 0.791327 0.564371 0.587897
Si Si5 0.107800 0.661622 0.842330
Si Si6 0.109526 0.875678 0.335913
Si Si7 0.723347 0.063571 0.588618
O O1 0.250000 0.250000 0.250000
O O2 0.178415 0.290491 0.366243
O O3 0.321900 0.210284 0.368204
O O4 0.151502 0.185768 0.338199
O O5 0.500000 0.425125 0.650359
O O6 0.388602 0.500000 0.699044
O O7 0.312303 0.423969 0.620340
O O8 0.380152 0.398886 0.752215
O O9 0.500000 0.176544 0.143818
O O10 0.362751 0.104537 0.128776
O O11 0.386532 0.159832 0.252364
O O12 0.793625 0.573133 0.500000
O O13 0.811763 0.500000 0.602656
O O14 0.148952 0.604594 0.873640
O O15 0.000000 0.670166 0.863335
O O16 0.174931 0.913745 0.387029
O O17 0.000000 0.877163 0.355489
O O18 0.713893 0.066596 0.500000
O O19 0.712016 0.000000 0.612007
#
# Coordination Sequence:
#
# PCOD9519579 Si02
#       7
#    16  16  16  16  16  16  16
#     4   9  17  32  54  79 106 133 165 211 260 310
#     4   9  17  30  51  78 105 135 171 210 252 299
#     4  10  20  35  55  79 105 133 169 212 258 309
#     4  10  21  36  53  74 103 138 173 212 259 309
#     4   9  19  35  56  80 105 136 173 215 260 304
#     4  10  19  32  53  79 106 137 174 215 258 307
#     4  10  21  35  51  74 106 143 180 218 261 308
#
# _framework density 17.977155
#
# number of rings (size 3 to 8) (size 9 to 14) (size 15 to 20)
#    0.000    2.429    0.000    3.429    0.000    4.857 
#    0.000    8.571    0.000    3.429    0.000    0.000 
#    0.000    0.000    0.000    0.000    0.000    0.000 
#
# Total GULP energy -312285.511385 kJ/mol
# GULP energy per Si atom -5576.526989 kJ/mol
# Density = 1.793624 g / cm^3
# Si number density = 17.977155 Si / 1000 Ang^3
#
#
#
# Elastic Constant Matrix: (Units=GPa)
#
#
# Indices 1 2 3 4 5 6 
#
# 1 136.8851 61.8353 31.3401 0.0000 0.0000 0.0000
# 2 61.8353 86.7111 27.7476 0.0000 0.0000 0.0000
# 3 31.3401 27.7476 19.7223 0.0000 0.0000 0.0000
# 4 0.0000 0.0000 0.0000 1.1937 0.0000 0.0000
# 5 0.0000 0.0000 0.0000 0.0000 11.1858 0.0000
# 6 0.0000 0.0000 0.0000 0.0000 0.0000 20.6096
#
#
#
# Elastic Compliance Matrix: (Units=1/GPa)
#
#
# Indices 1 2 3 4 5 6 
#
# 1 0.012425 -0.004624 -0.013239 0.000000 0.000000 0.000000
# 2 -0.004624 0.022698 -0.024585 0.000000 0.000000 0.000000
# 3 -0.013239 -0.024585 0.106331 -0.000001 0.000000 0.000000
# 4 0.000000 0.000000 -0.000001 0.837747 0.000000 0.000000
# 5 0.000000 0.000000 0.000000 0.000000 0.089399 0.000000
# 6 0.000000 0.000000 0.000000 0.000000 0.000000 0.048521
#
#
# Mechanical properties :
#
#
# Convention : Reuss Voigt Hill
#
# Bulk Modulus (GPa) = 17.68123 53.90716 35.79420
# Shear Modulus (GPa) = 4.09544 14.75751 9.42647
#
# Velocity S-wave (km/s) = 1.51099 2.86825 2.29237
# Velocity P-wave (km/s) = 3.59178 6.40474 5.19238
#
# Compressibility (1/GPa) = 0.05655715
#
# Stress axis : x y z
#
# Youngs Moduli (GPa) = 80.48023 44.05761 9.40462
#
# Poissons Ratio (x) = 0.20374 0.12451
# Poissons Ratio (y) = 0.37217 0.23121
# Poissons Ratio (z) = 1.06546 1.08316
#
# Static dielectric constant tensor:
#      x y z
#    x 1.626570 0.000000 0.000000 
#    y 0.000000 1.611330 0.000000 
#    z 0.000000 0.000000 1.586310 
# 
# From -- ./inp_files/34840.got.cif
#   From: 2010.05.17/outbox.cif.g08.bks.cpg/sg71_18_cif.got.tgz:34840.got - 2010.06.03 16:22:01.
