data_PCOD9519800
_publ_section_title
;
Structure prediction by ZEFSAII (Michael W. Deem and Ramdas Pophale) SiO2 
 PCOD9519800
Probable space group: I M M M
;
_chemical_formula_sum "Si O2"
_cell_formula_units_Z 104
_cell_length_a 28.273814
_cell_length_b 8.529479
_cell_length_c 22.610801
_cell_angle_alpha 90.000000
_cell_angle_beta 90.000000
_cell_angle_gamma 90.000000
_cell_volume 5452.841181
_symmetry_space_group_name_H-M "I M M M"
_symmetry_group_IT_number 71
_symmetry_cell_setting 'orthorhombic'
loop_
_space_group_symop_operation_xyz
x,y,z
-x,-y,z
x,-y,-z
-x,y,-z
-x,-y,-z
x,y,-z
-x,y,z
x,-y,z
1/2+x,1/2+y,1/2+z
1/2-x,1/2-y,1/2+z
1/2+x,1/2-y,1/2-z
1/2-x,1/2+y,1/2-z
1/2-x,1/2-y,1/2-z
1/2+x,1/2+y,1/2-z
1/2-x,1/2+y,1/2+z
1/2+x,1/2-y,1/2+z
loop_
_atom_site_type_symbol
_atom_site_label
_atom_site_fract_x
_atom_site_fract_y
_atom_site_fract_z
Si Si1 0.419003 0.181380 0.738868
Si Si2 0.446552 0.828266 0.391042
Si Si3 0.313664 0.811377 0.286154
Si Si4 0.225807 0.313256 0.343274
Si Si5 0.554377 0.500000 0.570013
Si Si6 0.947336 0.812418 0.363523
Si Si7 0.852952 0.810397 0.431616
O O1 0.449574 0.181685 0.679839
O O2 0.368055 0.237542 0.715465
O O3 0.437990 0.274667 0.794692
O O4 0.413671 0.000000 0.758724
O O5 0.500000 0.830258 0.416126
O O6 0.423397 0.666121 0.411569
O O7 0.424683 0.000000 0.404761
O O8 0.280027 0.741581 0.336612
O O9 0.295532 0.765185 0.220684
O O10 0.311228 0.000000 0.290876
O O11 0.224080 0.500000 0.347526
O O12 0.192386 0.243844 0.393887
O O13 0.500000 0.500000 0.594865
O O14 0.551501 0.500000 0.500000
O O15 0.901923 0.754176 0.400689
O O16 0.000000 0.752183 0.379875
O O17 0.948322 0.000000 0.371077
O O18 0.850702 0.759887 0.500000
O O19 0.853617 0.000000 0.430530
#
# Coordination Sequence:
#
# PCOD9519800 Si02
#       7
#    16  16  16  16   8  16  16
#     4  10  19  33  52  78 110 143 176 218 278 337
#     4   9  18  31  48  74 107 141 178 221 271 327
#     4   9  18  32  53  79 108 135 166 214 270 331
#     4  10  19  33  53  80 107 133 171 222 273 321
#     4   9  18  32  50  72  98 134 179 221 261 313
#     4  10  21  34  51  78 110 147 191 237 283 331
#     4  10  21  37  56  77 107 149 193 235 281 336
#
# _framework density 19.072624999999999
#
# number of rings (size 3 to 8) (size 9 to 14) (size 15 to 20)
#    0.000    2.385    1.538    0.923    1.077    3.077 
#    0.000    3.077    0.000    0.923    0.000    4.308 
#    0.000    0.000    0.000    0.000    0.000    0.000 
#
# Total GULP energy -289603.377803 kJ/mol
# GULP energy per Si atom -5569.295727 kJ/mol
# Density = 1.902921 g / cm^3
# Si number density = 19.072625 Si / 1000 Ang^3
#
#
#
# Elastic Constant Matrix: (Units=GPa)
#
#
# Indices 1 2 3 4 5 6 
#
# 1 101.4320 10.5436 33.5992 0.0000 0.0000 0.0000
# 2 10.5436 60.9959 30.1070 0.0000 0.0000 0.0000
# 3 33.5992 30.1070 83.2511 0.0000 0.0000 0.0000
# 4 0.0000 0.0000 0.0000 13.1099 0.0000 0.0000
# 5 0.0000 0.0000 0.0000 0.0000 17.4129 0.0000
# 6 0.0000 0.0000 0.0000 0.0000 0.0000 6.1422
#
#
#
# Elastic Compliance Matrix: (Units=1/GPa)
#
#
# Indices 1 2 3 4 5 6 
#
# 1 0.011387 0.000365 -0.004728 0.000000 0.000000 0.000000
# 2 0.000365 0.019969 -0.007369 0.000000 0.000000 0.000000
# 3 -0.004728 -0.007369 0.016585 0.000000 0.000000 0.000000
# 4 0.000000 0.000000 0.000000 0.076278 0.000000 0.000000
# 5 0.000000 0.000000 0.000000 0.000000 0.057429 0.000000
# 6 0.000000 0.000000 0.000000 0.000000 0.000000 0.162808
#
#
# Mechanical properties :
#
#
# Convention : Reuss Voigt Hill
#
# Bulk Modulus (GPa) = 40.85363 43.79761 42.32562
# Shear Modulus (GPa) = 13.29513 18.76160 16.02837
#
# Velocity S-wave (km/s) = 2.64309 3.13979 2.90209
# Velocity P-wave (km/s) = 5.54807 6.01314 5.78528
#
# Compressibility (1/GPa) = 0.02447763
#
# Stress axis : x y z
#
# Youngs Moduli (GPa) = 87.82023 50.07858 60.29623
#
# Poissons Ratio (x) = -0.01829 0.28506
# Poissons Ratio (y) = -0.03208 0.44432
# Poissons Ratio (z) = 0.41519 0.36902
#
# Static dielectric constant tensor:
#      x y z
#    x 1.719970 0.000000 0.000000 
#    y 0.000000 1.704970 0.000000 
#    z 0.000000 0.000000 1.632920 
# 
# From -- ./inp_files/56713.got.cif
#   From: 2010.05.17/outbox.cif.g08.bks.cpg/sg71_29_cif.got.tgz:56713.got - 2010.06.03 16:22:01.
