data_PCOD9519092
_publ_section_title
;
Structure prediction by ZEFSAII (Michael W. Deem and Ramdas Pophale) SiO2 
 PCOD9519092
Probable space group: I M M M
;
_chemical_formula_sum "Si O2"
_cell_formula_units_Z 64
_cell_length_a 10.264670
_cell_length_b 13.382711
_cell_length_c 23.832383
_cell_angle_alpha 90.000000
_cell_angle_beta 90.000000
_cell_angle_gamma 90.000000
_cell_volume 3273.833292
_symmetry_space_group_name_H-M "I M M M"
_symmetry_group_IT_number 71
_symmetry_cell_setting 'orthorhombic'
loop_
_space_group_symop_operation_xyz
x,y,z
-x,-y,z
x,-y,-z
-x,y,-z
-x,-y,-z
x,y,-z
-x,y,z
x,-y,z
1/2+x,1/2+y,1/2+z
1/2-x,1/2-y,1/2+z
1/2+x,1/2-y,1/2-z
1/2-x,1/2+y,1/2-z
1/2-x,1/2-y,1/2-z
1/2+x,1/2+y,1/2-z
1/2-x,1/2+y,1/2+z
1/2+x,1/2-y,1/2+z
loop_
_atom_site_type_symbol
_atom_site_label
_atom_site_fract_x
_atom_site_fract_y
_atom_site_fract_z
Si Si1 0.154356 0.822534 0.173072
Si Si2 0.500000 0.385461 0.932097
Si Si3 0.500000 0.891855 0.433757
Si Si4 0.650539 0.889943 0.267138
Si Si5 0.248802 0.254631 0.933415
O O1 0.242751 0.879473 0.218205
O O2 0.165467 0.706033 0.192928
O O3 0.218347 0.831583 0.111390
O O4 0.000000 0.848099 0.173246
O O5 0.500000 0.500000 0.910523
O O6 0.374850 0.319471 0.917535
O O7 0.500000 0.393384 0.000000
O O8 0.500000 0.906306 0.500000
O O9 0.626930 0.827629 0.424143
O O10 0.500000 0.000000 0.405912
O O11 0.500000 0.884439 0.246091
O O12 0.667044 0.000000 0.293483
O O13 0.255810 0.227878 0.000000
#
# Coordination Sequence:
#
# PCOD9519092 Si02
#       5
#    16   8   8  16  16
#     4  10  20  35  56  82 110 138 177 221 263 318
#     4   9  18  30  42  63 101 145 183 213 247 302
#     4   9  16  26  42  65  97 137 173 203 245 306
#     4   9  20  38  58  78 104 140 180 224 268 309
#     4  10  19  31  48  74 107 141 173 212 262 316
#
# _framework density 19.548949
#
# number of rings (size 3 to 8) (size 9 to 14) (size 15 to 20)
#    0.000    2.500    1.250    0.750    1.750    5.500 
#    0.000    0.000    0.000    0.750    0.000    3.500 
#    0.000    0.000    0.000    0.000    0.000    0.000 
#
# Total GULP energy -178231.618890 kJ/mol
# GULP energy per Si atom -5569.738090 kJ/mol
# Density = 1.950445 g / cm^3
# Si number density = 19.548949 Si / 1000 Ang^3
#
#
#
# Elastic Constant Matrix: (Units=GPa)
#
#
# Indices 1 2 3 4 5 6 
#
# 1 127.7929 5.5094 33.9127 0.0000 0.0000 0.0000
# 2 5.5094 36.0760 5.6313 0.0000 0.0000 0.0000
# 3 33.9127 5.6313 94.7627 0.0000 0.0000 0.0000
# 4 0.0000 0.0000 0.0000 5.7548 0.0000 0.0000
# 5 0.0000 0.0000 0.0000 0.0000 42.0111 0.0000
# 6 0.0000 0.0000 0.0000 0.0000 0.0000 31.6107
#
#
#
# Elastic Compliance Matrix: (Units=1/GPa)
#
#
# Indices 1 2 3 4 5 6 
#
# 1 0.008672 -0.000848 -0.003053 0.000000 0.000000 0.000000
# 2 -0.000848 0.028062 -0.001364 0.000000 0.000000 0.000000
# 3 -0.003053 -0.001364 0.011726 0.000000 0.000000 0.000000
# 4 0.000000 0.000000 0.000000 0.173767 0.000000 0.000000
# 5 0.000000 0.000000 0.000000 0.000000 0.023803 0.000000
# 6 0.000000 0.000000 0.000000 0.000000 0.000000 0.031635
#
#
# Mechanical properties :
#
#
# Convention : Reuss Voigt Hill
#
# Bulk Modulus (GPa) = 26.36441 38.74872 32.55656
# Shear Modulus (GPa) = 16.62022 30.11387 23.36705
#
# Velocity S-wave (km/s) = 2.91896 3.92909 3.46108
# Velocity P-wave (km/s) = 4.98759 6.35988 5.71508
#
# Compressibility (1/GPa) = 0.03792993
#
# Stress axis : x y z
#
# Youngs Moduli (GPa) = 115.31495 35.63577 85.27817
#
# Poissons Ratio (x) = 0.03021 0.26036
# Poissons Ratio (y) = 0.09776 0.11633
# Poissons Ratio (z) = 0.35206 0.04861
#
# Static dielectric constant tensor:
#      x y z
#    x 1.696630 0.000000 0.000000 
#    y 0.000000 1.714980 0.000000 
#    z 0.000000 0.000000 1.715980 
# 
# From -- ./inp_files/14195.got.cif
#   From: 2010.05.17/outbox.cif.g08.bks.cpg/sg71_8_cif.got.tgz:14195.got - 2010.06.03 16:22:01.
