data_PCOD9519804
_publ_section_title
;
Structure prediction by ZEFSAII (Michael W. Deem and Ramdas Pophale) SiO2 
 PCOD9519804
Probable space group: I M M M
;
_chemical_formula_sum "Si O2"
_cell_formula_units_Z 96
_cell_length_a 13.544730
_cell_length_b 24.840055
_cell_length_c 16.462407
_cell_angle_alpha 90.000000
_cell_angle_beta 90.000000
_cell_angle_gamma 90.000000
_cell_volume 5538.807096
_symmetry_space_group_name_H-M "I M M M"
_symmetry_group_IT_number 71
_symmetry_cell_setting 'orthorhombic'
loop_
_space_group_symop_operation_xyz
x,y,z
-x,-y,z
x,-y,-z
-x,y,-z
-x,-y,-z
x,y,-z
-x,y,z
x,-y,z
1/2+x,1/2+y,1/2+z
1/2-x,1/2-y,1/2+z
1/2+x,1/2-y,1/2-z
1/2-x,1/2+y,1/2-z
1/2-x,1/2-y,1/2-z
1/2+x,1/2+y,1/2-z
1/2-x,1/2+y,1/2+z
1/2+x,1/2-y,1/2+z
loop_
_atom_site_type_symbol
_atom_site_label
_atom_site_fract_x
_atom_site_fract_y
_atom_site_fract_z
Si Si1 0.386993 0.252629 0.846168
Si Si2 0.689861 0.625011 0.838524
Si Si3 0.817367 0.783301 0.910271
Si Si4 0.117611 0.889270 0.168621
Si Si5 0.881210 0.064199 0.500000
Si Si6 0.389288 0.815414 0.678973
Si Si7 0.885672 0.936090 0.000000
O O1 0.500000 0.244926 0.873811
O O2 0.365681 0.316589 0.839663
O O3 0.298926 0.228616 0.900450
O O4 0.375698 0.220687 0.760696
O O5 0.658754 0.594614 0.756121
O O6 0.662537 0.592698 0.919505
O O7 0.804676 0.640527 0.829982
O O8 0.853733 0.827188 0.846360
O O9 0.872229 0.727618 0.892480
O O10 0.840641 0.803416 0.000000
O O11 0.000000 0.895672 0.171770
O O12 0.157113 0.917730 0.086781
O O13 0.000000 0.071754 0.500000
O O14 0.861585 0.000000 0.500000
O O15 0.500000 0.836792 0.678985
O O16 0.000000 0.916340 0.000000
O O17 0.886993 0.000000 0.000000
#
# Coordination Sequence:
#
# PCOD9519804 Si02
#       7
#    16  16  16  16   8  16   8
#     4  10  19  33  52  78 113 147 180 219 262 323
#     4  11  21  38  57  80 107 145 185 225 275 319
#     4  11  20  30  45  76 115 146 178 208 252 328
#     4  11  19  31  53  76 105 142 173 211 265 324
#     4  11  26  44  60  81 107 143 196 246 282 321
#     4  10  20  34  53  80 114 145 179 218 263 328
#     4   9  20  34  49  76 105 129 165 213 265 320
#
# _framework density 17.332252
#
# number of rings (size 3 to 8) (size 9 to 14) (size 15 to 20)
#    0.000    1.500    4.167    3.000    4.667    2.000 
#    0.000    1.667    0.000    1.000    0.000    0.000 
#    0.000    3.333    0.000    0.000    0.000    0.000 
#
# Total GULP energy -267669.410198 kJ/mol
# GULP energy per Si atom -5576.446046 kJ/mol
# Density = 1.729280 g / cm^3
# Si number density = 17.332252 Si / 1000 Ang^3
#
#
#
# Elastic Constant Matrix: (Units=GPa)
#
#
# Indices 1 2 3 4 5 6 
#
# 1 100.9496 29.8278 38.5610 0.0000 0.0000 0.0000
# 2 29.8278 55.1784 47.3093 0.0002 0.0000 0.0000
# 3 38.5610 47.3093 144.7717 0.0001 0.0000 0.0000
# 4 0.0000 0.0002 0.0001 18.1633 0.0000 0.0000
# 5 0.0000 0.0000 0.0000 0.0000 10.0486 0.0000
# 6 0.0000 0.0000 0.0000 0.0000 0.0000 17.5883
#
#
#
# Elastic Compliance Matrix: (Units=1/GPa)
#
#
# Indices 1 2 3 4 5 6 
#
# 1 0.012018 -0.005213 -0.001498 0.000000 0.000000 0.000000
# 2 -0.005213 0.027438 -0.007578 0.000000 0.000000 0.000000
# 3 -0.001498 -0.007578 0.009783 0.000000 0.000000 0.000000
# 4 0.000000 0.000000 0.000000 0.055056 0.000000 0.000000
# 5 0.000000 0.000000 0.000000 0.000000 0.099517 0.000000
# 6 0.000000 0.000000 0.000000 0.000000 0.000000 0.056856
#
#
# Mechanical properties :
#
#
# Convention : Reuss Voigt Hill
#
# Bulk Modulus (GPa) = 48.39690 59.14400 53.77045
# Shear Modulus (GPa) = 16.88439 21.50681 19.19560
#
# Velocity S-wave (km/s) = 3.12454 3.52640 3.33153
# Velocity P-wave (km/s) = 6.40317 7.12590 6.77418
#
# Compressibility (1/GPa) = 0.02066248
#
# Stress axis : x y z
#
# Youngs Moduli (GPa) = 83.20706 36.44574 102.22084
#
# Poissons Ratio (x) = 0.18997 0.15310
# Poissons Ratio (y) = 0.43372 0.77463
# Poissons Ratio (z) = 0.12462 0.27618
#
# Static dielectric constant tensor:
#      x y z
#    x 1.585440 0.000000 0.000000 
#    y 0.000000 1.577860 0.000000 
#    z 0.000000 0.000000 1.639700 
# 
# From -- ./inp_files/34779.got.cif
#   From: 2010.05.17/outbox.cif.g08.bks.cpg/sg71_18_cif.got.tgz:34779.got - 2010.06.03 16:22:01.
