data_PCOD9519564
_publ_section_title
;
Structure prediction by ZEFSAII (Michael W. Deem and Ramdas Pophale) SiO2 
 PCOD9519564
Probable space group: I M M M
;
_chemical_formula_sum "Si O2"
_cell_formula_units_Z 120
_cell_length_a 25.968228
_cell_length_b 13.891490
_cell_length_c 18.855746
_cell_angle_alpha 90.000000
_cell_angle_beta 90.000000
_cell_angle_gamma 90.000000
_cell_volume 6801.972402
_symmetry_space_group_name_H-M "I M M M"
_symmetry_group_IT_number 71
_symmetry_cell_setting 'orthorhombic'
loop_
_space_group_symop_operation_xyz
x,y,z
-x,-y,z
x,-y,-z
-x,y,-z
-x,-y,-z
x,y,-z
-x,y,z
x,-y,z
1/2+x,1/2+y,1/2+z
1/2-x,1/2-y,1/2+z
1/2+x,1/2-y,1/2-z
1/2-x,1/2+y,1/2-z
1/2-x,1/2-y,1/2-z
1/2+x,1/2+y,1/2-z
1/2-x,1/2+y,1/2+z
1/2+x,1/2-y,1/2+z
loop_
_atom_site_type_symbol
_atom_site_label
_atom_site_fract_x
_atom_site_fract_y
_atom_site_fract_z
Si Si1 0.664620 0.606260 0.205699
Si Si2 0.243148 0.116644 0.421725
Si Si3 0.739178 0.852807 0.785205
Si Si4 0.586558 0.752001 0.845937
Si Si5 0.000000 0.115291 0.585475
Si Si6 0.829359 0.386280 0.582947
Si Si7 0.443620 0.114949 0.278150
Si Si8 0.838467 0.609597 0.161081
O O1 0.641960 0.500000 0.195624
O O2 0.699284 0.630977 0.136414
O O3 0.705301 0.601438 0.269890
O O4 0.622498 0.688306 0.206167
O O5 0.230127 0.151354 0.500000
O O6 0.297774 0.155676 0.393266
O O7 0.247942 0.000000 0.424225
O O8 0.750000 0.750000 0.750000
O O9 0.717564 0.859291 0.864097
O O10 0.693507 0.893603 0.735056
O O11 0.549106 0.676360 0.885351
O O12 0.623530 0.815609 0.896490
O O13 0.558307 0.828388 0.795750
O O14 0.000000 0.118499 0.500000
O O15 0.000000 0.000000 0.605250
O O16 0.816968 0.376143 0.500000
O O17 0.841764 0.500000 0.595730
O O18 0.500000 0.129218 0.310983
O O19 0.394904 0.149486 0.324399
O O20 0.436750 0.000000 0.265874
O O21 0.846606 0.500000 0.136848
#
# Coordination Sequence:
#
# PCOD9519564 Si02
#       8
#    16  16  16  16   8  16  16  16
#     4  10  20  32  52  77 103 138 176 218 262 314
#     4   8  15  27  44  70 101 132 167 202 243 298
#     4  11  18  33  51  75 105 140 178 218 266 323
#     4  12  21  38  56  76 101 134 180 221 266 319
#     4  11  26  44  57  73 103 141 175 218 276 328
#     4  11  23  37  55  80 112 146 179 225 278 324
#     4  10  19  32  53  75  97 127 170 220 260 304
#     4   9  16  28  47  69  97 133 167 211 262 304
#
# _framework density 17.641940999999999
#
# number of rings (size 3 to 8) (size 9 to 14) (size 15 to 20)
#    0.000    1.800    3.333    3.200    0.000    1.067 
#    0.000    1.333    0.000    2.000    0.000    2.800 
#    0.000    0.000    0.000    0.133    0.000    7.267 
#
# Total GULP energy -334173.446311 kJ/mol
# GULP energy per Si atom -5569.557439 kJ/mol
# Density = 1.760179 g / cm^3
# Si number density = 17.641941 Si / 1000 Ang^3
#
#
#
# Elastic Constant Matrix: (Units=GPa)
#
#
# Indices 1 2 3 4 5 6 
#
# 1 91.1480 31.9278 19.2210 0.0000 0.0000 0.0000
# 2 31.9278 104.1087 15.0474 0.0000 0.0000 0.0000
# 3 19.2210 15.0474 50.5566 0.0000 0.0000 0.0000
# 4 0.0000 0.0000 0.0000 13.1547 0.0000 0.0000
# 5 0.0000 0.0000 0.0000 0.0000 16.4469 0.0000
# 6 0.0000 0.0000 0.0000 0.0000 0.0000 26.5427
#
#
#
# Elastic Compliance Matrix: (Units=1/GPa)
#
#
# Indices 1 2 3 4 5 6 
#
# 1 0.012996 -0.003419 -0.003923 0.000000 0.000000 0.000000
# 2 -0.003419 0.010936 -0.001955 0.000000 0.000000 0.000000
# 3 -0.003923 -0.001955 0.021853 0.000000 0.000000 0.000000
# 4 0.000000 0.000000 0.000000 0.076018 0.000000 0.000000
# 5 0.000000 0.000000 0.000000 0.000000 0.060802 0.000000
# 6 0.000000 0.000000 0.000000 0.000000 0.000000 0.037675
#
#
# Mechanical properties :
#
#
# Convention : Reuss Voigt Hill
#
# Bulk Modulus (GPa) = 36.77670 42.02286 39.39978
# Shear Modulus (GPa) = 20.16620 23.20331 21.68476
#
# Velocity S-wave (km/s) = 3.38462 3.63055 3.50974
# Velocity P-wave (km/s) = 6.01379 6.43787 6.22944
#
# Compressibility (1/GPa) = 0.02719113
#
# Stress axis : x y z
#
# Youngs Moduli (GPa) = 76.94679 91.43819 45.75940
#
# Poissons Ratio (x) = 0.31258 0.17953
# Poissons Ratio (y) = 0.26304 0.08948
# Poissons Ratio (z) = 0.30190 0.17880
#
# Static dielectric constant tensor:
#      x y z
#    x 1.637470 0.000000 0.000000 
#    y 0.000000 1.729390 0.000000 
#    z 0.000000 0.000000 1.604130 
# 
# From -- ./inp_files/56479.got.cif
#   From: 2010.05.17/outbox.cif.g08.bks.cpg/sg71_29_cif.got.tgz:56479.got - 2010.06.03 16:22:01.
