data_PCOD9519377
_publ_section_title
;
Structure prediction by ZEFSAII (Michael W. Deem and Ramdas Pophale) SiO2 
 PCOD9519377
Probable space group: I M M M
;
_chemical_formula_sum "Si O2"
_cell_formula_units_Z 88
_cell_length_a 7.526598
_cell_length_b 29.040399
_cell_length_c 19.293859
_cell_angle_alpha 90.000000
_cell_angle_beta 90.000000
_cell_angle_gamma 90.000000
_cell_volume 4217.163123
_symmetry_space_group_name_H-M "I M M M"
_symmetry_group_IT_number 71
_symmetry_cell_setting 'orthorhombic'
loop_
_space_group_symop_operation_xyz
x,y,z
-x,-y,z
x,-y,-z
-x,y,-z
-x,-y,-z
x,y,-z
-x,y,z
x,-y,z
1/2+x,1/2+y,1/2+z
1/2-x,1/2-y,1/2+z
1/2+x,1/2-y,1/2-z
1/2-x,1/2+y,1/2-z
1/2-x,1/2-y,1/2-z
1/2+x,1/2+y,1/2-z
1/2-x,1/2+y,1/2+z
1/2+x,1/2-y,1/2+z
loop_
_atom_site_type_symbol
_atom_site_label
_atom_site_fract_x
_atom_site_fract_y
_atom_site_fract_z
Si Si1 0.202060 0.108121 0.718032
Si Si2 0.283532 0.753381 0.922533
Si Si3 0.712569 0.552561 0.651205
Si Si4 0.789979 0.447588 0.500000
Si Si5 0.782674 0.147227 0.578862
Si Si6 0.788637 0.298270 0.713276
O O1 0.283531 0.078488 0.780726
O O2 0.281324 0.114594 0.641151
O O3 0.198280 0.159745 0.748346
O O4 0.000000 0.091232 0.707834
O O5 0.500000 0.752684 0.920780
O O6 0.228086 0.700475 0.907931
O O7 0.226144 0.789465 0.865041
O O8 0.227480 0.765010 0.000000
O O9 0.500000 0.551330 0.658199
O O10 0.780175 0.500000 0.649555
O O11 0.744519 0.573782 0.574767
O O12 0.711343 0.500000 0.500000
O O13 0.000000 0.451347 0.500000
O O14 0.730499 0.135337 0.500000
O O15 0.000000 0.146978 0.580679
O O16 0.750000 0.250000 0.750000
O O17 0.000000 0.306838 0.714290
#
# Coordination Sequence:
#
# PCOD9519377 Si02
#       6
#    16  16  16   8  16  16
#     4  10  19  32  50  72  97 125 163 204 245 294
#     4   8  14  26  44  63  85 118 158 192 225 274
#     4   9  18  33  53  74  99 131 163 199 249 304
#     4   9  17  31  53  77  99 125 163 207 243 285
#     4   8  13  24  45  69  90 119 160 197 230 277
#     4  11  20  31  48  69  97 128 161 199 243 289
#
# _framework density 20.867107000000001
#
# number of rings (size 3 to 8) (size 9 to 14) (size 15 to 20)
#    0.000    2.818    1.818    1.909    0.000    1.818 
#    1.636    0.000    0.000    3.818    0.000    3.818 
#    0.000    0.000    0.000    6.182    0.000    6.545 
#
# Total GULP energy -245237.128079 kJ/mol
# GULP energy per Si atom -5573.571093 kJ/mol
# Density = 2.081961 g / cm^3
# Si number density = 20.867107 Si / 1000 Ang^3
#
#
#
# Elastic Constant Matrix: (Units=GPa)
#
#
# Indices 1 2 3 4 5 6 
#
# 1 63.0875 -4.7483 2.9357 0.0000 0.0000 0.0000
# 2 -4.7483 32.7327 38.7253 0.0000 0.0000 0.0000
# 3 2.9357 38.7253 196.7771 0.0000 0.0000 0.0000
# 4 0.0000 0.0000 0.0000 35.8270 0.0000 0.0000
# 5 0.0000 0.0000 0.0000 0.0000 -3.8046 0.0000
# 6 0.0000 0.0000 0.0000 0.0000 0.0000 7.2511
#
#
#
# Elastic Compliance Matrix: (Units=1/GPa)
#
#
# Indices 1 2 3 4 5 6 
#
# 1 0.016151 0.003426 -0.000915 0.000000 0.000000 0.000000
# 2 0.003426 0.040549 -0.008031 0.000000 0.000000 0.000000
# 3 -0.000915 -0.008031 0.006676 0.000000 0.000000 0.000000
# 4 0.000000 0.000000 0.000000 0.027912 0.000000 0.000000
# 5 0.000000 0.000000 0.000000 0.000000 -0.262837 0.000000
# 6 0.000000 0.000000 0.000000 0.000000 0.000000 0.137910
#
#
# Mechanical properties :
#
#
# Convention : Reuss Voigt Hill
#
# Bulk Modulus (GPa) = 19.10763 40.71362 29.91063
# Shear Modulus (GPa) = -970.27578 24.90035 -472.68771
#
# Velocity S-wave (km/s) = -21.58676 3.45814 -15.06700
# Velocity P-wave (km/s) = 24.74148 5.95804 16.98002
#
# Compressibility (1/GPa) = 0.05233511
#
# Stress axis : x y z
#
# Youngs Moduli (GPa) = 61.91404 24.66175 149.78981
#
# Poissons Ratio (x) = -0.08448 0.13707
# Poissons Ratio (y) = -0.21209 1.20296
# Poissons Ratio (z) = 0.05666 0.19806
#
# Static dielectric constant tensor:
#      x y z
#    x 1.812550 0.000000 0.000000 
#    y 0.000000 1.724690 0.000000 
#    z 0.000000 0.000000 1.820320 
# 
# From -- ./inp_files/42452.got.cif
#   From: 2010.05.17/outbox.cif.g08.bks.cpg/sg71_22_cif.got.tgz:42452.got - 2010.06.03 16:22:01.
