data_PCOD9519695
_publ_section_title
;
Structure prediction by ZEFSAII (Michael W. Deem and Ramdas Pophale) SiO2 
 PCOD9519695
Probable space group: I M M M
;
_chemical_formula_sum "Si O2"
_cell_formula_units_Z 74
_cell_length_a 24.618628
_cell_length_b 9.797427
_cell_length_c 16.120524
_cell_angle_alpha 90.000000
_cell_angle_beta 90.000000
_cell_angle_gamma 90.000000
_cell_volume 3888.257664
_symmetry_space_group_name_H-M "I M M M"
_symmetry_group_IT_number 71
_symmetry_cell_setting 'orthorhombic'
loop_
_space_group_symop_operation_xyz
x,y,z
-x,-y,z
x,-y,-z
-x,y,-z
-x,-y,-z
x,y,-z
-x,y,z
x,-y,z
1/2+x,1/2+y,1/2+z
1/2-x,1/2-y,1/2+z
1/2+x,1/2-y,1/2-z
1/2-x,1/2+y,1/2-z
1/2-x,1/2-y,1/2-z
1/2+x,1/2+y,1/2-z
1/2-x,1/2+y,1/2+z
1/2+x,1/2-y,1/2+z
loop_
_atom_site_type_symbol
_atom_site_label
_atom_site_fract_x
_atom_site_fract_y
_atom_site_fract_z
Si Si1 0.061083 0.339242 0.183050
Si Si2 0.599925 0.157909 0.500000
Si Si3 0.884910 0.500000 0.408119
Si Si4 0.500000 0.000000 0.000000
Si Si5 0.255501 0.853632 0.643151
Si Si6 0.792425 0.163310 0.000000
Si Si7 0.341717 0.775572 0.782181
O O1 0.073605 0.500000 0.202051
O O2 0.066457 0.325838 0.084261
O O3 0.105516 0.246016 0.227168
O O4 0.000000 0.311450 0.210013
O O5 0.648195 0.266703 0.500000
O O6 0.620125 0.000000 0.500000
O O7 0.859026 0.500000 0.500000
O O8 0.949986 0.500000 0.428382
O O9 0.864168 0.371420 0.355404
O O10 0.264500 0.727615 0.581474
O O11 0.299155 0.844633 0.717750
O O12 0.195062 0.841939 0.679329
O O13 0.263428 0.000000 0.601405
O O14 0.793339 0.000000 0.000000
#
# Coordination Sequence:
#
# PCOD9519695 Si02
#       7
#    16   8   8   2  16   8  16
#     4  10  19  32  59  91 125 161 211 270 320 372
#     4  10  19  38  57  89 126 163 209 256 318 386
#     4  10  22  38  58  95 130 164 208 277 325 377
#     4   8  24  36  64  96 134 162 212 280 352 368
#     4  11  24  42  62  91 129 173 215 262 322 395
#     4  12  26  38  64  94 127 166 212 263 324 389
#     4  11  22  36  63  90 127 165 216 268 318 378
#
# _framework density 19.031661
#
# number of rings (size 3 to 8) (size 9 to 14) (size 15 to 20)
#    0.324    1.081    4.324    1.297    4.541    2.162 
#    0.000    0.000    0.000    3.243    0.000    0.757 
#    0.000    0.000    0.000    0.000    0.000    0.000 
#
# Total GULP energy -206030.824077 kJ/mol
# GULP energy per Si atom -5568.400651 kJ/mol
# Density = 1.898834 g / cm^3
# Si number density = 19.031661 Si / 1000 Ang^3
#
#
#
# Elastic Constant Matrix: (Units=GPa)
#
#
# Indices 1 2 3 4 5 6 
#
# 1 141.8961 31.0351 40.5132 0.0000 0.0000 0.0000
# 2 31.0351 97.1147 30.7653 0.0000 0.0000 0.0000
# 3 40.5132 30.7653 107.7557 0.0000 0.0000 0.0000
# 4 0.0000 0.0000 0.0000 13.7769 0.0000 0.0000
# 5 0.0000 0.0000 0.0000 0.0000 588.5362 0.0000
# 6 0.0000 0.0000 0.0000 0.0000 0.0000 12.3512
#
#
#
# Elastic Compliance Matrix: (Units=1/GPa)
#
#
# Indices 1 2 3 4 5 6 
#
# 1 0.008172 -0.001801 -0.002558 0.000000 0.000000 0.000000
# 2 -0.001801 0.011718 -0.002668 0.000000 0.000000 0.000000
# 3 -0.002558 -0.002668 0.011004 0.000000 0.000000 0.000000
# 4 0.000000 0.000000 0.000000 0.072585 0.000000 0.000000
# 5 0.000000 0.000000 0.000000 0.000000 0.001699 0.000000
# 6 0.000000 0.000000 0.000000 0.000000 0.000000 0.080964
#
#
# Mechanical properties :
#
#
# Convention : Reuss Voigt Hill
#
# Bulk Modulus (GPa) = 59.38819 61.26597 60.32708
# Shear Modulus (GPa) = 24.29430 139.22974 81.76202
#
# Velocity S-wave (km/s) = 3.57672 8.56246 6.56158
# Velocity P-wave (km/s) = 6.95197 11.40245 9.44314
#
# Compressibility (1/GPa) = 0.01683836
#
# Stress axis : x y z
#
# Youngs Moduli (GPa) = 122.37349 85.33870 90.87677
#
# Poissons Ratio (x) = 0.15370 0.23247
# Poissons Ratio (y) = 0.22040 0.24250
# Poissons Ratio (z) = 0.31305 0.22772
#
# Static dielectric constant tensor:
#      x y z
#    x 1.675150 0.000000 0.000000 
#    y 0.000000 1.641760 0.000000 
#    z 0.000000 0.000000 1.704000 
# 
# From -- ./inp_files/40000.got.cif
#   From: 2010.05.17/outbox.cif.g08.bks.cpg/sg71_20_cif.got.tgz:40000.got - 2010.06.03 16:22:01.
