data_PCOD9519660
_publ_section_title
;
Structure prediction by ZEFSAII (Michael W. Deem and Ramdas Pophale) SiO2 
 PCOD9519660
Probable space group: I M M M
;
_chemical_formula_sum "Si O2"
_cell_formula_units_Z 88
_cell_length_a 29.673843
_cell_length_b 9.148295
_cell_length_c 18.204856
_cell_angle_alpha 90.000000
_cell_angle_beta 90.000000
_cell_angle_gamma 90.000000
_cell_volume 4941.982500
_symmetry_space_group_name_H-M "I M M M"
_symmetry_group_IT_number 71
_symmetry_cell_setting 'orthorhombic'
loop_
_space_group_symop_operation_xyz
x,y,z
-x,-y,z
x,-y,-z
-x,y,-z
-x,-y,-z
x,y,-z
-x,y,z
x,-y,z
1/2+x,1/2+y,1/2+z
1/2-x,1/2-y,1/2+z
1/2+x,1/2-y,1/2-z
1/2-x,1/2+y,1/2-z
1/2-x,1/2-y,1/2-z
1/2+x,1/2+y,1/2-z
1/2-x,1/2+y,1/2+z
1/2+x,1/2-y,1/2+z
loop_
_atom_site_type_symbol
_atom_site_label
_atom_site_fract_x
_atom_site_fract_y
_atom_site_fract_z
Si Si1 0.790193 0.828170 0.154535
Si Si2 0.885373 0.176099 0.085387
Si Si3 0.447276 0.176278 0.293947
Si Si4 0.698867 0.671090 0.169368
Si Si5 0.551359 0.821905 0.000000
Si Si6 0.605328 0.176336 0.855212
O O1 0.834990 0.781146 0.111513
O O2 0.745018 0.738832 0.138482
O O3 0.799454 0.812585 0.241777
O O4 0.782349 0.000000 0.139652
O O5 0.921635 0.251072 0.138027
O O6 0.888333 0.000000 0.093644
O O7 0.892057 0.212342 0.000000
O O8 0.500000 0.216807 0.290588
O O9 0.421248 0.218091 0.219068
O O10 0.444883 0.000000 0.300169
O O11 0.696115 0.500000 0.152620
O O12 0.654617 0.754551 0.143287
O O13 0.577174 0.777624 0.926465
O O14 0.500000 0.770704 0.000000
O O15 0.550394 0.000000 0.000000
O O16 0.609098 0.000000 0.855395
#
# Coordination Sequence:
#
# PCOD9519660 Si02
#       6
#    16  16  16  16   8  16
#     4   9  18  34  54  78 107 139 178 221 266 317
#     4  10  21  38  58  80 108 144 186 229 269 316
#     4  10  21  36  56  82 110 141 179 224 274 326
#     4  10  19  32  55  82 109 140 176 220 268 322
#     4   9  18  34  57  83 109 141 185 231 270 315
#     4  10  19  34  57  82 109 142 181 224 270 322
#
# _framework density 17.806618
#
# number of rings (size 3 to 8) (size 9 to 14) (size 15 to 20)
#    0.000    2.273    1.818    1.091    0.000    4.727 
#    1.636    2.273    0.000    2.182    0.000    0.000 
#    0.000    0.000    0.000    0.000    0.000    0.000 
#
# Total GULP energy -245561.590344 kJ/mol
# GULP energy per Si atom -5580.945235 kJ/mol
# Density = 1.776609 g / cm^3
# Si number density = 17.806618 Si / 1000 Ang^3
#
#
#
# Elastic Constant Matrix: (Units=GPa)
#
#
# Indices 1 2 3 4 5 6 
#
# 1 160.0854 43.5812 58.7279 0.0000 0.0000 0.0000
# 2 43.5812 22.1485 30.3265 0.0000 0.0000 0.0000
# 3 58.7279 30.3265 88.5386 0.0000 0.0000 0.0000
# 4 0.0000 0.0000 0.0000 18.9336 0.0000 0.0000
# 5 0.0000 0.0000 0.0000 0.0000 18.5362 0.0000
# 6 0.0000 0.0000 0.0000 0.0000 0.0000 31.3153
#
#
#
# Elastic Compliance Matrix: (Units=1/GPa)
#
#
# Indices 1 2 3 4 5 6 
#
# 1 0.013457 -0.026849 0.000271 0.000000 0.000000 0.000000
# 2 -0.026849 0.138597 -0.029664 0.000000 0.000000 0.000000
# 3 0.000271 -0.029664 0.021276 0.000000 0.000000 0.000000
# 4 0.000000 0.000000 0.000000 0.052816 0.000000 0.000000
# 5 0.000000 0.000000 0.000000 0.000000 0.053949 0.000000
# 6 0.000000 0.000000 0.000000 0.000000 0.000000 0.031933
#
#
# Mechanical properties :
#
#
# Convention : Reuss Voigt Hill
#
# Bulk Modulus (GPa) = 16.43521 59.56041 37.99781
# Shear Modulus (GPa) = 11.24117 22.96614 17.10365
#
# Velocity S-wave (km/s) = 2.51528 3.59521 3.10259
# Velocity P-wave (km/s) = 4.20540 7.12426 5.84981
#
# Compressibility (1/GPa) = 0.06084496
#
# Stress axis : x y z
#
# Youngs Moduli (GPa) = 74.31217 7.21516 47.00227
#
# Poissons Ratio (x) = 0.19372 -0.01272
# Poissons Ratio (y) = 1.99522 1.39426
# Poissons Ratio (z) = -0.02011 0.21403
#
# Static dielectric constant tensor:
#      x y z
#    x 1.582820 0.000000 0.000000 
#    y 0.000000 1.596130 0.000000 
#    z 0.000000 0.000000 1.594250 
# 
# From -- ./inp_files/8740.got.cif
#   From: 2010.05.17/outbox.cif.g08.bks.cpg/sg71_5_cif.got.tgz:8740.got - 2010.06.03 16:22:01.
