data_PCOD9519125
_publ_section_title
;
Structure prediction by ZEFSAII (Michael W. Deem and Ramdas Pophale) SiO2 
 PCOD9519125
Probable space group: I M M M
;
_chemical_formula_sum "Si O2"
_cell_formula_units_Z 104
_cell_length_a 8.953759
_cell_length_b 30.192734
_cell_length_c 23.033589
_cell_angle_alpha 90.000000
_cell_angle_beta 90.000000
_cell_angle_gamma 90.000000
_cell_volume 6226.865066
_symmetry_space_group_name_H-M "I M M M"
_symmetry_group_IT_number 71
_symmetry_cell_setting 'orthorhombic'
loop_
_space_group_symop_operation_xyz
x,y,z
-x,-y,z
x,-y,-z
-x,y,-z
-x,-y,-z
x,y,-z
-x,y,z
x,-y,z
1/2+x,1/2+y,1/2+z
1/2-x,1/2-y,1/2+z
1/2+x,1/2-y,1/2-z
1/2-x,1/2+y,1/2-z
1/2-x,1/2-y,1/2-z
1/2+x,1/2+y,1/2-z
1/2-x,1/2+y,1/2+z
1/2+x,1/2-y,1/2+z
loop_
_atom_site_type_symbol
_atom_site_label
_atom_site_fract_x
_atom_site_fract_y
_atom_site_fract_z
Si Si1 0.322416 0.447620 0.281507
Si Si2 0.175496 0.810322 0.930194
Si Si3 0.319510 0.379568 0.931944
Si Si4 0.821924 0.601094 0.610194
Si Si5 0.321792 0.948299 0.656314
Si Si6 0.671944 0.719625 0.070459
Si Si7 0.176035 0.946968 0.000000
O O1 0.500000 0.439681 0.281763
O O2 0.298127 0.500000 0.293685
O O3 0.242958 0.419050 0.330720
O O4 0.254775 0.438477 0.218140
O O5 0.268783 0.848568 0.899318
O O6 0.228719 0.761336 0.912230
O O7 0.000000 0.816339 0.919363
O O8 0.199627 0.814403 0.000000
O O9 0.500000 0.382358 0.927975
O O10 0.243756 0.416300 0.892494
O O11 0.277408 0.329616 0.912250
O O12 0.280083 0.384789 0.000000
O O13 0.752249 0.573481 0.556758
O O14 0.000000 0.598079 0.608983
O O15 0.500000 0.943104 0.661118
O O16 0.290440 0.000000 0.642644
O O17 0.500000 0.726282 0.089000
O O18 0.670916 0.718666 0.000000
O O19 0.000000 0.935379 0.000000
O O20 0.189446 0.000000 0.000000
#
# Coordination Sequence:
#
# PCOD9519125 Si02
#       7
#    16  16  16  16  16  16   8
#     4  10  21  38  58  76  98 134 178 220 262 313
#     4  10  19  31  49  73 104 138 175 217 261 312
#     4   9  18  33  54  81 111 143 176 212 257 311
#     4  12  23  34  52  76 104 137 174 219 268 316
#     4  10  21  36  54  78 108 140 176 218 259 306
#     4   8  15  29  49  73 103 136 172 213 257 307
#     4  11  23  37  51  71 103 139 175 219 270 319
#
# _framework density 16.701822
#
# number of rings (size 3 to 8) (size 9 to 14) (size 15 to 20)
#    0.000    2.077    0.769    4.385    0.000    6.154 
#    0.000    3.077    0.000    0.923    0.000    0.000 
#    0.000    0.000    0.000    0.000    0.000    0.000 
#
# Total GULP energy -290233.419299 kJ/mol
# GULP energy per Si atom -5581.411910 kJ/mol
# Density = 1.666381 g / cm^3
# Si number density = 16.701822 Si / 1000 Ang^3
#
#
#
# Elastic Constant Matrix: (Units=GPa)
#
#
# Indices 1 2 3 4 5 6 
#
# 1 105.5119 81.5561 62.9601 0.0000 0.0000 0.0000
# 2 81.5561 127.1868 79.7693 0.0000 0.0000 0.0000
# 3 62.9601 79.7693 86.3894 0.0002 0.0000 0.0000
# 4 0.0000 0.0000 0.0002 -18.5551 0.0000 0.0000
# 5 0.0000 0.0000 0.0000 0.0000 26.9744 0.0000
# 6 0.0000 0.0000 0.0000 0.0000 0.0000 32.0275
#
#
#
# Elastic Compliance Matrix: (Units=1/GPa)
#
#
# Indices 1 2 3 4 5 6 
#
# 1 0.020251 -0.008860 -0.006578 0.000000 0.000000 0.000000
# 2 -0.008860 0.022558 -0.014372 0.000000 0.000000 0.000000
# 3 -0.006578 -0.014372 0.029640 0.000000 0.000000 0.000000
# 4 0.000000 0.000000 0.000000 -0.053893 0.000000 0.000000
# 5 0.000000 0.000000 0.000000 0.000000 0.037072 0.000000
# 6 0.000000 0.000000 0.000000 0.000000 0.000000 0.031223
#
#
# Mechanical properties :
#
#
# Convention : Reuss Voigt Hill
#
# Bulk Modulus (GPa) = 77.94716 85.29545 81.62131
# Shear Modulus (GPa) = 33.16843 14.40952 23.78897
#
# Velocity S-wave (km/s) = 4.46120 2.94045 3.77813
# Velocity P-wave (km/s) = 8.56198 7.91889 8.24670
#
# Compressibility (1/GPa) = 0.01282920
#
# Stress axis : x y z
#
# Youngs Moduli (GPa) = 49.37986 44.33095 33.73867
#
# Poissons Ratio (x) = 0.39279 0.22192
# Poissons Ratio (y) = 0.43752 0.48488
# Poissons Ratio (z) = 0.32480 0.63711
#
# Static dielectric constant tensor:
#      x y z
#    x 1.554290 0.000000 0.000000 
#    y 0.000000 1.566000 0.000000 
#    z 0.000000 0.000000 1.529140 
# 
# From -- ./inp_files/51200.got.cif
#   From: 2010.05.17/outbox.cif.g08.bks.cpg/sg71_26_cif.got.tgz:51200.got - 2010.06.03 16:22:01.
