data_PCOD9519811
_publ_section_title
;
Structure prediction by ZEFSAII (Michael W. Deem and Ramdas Pophale) SiO2 
 PCOD9519811
Probable space group: I M M M
;
_chemical_formula_sum "Si O2"
_cell_formula_units_Z 104
_cell_length_a 24.339788
_cell_length_b 31.065114
_cell_length_c 7.406233
_cell_angle_alpha 90.000000
_cell_angle_beta 90.000000
_cell_angle_gamma 90.000000
_cell_volume 5599.988224
_symmetry_space_group_name_H-M "I M M M"
_symmetry_group_IT_number 71
_symmetry_cell_setting 'orthorhombic'
loop_
_space_group_symop_operation_xyz
x,y,z
-x,-y,z
x,-y,-z
-x,y,-z
-x,-y,-z
x,y,-z
-x,y,z
x,-y,z
1/2+x,1/2+y,1/2+z
1/2-x,1/2-y,1/2+z
1/2+x,1/2-y,1/2-z
1/2-x,1/2+y,1/2-z
1/2-x,1/2-y,1/2-z
1/2+x,1/2+y,1/2-z
1/2-x,1/2+y,1/2+z
1/2+x,1/2-y,1/2+z
loop_
_atom_site_type_symbol
_atom_site_label
_atom_site_fract_x
_atom_site_fract_y
_atom_site_fract_z
Si Si1 0.062568 0.878586 0.286784
Si Si2 0.564205 0.189479 0.719484
Si Si3 0.935011 0.548126 0.500000
Si Si4 0.145247 0.951129 0.279532
Si Si5 0.374215 0.896191 0.282520
Si Si6 0.063428 0.784127 0.783321
Si Si7 0.729223 0.049069 0.719119
O O1 0.057838 0.886383 0.500000
O O2 0.102544 0.915407 0.214483
O O3 0.087112 0.830447 0.267434
O O4 0.000000 0.879397 0.212274
O O5 0.562638 0.189540 0.500000
O O6 0.500000 0.182512 0.776102
O O7 0.605675 0.151541 0.771504
O O8 0.583506 0.237210 0.777995
O O9 0.912725 0.500000 0.500000
O O10 0.914949 0.572367 0.321956
O O11 0.000000 0.547144 0.500000
O O12 0.145411 0.950191 0.500000
O O13 0.208157 0.942756 0.222807
O O14 0.130591 0.000000 0.227092
O O15 0.378710 0.899384 0.500000
O O16 0.314192 0.914235 0.228500
O O17 0.000000 0.785745 0.721279
O O18 0.063630 0.783110 0.000000
O O19 0.729343 0.048522 0.500000
O O20 0.714012 0.000000 0.775243
#
# Coordination Sequence:
#
# PCOD9519811 Si02
#       7
#    16  16   8  16  16  16  16
#     4   9  16  25  40  66  95 120 150 187 232 285
#     4   8  14  26  45  67  88 113 151 193 232 277
#     4  11  24  36  46  70 104 132 161 197 246 300
#     4   8  14  25  42  65  92 120 153 194 233 277
#     4  10  19  33  53  72  93 126 165 206 241 285
#     4   8  14  26  43  61  85 119 152 183 225 278
#     4   8  14  26  46  68  85 112 158 199 234 277
#
# _framework density 18.571469
#
# number of rings (size 3 to 8) (size 9 to 14) (size 15 to 20)
#    0.000    3.308    0.000    2.769    0.000    2.154 
#    1.385    2.308    1.692    1.385    0.000    2.154 
#    0.000    0.000    0.000    0.000    0.000    0.000 
#
# Total GULP energy -289515.399925 kJ/mol
# GULP energy per Si atom -5567.603845 kJ/mol
# Density = 1.852920 g / cm^3
# Si number density = 18.571469 Si / 1000 Ang^3
#
#
#
# Elastic Constant Matrix: (Units=GPa)
#
#
# Indices 1 2 3 4 5 6 
#
# 1 93.9422 98.9500 9.0396 0.0000 0.0000 0.0000
# 2 98.9500 201.5645 13.1776 0.0000 0.0000 0.0000
# 3 9.0396 13.1776 59.5828 0.0000 0.0000 0.0000
# 4 0.0000 0.0000 0.0000 8.9169 0.0000 0.0000
# 5 0.0000 0.0000 0.0000 0.0000 -6.1498 0.0000
# 6 0.0000 0.0000 0.0000 0.0000 0.0000 29.4124
#
#
#
# Elastic Compliance Matrix: (Units=1/GPa)
#
#
# Indices 1 2 3 4 5 6 
#
# 1 0.022097 -0.010785 -0.000967 0.000000 0.000000 0.000000
# 2 -0.010785 0.010297 -0.000641 0.000000 0.000000 0.000000
# 3 -0.000967 -0.000641 0.017072 0.000000 0.000000 0.000000
# 4 0.000000 0.000000 0.000000 0.112146 0.000000 0.000000
# 5 0.000000 0.000000 0.000000 0.000000 -0.162606 0.000000
# 6 0.000000 0.000000 0.000000 0.000000 0.000000 0.033999
#
#
# Mechanical properties :
#
#
# Convention : Reuss Voigt Hill
#
# Bulk Modulus (GPa) = 40.51796 66.38043 53.44920
# Shear Modulus (GPa) = 75.73608 22.03073 48.88340
#
# Velocity S-wave (km/s) = 6.39292 3.44796 5.13604
# Velocity P-wave (km/s) = 8.73826 7.18833 8.00092
#
# Compressibility (1/GPa) = 0.02468041
#
# Stress axis : x y z
#
# Youngs Moduli (GPa) = 45.25420 97.11216 58.57563
#
# Poissons Ratio (x) = 1.04731 0.05666
# Poissons Ratio (y) = 0.48805 0.03756
# Poissons Ratio (z) = 0.04378 0.06227
#
# Static dielectric constant tensor:
#      x y z
#    x 1.624840 0.000000 0.000000 
#    y 0.000000 1.668160 0.000000 
#    z 0.000000 0.000000 5.014200 
# 
# From -- ./inp_files/15552.got.cif
#   From: 2010.05.17/outbox.cif.g08.bks.cpg/sg71_8_cif.got.tgz:15552.got - 2010.06.03 16:22:01.
