data_PCOD9519569
_publ_section_title
;
Structure prediction by ZEFSAII (Michael W. Deem and Ramdas Pophale) SiO2 
 PCOD9519569
Probable space group: I M M M
;
_chemical_formula_sum "Si O2"
_cell_formula_units_Z 104
_cell_length_a 31.861131
_cell_length_b 9.086093
_cell_length_c 20.962877
_cell_angle_alpha 90.000000
_cell_angle_beta 90.000000
_cell_angle_gamma 90.000000
_cell_volume 6068.610330
_symmetry_space_group_name_H-M "I M M M"
_symmetry_group_IT_number 71
_symmetry_cell_setting 'orthorhombic'
loop_
_space_group_symop_operation_xyz
x,y,z
-x,-y,z
x,-y,-z
-x,y,-z
-x,-y,-z
x,y,-z
-x,y,z
x,-y,z
1/2+x,1/2+y,1/2+z
1/2-x,1/2-y,1/2+z
1/2+x,1/2-y,1/2-z
1/2-x,1/2+y,1/2-z
1/2-x,1/2-y,1/2-z
1/2+x,1/2+y,1/2-z
1/2-x,1/2+y,1/2+z
1/2+x,1/2-y,1/2+z
loop_
_atom_site_type_symbol
_atom_site_label
_atom_site_fract_x
_atom_site_fract_y
_atom_site_fract_z
Si Si1 0.749826 0.824840 0.180428
Si Si2 0.923358 0.324763 0.130217
Si Si3 0.000000 0.676790 0.223267
Si Si4 0.000000 0.821760 0.361566
Si Si5 0.656396 0.326064 0.688177
Si Si6 0.333536 0.323700 0.839632
Si Si7 0.449606 0.328929 0.500000
Si Si8 0.087725 0.179187 0.573373
O O1 0.750000 0.750000 0.250000
O O2 0.797550 0.799443 0.157978
O O3 0.710414 0.755064 0.143986
O O4 0.744108 0.000000 0.186761
O O5 0.924636 0.500000 0.122730
O O6 0.879019 0.270688 0.156308
O O7 0.959234 0.283524 0.181529
O O8 0.933142 0.248945 0.063317
O O9 0.000000 0.500000 0.232780
O O10 0.000000 0.756973 0.290756
O O11 0.042685 0.775917 0.397802
O O12 0.000000 0.000000 0.358552
O O13 0.646913 0.500000 0.681379
O O14 0.657879 0.295312 0.764434
O O15 0.328368 0.500000 0.846340
O O16 0.373025 0.275534 0.882449
O O17 0.437536 0.500000 0.500000
O O18 0.500000 0.319026 0.500000
O O19 0.092188 0.227178 0.500000
O O20 0.087817 0.000000 0.573548
#
# Coordination Sequence:
#
# PCOD9519569 Si02
#       8
#    16  16   8   8  16  16   8  16
#     4   9  17  30  50  75 104 134 167 211 261 312
#     4  11  22  36  55  77 106 139 172 211 256 308
#     4  10  22  36  50  75 109 139 164 207 264 305
#     4  10  19  32  53  77 102 135 177 219 258 306
#     4   9  18  32  50  77 107 132 169 218 266 313
#     4   9  17  30  50  76 106 138 174 219 266 313
#     4  11  23  39  59  79 101 137 177 211 251 304
#     4   9  17  30  50  76 104 136 176 221 262 301
#
# _framework density 17.137366
#
# number of rings (size 3 to 8) (size 9 to 14) (size 15 to 20)
#    0.000    2.385    0.769    3.231    0.000    6.769 
#    0.000    0.769    1.692    2.308    0.000    0.000 
#    0.000    0.000    0.000    0.000    0.000    0.000 
#
# Total GULP energy -289945.542932 kJ/mol
# GULP energy per Si atom -5575.875826 kJ/mol
# Density = 1.709836 g / cm^3
# Si number density = 17.137366 Si / 1000 Ang^3
#
#
#
# Elastic Constant Matrix: (Units=GPa)
#
#
# Indices 1 2 3 4 5 6 
#
# 1 164.8838 58.4594 73.8159 0.0000 0.0000 0.0000
# 2 58.4594 42.4183 40.2149 0.0000 0.0000 0.0000
# 3 73.8159 40.2149 103.5577 0.0000 0.0000 0.0000
# 4 0.0000 0.0000 0.0000 18.1487 0.0000 0.0000
# 5 0.0000 0.0000 0.0000 0.0000 1.8507 0.0000
# 6 0.0000 0.0000 0.0000 0.0000 0.0000 27.5242
#
#
#
# Elastic Compliance Matrix: (Units=1/GPa)
#
#
# Indices 1 2 3 4 5 6 
#
# 1 0.012635 -0.014046 -0.003552 0.000000 0.000000 0.000000
# 2 -0.014046 0.052925 -0.010541 0.000000 0.000000 0.000000
# 3 -0.003552 -0.010541 0.016281 0.000000 0.000000 0.000000
# 4 0.000000 0.000000 0.000000 0.055100 0.000000 0.000000
# 5 0.000000 0.000000 0.000000 0.000000 0.540325 0.000000
# 6 0.000000 0.000000 0.000000 0.000000 0.000000 0.036332
#
#
# Mechanical properties :
#
#
# Convention : Reuss Voigt Hill
#
# Bulk Modulus (GPa) = 39.11584 72.87114 55.99349
# Shear Modulus (GPa) = 6.42346 18.72937 12.57641
#
# Velocity S-wave (km/s) = 1.93813 3.30948 2.71192
# Velocity P-wave (km/s) = 5.28043 7.56424 6.52306
#
# Compressibility (1/GPa) = 0.02556509
#
# Stress axis : x y z
#
# Youngs Moduli (GPa) = 79.14662 18.89457 61.41951
#
# Poissons Ratio (x) = 0.26539 0.21814
# Poissons Ratio (y) = 1.11166 0.64742
# Poissons Ratio (z) = 0.28110 0.19917
#
# Static dielectric constant tensor:
#      x y z
#    x 1.597400 0.000000 0.000000 
#    y 0.000000 1.570680 0.000000 
#    z 0.000000 0.000000 1.549810 
# 
# From -- ./inp_files/62029.got.cif
#   From: 2010.05.17/outbox.cif.g08.bks.cpg/sg71_32_cif.got.tgz:62029.got - 2010.06.03 16:22:01.
