data_PCOD9519619
_publ_section_title
;
Structure prediction by ZEFSAII (Michael W. Deem and Ramdas Pophale) SiO2 
 PCOD9519619
Probable space group: I M M M
;
_chemical_formula_sum "Si O2"
_cell_formula_units_Z 116
_cell_length_a 19.837158
_cell_length_b 15.693601
_cell_length_c 19.617739
_cell_angle_alpha 90.000000
_cell_angle_beta 90.000000
_cell_angle_gamma 90.000000
_cell_volume 6107.324718
_symmetry_space_group_name_H-M "I M M M"
_symmetry_group_IT_number 71
_symmetry_cell_setting 'orthorhombic'
loop_
_space_group_symop_operation_xyz
x,y,z
-x,-y,z
x,-y,-z
-x,y,-z
-x,-y,-z
x,y,-z
-x,y,z
x,-y,z
1/2+x,1/2+y,1/2+z
1/2-x,1/2-y,1/2+z
1/2+x,1/2-y,1/2-z
1/2-x,1/2+y,1/2-z
1/2-x,1/2-y,1/2-z
1/2+x,1/2+y,1/2-z
1/2-x,1/2+y,1/2+z
1/2+x,1/2-y,1/2+z
loop_
_atom_site_type_symbol
_atom_site_label
_atom_site_fract_x
_atom_site_fract_y
_atom_site_fract_z
Si Si1 0.074583 0.323560 0.358964
Si Si2 0.277904 0.366830 0.924597
Si Si3 0.874648 0.397413 0.221751
Si Si4 0.714829 0.838041 0.076595
Si Si5 0.381982 0.637641 0.188757
Si Si6 0.379440 0.901814 0.574735
Si Si7 0.500000 0.500000 0.207105
Si Si8 0.730211 0.601329 0.282916
O O1 0.081827 0.370297 0.286345
O O2 0.135784 0.352893 0.406959
O O3 0.088645 0.224765 0.341503
O O4 0.000000 0.335176 0.387474
O O5 0.273479 0.263971 0.919017
O O6 0.328982 0.397261 0.867345
O O7 0.202235 0.401664 0.920419
O O8 0.304502 0.387155 0.000000
O O9 0.874114 0.500000 0.217279
O O10 0.899390 0.363819 0.148131
O O11 0.797672 0.371912 0.241312
O O12 0.755298 0.880693 0.138024
O O13 0.731637 0.865825 0.000000
O O14 0.441067 0.573621 0.204818
O O15 0.334207 0.650861 0.254294
O O16 0.396767 0.863659 0.500000
O O17 0.402847 0.000000 0.573042
O O18 0.720104 0.500000 0.273030
#
# Coordination Sequence:
#
# PCOD9519619 Si02
#       8
#    16  16  16  16  16  16   4  16
#     4  10  21  35  53  76 106 146 180 213 264 323
#     4   9  18  31  49  73 106 142 174 214 259 309
#     4   9  18  31  51  79 103 130 175 220 265 321
#     4   9  20  35  53  79 105 131 174 223 274 327
#     4  11  21  35  52  74 107 146 189 224 259 309
#     4   9  16  26  44  72 103 133 163 202 254 304
#     4  12  24  36  53  76 111 152 190 228 246 308
#     4  10  19  32  54  77 102 135 173 232 281 312
#
# _framework density 18.993587000000002
#
# number of rings (size 3 to 8) (size 9 to 14) (size 15 to 20)
#    0.000    2.345    2.759    0.000    2.897    2.483 
#    0.000    0.690    0.000    0.414    0.000    6.759 
#    0.000    0.000    0.000    0.000    0.000    0.000 
#
# Total GULP energy -322903.181841 kJ/mol
# GULP energy per Si atom -5567.296239 kJ/mol
# Density = 1.895036 g / cm^3
# Si number density = 18.993587 Si / 1000 Ang^3
#
#
#
# Elastic Constant Matrix: (Units=GPa)
#
#
# Indices 1 2 3 4 5 6 
#
# 1 35.2030 -0.7552 -13.2961 0.0000 0.0000 0.0000
# 2 -0.7552 14.0228 7.3941 0.0000 0.0000 0.0000
# 3 -13.2961 7.3941 98.6486 0.0000 0.0000 0.0000
# 4 0.0000 0.0000 0.0000 13.5629 0.0000 0.0000
# 5 0.0000 0.0000 0.0000 0.0000 5.9257 0.0000
# 6 0.0000 0.0000 0.0000 0.0000 0.0000 19.8342
#
#
#
# Elastic Compliance Matrix: (Units=1/GPa)
#
#
# Indices 1 2 3 4 5 6 
#
# 1 0.029934 -0.000537 0.004075 0.000000 0.000000 0.000000
# 2 -0.000537 0.074257 -0.005638 0.000000 0.000000 0.000000
# 3 0.004075 -0.005638 0.011109 0.000000 0.000000 0.000000
# 4 0.000000 0.000000 0.000000 0.073731 0.000000 0.000000
# 5 0.000000 0.000000 0.000000 0.000000 0.168757 0.000000
# 6 0.000000 0.000000 0.000000 0.000000 0.000000 0.050418
#
#
# Mechanical properties :
#
#
# Convention : Reuss Voigt Hill
#
# Bulk Modulus (GPa) = 9.00093 14.95114 11.97603
# Shear Modulus (GPa) = 11.12499 18.16665 14.64582
#
# Velocity S-wave (km/s) = 2.42280 3.09603 2.77987
# Velocity P-wave (km/s) = 3.54624 4.54635 4.07708
#
# Compressibility (1/GPa) = 0.11109965
#
# Stress axis : x y z
#
# Youngs Moduli (GPa) = 33.40659 13.46682 90.01865
#
# Poissons Ratio (x) = 0.00723 -0.36681
# Poissons Ratio (y) = 0.01793 0.50754
# Poissons Ratio (z) = -0.13613 0.07593
#
# Static dielectric constant tensor:
#      x y z
#    x 1.655710 0.000000 0.000000 
#    y 0.000000 1.667260 0.000000 
#    z 0.000000 0.000000 1.706430 
# 
# From -- ./inp_files/46220.got.cif
#   From: 2010.05.17/outbox.cif.g08.bks.cpg/sg71_24_cif.got.tgz:46220.got - 2010.06.03 16:22:01.
