data_PCOD9519249
_publ_section_title
;
Structure prediction by ZEFSAII (Michael W. Deem and Ramdas Pophale) SiO2 
 PCOD9519249
Probable space group: I M M M
;
_chemical_formula_sum "Si O2"
_cell_formula_units_Z 104
_cell_length_a 9.209121
_cell_length_b 27.563806
_cell_length_c 22.185577
_cell_angle_alpha 90.000000
_cell_angle_beta 90.000000
_cell_angle_gamma 90.000000
_cell_volume 5631.551916
_symmetry_space_group_name_H-M "I M M M"
_symmetry_group_IT_number 71
_symmetry_cell_setting 'orthorhombic'
loop_
_space_group_symop_operation_xyz
x,y,z
-x,-y,z
x,-y,-z
-x,y,-z
-x,-y,-z
x,y,-z
-x,y,z
x,-y,z
1/2+x,1/2+y,1/2+z
1/2-x,1/2-y,1/2+z
1/2+x,1/2-y,1/2-z
1/2-x,1/2+y,1/2-z
1/2-x,1/2-y,1/2-z
1/2+x,1/2+y,1/2-z
1/2-x,1/2+y,1/2+z
1/2+x,1/2-y,1/2+z
loop_
_atom_site_type_symbol
_atom_site_label
_atom_site_fract_x
_atom_site_fract_y
_atom_site_fract_z
Si Si1 0.334528 0.208477 0.596756
Si Si2 0.326193 0.556346 0.228776
Si Si3 0.325256 0.882914 0.176905
Si Si4 0.326798 0.810552 0.929466
Si Si5 0.674325 0.610502 0.895813
Si Si6 0.839993 0.703150 0.238867
Si Si7 0.164129 0.557245 0.000000
O O1 0.500000 0.207638 0.572237
O O2 0.260549 0.260942 0.585814
O O3 0.233842 0.162753 0.580733
O O4 0.347709 0.198524 0.667951
O O5 0.500000 0.560670 0.235705
O O6 0.292369 0.500000 0.214126
O O7 0.251446 0.571083 0.292340
O O8 0.285288 0.591168 0.171776
O O9 0.500000 0.890269 0.177776
O O10 0.288030 0.856505 0.113458
O O11 0.279941 0.841961 0.225336
O O12 0.500000 0.801534 0.920541
O O13 0.303209 0.821483 0.000000
O O14 0.500000 0.610750 0.898670
O O15 0.747559 0.573572 0.941700
O O16 0.750000 0.750000 0.250000
O O17 0.000000 0.710782 0.264536
O O18 0.152713 0.500000 0.000000
O O19 0.000000 0.578221 0.000000
#
# Coordination Sequence:
#
# PCOD9519249 Si02
#       7
#    16  16  16  16  16  16   8
#     4  11  22  35  53  81 116 149 187 232 279 333
#     4  10  22  39  60  87 115 144 185 239 294 349
#     4  10  20  36  57  83 113 147 188 236 292 349
#     4  10  22  39  58  81 114 155 197 237 283 345
#     4  11  23  39  60  83 114 155 196 236 284 341
#     4  10  19  31  51  79 110 143 181 223 272 329
#     4  11  25  43  61  81 109 149 197 247 292 333
#
# _framework density 18.467379000000001
#
# number of rings (size 3 to 8) (size 9 to 14) (size 15 to 20)
#    0.000    1.615    3.077    1.615    1.077    4.308 
#    0.000    0.000    0.000    0.462    0.000    3.231 
#    0.000    0.000    0.000    0.000    0.000    0.000 
#
# Total GULP energy -289626.836841 kJ/mol
# GULP energy per Si atom -5569.746862 kJ/mol
# Density = 1.842535 g / cm^3
# Si number density = 18.467379 Si / 1000 Ang^3
#
#
#
# Elastic Constant Matrix: (Units=GPa)
#
#
# Indices 1 2 3 4 5 6 
#
# 1 56.2316 38.0555 33.9359 0.0000 0.0000 0.0000
# 2 38.0555 69.4338 31.4409 0.0000 0.0000 0.0000
# 3 33.9359 31.4409 120.9458 0.0000 0.0001 0.0000
# 4 0.0000 0.0000 0.0000 29.2010 0.0000 0.0000
# 5 0.0000 0.0000 0.0001 0.0000 74.2564 0.0000
# 6 0.0000 0.0000 0.0000 0.0000 0.0000 28.3544
#
#
#
# Elastic Compliance Matrix: (Units=1/GPa)
#
#
# Indices 1 2 3 4 5 6 
#
# 1 0.030526 -0.014567 -0.004778 0.000000 0.000000 0.000000
# 2 -0.014567 0.023275 -0.001963 0.000000 0.000000 0.000000
# 3 -0.004778 -0.001963 0.010119 0.000000 0.000000 0.000000
# 4 0.000000 0.000000 0.000000 0.034245 0.000000 0.000000
# 5 0.000000 0.000000 0.000000 0.000000 0.013467 0.000000
# 6 0.000000 0.000000 0.000000 0.000000 0.000000 0.035268
#
#
# Mechanical properties :
#
#
# Convention : Reuss Voigt Hill
#
# Bulk Modulus (GPa) = 46.94166 50.38620 48.66393
# Shear Modulus (GPa) = 25.42998 35.90762 30.66880
#
# Velocity S-wave (km/s) = 3.71485 4.41430 4.07959
# Velocity P-wave (km/s) = 6.62375 7.30236 6.97132
#
# Compressibility (1/GPa) = 0.02130304
#
# Stress axis : x y z
#
# Youngs Moduli (GPa) = 32.75925 42.96438 98.82136
#
# Poissons Ratio (x) = 0.62586 0.47220
# Poissons Ratio (y) = 0.47720 0.19401
# Poissons Ratio (z) = 0.15653 0.08435
#
# Static dielectric constant tensor:
#      x y z
#    x 1.580220 0.000000 0.000000 
#    y 0.000000 1.650310 0.000000 
#    z 0.000000 0.000000 1.630360 
# 
# From -- ./inp_files/50951.got.cif
#   From: 2010.05.17/outbox.cif.g08.bks.cpg/sg71_26_cif.got.tgz:50951.got - 2010.06.03 16:22:01.
