data_PCOD9519540
_publ_section_title
;
Structure prediction by ZEFSAII (Michael W. Deem and Ramdas Pophale) SiO2 
 PCOD9519540
Probable space group: I M M M
;
_chemical_formula_sum "Si O2"
_cell_formula_units_Z 80
_cell_length_a 7.650614
_cell_length_b 22.512285
_cell_length_c 22.187624
_cell_angle_alpha 90.000000
_cell_angle_beta 90.000000
_cell_angle_gamma 90.000000
_cell_volume 3821.436669
_symmetry_space_group_name_H-M "I M M M"
_symmetry_group_IT_number 71
_symmetry_cell_setting 'orthorhombic'
loop_
_space_group_symop_operation_xyz
x,y,z
-x,-y,z
x,-y,-z
-x,y,-z
-x,-y,-z
x,y,-z
-x,y,z
x,-y,z
1/2+x,1/2+y,1/2+z
1/2-x,1/2-y,1/2+z
1/2+x,1/2-y,1/2-z
1/2-x,1/2+y,1/2-z
1/2-x,1/2-y,1/2-z
1/2+x,1/2+y,1/2-z
1/2-x,1/2+y,1/2+z
1/2+x,1/2-y,1/2+z
loop_
_atom_site_type_symbol
_atom_site_label
_atom_site_fract_x
_atom_site_fract_y
_atom_site_fract_z
Si Si1 0.206762 0.500000 0.932932
Si Si2 0.301234 0.846656 0.108380
Si Si3 0.288530 0.735644 0.179508
Si Si4 0.209135 0.897603 0.659527
Si Si5 0.785409 0.569551 0.500000
Si Si6 0.288461 0.434658 0.291102
O O1 0.252151 0.440918 0.895512
O O2 0.000000 0.500000 0.938025
O O3 0.284398 0.500000 0.000000
O O4 0.500000 0.833788 0.088511
O O5 0.220631 0.784909 0.131986
O O6 0.226958 0.890897 0.057515
O O7 0.299436 0.885331 0.168868
O O8 0.500000 0.736941 0.175478
O O9 0.250000 0.750000 0.250000
O O10 0.225077 0.670035 0.161154
O O11 0.265691 0.928034 0.721911
O O12 0.000000 0.893431 0.662668
O O13 0.728288 0.500000 0.500000
O O14 0.000000 0.567007 0.500000
O O15 0.500000 0.427634 0.294412
O O16 0.244011 0.500000 0.314001
#
# Coordination Sequence:
#
# PCOD9519540 Si02
#       6
#     8  16  16  16   8  16
#     4  11  25  43  61  85 115 146 191 248 297 341
#     4  10  20  34  54  80 109 146 190 230 277 332
#     4  10  20  34  55  85 116 146 184 232 282 339
#     4  10  20  37  58  82 113 150 186 226 286 349
#     4   9  18  34  53  75 111 150 183 228 274 319
#     4  10  19  32  52  79 110 141 180 231 280 328
#
# _framework density 20.934535
#
# number of rings (size 3 to 8) (size 9 to 14) (size 15 to 20)
#    0.000    2.000    3.000    0.900    0.000    3.600 
#    1.800    0.500    0.000    1.800    0.000    0.000 
#    0.000    0.000    0.000    0.000    0.000    0.000 
#
# Total GULP energy -223107.113757 kJ/mol
# GULP energy per Si atom -5577.677844 kJ/mol
# Density = 2.088689 g / cm^3
# Si number density = 20.934535 Si / 1000 Ang^3
#
#
#
# Elastic Constant Matrix: (Units=GPa)
#
#
# Indices 1 2 3 4 5 6 
#
# 1 34.5431 6.4144 -6.4889 0.0000 0.0000 0.0000
# 2 6.4144 188.0668 66.7772 0.0000 0.0000 0.0000
# 3 -6.4889 66.7772 128.0750 0.0000 0.0000 0.0000
# 4 0.0000 0.0000 0.0000 36.6821 0.0000 0.0000
# 5 0.0000 0.0000 0.0000 0.0000 15.1519 0.0000
# 6 0.0000 0.0000 0.0000 0.0000 0.0000 10.6483
#
#
#
# Elastic Compliance Matrix: (Units=1/GPa)
#
#
# Indices 1 2 3 4 5 6 
#
# 1 0.029773 -0.001903 0.002501 0.000000 0.000000 0.000000
# 2 -0.001903 0.006647 -0.003562 0.000000 0.000000 0.000000
# 3 0.002501 -0.003562 0.009792 0.000000 0.000000 0.000000
# 4 0.000000 0.000000 0.000000 0.027261 0.000000 0.000000
# 5 0.000000 0.000000 0.000000 0.000000 0.065998 0.000000
# 6 0.000000 0.000000 0.000000 0.000000 0.000000 0.093911
#
#
# Mechanical properties :
#
#
# Convention : Reuss Voigt Hill
#
# Bulk Modulus (GPa) = 24.82493 53.78780 39.30637
# Shear Modulus (GPa) = 19.78324 31.42862 25.60593
#
# Velocity S-wave (km/s) = 3.07743 3.87884 3.50114
# Velocity P-wave (km/s) = 4.95091 6.76828 5.92964
#
# Compressibility (1/GPa) = 0.04028208
#
# Stress axis : x y z
#
# Youngs Moduli (GPa) = 33.58794 150.44416 102.12538
#
# Poissons Ratio (x) = 0.28636 -0.25540
# Poissons Ratio (y) = 0.06393 0.36378
# Poissons Ratio (z) = -0.08400 0.53590
#
# Static dielectric constant tensor:
#      x y z
#    x 1.814810 0.000000 0.000000 
#    y 0.000000 1.796970 0.000000 
#    z 0.000000 0.000000 1.745380 
# 
# From -- ./inp_files/10283.got.cif
#   From: 2010.05.17/outbox.cif.g08.bks.cpg/sg71_6_cif.got.tgz:10283.got - 2010.06.03 16:22:01.
