data_PCOD9519014
_publ_section_title
;
Structure prediction by ZEFSAII (Michael W. Deem and Ramdas Pophale) SiO2 
 PCOD9519014
Probable space group: I M M M
;
_chemical_formula_sum "Si O2"
_cell_formula_units_Z 80
_cell_length_a 31.820652
_cell_length_b 15.294675
_cell_length_c 7.275344
_cell_angle_alpha 90.000000
_cell_angle_beta 90.000000
_cell_angle_gamma 90.000000
_cell_volume 3540.811930
_symmetry_space_group_name_H-M "I M M M"
_symmetry_group_IT_number 71
_symmetry_cell_setting 'orthorhombic'
loop_
_space_group_symop_operation_xyz
x,y,z
-x,-y,z
x,-y,-z
-x,y,-z
-x,-y,-z
x,y,-z
-x,y,z
x,-y,z
1/2+x,1/2+y,1/2+z
1/2-x,1/2-y,1/2+z
1/2+x,1/2-y,1/2-z
1/2-x,1/2+y,1/2-z
1/2-x,1/2-y,1/2-z
1/2+x,1/2+y,1/2-z
1/2-x,1/2+y,1/2+z
1/2+x,1/2-y,1/2+z
loop_
_atom_site_type_symbol
_atom_site_label
_atom_site_fract_x
_atom_site_fract_y
_atom_site_fract_z
Si Si1 0.659144 0.907413 0.221891
Si Si2 0.200853 0.766985 0.280660
Si Si3 0.454126 0.707349 0.223799
Si Si4 0.870270 0.101203 0.724270
Si Si5 0.939843 0.404649 0.278716
O O1 0.679400 0.820383 0.293760
O O2 0.609809 0.905257 0.257442
O O3 0.676912 0.000000 0.287182
O O4 0.663650 0.906522 0.000000
O O5 0.195721 0.769399 0.500000
O O6 0.250000 0.750000 0.250000
O O7 0.172756 0.849335 0.216455
O O8 0.500000 0.669349 0.274527
O O9 0.412211 0.655176 0.281680
O O10 0.454026 0.809133 0.284566
O O11 0.452333 0.708744 0.000000
O O12 0.870875 0.101140 0.500000
O O13 0.871612 0.000000 0.782140
O O14 0.946493 0.405011 0.500000
O O15 0.955315 0.500000 0.212965
#
# Coordination Sequence:
#
# PCOD9519014 Si02
#       5
#    16  16  16  16  16
#     4   8  13  23  40  58  77 105 140 175 211 255
#     4  10  19  31  47  66  88 115 148 184 223 268
#     4   9  15  22  34  54  81 114 151 185 217 262
#     4   9  17  29  42  57  83 118 151 183 223 269
#     4   8  12  19  32  50  74 105 139 173 212 258
#
# _framework density 22.593686999999999
#
# number of rings (size 3 to 8) (size 9 to 14) (size 15 to 20)
#    0.000    3.200    2.000    1.200    0.000    1.600 
#    0.000    4.000    0.000    0.000    0.000    0.000 
#    0.000    0.800    0.000    1.800    0.000    8.400 
#
# Total GULP energy -222914.047116 kJ/mol
# GULP energy per Si atom -5572.851178 kJ/mol
# Density = 2.254226 g / cm^3
# Si number density = 22.593687 Si / 1000 Ang^3
#
#
#
# Elastic Constant Matrix: (Units=GPa)
#
#
# Indices 1 2 3 4 5 6 
#
# 1 172.0440 119.8177 5.9663 0.0000 0.0000 0.0000
# 2 119.8177 209.7051 7.0781 0.0000 0.0000 0.0000
# 3 5.9663 7.0781 95.0157 0.0000 0.0000 0.0000
# 4 0.0000 0.0000 0.0000 -24.2694 0.0000 0.0000
# 5 0.0000 0.0000 0.0000 0.0000 49.8139 0.0000
# 6 0.0000 0.0000 0.0000 0.0000 0.0000 -10.9384
#
#
#
# Elastic Compliance Matrix: (Units=1/GPa)
#
#
# Indices 1 2 3 4 5 6 
#
# 1 0.009658 -0.005511 -0.000196 0.000000 0.000000 0.000000
# 2 -0.005511 0.007926 -0.000244 0.000000 0.000000 0.000000
# 3 -0.000196 -0.000244 0.010555 0.000000 0.000000 0.000000
# 4 0.000000 0.000000 0.000000 -0.041204 0.000000 0.000000
# 5 0.000000 0.000000 0.000000 0.000000 0.020075 0.000000
# 6 0.000000 0.000000 0.000000 0.000000 0.000000 -0.091421
#
#
# Mechanical properties :
#
#
# Convention : Reuss Voigt Hill
#
# Bulk Modulus (GPa) = 61.59407 82.49877 72.04642
# Shear Modulus (GPa) = -74.51859 25.84808 -24.33526
#
# Velocity S-wave (km/s) = -5.74923 3.38604 -3.28545
# Velocity P-wave (km/s) = 4.09276 7.20280 4.19104
#
# Compressibility (1/GPa) = 0.01623533
#
# Stress axis : x y z
#
# Youngs Moduli (GPa) = 103.54561 126.16955 94.74110
#
# Poissons Ratio (x) = 0.69537 0.01856
# Poissons Ratio (y) = 0.57068 0.02315
# Poissons Ratio (z) = 0.02028 0.03083
#
# Static dielectric constant tensor:
#      x y z
#    x 1.845680 0.000000 0.000000 
#    y 0.000000 1.831890 0.000000 
#    z 0.000000 0.000000 1.954500 
# 
# From -- ./inp_files/22144.got.cif
#   From: 2010.05.17/outbox.cif.g08.bks.cpg/sg71_12_cif.got.tgz:22144.got - 2010.06.03 16:22:01.
