data_PCOD9519241
_publ_section_title
;
Structure prediction by ZEFSAII (Michael W. Deem and Ramdas Pophale) SiO2 
 PCOD9519241
Probable space group: I M M M
;
_chemical_formula_sum "Si O2"
_cell_formula_units_Z 104
_cell_length_a 23.125736
_cell_length_b 13.830901
_cell_length_c 17.936471
_cell_angle_alpha 90.000000
_cell_angle_beta 90.000000
_cell_angle_gamma 90.000000
_cell_volume 5736.976037
_symmetry_space_group_name_H-M "I M M M"
_symmetry_group_IT_number 71
_symmetry_cell_setting 'orthorhombic'
loop_
_space_group_symop_operation_xyz
x,y,z
-x,-y,z
x,-y,-z
-x,y,-z
-x,-y,-z
x,y,-z
-x,y,z
x,-y,z
1/2+x,1/2+y,1/2+z
1/2-x,1/2-y,1/2+z
1/2+x,1/2-y,1/2-z
1/2-x,1/2+y,1/2-z
1/2-x,1/2-y,1/2-z
1/2+x,1/2+y,1/2-z
1/2-x,1/2+y,1/2+z
1/2+x,1/2-y,1/2+z
loop_
_atom_site_type_symbol
_atom_site_label
_atom_site_fract_x
_atom_site_fract_y
_atom_site_fract_z
Si Si1 0.430068 0.616825 0.500000
Si Si2 0.432040 0.395008 0.248484
Si Si3 0.745629 0.888218 0.808884
Si Si4 0.778232 0.385869 0.866476
Si Si5 0.637777 0.287059 0.361494
Si Si6 0.565086 0.339877 0.081322
Si Si7 0.315276 0.240322 0.919707
O O1 0.420803 0.500000 0.500000
O O2 0.500000 0.631975 0.500000
O O3 0.399326 0.667010 0.428684
O O4 0.500000 0.390419 0.266330
O O5 0.409583 0.500000 0.276147
O O6 0.400282 0.305995 0.287496
O O7 0.426665 0.394908 0.159073
O O8 0.740490 0.875495 0.720274
O O9 0.804849 0.848609 0.843417
O O10 0.697347 0.827383 0.850607
O O11 0.739723 0.000000 0.825268
O O12 0.785298 0.500000 0.883119
O O13 0.835996 0.319954 0.876606
O O14 0.725581 0.335058 0.910580
O O15 0.500000 0.298707 0.085602
O O16 0.617881 0.266719 0.080125
O O17 0.568056 0.390763 0.000000
O O18 0.299561 0.195710 0.000000
#
# Coordination Sequence:
#
# PCOD9519241 Si02
#       7
#     8  16  16  16  16  16  16
#     4  11  24  40  59  87 121 153 191 240 292 346
#     4  10  19  31  51  78 107 140 178 220 272 334
#     4  10  20  34  55  81 111 144 182 232 284 338
#     4  10  22  38  56  80 109 147 189 230 279 333
#     4  11  21  36  57  81 110 149 187 232 284 337
#     4   9  18  32  50  74 107 145 181 219 266 326
#     4  10  20  33  51  78 108 141 178 222 273 326
#
# _framework density 18.128017
#
# number of rings (size 3 to 8) (size 9 to 14) (size 15 to 20)
#    0.000    1.923    0.000    5.538    4.308    4.000 
#    0.000    3.077    0.000    2.769    0.000    8.615 
#    0.000    0.000    0.000    0.000    0.000    0.308 
#
# Total GULP energy -289720.044667 kJ/mol
# GULP energy per Si atom -5571.539321 kJ/mol
# Density = 1.808676 g / cm^3
# Si number density = 18.128017 Si / 1000 Ang^3
#
#
#
# Elastic Constant Matrix: (Units=GPa)
#
#
# Indices 1 2 3 4 5 6 
#
# 1 80.4794 25.8797 31.3321 0.0000 0.0000 0.0000
# 2 25.8797 74.8359 24.2629 0.0000 0.0000 0.0000
# 3 31.3321 24.2629 77.9101 0.0000 0.0000 0.0000
# 4 0.0000 0.0000 0.0000 12.5656 0.0000 0.0000
# 5 0.0000 0.0000 0.0000 0.0000 8.5844 0.0000
# 6 0.0000 0.0000 0.0000 0.0000 0.0000 14.4671
#
#
#
# Elastic Compliance Matrix: (Units=1/GPa)
#
#
# Indices 1 2 3 4 5 6 
#
# 1 0.015621 -0.003743 -0.005116 0.000000 0.000000 0.000000
# 2 -0.003743 0.015760 -0.003403 0.000000 0.000000 0.000000
# 3 -0.005116 -0.003403 0.015953 0.000000 0.000000 0.000000
# 4 0.000000 0.000000 0.000000 0.079583 0.000000 0.000000
# 5 0.000000 0.000000 0.000000 0.000000 0.116491 0.000000
# 6 0.000000 0.000000 0.000000 0.000000 0.000000 0.069122
#
#
# Mechanical properties :
#
#
# Convention : Reuss Voigt Hill
#
# Bulk Modulus (GPa) = 43.84194 44.01943 43.93069
# Shear Modulus (GPa) = 14.50715 17.24013 15.87364
#
# Velocity S-wave (km/s) = 2.83196 3.08721 2.96233
# Velocity P-wave (km/s) = 5.91020 6.08630 5.99890
#
# Compressibility (1/GPa) = 0.02280921
#
# Stress axis : x y z
#
# Youngs Moduli (GPa) = 64.01567 63.45068 62.68577
#
# Poissons Ratio (x) = 0.23751 0.32073
# Poissons Ratio (y) = 0.23963 0.21330
# Poissons Ratio (z) = 0.32753 0.21590
#
# Static dielectric constant tensor:
#      x y z
#    x 1.772700 0.000000 0.000000 
#    y 0.000000 1.623130 0.000000 
#    z 0.000000 0.000000 1.698400 
# 
# From -- ./inp_files/48248.got.cif
#   From: 2010.05.17/outbox.cif.g08.bks.cpg/sg71_25_cif.got.tgz:48248.got - 2010.06.03 16:22:01.
