data_PCOD9519035
_publ_section_title
;
Structure prediction by ZEFSAII (Michael W. Deem and Ramdas Pophale) SiO2 
 PCOD9519035
Probable space group: I M M M
;
_chemical_formula_sum "Si O2"
_cell_formula_units_Z 88
_cell_length_a 29.897779
_cell_length_b 18.833147
_cell_length_c 9.002234
_cell_angle_alpha 90.000000
_cell_angle_beta 90.000000
_cell_angle_gamma 90.000000
_cell_volume 5068.881299
_symmetry_space_group_name_H-M "I M M M"
_symmetry_group_IT_number 71
_symmetry_cell_setting 'orthorhombic'
loop_
_space_group_symop_operation_xyz
x,y,z
-x,-y,z
x,-y,-z
-x,y,-z
-x,-y,-z
x,y,-z
-x,y,z
x,-y,z
1/2+x,1/2+y,1/2+z
1/2-x,1/2-y,1/2+z
1/2+x,1/2-y,1/2-z
1/2-x,1/2+y,1/2-z
1/2-x,1/2-y,1/2-z
1/2+x,1/2+y,1/2-z
1/2-x,1/2+y,1/2+z
1/2+x,1/2-y,1/2+z
loop_
_atom_site_type_symbol
_atom_site_label
_atom_site_fract_x
_atom_site_fract_y
_atom_site_fract_z
Si Si1 0.792257 0.287788 0.822949
Si Si2 0.760481 0.081040 0.676116
Si Si3 0.054494 0.500000 0.172048
Si Si4 0.143980 0.081125 0.178966
Si Si5 0.553714 0.852314 0.174576
Si Si6 0.388968 0.269763 0.320237
O O1 0.750000 0.250000 0.750000
O O2 0.781587 0.369664 0.790194
O O3 0.840236 0.260286 0.773997
O O4 0.790378 0.276400 0.000000
O O5 0.770153 0.088339 0.500000
O O6 0.806182 0.098597 0.762397
O O7 0.749954 0.000000 0.708972
O O8 0.068873 0.573479 0.249925
O O9 0.000000 0.500000 0.177365
O O10 0.068184 0.500000 0.000000
O O11 0.111775 0.146566 0.222531
O O12 0.132988 0.000000 0.228132
O O13 0.145424 0.080694 0.000000
O O14 0.500000 0.848759 0.190972
O O15 0.575323 0.782915 0.248738
O O16 0.564245 0.854244 0.000000
O O17 0.392640 0.265776 0.500000
#
# Coordination Sequence:
#
# PCOD9519035 Si02
#       6
#    16  16   8  16  16  16
#     4  10  19  31  47  70 100 133 170 210 255 304
#     4   9  17  29  45  65  93 131 171 207 247 296
#     4   9  17  33  59  85 107 135 169 205 251 305
#     4   9  17  30  49  72  99 131 171 217 258 302
#     4  10  21  37  57  80 106 135 170 213 258 306
#     4  10  20  33  50  76 104 134 175 216 262 316
#
# _framework density 17.360833
#
# number of rings (size 3 to 8) (size 9 to 14) (size 15 to 20)
#    0.000    2.455    1.818    0.818    0.000    3.636 
#    1.636    0.000    0.000    0.545    0.000    3.818 
#    0.000    0.000    0.000    0.000    0.000    0.000 
#
# Total GULP energy -245090.523269 kJ/mol
# GULP energy per Si atom -5570.239165 kJ/mol
# Density = 1.732132 g / cm^3
# Si number density = 17.360833 Si / 1000 Ang^3
#
#
#
# Elastic Constant Matrix: (Units=GPa)
#
#
# Indices 1 2 3 4 5 6 
#
# 1 26.8269 36.9345 25.4345 0.0000 0.0000 0.0000
# 2 36.9345 144.4347 50.8535 0.0000 0.0000 0.0000
# 3 25.4345 50.8535 34.9422 0.0000 0.0000 0.0000
# 4 0.0000 0.0000 0.0000 24.0973 0.0000 0.0000
# 5 0.0000 0.0000 0.0000 0.0000 22.7460 0.0000
# 6 0.0000 0.0000 0.0000 0.0000 0.0000 33.5184
#
#
#
# Elastic Compliance Matrix: (Units=1/GPa)
#
#
# Indices 1 2 3 4 5 6 
#
# 1 0.120294 0.000140 -0.087766 0.000000 0.000000 0.000000
# 2 0.000140 0.014200 -0.020768 0.000000 0.000000 0.000000
# 3 -0.087766 -0.020768 0.122728 0.000000 0.000000 0.000000
# 4 0.000000 0.000000 0.000000 0.041498 0.000000 0.000000
# 5 0.000000 0.000000 0.000000 0.000000 0.043964 0.000000
# 6 0.000000 0.000000 0.000000 0.000000 0.000000 0.029834
#
#
# Mechanical properties :
#
#
# Convention : Reuss Voigt Hill
#
# Bulk Modulus (GPa) = 24.73130 48.07209 36.40169
# Shear Modulus (GPa) = 8.29485 22.27110 15.28298
#
# Velocity S-wave (km/s) = 2.18821 3.58556 2.97023
# Velocity P-wave (km/s) = 4.54541 6.70013 5.72505
#
# Compressibility (1/GPa) = 0.04043459
#
# Stress axis : x y z
#
# Youngs Moduli (GPa) = 8.31298 70.42362 8.14808
#
# Poissons Ratio (x) = -0.00986 0.71512
# Poissons Ratio (y) = -0.00116 0.16922
# Poissons Ratio (z) = 0.72960 1.46254
#
# Static dielectric constant tensor:
#      x y z
#    x 1.560950 0.000000 0.000000 
#    y 0.000000 1.652100 0.000000 
#    z 0.000000 0.000000 1.588610 
# 
# From -- ./inp_files/16614.got.cif
#   From: 2010.05.17/outbox.cif.g08.bks.cpg/sg71_9_cif.got.tgz:16614.got - 2010.06.03 16:22:01.
