data_PCOD9519791
_publ_section_title
;
Structure prediction by ZEFSAII (Michael W. Deem and Ramdas Pophale) SiO2 
 PCOD9519791
Probable space group: I M M M
;
_chemical_formula_sum "Si O2"
_cell_formula_units_Z 104
_cell_length_a 23.742614
_cell_length_b 8.325907
_cell_length_c 28.823056
_cell_angle_alpha 90.000000
_cell_angle_beta 90.000000
_cell_angle_gamma 90.000000
_cell_volume 5697.707010
_symmetry_space_group_name_H-M "I M M M"
_symmetry_group_IT_number 71
_symmetry_cell_setting 'orthorhombic'
loop_
_space_group_symop_operation_xyz
x,y,z
-x,-y,z
x,-y,-z
-x,y,-z
-x,-y,-z
x,y,-z
-x,y,z
x,-y,z
1/2+x,1/2+y,1/2+z
1/2-x,1/2-y,1/2+z
1/2+x,1/2-y,1/2-z
1/2-x,1/2+y,1/2-z
1/2-x,1/2-y,1/2-z
1/2+x,1/2+y,1/2-z
1/2-x,1/2+y,1/2+z
1/2+x,1/2-y,1/2+z
loop_
_atom_site_type_symbol
_atom_site_label
_atom_site_fract_x
_atom_site_fract_y
_atom_site_fract_z
Si Si1 0.937018 0.804458 0.733983
Si Si2 0.239299 0.810395 0.697442
Si Si3 0.934739 0.690993 0.000000
Si Si4 0.359044 0.694653 0.681784
Si Si5 0.435954 0.692941 0.596642
Si Si6 0.564870 0.806339 0.053106
Si Si7 0.627129 0.306061 0.143797
O O1 0.889004 0.753744 0.770272
O O2 0.919654 0.758504 0.682093
O O3 0.000000 0.749804 0.746301
O O4 0.937517 0.000000 0.735947
O O5 0.250000 0.750000 0.750000
O O6 0.298174 0.768238 0.673704
O O7 0.186251 0.748962 0.667082
O O8 0.230481 0.000000 0.701627
O O9 0.909943 0.752952 0.952065
O O10 0.935281 0.500000 0.000000
O O11 0.000000 0.751172 0.000000
O O12 0.354010 0.500000 0.682928
O O13 0.400266 0.743168 0.640535
O O14 0.500000 0.755486 0.599914
O O15 0.438498 0.500000 0.596996
O O16 0.500000 0.753269 0.063016
O O17 0.607570 0.751680 0.093272
O O18 0.564596 0.000000 0.053075
O O19 0.578612 0.754564 0.000000
O O20 0.629263 0.500000 0.141983
#
# Coordination Sequence:
#
# PCOD9519791 Si02
#       7
#    16  16   8  16  16  16  16
#     4   9  16  28  48  75 107 137 166 205 254 307
#     4  11  22  37  55  76 103 139 181 219 257 303
#     4   9  17  29  47  71 101 135 167 205 256 307
#     4  10  19  33  52  76 104 136 173 214 262 311
#     4   9  17  30  51  77 103 133 171 213 257 311
#     4   9  19  36  57  83 115 145 173 214 272 330
#     4  10  20  34  54  79 106 140 182 221 257 308
#
# _framework density 18.252956000000001
#
# number of rings (size 3 to 8) (size 9 to 14) (size 15 to 20)
#    0.000    2.385    1.538    2.077    0.000    5.846 
#    0.000    0.769    1.692    1.385    0.000    0.000 
#    0.000    0.000    0.000    0.000    0.000    0.000 
#
# Total GULP energy -289794.511197 kJ/mol
# GULP energy per Si atom -5572.971369 kJ/mol
# Density = 1.821141 g / cm^3
# Si number density = 18.252956 Si / 1000 Ang^3
#
#
#
# Elastic Constant Matrix: (Units=GPa)
#
#
# Indices 1 2 3 4 5 6 
#
# 1 106.6544 13.0619 56.6753 0.0000 0.0000 0.0000
# 2 13.0619 7.6469 17.9712 0.0000 0.0000 0.0000
# 3 56.6753 17.9712 143.7342 0.0000 0.0000 0.0000
# 4 0.0000 0.0000 0.0000 17.1004 0.0000 0.0000
# 5 0.0000 0.0000 0.0000 0.0000 18.4175 0.0000
# 6 0.0000 0.0000 0.0000 0.0000 0.0000 21.4783
#
#
#
# Elastic Compliance Matrix: (Units=1/GPa)
#
#
# Indices 1 2 3 4 5 6 
#
# 1 0.012871 -0.014243 -0.003294 0.000000 0.000000 0.000000
# 2 -0.014243 0.200948 -0.019508 0.000000 0.000000 0.000000
# 3 -0.003294 -0.019508 0.010695 0.000000 0.000000 0.000000
# 4 0.000000 0.000000 0.000000 0.058478 0.000000 0.000000
# 5 0.000000 0.000000 0.000000 0.000000 0.054296 0.000000
# 6 0.000000 0.000000 0.000000 0.000000 0.000000 0.046559
#
#
# Mechanical properties :
#
#
# Convention : Reuss Voigt Hill
#
# Bulk Modulus (GPa) = 6.64795 48.16136 27.40466
# Shear Modulus (GPa) = 9.84096 22.75438 16.29767
#
# Velocity S-wave (km/s) = 2.32446 3.53457 2.99135
# Velocity P-wave (km/s) = 3.29457 6.56509 5.19397
#
# Compressibility (1/GPa) = 0.15042238
#
# Stress axis : x y z
#
# Youngs Moduli (GPa) = 77.69397 4.97640 93.49829
#
# Poissons Ratio (x) = 0.07088 0.30801
# Poissons Ratio (y) = 1.10663 1.82400
# Poissons Ratio (z) = 0.25594 0.09708
#
# Static dielectric constant tensor:
#      x y z
#    x 1.647470 0.000000 0.000000 
#    y 0.000000 1.639510 0.000000 
#    z 0.000000 0.000000 1.643600 
# 
# From -- ./inp_files/58182.got.cif
#   From: 2010.05.17/outbox.cif.g08.bks.cpg/sg71_30_cif.got.tgz:58182.got - 2010.06.03 16:22:01.
