data_PCOD9519909
_publ_section_title
;
Structure prediction by ZEFSAII (Michael W. Deem and Ramdas Pophale) SiO2 
 PCOD9519909
Probable space group: I M M M
;
_chemical_formula_sum "Si O2"
_cell_formula_units_Z 104
_cell_length_a 9.851874
_cell_length_b 27.003454
_cell_length_c 22.831610
_cell_angle_alpha 90.000000
_cell_angle_beta 90.000000
_cell_angle_gamma 90.000000
_cell_volume 6073.998836
_symmetry_space_group_name_H-M "I M M M"
_symmetry_group_IT_number 71
_symmetry_cell_setting 'orthorhombic'
loop_
_space_group_symop_operation_xyz
x,y,z
-x,-y,z
x,-y,-z
-x,y,-z
-x,-y,-z
x,y,-z
-x,y,z
x,-y,z
1/2+x,1/2+y,1/2+z
1/2-x,1/2-y,1/2+z
1/2+x,1/2-y,1/2-z
1/2-x,1/2+y,1/2-z
1/2-x,1/2-y,1/2-z
1/2+x,1/2+y,1/2-z
1/2-x,1/2+y,1/2+z
1/2+x,1/2-y,1/2+z
loop_
_atom_site_type_symbol
_atom_site_label
_atom_site_fract_x
_atom_site_fract_y
_atom_site_fract_z
Si Si1 0.344817 0.084326 0.119091
Si Si2 0.154880 0.000000 0.069916
Si Si3 0.344107 0.373067 0.171180
Si Si4 0.336075 0.697721 0.934503
Si Si5 0.842190 0.694654 0.382300
Si Si6 0.159101 0.441450 0.246154
Si Si7 0.845892 0.792494 0.774100
O O1 0.500000 0.066087 0.110993
O O2 0.338406 0.139388 0.091626
O O3 0.321922 0.083690 0.189761
O O4 0.236547 0.047690 0.091872
O O5 0.000000 0.000000 0.091850
O O6 0.152809 0.000000 0.000000
O O7 0.500000 0.389335 0.159483
O O8 0.291386 0.341181 0.115445
O O9 0.250235 0.416648 0.195953
O O10 0.349663 0.334461 0.224906
O O11 0.500000 0.693625 0.934902
O O12 0.310808 0.755466 0.918378
O O13 0.285503 0.686993 0.000000
O O14 0.729463 0.691398 0.332453
O O15 0.000000 0.700789 0.360669
O O16 0.187983 0.500000 0.252729
O O17 0.000000 0.435606 0.231595
O O18 0.750000 0.750000 0.750000
O O19 0.000000 0.775882 0.784880
#
# Coordination Sequence:
#
# PCOD9519909 Si02
#       7
#    16   8  16  16  16  16  16
#     4  10  20  35  57  82 108 139 182 231 274 324
#     4  11  25  41  55  73 105 151 194 231 272 315
#     4  10  20  33  53  81 107 139 181 221 269 325
#     4   9  18  34  54  77 109 145 180 218 261 316
#     4  10  19  33  54  82 110 138 175 220 271 322
#     4  10  20  35  55  81 111 139 170 220 285 335
#     4  11  20  30  48  77 110 142 176 215 262 315
#
# _framework density 17.122164000000001
#
# number of rings (size 3 to 8) (size 9 to 14) (size 15 to 20)
#    0.000    1.923    3.846    0.692    0.000    3.385 
#    0.000    1.538    0.000    2.308    0.000    3.231 
#    0.000    0.000    0.000    0.000    0.000    0.000 
#
# Total GULP energy -289634.582726 kJ/mol
# GULP energy per Si atom -5569.895822 kJ/mol
# Density = 1.708319 g / cm^3
# Si number density = 17.122164 Si / 1000 Ang^3
#
#
#
# Elastic Constant Matrix: (Units=GPa)
#
#
# Indices 1 2 3 4 5 6 
#
# 1 87.1139 34.4038 27.5876 0.0000 0.0000 0.0000
# 2 34.4038 69.2834 12.8133 0.0000 0.0000 0.0000
# 3 27.5876 12.8133 63.9849 0.0000 0.0000 0.0000
# 4 0.0000 0.0000 0.0000 7.0996 0.0000 0.0000
# 5 0.0000 0.0000 0.0000 0.0000 18.9761 0.0000
# 6 0.0000 0.0000 0.0000 0.0000 0.0000 27.4827
#
#
#
# Elastic Compliance Matrix: (Units=1/GPa)
#
#
# Indices 1 2 3 4 5 6 
#
# 1 0.015944 -0.006902 -0.005492 0.000000 0.000000 0.000000
# 2 -0.006902 0.017976 -0.000624 0.000000 0.000000 0.000000
# 3 -0.005492 -0.000624 0.018122 0.000000 0.000000 0.000000
# 4 0.000000 0.000000 0.000000 0.140853 0.000000 0.000000
# 5 0.000000 0.000000 0.000000 0.000000 0.052698 0.000000
# 6 0.000000 0.000000 0.000000 0.000000 0.000000 0.036387
#
#
# Mechanical properties :
#
#
# Convention : Reuss Voigt Hill
#
# Bulk Modulus (GPa) = 38.45304 41.11021 39.78162
# Shear Modulus (GPa) = 15.78861 20.41684 18.10273
#
# Velocity S-wave (km/s) = 3.03993 3.45689 3.25509
# Velocity P-wave (km/s) = 5.90156 6.32420 6.11653
#
# Compressibility (1/GPa) = 0.02600575
#
# Stress axis : x y z
#
# Youngs Moduli (GPa) = 62.71863 55.62977 55.18228
#
# Poissons Ratio (x) = 0.38393 0.30308
# Poissons Ratio (y) = 0.43286 0.03444
# Poissons Ratio (z) = 0.34448 0.03472
#
# Static dielectric constant tensor:
#      x y z
#    x 1.560100 0.000000 0.000000 
#    y 0.000000 1.602810 0.000000 
#    z 0.000000 0.000000 1.567990 
# 
# From -- ./inp_files/13263.got.cif
#   From: 2010.05.17/outbox.cif.g08.bks.cpg/sg71_7_cif.got.tgz:13263.got - 2010.06.03 16:22:01.
