data_PCOD9519590
_publ_section_title
;
Structure prediction by ZEFSAII (Michael W. Deem and Ramdas Pophale) SiO2 
 PCOD9519590
Probable space group: I M M M
;
_chemical_formula_sum "Si O2"
_cell_formula_units_Z 104
_cell_length_a 26.615053
_cell_length_b 7.976506
_cell_length_c 24.122352
_cell_angle_alpha 90.000000
_cell_angle_beta 90.000000
_cell_angle_gamma 90.000000
_cell_volume 5121.057852
_symmetry_space_group_name_H-M "I M M M"
_symmetry_group_IT_number 71
_symmetry_cell_setting 'orthorhombic'
loop_
_space_group_symop_operation_xyz
x,y,z
-x,-y,z
x,-y,-z
-x,y,-z
-x,-y,-z
x,y,-z
-x,y,z
x,-y,z
1/2+x,1/2+y,1/2+z
1/2-x,1/2-y,1/2+z
1/2+x,1/2-y,1/2-z
1/2-x,1/2+y,1/2-z
1/2-x,1/2-y,1/2-z
1/2+x,1/2+y,1/2-z
1/2-x,1/2+y,1/2+z
1/2+x,1/2-y,1/2+z
loop_
_atom_site_type_symbol
_atom_site_label
_atom_site_fract_x
_atom_site_fract_y
_atom_site_fract_z
Si Si1 0.441811 0.795352 0.564036
Si Si2 0.703544 0.798745 0.939601
Si Si3 0.649763 0.304815 0.228204
Si Si4 0.500000 0.299451 0.937038
Si Si5 0.103278 0.303853 0.384119
Si Si6 0.251054 0.195624 0.673521
Si Si7 0.136823 0.696934 0.842325
O O1 0.429621 0.746733 0.500000
O O2 0.500000 0.744159 0.575339
O O3 0.401456 0.737209 0.610613
O O4 0.441666 0.000000 0.565290
O O5 0.644368 0.767851 0.931512
O O6 0.728965 0.709700 0.888218
O O7 0.711693 0.000000 0.934852
O O8 0.721027 0.743769 0.000000
O O9 0.655073 0.500000 0.241739
O O10 0.619452 0.290013 0.171316
O O11 0.706178 0.234319 0.213187
O O12 0.620333 0.217005 0.278423
O O13 0.500000 0.500000 0.938505
O O14 0.450984 0.239259 0.905510
O O15 0.500000 0.235064 0.000000
O O16 0.107498 0.500000 0.371042
O O17 0.306719 0.271373 0.665244
O O18 0.256317 0.000000 0.688401
O O19 0.142965 0.500000 0.855312
#
# Coordination Sequence:
#
# PCOD9519590 Si02
#       7
#    16  16  16   8  16  16  16
#     4   8  15  30  52  77 104 132 164 210 265 315
#     4   9  18  32  50  73 102 136 174 217 265 316
#     4  10  20  35  52  73 106 142 174 213 269 325
#     4  11  23  37  55  81 111 141 176 221 272 319
#     4  10  20  36  56  76 101 138 183 226 264 310
#     4   9  19  32  48  73 104 138 175 216 262 316
#     4  10  19  32  53  80 104 132 176 220 259 315
#
# _framework density 20.308304
#
# number of rings (size 3 to 8) (size 9 to 14) (size 15 to 20)
#    0.000    2.538    0.000    2.538    0.000    4.000 
#    1.385    1.538    0.000    0.462    0.000    1.077 
#    0.000    0.000    0.000    0.000    0.000    0.000 
#
# Total GULP energy -289770.529712 kJ/mol
# GULP energy per Si atom -5572.510187 kJ/mol
# Density = 2.026208 g / cm^3
# Si number density = 20.308304 Si / 1000 Ang^3
#
#
#
# Elastic Constant Matrix: (Units=GPa)
#
#
# Indices 1 2 3 4 5 6 
#
# 1 101.8440 10.6197 64.7482 0.0000 0.0000 0.0000
# 2 10.6197 27.1093 13.4924 0.0000 0.0000 0.0000
# 3 64.7482 13.4924 136.1652 0.0000 0.0000 0.0000
# 4 0.0000 0.0000 0.0000 24.0381 0.0000 0.0000
# 5 0.0000 0.0000 0.0000 0.0000 28.5908 0.0000
# 6 0.0000 0.0000 0.0000 0.0000 0.0000 -1.2054
#
#
#
# Elastic Compliance Matrix: (Units=1/GPa)
#
#
# Indices 1 2 3 4 5 6 
#
# 1 0.014211 -0.002318 -0.006528 0.000000 0.000000 0.000000
# 2 -0.002318 0.039179 -0.002780 0.000000 0.000000 0.000000
# 3 -0.006528 -0.002780 0.010723 0.000000 0.000000 0.000000
# 4 0.000000 0.000000 0.000000 0.041601 0.000000 0.000000
# 5 0.000000 0.000000 0.000000 0.000000 0.034976 0.000000
# 6 0.000000 0.000000 0.000000 0.000000 0.000000 -0.829605
#
#
# Mechanical properties :
#
#
# Convention : Reuss Voigt Hill
#
# Bulk Modulus (GPa) = 24.47246 49.20433 36.83840
# Shear Modulus (GPa) = -7.66821 22.03524 7.18352
#
# Velocity S-wave (km/s) = -1.94527 3.29756 1.88279
# Velocity P-wave (km/s) = 2.65164 6.22734 4.78597
#
# Compressibility (1/GPa) = 0.04086225
#
# Stress axis : x y z
#
# Youngs Moduli (GPa) = 70.36966 25.52361 93.25341
#
# Poissons Ratio (x) = 0.05916 0.60873
# Poissons Ratio (y) = 0.16312 0.25924
# Poissons Ratio (z) = 0.45935 0.07095
#
# Static dielectric constant tensor:
#      x y z
#    x 1.743180 0.000000 0.000000 
#    y 0.000000 1.747310 0.000000 
#    z 0.000000 0.000000 1.742590 
# 
# From -- ./inp_files/61957.got.cif
#   From: 2010.05.17/outbox.cif.g08.bks.cpg/sg71_31_cif.got.tgz:61957.got - 2010.06.03 16:22:01.
