data_PCOD9519566
_publ_section_title
;
Structure prediction by ZEFSAII (Michael W. Deem and Ramdas Pophale) SiO2 
 PCOD9519566
Probable space group: I M M M
;
_chemical_formula_sum "Si O2"
_cell_formula_units_Z 104
_cell_length_a 17.380050
_cell_length_b 13.927424
_cell_length_c 22.032407
_cell_angle_alpha 90.000000
_cell_angle_beta 90.000000
_cell_angle_gamma 90.000000
_cell_volume 5333.149577
_symmetry_space_group_name_H-M "I M M M"
_symmetry_group_IT_number 71
_symmetry_cell_setting 'orthorhombic'
loop_
_space_group_symop_operation_xyz
x,y,z
-x,-y,z
x,-y,-z
-x,y,-z
-x,-y,-z
x,y,-z
-x,y,z
x,-y,z
1/2+x,1/2+y,1/2+z
1/2-x,1/2-y,1/2+z
1/2+x,1/2-y,1/2-z
1/2-x,1/2+y,1/2-z
1/2-x,1/2-y,1/2-z
1/2+x,1/2+y,1/2-z
1/2-x,1/2+y,1/2+z
1/2+x,1/2-y,1/2+z
loop_
_atom_site_type_symbol
_atom_site_label
_atom_site_fract_x
_atom_site_fract_y
_atom_site_fract_z
Si Si1 0.877556 0.614174 0.732471
Si Si2 0.094696 0.389600 0.500000
Si Si3 0.836493 0.884009 0.931635
Si Si4 0.709637 0.616590 0.300966
Si Si5 0.091372 0.886312 0.700047
Si Si6 0.500000 0.283334 0.430234
Si Si7 0.000000 0.385895 0.165099
Si Si8 0.087520 0.270021 0.385855
O O1 0.881373 0.500000 0.722925
O O2 0.788345 0.643125 0.732671
O O3 0.913188 0.663381 0.673511
O O4 0.926033 0.633496 0.792395
O O5 0.121891 0.500000 0.500000
O O6 0.121195 0.331132 0.440904
O O7 0.000000 0.394367 0.500000
O O8 0.791751 0.850506 0.871025
O O9 0.923680 0.847303 0.921529
O O10 0.835317 0.000000 0.931901
O O11 0.812056 0.853025 0.000000
O O12 0.707149 0.500000 0.303159
O O13 0.637192 0.645879 0.259948
O O14 0.120855 0.828479 0.641156
O O15 0.000000 0.867615 0.707267
O O16 0.101665 0.000000 0.692476
O O17 0.500000 0.251904 0.500000
O O18 0.500000 0.189790 0.388639
O O19 0.000000 0.500000 0.148881
O O20 0.000000 0.247517 0.405072
#
# Coordination Sequence:
#
# PCOD9519566 Si02
#       8
#    16   8  16  16  16   8   8  16
#     4  10  20  35  53  78 106 138 180 226 275 321
#     4   9  18  32  51  77 107 137 173 215 263 314
#     4   9  18  33  53  80 114 147 178 216 268 334
#     4   9  19  33  51  77 110 145 180 220 271 327
#     4   9  19  34  52  77 107 138 174 221 271 320
#     4  10  21  35  56  83 110 141 182 226 275 336
#     4  10  22  38  57  77 106 143 186 238 282 321
#     4  10  19  32  53  76 102 137 174 216 261 321
#
# _framework density 19.500672000000002
#
# number of rings (size 3 to 8) (size 9 to 14) (size 15 to 20)
#    0.000    2.538    0.769    0.692    3.231    2.308 
#    1.385    0.385    0.000    2.308    0.000    0.000 
#    0.000    0.000    0.000    0.000    0.000    0.000 
#
# Total GULP energy -290006.902701 kJ/mol
# GULP energy per Si atom -5577.055821 kJ/mol
# Density = 1.945629 g / cm^3
# Si number density = 19.500672 Si / 1000 Ang^3
#
#
#
# Elastic Constant Matrix: (Units=GPa)
#
#
# Indices 1 2 3 4 5 6 
#
# 1 58.2607 15.1156 26.8423 0.0000 0.0000 0.0000
# 2 15.1156 69.2286 40.2715 0.0000 0.0000 0.0000
# 3 26.8423 40.2715 95.7060 0.0000 0.0000 0.0000
# 4 0.0000 0.0000 0.0000 36.8305 0.0000 0.0000
# 5 0.0000 0.0000 0.0000 0.0000 2.3418 0.0000
# 6 0.0000 0.0000 0.0000 0.0000 0.0000 11.4758
#
#
#
# Elastic Compliance Matrix: (Units=1/GPa)
#
#
# Indices 1 2 3 4 5 6 
#
# 1 0.019820 -0.001448 -0.004949 0.000000 0.000000 0.000000
# 2 -0.001448 0.019233 -0.007687 0.000000 0.000000 0.000000
# 3 -0.004949 -0.007687 0.015071 0.000000 0.000000 0.000000
# 4 0.000000 0.000000 0.000000 0.027151 0.000000 0.000000
# 5 0.000000 0.000000 0.000000 0.000000 0.427028 0.000000
# 6 0.000000 0.000000 0.000000 0.000000 0.000000 0.087140
#
#
# Mechanical properties :
#
#
# Convention : Reuss Voigt Hill
#
# Bulk Modulus (GPa) = 38.52783 43.07268 40.80025
# Shear Modulus (GPa) = 7.90809 19.52734 13.71772
#
# Velocity S-wave (km/s) = 2.01596 3.16787 2.65514
# Velocity P-wave (km/s) = 5.02184 5.95955 5.51068
#
# Compressibility (1/GPa) = 0.02595527
#
# Stress axis : x y z
#
# Youngs Moduli (GPa) = 50.45316 51.99521 66.35178
#
# Poissons Ratio (x) = 0.07531 0.32841
# Poissons Ratio (y) = 0.07308 0.51001
# Poissons Ratio (z) = 0.24972 0.39966
#
# Static dielectric constant tensor:
#      x y z
#    x 1.724580 0.000000 0.000000 
#    y 0.000000 1.686600 0.000000 
#    z 0.000000 0.000000 1.674910 
# 
# From -- ./inp_files/54154.got.cif
#   From: 2010.05.17/outbox.cif.g08.bks.cpg/sg71_28_cif.got.tgz:54154.got - 2010.06.03 16:22:01.
