data_PCOD9519401
_publ_section_title
;
Structure prediction by ZEFSAII (Michael W. Deem and Ramdas Pophale) SiO2 
 PCOD9519401
Probable space group: I M M M
;
_chemical_formula_sum "Si O2"
_cell_formula_units_Z 42
_cell_length_a 34.000923
_cell_length_b 7.297382
_cell_length_c 8.181734
_cell_angle_alpha 90.000000
_cell_angle_beta 90.000000
_cell_angle_gamma 90.000000
_cell_volume 2030.033214
_symmetry_space_group_name_H-M "I M M M"
_symmetry_group_IT_number 71
_symmetry_cell_setting 'orthorhombic'
loop_
_space_group_symop_operation_xyz
x,y,z
-x,-y,z
x,-y,-z
-x,y,-z
-x,-y,-z
x,y,-z
-x,y,z
x,-y,z
1/2+x,1/2+y,1/2+z
1/2-x,1/2-y,1/2+z
1/2+x,1/2-y,1/2-z
1/2-x,1/2+y,1/2-z
1/2-x,1/2-y,1/2-z
1/2+x,1/2+y,1/2-z
1/2-x,1/2+y,1/2+z
1/2+x,1/2-y,1/2+z
loop_
_atom_site_type_symbol
_atom_site_label
_atom_site_fract_x
_atom_site_fract_y
_atom_site_fract_z
Si Si1 0.426006 0.722940 0.500000
Si Si2 0.500000 0.000000 0.500000
Si Si3 0.706437 0.281451 0.316064
Si Si4 0.375209 0.722418 0.820602
O O1 0.431871 0.500000 0.500000
O O2 0.401148 0.771037 0.663336
O O3 0.465530 0.839186 0.500000
O O4 0.703119 0.209470 0.500000
O O5 0.701776 0.500000 0.324043
O O6 0.750000 0.250000 0.250000
O O7 0.669785 0.216016 0.208895
O O8 0.375330 0.500000 0.823657
O O9 0.389175 0.783469 0.000000
#
# Coordination Sequence:
#
# PCOD9519401 Si02
#       4
#     8   2  16  16
#     4  10  21  43  67  92 125 161 202 261 315 380
#     4  12  26  44  70 102 124 158 210 260 334 390
#     4  10  19  32  50  79 117 157 206 255 295 351
#     4   9  17  34  61  85 113 160 207 246 308 374
#
# _framework density 20.689315000000001
#
# number of rings (size 3 to 8) (size 9 to 14) (size 15 to 20)
#    0.000    2.286    1.905    1.429    0.000    2.286 
#    3.429    2.857    0.000    4.571    0.000    0.000 
#    0.000    0.000    0.000    0.000    0.000    0.000 
#
# Total GULP energy -116952.412883 kJ/mol
# GULP energy per Si atom -5569.162518 kJ/mol
# Density = 2.064222 g / cm^3
# Si number density = 20.689315 Si / 1000 Ang^3
#
#
#
# Elastic Constant Matrix: (Units=GPa)
#
#
# Indices 1 2 3 4 5 6 
#
# 1 175.8326 29.0296 92.8815 0.0000 0.0000 0.0000
# 2 29.0296 101.5779 20.9268 0.0000 0.0000 0.0000
# 3 92.8815 20.9268 198.2774 0.0000 0.0000 0.0000
# 4 0.0000 0.0000 0.0000 -3.2636 0.0000 0.0000
# 5 0.0000 0.0000 0.0000 0.0000 -2.1009 0.0000
# 6 0.0000 0.0000 0.0000 0.0000 0.0000 29.8211
#
#
#
# Elastic Compliance Matrix: (Units=1/GPa)
#
#
# Indices 1 2 3 4 5 6 
#
# 1 0.007776 -0.001505 -0.003484 0.000000 0.000000 0.000000
# 2 -0.001505 0.010355 -0.000388 0.000000 0.000000 0.000000
# 3 -0.003484 -0.000388 0.006716 0.000000 0.000000 0.000000
# 4 0.000000 0.000000 0.000000 -0.306407 0.000000 0.000000
# 5 0.000000 0.000000 0.000000 0.000000 -0.475998 0.000000
# 6 0.000000 0.000000 0.000000 0.000000 0.000000 0.033533
#
#
# Mechanical properties :
#
#
# Convention : Reuss Voigt Hill
#
# Bulk Modulus (GPa) = 70.95173 84.59596 77.77384
# Shear Modulus (GPa) = -7.05643 27.08132 10.01244
#
# Velocity S-wave (km/s) = -1.84880 3.62187 2.20226
# Velocity P-wave (km/s) = 5.45994 7.64644 6.64376
#
# Compressibility (1/GPa) = 0.01409409
#
# Stress axis : x y z
#
# Youngs Moduli (GPa) = 128.60290 96.57556 148.89073
#
# Poissons Ratio (x) = 0.14530 0.51870
# Poissons Ratio (y) = 0.19349 0.05778
# Poissons Ratio (z) = 0.44802 0.03748
#
# Static dielectric constant tensor:
#      x y z
#    x 1.690620 0.000000 0.000000 
#    y 0.000000 1.767530 0.000000 
#    z 0.000000 0.000000 1.721480 
# 
# From -- ./inp_files/2090.got.cif
#   From: 2010.05.17/outbox.cif.g08.bks.cpg/sg71_2_cif.got.tgz:2090.got - 2010.06.03 16:22:01.
