data_PCOD9519310
_publ_section_title
;
Structure prediction by ZEFSAII (Michael W. Deem and Ramdas Pophale) SiO2 
 PCOD9519310
Probable space group: I M M M
;
_chemical_formula_sum "Si O2"
_cell_formula_units_Z 104
_cell_length_a 25.304072
_cell_length_b 20.890058
_cell_length_c 8.801566
_cell_angle_alpha 90.000000
_cell_angle_beta 90.000000
_cell_angle_gamma 90.000000
_cell_volume 4652.538872
_symmetry_space_group_name_H-M "I M M M"
_symmetry_group_IT_number 71
_symmetry_cell_setting 'orthorhombic'
loop_
_space_group_symop_operation_xyz
x,y,z
-x,-y,z
x,-y,-z
-x,y,-z
-x,-y,-z
x,y,-z
-x,y,z
x,-y,z
1/2+x,1/2+y,1/2+z
1/2-x,1/2-y,1/2+z
1/2+x,1/2-y,1/2-z
1/2-x,1/2+y,1/2-z
1/2-x,1/2-y,1/2-z
1/2+x,1/2+y,1/2-z
1/2-x,1/2+y,1/2+z
1/2+x,1/2-y,1/2+z
loop_
_atom_site_type_symbol
_atom_site_label
_atom_site_fract_x
_atom_site_fract_y
_atom_site_fract_z
Si Si1 0.000000 0.421825 0.172647
Si Si2 0.891642 0.576497 0.329472
Si Si3 0.672085 0.394597 0.818810
Si Si4 0.831009 0.258746 0.320929
Si Si5 0.941249 0.748673 0.181940
Si Si6 0.784606 0.621523 0.818475
Si Si7 0.942302 0.107625 0.684845
O O1 0.945673 0.401990 0.250905
O O2 0.000000 0.500000 0.171242
O O3 0.000000 0.399546 0.000000
O O4 0.887653 0.602172 0.500000
O O5 0.896457 0.500000 0.338625
O O6 0.837914 0.589966 0.240889
O O7 0.671464 0.317484 0.794103
O O8 0.730500 0.411705 0.759861
O O9 0.614853 0.420673 0.766560
O O10 0.673054 0.407034 0.000000
O O11 0.824324 0.267887 0.500000
O O12 0.889778 0.278635 0.265215
O O13 0.790567 0.304651 0.233903
O O14 0.943262 0.822525 0.238462
O O15 0.000000 0.722952 0.217209
O O16 0.933429 0.746032 0.000000
O O17 0.783544 0.620000 0.000000
O O18 0.940001 0.114685 0.500000
O O19 0.000000 0.077378 0.718535
#
# Coordination Sequence:
#
# PCOD9519310 Si02
#       7
#     8  16  16  16  16  16  16
#     4   9  17  33  59  85 103 123 155 197 251 307
#     4  10  21  38  58  78 101 128 161 203 251 303
#     4   8  16  29  46  69  97 130 164 201 241 287
#     4  10  19  32  47  64  91 127 167 202 241 291
#     4   9  16  26  40  59  84 114 152 197 242 281
#     4  11  21  33  49  71  99 127 161 201 244 293
#     4   8  13  24  43  64  87 119 158 194 230 275
#
# _framework density 22.353387000000001
#
# number of rings (size 3 to 8) (size 9 to 14) (size 15 to 20)
#    0.000    2.692    0.000    3.462    0.000    2.769 
#    1.385    6.923    0.000    0.000    0.000    0.000 
#    0.000    0.615    0.000    7.692    0.000    1.385 
#
# Total GULP energy -290039.352122 kJ/mol
# GULP energy per Si atom -5577.679848 kJ/mol
# Density = 2.230251 g / cm^3
# Si number density = 22.353387 Si / 1000 Ang^3
#
#
#
# Elastic Constant Matrix: (Units=GPa)
#
#
# Indices 1 2 3 4 5 6 
#
# 1 239.8564 11.3565 56.1423 0.0000 0.0000 0.0000
# 2 11.3565 44.1617 6.1480 0.0000 0.0000 0.0000
# 3 56.1423 6.1480 68.1383 0.0000 0.0000 0.0000
# 4 0.0000 0.0000 0.0000 1.1318 0.0000 0.0000
# 5 0.0000 0.0000 0.0000 0.0000 18.8204 0.0000
# 6 0.0000 0.0000 0.0000 0.0000 0.0000 101.6591
#
#
#
# Elastic Compliance Matrix: (Units=1/GPa)
#
#
# Indices 1 2 3 4 5 6 
#
# 1 0.005190 -0.000749 -0.004208 0.000000 0.000000 0.000000
# 2 -0.000749 0.023040 -0.001462 0.000000 0.000000 0.000000
# 3 -0.004208 -0.001462 0.018275 0.000000 0.000000 0.000000
# 4 0.000000 0.000000 0.000000 0.883515 0.000000 0.000000
# 5 0.000000 0.000000 0.000000 0.000000 0.053134 0.000000
# 6 0.000000 0.000000 0.000000 0.000000 0.000000 0.009837
#
#
# Mechanical properties :
#
#
# Convention : Reuss Voigt Hill
#
# Bulk Modulus (GPa) = 29.70267 55.49445 42.59856
# Shear Modulus (GPa) = 4.91617 42.88959 23.90288
#
# Velocity S-wave (km/s) = 1.48461 4.38506 3.27359
# Velocity P-wave (km/s) = 4.03180 7.10761 5.77813
#
# Compressibility (1/GPa) = 0.03366701
#
# Stress axis : x y z
#
# Youngs Moduli (GPa) = 192.69063 43.40258 54.71811
#
# Poissons Ratio (x) = 0.03249 0.23028
# Poissons Ratio (y) = 0.14426 0.08000
# Poissons Ratio (z) = 0.81093 0.06345
#
# Static dielectric constant tensor:
#      x y z
#    x 1.797240 0.000000 0.000000 
#    y 0.000000 1.910660 0.000000 
#    z 0.000000 0.000000 1.749210 
# 
# From -- ./inp_files/13291.got.cif
#   From: 2010.05.17/outbox.cif.g08.bks.cpg/sg71_7_cif.got.tgz:13291.got - 2010.06.03 16:22:01.
