data_PCOD9519261
_publ_section_title
;
Structure prediction by ZEFSAII (Michael W. Deem and Ramdas Pophale) SiO2 
 PCOD9519261
Probable space group: I M M M
;
_chemical_formula_sum "Si O2"
_cell_formula_units_Z 82
_cell_length_a 26.467579
_cell_length_b 9.271969
_cell_length_c 17.893771
_cell_angle_alpha 90.000000
_cell_angle_beta 90.000000
_cell_angle_gamma 90.000000
_cell_volume 4391.249001
_symmetry_space_group_name_H-M "I M M M"
_symmetry_group_IT_number 71
_symmetry_cell_setting 'orthorhombic'
loop_
_space_group_symop_operation_xyz
x,y,z
-x,-y,z
x,-y,-z
-x,y,-z
-x,-y,-z
x,y,-z
-x,y,z
x,-y,z
1/2+x,1/2+y,1/2+z
1/2-x,1/2-y,1/2+z
1/2+x,1/2-y,1/2-z
1/2-x,1/2+y,1/2-z
1/2-x,1/2-y,1/2-z
1/2+x,1/2+y,1/2-z
1/2-x,1/2+y,1/2+z
1/2+x,1/2-y,1/2+z
loop_
_atom_site_type_symbol
_atom_site_label
_atom_site_fract_x
_atom_site_fract_y
_atom_site_fract_z
Si Si1 0.000000 0.342586 0.347253
Si Si2 0.599314 0.662886 0.816770
Si Si3 0.500000 0.831065 0.410185
Si Si4 0.302819 0.166019 0.167001
Si Si5 0.602173 0.665416 0.637385
Si Si6 0.702152 0.833114 0.349608
Si Si7 0.500000 0.000000 0.000000
O O1 0.950641 0.254077 0.328497
O O2 0.000000 0.378237 0.434253
O O3 0.000000 0.500000 0.308006
O O4 0.595004 0.500000 0.845091
O O5 0.647179 0.744308 0.851450
O O6 0.605674 0.655573 0.727255
O O7 0.500000 0.827554 0.500000
O O8 0.449333 0.748947 0.383092
O O9 0.500000 0.000000 0.386902
O O10 0.300769 0.165507 0.258262
O O11 0.252991 0.243278 0.135721
O O12 0.305963 0.000000 0.143031
O O13 0.601846 0.500000 0.608468
O O14 0.652602 0.755175 0.617144
O O15 0.705224 0.000000 0.373301
#
# Coordination Sequence:
#
# PCOD9519261 Si02
#       7
#     8  16   8  16  16  16   2
#     4  10  20  36  53  72  99 134 169 209 252 310
#     4  10  19  31  51  81 110 134 168 216 264 307
#     4  11  24  39  53  72  99 138 183 223 261 310
#     4   9  16  26  43  72 106 141 170 202 255 310
#     4  10  20  33  51  77 107 137 172 217 264 310
#     4   9  16  27  44  69 106 141 170 206 254 309
#     4   8  24  40  54  72 100 136 176 204 256 302
#
# _framework density 18.673501999999999
#
# number of rings (size 3 to 8) (size 9 to 14) (size 15 to 20)
#    0.293    2.049    0.000    3.512    0.000   10.146 
#    0.000    0.976    0.000    0.000    2.537    0.000 
#    0.000    0.000    0.000    0.000    0.000    0.000 
#
# Total GULP energy -228313.711451 kJ/mol
# GULP energy per Si atom -5568.627109 kJ/mol
# Density = 1.863100 g / cm^3
# Si number density = 18.673502 Si / 1000 Ang^3
#
#
#
# Elastic Constant Matrix: (Units=GPa)
#
#
# Indices 1 2 3 4 5 6 
#
# 1 201.5129 130.2570 -2.6716 0.0000 0.0000 0.0000
# 2 130.2570 228.9807 6.7639 0.0000 0.0000 0.0000
# 3 -2.6716 6.7639 7.6609 0.0000 0.0000 0.0000
# 4 0.0000 0.0000 0.0000 11.6144 0.0000 0.0000
# 5 0.0000 0.0000 0.0000 0.0000 0.3333 0.0000
# 6 0.0000 0.0000 0.0000 0.0000 0.0000 37.4614
#
#
#
# Elastic Compliance Matrix: (Units=1/GPa)
#
#
# Indices 1 2 3 4 5 6 
#
# 1 0.008216 -0.004886 0.007179 0.000000 0.000000 0.000000
# 2 -0.004886 0.007389 -0.008228 0.000000 0.000000 0.000000
# 3 0.007179 -0.008228 0.140301 0.000000 0.000000 0.000000
# 4 0.000000 0.000000 0.000000 0.086100 0.000000 0.000000
# 5 0.000000 0.000000 0.000000 0.000000 3.000658 0.000000
# 6 0.000000 0.000000 0.000000 0.000000 0.000000 0.026694
#
#
# Mechanical properties :
#
#
# Convention : Reuss Voigt Hill
#
# Bulk Modulus (GPa) = 6.94268 78.53922 42.74095
# Shear Modulus (GPa) = 1.50184 30.13549 15.81867
#
# Velocity S-wave (km/s) = 0.89778 4.02158 2.91369
# Velocity P-wave (km/s) = 2.19105 7.98215 5.85301
#
# Compressibility (1/GPa) = 0.14403650
#
# Stress axis : x y z
#
# Youngs Moduli (GPa) = 121.71901 135.32874 7.12752
#
# Poissons Ratio (x) = 0.66116 -0.05117
# Poissons Ratio (y) = 0.59467 0.05865
# Poissons Ratio (z) = -0.87378 1.11348
#
# Static dielectric constant tensor:
#      x y z
#    x 1.628660 0.000000 0.000000 
#    y 0.000000 1.666330 0.000000 
#    z 0.000000 0.000000 1.630500 
# 
# From -- ./inp_files/10796.got.cif
#   From: 2010.05.17/outbox.cif.g08.bks.cpg/sg71_6_cif.got.tgz:10796.got - 2010.06.03 16:22:01.
