data_PCOD9519831
_publ_section_title
;
Structure prediction by ZEFSAII (Michael W. Deem and Ramdas Pophale) SiO2 
 PCOD9519831
Probable space group: I M M M
;
_chemical_formula_sum "Si O2"
_cell_formula_units_Z 104
_cell_length_a 7.423471
_cell_length_b 28.738703
_cell_length_c 21.776726
_cell_angle_alpha 90.000000
_cell_angle_beta 90.000000
_cell_angle_gamma 90.000000
_cell_volume 4645.866940
_symmetry_space_group_name_H-M "I M M M"
_symmetry_group_IT_number 71
_symmetry_cell_setting 'orthorhombic'
loop_
_space_group_symop_operation_xyz
x,y,z
-x,-y,z
x,-y,-z
-x,y,-z
-x,-y,-z
x,y,-z
-x,y,z
x,-y,z
1/2+x,1/2+y,1/2+z
1/2-x,1/2-y,1/2+z
1/2+x,1/2-y,1/2-z
1/2-x,1/2+y,1/2-z
1/2-x,1/2-y,1/2-z
1/2+x,1/2+y,1/2-z
1/2-x,1/2+y,1/2+z
1/2+x,1/2-y,1/2+z
loop_
_atom_site_type_symbol
_atom_site_label
_atom_site_fract_x
_atom_site_fract_y
_atom_site_fract_z
Si Si1 0.716882 0.552716 0.837693
Si Si2 0.779494 0.053198 0.000000
Si Si3 0.213482 0.728539 0.433333
Si Si4 0.288269 0.128841 0.430518
Si Si5 0.797288 0.205865 0.667100
Si Si6 0.779057 0.131536 0.241886
Si Si7 0.283266 0.624394 0.602334
O O1 0.500000 0.551391 0.834214
O O2 0.783019 0.500000 0.832206
O O3 0.765709 0.577849 0.901342
O O4 0.777816 0.588044 0.784147
O O5 0.720878 0.082115 0.059826
O O6 0.000000 0.053160 0.000000
O O7 0.720673 0.000000 0.000000
O O8 0.285257 0.744503 0.500000
O O9 0.289882 0.752675 0.372022
O O10 0.236149 0.673541 0.427980
O O11 0.000000 0.739127 0.433323
O O12 0.221480 0.131837 0.500000
O O13 0.500000 0.140259 0.430038
O O14 0.196427 0.164684 0.383956
O O15 0.716922 0.179665 0.726018
O O16 0.000000 0.220226 0.684607
O O17 0.719097 0.125090 0.172360
O O18 0.000000 0.132809 0.243143
O O19 0.500000 0.621588 0.604402
#
# Coordination Sequence:
#
# PCOD9519831 Si02
#       7
#    16   8  16  16  16  16  16
#     4   9  18  33  52  72  95 129 172 213 255 304
#     4   9  18  32  51  77 105 133 169 209 252 307
#     4  10  20  33  51  74 102 135 170 209 252 302
#     4  10  20  32  47  71 103 135 168 211 259 302
#     4   9  18  34  53  73  98 134 176 212 251 303
#     4   8  16  31  51  74 100 127 164 214 257 299
#     4  10  19  33  53  77 104 133 165 207 259 310
#
# _framework density 22.385487000000001
#
# number of rings (size 3 to 8) (size 9 to 14) (size 15 to 20)
#    0.000    2.692    0.769    1.846    0.000    4.308 
#    0.000    7.692    0.000    0.923    0.000    0.000 
#    0.000    0.000    0.000    0.000    0.000    0.000 
#
# Total GULP energy -290342.776411 kJ/mol
# GULP energy per Si atom -5583.514931 kJ/mol
# Density = 2.233454 g / cm^3
# Si number density = 22.385487 Si / 1000 Ang^3
#
#
#
# Elastic Constant Matrix: (Units=GPa)
#
#
# Indices 1 2 3 4 5 6 
#
# 1 79.3762 -3.7129 0.8423 0.0000 0.0000 0.0000
# 2 -3.7129 131.4957 52.5410 0.0000 0.0000 0.0000
# 3 0.8423 52.5410 158.4440 0.0001 0.0000 0.0000
# 4 0.0000 0.0000 0.0001 171.7310 -0.0001 0.0001
# 5 0.0000 0.0000 0.0000 -0.0001 -28.4992 0.0000
# 6 0.0000 0.0000 0.0000 0.0001 0.0000 63.7402
#
#
#
# Elastic Compliance Matrix: (Units=1/GPa)
#
#
# Indices 1 2 3 4 5 6 
#
# 1 0.012621 0.000442 -0.000214 0.000000 0.000000 0.000000
# 2 0.000442 0.008782 -0.002914 0.000000 0.000000 0.000000
# 3 -0.000214 -0.002914 0.007279 0.000000 0.000000 0.000000
# 4 0.000000 0.000000 0.000000 0.005823 0.000000 0.000000
# 5 0.000000 0.000000 0.000000 0.000000 -0.035089 0.000000
# 6 0.000000 0.000000 0.000000 0.000000 0.000000 0.015689
#
#
# Mechanical properties :
#
#
# Convention : Reuss Voigt Hill
#
# Bulk Modulus (GPa) = 42.90133 52.07296 47.48714
# Shear Modulus (GPa) = 177.00771 62.70411 119.85591
#
# Velocity S-wave (km/s) = 8.90192 5.29829 7.32516
# Velocity P-wave (km/s) = 11.17432 7.79369 9.63345
#
# Compressibility (1/GPa) = 0.02330930
#
# Stress axis : x y z
#
# Youngs Moduli (GPa) = 79.23201 113.87204 137.38226
#
# Poissons Ratio (x) = -0.05030 0.02934
# Poissons Ratio (y) = -0.03500 0.40039
# Poissons Ratio (z) = 0.01692 0.33187
#
# Static dielectric constant tensor:
#      x y z
#    x 1.893430 0.000000 0.000000 
#    y 0.000000 1.803650 0.000000 
#    z 0.000000 0.000000 1.840190 
# 
# From -- ./inp_files/50889.got.cif
#   From: 2010.05.17/outbox.cif.g08.bks.cpg/sg71_26_cif.got.tgz:50889.got - 2010.06.03 16:22:01.
