data_PCOD9519004
_publ_section_title
;
Structure prediction by ZEFSAII (Michael W. Deem and Ramdas Pophale) SiO2 
 PCOD9519004
Probable space group: I M M M
;
_chemical_formula_sum "Si O2"
_cell_formula_units_Z 96
_cell_length_a 11.717024
_cell_length_b 14.109491
_cell_length_c 34.407460
_cell_angle_alpha 90.000000
_cell_angle_beta 90.000000
_cell_angle_gamma 90.000000
_cell_volume 5688.284113
_symmetry_space_group_name_H-M "I M M M"
_symmetry_group_IT_number 71
_symmetry_cell_setting 'orthorhombic'
loop_
_space_group_symop_operation_xyz
x,y,z
-x,-y,z
x,-y,-z
-x,y,-z
-x,-y,-z
x,y,-z
-x,y,z
x,-y,z
1/2+x,1/2+y,1/2+z
1/2-x,1/2-y,1/2+z
1/2+x,1/2-y,1/2-z
1/2-x,1/2+y,1/2-z
1/2-x,1/2-y,1/2-z
1/2+x,1/2+y,1/2-z
1/2-x,1/2+y,1/2+z
1/2+x,1/2-y,1/2+z
loop_
_atom_site_type_symbol
_atom_site_label
_atom_site_fract_x
_atom_site_fract_y
_atom_site_fract_z
Si Si1 0.000000 0.114209 0.218417
Si Si2 0.370073 0.884922 0.761216
Si Si3 0.500000 0.615115 0.192424
Si Si4 0.864067 0.734723 0.116127
Si Si5 0.777557 0.886624 0.832054
Si Si6 0.138647 0.392216 0.955570
Si Si7 0.253153 0.114202 0.318205
O O1 0.000000 0.147379 0.262629
O O2 0.111665 0.138665 0.194103
O O3 0.000000 0.000000 0.221011
O O4 0.500000 0.857253 0.753684
O O5 0.326082 0.857555 0.803862
O O6 0.289781 0.855976 0.725402
O O7 0.365234 0.000000 0.761346
O O8 0.500000 0.500000 0.193037
O O9 0.378571 0.641804 0.174302
O O10 0.794982 0.828201 0.128710
O O11 0.826381 0.684621 0.076222
O O12 0.836208 0.660922 0.150648
O O13 0.000000 0.753826 0.114367
O O14 0.775229 0.000000 0.838198
O O15 0.174941 0.500000 0.945468
O O16 0.000000 0.392963 0.955120
O O17 0.173815 0.372304 0.000000
O O18 0.262018 0.000000 0.320069
#
# Coordination Sequence:
#
# PCOD9519004 Si02
#       7
#     8  16   8  16  16  16  16
#     4   9  14  28  48  58  76 123 173 201 218 257
#     4   9  17  30  46  63  89 126 163 201 243 277
#     4   9  16  30  48  62  86 128 167 196 232 280
#     4  11  21  30  46  73  96 118 154 196 235 277
#     4  10  19  32  47  63  89 126 166 200 230 268
#     4   8  15  30  51  73  98 124 145 173 223 286
#     4  10  19  31  46  66  94 125 157 198 242 279
#
# _framework density 16.876794
#
# number of rings (size 3 to 8) (size 9 to 14) (size 15 to 20)
#    0.000    2.500    2.500    1.500    0.000    2.333 
#    1.500    0.000    0.000    0.500    0.000    2.917 
#    0.000    3.333    0.000    4.167    0.000    0.000 
#
# Total GULP energy -267678.615407 kJ/mol
# GULP energy per Si atom -5576.637821 kJ/mol
# Density = 1.683838 g / cm^3
# Si number density = 16.876794 Si / 1000 Ang^3
#
#
#
# Elastic Constant Matrix: (Units=GPa)
#
#
# Indices 1 2 3 4 5 6 
#
# 1 50.3129 2.1267 2.2886 0.0000 0.0000 0.0000
# 2 2.1267 71.4736 29.1426 0.0000 0.0000 0.0000
# 3 2.2886 29.1426 71.4287 0.0000 0.0000 0.0000
# 4 0.0000 0.0000 0.0000 26.1796 0.0000 0.0000
# 5 0.0000 0.0000 0.0000 0.0000 14.4152 0.0000
# 6 0.0000 0.0000 0.0000 0.0000 0.0000 11.3784
#
#
#
# Elastic Compliance Matrix: (Units=1/GPa)
#
#
# Indices 1 2 3 4 5 6 
#
# 1 0.019914 -0.000399 -0.000475 0.000000 0.000000 0.000000
# 2 -0.000399 0.016791 -0.006838 0.000000 0.000000 0.000000
# 3 -0.000475 -0.006838 0.016805 0.000000 0.000000 0.000000
# 4 0.000000 0.000000 0.000000 0.038198 0.000000 0.000000
# 5 0.000000 0.000000 0.000000 0.000000 0.069371 0.000000
# 6 0.000000 0.000000 0.000000 0.000000 0.000000 0.087886
#
#
# Mechanical properties :
#
#
# Convention : Reuss Voigt Hill
#
# Bulk Modulus (GPa) = 26.25623 28.92568 27.59095
# Shear Modulus (GPa) = 18.04503 21.03845 19.54174
#
# Velocity S-wave (km/s) = 3.27344 3.53454 3.40649
# Velocity P-wave (km/s) = 5.46613 5.81668 5.64413
#
# Compressibility (1/GPa) = 0.03808621
#
# Stress axis : x y z
#
# Youngs Moduli (GPa) = 50.21568 59.55521 59.50594
#
# Poissons Ratio (x) = 0.02375 0.02829
# Poissons Ratio (y) = 0.02002 0.40690
# Poissons Ratio (z) = 0.02387 0.40723
#
# Static dielectric constant tensor:
#      x y z
#    x 1.577960 0.000000 0.000000 
#    y 0.000000 1.636480 0.000000 
#    z 0.000000 0.000000 1.548050 
# 
# From -- ./inp_files/69281.got.cif
#   From: 2010.05.17/outbox.cif.g08.bks.cpg/sg71_35_cif.got.tgz:69281.got - 2010.06.03 16:22:01.
