data_PCOD9519573
_publ_section_title
;
Structure prediction by ZEFSAII (Michael W. Deem and Ramdas Pophale) SiO2 
 PCOD9519573
Probable space group: I M M M
;
_chemical_formula_sum "Si O2"
_cell_formula_units_Z 104
_cell_length_a 31.102245
_cell_length_b 20.129230
_cell_length_c 9.077695
_cell_angle_alpha 90.000000
_cell_angle_beta 90.000000
_cell_angle_gamma 90.000000
_cell_volume 5683.220249
_symmetry_space_group_name_H-M "I M M M"
_symmetry_group_IT_number 71
_symmetry_cell_setting 'orthorhombic'
loop_
_space_group_symop_operation_xyz
x,y,z
-x,-y,z
x,-y,-z
-x,y,-z
-x,-y,-z
x,y,-z
-x,y,z
x,-y,z
1/2+x,1/2+y,1/2+z
1/2-x,1/2-y,1/2+z
1/2+x,1/2-y,1/2-z
1/2-x,1/2+y,1/2-z
1/2-x,1/2-y,1/2-z
1/2+x,1/2+y,1/2-z
1/2-x,1/2+y,1/2+z
1/2+x,1/2-y,1/2+z
loop_
_atom_site_type_symbol
_atom_site_label
_atom_site_fract_x
_atom_site_fract_y
_atom_site_fract_z
Si Si1 0.823118 0.844356 0.675742
Si Si2 0.806974 0.291986 0.170132
Si Si3 0.415924 0.341845 0.678429
Si Si4 0.909750 0.306524 0.833273
Si Si5 0.000000 0.076246 0.179400
Si Si6 0.240848 0.425198 0.821983
Si Si7 0.049752 0.571999 0.676473
O O1 0.827976 0.837933 0.500000
O O2 0.801907 0.775918 0.737858
O O3 0.869597 0.855923 0.749364
O O4 0.790062 0.904048 0.707378
O O5 0.858317 0.301505 0.165820
O O6 0.786761 0.360988 0.228229
O O7 0.792103 0.281811 0.000000
O O8 0.411003 0.345274 0.500000
O O9 0.426658 0.265306 0.715583
O O10 0.455835 0.387510 0.724535
O O11 0.924170 0.366637 0.734704
O O12 0.924755 0.318356 0.000000
O O13 0.000000 0.000000 0.227016
O O14 0.000000 0.077909 0.000000
O O15 0.230929 0.500000 0.767300
O O16 0.235280 0.426934 0.000000
O O17 0.050424 0.571867 0.500000
O O18 0.066139 0.500000 0.728281
O O19 0.000000 0.578021 0.722462
#
# Coordination Sequence:
#
# PCOD9519573 Si02
#       7
#    16  16  16  16   8  16  16
#     4  10  19  32  53  78 104 135 171 211 254 304
#     4   9  18  34  54  74  99 133 171 211 254 300
#     4   9  19  35  54  77 104 133 169 212 255 303
#     4   9  18  30  49  75  98 124 163 211 253 287
#     4   9  18  34  57  81 104 135 172 210 257 307
#     4   9  18  32  51  76 104 136 173 211 255 305
#     4   9  19  34  48  65  94 131 165 198 244 301
#
# _framework density 18.299485000000001
#
# number of rings (size 3 to 8) (size 9 to 14) (size 15 to 20)
#    0.000    2.846    0.000    2.308    1.077    4.308 
#    0.000    3.462    0.000    4.154    0.000    0.000 
#    0.000    0.000    0.000    0.000    0.000    0.000 
#
# Total GULP energy -289697.275920 kJ/mol
# GULP energy per Si atom -5571.101460 kJ/mol
# Density = 1.825783 g / cm^3
# Si number density = 18.299485 Si / 1000 Ang^3
#
#
#
# Elastic Constant Matrix: (Units=GPa)
#
#
# Indices 1 2 3 4 5 6 
#
# 1 59.5333 60.2016 14.0918 0.0000 0.0000 0.0000
# 2 60.2016 128.7534 24.2335 0.0000 0.0000 0.0000
# 3 14.0918 24.2335 18.7121 0.0000 0.0000 0.0000
# 4 0.0000 0.0000 0.0000 22.6184 0.0000 0.0000
# 5 0.0000 0.0000 0.0000 0.0000 10.4865 0.0000
# 6 0.0000 0.0000 0.0000 0.0000 0.0000 18.9776
#
#
#
# Elastic Compliance Matrix: (Units=1/GPa)
#
#
# Indices 1 2 3 4 5 6 
#
# 1 0.032419 -0.013968 -0.006325 0.000000 0.000000 0.000000
# 2 -0.013968 0.016288 -0.010575 0.000000 0.000000 0.000000
# 3 -0.006325 -0.010575 0.071901 0.000000 0.000000 0.000000
# 4 0.000000 0.000000 0.000000 0.044212 0.000000 0.000000
# 5 0.000000 0.000000 0.000000 0.000000 0.095361 0.000000
# 6 0.000000 0.000000 0.000000 0.000000 0.000000 0.052694
#
#
# Mechanical properties :
#
#
# Convention : Reuss Voigt Hill
#
# Bulk Modulus (GPa) = 16.98618 44.89471 30.94045
# Shear Modulus (GPa) = 12.68279 17.64795 15.16537
#
# Velocity S-wave (km/s) = 2.63548 3.10884 2.88189
# Velocity P-wave (km/s) = 4.30853 6.12153 5.29323
#
# Compressibility (1/GPa) = 0.05887138
#
# Stress axis : x y z
#
# Youngs Moduli (GPa) = 30.84601 61.39397 13.90808
#
# Poissons Ratio (x) = 0.85754 0.08797
# Poissons Ratio (y) = 0.43085 0.14708
# Poissons Ratio (z) = 0.19510 0.64927
#
# Static dielectric constant tensor:
#      x y z
#    x 1.631650 0.000000 0.000000 
#    y 0.000000 1.634220 0.000000 
#    z 0.000000 0.000000 1.625520 
# 
# From -- ./inp_files/17018.got.cif
#   From: 2010.05.17/outbox.cif.g08.bks.cpg/sg71_9_cif.got.tgz:17018.got - 2010.06.03 16:22:01.
