data_PCOD9519156
_publ_section_title
;
Structure prediction by ZEFSAII (Michael W. Deem and Ramdas Pophale) SiO2 
 PCOD9519156
Probable space group: I M M M
;
_chemical_formula_sum "Si O2"
_cell_formula_units_Z 72
_cell_length_a 22.181231
_cell_length_b 17.889071
_cell_length_c 7.699761
_cell_angle_alpha 90.000000
_cell_angle_beta 90.000000
_cell_angle_gamma 90.000000
_cell_volume 3055.277609
_symmetry_space_group_name_H-M "I M M M"
_symmetry_group_IT_number 71
_symmetry_cell_setting 'orthorhombic'
loop_
_space_group_symop_operation_xyz
x,y,z
-x,-y,z
x,-y,-z
-x,y,-z
-x,-y,-z
x,y,-z
-x,y,z
x,-y,z
1/2+x,1/2+y,1/2+z
1/2-x,1/2-y,1/2+z
1/2+x,1/2-y,1/2-z
1/2-x,1/2+y,1/2-z
1/2-x,1/2-y,1/2-z
1/2+x,1/2+y,1/2-z
1/2-x,1/2+y,1/2+z
1/2+x,1/2-y,1/2+z
loop_
_atom_site_type_symbol
_atom_site_label
_atom_site_fract_x
_atom_site_fract_y
_atom_site_fract_z
Si Si1 0.574402 0.584975 0.500000
Si Si2 0.104635 0.500000 0.714224
Si Si3 0.270606 0.835550 0.709555
Si Si4 0.909193 0.342867 0.699673
Si Si5 0.753439 0.500000 0.798863
Si Si6 0.569872 0.682013 0.806850
O O1 0.591884 0.500000 0.500000
O O2 0.500000 0.589125 0.500000
O O3 0.597355 0.625569 0.671503
O O4 0.107236 0.500000 0.500000
O O5 0.073859 0.576681 0.771749
O O6 0.173219 0.500000 0.782980
O O7 0.274878 0.840298 0.500000
O O8 0.250000 0.750000 0.750000
O O9 0.336995 0.840559 0.791656
O O10 0.238512 0.914710 0.767506
O O11 0.930061 0.340449 0.500000
O O12 0.929273 0.264475 0.775188
O O13 0.734317 0.500000 0.000000
O O14 0.500000 0.661395 0.827101
O O15 0.598014 0.682230 0.000000
#
# Coordination Sequence:
#
# PCOD9519156 Si02
#       6
#     8   8  16  16   8  16
#     4   9  18  32  52  75  97 127 169 214 254 300
#     4   8  14  26  45  70  95 125 162 198 232 276
#     4  10  19  31  50  72  95 126 162 200 246 296
#     4   9  17  30  49  72  99 128 163 201 240 291
#     4   8  16  30  46  67  93 121 156 198 238 287
#     4   9  18  32  51  75 103 134 166 205 253 300
#
# _framework density 23.565778999999999
#
# number of rings (size 3 to 8) (size 9 to 14) (size 15 to 20)
#    0.000    3.000    0.000    0.667    1.556    1.333 
#    0.000    2.778    2.444    3.333    0.000    2.333 
#    0.000    0.000    0.000    0.000    0.000    0.000 
#
# Total GULP energy -200441.378845 kJ/mol
# GULP energy per Si atom -5567.816079 kJ/mol
# Density = 2.351214 g / cm^3
# Si number density = 23.565779 Si / 1000 Ang^3
#
#
#
# Elastic Constant Matrix: (Units=GPa)
#
#
# Indices 1 2 3 4 5 6 
#
# 1 53.9251 19.5003 -0.4539 0.0000 0.0000 0.0000
# 2 19.5003 257.9850 65.9640 0.0000 0.0000 0.0000
# 3 -0.4539 65.9640 83.0482 0.0000 0.0000 0.0000
# 4 0.0000 0.0000 0.0000 33.7198 0.0000 0.0000
# 5 0.0000 0.0000 0.0000 0.0000 -28.9653 0.0000
# 6 0.0000 0.0000 0.0000 0.0000 0.0000 25.1742
#
#
#
# Elastic Compliance Matrix: (Units=1/GPa)
#
#
# Indices 1 2 3 4 5 6 
#
# 1 0.019229 -0.001858 0.001581 0.000000 0.000000 0.000000
# 2 -0.001858 0.005043 -0.004016 0.000000 0.000000 0.000000
# 3 0.001581 -0.004016 0.015240 0.000000 0.000000 0.000000
# 4 0.000000 0.000000 0.000000 0.029656 0.000000 0.000000
# 5 0.000000 0.000000 0.000000 0.000000 -0.034524 0.000000
# 6 0.000000 0.000000 0.000000 0.000000 0.000000 0.039723
#
#
# Mechanical properties :
#
#
# Convention : Reuss Voigt Hill
#
# Bulk Modulus (GPa) = 32.33498 62.77546 47.55522
# Shear Modulus (GPa) = 53.61185 26.64893 40.13039
#
# Velocity S-wave (km/s) = 4.77486 3.36643 4.13111
# Velocity P-wave (km/s) = 6.64454 6.46581 6.55579
#
# Compressibility (1/GPa) = 0.03092626
#
# Stress axis : x y z
#
# Youngs Moduli (GPa) = 52.00395 198.27562 65.61774
#
# Poissons Ratio (x) = 0.36832 -0.10371
# Poissons Ratio (y) = 0.09660 0.26353
# Poissons Ratio (z) = -0.08220 0.79630
#
# Static dielectric constant tensor:
#      x y z
#    x 1.893110 0.000000 0.000000 
#    y 0.000000 1.965120 0.000000 
#    z 0.000000 0.000000 1.700420 
# 
# From -- ./inp_files/16437.got.cif
#   From: 2010.05.17/outbox.cif.g08.bks.cpg/sg71_9_cif.got.tgz:16437.got - 2010.06.03 16:22:01.
