data_PCOD9519135
_publ_section_title
;
Structure prediction by ZEFSAII (Michael W. Deem and Ramdas Pophale) SiO2 
 PCOD9519135
Probable space group: I M M M
;
_chemical_formula_sum "Si O2"
_cell_formula_units_Z 88
_cell_length_a 7.759311
_cell_length_b 18.986532
_cell_length_c 29.322497
_cell_angle_alpha 90.000000
_cell_angle_beta 90.000000
_cell_angle_gamma 90.000000
_cell_volume 4319.860826
_symmetry_space_group_name_H-M "I M M M"
_symmetry_group_IT_number 71
_symmetry_cell_setting 'orthorhombic'
loop_
_space_group_symop_operation_xyz
x,y,z
-x,-y,z
x,-y,-z
-x,y,-z
-x,-y,-z
x,y,-z
-x,y,z
x,-y,z
1/2+x,1/2+y,1/2+z
1/2-x,1/2-y,1/2+z
1/2+x,1/2-y,1/2-z
1/2-x,1/2+y,1/2-z
1/2-x,1/2-y,1/2-z
1/2+x,1/2+y,1/2-z
1/2-x,1/2+y,1/2+z
1/2+x,1/2-y,1/2+z
loop_
_atom_site_type_symbol
_atom_site_label
_atom_site_fract_x
_atom_site_fract_y
_atom_site_fract_z
Si Si1 0.210516 0.421550 0.052756
Si Si2 0.206227 0.293215 0.885561
Si Si3 0.288969 0.080675 0.208617
Si Si4 0.705083 0.500000 0.448180
Si Si5 0.707083 0.185733 0.283130
Si Si6 0.795537 0.636490 0.388091
O O1 0.262929 0.500000 0.068609
O O2 0.272618 0.356310 0.082816
O O3 0.000000 0.420773 0.053444
O O4 0.262070 0.413704 0.000000
O O5 0.275230 0.301716 0.833935
O O6 0.237777 0.214045 0.903025
O O7 0.000000 0.301387 0.883567
O O8 0.500000 0.082250 0.208107
O O9 0.231703 0.117552 0.255193
O O10 0.227445 0.120666 0.163076
O O11 0.235627 0.000000 0.205628
O O12 0.500000 0.500000 0.451060
O O13 0.775580 0.500000 0.500000
O O14 0.753932 0.570631 0.420606
O O15 0.500000 0.180924 0.286586
O O16 0.750000 0.250000 0.250000
O O17 0.000000 0.639240 0.384644
#
# Coordination Sequence:
#
# PCOD9519135 Si02
#       6
#    16  16  16   8  16  16
#     4   8  15  30  52  77 106 139 175 220 276 332
#     4  10  20  32  52  84 114 143 184 235 283 331
#     4   9  17  31  51  74 100 137 182 224 270 320
#     4  11  25  43  61  83 113 145 183 239 294 333
#     4  10  19  31  49  74 105 139 177 221 268 320
#     4  11  21  36  58  81 108 148 190 227 274 336
#
# _framework density 20.371027000000002
#
# number of rings (size 3 to 8) (size 9 to 14) (size 15 to 20)
#    0.000    2.273    2.727    1.364    0.000    2.182 
#    0.000    5.455    0.000    0.545    0.000    3.818 
#    0.000    0.000    0.000    0.000    0.000    0.000 
#
# Total GULP energy -245523.099284 kJ/mol
# GULP energy per Si atom -5580.070438 kJ/mol
# Density = 2.032466 g / cm^3
# Si number density = 20.371027 Si / 1000 Ang^3
#
#
#
# Elastic Constant Matrix: (Units=GPa)
#
#
# Indices 1 2 3 4 5 6 
#
# 1 30.9654 1.5695 5.1281 0.0000 0.0000 0.0000
# 2 1.5695 198.6203 92.6849 0.0000 0.0000 0.0000
# 3 5.1281 92.6849 117.1713 0.0000 0.0000 0.0000
# 4 0.0000 0.0000 0.0000 42.2095 0.0000 0.0000
# 5 0.0000 0.0000 0.0000 0.0000 11.5815 0.0000
# 6 0.0000 0.0000 0.0000 0.0000 0.0000 7.0704
#
#
#
# Elastic Compliance Matrix: (Units=1/GPa)
#
#
# Indices 1 2 3 4 5 6 
#
# 1 0.032582 0.000647 -0.001937 0.000000 0.000000 0.000000
# 2 0.000647 0.007993 -0.006351 0.000000 0.000000 0.000000
# 3 -0.001937 -0.006351 0.013643 0.000000 0.000000 0.000000
# 4 0.000000 0.000000 0.000000 0.023691 0.000000 0.000000
# 5 0.000000 0.000000 0.000000 0.000000 0.086345 0.000000
# 6 0.000000 0.000000 0.000000 0.000000 0.000000 0.141435
#
#
# Mechanical properties :
#
#
# Convention : Reuss Voigt Hill
#
# Bulk Modulus (GPa) = 25.68404 60.61356 43.14880
# Shear Modulus (GPa) = 14.97219 28.66391 21.81805
#
# Velocity S-wave (km/s) = 2.71398 3.75519 3.27622
# Velocity P-wave (km/s) = 4.73882 6.97290 5.96145
#
# Compressibility (1/GPa) = 0.03893468
#
# Stress axis : x y z
#
# Youngs Moduli (GPa) = 30.69162 125.10348 73.29629
#
# Poissons Ratio (x) = -0.08090 0.14201
# Poissons Ratio (y) = -0.01985 0.46552
# Poissons Ratio (z) = 0.05946 0.79456
#
# Static dielectric constant tensor:
#      x y z
#    x 1.753360 0.000000 0.000000 
#    y 0.000000 1.715080 0.000000 
#    z 0.000000 0.000000 1.727540 
# 
# From -- ./inp_files/49253.got.cif
#   From: 2010.05.17/outbox.cif.g08.bks.cpg/sg71_25_cif.got.tgz:49253.got - 2010.06.03 16:22:01.
