data_PCOD9519835
_publ_section_title
;
Structure prediction by ZEFSAII (Michael W. Deem and Ramdas Pophale) SiO2 
 PCOD9519835
Probable space group: I M M M
;
_chemical_formula_sum "Si O2"
_cell_formula_units_Z 112
_cell_length_a 28.297279
_cell_length_b 14.111540
_cell_length_c 15.814268
_cell_angle_alpha 90.000000
_cell_angle_beta 90.000000
_cell_angle_gamma 90.000000
_cell_volume 6314.924787
_symmetry_space_group_name_H-M "I M M M"
_symmetry_group_IT_number 71
_symmetry_cell_setting 'orthorhombic'
loop_
_space_group_symop_operation_xyz
x,y,z
-x,-y,z
x,-y,-z
-x,y,-z
-x,-y,-z
x,y,-z
-x,y,z
x,-y,z
1/2+x,1/2+y,1/2+z
1/2-x,1/2-y,1/2+z
1/2+x,1/2-y,1/2-z
1/2-x,1/2+y,1/2-z
1/2-x,1/2-y,1/2-z
1/2+x,1/2+y,1/2-z
1/2-x,1/2+y,1/2+z
1/2+x,1/2-y,1/2+z
loop_
_atom_site_type_symbol
_atom_site_label
_atom_site_fract_x
_atom_site_fract_y
_atom_site_fract_z
Si Si1 0.641568 0.213100 0.190333
Si Si2 0.942989 0.000000 0.405077
Si Si3 0.629518 0.886355 0.635866
Si Si4 0.271041 0.887383 0.099235
Si Si5 0.233749 0.614443 0.909147
Si Si6 0.945936 0.384299 0.000000
Si Si7 0.800046 0.113253 0.249819
Si Si8 0.945909 0.792733 0.397793
O O1 0.629536 0.144928 0.267902
O O2 0.684478 0.170469 0.135428
O O3 0.658297 0.313161 0.231248
O O4 0.594760 0.225467 0.134991
O O5 0.932209 0.101262 0.366145
O O6 0.922128 0.000000 0.500000
O O7 0.000000 0.000000 0.413003
O O8 0.679781 0.852705 0.598653
O O9 0.584814 0.853758 0.581162
O O10 0.630045 0.000000 0.630283
O O11 0.226414 0.868713 0.160854
O O12 0.281210 0.000000 0.108283
O O13 0.262396 0.868735 0.000000
O O14 0.232792 0.500000 0.911054
O O15 0.262755 0.636360 0.825170
O O16 0.254182 0.645879 0.000000
O O17 0.947094 0.500000 0.000000
O O18 0.000000 0.351480 0.000000
O O19 0.811609 0.000000 0.254953
O O20 0.945947 0.796201 0.500000
O O21 0.000000 0.771058 0.371879
#
# Coordination Sequence:
#
# PCOD9519835 Si02
#       8
#    16   8  16  16  16   8  16  16
#     4  12  22  33  54  85 106 138 182 230 267 316
#     4   7  12  28  52  72  92 129 169 203 257 322
#     4  10  19  33  53  77 106 141 176 215 267 322
#     4  10  21  38  56  74 107 154 189 219 261 316
#     4   9  16  30  52  74 103 139 169 205 269 330
#     4   9  18  34  56  82 109 137 175 223 275 331
#     4  10  22  38  52  78 115 142 179 231 270 318
#     4   9  19  35  54  76 105 138 173 217 269 323
#
# _framework density 17.735761
#
# number of rings (size 3 to 8) (size 9 to 14) (size 15 to 20)
#    0.000    2.286    2.143    2.143    1.000    1.714 
#    1.286    0.000    0.000    1.286    0.000    5.000 
#    0.000    0.571    0.000    0.000    0.000    0.000 
#
# Total GULP energy -312097.093853 kJ/mol
# GULP energy per Si atom -5573.162390 kJ/mol
# Density = 1.769539 g / cm^3
# Si number density = 17.735761 Si / 1000 Ang^3
#
#
#
# Elastic Constant Matrix: (Units=GPa)
#
#
# Indices 1 2 3 4 5 6 
#
# 1 64.1634 17.3228 31.2217 0.0000 0.0000 0.0000
# 2 17.3228 43.8446 11.5437 0.0000 0.0000 0.0000
# 3 31.2217 11.5437 102.6437 0.0000 0.0000 0.0000
# 4 0.0000 0.0000 0.0000 -5.1247 0.0000 0.0000
# 5 0.0000 0.0000 0.0000 0.0000 33.5551 0.0000
# 6 0.0000 0.0000 0.0000 0.0000 0.0000 22.5884
#
#
#
# Elastic Compliance Matrix: (Units=1/GPa)
#
#
# Indices 1 2 3 4 5 6 
#
# 1 0.019927 -0.006469 -0.005334 0.000000 0.000000 0.000000
# 2 -0.006469 0.025604 -0.000912 0.000000 0.000000 0.000000
# 3 -0.005334 -0.000912 0.011467 0.000000 0.000000 0.000000
# 4 0.000000 0.000000 0.000000 -0.195132 0.000000 0.000000
# 5 0.000000 0.000000 0.000000 0.000000 0.029802 0.000000
# 6 0.000000 0.000000 0.000000 0.000000 0.000000 0.044271
#
#
# Mechanical properties :
#
#
# Convention : Reuss Voigt Hill
#
# Bulk Modulus (GPa) = 31.67633 36.75866 34.21750
# Shear Modulus (GPa) = -177.87453 20.24131 -78.81661
#
# Velocity S-wave (km/s) = -10.02543 3.38194 -6.67352
# Velocity P-wave (km/s) = 10.77559 6.00173 6.32822
#
# Compressibility (1/GPa) = 0.03156931
#
# Stress axis : x y z
#
# Youngs Moduli (GPa) = 50.18301 39.05686 87.20365
#
# Poissons Ratio (x) = 0.25265 0.46513
# Poissons Ratio (y) = 0.32462 0.07952
# Poissons Ratio (z) = 0.26767 0.03561
#
# Static dielectric constant tensor:
#      x y z
#    x 1.584730 0.000000 0.000000 
#    y 0.000000 1.643560 0.000000 
#    z 0.000000 0.000000 1.615000 
# 
# From -- ./inp_files/40396.got.cif
#   From: 2010.05.17/outbox.cif.g08.bks.cpg/sg71_21_cif.got.tgz:40396.got - 2010.06.03 16:22:01.
