data_PCOD9519860
_publ_section_title
;
Structure prediction by ZEFSAII (Michael W. Deem and Ramdas Pophale) SiO2 
 PCOD9519860
Probable space group: I M M M
;
_chemical_formula_sum "Si O2"
_cell_formula_units_Z 88
_cell_length_a 14.174050
_cell_length_b 9.115229
_cell_length_c 35.369938
_cell_angle_alpha 90.000000
_cell_angle_beta 90.000000
_cell_angle_gamma 90.000000
_cell_volume 4569.785789
_symmetry_space_group_name_H-M "I M M M"
_symmetry_group_IT_number 71
_symmetry_cell_setting 'orthorhombic'
loop_
_space_group_symop_operation_xyz
x,y,z
-x,-y,z
x,-y,-z
-x,y,-z
-x,-y,-z
x,y,-z
-x,y,z
x,-y,z
1/2+x,1/2+y,1/2+z
1/2-x,1/2-y,1/2+z
1/2+x,1/2-y,1/2-z
1/2-x,1/2+y,1/2-z
1/2-x,1/2-y,1/2-z
1/2+x,1/2+y,1/2-z
1/2-x,1/2+y,1/2+z
1/2+x,1/2-y,1/2+z
loop_
_atom_site_type_symbol
_atom_site_label
_atom_site_fract_x
_atom_site_fract_y
_atom_site_fract_z
Si Si1 0.615152 0.669167 0.727406
Si Si2 0.796254 0.822658 0.078208
Si Si3 0.891210 0.178792 0.000000
Si Si4 0.114911 0.669078 0.696899
Si Si5 0.606607 0.178488 0.886824
Si Si6 0.385779 0.830319 0.349258
O O1 0.500000 0.675041 0.727678
O O2 0.642390 0.500000 0.725447
O O3 0.646569 0.741442 0.766702
O O4 0.645878 0.753985 0.689757
O O5 0.839858 0.774286 0.038444
O O6 0.686264 0.782709 0.083175
O O7 0.849539 0.754096 0.113931
O O8 0.804182 0.000000 0.080466
O O9 0.000000 0.225728 0.000000
O O10 0.890204 0.000000 0.000000
O O11 0.145135 0.500000 0.700200
O O12 0.138783 0.727459 0.655153
O O13 0.000000 0.668185 0.697136
O O14 0.500000 0.229184 0.894466
O O15 0.603194 0.000000 0.884734
O O16 0.500000 0.825995 0.349544
O O17 0.356369 0.000000 0.349975
#
# Coordination Sequence:
#
# PCOD9519860 Si02
#       6
#    16  16   8  16  16  16
#     4   9  16  26  43  69  99 131 169 211 253 300
#     4  10  19  33  54  77 101 132 170 208 250 306
#     4   9  18  32  52  80 110 135 161 201 254 305
#     4   8  13  24  43  65  92 129 169 207 249 295
#     4   8  15  29  50  75 102 133 170 212 255 296
#     4  10  20  33  49  71 101 135 170 212 261 307
#
# _framework density 19.256920000000001
#
# number of rings (size 3 to 8) (size 9 to 14) (size 15 to 20)
#    0.000    3.000    0.000    2.727    0.000    4.000 
#    0.000    2.727    0.000    6.000    0.000    0.000 
#    0.000    1.455    0.000    0.000    0.000    0.000 
#
# Total GULP energy -245543.109647 kJ/mol
# GULP energy per Si atom -5580.525219 kJ/mol
# Density = 1.921309 g / cm^3
# Si number density = 19.256920 Si / 1000 Ang^3
#
#
#
# Elastic Constant Matrix: (Units=GPa)
#
#
# Indices 1 2 3 4 5 6 
#
# 1 101.2079 21.3500 80.3614 0.0000 0.0000 0.0000
# 2 21.3500 53.4358 47.9656 0.0000 0.0000 0.0000
# 3 80.3614 47.9656 176.3275 0.0000 0.0000 0.0000
# 4 0.0000 0.0000 0.0000 5.3434 0.0000 0.0000
# 5 0.0000 0.0000 0.0000 0.0000 31.8474 0.0000
# 6 0.0000 0.0000 0.0000 0.0000 0.0000 5.8892
#
#
#
# Elastic Compliance Matrix: (Units=1/GPa)
#
#
# Indices 1 2 3 4 5 6 
#
# 1 0.015485 0.000196 -0.007111 0.000000 0.000000 0.000000
# 2 0.000196 0.024762 -0.006825 0.000000 0.000000 0.000000
# 3 -0.007111 -0.006825 0.010769 0.000000 0.000000 0.000000
# 4 0.000000 0.000000 0.000000 0.187148 0.000000 0.000000
# 5 0.000000 0.000000 0.000000 0.000000 0.031400 0.000000
# 6 0.000000 0.000000 0.000000 0.000000 0.000000 0.169801
#
#
# Mechanical properties :
#
#
# Convention : Reuss Voigt Hill
#
# Bulk Modulus (GPa) = 42.48821 70.03617 56.26219
# Shear Modulus (GPa) = 10.53315 20.70228 15.61772
#
# Velocity S-wave (km/s) = 2.34130 3.28236 2.85093
# Velocity P-wave (km/s) = 5.42408 7.12836 6.33381
#
# Compressibility (1/GPa) = 0.02353594
#
# Stress axis : x y z
#
# Youngs Moduli (GPa) = 64.57668 40.38388 92.86243
#
# Poissons Ratio (x) = -0.00790 0.66032
# Poissons Ratio (y) = -0.01264 0.63380
# Poissons Ratio (z) = 0.45919 0.27563
#
# Static dielectric constant tensor:
#      x y z
#    x 1.734440 0.000000 0.000000 
#    y 0.000000 1.643980 0.000000 
#    z 0.000000 0.000000 1.640380 
# 
# From -- ./inp_files/70383.got.cif
#   From: 2010.05.17/outbox.cif.g08.bks.cpg/sg71_36_cif.got.tgz:70383.got - 2010.06.03 16:22:01.
