data_PCOD9519269
_publ_section_title
;
Structure prediction by ZEFSAII (Michael W. Deem and Ramdas Pophale) SiO2 
 PCOD9519269
Probable space group: I M M M
;
_chemical_formula_sum "Si O2"
_cell_formula_units_Z 92
_cell_length_a 29.560100
_cell_length_b 23.596293
_cell_length_c 7.609276
_cell_angle_alpha 90.000000
_cell_angle_beta 90.000000
_cell_angle_gamma 90.000000
_cell_volume 5307.536825
_symmetry_space_group_name_H-M "I M M M"
_symmetry_group_IT_number 71
_symmetry_cell_setting 'orthorhombic'
loop_
_space_group_symop_operation_xyz
x,y,z
-x,-y,z
x,-y,-z
-x,y,-z
-x,-y,-z
x,y,-z
-x,y,z
x,-y,z
1/2+x,1/2+y,1/2+z
1/2-x,1/2-y,1/2+z
1/2+x,1/2-y,1/2-z
1/2-x,1/2+y,1/2-z
1/2-x,1/2-y,1/2-z
1/2+x,1/2+y,1/2-z
1/2-x,1/2+y,1/2+z
1/2+x,1/2-y,1/2+z
loop_
_atom_site_type_symbol
_atom_site_label
_atom_site_fract_x
_atom_site_fract_y
_atom_site_fract_z
Si Si1 0.235015 0.836868 0.790346
Si Si2 0.000000 0.714826 0.500000
Si Si3 0.500000 0.434713 0.288367
Si Si4 0.911608 0.136165 0.705956
Si Si5 0.177793 0.269776 0.792311
Si Si6 0.673002 0.435946 0.208855
Si Si7 0.576921 0.764604 0.703700
O O1 0.200623 0.788077 0.719108
O O2 0.285088 0.818401 0.735086
O O3 0.217472 0.898241 0.736129
O O4 0.233709 0.834075 0.000000
O O5 0.960604 0.717619 0.343745
O O6 0.500000 0.500000 0.231972
O O7 0.500000 0.432922 0.500000
O O8 0.544336 0.402722 0.222319
O O9 0.903690 0.148743 0.500000
O O10 0.868939 0.101218 0.779261
O O11 0.920567 0.195930 0.796487
O O12 0.127244 0.282416 0.731715
O O13 0.172681 0.260471 0.000000
O O14 0.674955 0.500000 0.279056
O O15 0.665371 0.440337 0.000000
O O16 0.568928 0.783085 0.500000
#
# Coordination Sequence:
#
# PCOD9519269 Si02
#       7
#    16   4   8  16  16  16  16
#     4  10  19  31  52  77 101 130 169 219 267 319
#     4  12  24  36  52  78 107 144 175 228 278 320
#     4  11  24  37  47  61  84 120 169 226 277 319
#     4  11  21  35  52  68  91 128 177 228 275 317
#     4   9  19  34  53  76 101 132 169 216 267 320
#     4  10  21  35  51  71 100 138 176 219 271 323
#     4  11  22  37  55  77 105 137 178 221 272 326
#
# _framework density 17.333842000000001
#
# number of rings (size 3 to 8) (size 9 to 14) (size 15 to 20)
#    0.000    1.652    2.609    2.609    1.217    3.130 
#    0.000    0.000    0.000    0.000    0.000    0.000 
#    0.000    0.000    0.000    1.565    0.000   13.130 
#
# Total GULP energy -256240.510549 kJ/mol
# GULP energy per Si atom -5570.445882 kJ/mol
# Density = 1.729439 g / cm^3
# Si number density = 17.333842 Si / 1000 Ang^3
#
#
#
# Elastic Constant Matrix: (Units=GPa)
#
#
# Indices 1 2 3 4 5 6 
#
# 1 120.2192 18.6597 28.1289 0.0000 0.0000 0.0000
# 2 18.6597 20.1224 -10.4582 0.0000 0.0000 0.0000
# 3 28.1289 -10.4582 74.7407 0.0000 0.0000 0.0000
# 4 0.0000 0.0000 0.0000 42.9499 0.0000 0.0000
# 5 0.0000 0.0000 0.0000 0.0000 116.3194 0.0000
# 6 0.0000 0.0000 0.0000 0.0000 0.0000 18.4561
#
#
#
# Elastic Compliance Matrix: (Units=1/GPa)
#
#
# Indices 1 2 3 4 5 6 
#
# 1 0.012155 -0.014720 -0.006634 0.000000 0.000000 0.000000
# 2 -0.014720 0.071419 0.015533 0.000000 0.000000 0.000000
# 3 -0.006634 0.015533 0.018050 0.000000 0.000000 0.000000
# 4 0.000000 0.000000 0.000000 0.023283 0.000000 0.000000
# 5 0.000000 0.000000 0.000000 0.000000 0.008597 0.000000
# 6 0.000000 0.000000 0.000000 0.000000 0.000000 0.054183
#
#
# Mechanical properties :
#
#
# Convention : Reuss Voigt Hill
#
# Bulk Modulus (GPa) = 11.11331 31.97146 21.54239
# Shear Modulus (GPa) = 21.80342 47.46188 34.63265
#
# Velocity S-wave (km/s) = 3.55047 5.23837 4.47472
# Velocity P-wave (km/s) = 4.82007 7.42104 6.25719
#
# Compressibility (1/GPa) = 0.08998215
#
# Stress axis : x y z
#
# Youngs Moduli (GPa) = 82.26981 14.00195 55.40189
#
# Poissons Ratio (x) = 0.20610 0.36755
# Poissons Ratio (y) = 1.21098 -0.86057
# Poissons Ratio (z) = 0.54580 -0.21749
#
# Static dielectric constant tensor:
#      x y z
#    x 1.615250 0.000000 0.000000 
#    y 0.000000 1.574420 0.000000 
#    z 0.000000 0.000000 1.649970 
# 
# From -- ./inp_files/14937.got.cif
#   From: 2010.05.17/outbox.cif.g08.bks.cpg/sg71_8_cif.got.tgz:14937.got - 2010.06.03 16:22:01.
