data_PCOD9519036
_publ_section_title
;
Structure prediction by ZEFSAII (Michael W. Deem and Ramdas Pophale) SiO2 
 PCOD9519036
Probable space group: I M M M
;
_chemical_formula_sum "Si O2"
_cell_formula_units_Z 64
_cell_length_a 24.355118
_cell_length_b 10.234949
_cell_length_c 12.926281
_cell_angle_alpha 90.000000
_cell_angle_beta 90.000000
_cell_angle_gamma 90.000000
_cell_volume 3222.177893
_symmetry_space_group_name_H-M "I M M M"
_symmetry_group_IT_number 71
_symmetry_cell_setting 'orthorhombic'
loop_
_space_group_symop_operation_xyz
x,y,z
-x,-y,z
x,-y,-z
-x,y,-z
-x,-y,-z
x,y,-z
-x,y,z
x,-y,z
1/2+x,1/2+y,1/2+z
1/2-x,1/2-y,1/2+z
1/2+x,1/2-y,1/2-z
1/2-x,1/2+y,1/2-z
1/2-x,1/2-y,1/2-z
1/2+x,1/2+y,1/2-z
1/2-x,1/2+y,1/2+z
1/2+x,1/2-y,1/2+z
loop_
_atom_site_type_symbol
_atom_site_label
_atom_site_fract_x
_atom_site_fract_y
_atom_site_fract_z
Si Si1 0.170728 0.655714 0.800224
Si Si2 0.934175 0.000000 0.381801
Si Si3 0.710464 0.345912 0.882367
Si Si4 0.935298 0.251857 0.243999
Si Si5 0.434869 0.000000 0.111912
O O1 0.165747 0.500000 0.779492
O O2 0.223398 0.667892 0.874045
O O3 0.186629 0.742417 0.699324
O O4 0.112633 0.716574 0.838196
O O5 0.922183 0.875351 0.311453
O O6 0.912670 0.000000 0.500000
O O7 0.000000 0.000000 0.392844
O O8 0.698010 0.500000 0.857665
O O9 0.692775 0.320109 0.000000
O O10 0.925996 0.370882 0.322945
O O11 0.000000 0.249140 0.212145
O O12 0.500000 0.000000 0.097263
O O13 0.407194 0.000000 0.000000
#
# Coordination Sequence:
#
# PCOD9519036 Si02
#       5
#    16   8  16  16   8
#     4  10  20  35  54  78 105 132 170 212 253 306
#     4   9  18  30  42  61  95 137 175 203 233 288
#     4   9  20  38  57  75  99 134 173 215 258 297
#     4  10  19  31  47  70 100 134 165 201 250 300
#     4   9  16  26  40  61  93 129 161 193 237 292
#
# _framework density 19.862342000000002
#
# number of rings (size 3 to 8) (size 9 to 14) (size 15 to 20)
#    0.000    2.500    1.250    0.750    1.750    5.500 
#    0.000    0.000    0.000    0.750    0.000    3.500 
#    0.000    3.000    0.000    0.000    0.000    0.000 
#
# Total GULP energy -178168.289786 kJ/mol
# GULP energy per Si atom -5567.759056 kJ/mol
# Density = 1.981713 g / cm^3
# Si number density = 19.862342 Si / 1000 Ang^3
#
#
#
# Elastic Constant Matrix: (Units=GPa)
#
#
# Indices 1 2 3 4 5 6 
#
# 1 125.6304 20.7292 2.0417 0.0000 0.0000 0.0000
# 2 20.7292 115.4656 10.1857 0.0000 0.0000 0.0000
# 3 2.0417 10.1857 25.0181 0.0000 0.0000 0.0000
# 4 0.0000 0.0000 0.0000 16.4228 0.0000 0.0000
# 5 0.0000 0.0000 0.0000 0.0000 12.0222 0.0000
# 6 0.0000 0.0000 0.0000 0.0000 0.0000 36.8085
#
#
#
# Elastic Compliance Matrix: (Units=1/GPa)
#
#
# Indices 1 2 3 4 5 6 
#
# 1 0.008203 -0.001466 -0.000072 0.000000 0.000000 0.000000
# 2 -0.001466 0.009245 -0.003644 0.000000 0.000000 0.000000
# 3 -0.000072 -0.003644 0.041461 0.000000 0.000000 0.000000
# 4 0.000000 0.000000 0.000000 0.060891 0.000000 0.000000
# 5 0.000000 0.000000 0.000000 0.000000 0.083180 0.000000
# 6 0.000000 0.000000 0.000000 0.000000 0.000000 0.027168
#
#
# Mechanical properties :
#
#
# Convention : Reuss Voigt Hill
#
# Bulk Modulus (GPa) = 20.60042 36.89193 28.74618
# Shear Modulus (GPa) = 19.47842 28.59454 24.03648
#
# Velocity S-wave (km/s) = 3.13496 3.79837 3.48250
# Velocity P-wave (km/s) = 4.84749 6.15231 5.53846
#
# Compressibility (1/GPa) = 0.04854270
#
# Stress axis : x y z
#
# Youngs Moduli (GPa) = 121.90710 108.16290 24.11921
#
# Poissons Ratio (x) = 0.15860 0.00175
# Poissons Ratio (y) = 0.17875 0.08790
# Poissons Ratio (z) = 0.00883 0.39419
#
# Static dielectric constant tensor:
#      x y z
#    x 1.836000 0.000000 0.000000 
#    y 0.000000 1.699220 0.000000 
#    z 0.000000 0.000000 1.720810 
# 
# From -- ./inp_files/14205.got.cif
#   From: 2010.05.17/outbox.cif.g08.bks.cpg/sg71_8_cif.got.tgz:14205.got - 2010.06.03 16:22:01.
