data_PCOD9519461
_publ_section_title
;
Structure prediction by ZEFSAII (Michael W. Deem and Ramdas Pophale) SiO2 
 PCOD9519461
Probable space group: I M M M
;
_chemical_formula_sum "Si O2"
_cell_formula_units_Z 72
_cell_length_a 20.167358
_cell_length_b 9.836594
_cell_length_c 20.066533
_cell_angle_alpha 90.000000
_cell_angle_beta 90.000000
_cell_angle_gamma 90.000000
_cell_volume 3980.760945
_symmetry_space_group_name_H-M "I M M M"
_symmetry_group_IT_number 71
_symmetry_cell_setting 'orthorhombic'
loop_
_space_group_symop_operation_xyz
x,y,z
-x,-y,z
x,-y,-z
-x,y,-z
-x,-y,-z
x,y,-z
-x,y,z
x,-y,z
1/2+x,1/2+y,1/2+z
1/2-x,1/2-y,1/2+z
1/2+x,1/2-y,1/2-z
1/2-x,1/2+y,1/2-z
1/2-x,1/2-y,1/2-z
1/2+x,1/2+y,1/2-z
1/2-x,1/2+y,1/2+z
1/2+x,1/2-y,1/2+z
loop_
_atom_site_type_symbol
_atom_site_label
_atom_site_fract_x
_atom_site_fract_y
_atom_site_fract_z
Si Si1 0.577059 0.150003 0.716363
Si Si2 0.074365 0.000000 0.079260
Si Si3 0.687294 0.666654 0.779708
Si Si4 0.373240 0.791907 0.423581
Si Si5 0.783777 0.840291 0.427607
O O1 0.500000 0.173579 0.730839
O O2 0.623272 0.269331 0.744195
O O3 0.587210 0.142272 0.636555
O O4 0.596778 0.000000 0.742950
O O5 0.115882 0.866366 0.092198
O O6 0.000000 0.000000 0.109576
O O7 0.065153 0.000000 0.000000
O O8 0.693164 0.500000 0.773058
O O9 0.750000 0.750000 0.750000
O O10 0.684748 0.704762 0.858285
O O11 0.395419 0.819992 0.500000
O O12 0.295837 0.827116 0.420149
O O13 0.801602 0.778147 0.500000
O O14 0.798641 0.000000 0.431455
#
# Coordination Sequence:
#
# PCOD9519461 Si02
#       5
#    16   8  16  16  16
#     4  11  24  39  55  80 116 154 193 237 281 331
#     4   9  18  30  42  64 104 148 186 226 268 313
#     4  11  22  38  61  85 114 150 189 234 284 340
#     4  10  19  32  51  76 110 150 189 228 275 331
#     4   9  18  34  57  82 106 135 177 230 280 327
#
# _framework density 18.086995000000002
#
# number of rings (size 3 to 8) (size 9 to 14) (size 15 to 20)
#    0.000    1.889    2.222    2.000    1.556    3.111 
#    2.000    1.111    0.000    0.667    0.000    4.667 
#    0.000    0.000    0.000    0.000    0.000    0.000 
#
# Total GULP energy -200467.933516 kJ/mol
# GULP energy per Si atom -5568.553709 kJ/mol
# Density = 1.804583 g / cm^3
# Si number density = 18.086995 Si / 1000 Ang^3
#
#
#
# Elastic Constant Matrix: (Units=GPa)
#
#
# Indices 1 2 3 4 5 6 
#
# 1 53.7874 27.4225 35.1061 0.0000 0.0000 0.0000
# 2 27.4225 95.8269 33.6620 0.0000 0.0000 0.0000
# 3 35.1061 33.6620 125.1164 0.0000 0.0000 0.0000
# 4 0.0000 0.0000 0.0000 -1.9484 0.0000 0.0000
# 5 0.0000 0.0000 0.0000 0.0000 759.4926 0.0000
# 6 0.0000 0.0000 0.0000 0.0000 0.0000 5.8220
#
#
#
# Elastic Compliance Matrix: (Units=1/GPa)
#
#
# Indices 1 2 3 4 5 6 
#
# 1 0.024868 -0.005152 -0.005591 0.000000 0.000000 0.000000
# 2 -0.005152 0.012592 -0.001942 0.000000 0.000000 0.000000
# 3 -0.005591 -0.001942 0.010084 0.000000 0.000000 0.000000
# 4 0.000000 0.000000 0.000000 -0.513242 0.000000 0.000000
# 5 0.000000 0.000000 0.000000 0.000000 0.001317 0.000000
# 6 0.000000 0.000000 0.000000 0.000000 0.000000 0.171762
#
#
# Mechanical properties :
#
#
# Convention : Reuss Voigt Hill
#
# Bulk Modulus (GPa) = 45.10132 51.90131 48.50132
# Shear Modulus (GPa) = -19.24134 164.57593 72.66730
#
# Velocity S-wave (km/s) = -3.26517 9.54928 6.34537
# Velocity P-wave (km/s) = 3.28250 12.26144 8.97546
#
# Compressibility (1/GPa) = 0.02217230
#
# Stress axis : x y z
#
# Youngs Moduli (GPa) = 40.21247 79.41470 99.16717
#
# Poissons Ratio (x) = 0.40916 0.55449
# Poissons Ratio (y) = 0.20718 0.19260
# Poissons Ratio (z) = 0.22485 0.15424
#
# Static dielectric constant tensor:
#      x y z
#    x 1.573970 0.000000 0.000000 
#    y 0.000000 1.682640 0.000000 
#    z 0.000000 0.000000 1.681560 
# 
# From -- ./inp_files/9905.got.cif
#   From: 2010.05.17/outbox.cif.g08.bks.cpg/sg71_5_cif.got.tgz:9905.got - 2010.06.03 16:22:01.
