data_PCOD9519539
_publ_section_title
;
Structure prediction by ZEFSAII (Michael W. Deem and Ramdas Pophale) SiO2 
 PCOD9519539
Probable space group: I M M M
;
_chemical_formula_sum "Si O2"
_cell_formula_units_Z 88
_cell_length_a 13.438157
_cell_length_b 28.544786
_cell_length_c 11.888612
_cell_angle_alpha 90.000000
_cell_angle_beta 90.000000
_cell_angle_gamma 90.000000
_cell_volume 4560.344543
_symmetry_space_group_name_H-M "I M M M"
_symmetry_group_IT_number 71
_symmetry_cell_setting 'orthorhombic'
loop_
_space_group_symop_operation_xyz
x,y,z
-x,-y,z
x,-y,-z
-x,y,-z
-x,-y,-z
x,y,-z
-x,y,z
x,-y,z
1/2+x,1/2+y,1/2+z
1/2-x,1/2-y,1/2+z
1/2+x,1/2-y,1/2-z
1/2-x,1/2+y,1/2-z
1/2-x,1/2-y,1/2-z
1/2+x,1/2+y,1/2-z
1/2-x,1/2+y,1/2+z
1/2+x,1/2-y,1/2+z
loop_
_atom_site_type_symbol
_atom_site_label
_atom_site_fract_x
_atom_site_fract_y
_atom_site_fract_z
Si Si1 0.385111 0.909810 0.745946
Si Si2 0.120326 0.552240 0.000000
Si Si3 0.303731 0.555246 0.632707
Si Si4 0.612279 0.637660 0.784246
Si Si5 0.189836 0.671924 0.126909
Si Si6 0.613582 0.728978 0.629135
O O1 0.500000 0.921514 0.766257
O O2 0.353252 0.927051 0.620921
O O3 0.310479 0.931776 0.835603
O O4 0.369676 0.854462 0.725941
O O5 0.159665 0.500000 0.000000
O O6 0.000000 0.552398 0.000000
O O7 0.322480 0.563386 0.500000
O O8 0.321304 0.500000 0.655623
O O9 0.365269 0.590870 0.711756
O O10 0.500000 0.635780 0.829211
O O11 0.700854 0.648912 0.870164
O O12 0.621657 0.682790 0.702876
O O13 0.185752 0.727253 0.149784
O O14 0.146517 0.665909 0.000000
O O15 0.626989 0.714538 0.500000
O O16 0.500000 0.747189 0.641953
#
# Coordination Sequence:
#
# PCOD9519539 Si02
#       6
#    16   8  16  16  16  16
#     4  10  19  32  52  79 110 141 173 210 257 317
#     4   9  16  26  44  70  99 133 171 205 239 289
#     4  10  22  38  55  77 104 136 178 226 273 319
#     4  10  21  36  54  76 103 138 181 226 270 312
#     4  10  19  32  52  79 110 142 175 214 261 315
#     4   9  17  30  52  80 107 135 170 213 262 317
#
# _framework density 19.296787999999999
#
# number of rings (size 3 to 8) (size 9 to 14) (size 15 to 20)
#    0.000    2.273    0.909    2.182    0.000    4.000 
#    0.000    1.818    0.000    0.000    0.000    7.636 
#    0.000    0.000    0.000    0.000    0.000    0.000 
#
# Total GULP energy -245098.531418 kJ/mol
# GULP energy per Si atom -5570.421169 kJ/mol
# Density = 1.925287 g / cm^3
# Si number density = 19.296788 Si / 1000 Ang^3
#
#
#
# Elastic Constant Matrix: (Units=GPa)
#
#
# Indices 1 2 3 4 5 6 
#
# 1 74.9143 9.9872 -2.2193 0.0001 0.0001 0.0000
# 2 9.9872 80.4836 14.8743 0.0000 0.0000 0.0000
# 3 -2.2193 14.8743 36.5600 -0.0009 0.0000 0.0001
# 4 0.0001 0.0000 -0.0009 25.3683 0.0000 0.0000
# 5 0.0001 0.0000 0.0000 0.0000 20.8897 0.0000
# 6 0.0000 0.0000 0.0001 0.0000 0.0000 18.5697
#
#
#
# Elastic Compliance Matrix: (Units=1/GPa)
#
#
# Indices 1 2 3 4 5 6 
#
# 1 0.013664 -0.001999 0.001643 0.000000 0.000000 0.000000
# 2 -0.001999 0.013728 -0.005706 0.000000 0.000000 0.000000
# 3 0.001643 -0.005706 0.029774 0.000001 0.000000 0.000000
# 4 0.000000 0.000000 0.000001 0.039419 0.000000 0.000000
# 5 0.000000 0.000000 0.000000 0.000000 0.047870 0.000000
# 6 0.000000 0.000000 0.000000 0.000000 0.000000 0.053851
#
#
# Mechanical properties :
#
#
# Convention : Reuss Voigt Hill
#
# Bulk Modulus (GPa) = 22.20271 26.36025 24.28148
# Shear Modulus (GPa) = 22.17841 24.25325 23.21583
#
# Velocity S-wave (km/s) = 3.39386 3.54906 3.47233
# Velocity P-wave (km/s) = 5.18542 5.52128 5.35598
#
# Compressibility (1/GPa) = 0.04503955
#
# Stress axis : x y z
#
# Youngs Moduli (GPa) = 73.18620 72.84605 33.58673
#
# Poissons Ratio (x) = 0.14563 -0.05518
# Poissons Ratio (y) = 0.14631 0.19166
# Poissons Ratio (z) = -0.12023 0.41569
#
# Static dielectric constant tensor:
#      x y z
#    x 1.709970 0.000000 0.000000 
#    y 0.000000 1.729660 0.000000 
#    z 0.000000 0.000000 1.645990 
# 
# From -- ./inp_files/20294.got.cif
#   From: 2010.05.17/outbox.cif.g08.bks.cpg/sg71_11_cif.got.tgz:20294.got - 2010.06.03 16:22:01.
