data_PCOD9519228
_publ_section_title
;
Structure prediction by ZEFSAII (Michael W. Deem and Ramdas Pophale) SiO2 
 PCOD9519228
Probable space group: I M M M
;
_chemical_formula_sum "Si O2"
_cell_formula_units_Z 104
_cell_length_a 7.476184
_cell_length_b 26.589292
_cell_length_c 25.201097
_cell_angle_alpha 90.000000
_cell_angle_beta 90.000000
_cell_angle_gamma 90.000000
_cell_volume 5009.636342
_symmetry_space_group_name_H-M "I M M M"
_symmetry_group_IT_number 71
_symmetry_cell_setting 'orthorhombic'
loop_
_space_group_symop_operation_xyz
x,y,z
-x,-y,z
x,-y,-z
-x,y,-z
-x,-y,-z
x,y,-z
-x,y,z
x,-y,z
1/2+x,1/2+y,1/2+z
1/2-x,1/2-y,1/2+z
1/2+x,1/2-y,1/2-z
1/2-x,1/2+y,1/2-z
1/2-x,1/2-y,1/2-z
1/2+x,1/2+y,1/2-z
1/2-x,1/2+y,1/2+z
1/2+x,1/2-y,1/2+z
loop_
_atom_site_type_symbol
_atom_site_label
_atom_site_fract_x
_atom_site_fract_y
_atom_site_fract_z
Si Si1 0.784356 0.160230 0.382983
Si Si2 0.712892 0.735238 0.439714
Si Si3 0.286631 0.307030 0.766524
Si Si4 0.203620 0.944432 0.115068
Si Si5 0.800212 0.560410 0.500000
Si Si6 0.721028 0.341471 0.653286
Si Si7 0.282172 0.443082 0.061979
O O1 0.742296 0.206966 0.421851
O O2 0.717141 0.175565 0.323974
O O3 0.721756 0.105719 0.404526
O O4 0.000000 0.157331 0.380724
O O5 0.782102 0.726219 0.500000
O O6 0.500000 0.727060 0.442050
O O7 0.779089 0.698818 0.391769
O O8 0.500000 0.313882 0.769510
O O9 0.250000 0.250000 0.750000
O O10 0.220842 0.333319 0.713429
O O11 0.289760 0.896949 0.141214
O O12 0.000000 0.948158 0.134137
O O13 0.284918 0.000000 0.119636
O O14 0.200405 0.928314 0.053582
O O15 0.814793 0.500000 0.500000
O O16 0.000000 0.581830 0.500000
O O17 0.500000 0.340314 0.652177
O O18 0.500000 0.443016 0.063667
O O19 0.226340 0.500000 0.078650
O O20 0.231671 0.436722 0.000000
#
# Coordination Sequence:
#
# PCOD9519228 Si02
#       7
#    16  16  16  16   8  16  16
#     4  10  19  31  51  76  99 124 162 207 243 280
#     4  10  20  32  48  70  97 132 163 191 240 298
#     4  10  19  33  51  70  94 128 164 200 243 288
#     4   9  17  30  49  69  89 121 164 201 235 284
#     4   9  17  29  45  67  95 123 151 191 242 287
#     4   9  18  32  49  68  94 124 158 198 239 285
#     4   8  14  26  45  70 101 133 158 185 234 295
#
# _framework density 20.759989999999998
#
# number of rings (size 3 to 8) (size 9 to 14) (size 15 to 20)
#    0.000    2.692    1.538    1.154    1.077    1.846 
#    0.000    2.308    0.000    5.077    0.000    2.154 
#    0.000    1.231    0.000    0.000    0.000    0.000 
#
# Total GULP energy -289627.297241 kJ/mol
# GULP energy per Si atom -5569.755716 kJ/mol
# Density = 2.071274 g / cm^3
# Si number density = 20.759990 Si / 1000 Ang^3
#
#
#
# Elastic Constant Matrix: (Units=GPa)
#
#
# Indices 1 2 3 4 5 6 
#
# 1 62.1163 -0.6538 4.1810 0.0000 0.0000 0.0000
# 2 -0.6538 136.1779 66.8125 0.0000 0.0000 0.0000
# 3 4.1810 66.8125 136.8690 0.0000 0.0000 0.0000
# 4 0.0000 0.0000 0.0000 37.6833 0.0000 0.0000
# 5 0.0000 0.0000 0.0000 0.0000 1.1613 0.0000
# 6 0.0000 0.0000 0.0000 0.0000 0.0000 1.0311
#
#
#
# Elastic Compliance Matrix: (Units=1/GPa)
#
#
# Indices 1 2 3 4 5 6 
#
# 1 0.016150 0.000420 -0.000698 0.000000 0.000000 0.000000
# 2 0.000420 0.009667 -0.004732 0.000000 0.000000 0.000000
# 3 -0.000698 -0.004732 0.009637 0.000000 0.000000 0.000000
# 4 0.000000 0.000000 0.000000 0.026537 0.000000 0.000000
# 5 0.000000 0.000000 0.000000 0.000000 0.861086 -0.000001
# 6 0.000000 0.000000 0.000000 0.000000 -0.000001 0.969829
#
#
# Mechanical properties :
#
#
# Convention : Reuss Voigt Hill
#
# Bulk Modulus (GPa) = 39.31653 52.87138 46.09396
# Shear Modulus (GPa) = 2.61588 25.63005 14.12296
#
# Velocity S-wave (km/s) = 1.12374 3.51748 2.61108
# Velocity P-wave (km/s) = 4.54571 6.48229 5.59837
#
# Compressibility (1/GPa) = 0.02543460
#
# Stress axis : x y z
#
# Youngs Moduli (GPa) = 61.91844 103.44624 103.76267
#
# Poissons Ratio (x) = -0.04347 0.07248
# Poissons Ratio (y) = -0.02602 0.49097
# Poissons Ratio (z) = 0.04325 0.48948
#
# Static dielectric constant tensor:
#      x y z
#    x 1.844910 0.000000 0.000000 
#    y 0.000000 1.798780 0.000000 
#    z 0.000000 0.000000 1.741270 
# 
# From -- ./inp_files/57994.got.cif
#   From: 2010.05.17/outbox.cif.g08.bks.cpg/sg71_29_cif.got.tgz:57994.got - 2010.06.03 16:22:01.
