data_PCOD9519336
_publ_section_title
;
Structure prediction by ZEFSAII (Michael W. Deem and Ramdas Pophale) SiO2 
 PCOD9519336
Probable space group: I M M M
;
_chemical_formula_sum "Si O2"
_cell_formula_units_Z 116
_cell_length_a 8.305757
_cell_length_b 27.944304
_cell_length_c 27.681550
_cell_angle_alpha 90.000000
_cell_angle_beta 90.000000
_cell_angle_gamma 90.000000
_cell_volume 6424.848961
_symmetry_space_group_name_H-M "I M M M"
_symmetry_group_IT_number 71
_symmetry_cell_setting 'orthorhombic'
loop_
_space_group_symop_operation_xyz
x,y,z
-x,-y,z
x,-y,-z
-x,y,-z
-x,-y,-z
x,y,-z
-x,y,z
x,-y,z
1/2+x,1/2+y,1/2+z
1/2-x,1/2-y,1/2+z
1/2+x,1/2-y,1/2-z
1/2-x,1/2+y,1/2-z
1/2-x,1/2-y,1/2-z
1/2+x,1/2+y,1/2-z
1/2-x,1/2+y,1/2+z
1/2+x,1/2-y,1/2+z
loop_
_atom_site_type_symbol
_atom_site_label
_atom_site_fract_x
_atom_site_fract_y
_atom_site_fract_z
Si Si1 0.309182 0.747401 0.640696
Si Si2 0.304027 0.815111 0.554661
Si Si3 0.685964 0.317320 0.220373
Si Si4 0.687837 0.577284 0.182034
Si Si5 0.805467 0.447797 0.288318
Si Si6 0.795146 0.000000 0.500000
Si Si7 0.309919 0.075242 0.421828
Si Si8 0.687566 0.846741 0.822047
O O1 0.500000 0.754260 0.643686
O O2 0.248783 0.775981 0.593575
O O3 0.233832 0.773030 0.687474
O O4 0.270858 0.691308 0.643036
O O5 0.247966 0.806385 0.500000
O O6 0.500000 0.813436 0.554200
O O7 0.263354 0.869283 0.570245
O O8 0.500000 0.313439 0.236025
O O9 0.702936 0.365275 0.188365
O O10 0.791182 0.325903 0.267787
O O11 0.500000 0.565369 0.176615
O O12 0.751123 0.556888 0.232633
O O13 0.780958 0.562580 0.134018
O O14 0.754462 0.500000 0.306713
O O15 0.746623 0.400952 0.317216
O O16 0.000000 0.445682 0.288748
O O17 0.785567 0.041440 0.542125
O O18 0.500000 0.069533 0.433862
O O19 0.500000 0.848662 0.834332
#
# Coordination Sequence:
#
# PCOD9519336 Si02
#       8
#    16  16  16  16  16   4  16  16
#     4  11  20  31  50  74  99 129 162 200 250 299
#     4   9  18  33  53  72  94 125 165 211 254 299
#     4  10  19  32  49  70  99 131 165 201 242 296
#     4  10  21  34  49  71  98 128 161 203 255 305
#     4   9  19  36  55  73  94 128 169 202 234 282
#     4  12  25  36  57  78  89 120 177 238 271 296
#     4  11  20  35  53  71  92 120 167 220 264 301
#     4  10  20  33  50  73 102 129 160 200 242 292
#
# _framework density 18.054898000000001
#
# number of rings (size 3 to 8) (size 9 to 14) (size 15 to 20)
#    0.000    1.931    2.069    2.690    0.966    1.931 
#    0.000    0.690    0.000    3.310    0.000    0.000 
#    0.000    0.552    0.000    6.897    0.000    0.000 
#
# Total GULP energy -323301.796972 kJ/mol
# GULP energy per Si atom -5574.168913 kJ/mol
# Density = 1.801380 g / cm^3
# Si number density = 18.054898 Si / 1000 Ang^3
#
#
#
# Elastic Constant Matrix: (Units=GPa)
#
#
# Indices 1 2 3 4 5 6 
#
# 1 16.6404 8.1281 -1.4081 0.0000 0.0000 0.0000
# 2 8.1281 139.8905 40.9629 0.0000 0.0000 0.0000
# 3 -1.4081 40.9629 47.9239 0.0000 0.0000 0.0000
# 4 0.0000 0.0000 0.0000 -13.5997 0.0000 0.0000
# 5 0.0000 0.0000 0.0000 0.0000 -10.3547 0.0000
# 6 0.0000 0.0000 0.0000 0.0000 0.0000 -68.0355
#
#
#
# Elastic Compliance Matrix: (Units=1/GPa)
#
#
# Indices 1 2 3 4 5 6 
#
# 1 0.063417 -0.005643 0.006686 0.000000 0.000000 0.000000
# 2 -0.005643 0.010037 -0.008745 0.000000 0.000000 0.000000
# 3 0.006686 -0.008745 0.028538 0.000000 0.000000 0.000000
# 4 0.000000 0.000000 0.000000 -0.073531 0.000000 0.000000
# 5 0.000000 0.000000 0.000000 0.000000 -0.096574 0.000000
# 6 0.000000 0.000000 0.000000 0.000000 0.000000 -0.014698
#
#
# Mechanical properties :
#
#
# Convention : Reuss Voigt Hill
#
# Bulk Modulus (GPa) = 11.54880 33.31339 22.43109
# Shear Modulus (GPa) = -129.71305 -7.94654 -68.82979
#
# Velocity S-wave (km/s) = -8.48526 -2.10021 -6.18104
# Velocity P-wave (km/s) = 9.46516 3.55106 6.20400
#
# Compressibility (1/GPa) = 0.08658910
#
# Stress axis : x y z
#
# Youngs Moduli (GPa) = 15.76868 99.63142 35.04151
#
# Poissons Ratio (x) = 0.56218 -0.23430
# Poissons Ratio (y) = 0.08898 0.30643
# Poissons Ratio (z) = -0.10544 0.87127
#
# Static dielectric constant tensor:
#      x y z
#    x 1.647840 0.000000 0.000000 
#    y 0.000000 1.666530 0.000000 
#    z 0.000000 0.000000 1.589810 
# 
# From -- ./inp_files/58263.got.cif
#   From: 2010.05.17/outbox.cif.g08.bks.cpg/sg71_30_cif.got.tgz:58263.got - 2010.06.03 16:22:01.
