data_PCOD9519712
_publ_section_title
;
Structure prediction by ZEFSAII (Michael W. Deem and Ramdas Pophale) SiO2 
 PCOD9519712
Probable space group: I M M M
;
_chemical_formula_sum "Si O2"
_cell_formula_units_Z 88
_cell_length_a 17.949343
_cell_length_b 7.477531
_cell_length_c 30.680362
_cell_angle_alpha 90.000000
_cell_angle_beta 90.000000
_cell_angle_gamma 90.000000
_cell_volume 4117.819051
_symmetry_space_group_name_H-M "I M M M"
_symmetry_group_IT_number 71
_symmetry_cell_setting 'orthorhombic'
loop_
_space_group_symop_operation_xyz
x,y,z
-x,-y,z
x,-y,-z
-x,y,-z
-x,-y,-z
x,y,-z
-x,y,z
x,-y,z
1/2+x,1/2+y,1/2+z
1/2-x,1/2-y,1/2+z
1/2+x,1/2-y,1/2-z
1/2-x,1/2+y,1/2-z
1/2-x,1/2-y,1/2-z
1/2+x,1/2+y,1/2-z
1/2-x,1/2+y,1/2+z
1/2+x,1/2-y,1/2+z
loop_
_atom_site_type_symbol
_atom_site_label
_atom_site_fract_x
_atom_site_fract_y
_atom_site_fract_z
Si Si1 0.208399 0.780697 0.049979
Si Si2 0.086321 0.214506 0.213479
Si Si3 0.914575 0.287584 0.308563
Si Si4 0.500000 0.285046 0.050229
Si Si5 0.413753 0.718055 0.381629
Si Si6 0.649284 0.209010 0.897032
O O1 0.138114 0.724078 0.078960
O O2 0.282723 0.717645 0.074764
O O3 0.208938 0.000000 0.049025
O O4 0.205984 0.721706 0.000000
O O5 0.119007 0.263679 0.260348
O O6 0.115892 0.274166 0.166369
O O7 0.000000 0.277087 0.214839
O O8 0.085493 0.000000 0.212425
O O9 0.920814 0.500000 0.315448
O O10 0.867723 0.214367 0.349109
O O11 0.000000 0.215675 0.309341
O O12 0.500000 0.500000 0.050556
O O13 0.426637 0.222642 0.075511
O O14 0.500000 0.224458 0.000000
O O15 0.500000 0.773070 0.385799
O O16 0.413653 0.500000 0.381841
O O17 0.667662 0.000000 0.890691
#
# Coordination Sequence:
#
# PCOD9519712 Si02
#       6
#    16  16  16   8  16  16
#     4   9  17  28  45  69  94 125 164 204 246 289
#     4   8  14  25  43  66  92 125 159 189 232 285
#     4   9  16  27  43  65  92 122 158 198 239 277
#     4  11  23  35  49  71  97 127 167 209 246 287
#     4   8  14  26  44  68  98 127 158 197 242 293
#     4  10  19  33  50  70  97 129 166 204 245 289
#
# _framework density 21.370535
#
# number of rings (size 3 to 8) (size 9 to 14) (size 15 to 20)
#    0.000    3.000    0.909    1.909    0.000    2.545 
#    0.000    2.727    0.000    1.091    0.000    0.000 
#    0.000    0.000    0.000   10.909    0.000   10.909 
#
# Total GULP energy -245352.777452 kJ/mol
# GULP energy per Si atom -5576.199488 kJ/mol
# Density = 2.132189 g / cm^3
# Si number density = 21.370535 Si / 1000 Ang^3
#
#
#
# Elastic Constant Matrix: (Units=GPa)
#
#
# Indices 1 2 3 4 5 6 
#
# 1 93.9986 -5.0741 105.5539 0.0000 0.0000 0.0000
# 2 -5.0741 58.0187 4.7872 0.0000 0.0000 0.0000
# 3 105.5539 4.7872 254.3863 0.0000 0.0000 0.0000
# 4 0.0000 0.0000 0.0000 7.1350 0.0000 0.0000
# 5 0.0000 0.0000 0.0000 0.0000 23.2559 0.0000
# 6 0.0000 0.0000 0.0000 0.0000 0.0000 23.7741
#
#
#
# Elastic Compliance Matrix: (Units=1/GPa)
#
#
# Indices 1 2 3 4 5 6 
#
# 1 0.020268 0.002470 -0.008456 0.000000 0.000000 0.000000
# 2 0.002470 0.017564 -0.001356 0.000000 0.000000 0.000000
# 3 -0.008456 -0.001356 0.007465 0.000000 0.000000 0.000000
# 4 0.000000 0.000000 0.000000 0.140155 0.000000 0.000000
# 5 0.000000 0.000000 0.000000 0.000000 0.043000 0.000000
# 6 0.000000 0.000000 0.000000 0.000000 0.000000 0.042063
#
#
# Mechanical properties :
#
#
# Convention : Reuss Voigt Hill
#
# Bulk Modulus (GPa) = 32.66518 68.54861 50.60689
# Shear Modulus (GPa) = 16.92611 30.90877 23.91744
#
# Velocity S-wave (km/s) = 2.81736 3.80719 3.34904
# Velocity P-wave (km/s) = 5.08937 7.17440 6.21988
#
# Compressibility (1/GPa) = 0.03061364
#
# Stress axis : x y z
#
# Youngs Moduli (GPa) = 49.34002 56.93555 133.95280
#
# Poissons Ratio (x) = -0.14065 1.13273
# Poissons Ratio (y) = -0.12188 0.18158
# Poissons Ratio (z) = 0.41723 0.07718
#
# Static dielectric constant tensor:
#      x y z
#    x 1.756610 0.000000 0.000000 
#    y 0.000000 1.834460 0.000000 
#    z 0.000000 0.000000 1.792010 
# 
# From -- ./inp_files/70359.got.cif
#   From: 2010.05.17/outbox.cif.g08.bks.cpg/sg71_36_cif.got.tgz:70359.got - 2010.06.03 16:22:01.
