data_PCOD9519161
_publ_section_title
;
Structure prediction by ZEFSAII (Michael W. Deem and Ramdas Pophale) SiO2 
 PCOD9519161
Probable space group: I M M M
;
_chemical_formula_sum "Si O2"
_cell_formula_units_Z 80
_cell_length_a 16.891952
_cell_length_b 7.482771
_cell_length_c 28.202109
_cell_angle_alpha 90.000000
_cell_angle_beta 90.000000
_cell_angle_gamma 90.000000
_cell_volume 3564.707336
_symmetry_space_group_name_H-M "I M M M"
_symmetry_group_IT_number 71
_symmetry_cell_setting 'orthorhombic'
loop_
_space_group_symop_operation_xyz
x,y,z
-x,-y,z
x,-y,-z
-x,y,-z
-x,-y,-z
x,y,-z
-x,y,z
x,-y,z
1/2+x,1/2+y,1/2+z
1/2-x,1/2-y,1/2+z
1/2+x,1/2-y,1/2-z
1/2-x,1/2+y,1/2-z
1/2-x,1/2-y,1/2-z
1/2+x,1/2+y,1/2-z
1/2-x,1/2+y,1/2+z
1/2+x,1/2-y,1/2+z
loop_
_atom_site_type_symbol
_atom_site_label
_atom_site_fract_x
_atom_site_fract_y
_atom_site_fract_z
Si Si1 0.910724 0.713495 0.000000
Si Si2 0.663835 0.719472 0.799314
Si Si3 0.824728 0.211299 0.098268
Si Si4 0.143862 0.797457 0.400941
Si Si5 0.851508 0.794873 0.197913
Si Si6 0.593587 0.295008 0.000000
O O1 0.867659 0.767419 0.048408
O O2 0.912682 0.500000 0.000000
O O3 0.000000 0.783513 0.000000
O O4 0.666781 0.500000 0.799359
O O5 0.624667 0.777160 0.848848
O O6 0.755007 0.785428 0.800689
O O7 0.626021 0.780370 0.749542
O O8 0.739112 0.301510 0.096875
O O9 0.870618 0.278483 0.145563
O O10 0.810862 0.000000 0.105688
O O11 0.118412 0.709944 0.450189
O O12 0.111248 0.000000 0.401593
O O13 0.878798 0.000000 0.198441
O O14 0.627591 0.500000 0.000000
O O15 0.500000 0.305967 0.000000
#
# Coordination Sequence:
#
# PCOD9519161 Si02
#       6
#     8  16  16  16  16   8
#     4  11  24  39  52  66  88 119 154 191 230 278
#     4   8  13  22  38  62  91 120 149 181 219 262
#     4  10  19  31  50  73  95 118 146 185 231 278
#     4   9  16  27  46  69  94 125 159 194 227 264
#     4   8  14  24  39  63  93 118 142 177 221 267
#     4   9  17  28  42  62  88 119 156 195 230 260
#
# _framework density 22.442236000000001
#
# number of rings (size 3 to 8) (size 9 to 14) (size 15 to 20)
#    0.000    3.000    0.000    1.500    0.000    2.400 
#    0.000    0.000    0.000    2.400    0.000    5.600 
#    0.000    0.000    0.000    0.000    0.000    0.000 
#
# Total GULP energy -222744.135375 kJ/mol
# GULP energy per Si atom -5568.603384 kJ/mol
# Density = 2.239116 g / cm^3
# Si number density = 22.442236 Si / 1000 Ang^3
#
#
#
# Elastic Constant Matrix: (Units=GPa)
#
#
# Indices 1 2 3 4 5 6 
#
# 1 16.2228 -2.9740 36.8837 0.0000 0.0000 0.0000
# 2 -2.9740 81.7914 2.6311 0.0000 0.0000 0.0000
# 3 36.8837 2.6311 306.1606 0.0000 0.0000 0.0000
# 4 0.0000 0.0000 0.0000 39.7902 0.0000 0.0000
# 5 0.0000 0.0000 0.0000 0.0000 -16.6246 0.0000
# 6 0.0000 0.0000 0.0000 0.0000 0.0000 28.9522
#
#
#
# Elastic Compliance Matrix: (Units=1/GPa)
#
#
# Indices 1 2 3 4 5 6 
#
# 1 0.085860 0.003456 -0.010373 0.000000 0.000000 0.000000
# 2 0.003456 0.012369 -0.000523 0.000000 0.000000 0.000000
# 3 -0.010373 -0.000523 0.004520 0.000000 0.000000 0.000000
# 4 0.000000 0.000000 0.000000 0.025132 0.000000 0.000000
# 5 0.000000 0.000000 0.000000 0.000000 -0.060152 0.000000
# 6 0.000000 0.000000 0.000000 0.000000 0.000000 0.034540
#
#
# Mechanical properties :
#
#
# Convention : Reuss Voigt Hill
#
# Bulk Modulus (GPa) = 11.38070 53.02850 32.20460
# Shear Modulus (GPa) = 34.14400 34.93249 34.53825
#
# Velocity S-wave (km/s) = 3.90477 3.94960 3.92724
# Velocity P-wave (km/s) = 5.04100 6.66928 5.91147
#
# Compressibility (1/GPa) = 0.08786803
#
# Stress axis : x y z
#
# Youngs Moduli (GPa) = 11.64692 80.84938 221.21710
#
# Poissons Ratio (x) = -0.27938 2.29476
# Poissons Ratio (y) = -0.04025 0.11561
# Poissons Ratio (z) = 0.12082 0.04225
#
# Static dielectric constant tensor:
#      x y z
#    x 1.751210 0.000000 0.000000 
#    y 0.000000 1.890700 0.000000 
#    z 0.000000 0.000000 1.951080 
# 
# From -- ./inp_files/66289.got.cif
#   From: 2010.05.17/outbox.cif.g08.bks.cpg/sg71_34_cif.got.tgz:66289.got - 2010.06.03 16:22:01.
