data_PCOD9519379
_publ_section_title
;
Structure prediction by ZEFSAII (Michael W. Deem and Ramdas Pophale) SiO2 
 PCOD9519379
Probable space group: I M M M
;
_chemical_formula_sum "Si O2"
_cell_formula_units_Z 104
_cell_length_a 7.406395
_cell_length_b 23.974383
_cell_length_c 25.120413
_cell_angle_alpha 90.000000
_cell_angle_beta 90.000000
_cell_angle_gamma 90.000000
_cell_volume 4460.474743
_symmetry_space_group_name_H-M "I M M M"
_symmetry_group_IT_number 71
_symmetry_cell_setting 'orthorhombic'
loop_
_space_group_symop_operation_xyz
x,y,z
-x,-y,z
x,-y,-z
-x,y,-z
-x,-y,-z
x,y,-z
-x,y,z
x,-y,z
1/2+x,1/2+y,1/2+z
1/2-x,1/2-y,1/2+z
1/2+x,1/2-y,1/2-z
1/2-x,1/2+y,1/2-z
1/2-x,1/2-y,1/2-z
1/2+x,1/2+y,1/2-z
1/2-x,1/2+y,1/2+z
1/2+x,1/2-y,1/2+z
loop_
_atom_site_type_symbol
_atom_site_label
_atom_site_fract_x
_atom_site_fract_y
_atom_site_fract_z
Si Si1 0.203965 0.599081 0.831398
Si Si2 0.214698 0.115053 0.111608
Si Si3 0.217396 0.561475 0.280744
Si Si4 0.785849 0.223591 0.306349
Si Si5 0.704188 0.731396 0.583662
Si Si6 0.220855 0.355844 0.058932
Si Si7 0.280111 0.500000 0.438148
O O1 0.286626 0.569337 0.779751
O O2 0.200629 0.662898 0.811506
O O3 0.283271 0.606916 0.890884
O O4 0.000000 0.576922 0.838191
O O5 0.237000 0.108228 0.175526
O O6 0.288641 0.169839 0.081229
O O7 0.000000 0.117525 0.102316
O O8 0.285786 0.057015 0.088388
O O9 0.276430 0.500000 0.299884
O O10 0.000000 0.561999 0.277114
O O11 0.750000 0.250000 0.250000
O O12 0.701885 0.260173 0.352867
O O13 0.000000 0.218965 0.315442
O O14 0.500000 0.729386 0.562217
O O15 0.781911 0.790819 0.564127
O O16 0.000000 0.354166 0.063052
O O17 0.268179 0.376134 0.000000
O O18 0.500000 0.500000 0.433433
O O19 0.235478 0.500000 0.500000
#
# Coordination Sequence:
#
# PCOD9519379 Si02
#       7
#    16  16  16  16  16  16   8
#     4   9  18  32  49  71  98 127 163 204 246 298
#     4  10  19  32  50  72  98 128 164 206 247 288
#     4  10  20  33  50  71  97 131 167 206 252 298
#     4  11  20  30  45  67  96 127 157 193 242 296
#     4   9  18  30  46  70  97 126 161 198 238 289
#     4   8  14  27  48  72  97 126 161 199 240 291
#     4   9  18  32  49  71  99 129 164 209 256 292
#
# _framework density 23.315905000000001
#
# number of rings (size 3 to 8) (size 9 to 14) (size 15 to 20)
#    0.000    2.538    0.769    3.231    0.000    4.308 
#    0.000    3.077    0.000    8.769    0.000    7.538 
#    0.000    0.000    0.000    6.923    0.000    7.692 
#
# Total GULP energy -289953.641850 kJ/mol
# GULP energy per Si atom -5576.031574 kJ/mol
# Density = 2.326284 g / cm^3
# Si number density = 23.315905 Si / 1000 Ang^3
#
#
#
# Elastic Constant Matrix: (Units=GPa)
#
#
# Indices 1 2 3 4 5 6 
#
# 1 99.5860 -1.0487 -5.2613 0.0000 0.0000 0.0000
# 2 -1.0487 43.9052 -10.0428 0.0000 0.0000 0.0000
# 3 -5.2613 -10.0428 123.3038 0.0000 0.0000 0.0000
# 4 0.0000 0.0000 0.0000 22.3579 0.0000 0.0000
# 5 0.0000 0.0000 0.0000 0.0000 6.3491 0.0000
# 6 0.0000 0.0000 0.0000 0.0000 0.0000 0.3036
#
#
#
# Elastic Compliance Matrix: (Units=1/GPa)
#
#
# Indices 1 2 3 4 5 6 
#
# 1 0.010069 0.000345 0.000458 0.000000 0.000000 0.000000
# 2 0.000345 0.023221 0.001906 0.000000 0.000000 0.000000
# 3 0.000458 0.001906 0.008285 0.000000 0.000000 0.000000
# 4 0.000000 0.000000 0.000000 0.044727 0.000000 0.000000
# 5 0.000000 0.000000 0.000000 0.000000 0.157502 0.000000
# 6 0.000000 0.000000 0.000000 0.000000 0.000000 3.293457
#
#
# Mechanical properties :
#
#
# Convention : Reuss Voigt Hill
#
# Bulk Modulus (GPa) = 21.27990 26.00994 23.64492
# Shear Modulus (GPa) = 1.40944 24.67866 13.04405
#
# Velocity S-wave (km/s) = 0.77834 3.25691 2.36783
# Velocity P-wave (km/s) = 3.15505 5.03219 4.19984
#
# Compressibility (1/GPa) = 0.04699271
#
# Stress axis : x y z
#
# Youngs Moduli (GPa) = 99.31083 43.06532 120.70269
#
# Poissons Ratio (x) = -0.01487 -0.05525
# Poissons Ratio (y) = -0.03428 -0.23006
# Poissons Ratio (z) = -0.04546 -0.08208
#
# Static dielectric constant tensor:
#      x y z
#    x 1.951450 0.000000 0.000000 
#    y 0.000000 1.907730 0.000000 
#    z 0.000000 0.000000 1.882410 
# 
# From -- ./inp_files/58007.got.cif
#   From: 2010.05.17/outbox.cif.g08.bks.cpg/sg71_30_cif.got.tgz:58007.got - 2010.06.03 16:22:01.
