data_PCOD9519441
_publ_section_title
;
Structure prediction by ZEFSAII (Michael W. Deem and Ramdas Pophale) SiO2 
 PCOD9519441
Probable space group: I M M M
;
_chemical_formula_sum "Si O2"
_cell_formula_units_Z 88
_cell_length_a 8.985288
_cell_length_b 19.633697
_cell_length_c 28.410544
_cell_angle_alpha 90.000000
_cell_angle_beta 90.000000
_cell_angle_gamma 90.000000
_cell_volume 5012.029700
_symmetry_space_group_name_H-M "I M M M"
_symmetry_group_IT_number 71
_symmetry_cell_setting 'orthorhombic'
loop_
_space_group_symop_operation_xyz
x,y,z
-x,-y,z
x,-y,-z
-x,y,-z
-x,-y,-z
x,y,-z
-x,y,z
x,-y,z
1/2+x,1/2+y,1/2+z
1/2-x,1/2-y,1/2+z
1/2+x,1/2-y,1/2-z
1/2-x,1/2+y,1/2-z
1/2-x,1/2-y,1/2-z
1/2+x,1/2+y,1/2-z
1/2-x,1/2+y,1/2+z
1/2+x,1/2-y,1/2+z
loop_
_atom_site_type_symbol
_atom_site_label
_atom_site_fract_x
_atom_site_fract_y
_atom_site_fract_z
Si Si1 0.170784 0.917246 0.780925
Si Si2 0.320374 0.800011 0.054598
Si Si3 0.820887 0.579676 0.816552
Si Si4 0.180014 0.335950 0.908598
Si Si5 0.180992 0.422373 0.000000
Si Si6 0.179037 0.578526 0.621647
O O1 0.250772 0.896750 0.732666
O O2 0.252761 0.896993 0.828879
O O3 0.000000 0.894858 0.781393
O O4 0.173820 0.000000 0.780787
O O5 0.500000 0.794565 0.055603
O O6 0.250326 0.737580 0.083103
O O7 0.278912 0.870746 0.079767
O O8 0.272729 0.797265 0.000000
O O9 0.779892 0.500000 0.824834
O O10 0.776034 0.626348 0.860474
O O11 0.000000 0.581636 0.812714
O O12 0.000000 0.330720 0.908980
O O13 0.225753 0.382340 0.953150
O O14 0.233934 0.500000 0.000000
O O15 0.000000 0.424148 0.000000
O O16 0.225299 0.500000 0.613314
O O17 0.000000 0.578934 0.625863
#
# Coordination Sequence:
#
# PCOD9519441 Si02
#       6
#    16  16  16  16   8  16
#     4   9  17  30  50  77 106 133 162 204 259 308
#     4  10  21  36  53  74 103 136 166 205 259 310
#     4   9  17  30  50  76 104 135 173 213 249 290
#     4  10  19  32  51  75 102 136 174 210 250 297
#     4   9  16  28  49  75 100 129 172 218 249 281
#     4   9  18  34  56  78  99 128 168 210 251 302
#
# _framework density 17.557758
#
# number of rings (size 3 to 8) (size 9 to 14) (size 15 to 20)
#    0.000    2.636    0.909    1.091    0.000    6.182 
#    0.000    2.727    0.000    2.182    0.000    3.818 
#    0.000    0.000    0.000    0.000    0.000    0.000 
#
# Total GULP energy -245309.903670 kJ/mol
# GULP energy per Si atom -5575.225083 kJ/mol
# Density = 1.751780 g / cm^3
# Si number density = 17.557758 Si / 1000 Ang^3
#
#
#
# Elastic Constant Matrix: (Units=GPa)
#
#
# Indices 1 2 3 4 5 6 
#
# 1 12.6180 23.8024 27.3619 0.0000 0.0000 0.0000
# 2 23.8024 93.7162 57.7049 0.0000 0.0000 0.0000
# 3 27.3619 57.7049 108.2986 0.0000 0.0000 0.0000
# 4 0.0000 0.0000 0.0000 -7.3296 0.0000 0.0000
# 5 0.0000 0.0000 0.0000 0.0000 15.0289 0.0000
# 6 0.0000 0.0000 0.0000 0.0000 0.0000 22.7460
#
#
#
# Elastic Compliance Matrix: (Units=1/GPa)
#
#
# Indices 1 2 3 4 5 6 
#
# 1 0.229672 -0.033640 -0.040103 0.000000 0.000000 0.000000
# 2 -0.033640 0.020808 -0.002588 0.000000 0.000000 0.000000
# 3 -0.040103 -0.002588 0.020745 0.000000 0.000000 0.000000
# 4 0.000000 0.000000 0.000000 -0.136433 0.000000 0.000000
# 5 0.000000 0.000000 0.000000 0.000000 0.066539 0.000000
# 6 0.000000 0.000000 0.000000 0.000000 0.000000 0.043964
#
#
# Mechanical properties :
#
#
# Convention : Reuss Voigt Hill
#
# Bulk Modulus (GPa) = 8.43434 48.04125 28.23779
# Shear Modulus (GPa) = 11.42919 13.13995 12.28457
#
# Velocity S-wave (km/s) = 2.55414 2.73863 2.64799
# Velocity P-wave (km/s) = 3.67591 6.11730 5.04647
#
# Compressibility (1/GPa) = 0.11856297
#
# Stress axis : x y z
#
# Youngs Moduli (GPa) = 4.35404 48.05832 48.20511
#
# Poissons Ratio (x) = 1.61669 1.93315
# Poissons Ratio (y) = 0.14647 0.12475
# Poissons Ratio (z) = 0.17461 0.12437
#
# Static dielectric constant tensor:
#      x y z
#    x 1.593530 0.000000 0.000000 
#    y 0.000000 1.590070 0.000000 
#    z 0.000000 0.000000 1.581940 
# 
# From -- ./inp_files/10452.got.cif
#   From: 2010.05.17/outbox.cif.g08.bks.cpg/sg71_6_cif.got.tgz:10452.got - 2010.06.03 16:22:01.
