data_PCOD9519578
_publ_section_title
;
Structure prediction by ZEFSAII (Michael W. Deem and Ramdas Pophale) SiO2 
 PCOD9519578
Probable space group: I M M M
;
_chemical_formula_sum "Si O2"
_cell_formula_units_Z 104
_cell_length_a 8.129151
_cell_length_b 31.181293
_cell_length_c 21.345872
_cell_angle_alpha 90.000000
_cell_angle_beta 90.000000
_cell_angle_gamma 90.000000
_cell_volume 5410.696971
_symmetry_space_group_name_H-M "I M M M"
_symmetry_group_IT_number 71
_symmetry_cell_setting 'orthorhombic'
loop_
_space_group_symop_operation_xyz
x,y,z
-x,-y,z
x,-y,-z
-x,y,-z
-x,-y,-z
x,y,-z
-x,y,z
x,-y,z
1/2+x,1/2+y,1/2+z
1/2-x,1/2-y,1/2+z
1/2+x,1/2-y,1/2-z
1/2-x,1/2+y,1/2-z
1/2-x,1/2-y,1/2-z
1/2+x,1/2+y,1/2-z
1/2-x,1/2+y,1/2+z
1/2+x,1/2-y,1/2+z
loop_
_atom_site_type_symbol
_atom_site_label
_atom_site_fract_x
_atom_site_fract_y
_atom_site_fract_z
Si Si1 0.800313 0.131923 0.860862
Si Si2 0.194477 0.450859 0.137917
Si Si3 0.313354 0.448203 0.000000
Si Si4 0.301948 0.630976 0.782781
Si Si5 0.302245 0.782296 0.929164
Si Si6 0.300730 0.725176 0.186323
Si Si7 0.799542 0.046617 0.072572
O O1 0.745182 0.134520 0.789118
O O2 0.739331 0.170601 0.903595
O O3 0.742277 0.086841 0.888486
O O4 0.000000 0.133043 0.861664
O O5 0.261906 0.500000 0.147530
O O6 0.232331 0.436957 0.066212
O O7 0.254655 0.413403 0.183883
O O8 0.000000 0.453787 0.145020
O O9 0.314683 0.500000 0.000000
O O10 0.500000 0.432145 0.000000
O O11 0.500000 0.631756 0.782245
O O12 0.245446 0.675589 0.814022
O O13 0.500000 0.778023 0.931367
O O14 0.240433 0.749938 0.875470
O O15 0.239429 0.775800 0.000000
O O16 0.500000 0.725499 0.185781
O O17 0.250000 0.750000 0.250000
O O18 0.000000 0.046907 0.073870
O O19 0.745511 0.000000 0.096057
O O20 0.751715 0.050752 0.000000
#
# Coordination Sequence:
#
# PCOD9519578 Si02
#       7
#    16  16   8  16  16  16  16
#     4  10  19  32  53  79 104 135 182 230 272 319
#     4  10  21  37  57  82 114 150 187 227 275 335
#     4   9  17  33  59  85 109 143 185 229 279 329
#     4  10  21  35  53  81 110 140 185 232 277 331
#     4  10  21  36  55  79 108 143 180 220 275 339
#     4  10  20  37  58  80 108 143 184 228 280 338
#     4   8  14  25  42  67  99 132 166 210 266 317
#
# _framework density 19.221183
#
# number of rings (size 3 to 8) (size 9 to 14) (size 15 to 20)
#    0.000    2.385    1.538    1.615    0.000    4.615 
#    1.385    1.538    0.000    0.462    0.000    2.154 
#    0.000    0.000    0.000    0.000    0.000    0.000 
#
# Total GULP energy -289935.546439 kJ/mol
# GULP energy per Si atom -5575.683585 kJ/mol
# Density = 1.917744 g / cm^3
# Si number density = 19.221183 Si / 1000 Ang^3
#
#
#
# Elastic Constant Matrix: (Units=GPa)
#
#
# Indices 1 2 3 4 5 6 
#
# 1 10.7958 10.8258 10.9047 0.0000 0.0000 0.0000
# 2 10.8258 159.4503 91.1987 0.0000 0.0000 0.0000
# 3 10.9047 91.1987 151.2642 0.0000 0.0000 0.0000
# 4 0.0000 0.0000 0.0000 44.0440 0.0000 0.0000
# 5 0.0000 0.0000 0.0000 0.0000 15.6869 0.0000
# 6 0.0000 0.0000 0.0000 0.0000 0.0000 21.7840
#
#
#
# Elastic Compliance Matrix: (Units=1/GPa)
#
#
# Indices 1 2 3 4 5 6 
#
# 1 0.101660 -0.004137 -0.004834 0.000000 0.000000 0.000000
# 2 -0.004137 0.009741 -0.005575 0.000000 0.000000 0.000000
# 3 -0.004834 -0.005575 0.010320 0.000000 0.000000 0.000000
# 4 0.000000 0.000000 0.000000 0.022705 0.000000 0.000000
# 5 0.000000 0.000000 0.000000 0.000000 0.063747 0.000000
# 6 0.000000 0.000000 0.000000 0.000000 0.000000 0.045905
#
#
# Mechanical properties :
#
#
# Convention : Reuss Voigt Hill
#
# Bulk Modulus (GPa) = 10.79574 60.81874 35.80724
# Shear Modulus (GPa) = 15.92117 30.20839 23.06478
#
# Velocity S-wave (km/s) = 2.88117 3.96867 3.46781
# Velocity P-wave (km/s) = 4.08619 7.26021 5.89099
#
# Compressibility (1/GPa) = 0.09262915
#
# Stress axis : x y z
#
# Youngs Moduli (GPa) = 9.83671 102.66016 96.89479
#
# Poissons Ratio (x) = 0.42471 0.46843
# Poissons Ratio (y) = 0.04069 0.54015
# Poissons Ratio (z) = 0.04756 0.57229
#
# Static dielectric constant tensor:
#      x y z
#    x 1.692760 0.000000 0.000000 
#    y 0.000000 1.674450 0.000000 
#    z 0.000000 0.000000 1.666690 
# 
# From -- ./inp_files/51167.got.cif
#   From: 2010.05.17/outbox.cif.g08.bks.cpg/sg71_26_cif.got.tgz:51167.got - 2010.06.03 16:22:01.
