data_PCOD9519965
_publ_section_title
;
Structure prediction by ZEFSAII (Michael W. Deem and Ramdas Pophale) SiO2 
 PCOD9519965
Probable space group: I M M M
;
_chemical_formula_sum "Si O2"
_cell_formula_units_Z 56
_cell_length_a 8.681240
_cell_length_b 34.038681
_cell_length_c 10.424013
_cell_angle_alpha 90.000000
_cell_angle_beta 90.000000
_cell_angle_gamma 90.000000
_cell_volume 3080.274567
_symmetry_space_group_name_H-M "I M M M"
_symmetry_group_IT_number 71
_symmetry_cell_setting 'orthorhombic'
loop_
_space_group_symop_operation_xyz
x,y,z
-x,-y,z
x,-y,-z
-x,y,-z
-x,-y,-z
x,y,-z
-x,y,z
x,-y,z
1/2+x,1/2+y,1/2+z
1/2-x,1/2-y,1/2+z
1/2+x,1/2-y,1/2-z
1/2-x,1/2+y,1/2-z
1/2-x,1/2-y,1/2-z
1/2+x,1/2+y,1/2-z
1/2-x,1/2+y,1/2+z
1/2+x,1/2-y,1/2+z
loop_
_atom_site_type_symbol
_atom_site_label
_atom_site_fract_x
_atom_site_fract_y
_atom_site_fract_z
Si Si1 0.316554 0.836629 0.753115
Si Si2 0.677972 0.000000 0.155832
Si Si3 0.315425 0.291330 0.500000
Si Si4 0.682680 0.416671 0.346390
Si Si5 0.816051 0.796500 0.500000
O O1 0.500000 0.832042 0.746250
O O2 0.251296 0.812771 0.874773
O O3 0.271603 0.881914 0.775851
O O4 0.239012 0.819637 0.625733
O O5 0.761552 0.959847 0.195007
O O6 0.500000 0.000000 0.196264
O O7 0.680774 0.000000 0.000000
O O8 0.500000 0.294194 0.500000
O O9 0.262035 0.246302 0.500000
O O10 0.711898 0.412921 0.500000
O O11 0.500000 0.412486 0.326957
O O12 0.000000 0.792089 0.500000
#
# Coordination Sequence:
#
# PCOD9519965 Si02
#       5
#    16   8   8  16   8
#     4  12  24  40  62  89 120 156 198 245 295 350
#     4   9  17  29  49  80 117 152 191 240 292 341
#     4  12  24  42  64  89 118 153 198 246 296 350
#     4  10  19  33  55  84 118 154 195 240 291 346
#     4  12  26  44  62  85 118 157 198 244 298 354
#
# _framework density 18.180199000000002
#
# number of rings (size 3 to 8) (size 9 to 14) (size 15 to 20)
#    0.000    1.000    1.429    7.286    0.000    2.857 
#    0.000    0.000    0.000    0.857    0.000    6.000 
#    0.000    0.000    0.000    0.000    0.000    0.000 
#
# Total GULP energy -156599.158170 kJ/mol
# GULP energy per Si atom -5592.827077 kJ/mol
# Density = 1.813882 g / cm^3
# Si number density = 18.180199 Si / 1000 Ang^3
#
#
#
# Elastic Constant Matrix: (Units=GPa)
#
#
# Indices 1 2 3 4 5 6 
#
# 1 76.6280 6.8523 13.3982 -0.0024 0.0000 -0.0001
# 2 6.8523 110.9512 29.6967 -0.0022 -0.0002 -0.0002
# 3 13.3982 29.6967 91.1709 -0.0026 -0.0002 -0.0003
# 4 -0.0024 -0.0022 -0.0026 -7.3583 -0.0002 -0.0002
# 5 0.0000 -0.0002 -0.0002 -0.0002 28.3057 -0.0001
# 6 -0.0001 -0.0002 -0.0003 -0.0002 -0.0001 40.9105
#
#
#
# Elastic Compliance Matrix: (Units=1/GPa)
#
#
# Indices 1 2 3 4 5 6 
#
# 1 0.013405 -0.000329 -0.001863 -0.000004 0.000000 0.000000
# 2 -0.000329 0.009882 -0.003170 -0.000002 0.000000 0.000000
# 3 -0.001863 -0.003170 0.012275 -0.000003 0.000000 0.000000
# 4 -0.000004 -0.000002 -0.000003 -0.135901 -0.000001 -0.000001
# 5 0.000000 0.000000 0.000000 -0.000001 0.035329 0.000000
# 6 0.000000 0.000000 0.000000 -0.000001 0.000000 0.024444
#
#
# Mechanical properties :
#
#
# Convention : Reuss Voigt Hill
#
# Bulk Modulus (GPa) = 40.26244 42.07161 41.16703
# Shear Modulus (GPa) = -231.87587 27.62510 -102.12538
#
# Velocity S-wave (km/s) = -11.30575 3.90233 -7.50306
# Velocity P-wave (km/s) = 12.17507 6.59514 7.23659
#
# Compressibility (1/GPa) = 0.02483704
#
# Stress axis : x y z
#
# Youngs Moduli (GPa) = 74.59795 101.19525 81.46751
#
# Poissons Ratio (x) = 0.03333 0.15175
# Poissons Ratio (y) = 0.02457 0.25828
# Poissons Ratio (z) = 0.13895 0.32083
#
# Static dielectric constant tensor:
#      x y z
#    x 1.604800 0.000000 0.000000 
#    y 0.000000 1.614360 0.000000 
#    z 0.000000 0.000000 1.592600 
# 
# From -- ./inp_files/18432.got.cif
#   From: 2010.05.17/outbox.cif.g08.bks.cpg/sg71_10_cif.got.tgz:18432.got - 2010.06.03 16:22:01.
