data_PCOD9519165
_publ_section_title
;
Structure prediction by ZEFSAII (Michael W. Deem and Ramdas Pophale) SiO2 
 PCOD9519165
Probable space group: I M M M
;
_chemical_formula_sum "Si O2"
_cell_formula_units_Z 64
_cell_length_a 8.801780
_cell_length_b 17.548119
_cell_length_c 21.216144
_cell_angle_alpha 90.000000
_cell_angle_beta 90.000000
_cell_angle_gamma 90.000000
_cell_volume 3276.932793
_symmetry_space_group_name_H-M "I M M M"
_symmetry_group_IT_number 71
_symmetry_cell_setting 'orthorhombic'
loop_
_space_group_symop_operation_xyz
x,y,z
-x,-y,z
x,-y,-z
-x,y,-z
-x,-y,-z
x,y,-z
-x,y,z
x,-y,z
1/2+x,1/2+y,1/2+z
1/2-x,1/2-y,1/2+z
1/2+x,1/2-y,1/2-z
1/2-x,1/2+y,1/2-z
1/2-x,1/2-y,1/2-z
1/2+x,1/2+y,1/2-z
1/2-x,1/2+y,1/2+z
1/2+x,1/2-y,1/2+z
loop_
_atom_site_type_symbol
_atom_site_label
_atom_site_fract_x
_atom_site_fract_y
_atom_site_fract_z
Si Si1 0.322268 0.113974 0.069098
Si Si2 0.676254 0.739166 0.861044
Si Si3 0.178207 0.878137 0.802536
Si Si4 0.181064 0.415191 0.830697
O O1 0.500000 0.092882 0.074185
O O2 0.316176 0.206296 0.077677
O O3 0.233683 0.086753 0.130916
O O4 0.266140 0.091996 0.000000
O O5 0.500000 0.738147 0.840407
O O6 0.777867 0.789164 0.812951
O O7 0.738245 0.654531 0.865988
O O8 0.267416 0.908092 0.742227
O O9 0.000000 0.888445 0.793641
O O10 0.222812 0.500000 0.853174
O O11 0.000000 0.406735 0.834550
#
# Coordination Sequence:
#
# PCOD9519165 Si02
#       4
#    16  16  16  16
#     4   8  16  31  51  74  98 125 159 199 240 282
#     4   9  18  32  51  73  98 127 161 199 240 284
#     4  10  19  31  50  74 100 127 160 199 242 286
#     4  11  22  34  48  69  99 132 164 199 243 291
#
# _framework density 19.530459
#
# number of rings (size 3 to 8) (size 9 to 14) (size 15 to 20)
#    1.500    1.000    0.000    3.750    0.000    2.500 
#    0.000    0.000    0.000    1.500    0.000   10.500 
#    0.000    0.000    0.000    0.000    0.000    0.000 
#
# Total GULP energy -178165.293358 kJ/mol
# GULP energy per Si atom -5567.665417 kJ/mol
# Density = 1.948601 g / cm^3
# Si number density = 19.530459 Si / 1000 Ang^3
#
#
#
# Elastic Constant Matrix: (Units=GPa)
#
#
# Indices 1 2 3 4 5 6 
#
# 1 49.1199 21.3191 2.6716 0.0000 0.0000 0.0000
# 2 21.3191 134.4747 4.0203 0.0000 0.0000 0.0000
# 3 2.6716 4.0203 46.7689 0.0000 0.0000 0.0000
# 4 0.0000 0.0000 0.0000 -104.1103 0.0000 0.0000
# 5 0.0000 0.0000 0.0000 0.0000 18.8332 0.0000
# 6 0.0000 0.0000 0.0000 0.0000 0.0000 5.7967
#
#
#
# Elastic Compliance Matrix: (Units=1/GPa)
#
#
# Indices 1 2 3 4 5 6 
#
# 1 0.021905 -0.003444 -0.000955 0.000000 0.000000 0.000000
# 2 -0.003444 0.007997 -0.000491 0.000000 0.000000 0.000000
# 3 -0.000955 -0.000491 0.021478 0.000000 0.000000 0.000000
# 4 0.000000 0.000000 0.000000 -0.009605 0.000000 0.000000
# 5 0.000000 0.000000 0.000000 0.000000 0.053098 0.000000
# 6 0.000000 0.000000 0.000000 0.000000 0.000000 0.172511
#
#
# Mechanical properties :
#
#
# Convention : Reuss Voigt Hill
#
# Bulk Modulus (GPa) = 24.03823 31.82063 27.92943
# Shear Modulus (GPa) = 17.18028 -2.40590 7.38719
#
# Velocity S-wave (km/s) = 2.96913 -1.11110 1.94695
# Velocity P-wave (km/s) = 4.90807 3.83173 4.40291
#
# Compressibility (1/GPa) = 0.04160040
#
# Stress axis : x y z
#
# Youngs Moduli (GPa) = 45.65138 125.04623 46.55827
#
# Poissons Ratio (x) = 0.43068 0.04447
# Poissons Ratio (y) = 0.15723 0.02285
# Poissons Ratio (z) = 0.04361 0.06136
#
# Static dielectric constant tensor:
#      x y z
#    x 1.646500 0.000000 0.000000 
#    y 0.000000 1.754600 0.000000 
#    z 0.000000 0.000000 1.670220 
# 
# From -- ./inp_files/7481.got.cif
#   From: 2010.05.17/outbox.cif.g08.bks.cpg/sg71_4_cif.got.tgz:7481.got - 2010.06.03 16:22:01.
