data_PCOD9519969
_publ_section_title
;
Structure prediction by ZEFSAII (Michael W. Deem and Ramdas Pophale) SiO2 
 PCOD9519969
Probable space group: I M M M
;
_chemical_formula_sum "Si O2"
_cell_formula_units_Z 76
_cell_length_a 12.863012
_cell_length_b 22.708170
_cell_length_c 15.461912
_cell_angle_alpha 90.000000
_cell_angle_beta 90.000000
_cell_angle_gamma 90.000000
_cell_volume 4516.354348
_symmetry_space_group_name_H-M "I M M M"
_symmetry_group_IT_number 71
_symmetry_cell_setting 'orthorhombic'
loop_
_space_group_symop_operation_xyz
x,y,z
-x,-y,z
x,-y,-z
-x,y,-z
-x,-y,-z
x,y,-z
-x,y,z
x,-y,z
1/2+x,1/2+y,1/2+z
1/2-x,1/2-y,1/2+z
1/2+x,1/2-y,1/2-z
1/2-x,1/2+y,1/2-z
1/2-x,1/2-y,1/2-z
1/2+x,1/2+y,1/2-z
1/2-x,1/2+y,1/2+z
1/2+x,1/2-y,1/2+z
loop_
_atom_site_type_symbol
_atom_site_label
_atom_site_fract_x
_atom_site_fract_y
_atom_site_fract_z
Si Si1 0.719549 0.000000 0.000000
Si Si2 0.623412 0.500000 0.103454
Si Si3 0.744687 0.901740 0.701223
Si Si4 0.623997 0.000000 0.810406
Si Si5 0.883037 0.105719 0.000000
Si Si6 0.621195 0.319268 0.675615
Si Si7 0.874791 0.695655 0.900082
O O1 0.653446 0.000000 0.088176
O O2 0.795317 0.943575 0.000000
O O3 0.500000 0.500000 0.121212
O O4 0.678600 0.556264 0.146899
O O5 0.638498 0.500000 0.000000
O O6 0.676439 0.943552 0.763772
O O7 0.810856 0.855717 0.757445
O O8 0.672494 0.863574 0.638369
O O9 0.500000 0.000000 0.799117
O O10 0.874429 0.146195 0.915497
O O11 0.000000 0.079511 0.000000
O O12 0.500000 0.317968 0.702887
O O13 0.656469 0.252704 0.656059
O O14 0.000000 0.693366 0.898063
O O15 0.843210 0.703890 0.000000
#
# Coordination Sequence:
#
# PCOD9519969 Si02
#       7
#     4   8  16   8   8  16  16
#     4  12  20  38  54  78 108 154 180 208 276 318
#     4  10  22  39  56  78 109 142 177 221 269 321
#     4  11  21  36  56  80 105 138 182 220 266 310
#     4  11  24  37  52  74 106 143 185 226 260 311
#     4  10  19  33  55  86 115 138 171 219 267 320
#     4  10  19  34  56  83 111 136 171 218 267 321
#     4  10  20  35  56  80 107 140 174 214 267 318
#
# _framework density 16.827732000000001
#
# number of rings (size 3 to 8) (size 9 to 14) (size 15 to 20)
#    0.000    1.579    3.158    2.842    0.000    0.000 
#    0.000    0.000    0.000    5.053    0.000    0.000 
#    0.000    0.000    0.000    0.000    0.000    0.000 
#
# Total GULP energy -212123.756803 kJ/mol
# GULP energy per Si atom -5582.204126 kJ/mol
# Density = 1.678943 g / cm^3
# Si number density = 16.827732 Si / 1000 Ang^3
#
#
#
# Elastic Constant Matrix: (Units=GPa)
#
#
# Indices 1 2 3 4 5 6 
#
# 1 85.1394 54.2693 53.3157 0.0000 0.0000 0.0000
# 2 54.2693 127.5277 54.2342 0.0000 0.0000 0.0000
# 3 53.3157 54.2342 98.9183 0.0000 0.0000 0.0000
# 4 0.0000 0.0000 0.0000 26.6810 0.0000 0.0000
# 5 0.0000 0.0000 0.0000 0.0000 25.2059 0.0000
# 6 0.0000 0.0000 0.0000 0.0000 0.0000 31.9875
#
#
#
# Elastic Compliance Matrix: (Units=1/GPa)
#
#
# Indices 1 2 3 4 5 6 
#
# 1 0.020003 -0.005121 -0.007973 0.000000 0.000000 0.000000
# 2 -0.005121 0.011537 -0.003565 0.000000 0.000000 0.000000
# 3 -0.007973 -0.003565 0.016362 0.000000 0.000000 0.000000
# 4 0.000000 0.000000 0.000000 0.037480 0.000000 0.000000
# 5 0.000000 0.000000 0.000000 0.000000 0.039673 0.000000
# 6 0.000000 0.000000 0.000000 0.000000 0.000000 0.031262
#
#
# Mechanical properties :
#
#
# Convention : Reuss Voigt Hill
#
# Bulk Modulus (GPa) = 68.57871 70.58041 69.57956
# Shear Modulus (GPa) = 25.70732 26.75929 26.23330
#
# Velocity S-wave (km/s) = 3.91279 3.99204 3.95262
# Velocity P-wave (km/s) = 7.82656 7.95503 7.89106
#
# Compressibility (1/GPa) = 0.01458178
#
# Stress axis : x y z
#
# Youngs Moduli (GPa) = 49.99253 86.67810 61.11886
#
# Poissons Ratio (x) = 0.44391 0.48733
# Poissons Ratio (y) = 0.25603 0.21789
# Poissons Ratio (z) = 0.39861 0.30901
#
# Static dielectric constant tensor:
#      x y z
#    x 1.545350 0.000000 0.000000 
#    y 0.000000 1.550950 0.000000 
#    z 0.000000 0.000000 1.545870 
# 
# From -- ./inp_files/32702.got.cif
#   From: 2010.05.17/outbox.cif.g08.bks.cpg/sg71_17_cif.got.tgz:32702.got - 2010.06.03 16:22:01.
