data_PCOD9519683
_publ_section_title
;
Structure prediction by ZEFSAII (Michael W. Deem and Ramdas Pophale) SiO2 
 PCOD9519683
Probable space group: I M M M
;
_chemical_formula_sum "Si O2"
_cell_formula_units_Z 66
_cell_length_a 26.929413
_cell_length_b 15.541712
_cell_length_c 7.346149
_cell_angle_alpha 90.000000
_cell_angle_beta 90.000000
_cell_angle_gamma 90.000000
_cell_volume 3074.577726
_symmetry_space_group_name_H-M "I M M M"
_symmetry_group_IT_number 71
_symmetry_cell_setting 'orthorhombic'
loop_
_space_group_symop_operation_xyz
x,y,z
-x,-y,z
x,-y,-z
-x,y,-z
-x,-y,-z
x,y,-z
-x,y,z
x,-y,z
1/2+x,1/2+y,1/2+z
1/2-x,1/2-y,1/2+z
1/2+x,1/2-y,1/2-z
1/2-x,1/2+y,1/2-z
1/2-x,1/2-y,1/2-z
1/2+x,1/2+y,1/2-z
1/2-x,1/2+y,1/2+z
1/2+x,1/2-y,1/2+z
loop_
_atom_site_type_symbol
_atom_site_label
_atom_site_fract_x
_atom_site_fract_y
_atom_site_fract_z
Si Si1 0.653907 0.170642 0.718240
Si Si2 0.500000 0.000000 0.000000
Si Si3 0.365394 0.639874 0.210759
Si Si4 0.556913 0.500000 0.222668
Si Si5 0.908053 0.500000 0.779905
Si Si6 0.255504 0.599204 0.221431
O O1 0.655820 0.175119 0.500000
O O2 0.628153 0.258079 0.780535
O O3 0.623798 0.085086 0.764451
O O4 0.710632 0.159731 0.785181
O O5 0.456805 0.000000 0.159568
O O6 0.410616 0.582722 0.282435
O O7 0.310653 0.620826 0.289142
O O8 0.361664 0.613856 0.000000
O O9 0.500000 0.500000 0.285429
O O10 0.554274 0.500000 0.000000
O O11 0.916875 0.500000 0.000000
O O12 0.243953 0.500000 0.266333
O O13 0.255997 0.604747 0.000000
#
# Coordination Sequence:
#
# PCOD9519683 Si02
#       6
#    16   2  16   8   8  16
#     4  10  20  36  58  84 118 157 194 243 308 380
#     4  12  26  44  72  90 120 162 214 268 314 370
#     4  10  19  32  56  84 114 150 203 252 298 363
#     4   9  18  35  54  79 110 147 191 248 301 350
#     4  10  23  44  65  90 125 164 205 259 319 373
#     4   9  15  29  54  81 113 156 198 241 304 371
#
# _framework density 21.466360999999999
#
# number of rings (size 3 to 8) (size 9 to 14) (size 15 to 20)
#    0.000    2.303    2.424    0.909    1.697    0.000 
#    2.182    0.606    0.000    2.182    0.000    0.000 
#    0.000    0.000    0.000    0.000    0.000    0.000 
#
# Total GULP energy -184038.106174 kJ/mol
# GULP energy per Si atom -5576.912308 kJ/mol
# Density = 2.141750 g / cm^3
# Si number density = 21.466361 Si / 1000 Ang^3
#
#
#
# Elastic Constant Matrix: (Units=GPa)
#
#
# Indices 1 2 3 4 5 6 
#
# 1 207.4844 95.0242 32.5005 0.0000 0.0000 0.0000
# 2 95.0242 162.2340 3.3608 0.0000 0.0000 0.0000
# 3 32.5005 3.3608 84.2341 0.0000 0.0000 0.0000
# 4 0.0000 0.0000 0.0000 7.3333 0.0000 0.0000
# 5 0.0000 0.0000 0.0000 0.0000 -12.4521 0.0000
# 6 0.0000 0.0000 0.0000 0.0000 0.0000 15.6968
#
#
#
# Elastic Compliance Matrix: (Units=1/GPa)
#
#
# Indices 1 2 3 4 5 6 
#
# 1 0.007105 -0.004108 -0.002577 0.000000 0.000000 0.000000
# 2 -0.004108 0.008544 0.001244 0.000000 0.000000 0.000000
# 3 -0.002577 0.001244 0.012816 0.000000 0.000000 0.000000
# 4 0.000000 0.000000 0.000000 0.136364 0.000000 0.000000
# 5 0.000000 0.000000 0.000000 0.000000 -0.080307 0.000000
# 6 0.000000 0.000000 0.000000 0.000000 0.000000 0.063707
#
#
# Mechanical properties :
#
#
# Convention : Reuss Voigt Hill
#
# Bulk Modulus (GPa) = 56.87306 79.52484 68.19895
# Shear Modulus (GPa) = 30.30804 23.65341 26.98072
#
# Velocity S-wave (km/s) = 3.76158 3.32306 3.54910
# Velocity P-wave (km/s) = 6.73926 7.20072 6.97380
#
# Compressibility (1/GPa) = 0.01758302
#
# Stress axis : x y z
#
# Youngs Moduli (GPa) = 140.75057 117.03670 78.02452
#
# Poissons Ratio (x) = 0.48079 0.20110
# Poissons Ratio (y) = 0.57821 -0.09707
# Poissons Ratio (z) = 0.36277 -0.14561
#
# Static dielectric constant tensor:
#      x y z
#    x 1.749130 0.000000 0.000000 
#    y 0.000000 1.769340 0.000000 
#    z 0.000000 0.000000 1.832870 
# 
# From -- ./inp_files/14233.got.cif
#   From: 2010.05.17/outbox.cif.g08.bks.cpg/sg71_8_cif.got.tgz:14233.got - 2010.06.03 16:22:01.
