data_PCOD9519884
_publ_section_title
;
Structure prediction by ZEFSAII (Michael W. Deem and Ramdas Pophale) SiO2 
 PCOD9519884
Probable space group: I M M M
;
_chemical_formula_sum "Si O2"
_cell_formula_units_Z 88
_cell_length_a 29.498009
_cell_length_b 18.107794
_cell_length_c 9.037095
_cell_angle_alpha 90.000000
_cell_angle_beta 90.000000
_cell_angle_gamma 90.000000
_cell_volume 4827.108900
_symmetry_space_group_name_H-M "I M M M"
_symmetry_group_IT_number 71
_symmetry_cell_setting 'orthorhombic'
loop_
_space_group_symop_operation_xyz
x,y,z
-x,-y,z
x,-y,-z
-x,y,-z
-x,-y,-z
x,y,-z
-x,y,z
x,-y,z
1/2+x,1/2+y,1/2+z
1/2-x,1/2-y,1/2+z
1/2+x,1/2-y,1/2-z
1/2-x,1/2+y,1/2-z
1/2-x,1/2-y,1/2-z
1/2+x,1/2+y,1/2-z
1/2-x,1/2+y,1/2+z
1/2+x,1/2-y,1/2+z
loop_
_atom_site_type_symbol
_atom_site_label
_atom_site_fract_x
_atom_site_fract_y
_atom_site_fract_z
Si Si1 0.078200 0.697930 0.179092
Si Si2 0.178044 0.732901 0.827732
Si Si3 0.604633 0.500000 0.175765
Si Si4 0.202017 0.000000 0.172657
Si Si5 0.770772 0.858800 0.670049
Si Si6 0.553573 0.364730 0.673926
Si Si7 0.000000 0.585957 0.181185
O O1 0.131415 0.693047 0.216883
O O2 0.062900 0.780524 0.223772
O O3 0.044167 0.633482 0.229905
O O4 0.074983 0.696304 0.000000
O O5 0.190675 0.802299 0.726147
O O6 0.222110 0.681075 0.821811
O O7 0.172854 0.757124 0.000000
O O8 0.655255 0.500000 0.237954
O O9 0.580027 0.573166 0.236982
O O10 0.604265 0.500000 0.000000
O O11 0.228783 0.927942 0.222788
O O12 0.192568 0.000000 0.000000
O O13 0.779094 0.880202 0.500000
O O14 0.566585 0.369750 0.500000
O O15 0.500000 0.378539 0.684303
O O16 0.000000 0.500000 0.228214
O O17 0.000000 0.585078 0.000000
#
# Coordination Sequence:
#
# PCOD9519884 Si02
#       7
#    16  16   8   8  16  16   8
#     4   9  16  30  51  78 109 144 183 223 266 320
#     4   9  18  33  55  81 110 147 186 222 267 328
#     4  12  25  37  52  79 112 142 183 235 284 329
#     4  12  24  39  57  76 104 144 185 226 281 343
#     4  10  20  35  54  80 113 143 180 229 277 324
#     4  10  19  33  54  78 112 154 194 226 262 318
#     4   9  16  28  48  79 113 138 170 225 279 313
#
# _framework density 18.230373
#
# number of rings (size 3 to 8) (size 9 to 14) (size 15 to 20)
#    0.000    2.091    0.909    3.545    0.000    3.636 
#    1.636    0.000    0.000    0.000    0.000    0.000 
#    0.000    2.909    0.000    0.000    0.000    0.000 
#
# Total GULP energy -245510.229503 kJ/mol
# GULP energy per Si atom -5579.777943 kJ/mol
# Density = 1.818888 g / cm^3
# Si number density = 18.230373 Si / 1000 Ang^3
#
#
#
# Elastic Constant Matrix: (Units=GPa)
#
#
# Indices 1 2 3 4 5 6 
#
# 1 65.2498 18.6490 17.7921 0.0000 0.0000 0.0000
# 2 18.6490 91.9551 24.8481 0.0000 0.0000 0.0000
# 3 17.7921 24.8481 56.5815 0.0000 0.0000 0.0000
# 4 0.0000 0.0000 0.0000 16.2879 0.0000 0.0000
# 5 0.0000 0.0000 0.0000 0.0000 13.5150 0.0000
# 6 0.0000 0.0000 0.0000 0.0000 0.0000 12.6419
#
#
#
# Elastic Compliance Matrix: (Units=1/GPa)
#
#
# Indices 1 2 3 4 5 6 
#
# 1 0.017180 -0.002297 -0.004394 0.000000 0.000000 0.000000
# 2 -0.002297 0.012646 -0.004831 0.000000 0.000000 0.000000
# 3 -0.004394 -0.004831 0.021177 0.000000 0.000000 0.000000
# 4 0.000000 0.000000 0.000000 0.061395 0.000000 0.000000
# 5 0.000000 0.000000 0.000000 0.000000 0.073992 0.000000
# 6 0.000000 0.000000 0.000000 0.000000 0.000000 0.079102
#
#
# Mechanical properties :
#
#
# Convention : Reuss Voigt Hill
#
# Bulk Modulus (GPa) = 35.76608 37.37386 36.56997
# Shear Modulus (GPa) = 16.78661 18.65543 17.72102
#
# Velocity S-wave (km/s) = 3.03777 3.20240 3.12117
# Velocity P-wave (km/s) = 5.65381 5.84972 5.75260
#
# Compressibility (1/GPa) = 0.02795945
#
# Stress axis : x y z
#
# Youngs Moduli (GPa) = 58.20635 79.07473 47.22123
#
# Poissons Ratio (x) = 0.18164 0.20747
# Poissons Ratio (y) = 0.13370 0.22814
# Poissons Ratio (z) = 0.25573 0.38204
#
# Static dielectric constant tensor:
#      x y z
#    x 1.632930 0.000000 0.000000 
#    y 0.000000 1.626920 0.000000 
#    z 0.000000 0.000000 1.607660 
# 
# From -- ./inp_files/16758.got.cif
#   From: 2010.05.17/outbox.cif.g08.bks.cpg/sg71_9_cif.got.tgz:16758.got - 2010.06.03 16:22:01.
