data_PCOD9519174
_publ_section_title
;
Structure prediction by ZEFSAII (Michael W. Deem and Ramdas Pophale) SiO2 
 PCOD9519174
Probable space group: I M M M
;
_chemical_formula_sum "Si O2"
_cell_formula_units_Z 88
_cell_length_a 28.401466
_cell_length_b 19.280801
_cell_length_c 7.348112
_cell_angle_alpha 90.000000
_cell_angle_beta 90.000000
_cell_angle_gamma 90.000000
_cell_volume 4023.848279
_symmetry_space_group_name_H-M "I M M M"
_symmetry_group_IT_number 71
_symmetry_cell_setting 'orthorhombic'
loop_
_space_group_symop_operation_xyz
x,y,z
-x,-y,z
x,-y,-z
-x,y,-z
-x,-y,-z
x,y,-z
-x,y,z
x,-y,z
1/2+x,1/2+y,1/2+z
1/2-x,1/2-y,1/2+z
1/2+x,1/2-y,1/2-z
1/2-x,1/2+y,1/2-z
1/2-x,1/2-y,1/2-z
1/2+x,1/2+y,1/2-z
1/2-x,1/2+y,1/2+z
1/2+x,1/2-y,1/2+z
loop_
_atom_site_type_symbol
_atom_site_label
_atom_site_fract_x
_atom_site_fract_y
_atom_site_fract_z
Si Si1 0.055208 0.423504 0.278743
Si Si2 0.212556 0.310878 0.215527
Si Si3 0.054119 0.000000 0.721820
Si Si4 0.714542 0.420507 0.778157
Si Si5 0.105607 0.286622 0.706969
Si Si6 0.886713 0.134500 0.277347
O O1 0.058656 0.424347 0.500000
O O2 0.071832 0.500000 0.217441
O O3 0.083006 0.356035 0.211812
O O4 0.000000 0.417321 0.233620
O O5 0.250000 0.250000 0.250000
O O6 0.238874 0.380150 0.280709
O O7 0.161923 0.295964 0.297907
O O8 0.204964 0.316120 0.000000
O O9 0.081361 0.930409 0.778545
O O10 0.054921 0.000000 0.500000
O O11 0.000000 0.000000 0.779280
O O12 0.712739 0.500000 0.720156
O O13 0.667038 0.381017 0.721556
O O14 0.714389 0.419831 0.000000
O O15 0.087340 0.283097 0.500000
O O16 0.097023 0.210214 0.787094
O O17 0.886772 0.136108 0.500000
#
# Coordination Sequence:
#
# PCOD9519174 Si02
#       6
#    16  16   8  16  16  16
#     4   8  15  29  49  73 102 135 167 203 252 306
#     4  11  21  33  50  73 100 132 168 207 248 296
#     4   9  16  24  38  66 101 127 153 201 252 287
#     4   9  16  28  46  65  88 125 166 196 233 291
#     4  10  19  31  50  75 101 130 165 208 251 295
#     4   9  15  25  41  62  90 125 159 191 238 292
#
# _framework density 21.869613000000001
#
# number of rings (size 3 to 8) (size 9 to 14) (size 15 to 20)
#    0.000    2.636    2.727    1.091    0.000    1.455 
#    0.000    3.636    0.000    2.182    0.000    1.273 
#    0.000    0.727    0.000    0.000    0.000    0.000 
#
# Total GULP energy -245674.726283 kJ/mol
# GULP energy per Si atom -5583.516506 kJ/mol
# Density = 2.181984 g / cm^3
# Si number density = 21.869613 Si / 1000 Ang^3
#
#
#
# Elastic Constant Matrix: (Units=GPa)
#
#
# Indices 1 2 3 4 5 6 
#
# 1 78.2780 75.8694 -5.7312 0.0000 0.0000 0.0000
# 2 75.8694 243.3134 4.5508 0.0000 0.0000 0.0000
# 3 -5.7312 4.5508 85.1468 0.0000 0.0000 0.0000
# 4 0.0000 0.0000 0.0000 -6.1531 0.0000 0.0000
# 5 0.0000 0.0000 0.0000 0.0000 3.2698 0.0000
# 6 0.0000 0.0000 0.0000 0.0000 0.0000 43.9568
#
#
#
# Elastic Compliance Matrix: (Units=1/GPa)
#
#
# Indices 1 2 3 4 5 6 
#
# 1 0.018512 -0.005801 0.001556 0.000000 0.000000 0.000000
# 2 -0.005801 0.005932 -0.000708 0.000000 0.000000 0.000000
# 3 0.001556 -0.000708 0.011887 0.000000 0.000000 0.000000
# 4 0.000000 0.000000 0.000000 -0.162521 0.000000 0.000000
# 5 0.000000 0.000000 0.000000 0.000000 0.305828 0.000000
# 6 0.000000 0.000000 0.000000 0.000000 0.000000 0.022750
#
#
# Mechanical properties :
#
#
# Convention : Reuss Voigt Hill
#
# Bulk Modulus (GPa) = 37.84269 61.79069 49.81669
# Shear Modulus (GPa) = 22.61403 30.35133 26.48268
#
# Velocity S-wave (km/s) = 3.21914 3.72940 3.48362
# Velocity P-wave (km/s) = 5.58198 6.84544 6.24574
#
# Compressibility (1/GPa) = 0.02642518
#
# Stress axis : x y z
#
# Youngs Moduli (GPa) = 54.01959 168.57329 84.12572
#
# Poissons Ratio (x) = 0.97796 -0.13091
# Poissons Ratio (y) = 0.31339 0.05952
# Poissons Ratio (z) = -0.08406 0.11927
#
# Static dielectric constant tensor:
#      x y z
#    x 1.665450 0.000000 0.000000 
#    y 0.000000 1.786880 0.000000 
#    z 0.000000 0.000000 1.881960 
# 
# From -- ./inp_files/16637.got.cif
#   From: 2010.05.17/outbox.cif.g08.bks.cpg/sg71_9_cif.got.tgz:16637.got - 2010.06.03 16:22:01.
