data_PCOD9519322
_publ_section_title
;
Structure prediction by ZEFSAII (Michael W. Deem and Ramdas Pophale) SiO2 
 PCOD9519322
Probable space group: I M M M
;
_chemical_formula_sum "Si O2"
_cell_formula_units_Z 72
_cell_length_a 13.614949
_cell_length_b 9.975380
_cell_length_c 29.859056
_cell_angle_alpha 90.000000
_cell_angle_beta 90.000000
_cell_angle_gamma 90.000000
_cell_volume 4055.286489
_symmetry_space_group_name_H-M "I M M M"
_symmetry_group_IT_number 71
_symmetry_cell_setting 'orthorhombic'
loop_
_space_group_symop_operation_xyz
x,y,z
-x,-y,z
x,-y,-z
-x,y,-z
-x,-y,-z
x,y,-z
-x,y,z
x,-y,z
1/2+x,1/2+y,1/2+z
1/2-x,1/2-y,1/2+z
1/2+x,1/2-y,1/2-z
1/2-x,1/2+y,1/2-z
1/2-x,1/2-y,1/2-z
1/2+x,1/2+y,1/2-z
1/2-x,1/2+y,1/2+z
1/2+x,1/2-y,1/2+z
loop_
_atom_site_type_symbol
_atom_site_label
_atom_site_fract_x
_atom_site_fract_y
_atom_site_fract_z
Si Si1 0.383645 0.213979 0.328980
Si Si2 0.617619 0.500000 0.052577
Si Si3 0.383281 0.500000 0.190283
Si Si4 0.803896 0.210551 0.378740
Si Si5 0.381768 0.500000 0.290180
Si Si6 0.618432 0.000000 0.747006
Si Si7 0.880031 0.500000 0.351823
O O1 0.500000 0.196800 0.337977
O O2 0.311797 0.184829 0.370122
O O3 0.359596 0.365917 0.316274
O O4 0.358956 0.126585 0.284899
O O5 0.500000 0.500000 0.058894
O O6 0.659813 0.631086 0.077688
O O7 0.639287 0.500000 0.000000
O O8 0.500000 0.500000 0.192547
O O9 0.352238 0.369125 0.162988
O O10 0.340623 0.500000 0.240121
O O11 0.838106 0.364484 0.374687
O O12 0.500000 0.500000 0.285338
O O13 0.500000 0.000000 0.751044
O O14 0.651070 0.000000 0.798782
O O15 0.000000 0.500000 0.354162
#
# Coordination Sequence:
#
# PCOD9519322 Si02
#       7
#    16   8   8  16   8   8   8
#     4  10  20  33  47  70 106 145 184 216 243 283
#     4  10  22  43  65  81 100 125 157 201 258 328
#     4  10  19  32  48  70 103 142 187 222 244 291
#     4  11  21  33  55  78 100 136 173 211 261 309
#     4   9  18  31  46  67 103 150 188 214 240 280
#     4   9  18  30  44  67 106 149 180 217 257 283
#     4  11  21  32  48  78 113 135 168 220 264 301
#
# _framework density 17.754601999999998
#
# number of rings (size 3 to 8) (size 9 to 14) (size 15 to 20)
#    0.000    1.889    0.000    6.000    0.000    8.889 
#    0.000    0.556    0.000    3.333    0.000    0.000 
#    0.000    4.444    0.000    0.000    0.000    0.000 
#
# Total GULP energy -200951.731589 kJ/mol
# GULP energy per Si atom -5581.992544 kJ/mol
# Density = 1.771419 g / cm^3
# Si number density = 17.754602 Si / 1000 Ang^3
#
#
#
# Elastic Constant Matrix: (Units=GPa)
#
#
# Indices 1 2 3 4 5 6 
#
# 1 115.0919 33.3440 50.6539 0.0000 0.0000 0.0000
# 2 33.3440 136.5475 49.1090 0.0000 0.0000 0.0000
# 3 50.6539 49.1090 114.6094 0.0000 0.0000 0.0000
# 4 0.0000 0.0000 0.0000 0.5757 0.0000 0.0000
# 5 0.0000 0.0000 0.0000 0.0000 23.5853 0.0000
# 6 0.0000 0.0000 0.0000 0.0000 0.0000 -30.6046
#
#
#
# Elastic Compliance Matrix: (Units=1/GPa)
#
#
# Indices 1 2 3 4 5 6 
#
# 1 0.010925 -0.001101 -0.004357 0.000000 0.000000 0.000000
# 2 -0.001101 0.008769 -0.003271 0.000000 0.000000 0.000000
# 3 -0.004357 -0.003271 0.012052 0.000000 0.000000 0.000000
# 4 0.000000 0.000000 0.000000 1.736883 0.000000 0.000000
# 5 0.000000 0.000000 0.000000 0.000000 0.042399 0.000000
# 6 0.000000 0.000000 0.000000 0.000000 0.000000 -0.032675
#
#
# Mechanical properties :
#
#
# Convention : Reuss Voigt Hill
#
# Bulk Modulus (GPa) = 69.98300 70.27362 70.12831
# Shear Modulus (GPa) = 2.77689 14.25409 8.51549
#
# Velocity S-wave (km/s) = 1.25197 2.83652 2.19240
# Velocity P-wave (km/s) = 6.44921 7.09889 6.78183
#
# Compressibility (1/GPa) = 0.01428919
#
# Stress axis : x y z
#
# Youngs Moduli (GPa) = 91.53157 114.04345 82.97140
#
# Poissons Ratio (x) = 0.12555 0.36150
# Poissons Ratio (y) = 0.10077 0.27137
# Poissons Ratio (z) = 0.39879 0.37300
#
# Static dielectric constant tensor:
#      x y z
#    x 1.690430 0.000000 0.000000 
#    y 0.000000 1.619710 0.000000 
#    z 0.000000 0.000000 1.566900 
# 
# From -- ./inp_files/65202.got.cif
#   From: 2010.05.17/outbox.cif.g08.bks.cpg/sg71_33_cif.got.tgz:65202.got - 2010.06.03 16:22:01.
