data_PCOD9519563
_publ_section_title
;
Structure prediction by ZEFSAII (Michael W. Deem and Ramdas Pophale) SiO2 
 PCOD9519563
Probable space group: I M M M
;
_chemical_formula_sum "Si O2"
_cell_formula_units_Z 112
_cell_length_a 29.603916
_cell_length_b 12.756341
_cell_length_c 17.554027
_cell_angle_alpha 90.000000
_cell_angle_beta 90.000000
_cell_angle_gamma 90.000000
_cell_volume 6629.061459
_symmetry_space_group_name_H-M "I M M M"
_symmetry_group_IT_number 71
_symmetry_cell_setting 'orthorhombic'
loop_
_space_group_symop_operation_xyz
x,y,z
-x,-y,z
x,-y,-z
-x,y,-z
-x,-y,-z
x,y,-z
-x,y,z
x,-y,z
1/2+x,1/2+y,1/2+z
1/2-x,1/2-y,1/2+z
1/2+x,1/2-y,1/2-z
1/2-x,1/2+y,1/2-z
1/2-x,1/2-y,1/2-z
1/2+x,1/2+y,1/2-z
1/2-x,1/2+y,1/2+z
1/2+x,1/2-y,1/2+z
loop_
_atom_site_type_symbol
_atom_site_label
_atom_site_fract_x
_atom_site_fract_y
_atom_site_fract_z
Si Si1 0.448968 0.121348 0.378964
Si Si2 0.139132 0.745850 0.914246
Si Si3 0.804601 0.255254 0.674932
Si Si4 0.552494 0.788172 0.213970
Si Si5 0.876671 0.123334 0.768819
Si Si6 0.717336 0.875111 0.671572
Si Si7 0.879838 0.624359 0.411627
O O1 0.500000 0.154455 0.399440
O O2 0.409638 0.190261 0.414050
O O3 0.444779 0.135436 0.287387
O O4 0.443515 0.000000 0.399171
O O5 0.135029 0.841127 0.854800
O O6 0.174715 0.664325 0.877507
O O7 0.151962 0.774677 0.000000
O O8 0.836990 0.171197 0.716683
O O9 0.760923 0.192508 0.646637
O O10 0.791134 0.338697 0.740882
O O11 0.834434 0.314907 0.612790
O O12 0.500000 0.771782 0.195827
O O13 0.578023 0.683320 0.242093
O O14 0.580724 0.835404 0.144244
O O15 0.880229 0.000000 0.761559
O O16 0.723307 0.000000 0.666377
O O17 0.890514 0.643767 0.500000
O O18 0.873883 0.500000 0.400647
#
# Coordination Sequence:
#
# PCOD9519563 Si02
#       7
#    16  16  16  16  16  16  16
#     4   9  17  30  49  70  94 129 166 198 240 292
#     4  10  21  33  46  72 105 129 158 205 254 302
#     4   9  19  34  52  74 100 127 168 218 251 290
#     4   9  18  32  51  76 102 126 163 213 248 282
#     4   9  18  34  55  73  92 127 169 205 248 298
#     4  10  19  32  53  75  96 130 172 213 258 301
#     4  10  20  33  51  76 107 140 166 194 244 305
#
# _framework density 16.895302999999998
#
# number of rings (size 3 to 8) (size 9 to 14) (size 15 to 20)
#    0.000    2.571    0.000    2.571    0.000    3.714 
#    0.000    2.143    0.000   10.286    0.000    8.000 
#    0.000    0.000    0.000    0.000    0.000    0.000 
#
# Total GULP energy -312284.396810 kJ/mol
# GULP energy per Si atom -5576.507086 kJ/mol
# Density = 1.685685 g / cm^3
# Si number density = 16.895303 Si / 1000 Ang^3
#
#
#
# Elastic Constant Matrix: (Units=GPa)
#
#
# Indices 1 2 3 4 5 6 
#
# 1 87.9907 30.2642 25.6111 0.0000 0.0000 0.0000
# 2 30.2642 102.5927 39.5574 0.0000 0.0000 0.0000
# 3 25.6111 39.5574 85.7090 0.0000 0.0000 0.0000
# 4 0.0000 0.0000 0.0000 5.8233 0.0000 0.0000
# 5 0.0000 0.0000 0.0000 0.0000 10.0064 0.0000
# 6 0.0000 0.0000 0.0000 0.0000 0.0000 13.6626
#
#
#
# Elastic Compliance Matrix: (Units=1/GPa)
#
#
# Indices 1 2 3 4 5 6 
#
# 1 0.013105 -0.002866 -0.002593 0.000000 0.000000 0.000000
# 2 -0.002866 0.012484 -0.004905 0.000000 0.000000 0.000000
# 3 -0.002593 -0.004905 0.014706 0.000000 0.000000 0.000000
# 4 0.000000 0.000000 0.000000 0.171723 0.000000 0.000000
# 5 0.000000 0.000000 0.000000 0.000000 0.099936 0.000000
# 6 0.000000 0.000000 0.000000 0.000000 0.000000 0.073192
#
#
# Mechanical properties :
#
#
# Convention : Reuss Voigt Hill
#
# Bulk Modulus (GPa) = 51.10828 51.90642 51.50735
# Shear Modulus (GPa) = 12.12419 17.95579 15.03999
#
# Velocity S-wave (km/s) = 2.68173 3.26355 2.98684
# Velocity P-wave (km/s) = 6.31700 6.70747 6.51516
#
# Compressibility (1/GPa) = 0.01956630
#
# Stress axis : x y z
#
# Youngs Moduli (GPa) = 76.30411 80.10137 67.99807
#
# Poissons Ratio (x) = 0.22958 0.17634
# Poissons Ratio (y) = 0.21870 0.33356
# Poissons Ratio (z) = 0.19788 0.39293
#
# Static dielectric constant tensor:
#      x y z
#    x 1.579820 0.000000 0.000000 
#    y 0.000000 1.531170 0.000000 
#    z 0.000000 0.000000 1.570910 
# 
# From -- ./inp_files/22703.got.cif
#   From: 2010.05.17/outbox.cif.g08.bks.cpg/sg71_12_cif.got.tgz:22703.got - 2010.06.03 16:22:01.
