data_PCOD9519559
_publ_section_title
;
Structure prediction by ZEFSAII (Michael W. Deem and Ramdas Pophale) SiO2 
 PCOD9519559
Probable space group: I M M M
;
_chemical_formula_sum "Si O2"
_cell_formula_units_Z 120
_cell_length_a 21.473500
_cell_length_b 13.063243
_cell_length_c 20.822643
_cell_angle_alpha 90.000000
_cell_angle_beta 90.000000
_cell_angle_gamma 90.000000
_cell_volume 5841.033478
_symmetry_space_group_name_H-M "I M M M"
_symmetry_group_IT_number 71
_symmetry_cell_setting 'orthorhombic'
loop_
_space_group_symop_operation_xyz
x,y,z
-x,-y,z
x,-y,-z
-x,y,-z
-x,-y,-z
x,y,-z
-x,y,z
x,-y,z
1/2+x,1/2+y,1/2+z
1/2-x,1/2-y,1/2+z
1/2+x,1/2-y,1/2-z
1/2-x,1/2+y,1/2-z
1/2-x,1/2-y,1/2-z
1/2+x,1/2+y,1/2-z
1/2-x,1/2+y,1/2+z
1/2+x,1/2-y,1/2+z
loop_
_atom_site_type_symbol
_atom_site_label
_atom_site_fract_x
_atom_site_fract_y
_atom_site_fract_z
Si Si1 0.923687 0.619313 0.000000
Si Si2 0.766496 0.299485 0.576782
Si Si3 0.430447 0.290055 0.835382
Si Si4 0.826644 0.118798 0.180979
Si Si5 0.803786 0.883345 0.327987
Si Si6 0.073245 0.392438 0.749764
Si Si7 0.095203 0.386356 0.426282
Si Si8 0.572368 0.772543 0.628715
O O1 0.903770 0.685208 0.061383
O O2 0.903778 0.500000 0.000000
O O3 0.000000 0.617168 0.000000
O O4 0.752153 0.283612 0.500000
O O5 0.718312 0.362510 0.620251
O O6 0.775328 0.195320 0.619626
O O7 0.831220 0.362644 0.578310
O O8 0.500000 0.324160 0.816970
O O9 0.378487 0.375688 0.840595
O O10 0.402220 0.206719 0.785567
O O11 0.434368 0.214417 0.895792
O O12 0.796857 0.143701 0.251557
O O13 0.886453 0.186361 0.162200
O O14 0.843893 0.000000 0.185863
O O15 0.781815 0.000000 0.336964
O O16 0.104389 0.500000 0.735715
O O17 0.074364 0.370303 0.824567
O O18 0.000000 0.395700 0.731021
O O19 0.077707 0.390093 0.500000
O O20 0.080282 0.500000 0.399167
O O21 0.500000 0.740337 0.623470
#
# Coordination Sequence:
#
# PCOD9519559 Si02
#       8
#     8  16  16  16  16  16  16  16
#     4   9  18  34  55  77 111 161 206 244 292 345
#     4  10  22  41  65  87 113 149 199 253 303 359
#     4  10  19  32  52  83 119 153 194 235 280 344
#     4  11  23  39  63  91 120 157 200 246 299 359
#     4  10  22  41  63  87 120 158 195 243 300 354
#     4   9  16  28  48  74 108 150 192 233 278 330
#     4   9  18  33  53  79 111 148 189 237 296 350
#     4  10  20  35  55  85 123 162 200 243 293 352
#
# _framework density 20.544309999999999
#
# number of rings (size 3 to 8) (size 9 to 14) (size 15 to 20)
#    0.000    2.200    1.333    1.600    0.933    4.267 
#    0.000    3.333    0.000    1.200    0.000    3.733 
#    0.000    0.000    0.000    0.000    0.000    0.000 
#
# Total GULP energy -334153.943302 kJ/mol
# GULP energy per Si atom -5569.232388 kJ/mol
# Density = 2.049755 g / cm^3
# Si number density = 20.544310 Si / 1000 Ang^3
#
#
#
# Elastic Constant Matrix: (Units=GPa)
#
#
# Indices 1 2 3 4 5 6 
#
# 1 31.5734 4.0208 10.8875 0.0000 0.0000 0.0000
# 2 4.0208 89.1244 35.1700 0.0000 0.0000 0.0000
# 3 10.8875 35.1700 147.5244 0.0000 0.0000 0.0000
# 4 0.0000 0.0000 0.0000 34.6618 0.0000 0.0000
# 5 0.0000 0.0000 0.0000 0.0000 18.1160 0.0000
# 6 0.0000 0.0000 0.0000 0.0000 0.0000 1.4787
#
#
#
# Elastic Compliance Matrix: (Units=1/GPa)
#
#
# Indices 1 2 3 4 5 6 
#
# 1 0.032526 -0.000574 -0.002264 0.000000 0.000000 0.000000
# 2 -0.000574 0.012396 -0.002913 0.000000 0.000000 0.000000
# 3 -0.002264 -0.002913 0.007640 0.000000 0.000000 0.000000
# 4 0.000000 0.000000 0.000000 0.028850 0.000000 0.000000
# 5 0.000000 0.000000 0.000000 0.000000 0.055200 0.000000
# 6 0.000000 0.000000 0.000000 0.000000 0.000000 0.676286
#
#
# Mechanical properties :
#
#
# Convention : Reuss Voigt Hill
#
# Bulk Modulus (GPa) = 24.35427 40.93100 32.64263
# Shear Modulus (GPa) = 5.96598 25.39422 15.68010
#
# Velocity S-wave (km/s) = 1.70595 3.51959 2.76566
# Velocity P-wave (km/s) = 3.96996 6.04014 5.11096
#
# Compressibility (1/GPa) = 0.04106056
#
# Stress axis : x y z
#
# Youngs Moduli (GPa) = 30.74469 80.67382 130.89005
#
# Poissons Ratio (x) = 0.04632 0.29628
# Poissons Ratio (y) = 0.01765 0.38125
# Poissons Ratio (z) = 0.06959 0.23498
#
# Static dielectric constant tensor:
#      x y z
#    x 1.768410 0.000000 0.000000 
#    y 0.000000 1.760500 0.000000 
#    z 0.000000 0.000000 1.802880 
# 
# From -- ./inp_files/55818.got.cif
#   From: 2010.05.17/outbox.cif.g08.bks.cpg/sg71_28_cif.got.tgz:55818.got - 2010.06.03 16:22:01.
