data_PCOD9519925
_publ_section_title
;
Structure prediction by ZEFSAII (Michael W. Deem and Ramdas Pophale) SiO2 
 PCOD9519925
Probable space group: I M M M
;
_chemical_formula_sum "Si O2"
_cell_formula_units_Z 104
_cell_length_a 30.878988
_cell_length_b 7.884765
_cell_length_c 21.472030
_cell_angle_alpha 90.000000
_cell_angle_beta 90.000000
_cell_angle_gamma 90.000000
_cell_volume 5227.871667
_symmetry_space_group_name_H-M "I M M M"
_symmetry_group_IT_number 71
_symmetry_cell_setting 'orthorhombic'
loop_
_space_group_symop_operation_xyz
x,y,z
-x,-y,z
x,-y,-z
-x,y,-z
-x,-y,-z
x,y,-z
-x,y,z
x,-y,z
1/2+x,1/2+y,1/2+z
1/2-x,1/2-y,1/2+z
1/2+x,1/2-y,1/2-z
1/2-x,1/2+y,1/2-z
1/2-x,1/2-y,1/2-z
1/2+x,1/2+y,1/2-z
1/2-x,1/2+y,1/2+z
1/2+x,1/2-y,1/2+z
loop_
_atom_site_type_symbol
_atom_site_label
_atom_site_fract_x
_atom_site_fract_y
_atom_site_fract_z
Si Si1 0.371353 0.203545 0.279933
Si Si2 0.718291 0.207861 0.929426
Si Si3 0.866280 0.300519 0.640586
Si Si4 0.049431 0.701314 0.862437
Si Si5 0.452146 0.295227 0.072555
Si Si6 0.447671 0.694438 0.500000
Si Si7 0.224071 0.202548 0.813248
O O1 0.366721 0.273912 0.209883
O O2 0.413451 0.270593 0.316662
O O3 0.325229 0.235576 0.311687
O O4 0.377075 0.000000 0.275955
O O5 0.670950 0.265105 0.905336
O O6 0.751187 0.263212 0.875283
O O7 0.719008 0.000000 0.931031
O O8 0.726968 0.265067 0.000000
O O9 0.856490 0.500000 0.647629
O O10 0.913147 0.279078 0.611166
O O11 0.046270 0.500000 0.851875
O O12 0.064546 0.725786 0.933962
O O13 0.000000 0.770765 0.855286
O O14 0.500000 0.242230 0.094202
O O15 0.450179 0.500000 0.075695
O O16 0.447893 0.247693 0.000000
O O17 0.433549 0.500000 0.500000
O O18 0.500000 0.701202 0.500000
O O19 0.250000 0.250000 0.750000
O O20 0.223701 0.000000 0.815252
#
# Coordination Sequence:
#
# PCOD9519925 Si02
#       7
#    16  16  16  16  16   8  16
#     4  10  21  37  56  82 112 140 180 226 271 325
#     4   9  18  34  56  81 108 138 176 223 272 319
#     4  10  19  33  55  80 105 137 180 227 268 316
#     4   9  18  34  56  79 108 147 184 221 272 331
#     4   9  19  35  51  71 106 146 179 217 267 319
#     4   9  17  31  53  79 107 139 181 231 273 319
#     4  11  21  37  60  82 111 149 185 223 274 331
#
# _framework density 19.893374000000001
#
# number of rings (size 3 to 8) (size 9 to 14) (size 15 to 20)
#    0.000    2.385    1.538    1.615    0.000    4.000 
#    1.385    2.308    0.000    4.154    0.000    0.000 
#    0.000    0.000    0.000    0.000    0.000    0.000 
#
# Total GULP energy -290006.349491 kJ/mol
# GULP energy per Si atom -5577.045183 kJ/mol
# Density = 1.984810 g / cm^3
# Si number density = 19.893374 Si / 1000 Ang^3
#
#
#
# Elastic Constant Matrix: (Units=GPa)
#
#
# Indices 1 2 3 4 5 6 
#
# 1 121.1029 -7.8168 83.4377 0.0000 0.0000 0.0000
# 2 -7.8168 15.9329 3.0550 0.0000 0.0000 0.0000
# 3 83.4377 3.0550 156.1902 0.0000 0.0000 0.0000
# 4 0.0000 0.0000 0.0000 -5.3421 0.0000 0.0000
# 5 0.0000 0.0000 0.0000 0.0000 32.8015 0.0000
# 6 0.0000 0.0000 0.0000 0.0000 0.0000 24.2080
#
#
#
# Elastic Compliance Matrix: (Units=1/GPa)
#
#
# Indices 1 2 3 4 5 6 
#
# 1 0.014103 0.008395 -0.007698 0.000000 0.000000 0.000000
# 2 0.008395 0.067997 -0.005815 0.000000 0.000000 0.000000
# 3 -0.007698 -0.005815 0.010629 0.000000 0.000000 0.000000
# 4 0.000000 0.000000 0.000000 -0.187192 0.000000 0.000000
# 5 0.000000 0.000000 0.000000 0.000000 0.030486 0.000000
# 6 0.000000 0.000000 0.000000 0.000000 0.000000 0.041309
#
#
# Mechanical properties :
#
#
# Convention : Reuss Voigt Hill
#
# Bulk Modulus (GPa) = 12.12222 50.06418 31.09320
# Shear Modulus (GPa) = 331.89407 24.63682 178.26545
#
# Velocity S-wave (km/s) = 12.93053 3.52297 9.47655
# Velocity P-wave (km/s) = 15.13401 6.46292 11.63632
#
# Compressibility (1/GPa) = 0.08249314
#
# Stress axis : x y z
#
# Youngs Moduli (GPa) = 70.90533 14.70659 94.08533
#
# Poissons Ratio (x) = -0.12347 0.72430
# Poissons Ratio (y) = -0.59527 0.54708
# Poissons Ratio (z) = 0.54585 0.08552
#
# Static dielectric constant tensor:
#      x y z
#    x 1.712020 0.000000 0.000000 
#    y 0.000000 1.729970 0.000000 
#    z 0.000000 0.000000 1.702170 
# 
# From -- ./inp_files/51168.got.cif
#   From: 2010.05.17/outbox.cif.g08.bks.cpg/sg71_26_cif.got.tgz:51168.got - 2010.06.03 16:22:01.
