data_PCOD9519950
_publ_section_title
;
Structure prediction by ZEFSAII (Michael W. Deem and Ramdas Pophale) SiO2 
 PCOD9519950
Probable space group: I M M M
;
_chemical_formula_sum "Si O2"
_cell_formula_units_Z 66
_cell_length_a 16.756972
_cell_length_b 24.204603
_cell_length_c 8.297274
_cell_angle_alpha 90.000000
_cell_angle_beta 90.000000
_cell_angle_gamma 90.000000
_cell_volume 3365.339940
_symmetry_space_group_name_H-M "I M M M"
_symmetry_group_IT_number 71
_symmetry_cell_setting 'orthorhombic'
loop_
_space_group_symop_operation_xyz
x,y,z
-x,-y,z
x,-y,-z
-x,y,-z
-x,-y,-z
x,y,-z
-x,y,z
x,-y,z
1/2+x,1/2+y,1/2+z
1/2-x,1/2-y,1/2+z
1/2+x,1/2-y,1/2-z
1/2-x,1/2+y,1/2-z
1/2-x,1/2-y,1/2-z
1/2+x,1/2+y,1/2-z
1/2-x,1/2+y,1/2+z
1/2+x,1/2-y,1/2+z
loop_
_atom_site_type_symbol
_atom_site_label
_atom_site_fract_x
_atom_site_fract_y
_atom_site_fract_z
Si Si1 0.000000 0.000000 0.000000
Si Si2 0.089609 0.273032 0.193572
Si Si3 0.161200 0.836780 0.690951
Si Si4 0.500000 0.386274 0.677139
Si Si5 0.171862 0.614713 0.802866
Si Si6 0.407122 0.000000 0.302831
O O1 0.000000 0.049194 0.137169
O O2 0.150206 0.225049 0.243143
O O3 0.116972 0.333687 0.247450
O O4 0.000000 0.260103 0.252919
O O5 0.087736 0.274450 0.000000
O O6 0.168994 0.832532 0.500000
O O7 0.080230 0.868419 0.735253
O O8 0.238758 0.869758 0.751590
O O9 0.500000 0.357274 0.500000
O O10 0.137748 0.555771 0.749343
O O11 0.171805 0.613222 0.000000
O O12 0.500000 0.000000 0.253991
O O13 0.406563 0.000000 0.500000
#
# Coordination Sequence:
#
# PCOD9519950 Si02
#       6
#     2  16  16   8  16   8
#     4   8  24  40  62  76 104 144 196 230 272 340
#     4  10  19  33  55  82 115 156 194 234 279 342
#     4  11  21  34  56  85 118 148 186 238 295 340
#     4  10  21  41  59  79 107 151 193 236 273 343
#     4   9  19  32  50  82 117 150 191 237 288 337
#     4   9  16  31  54  78 111 151 190 234 275 331
#
# _framework density 19.611688000000001
#
# number of rings (size 3 to 8) (size 9 to 14) (size 15 to 20)
#    0.364    1.818    1.212    2.545    0.000    3.879 
#    0.000    3.636    0.000    0.000    0.000    0.000 
#    0.000    6.788    0.000    0.000    0.000    0.000 
#
# Total GULP energy -183852.622112 kJ/mol
# GULP energy per Si atom -5571.291579 kJ/mol
# Density = 1.956705 g / cm^3
# Si number density = 19.611688 Si / 1000 Ang^3
#
#
#
# Elastic Constant Matrix: (Units=GPa)
#
#
# Indices 1 2 3 4 5 6 
#
# 1 154.2390 90.7154 11.1678 0.0000 0.0000 0.0000
# 2 90.7154 208.2869 10.4714 0.0000 0.0000 0.0000
# 3 11.1678 10.4714 10.5224 0.0000 0.0000 0.0000
# 4 0.0000 0.0000 0.0000 12.7331 0.0000 0.0000
# 5 0.0000 0.0000 0.0000 0.0000 11.0568 0.0000
# 6 0.0000 0.0000 0.0000 0.0000 0.0000 21.2546
#
#
#
# Elastic Compliance Matrix: (Units=1/GPa)
#
#
# Indices 1 2 3 4 5 6 
#
# 1 0.009061 -0.003645 -0.005989 0.000000 0.000000 0.000000
# 2 -0.003645 0.006520 -0.002620 0.000000 0.000000 0.000000
# 3 -0.005989 -0.002620 0.103999 0.000000 0.000000 0.000000
# 4 0.000000 0.000000 0.000000 0.078535 0.000000 0.000000
# 5 0.000000 0.000000 0.000000 0.000000 0.090442 0.000000
# 6 0.000000 0.000000 0.000000 0.000000 0.000000 0.047049
#
#
# Mechanical properties :
#
#
# Convention : Reuss Voigt Hill
#
# Bulk Modulus (GPa) = 10.51835 66.41748 38.46791
# Shear Modulus (GPa) = 12.76141 26.38849 19.57495
#
# Velocity S-wave (km/s) = 2.55366 3.67215 3.16274
# Velocity P-wave (km/s) = 3.75098 7.20551 5.74409
#
# Compressibility (1/GPa) = 0.09507196
#
# Stress axis : x y z
#
# Youngs Moduli (GPa) = 110.36246 153.36449 9.61544
#
# Poissons Ratio (x) = 0.55905 0.05759
# Poissons Ratio (y) = 0.40230 0.02519
# Poissons Ratio (z) = 0.66098 0.40181
#
# Static dielectric constant tensor:
#      x y z
#    x 1.697100 0.000000 0.000000 
#    y 0.000000 1.670690 0.000000 
#    z 0.000000 0.000000 1.706810 
# 
# From -- ./inp_files/5922.got.cif
#   From: 2010.05.17/outbox.cif.g08.bks.cpg/sg71_3_cif.got.tgz:5922.got - 2010.06.03 16:22:01.
