data_PCOD9519421
_publ_section_title
;
Structure prediction by ZEFSAII (Michael W. Deem and Ramdas Pophale) SiO2 
 PCOD9519421
Probable space group: I M M M
;
_chemical_formula_sum "Si O2"
_cell_formula_units_Z 80
_cell_length_a 19.020459
_cell_length_b 27.561494
_cell_length_c 8.939605
_cell_angle_alpha 90.000000
_cell_angle_beta 90.000000
_cell_angle_gamma 90.000000
_cell_volume 4686.429392
_symmetry_space_group_name_H-M "I M M M"
_symmetry_group_IT_number 71
_symmetry_cell_setting 'orthorhombic'
loop_
_space_group_symop_operation_xyz
x,y,z
-x,-y,z
x,-y,-z
-x,y,-z
-x,-y,-z
x,y,-z
-x,y,z
x,-y,z
1/2+x,1/2+y,1/2+z
1/2-x,1/2-y,1/2+z
1/2+x,1/2-y,1/2-z
1/2-x,1/2+y,1/2-z
1/2-x,1/2-y,1/2-z
1/2+x,1/2+y,1/2-z
1/2-x,1/2+y,1/2+z
1/2+x,1/2-y,1/2+z
loop_
_atom_site_type_symbol
_atom_site_label
_atom_site_fract_x
_atom_site_fract_y
_atom_site_fract_z
Si Si1 0.579912 0.942240 0.821974
Si Si2 0.142131 0.054903 0.679102
Si Si3 0.421335 0.349824 0.680192
Si Si4 0.212708 0.393248 0.822747
Si Si5 0.221304 0.799185 0.179256
O O1 0.500000 0.928072 0.782117
O O2 0.639366 0.914550 0.731979
O O3 0.586417 0.000000 0.796453
O O4 0.588965 0.934161 0.000000
O O5 0.131287 0.057060 0.500000
O O6 0.097133 0.097151 0.755369
O O7 0.223734 0.068834 0.707436
O O8 0.127100 0.000000 0.729455
O O9 0.419453 0.352690 0.500000
O O10 0.500000 0.335266 0.726346
O O11 0.358740 0.313323 0.725648
O O12 0.232432 0.344324 0.736012
O O13 0.212042 0.383931 0.000000
O O14 0.250000 0.750000 0.250000
O O15 0.223543 0.795967 0.000000
#
# Coordination Sequence:
#
# PCOD9519421 Si02
#       5
#    16  16  16  16  16
#     4   9  18  32  49  71 102 138 172 208 253 302
#     4   9  18  31  47  71 103 136 168 201 238 283
#     4   9  19  35  53  74 100 129 162 201 244 290
#     4  10  19  32  51  74 100 131 169 211 251 297
#     4  10  20  36  57  77  98 127 164 208 256 304
#
# _framework density 17.070565999999999
#
# number of rings (size 3 to 8) (size 9 to 14) (size 15 to 20)
#    0.000    2.600    0.000    2.400    0.000    4.400 
#    0.000    4.000    0.000    3.600    0.000    0.000 
#    0.000    0.000    0.000    0.000    0.000    0.000 
#
# Total GULP energy -223077.134812 kJ/mol
# GULP energy per Si atom -5576.928370 kJ/mol
# Density = 1.703171 g / cm^3
# Si number density = 17.070566 Si / 1000 Ang^3
#
#
#
# Elastic Constant Matrix: (Units=GPa)
#
#
# Indices 1 2 3 4 5 6 
#
# 1 124.7465 54.5134 41.8980 0.0000 0.0000 0.0000
# 2 54.5134 97.4862 34.0558 0.0000 0.0000 0.0000
# 3 41.8980 34.0558 34.4511 0.0000 0.0000 0.0000
# 4 0.0000 0.0000 0.0000 30.6701 0.0000 0.0000
# 5 0.0000 0.0000 0.0000 0.0000 26.3972 0.0000
# 6 0.0000 0.0000 0.0000 0.0000 0.0000 10.3762
#
#
#
# Elastic Compliance Matrix: (Units=1/GPa)
#
#
# Indices 1 2 3 4 5 6 
#
# 1 0.014064 -0.002886 -0.014251 0.000000 0.000000 0.000000
# 2 -0.002886 0.016261 -0.012565 0.000000 0.000000 0.000000
# 3 -0.014251 -0.012565 0.058779 0.000000 0.000000 0.000000
# 4 0.000000 0.000000 0.000000 0.032605 0.000000 0.000000
# 5 0.000000 0.000000 0.000000 0.000000 0.037883 0.000000
# 6 0.000000 0.000000 0.000000 0.000000 0.000000 0.096374
#
#
# Mechanical properties :
#
#
# Convention : Reuss Voigt Hill
#
# Bulk Modulus (GPa) = 33.66981 57.51314 45.59147
# Shear Modulus (GPa) = 15.37191 21.90314 18.63753
#
# Velocity S-wave (km/s) = 3.00408 3.58592 3.30781
# Velocity P-wave (km/s) = 5.63909 7.13510 6.43074
#
# Compressibility (1/GPa) = 0.02970020
#
# Stress axis : x y z
#
# Youngs Moduli (GPa) = 71.10452 61.49693 17.01301
#
# Poissons Ratio (x) = 0.17747 0.24245
# Poissons Ratio (y) = 0.20520 0.21376
# Poissons Ratio (z) = 1.01331 0.77269
#
# Static dielectric constant tensor:
#      x y z
#    x 1.585710 0.000000 0.000000 
#    y 0.000000 1.546280 0.000000 
#    z 0.000000 0.000000 1.569000 
# 
# From -- ./inp_files/8312.got.cif
#   From: 2010.05.17/outbox.cif.g08.bks.cpg/sg71_5_cif.got.tgz:8312.got - 2010.06.03 16:22:01.
