data_PCOD9519722
_publ_section_title
;
Structure prediction by ZEFSAII (Michael W. Deem and Ramdas Pophale) SiO2 
 PCOD9519722
Probable space group: I M M M
;
_chemical_formula_sum "Si O2"
_cell_formula_units_Z 72
_cell_length_a 32.431478
_cell_length_b 7.401232
_cell_length_c 19.834371
_cell_angle_alpha 90.000000
_cell_angle_beta 90.000000
_cell_angle_gamma 90.000000
_cell_volume 4760.901448
_symmetry_space_group_name_H-M "I M M M"
_symmetry_group_IT_number 71
_symmetry_cell_setting 'orthorhombic'
loop_
_space_group_symop_operation_xyz
x,y,z
-x,-y,z
x,-y,-z
-x,y,-z
-x,-y,-z
x,y,-z
-x,y,z
x,-y,z
1/2+x,1/2+y,1/2+z
1/2-x,1/2-y,1/2+z
1/2+x,1/2-y,1/2-z
1/2-x,1/2+y,1/2-z
1/2-x,1/2-y,1/2-z
1/2+x,1/2+y,1/2-z
1/2-x,1/2+y,1/2+z
1/2+x,1/2-y,1/2+z
loop_
_atom_site_type_symbol
_atom_site_label
_atom_site_fract_x
_atom_site_fract_y
_atom_site_fract_z
Si Si1 0.167718 0.782875 0.000000
Si Si2 0.270323 0.217874 0.148239
Si Si3 0.548902 0.000000 0.581291
Si Si4 0.237831 0.279290 0.500000
Si Si5 0.387558 0.717238 0.628900
Si Si6 0.185639 0.787505 0.215924
O O1 0.214444 0.719278 0.000000
O O2 0.142221 0.735407 0.065984
O O3 0.170640 0.000000 0.000000
O O4 0.225290 0.285164 0.174163
O O5 0.302883 0.265469 0.206064
O O6 0.267973 0.000000 0.147143
O O7 0.279829 0.278832 0.072311
O O8 0.571108 0.172469 0.615123
O O9 0.500000 0.000000 0.591464
O O10 0.556311 0.000000 0.500000
O O11 0.236707 0.500000 0.500000
O O12 0.394783 0.500000 0.629678
O O13 0.359240 0.775933 0.692288
O O14 0.184882 0.000000 0.199862
#
# Coordination Sequence:
#
# PCOD9519722 Si02
#       6
#     8  16   8   8  16  16
#     4   9  14  25  43  62  82 117 162 189 218 267
#     4   9  16  25  39  59  85 116 150 191 229 259
#     4  11  24  36  48  72  96 113 149 201 243 282
#     4   9  14  24  40  58  85 121 157 191 226 263
#     4  10  19  33  51  65  86 122 156 191 233 275
#     4   9  17  28  41  60  84 113 153 192 226 265
#
# _framework density 15.123186
#
# number of rings (size 3 to 8) (size 9 to 14) (size 15 to 20)
#    0.000    2.556    3.333    0.000    1.556    0.444 
#    0.000    1.667    2.444    0.000    0.000    0.000 
#    0.000    0.000    0.000    2.000    0.000    8.889 
#
# Total GULP energy -200568.747400 kJ/mol
# GULP energy per Si atom -5571.354094 kJ/mol
# Density = 1.508877 g / cm^3
# Si number density = 15.123186 Si / 1000 Ang^3
#
#
#
# Elastic Constant Matrix: (Units=GPa)
#
#
# Indices 1 2 3 4 5 6 
#
# 1 96.2779 29.3793 54.9794 0.0000 0.0000 0.0000
# 2 29.3793 64.8361 13.3355 0.0000 0.0000 0.0000
# 3 54.9794 13.3355 101.1429 0.0000 0.0000 0.0000
# 4 0.0000 0.0000 0.0000 14.8564 0.0000 0.0000
# 5 0.0000 0.0000 0.0000 0.0000 22.6521 0.0000
# 6 0.0000 0.0000 0.0000 0.0000 0.0000 15.3552
#
#
#
# Elastic Compliance Matrix: (Units=1/GPa)
#
#
# Indices 1 2 3 4 5 6 
#
# 1 0.017057 -0.005984 -0.008483 0.000000 0.000000 0.000000
# 2 -0.005984 0.017953 0.000886 0.000000 0.000000 0.000000
# 3 -0.008483 0.000886 0.014381 0.000000 0.000000 0.000000
# 4 0.000000 0.000000 0.000000 0.067311 0.000000 0.000000
# 5 0.000000 0.000000 0.000000 0.000000 0.044146 0.000000
# 6 0.000000 0.000000 0.000000 0.000000 0.000000 0.065124
#
#
# Mechanical properties :
#
#
# Convention : Reuss Voigt Hill
#
# Bulk Modulus (GPa) = 44.98678 50.84949 47.91814
# Shear Modulus (GPa) = 19.19059 21.54358 20.36708
#
# Velocity S-wave (km/s) = 3.56610 3.77840 3.67378
# Velocity P-wave (km/s) = 6.83868 7.26165 7.05334
#
# Compressibility (1/GPa) = 0.02222875
#
# Stress axis : x y z
#
# Youngs Moduli (GPa) = 58.62779 55.70112 69.53494
#
# Poissons Ratio (x) = 0.33333 0.58985
# Poissons Ratio (y) = 0.35084 -0.06160
# Poissons Ratio (z) = 0.49732 -0.04934
#
# Static dielectric constant tensor:
#      x y z
#    x 1.475490 0.000000 0.000000 
#    y 0.000000 1.550520 0.000000 
#    z 0.000000 0.000000 1.530900 
# 
# From -- ./inp_files/14714.got.cif
#   From: 2010.05.17/outbox.cif.g08.bks.cpg/sg71_8_cif.got.tgz:14714.got - 2010.06.03 16:22:01.
