data_PCOD9519511
_publ_section_title
;
Structure prediction by ZEFSAII (Michael W. Deem and Ramdas Pophale) SiO2 
 PCOD9519511
Probable space group: I M M M
;
_chemical_formula_sum "Si O2"
_cell_formula_units_Z 92
_cell_length_a 24.885077
_cell_length_b 29.027996
_cell_length_c 8.903230
_cell_angle_alpha 90.000000
_cell_angle_beta 90.000000
_cell_angle_gamma 90.000000
_cell_volume 6431.372084
_symmetry_space_group_name_H-M "I M M M"
_symmetry_group_IT_number 71
_symmetry_cell_setting 'orthorhombic'
loop_
_space_group_symop_operation_xyz
x,y,z
-x,-y,z
x,-y,-z
-x,y,-z
-x,-y,-z
x,y,-z
-x,y,z
x,-y,z
1/2+x,1/2+y,1/2+z
1/2-x,1/2-y,1/2+z
1/2+x,1/2-y,1/2-z
1/2-x,1/2+y,1/2-z
1/2-x,1/2-y,1/2-z
1/2+x,1/2+y,1/2-z
1/2-x,1/2+y,1/2+z
1/2+x,1/2-y,1/2+z
loop_
_atom_site_type_symbol
_atom_site_label
_atom_site_fract_x
_atom_site_fract_y
_atom_site_fract_z
Si Si1 0.707503 0.406468 0.833778
Si Si2 0.000000 0.054774 0.672588
Si Si3 0.594743 0.390588 0.679200
Si Si4 0.663674 0.750702 0.679174
Si Si5 0.243141 0.323386 0.321024
Si Si6 0.937739 0.207464 0.679819
Si Si7 0.728428 0.500000 0.000000
O O1 0.653369 0.404361 0.737555
O O2 0.749841 0.373167 0.753472
O O3 0.695264 0.386016 0.000000
O O4 0.725423 0.458433 0.871197
O O5 0.052046 0.073100 0.757765
O O6 0.000000 0.072191 0.500000
O O7 0.000000 0.000000 0.668623
O O8 0.593797 0.388040 0.500000
O O9 0.576921 0.341653 0.747290
O O10 0.658859 0.755461 0.500000
O O11 0.702093 0.706116 0.707886
O O12 0.695384 0.793748 0.748896
O O13 0.606115 0.742371 0.753864
O O14 0.236668 0.326552 0.500000
O O15 0.932401 0.204636 0.500000
O O16 0.000000 0.218512 0.714793
#
# Coordination Sequence:
#
# PCOD9519511 Si02
#       7
#    16   8  16  16  16  16   4
#     4  10  20  36  53  69  95 129 166 210 254 313
#     4  11  25  39  51  61  81 117 167 221 269 313
#     4  12  23  34  49  69  91 122 166 217 270 307
#     4  10  20  32  50  78 103 132 169 210 259 315
#     4  10  19  32  52  77 104 130 165 215 263 308
#     4  11  22  35  51  71 100 138 172 209 257 314
#     4   8  24  36  54  73  94 136 177 206 272 312
#
# _framework density 14.304878
#
# number of rings (size 3 to 8) (size 9 to 14) (size 15 to 20)
#    0.522    0.957    2.609    3.913    1.217    3.130 
#    0.000    1.304    0.000    0.000    0.000    0.000 
#    0.000    0.000    0.000    1.565    0.000    6.348 
#
# Total GULP energy -256095.148955 kJ/mol
# GULP energy per Si atom -5567.285847 kJ/mol
# Density = 1.427232 g / cm^3
# Si number density = 14.304878 Si / 1000 Ang^3
#
#
#
# Elastic Constant Matrix: (Units=GPa)
#
#
# Indices 1 2 3 4 5 6 
#
# 1 65.3817 55.3930 44.1144 0.0000 0.0000 0.0000
# 2 55.3930 101.4064 51.2437 0.0000 0.0000 0.0000
# 3 44.1144 51.2437 101.6411 0.0000 0.0000 0.0000
# 4 0.0000 0.0000 0.0000 26.7732 0.0000 0.0000
# 5 0.0000 0.0000 0.0000 0.0000 21.0456 0.0000
# 6 0.0000 0.0000 0.0000 0.0000 0.0000 -51.9976
#
#
#
# Elastic Compliance Matrix: (Units=1/GPa)
#
#
# Indices 1 2 3 4 5 6 
#
# 1 0.031554 -0.013842 -0.006716 0.000000 0.000000 0.000000
# 2 -0.013842 0.019305 -0.003725 0.000000 0.000000 0.000000
# 3 -0.006716 -0.003725 0.014632 0.000000 0.000000 0.000000
# 4 0.000000 0.000000 0.000000 0.037351 0.000000 0.000000
# 5 0.000000 0.000000 0.000000 0.000000 0.047516 0.000000
# 6 0.000000 0.000000 0.000000 0.000000 0.000000 -0.019232
#
#
# Mechanical properties :
#
#
# Convention : Reuss Voigt Hill
#
# Bulk Modulus (GPa) = 59.09022 63.32571 61.20796
# Shear Modulus (GPa) = 26.97833 7.00946 16.99390
#
# Velocity S-wave (km/s) = 4.34747 2.21601 3.45045
# Velocity P-wave (km/s) = 8.16076 7.13529 7.66519
#
# Compressibility (1/GPa) = 0.01692328
#
# Stress axis : x y z
#
# Youngs Moduli (GPa) = 31.69172 51.80003 68.34537
#
# Poissons Ratio (x) = 0.71703 0.45903
# Poissons Ratio (y) = 0.43869 0.25459
# Poissons Ratio (z) = 0.21285 0.19296
#
# Static dielectric constant tensor:
#      x y z
#    x 1.450180 0.000000 0.000000 
#    y 0.000000 1.463910 0.000000 
#    z 0.000000 0.000000 1.480250 
# 
# From -- ./inp_files/13225.got.cif
#   From: 2010.05.17/outbox.cif.g08.bks.cpg/sg71_7_cif.got.tgz:13225.got - 2010.06.03 16:22:01.
