data_PCOD9519994
_publ_section_title
;
Structure prediction by ZEFSAII (Michael W. Deem and Ramdas Pophale) SiO2 
 PCOD9519994
Probable space group: I M M M
;
_chemical_formula_sum "Si O2"
_cell_formula_units_Z 72
_cell_length_a 15.933373
_cell_length_b 25.120830
_cell_length_c 10.697665
_cell_angle_alpha 90.000000
_cell_angle_beta 90.000000
_cell_angle_gamma 90.000000
_cell_volume 4281.842627
_symmetry_space_group_name_H-M "I M M M"
_symmetry_group_IT_number 71
_symmetry_cell_setting 'orthorhombic'
loop_
_space_group_symop_operation_xyz
x,y,z
-x,-y,z
x,-y,-z
-x,y,-z
-x,-y,-z
x,y,-z
-x,y,z
x,-y,z
1/2+x,1/2+y,1/2+z
1/2-x,1/2-y,1/2+z
1/2+x,1/2-y,1/2-z
1/2-x,1/2+y,1/2-z
1/2-x,1/2-y,1/2-z
1/2+x,1/2+y,1/2-z
1/2-x,1/2+y,1/2+z
1/2+x,1/2-y,1/2+z
loop_
_atom_site_type_symbol
_atom_site_label
_atom_site_fract_x
_atom_site_fract_y
_atom_site_fract_z
Si Si1 0.600237 0.226231 0.000000
Si Si2 0.902025 0.670999 0.000000
Si Si3 0.674158 0.058290 0.500000
Si Si4 0.598870 0.651753 0.000000
Si Si5 0.304081 0.195924 0.755899
Si Si6 0.301800 0.406467 0.787447
Si Si7 0.599332 0.500000 0.350136
O O1 0.631010 0.287734 0.000000
O O2 0.634714 0.200140 0.874054
O O3 0.500000 0.225697 0.000000
O O4 0.854346 0.690573 0.124997
O O5 0.889828 0.607127 0.000000
O O6 0.000000 0.685631 0.000000
O O7 0.734278 0.065178 0.621096
O O8 0.635615 0.000000 0.500000
O O9 0.632017 0.621090 0.120081
O O10 0.500000 0.653414 0.000000
O O11 0.250000 0.250000 0.750000
O O12 0.246641 0.143415 0.773792
O O13 0.350656 0.448550 0.702197
O O14 0.500000 0.500000 0.311909
O O15 0.601491 0.500000 0.500000
#
# Coordination Sequence:
#
# PCOD9519994 Si02
#       7
#     8   8   8   8  16  16   8
#     4  11  22  36  57  87 119 148 190 241 286 339
#     4  10  22  38  57  85 120 150 187 241 293 340
#     4   9  17  34  59  84 102 137 187 233 278 339
#     4  10  19  33  56  86 114 142 183 240 286 331
#     4  11  21  38  60  84 115 154 195 233 286 348
#     4  10  20  36  57  80 110 148 194 229 281 339
#     4  11  24  39  53  79 118 154 191 233 283 339
#
# _framework density 16.815190000000001
#
# number of rings (size 3 to 8) (size 9 to 14) (size 15 to 20)
#    0.000    1.667    3.333    2.667    1.556    0.222 
#    0.000    1.667    0.000    0.000    0.000    0.778 
#    0.000    0.000    0.000    0.000    0.000    0.000 
#
# Total GULP energy -200814.925892 kJ/mol
# GULP energy per Si atom -5578.192386 kJ/mol
# Density = 1.677692 g / cm^3
# Si number density = 16.815190 Si / 1000 Ang^3
#
#
#
# Elastic Constant Matrix: (Units=GPa)
#
#
# Indices 1 2 3 4 5 6 
#
# 1 95.1236 55.0311 53.7479 0.0000 0.0000 0.0000
# 2 55.0311 136.7840 60.5835 0.0001 0.0000 0.0000
# 3 53.7479 60.5835 119.0921 0.0004 -0.0001 0.0000
# 4 0.0000 0.0001 0.0004 26.8075 -0.0001 0.0000
# 5 0.0000 0.0000 -0.0001 -0.0001 20.2005 0.0000
# 6 0.0000 0.0000 0.0000 0.0000 0.0000 24.6113
#
#
#
# Elastic Compliance Matrix: (Units=1/GPa)
#
#
# Indices 1 2 3 4 5 6 
#
# 1 0.015716 -0.004107 -0.005004 0.000000 0.000000 0.000000
# 2 -0.004107 0.010510 -0.003493 0.000000 0.000000 0.000000
# 3 -0.005004 -0.003493 0.012432 0.000000 0.000000 0.000000
# 4 0.000000 0.000000 0.000000 0.037303 0.000000 0.000000
# 5 0.000000 0.000000 0.000000 0.000000 0.049504 0.000000
# 6 0.000000 0.000000 0.000000 0.000000 0.000000 0.040632
#
#
# Mechanical properties :
#
#
# Convention : Reuss Voigt Hill
#
# Bulk Modulus (GPa) = 74.34402 76.63606 75.49004
# Shear Modulus (GPa) = 25.53796 26.43300 25.98548
#
# Velocity S-wave (km/s) = 3.90133 3.96911 3.93537
# Velocity P-wave (km/s) = 8.03755 8.16576 8.10191
#
# Compressibility (1/GPa) = 0.01345098
#
# Stress axis : x y z
#
# Youngs Moduli (GPa) = 63.63123 95.14589 80.43667
#
# Poissons Ratio (x) = 0.39072 0.40247
# Poissons Ratio (y) = 0.26130 0.28099
# Poissons Ratio (z) = 0.31839 0.33237
#
# Static dielectric constant tensor:
#      x y z
#    x 1.561930 0.000000 0.000000 
#    y 0.000000 1.567650 0.000000 
#    z 0.000000 0.000000 1.547880 
# 
# From -- ./inp_files/6259.got.cif
#   From: 2010.05.17/outbox.cif.g08.bks.cpg/sg71_4_cif.got.tgz:6259.got - 2010.06.03 16:22:01.
