data_PCOD9519862
_publ_section_title
;
Structure prediction by ZEFSAII (Michael W. Deem and Ramdas Pophale) SiO2 
 PCOD9519862
Probable space group: I M M M
;
_chemical_formula_sum "Si O2"
_cell_formula_units_Z 88
_cell_length_a 7.998756
_cell_length_b 23.270245
_cell_length_c 23.286291
_cell_angle_alpha 90.000000
_cell_angle_beta 90.000000
_cell_angle_gamma 90.000000
_cell_volume 4334.347478
_symmetry_space_group_name_H-M "I M M M"
_symmetry_group_IT_number 71
_symmetry_cell_setting 'orthorhombic'
loop_
_space_group_symop_operation_xyz
x,y,z
-x,-y,z
x,-y,-z
-x,y,-z
-x,-y,-z
x,y,-z
-x,y,z
x,-y,z
1/2+x,1/2+y,1/2+z
1/2-x,1/2-y,1/2+z
1/2+x,1/2-y,1/2-z
1/2-x,1/2+y,1/2-z
1/2-x,1/2-y,1/2-z
1/2+x,1/2+y,1/2-z
1/2-x,1/2+y,1/2+z
1/2+x,1/2-y,1/2+z
loop_
_atom_site_type_symbol
_atom_site_label
_atom_site_fract_x
_atom_site_fract_y
_atom_site_fract_z
Si Si1 0.295011 0.436909 0.788818
Si Si2 0.309879 0.708059 0.500000
Si Si3 0.312068 0.153113 0.500000
Si Si4 0.803640 0.911329 0.838142
Si Si5 0.695224 0.208628 0.125489
Si Si6 0.204823 0.000000 0.933581
Si Si7 0.800758 0.160982 0.374111
O O1 0.500000 0.434137 0.788231
O O2 0.249447 0.500000 0.811313
O O3 0.235120 0.431485 0.723155
O O4 0.235035 0.384641 0.828295
O O5 0.500000 0.685154 0.500000
O O6 0.317276 0.777320 0.500000
O O7 0.218428 0.692965 0.558446
O O8 0.500000 0.130687 0.500000
O O9 0.229306 0.139339 0.560881
O O10 0.781914 0.843013 0.841560
O O11 0.000000 0.924737 0.836921
O O12 0.740578 0.945302 0.894479
O O13 0.500000 0.208593 0.140043
O O14 0.764538 0.273481 0.133134
O O15 0.000000 0.000000 0.936751
O O16 0.262712 0.000000 0.000000
O O17 0.000000 0.165496 0.366909
#
# Coordination Sequence:
#
# PCOD9519862 Si02
#       7
#    16   8   8  16  16   8  16
#     4   9  17  33  56  78  99 132 183 230 261 298
#     4   9  17  31  51  73  99 135 176 211 249 304
#     4   9  17  31  52  78 106 133 166 209 256 312
#     4  10  19  33  54  77 102 136 180 224 261 302
#     4  10  20  32  47  75 110 139 166 208 267 323
#     4   9  18  32  51  77 105 134 174 223 263 296
#     4   9  18  33  54  77 105 139 172 213 265 315
#
# _framework density 20.30294
#
# number of rings (size 3 to 8) (size 9 to 14) (size 15 to 20)
#    0.000    2.636    0.909    1.091    1.273    3.636 
#    0.000    1.818    0.000    4.909    0.000    0.000 
#    0.000    0.000    0.000    0.000    0.000    0.000 
#
# Total GULP energy -245196.183730 kJ/mol
# GULP energy per Si atom -5572.640539 kJ/mol
# Density = 2.025673 g / cm^3
# Si number density = 20.302940 Si / 1000 Ang^3
#
#
#
# Elastic Constant Matrix: (Units=GPa)
#
#
# Indices 1 2 3 4 5 6 
#
# 1 12.1551 1.7097 0.3154 0.0000 0.0000 0.0000
# 2 1.7097 130.9653 73.0130 0.0000 0.0000 0.0000
# 3 0.3154 73.0130 106.5599 0.0000 0.0000 0.0000
# 4 0.0000 0.0000 0.0000 123.7679 0.0000 0.0000
# 5 0.0000 0.0000 0.0000 0.0000 5.0541 0.0000
# 6 0.0000 0.0000 0.0000 0.0000 0.0000 14.7970
#
#
#
# Elastic Compliance Matrix: (Units=1/GPa)
#
#
# Indices 1 2 3 4 5 6 
#
# 1 0.082464 -0.001522 0.000799 0.000000 0.000000 0.000000
# 2 -0.001522 0.012383 -0.008480 0.000000 0.000000 0.000000
# 3 0.000799 -0.008480 0.015193 0.000000 0.000000 0.000000
# 4 0.000000 0.000000 0.000000 0.008080 0.000000 0.000000
# 5 0.000000 0.000000 0.000000 0.000000 0.197859 0.000000
# 6 0.000000 0.000000 0.000000 0.000000 0.000000 0.067581
#
#
# Mechanical properties :
#
#
# Convention : Reuss Voigt Hill
#
# Bulk Modulus (GPa) = 10.91316 44.41739 27.66527
# Shear Modulus (GPa) = 11.56042 40.36659 25.96351
#
# Velocity S-wave (km/s) = 2.38879 4.46378 3.57992
# Velocity P-wave (km/s) = 3.60489 6.96361 5.54469
#
# Compressibility (1/GPa) = 0.09163253
#
# Stress axis : x y z
#
# Youngs Moduli (GPa) = 12.12656 80.75441 65.82165
#
# Poissons Ratio (x) = 0.12289 -0.05257
# Poissons Ratio (y) = 0.01845 0.55819
# Poissons Ratio (z) = -0.00968 0.68482
#
# Static dielectric constant tensor:
#      x y z
#    x 1.733050 0.000000 0.000000 
#    y 0.000000 1.731230 0.000000 
#    z 0.000000 0.000000 1.733140 
# 
# From -- ./inp_files/55625.got.cif
#   From: 2010.05.17/outbox.cif.g08.bks.cpg/sg71_28_cif.got.tgz:55625.got - 2010.06.03 16:22:01.
