data_PCOD9519293
_publ_section_title
;
Structure prediction by ZEFSAII (Michael W. Deem and Ramdas Pophale) SiO2 
 PCOD9519293
Probable space group: I M M M
;
_chemical_formula_sum "Si O2"
_cell_formula_units_Z 92
_cell_length_a 17.836172
_cell_length_b 24.226454
_cell_length_c 11.538744
_cell_angle_alpha 90.000000
_cell_angle_beta 90.000000
_cell_angle_gamma 90.000000
_cell_volume 4985.974367
_symmetry_space_group_name_H-M "I M M M"
_symmetry_group_IT_number 71
_symmetry_cell_setting 'orthorhombic'
loop_
_space_group_symop_operation_xyz
x,y,z
-x,-y,z
x,-y,-z
-x,y,-z
-x,-y,-z
x,y,-z
-x,y,z
x,-y,z
1/2+x,1/2+y,1/2+z
1/2-x,1/2-y,1/2+z
1/2+x,1/2-y,1/2-z
1/2-x,1/2+y,1/2-z
1/2-x,1/2-y,1/2-z
1/2+x,1/2+y,1/2-z
1/2-x,1/2+y,1/2+z
1/2+x,1/2-y,1/2+z
loop_
_atom_site_type_symbol
_atom_site_label
_atom_site_fract_x
_atom_site_fract_y
_atom_site_fract_z
Si Si1 0.414015 0.370896 0.000000
Si Si2 0.268655 0.500000 0.211127
Si Si3 0.679443 0.310171 0.800111
Si Si4 0.118990 0.000000 0.500000
Si Si5 0.846089 0.281129 0.129698
Si Si6 0.603987 0.000000 0.631790
Si Si7 0.240514 0.606430 0.365502
Si Si8 0.083946 0.382949 0.251669
O O1 0.369878 0.346318 0.888222
O O2 0.500000 0.351560 0.000000
O O3 0.415599 0.437990 0.000000
O O4 0.334956 0.500000 0.119971
O O5 0.193766 0.500000 0.134971
O O6 0.264114 0.552824 0.293197
O O7 0.755780 0.290283 0.863788
O O8 0.637184 0.259730 0.737132
O O9 0.712242 0.345104 0.692927
O O10 0.887866 0.338666 0.156563
O O11 0.865299 0.261707 0.000000
O O12 0.581585 0.944137 0.696985
O O13 0.578942 0.000000 0.500000
O O14 0.255599 0.600455 0.500000
O O15 0.151745 0.616568 0.344002
O O16 0.000000 0.369262 0.292892
#
# Coordination Sequence:
#
# PCOD9519293 Si02
#       8
#     8   8  16   4  16   8  16  16
#     4  12  25  42  66  96 130 159 194 253 324 381
#     4  10  19  32  60  91 115 146 195 247 298 351
#     4  10  21  38  61  89 118 154 203 254 298 363
#     4  12  21  40  68  94 121 154 192 264 315 382
#     4  10  20  36  61  85 119 161 210 253 299 352
#     4  10  19  31  53  81 114 155 200 246 298 351
#     4  10  20  36  59  86 116 153 200 245 296 354
#     4  10  22  35  51  83 121 160 201 246 301 359
#
# _framework density 18.451758999999999
#
# number of rings (size 3 to 8) (size 9 to 14) (size 15 to 20)
#    0.000    1.739    3.043    1.696    0.000    2.783 
#    1.565    0.000    0.000    4.696    0.000    1.217 
#    0.000    0.000    0.000    0.000    0.000    0.000 
#
# Total GULP energy -256453.633976 kJ/mol
# GULP energy per Si atom -5575.078999 kJ/mol
# Density = 1.840976 g / cm^3
# Si number density = 18.451759 Si / 1000 Ang^3
#
#
#
# Elastic Constant Matrix: (Units=GPa)
#
#
# Indices 1 2 3 4 5 6 
#
# 1 78.6075 28.8868 35.5278 0.0000 0.0000 0.0000
# 2 28.8868 94.1868 32.2732 0.0000 0.0000 0.0000
# 3 35.5278 32.2732 123.6612 0.0000 0.0000 0.0000
# 4 0.0000 0.0000 0.0000 -17.4750 0.0000 0.0000
# 5 0.0000 0.0000 0.0000 0.0000 33.2856 0.0000
# 6 0.0000 0.0000 0.0000 0.0000 0.0000 -12.5321
#
#
#
# Elastic Compliance Matrix: (Units=1/GPa)
#
#
# Indices 1 2 3 4 5 6 
#
# 1 0.015646 -0.003578 -0.003561 0.000000 0.000000 0.000000
# 2 -0.003578 0.012478 -0.002229 0.000000 0.000000 0.000000
# 3 -0.003561 -0.002229 0.009691 0.000000 0.000000 0.000000
# 4 0.000000 0.000000 0.000000 -0.057225 0.000000 0.000000
# 5 0.000000 0.000000 0.000000 0.000000 0.030043 0.000000
# 6 0.000000 0.000000 0.000000 0.000000 0.000000 -0.079795
#
#
# Mechanical properties :
#
#
# Convention : Reuss Voigt Hill
#
# Bulk Modulus (GPa) = 52.41242 54.42567 53.41904
# Shear Modulus (GPa) = -113.46788 13.97355 -49.74716
#
# Velocity S-wave (km/s) = -7.85034 2.75490 -5.19800
# Velocity P-wave (km/s) = 7.32828 6.29917 2.64803
#
# Compressibility (1/GPa) = 0.01907945
#
# Stress axis : x y z
#
# Youngs Moduli (GPa) = 63.91437 80.13937 103.18478
#
# Poissons Ratio (x) = 0.28676 0.36746
# Poissons Ratio (y) = 0.22871 0.22995
# Poissons Ratio (z) = 0.22761 0.17859
#
# Static dielectric constant tensor:
#      x y z
#    x 1.630260 0.000000 0.000000 
#    y 0.000000 1.689170 0.000000 
#    z 0.000000 0.000000 1.594920 
# 
# From -- ./inp_files/24324.got.cif
#   From: 2010.05.17/outbox.cif.g08.bks.cpg/sg71_13_cif.got.tgz:24324.got - 2010.06.03 16:22:01.
