data_PCOD9519282
_publ_section_title
;
Structure prediction by ZEFSAII (Michael W. Deem and Ramdas Pophale) SiO2 
 PCOD9519282
Probable space group: I M M M
;
_chemical_formula_sum "Si O2"
_cell_formula_units_Z 66
_cell_length_a 15.181192
_cell_length_b 19.466110
_cell_length_c 11.057822
_cell_angle_alpha 90.000000
_cell_angle_beta 90.000000
_cell_angle_gamma 90.000000
_cell_volume 3267.793773
_symmetry_space_group_name_H-M "I M M M"
_symmetry_group_IT_number 71
_symmetry_cell_setting 'orthorhombic'
loop_
_space_group_symop_operation_xyz
x,y,z
-x,-y,z
x,-y,-z
-x,y,-z
-x,-y,-z
x,y,-z
-x,y,z
x,-y,z
1/2+x,1/2+y,1/2+z
1/2-x,1/2-y,1/2+z
1/2+x,1/2-y,1/2-z
1/2-x,1/2+y,1/2-z
1/2-x,1/2-y,1/2-z
1/2+x,1/2+y,1/2-z
1/2-x,1/2+y,1/2+z
1/2+x,1/2-y,1/2+z
loop_
_atom_site_type_symbol
_atom_site_label
_atom_site_fract_x
_atom_site_fract_y
_atom_site_fract_z
Si Si1 0.144080 0.185852 0.266968
Si Si2 0.603378 0.644356 0.500000
Si Si3 0.500000 0.924667 0.741161
Si Si4 0.000000 0.500000 0.500000
Si Si5 0.721917 0.922830 0.000000
Si Si6 0.839896 0.337371 0.729222
Si Si7 0.000000 0.079107 0.644225
O O1 0.127263 0.185348 0.121915
O O2 0.123028 0.262901 0.309081
O O3 0.247035 0.174577 0.296515
O O4 0.083967 0.124151 0.314810
O O5 0.500000 0.626969 0.500000
O O6 0.671759 0.580784 0.500000
O O7 0.585306 0.880953 0.706855
O O8 0.500000 0.000000 0.684953
O O9 0.500000 0.940808 0.887963
O O10 0.689004 0.882738 0.115598
O O11 0.685301 0.000000 0.000000
O O12 0.000000 0.075768 0.500000
O O13 0.000000 0.000000 0.690851
#
# Coordination Sequence:
#
# PCOD9519282 Si02
#       7
#    16   8   8   2   8  16   8
#     4  10  22  41  61  90 120 161 213 252 309 364
#     4  10  20  38  60  89 120 159 204 258 305 361
#     4  10  19  31  52  81 122 159 192 237 307 358
#     4   8  20  32  48  88 132 152 190 240 304 388
#     4  10  21  34  56  93 127 157 199 253 316 369
#     4  10  21  36  58  89 122 163 200 253 304 365
#     4  11  25  43  64  92 124 162 204 255 317 384
#
# _framework density 20.197112000000001
#
# number of rings (size 3 to 8) (size 9 to 14) (size 15 to 20)
#    0.364    1.576    1.212    2.182    3.394    5.091 
#    4.364    0.000    0.000    0.000    0.000    0.848 
#    0.000    0.000    0.000    0.000    0.000    0.000 
#
# Total GULP energy -183751.482296 kJ/mol
# GULP energy per Si atom -5568.226736 kJ/mol
# Density = 2.015114 g / cm^3
# Si number density = 20.197112 Si / 1000 Ang^3
#
#
#
# Elastic Constant Matrix: (Units=GPa)
#
#
# Indices 1 2 3 4 5 6 
#
# 1 142.0813 63.1061 -1.9428 0.0000 0.0000 0.0000
# 2 63.1061 197.3637 14.6635 0.0000 0.0000 0.0000
# 3 -1.9428 14.6635 34.6477 0.0000 0.0000 0.0000
# 4 0.0000 0.0000 0.0000 29.4878 0.0000 0.0000
# 5 0.0000 0.0000 0.0000 0.0000 52.4996 0.0000
# 6 0.0000 0.0000 0.0000 0.0000 0.0000 31.5747
#
#
#
# Elastic Compliance Matrix: (Units=1/GPa)
#
#
# Indices 1 2 3 4 5 6 
#
# 1 0.008292 -0.002773 0.001639 0.000000 0.000000 0.000000
# 2 -0.002773 0.006159 -0.002762 0.000000 0.000000 0.000000
# 3 0.001639 -0.002762 0.030123 0.000000 0.000000 0.000000
# 4 0.000000 0.000000 0.000000 0.033912 0.000000 0.000000
# 5 0.000000 0.000000 0.000000 0.000000 0.019048 0.000000
# 6 0.000000 0.000000 0.000000 0.000000 0.000000 0.031671
#
#
# Mechanical properties :
#
#
# Convention : Reuss Voigt Hill
#
# Bulk Modulus (GPa) = 27.18815 58.41627 42.80221
# Shear Modulus (GPa) = 33.49903 42.59682 38.04792
#
# Velocity S-wave (km/s) = 4.07702 4.59743 4.34502
# Velocity P-wave (km/s) = 5.97104 7.56093 6.81253
#
# Compressibility (1/GPa) = 0.03678073
#
# Stress axis : x y z
#
# Youngs Moduli (GPa) = 120.59300 162.37177 33.19754
#
# Poissons Ratio (x) = 0.45029 -0.05440
# Poissons Ratio (y) = 0.33443 0.09169
# Poissons Ratio (z) = -0.19761 0.44846
#
# Static dielectric constant tensor:
#      x y z
#    x 1.829910 0.000000 0.000000 
#    y 0.000000 1.715200 0.000000 
#    z 0.000000 0.000000 1.743690 
# 
# From -- ./inp_files/21623.got.cif
#   From: 2010.05.17/outbox.cif.g08.bks.cpg/sg71_11_cif.got.tgz:21623.got - 2010.06.03 16:22:01.
