data_PCOD9519408
_publ_section_title
;
Structure prediction by ZEFSAII (Michael W. Deem and Ramdas Pophale) SiO2 
 PCOD9519408
Probable space group: I M M M
;
_chemical_formula_sum "Si O2"
_cell_formula_units_Z 88
_cell_length_a 20.058365
_cell_length_b 7.450972
_cell_length_c 28.864909
_cell_angle_alpha 90.000000
_cell_angle_beta 90.000000
_cell_angle_gamma 90.000000
_cell_volume 4313.985230
_symmetry_space_group_name_H-M "I M M M"
_symmetry_group_IT_number 71
_symmetry_cell_setting 'orthorhombic'
loop_
_space_group_symop_operation_xyz
x,y,z
-x,-y,z
x,-y,-z
-x,y,-z
-x,-y,-z
x,y,-z
-x,y,z
x,-y,z
1/2+x,1/2+y,1/2+z
1/2-x,1/2-y,1/2+z
1/2+x,1/2-y,1/2-z
1/2-x,1/2+y,1/2-z
1/2-x,1/2-y,1/2-z
1/2+x,1/2+y,1/2-z
1/2-x,1/2+y,1/2+z
1/2+x,1/2-y,1/2+z
loop_
_atom_site_type_symbol
_atom_site_label
_atom_site_fract_x
_atom_site_fract_y
_atom_site_fract_z
Si Si1 0.680814 0.210029 0.311810
Si Si2 0.686430 0.284869 0.052122
Si Si3 0.833878 0.718272 0.290703
Si Si4 0.425572 0.214124 0.872725
Si Si5 0.331790 0.219984 0.413694
Si Si6 0.923102 0.719009 0.000000
O O1 0.761296 0.225490 0.309587
O O2 0.657740 0.283869 0.262085
O O3 0.655617 0.282280 0.361017
O O4 0.663289 0.000000 0.311551
O O5 0.691913 0.500000 0.049933
O O6 0.624781 0.244869 0.085161
O O7 0.757203 0.221516 0.072223
O O8 0.676804 0.217302 0.000000
O O9 0.833146 0.500000 0.289829
O O10 0.890038 0.781514 0.326069
O O11 0.500000 0.284976 0.880088
O O12 0.430473 0.000000 0.867407
O O13 0.383196 0.274957 0.453737
O O14 0.332088 0.000000 0.413036
O O15 0.922533 0.500000 0.000000
O O16 0.000000 0.776292 0.000000
#
# Coordination Sequence:
#
# PCOD9519408 Si02
#       6
#    16  16  16  16  16   8
#     4   9  16  27  47  70  92 119 153 197 238 272
#     4  10  19  32  51  72  94 123 161 204 242 279
#     4   9  17  29  45  68  93 119 156 195 234 280
#     4  10  21  35  48  65  97 134 161 195 244 292
#     4   9  15  26  44  68  96 124 153 190 235 277
#     4   9  16  26  42  68 102 131 150 178 233 297
#
# _framework density 20.398772000000001
#
# number of rings (size 3 to 8) (size 9 to 14) (size 15 to 20)
#    0.000    2.636    2.727    0.000    0.000    1.091 
#    0.000    2.727    0.000    5.455    0.000    0.000 
#    0.000    7.273    0.000    0.000    0.000    0.000 
#
# Total GULP energy -245490.148672 kJ/mol
# GULP energy per Si atom -5579.321561 kJ/mol
# Density = 2.035234 g / cm^3
# Si number density = 20.398772 Si / 1000 Ang^3
#
#
#
# Elastic Constant Matrix: (Units=GPa)
#
#
# Indices 1 2 3 4 5 6 
#
# 1 106.8686 -8.1519 78.4853 0.0000 0.0000 0.0000
# 2 -8.1519 59.2002 -0.7061 0.0000 0.0000 0.0000
# 3 78.4853 -0.7061 209.3494 0.0000 0.0000 0.0000
# 4 0.0000 0.0000 0.0000 8.8352 0.0000 0.0000
# 5 0.0000 0.0000 0.0000 0.0000 448.8960 0.0000
# 6 0.0000 0.0000 0.0000 0.0000 0.0000 84.8574
#
#
#
# Elastic Compliance Matrix: (Units=1/GPa)
#
#
# Indices 1 2 3 4 5 6 
#
# 1 0.013090 0.001744 -0.004902 0.000000 0.000000 0.000000
# 2 0.001744 0.017125 -0.000596 0.000000 0.000000 0.000000
# 3 -0.004902 -0.000596 0.006612 0.000000 0.000000 0.000000
# 4 0.000000 0.000000 0.000000 0.113184 0.000000 0.000000
# 5 0.000000 0.000000 0.000000 0.000000 0.002228 0.000000
# 6 0.000000 0.000000 0.000000 0.000000 0.000000 0.011784
#
#
# Mechanical properties :
#
#
# Convention : Reuss Voigt Hill
#
# Bulk Modulus (GPa) = 34.10638 57.18585 45.64611
# Shear Modulus (GPa) = 27.57798 128.90377 78.24087
#
# Velocity S-wave (km/s) = 3.68087 7.95796 6.19991
# Velocity P-wave (km/s) = 5.90095 10.60819 8.58355
#
# Compressibility (1/GPa) = 0.02932003
#
# Stress axis : x y z
#
# Youngs Moduli (GPa) = 76.39354 58.39455 151.23304
#
# Poissons Ratio (x) = -0.10184 0.74129
# Poissons Ratio (y) = -0.13324 0.09015
# Poissons Ratio (z) = 0.37445 0.03481
#
# Static dielectric constant tensor:
#      x y z
#    x 1.684830 0.000000 0.000000 
#    y 0.000000 1.832390 0.000000 
#    z 0.000000 0.000000 1.741910 
# 
# From -- ./inp_files/8798.got.cif
#   From: 2010.05.17/outbox.cif.g08.bks.cpg/sg71_5_cif.got.tgz:8798.got - 2010.06.03 16:22:01.
