data_PCOD9519253
_publ_section_title
;
Structure prediction by ZEFSAII (Michael W. Deem and Ramdas Pophale) SiO2 
 PCOD9519253
Probable space group: I M M M
;
_chemical_formula_sum "Si O2"
_cell_formula_units_Z 88
_cell_length_a 23.845998
_cell_length_b 7.723290
_cell_length_c 23.183842
_cell_angle_alpha 90.000000
_cell_angle_beta 90.000000
_cell_angle_gamma 90.000000
_cell_volume 4269.757931
_symmetry_space_group_name_H-M "I M M M"
_symmetry_group_IT_number 71
_symmetry_cell_setting 'orthorhombic'
loop_
_space_group_symop_operation_xyz
x,y,z
-x,-y,z
x,-y,-z
-x,y,-z
-x,-y,-z
x,y,-z
-x,y,z
x,-y,z
1/2+x,1/2+y,1/2+z
1/2-x,1/2-y,1/2+z
1/2+x,1/2-y,1/2-z
1/2-x,1/2+y,1/2-z
1/2-x,1/2-y,1/2-z
1/2+x,1/2+y,1/2-z
1/2-x,1/2+y,1/2+z
1/2+x,1/2-y,1/2+z
loop_
_atom_site_type_symbol
_atom_site_label
_atom_site_fract_x
_atom_site_fract_y
_atom_site_fract_z
Si Si1 0.143253 0.207713 0.662707
Si Si2 0.064798 0.204920 0.000000
Si Si3 0.938571 0.708402 0.764526
Si Si4 0.936124 0.788463 0.563775
Si Si5 0.379490 0.791582 0.377372
Si Si6 0.736173 0.208740 0.682844
O O1 0.112910 0.242786 0.723360
O O2 0.102829 0.278155 0.613777
O O3 0.206111 0.272600 0.654561
O O4 0.146052 0.000000 0.657497
O O5 0.099640 0.249309 0.941751
O O6 0.000000 0.277064 0.000000
O O7 0.059290 0.000000 0.000000
O O8 0.940464 0.500000 0.764250
O O9 0.924909 0.765839 0.829508
O O10 0.000000 0.772902 0.745054
O O11 0.917423 0.737880 0.500000
O O12 0.000000 0.733011 0.572110
O O13 0.936241 0.000000 0.565509
O O14 0.319500 0.728117 0.350759
O O15 0.376882 0.000000 0.375386
O O16 0.750000 0.250000 0.750000
O O17 0.732903 0.000000 0.680446
#
# Coordination Sequence:
#
# PCOD9519253 Si02
#       6
#    16   8  16  16  16  16
#     4  10  19  31  51  80 107 136 177 227 277 322
#     4  11  25  43  63  89 117 147 192 251 306 349
#     4  10  20  33  52  79 109 143 182 223 273 337
#     4   8  14  26  44  68 100 134 166 205 257 313
#     4  10  21  39  60  82 112 153 193 229 282 353
#     4  10  20  35  56  82 110 143 182 224 274 332
#
# _framework density 20.610067999999998
#
# number of rings (size 3 to 8) (size 9 to 14) (size 15 to 20)
#    0.000    2.273    1.818    1.909    0.000    4.000 
#    1.636    0.000    0.000    0.545    0.000    2.545 
#    0.000    0.000    0.000    0.000    0.000    0.000 
#
# Total GULP energy -245236.868767 kJ/mol
# GULP energy per Si atom -5573.565199 kJ/mol
# Density = 2.056316 g / cm^3
# Si number density = 20.610068 Si / 1000 Ang^3
#
#
#
# Elastic Constant Matrix: (Units=GPa)
#
#
# Indices 1 2 3 4 5 6 
#
# 1 132.6198 10.9115 74.9167 0.0000 0.0000 0.0000
# 2 10.9115 32.0082 0.1568 0.0000 0.0000 0.0000
# 3 74.9167 0.1568 129.7465 0.0000 0.0000 0.0000
# 4 0.0000 0.0000 0.0000 20.6998 0.0000 0.0000
# 5 0.0000 0.0000 0.0000 0.0000 16.3151 0.0000
# 6 0.0000 0.0000 0.0000 0.0000 0.0000 13.1053
#
#
#
# Elastic Compliance Matrix: (Units=1/GPa)
#
#
# Indices 1 2 3 4 5 6 
#
# 1 0.011668 -0.003945 -0.006732 0.000000 0.000000 0.000000
# 2 -0.003945 0.032576 0.002238 0.000000 0.000000 0.000000
# 3 -0.006732 0.002238 0.011592 0.000000 0.000000 0.000000
# 4 0.000000 0.000000 0.000000 0.048310 0.000000 0.000000
# 5 0.000000 0.000000 0.000000 0.000000 0.061293 0.000000
# 6 0.000000 0.000000 0.000000 0.000000 0.000000 0.076305
#
#
# Mechanical properties :
#
#
# Convention : Reuss Voigt Hill
#
# Bulk Modulus (GPa) = 25.66853 51.81606 38.74229
# Shear Modulus (GPa) = 18.40896 23.91668 21.16282
#
# Velocity S-wave (km/s) = 2.99189 3.41021 3.20788
# Velocity P-wave (km/s) = 4.94132 6.37980 5.70607
#
# Compressibility (1/GPa) = 0.03895821
#
# Stress axis : x y z
#
# Youngs Moduli (GPa) = 85.70406 30.69770 86.26634
#
# Poissons Ratio (x) = 0.12109 0.58078
# Poissons Ratio (y) = 0.33807 -0.19309
# Poissons Ratio (z) = 0.57700 -0.06871
#
# Static dielectric constant tensor:
#      x y z
#    x 1.778570 0.000000 0.000000 
#    y 0.000000 1.770010 0.000000 
#    z 0.000000 0.000000 1.741870 
# 
# From -- ./inp_files/55530.got.cif
#   From: 2010.05.17/outbox.cif.g08.bks.cpg/sg71_28_cif.got.tgz:55530.got - 2010.06.03 16:22:01.
