data_PCOD9519580
_publ_section_title
;
Structure prediction by ZEFSAII (Michael W. Deem and Ramdas Pophale) SiO2 
 PCOD9519580
Probable space group: I M M M
;
_chemical_formula_sum "Si O2"
_cell_formula_units_Z 96
_cell_length_a 23.784869
_cell_length_b 20.994404
_cell_length_c 10.370082
_cell_angle_alpha 90.000000
_cell_angle_beta 90.000000
_cell_angle_gamma 90.000000
_cell_volume 5178.291620
_symmetry_space_group_name_H-M "I M M M"
_symmetry_group_IT_number 71
_symmetry_cell_setting 'orthorhombic'
loop_
_space_group_symop_operation_xyz
x,y,z
-x,-y,z
x,-y,-z
-x,y,-z
-x,-y,-z
x,y,-z
-x,y,z
x,-y,z
1/2+x,1/2+y,1/2+z
1/2-x,1/2-y,1/2+z
1/2+x,1/2-y,1/2-z
1/2-x,1/2+y,1/2-z
1/2-x,1/2-y,1/2-z
1/2+x,1/2+y,1/2-z
1/2-x,1/2+y,1/2+z
1/2+x,1/2-y,1/2+z
loop_
_atom_site_type_symbol
_atom_site_label
_atom_site_fract_x
_atom_site_fract_y
_atom_site_fract_z
Si Si1 0.832479 0.779708 0.347245
Si Si2 0.432323 0.570922 0.000000
Si Si3 0.567194 0.343919 0.247892
Si Si4 0.431857 0.426006 0.500000
Si Si5 0.063855 0.422268 0.146409
Si Si6 0.651684 0.075972 0.143515
Si Si7 0.250694 0.659847 0.648567
O O1 0.834807 0.794943 0.500000
O O2 0.894158 0.782868 0.282778
O O3 0.797889 0.713970 0.337994
O O4 0.796302 0.827788 0.258129
O O5 0.419187 0.609716 0.871874
O O6 0.408216 0.500000 0.000000
O O7 0.500000 0.565568 0.000000
O O8 0.500000 0.330820 0.250783
O O9 0.582874 0.383933 0.375147
O O10 0.411349 0.500000 0.500000
O O11 0.500000 0.430554 0.500000
O O12 0.064665 0.500000 0.146556
O O13 0.109348 0.399363 0.248377
O O14 0.000000 0.403406 0.178970
O O15 0.076280 0.402026 0.000000
O O16 0.715815 0.095488 0.167399
O O17 0.646757 0.000000 0.142082
O O18 0.636882 0.100139 0.000000
O O19 0.272107 0.663397 0.500000
#
# Coordination Sequence:
#
# PCOD9519580 Si02
#       7
#    16   8  16   8  16  16  16
#     4  10  20  36  56  77 100 133 179 216 253 309
#     4   9  16  28  48  73 104 140 169 198 248 310
#     4  10  19  32  53  79 107 137 170 216 263 308
#     4   9  18  32  50  75 108 144 177 204 248 318
#     4   8  14  25  43  68  98 131 162 193 239 301
#     4   9  17  31  51  74 100 128 164 211 260 305
#     4   9  20  37  56  74  98 137 178 217 258 308
#
# _framework density 18.538933
#
# number of rings (size 3 to 8) (size 9 to 14) (size 15 to 20)
#    0.000    2.833    0.833    1.000    1.167    3.000 
#    0.000    4.167    0.000    3.000    0.000    0.000 
#    0.000    0.000    0.000    0.000    0.000    0.000 
#
# Total GULP energy -267215.515756 kJ/mol
# GULP energy per Si atom -5566.989912 kJ/mol
# Density = 1.849674 g / cm^3
# Si number density = 18.538933 Si / 1000 Ang^3
#
#
#
# Elastic Constant Matrix: (Units=GPa)
#
#
# Indices 1 2 3 4 5 6 
#
# 1 65.8250 11.4860 42.9640 0.0000 0.0000 0.0000
# 2 11.4860 7.4621 14.3517 0.0000 0.0000 0.0000
# 3 42.9640 14.3517 110.1519 0.0000 0.0000 0.0000
# 4 0.0000 0.0000 0.0000 0.1300 0.0000 0.0000
# 5 0.0000 0.0000 0.0000 0.0000 32.3590 0.0000
# 6 0.0000 0.0000 0.0000 0.0000 0.0000 20.7775
#
#
#
# Elastic Compliance Matrix: (Units=1/GPa)
#
#
# Indices 1 2 3 4 5 6 
#
# 1 0.023328 -0.024563 -0.005899 0.000000 0.000000 0.000000
# 2 -0.024563 0.204684 -0.017088 0.000000 0.000000 0.000000
# 3 -0.005899 -0.017088 0.013605 0.000000 0.000000 0.000000
# 4 0.000000 0.000000 0.000000 7.690394 0.000000 0.000000
# 5 0.000000 0.000000 0.000000 0.000000 0.030903 0.000000
# 6 0.000000 0.000000 0.000000 0.000000 0.000000 0.048129
#
#
# Mechanical properties :
#
#
# Convention : Reuss Voigt Hill
#
# Bulk Modulus (GPa) = 6.82505 35.67138 21.24822
# Shear Modulus (GPa) = 0.61312 18.29579 9.45445
#
# Velocity S-wave (km/s) = 0.57571 3.14488 2.26072
# Velocity P-wave (km/s) = 2.03258 5.69826 4.27794
#
# Compressibility (1/GPa) = 0.14651899
#
# Stress axis : x y z
#
# Youngs Moduli (GPa) = 42.86731 4.88559 73.49994
#
# Poissons Ratio (x) = 0.12000 0.43355
# Poissons Ratio (y) = 1.05293 1.25595
# Poissons Ratio (z) = 0.25286 0.08348
#
# Static dielectric constant tensor:
#      x y z
#    x 1.668170 0.000000 0.000000 
#    y 0.000000 1.680440 0.000000 
#    z 0.000000 0.000000 1.642640 
# 
# From -- ./inp_files/12955.got.cif
#   From: 2010.05.17/outbox.cif.g08.bks.cpg/sg71_7_cif.got.tgz:12955.got - 2010.06.03 16:22:01.
