data_PCOD9519741
_publ_section_title
;
Structure prediction by ZEFSAII (Michael W. Deem and Ramdas Pophale) SiO2 
 PCOD9519741
Probable space group: I M M M
;
_chemical_formula_sum "Si O2"
_cell_formula_units_Z 112
_cell_length_a 24.656767
_cell_length_b 16.327278
_cell_length_c 15.025850
_cell_angle_alpha 90.000000
_cell_angle_beta 90.000000
_cell_angle_gamma 90.000000
_cell_volume 6049.074979
_symmetry_space_group_name_H-M "I M M M"
_symmetry_group_IT_number 71
_symmetry_cell_setting 'orthorhombic'
loop_
_space_group_symop_operation_xyz
x,y,z
-x,-y,z
x,-y,-z
-x,y,-z
-x,-y,-z
x,y,-z
-x,y,z
x,-y,z
1/2+x,1/2+y,1/2+z
1/2-x,1/2-y,1/2+z
1/2+x,1/2-y,1/2-z
1/2-x,1/2+y,1/2-z
1/2-x,1/2-y,1/2-z
1/2+x,1/2+y,1/2-z
1/2-x,1/2+y,1/2+z
1/2+x,1/2-y,1/2+z
loop_
_atom_site_type_symbol
_atom_site_label
_atom_site_fract_x
_atom_site_fract_y
_atom_site_fract_z
Si Si1 0.062128 0.089057 0.844312
Si Si2 0.752508 0.094515 0.397795
Si Si3 0.145263 0.851775 0.706245
Si Si4 0.665924 0.813106 0.280333
Si Si5 0.363490 0.902481 0.897740
Si Si6 0.436638 0.775167 0.398304
Si Si7 0.559398 0.239887 0.896315
O O1 0.107668 0.093610 0.768595
O O2 0.068522 0.175548 0.894947
O O3 0.000000 0.091385 0.809326
O O4 0.067419 0.000000 0.890630
O O5 0.756105 0.120606 0.500000
O O6 0.811360 0.102717 0.353280
O O7 0.709132 0.148215 0.345835
O O8 0.735246 0.000000 0.393892
O O9 0.176984 0.782631 0.762728
O O10 0.103435 0.796908 0.649532
O O11 0.667457 0.862207 0.186314
O O12 0.606227 0.812389 0.327997
O O13 0.420402 0.853792 0.892260
O O14 0.367310 0.000000 0.887479
O O15 0.342952 0.886242 0.000000
O O16 0.425038 0.801537 0.500000
O O17 0.500000 0.793941 0.378307
O O18 0.500000 0.250008 0.855948
O O19 0.557470 0.261874 0.000000
#
# Coordination Sequence:
#
# PCOD9519741 Si02
#       7
#    16  16  16  16  16  16  16
#     4   9  17  29  48  75 105 136 168 205 253 305
#     4  11  23  37  54  75 100 133 174 219 263 306
#     4  10  19  33  51  72  99 132 170 212 254 301
#     4  10  20  35  56  78 102 135 172 213 256 305
#     4   9  18  32  51  77 107 136 166 203 251 307
#     4   9  18  33  54  79 106 137 173 212 252 297
#     4   9  17  29  47  71  99 132 167 203 244 293
#
# _framework density 18.515228
#
# number of rings (size 3 to 8) (size 9 to 14) (size 15 to 20)
#    0.000    2.429    0.000    2.571    0.000    4.571 
#    0.000    2.857    0.000    2.143    0.000   11.000 
#    0.000    0.000    0.000    0.000    0.000    0.286 
#
# Total GULP energy -311869.982869 kJ/mol
# GULP energy per Si atom -5569.106837 kJ/mol
# Density = 1.847309 g / cm^3
# Si number density = 18.515228 Si / 1000 Ang^3
#
#
#
# Elastic Constant Matrix: (Units=GPa)
#
#
# Indices 1 2 3 4 5 6 
#
# 1 68.3112 19.7507 40.2071 0.0000 0.0000 0.0000
# 2 19.7507 65.4181 28.2254 0.0000 0.0000 0.0000
# 3 40.2071 28.2254 105.2318 0.0000 0.0000 0.0000
# 4 0.0000 0.0000 0.0000 16.7502 0.0000 0.0000
# 5 0.0000 0.0000 0.0000 0.0000 27.3433 0.0000
# 6 0.0000 0.0000 0.0000 0.0000 0.0000 14.0565
#
#
#
# Elastic Compliance Matrix: (Units=1/GPa)
#
#
# Indices 1 2 3 4 5 6 
#
# 1 0.019395 -0.003006 -0.006604 0.000000 0.000000 0.000000
# 2 -0.003006 0.017753 -0.003613 0.000000 0.000000 0.000000
# 3 -0.006604 -0.003613 0.012995 0.000000 0.000000 0.000000
# 4 0.000000 0.000000 0.000000 0.059701 0.000000 0.000000
# 5 0.000000 0.000000 0.000000 0.000000 0.036572 0.000000
# 6 0.000000 0.000000 0.000000 0.000000 0.000000 0.071141
#
#
# Mechanical properties :
#
#
# Convention : Reuss Voigt Hill
#
# Bulk Modulus (GPa) = 42.20067 46.14748 44.17407
# Shear Modulus (GPa) = 19.84888 21.68187 20.76537
#
# Velocity S-wave (km/s) = 3.27774 3.42574 3.35256
# Velocity P-wave (km/s) = 6.09645 6.37384 6.23668
#
# Compressibility (1/GPa) = 0.02369631
#
# Stress axis : x y z
#
# Youngs Moduli (GPa) = 51.55908 56.32912 76.95103
#
# Poissons Ratio (x) = 0.16934 0.50820
# Poissons Ratio (y) = 0.15500 0.27803
# Poissons Ratio (z) = 0.34051 0.20352
#
# Static dielectric constant tensor:
#      x y z
#    x 1.638590 0.000000 0.000000 
#    y 0.000000 1.636790 0.000000 
#    z 0.000000 0.000000 1.669960 
# 
# From -- ./inp_files/39257.got.cif
#   From: 2010.05.17/outbox.cif.g08.bks.cpg/sg71_20_cif.got.tgz:39257.got - 2010.06.03 16:22:01.
