data_PCOD9519666
_publ_section_title
;
Structure prediction by ZEFSAII (Michael W. Deem and Ramdas Pophale) SiO2 
 PCOD9519666
Probable space group: I M M M
;
_chemical_formula_sum "Si O2"
_cell_formula_units_Z 120
_cell_length_a 22.603020
_cell_length_b 12.510674
_cell_length_c 23.658893
_cell_angle_alpha 90.000000
_cell_angle_beta 90.000000
_cell_angle_gamma 90.000000
_cell_volume 6690.238450
_symmetry_space_group_name_H-M "I M M M"
_symmetry_group_IT_number 71
_symmetry_cell_setting 'orthorhombic'
loop_
_space_group_symop_operation_xyz
x,y,z
-x,-y,z
x,-y,-z
-x,y,-z
-x,-y,-z
x,y,-z
-x,y,z
x,-y,z
1/2+x,1/2+y,1/2+z
1/2-x,1/2-y,1/2+z
1/2+x,1/2-y,1/2-z
1/2-x,1/2+y,1/2-z
1/2-x,1/2-y,1/2-z
1/2+x,1/2+y,1/2-z
1/2-x,1/2+y,1/2+z
1/2+x,1/2-y,1/2+z
loop_
_atom_site_type_symbol
_atom_site_label
_atom_site_fract_x
_atom_site_fract_y
_atom_site_fract_z
Si Si1 0.430372 0.000000 0.431744
Si Si2 0.609274 0.767358 0.434203
Si Si3 0.155759 0.193373 0.751695
Si Si4 0.567751 0.373951 0.340064
Si Si5 0.753237 0.795524 0.934991
Si Si6 0.848416 0.876277 0.435303
Si Si7 0.434100 0.625062 0.842002
Si Si8 0.275175 0.119816 0.189051
O O1 0.402789 0.112396 0.411781
O O2 0.500000 0.000000 0.418844
O O3 0.423262 0.000000 0.500000
O O4 0.592537 0.767272 0.500000
O O5 0.573195 0.675924 0.402006
O O6 0.678546 0.738565 0.430195
O O7 0.111945 0.201570 0.804870
O O8 0.112619 0.133244 0.708466
O O9 0.213565 0.135104 0.776663
O O10 0.180229 0.295516 0.717603
O O11 0.500000 0.368056 0.319775
O O12 0.585337 0.500000 0.337565
O O13 0.710867 0.692353 0.931064
O O14 0.736968 0.860826 0.878013
O O15 0.745041 0.839861 0.000000
O O16 0.868255 0.874702 0.500000
O O17 0.899638 0.829062 0.395909
O O18 0.836135 0.000000 0.419739
O O19 0.500000 0.669351 0.831051
O O20 0.441514 0.500000 0.853826
O O21 0.297030 0.000000 0.196762
#
# Coordination Sequence:
#
# PCOD9519666 Si02
#       8
#     8  16  16  16  16  16  16  16
#     4   9  18  34  54  76 112 158 197 239 284 340
#     4  10  21  36  57  85 116 155 201 244 294 346
#     4  11  22  39  57  81 113 148 186 230 280 339
#     4  11  23  39  60  84 114 152 194 243 291 340
#     4  10  20  36  58  86 114 146 186 235 292 341
#     4   9  18  32  52  82 117 144 175 227 283 336
#     4  10  19  32  55  83 110 147 188 224 273 337
#     4  11  23  40  61  84 112 146 187 235 288 345
#
# _framework density 17.936579999999999
#
# number of rings (size 3 to 8) (size 9 to 14) (size 15 to 20)
#    0.000    1.800    2.667    2.000    0.933    2.667 
#    1.200    3.333    0.000    1.200    0.000    0.000 
#    0.000    2.133    0.000    0.000    0.000    0.000 
#
# Total GULP energy -334055.568152 kJ/mol
# GULP energy per Si atom -5567.592803 kJ/mol
# Density = 1.789576 g / cm^3
# Si number density = 17.936580 Si / 1000 Ang^3
#
#
#
# Elastic Constant Matrix: (Units=GPa)
#
#
# Indices 1 2 3 4 5 6 
#
# 1 77.7050 17.1468 19.0154 0.0000 0.0000 0.0000
# 2 17.1468 57.7199 24.4542 0.0000 0.0000 0.0000
# 3 19.0154 24.4542 66.2032 0.0000 0.0000 0.0000
# 4 0.0000 0.0000 0.0000 15.1120 0.0000 0.0000
# 5 0.0000 0.0000 0.0000 0.0000 2.4876 0.0000
# 6 0.0000 0.0000 0.0000 0.0000 0.0000 6.7852
#
#
#
# Elastic Compliance Matrix: (Units=1/GPa)
#
#
# Indices 1 2 3 4 5 6 
#
# 1 0.014257 -0.002964 -0.003000 0.000000 0.000000 0.000000
# 2 -0.002964 0.021156 -0.006963 0.000000 0.000000 0.000000
# 3 -0.003000 -0.006963 0.018539 0.000000 0.000000 0.000000
# 4 0.000000 0.000000 0.000000 0.066172 0.000000 0.000000
# 5 0.000000 0.000000 0.000000 0.000000 0.402001 0.000000
# 6 0.000000 0.000000 0.000000 0.000000 0.000000 0.147381
#
#
# Mechanical properties :
#
#
# Convention : Reuss Voigt Hill
#
# Bulk Modulus (GPa) = 35.59130 35.87344 35.73237
# Shear Modulus (GPa) = 7.09495 14.27774 10.68634
#
# Velocity S-wave (km/s) = 1.99102 2.82443 2.44352
# Velocity P-wave (km/s) = 5.01712 5.53896 5.28449
#
# Compressibility (1/GPa) = 0.02809675
#
# Stress axis : x y z
#
# Youngs Moduli (GPa) = 70.13856 47.26856 53.94105
#
# Poissons Ratio (x) = 0.14012 0.16183
# Poissons Ratio (y) = 0.20792 0.37560
# Poissons Ratio (z) = 0.21043 0.32913
#
# Static dielectric constant tensor:
#      x y z
#    x 1.649610 0.000000 0.000000 
#    y 0.000000 1.603640 0.000000 
#    z 0.000000 0.000000 1.710000 
# 
# From -- ./inp_files/61365.got.cif
#   From: 2010.05.17/outbox.cif.g08.bks.cpg/sg71_31_cif.got.tgz:61365.got - 2010.06.03 16:22:01.
