data_PCOD9519528
_publ_section_title
;
Structure prediction by ZEFSAII (Michael W. Deem and Ramdas Pophale) SiO2 
 PCOD9519528
Probable space group: I M M M
;
_chemical_formula_sum "Si O2"
_cell_formula_units_Z 104
_cell_length_a 9.193265
_cell_length_b 23.896299
_cell_length_c 27.591677
_cell_angle_alpha 90.000000
_cell_angle_beta 90.000000
_cell_angle_gamma 90.000000
_cell_volume 6061.477816
_symmetry_space_group_name_H-M "I M M M"
_symmetry_group_IT_number 71
_symmetry_cell_setting 'orthorhombic'
loop_
_space_group_symop_operation_xyz
x,y,z
-x,-y,z
x,-y,-z
-x,y,-z
-x,-y,-z
x,y,-z
-x,y,z
x,-y,z
1/2+x,1/2+y,1/2+z
1/2-x,1/2-y,1/2+z
1/2+x,1/2-y,1/2-z
1/2-x,1/2+y,1/2-z
1/2-x,1/2-y,1/2-z
1/2+x,1/2+y,1/2-z
1/2-x,1/2+y,1/2+z
1/2+x,1/2-y,1/2+z
loop_
_atom_site_type_symbol
_atom_site_label
_atom_site_fract_x
_atom_site_fract_y
_atom_site_fract_z
Si Si1 0.670380 0.768237 0.299071
Si Si2 0.163748 0.932767 0.000000
Si Si3 0.835014 0.263810 0.443416
Si Si4 0.674470 0.933434 0.443991
Si Si5 0.172746 0.564392 0.400148
Si Si6 0.834152 0.163770 0.871729
Si Si7 0.330068 0.655243 0.875904
O O1 0.500000 0.781636 0.291162
O O2 0.750000 0.750000 0.250000
O O3 0.677498 0.712538 0.332213
O O4 0.748268 0.818506 0.329012
O O5 0.253345 0.920580 0.048449
O O6 0.000000 0.909145 0.000000
O O7 0.150583 0.000000 0.000000
O O8 0.812094 0.256007 0.500000
O O9 0.720868 0.305549 0.420091
O O10 0.825127 0.205371 0.415304
O O11 0.000000 0.285725 0.435640
O O12 0.716605 0.918519 0.500000
O O13 0.500000 0.924774 0.440293
O O14 0.754434 0.896837 0.403138
O O15 0.701889 0.000000 0.438198
O O16 0.211116 0.500000 0.388421
O O17 0.234087 0.610006 0.363129
O O18 0.000000 0.567862 0.404506
O O19 0.000000 0.145270 0.875858
O O20 0.500000 0.643901 0.864894
#
# Coordination Sequence:
#
# PCOD9519528 Si02
#       7
#    16   8  16  16  16  16  16
#     4  10  21  38  59  81 103 130 166 213 268 323
#     4   9  17  29  45  65  91 127 169 207 240 275
#     4   9  18  31  46  67  99 136 169 205 250 299
#     4   9  18  32  50  75 111 154 192 223 260 310
#     4  10  20  33  49  69  96 132 170 205 244 292
#     4  10  21  34  50  74 100 128 165 207 254 304
#     4  10  19  32  52  78 106 137 175 218 263 314
#
# _framework density 17.157533000000001
#
# number of rings (size 3 to 8) (size 9 to 14) (size 15 to 20)
#    0.000    2.385    0.000    3.000    1.077    5.846 
#    0.000    0.769    0.000    0.923    0.000    4.308 
#    0.000    0.000    0.000    0.000    0.000    0.000 
#
# Total GULP energy -289891.033817 kJ/mol
# GULP energy per Si atom -5574.827573 kJ/mol
# Density = 1.711848 g / cm^3
# Si number density = 17.157533 Si / 1000 Ang^3
#
#
#
# Elastic Constant Matrix: (Units=GPa)
#
#
# Indices 1 2 3 4 5 6 
#
# 1 110.4638 47.8885 53.5844 0.0000 0.0000 0.0000
# 2 47.8885 72.1361 27.8501 0.0000 0.0000 0.0000
# 3 53.5844 27.8501 84.1007 0.0000 0.0000 0.0000
# 4 0.0000 0.0000 0.0000 20.5098 0.0000 0.0000
# 5 0.0000 0.0000 0.0000 0.0000 20.8527 0.0000
# 6 0.0000 0.0000 0.0000 0.0000 0.0000 31.8474
#
#
#
# Elastic Compliance Matrix: (Units=1/GPa)
#
#
# Indices 1 2 3 4 5 6 
#
# 1 0.016160 -0.007743 -0.007732 0.000000 0.000000 0.000000
# 2 -0.007743 0.019605 -0.001559 0.000000 0.000000 0.000000
# 3 -0.007732 -0.001559 0.017333 0.000000 0.000000 0.000000
# 4 0.000000 0.000000 0.000000 0.048757 0.000000 0.000000
# 5 0.000000 0.000000 0.000000 0.000000 0.047955 0.000000
# 6 0.000000 0.000000 0.000000 0.000000 0.000000 0.031400
#
#
# Mechanical properties :
#
#
# Convention : Reuss Voigt Hill
#
# Bulk Modulus (GPa) = 52.54798 58.37185 55.45992
# Shear Modulus (GPa) = 22.56089 23.80049 23.18069
#
# Velocity S-wave (km/s) = 3.63013 3.72852 3.67965
# Velocity P-wave (km/s) = 6.94721 7.25471 7.10262
#
# Compressibility (1/GPa) = 0.01903023
#
# Stress axis : x y z
#
# Youngs Moduli (GPa) = 61.87979 51.00808 57.69222
#
# Poissons Ratio (x) = 0.39495 0.44610
# Poissons Ratio (y) = 0.47913 0.08993
# Poissons Ratio (z) = 0.47848 0.07951
#
# Static dielectric constant tensor:
#      x y z
#    x 1.597170 0.000000 0.000000 
#    y 0.000000 1.595760 0.000000 
#    z 0.000000 0.000000 1.570260 
# 
# From -- ./inp_files/13258.got.cif
#   From: 2010.05.17/outbox.cif.g08.bks.cpg/sg71_7_cif.got.tgz:13258.got - 2010.06.03 16:22:01.
