data_PCOD9519129
_publ_section_title
;
Structure prediction by ZEFSAII (Michael W. Deem and Ramdas Pophale) SiO2 
 PCOD9519129
Probable space group: I M M M
;
_chemical_formula_sum "Si O2"
_cell_formula_units_Z 64
_cell_length_a 20.645050
_cell_length_b 20.213556
_cell_length_c 7.654937
_cell_angle_alpha 90.000000
_cell_angle_beta 90.000000
_cell_angle_gamma 90.000000
_cell_volume 3194.480797
_symmetry_space_group_name_H-M "I M M M"
_symmetry_group_IT_number 71
_symmetry_cell_setting 'orthorhombic'
loop_
_space_group_symop_operation_xyz
x,y,z
-x,-y,z
x,-y,-z
-x,y,-z
-x,-y,-z
x,y,-z
-x,y,z
x,-y,z
1/2+x,1/2+y,1/2+z
1/2-x,1/2-y,1/2+z
1/2+x,1/2-y,1/2-z
1/2-x,1/2+y,1/2-z
1/2-x,1/2-y,1/2-z
1/2+x,1/2+y,1/2-z
1/2-x,1/2+y,1/2+z
1/2+x,1/2-y,1/2+z
loop_
_atom_site_type_symbol
_atom_site_label
_atom_site_fract_x
_atom_site_fract_y
_atom_site_fract_z
Si Si1 0.253362 0.850221 0.792534
Si Si2 0.000000 0.254088 0.804222
Si Si3 0.246569 0.000000 0.291331
Si Si4 0.500000 0.392946 0.788062
Si Si5 0.602536 0.500000 0.211969
Si Si6 0.358453 0.741556 0.296025
O O1 0.308115 0.801930 0.717568
O O2 0.183082 0.821932 0.725607
O O3 0.270650 0.926842 0.759465
O O4 0.252148 0.839834 0.000000
O O5 0.928378 0.264196 0.720087
O O6 0.000000 0.175080 0.807939
O O7 0.000000 0.284382 0.000000
O O8 0.173808 0.000000 0.217744
O O9 0.246163 0.000000 0.500000
O O10 0.561916 0.436081 0.738582
O O11 0.500000 0.383763 0.000000
O O12 0.604675 0.500000 0.000000
O O13 0.372049 0.727873 0.500000
#
# Coordination Sequence:
#
# PCOD9519129 Si02
#       6
#    16   8   8   8   8  16
#     4  10  20  34  52  75 103 133 169 210 249 294
#     4  10  19  31  49  73  99 126 161 204 248 294
#     4  11  20  31  50  73  99 132 169 206 250 299
#     4   9  16  28  44  64  95 131 165 196 231 281
#     4   8  16  28  42  64  95 131 165 196 231 282
#     4   9  19  35  53  74 102 135 168 205 251 300
#
# _framework density 20.034552999999999
#
# number of rings (size 3 to 8) (size 9 to 14) (size 15 to 20)
#    0.000    2.500    0.000    3.375    0.000    2.000 
#    0.000    2.500    0.000    0.750    0.000    5.250 
#    0.000    0.000    0.000    0.000    0.000    0.000 
#
# Total GULP energy -178199.874221 kJ/mol
# GULP energy per Si atom -5568.746069 kJ/mol
# Density = 1.998895 g / cm^3
# Si number density = 20.034553 Si / 1000 Ang^3
#
#
#
# Elastic Constant Matrix: (Units=GPa)
#
#
# Indices 1 2 3 4 5 6 
#
# 1 123.3954 26.4751 2.6100 0.0000 0.0000 0.0000
# 2 26.4751 97.8080 -5.2258 0.0000 0.0000 0.0000
# 3 2.6100 -5.2258 51.3350 0.0000 0.0000 0.0000
# 4 0.0000 0.0000 0.0000 20.3598 0.0000 0.0000
# 5 0.0000 0.0000 0.0000 0.0000 9.5702 0.0000
# 6 0.0000 0.0000 0.0000 0.0000 0.0000 -31.9071
#
#
#
# Elastic Compliance Matrix: (Units=1/GPa)
#
#
# Indices 1 2 3 4 5 6 
#
# 1 0.008627 -0.002372 -0.000680 0.000000 0.000000 0.000000
# 2 -0.002372 0.010932 0.001233 0.000000 0.000000 0.000000
# 3 -0.000680 0.001233 0.019640 0.000000 0.000000 0.000000
# 4 0.000000 0.000000 0.000000 0.049116 0.000000 0.000000
# 5 0.000000 0.000000 0.000000 0.000000 0.104491 0.000000
# 6 0.000000 0.000000 0.000000 0.000000 0.000000 -0.031341
#
#
# Mechanical properties :
#
#
# Convention : Reuss Voigt Hill
#
# Bulk Modulus (GPa) = 28.11928 35.58411 31.85170
# Shear Modulus (GPa) = 28.25550 16.18318 22.21934
#
# Velocity S-wave (km/s) = 3.75952 2.84520 3.33385
# Velocity P-wave (km/s) = 5.73683 5.34729 5.54548
#
# Compressibility (1/GPa) = 0.03556278
#
# Stress axis : x y z
#
# Youngs Moduli (GPa) = 115.91175 91.47486 50.91647
#
# Poissons Ratio (x) = 0.21694 0.03463
# Poissons Ratio (y) = 0.27490 -0.06280
# Poissons Ratio (z) = 0.07883 -0.11283
#
# Static dielectric constant tensor:
#      x y z
#    x 1.792930 0.000000 0.000000 
#    y 0.000000 1.706140 0.000000 
#    z 0.000000 0.000000 1.742770 
# 
# From -- ./inp_files/9583.got.cif
#   From: 2010.05.17/outbox.cif.g08.bks.cpg/sg71_5_cif.got.tgz:9583.got - 2010.06.03 16:22:01.
