data_PCOD9519812
_publ_section_title
;
Structure prediction by ZEFSAII (Michael W. Deem and Ramdas Pophale) SiO2 
 PCOD9519812
Probable space group: I M M M
;
_chemical_formula_sum "Si O2"
_cell_formula_units_Z 88
_cell_length_a 7.758735
_cell_length_b 31.496743
_cell_length_c 19.507625
_cell_angle_alpha 90.000000
_cell_angle_beta 90.000000
_cell_angle_gamma 90.000000
_cell_volume 4767.173563
_symmetry_space_group_name_H-M "I M M M"
_symmetry_group_IT_number 71
_symmetry_cell_setting 'orthorhombic'
loop_
_space_group_symop_operation_xyz
x,y,z
-x,-y,z
x,-y,-z
-x,y,-z
-x,-y,-z
x,y,-z
-x,y,z
x,-y,z
1/2+x,1/2+y,1/2+z
1/2-x,1/2-y,1/2+z
1/2+x,1/2-y,1/2-z
1/2-x,1/2+y,1/2-z
1/2-x,1/2-y,1/2-z
1/2+x,1/2+y,1/2-z
1/2-x,1/2+y,1/2+z
1/2+x,1/2-y,1/2+z
loop_
_atom_site_type_symbol
_atom_site_label
_atom_site_fract_x
_atom_site_fract_y
_atom_site_fract_z
Si Si1 0.789987 0.291238 0.674595
Si Si2 0.302783 0.114345 0.418958
Si Si3 0.294901 0.864499 0.922918
Si Si4 0.707285 0.454869 0.580073
Si Si5 0.797028 0.803971 0.668079
Si Si6 0.000000 0.950690 0.416929
O O1 0.727190 0.326050 0.621340
O O2 0.732320 0.243966 0.653125
O O3 0.729884 0.305203 0.749961
O O4 0.000000 0.290300 0.676663
O O5 0.270490 0.124154 0.500000
O O6 0.500000 0.099284 0.413109
O O7 0.282790 0.156966 0.373598
O O8 0.166832 0.077825 0.397748
O O9 0.500000 0.858857 0.927954
O O10 0.265693 0.910515 0.889537
O O11 0.222180 0.864778 0.000000
O O12 0.764087 0.454439 0.500000
O O13 0.500000 0.454840 0.580078
O O14 0.766149 0.500000 0.609920
O O15 0.000000 0.805552 0.652778
O O16 0.000000 0.952918 0.500000
O O17 0.000000 0.000000 0.392480
#
# Coordination Sequence:
#
# PCOD9519812 Si02
#       6
#    16  16  16  16  16   8
#     4   9  19  33  49  71 100 136 176 219 268 323
#     4  10  20  34  55  84 115 146 181 223 271 322
#     4   9  17  29  45  68  96 125 162 207 257 310
#     4   8  14  25  41  61  86 117 152 192 240 291
#     4  10  19  33  53  74 101 138 179 221 265 320
#     4   9  18  34  56  84 116 146 181 223 270 330
#
# _framework density 18.459575999999998
#
# number of rings (size 3 to 8) (size 9 to 14) (size 15 to 20)
#    0.000    2.818    0.909    1.091    0.000    2.909 
#    0.000    5.455    0.000    3.273    0.000    2.545 
#    0.000    0.000    0.000    0.000    0.000    0.000 
#
# Total GULP energy -244983.996810 kJ/mol
# GULP energy per Si atom -5567.818109 kJ/mol
# Density = 1.841756 g / cm^3
# Si number density = 18.459576 Si / 1000 Ang^3
#
#
#
# Elastic Constant Matrix: (Units=GPa)
#
#
# Indices 1 2 3 4 5 6 
#
# 1 66.1430 39.2373 14.9730 0.0000 0.0000 0.0000
# 2 39.2373 189.0124 66.7617 0.0000 0.0000 0.0000
# 3 14.9730 66.7617 33.3704 0.0000 0.0000 0.0000
# 4 0.0000 0.0000 0.0000 -23.1975 0.0000 0.0000
# 5 0.0000 0.0000 0.0000 0.0000 15.8610 0.0000
# 6 0.0000 0.0000 0.0000 0.0000 0.0000 -2.4347
#
#
#
# Elastic Compliance Matrix: (Units=1/GPa)
#
#
# Indices 1 2 3 4 5 6 
#
# 1 0.017280 -0.002893 -0.001966 0.000000 0.000000 0.000000
# 2 -0.002893 0.018519 -0.035752 0.000000 0.000000 0.000000
# 3 -0.001966 -0.035752 0.102376 0.000000 0.000000 0.000000
# 4 0.000000 0.000000 0.000000 -0.043108 0.000000 0.000000
# 5 0.000000 0.000000 0.000000 0.000000 0.063048 0.000000
# 6 0.000000 0.000000 0.000000 0.000000 0.000000 -0.410733
#
#
# Mechanical properties :
#
#
# Convention : Reuss Voigt Hill
#
# Bulk Modulus (GPa) = 17.55841 58.94111 38.24976
# Shear Modulus (GPa) = -32.80605 9.21602 -11.79502
#
# Velocity S-wave (km/s) = -4.22024 2.23682 -2.53052
# Velocity P-wave (km/s) = 3.77025 6.21855 3.49682
#
# Compressibility (1/GPa) = 0.05695277
#
# Stress axis : x y z
#
# Youngs Moduli (GPa) = 57.87088 53.99740 9.76789
#
# Poissons Ratio (x) = 0.15620 0.01921
# Poissons Ratio (y) = 0.16740 0.34923
# Poissons Ratio (z) = 0.11379 1.93054
#
# Static dielectric constant tensor:
#      x y z
#    x 1.670830 0.000000 0.000000 
#    y 0.000000 1.664990 0.000000 
#    z 0.000000 0.000000 1.618880 
# 
# From -- ./inp_files/51057.got.cif
#   From: 2010.05.17/outbox.cif.g08.bks.cpg/sg71_26_cif.got.tgz:51057.got - 2010.06.03 16:22:01.
