data_PCOD9519870
_publ_section_title
;
Structure prediction by ZEFSAII (Michael W. Deem and Ramdas Pophale) SiO2 
 PCOD9519870
Probable space group: I M M M
;
_chemical_formula_sum "Si O2"
_cell_formula_units_Z 116
_cell_length_a 7.397531
_cell_length_b 28.753143
_cell_length_c 28.779453
_cell_angle_alpha 90.000000
_cell_angle_beta 90.000000
_cell_angle_gamma 90.000000
_cell_volume 6121.454887
_symmetry_space_group_name_H-M "I M M M"
_symmetry_group_IT_number 71
_symmetry_cell_setting 'orthorhombic'
loop_
_space_group_symop_operation_xyz
x,y,z
-x,-y,z
x,-y,-z
-x,y,-z
-x,-y,-z
x,y,-z
-x,y,z
x,-y,z
1/2+x,1/2+y,1/2+z
1/2-x,1/2-y,1/2+z
1/2+x,1/2-y,1/2-z
1/2-x,1/2+y,1/2-z
1/2-x,1/2-y,1/2-z
1/2+x,1/2+y,1/2-z
1/2-x,1/2+y,1/2+z
1/2+x,1/2-y,1/2+z
loop_
_atom_site_type_symbol
_atom_site_label
_atom_site_fract_x
_atom_site_fract_y
_atom_site_fract_z
Si Si1 0.285104 0.739851 0.696125
Si Si2 0.706520 0.333173 0.143429
Si Si3 0.778906 0.791308 0.447928
Si Si4 0.219372 0.052215 0.199971
Si Si5 0.500000 0.000000 0.341309
Si Si6 0.287990 0.355521 0.650984
Si Si7 0.780884 0.925588 0.307389
Si Si8 0.217729 0.315944 0.447874
O O1 0.500000 0.740230 0.688527
O O2 0.250000 0.750000 0.750000
O O3 0.208944 0.783092 0.667619
O O4 0.214234 0.690171 0.677644
O O5 0.500000 0.346862 0.134535
O O6 0.789635 0.324408 0.092833
O O7 0.772052 0.373237 0.177714
O O8 0.725378 0.804505 0.500000
O O9 0.723402 0.737594 0.439839
O O10 0.000000 0.790949 0.446679
O O11 0.285031 0.094992 0.168366
O O12 0.263188 0.063675 0.253565
O O13 0.000000 0.050773 0.196787
O O14 0.283806 0.000000 0.188678
O O15 0.340090 0.040130 0.337598
O O16 0.500000 0.356526 0.663059
O O17 0.272579 0.346649 0.595996
O O18 0.000000 0.932239 0.311763
O O19 0.277827 0.329780 0.500000
O O20 0.000000 0.315691 0.448497
#
# Coordination Sequence:
#
# PCOD9519870 Si02
#       8
#    16  16  16  16   4  16  16  16
#     4  11  22  33  46  70 108 144 176 214 259 331
#     4  10  19  33  54  77 108 142 176 217 272 323
#     4   8  14  27  50  77 104 136 175 215 257 318
#     4   9  17  34  54  70 100 138 178 227 274 317
#     4  12  22  36  60  82 109 142 195 230 272 328
#     4  10  20  33  50  75 102 136 175 218 272 322
#     4  10  21  37  56  81 111 145 182 234 279 321
#     4   9  17  31  50  73 102 136 174 215 261 317
#
# _framework density 18.949743999999999
#
# number of rings (size 3 to 8) (size 9 to 14) (size 15 to 20)
#    0.000    2.345    2.069    2.276    0.966    3.034 
#    1.241    0.000    0.000    0.828    0.000    3.862 
#    0.000    3.310    0.000    0.000    0.000    0.000 
#
# Total GULP energy -322906.186602 kJ/mol
# GULP energy per Si atom -5567.348045 kJ/mol
# Density = 1.890661 g / cm^3
# Si number density = 18.949744 Si / 1000 Ang^3
#
#
#
# Elastic Constant Matrix: (Units=GPa)
#
#
# Indices 1 2 3 4 5 6 
#
# 1 70.9648 9.1153 -6.3792 0.0000 0.0000 0.0000
# 2 9.1153 156.0397 60.3979 0.0000 0.0000 0.0000
# 3 -6.3792 60.3979 88.3958 0.0000 0.0000 0.0000
# 4 0.0000 0.0000 0.0000 2.2216 0.0000 0.0000
# 5 0.0000 0.0000 0.0000 0.0000 5.0571 0.0000
# 6 0.0000 0.0000 0.0000 0.0000 0.0000 -2.8311
#
#
#
# Elastic Compliance Matrix: (Units=1/GPa)
#
#
# Indices 1 2 3 4 5 6 
#
# 1 0.014509 -0.001703 0.002211 0.000000 0.000000 0.000000
# 2 -0.001703 0.008913 -0.006213 0.000000 0.000000 0.000000
# 3 0.002211 -0.006213 0.015717 0.000000 0.000000 0.000000
# 4 0.000000 0.000000 0.000000 0.450125 0.000000 0.000000
# 5 0.000000 0.000000 0.000000 0.000000 0.197740 0.000000
# 6 0.000000 0.000000 0.000000 0.000000 0.000000 -0.353226
#
#
# Mechanical properties :
#
#
# Convention : Reuss Voigt Hill
#
# Bulk Modulus (GPa) = 36.06365 49.07424 42.56895
# Shear Modulus (GPa) = 14.10708 17.70730 15.90719
#
# Velocity S-wave (km/s) = 2.73142 3.06017 2.90045
# Velocity P-wave (km/s) = 5.38702 6.19996 5.80773
#
# Compressibility (1/GPa) = 0.02772875
#
# Stress axis : x y z
#
# Youngs Moduli (GPa) = 68.92259 112.19694 63.62418
#
# Poissons Ratio (x) = 0.19111 -0.14067
# Poissons Ratio (y) = 0.11740 0.39528
# Poissons Ratio (z) = -0.15238 0.69706
#
# Static dielectric constant tensor:
#      x y z
#    x 1.829200 0.000000 0.000000 
#    y 0.000000 1.660680 0.000000 
#    z 0.000000 0.000000 1.665390 
# 
# From -- ./inp_files/15635.got.cif
#   From: 2010.05.17/outbox.cif.g08.bks.cpg/sg71_8_cif.got.tgz:15635.got - 2010.06.03 16:22:01.
