data_PCOD9519593
_publ_section_title
;
Structure prediction by ZEFSAII (Michael W. Deem and Ramdas Pophale) SiO2 
 PCOD9519593
Probable space group: I M M M
;
_chemical_formula_sum "Si O2"
_cell_formula_units_Z 88
_cell_length_a 25.281570
_cell_length_b 22.293167
_cell_length_c 7.986487
_cell_angle_alpha 90.000000
_cell_angle_beta 90.000000
_cell_angle_gamma 90.000000
_cell_volume 4501.234085
_symmetry_space_group_name_H-M "I M M M"
_symmetry_group_IT_number 71
_symmetry_cell_setting 'orthorhombic'
loop_
_space_group_symop_operation_xyz
x,y,z
-x,-y,z
x,-y,-z
-x,y,-z
-x,-y,-z
x,y,-z
-x,y,z
x,-y,z
1/2+x,1/2+y,1/2+z
1/2-x,1/2-y,1/2+z
1/2+x,1/2-y,1/2-z
1/2-x,1/2+y,1/2-z
1/2-x,1/2-y,1/2-z
1/2+x,1/2+y,1/2-z
1/2-x,1/2+y,1/2+z
1/2+x,1/2-y,1/2+z
loop_
_atom_site_type_symbol
_atom_site_label
_atom_site_fract_x
_atom_site_fract_y
_atom_site_fract_z
Si Si1 0.000000 0.754359 0.704253
Si Si2 0.087197 0.660751 0.302498
Si Si3 0.189361 0.825878 0.803597
Si Si4 0.500000 0.068871 0.701241
Si Si5 0.000000 0.892242 0.298731
Si Si6 0.302145 0.809497 0.695319
Si Si7 0.884047 0.066580 0.798791
O O1 0.948098 0.717448 0.758811
O O2 0.000000 0.753016 0.500000
O O3 0.000000 0.822802 0.758978
O O4 0.095972 0.668326 0.500000
O O5 0.050670 0.603699 0.270362
O O6 0.143288 0.656117 0.215136
O O7 0.251686 0.839115 0.782971
O O8 0.185927 0.757781 0.734296
O O9 0.151487 0.877813 0.732532
O O10 0.176106 0.821138 0.000000
O O11 0.500000 0.073400 0.500000
O O12 0.500000 0.000000 0.750425
O O13 0.945743 0.922077 0.238509
O O14 0.000000 0.893229 0.500000
O O15 0.288243 0.803584 0.500000
O O16 0.869123 0.000000 0.735535
O O17 0.877365 0.065762 0.000000
#
# Coordination Sequence:
#
# PCOD9519593 Si02
#       7
#     8  16  16   8   8  16  16
#     4   8  17  31  48  75 106 135 167 208 254 294
#     4  10  19  33  54  78 106 138 173 211 253 308
#     4   9  19  35  54  76 102 135 173 213 260 312
#     4  10  21  37  55  76 105 138 172 214 262 308
#     4  11  21  33  52  77 105 135 169 209 254 301
#     4  10  19  32  53  80 106 132 167 214 266 313
#     4  10  21  37  54  72  99 135 173 211 250 297
#
# _framework density 19.550194000000001
#
# number of rings (size 3 to 8) (size 9 to 14) (size 15 to 20)
#    0.000    2.273    0.000    3.545    0.000    3.636 
#    0.000    5.455    0.000    3.273    0.000    0.000 
#    0.000    0.000    0.000    0.000    0.000    0.000 
#
# Total GULP energy -245515.336973 kJ/mol
# GULP energy per Si atom -5579.894022 kJ/mol
# Density = 1.950570 g / cm^3
# Si number density = 19.550194 Si / 1000 Ang^3
#
#
#
# Elastic Constant Matrix: (Units=GPa)
#
#
# Indices 1 2 3 4 5 6 
#
# 1 114.1179 40.5027 -11.3428 0.0000 0.0000 0.0000
# 2 40.5027 95.9802 3.3622 0.0000 0.0000 0.0000
# 3 -11.3428 3.3622 20.3604 0.0000 0.0000 0.0000
# 4 0.0000 0.0000 0.0000 16.9663 0.0000 0.0000
# 5 0.0000 0.0000 0.0000 0.0000 20.9896 0.0000
# 6 0.0000 0.0000 0.0000 0.0000 0.0000 -5.4010
#
#
#
# Elastic Compliance Matrix: (Units=1/GPa)
#
#
# Indices 1 2 3 4 5 6 
#
# 1 0.011238 -0.004991 0.007085 0.000000 0.000000 0.000000
# 2 -0.004991 0.012696 -0.004877 0.000000 0.000000 0.000000
# 3 0.007085 -0.004877 0.053867 0.000000 0.000000 0.000000
# 4 0.000000 0.000000 0.000000 0.058940 0.000000 0.000000
# 5 0.000000 0.000000 0.000000 0.000000 0.047643 0.000000
# 6 0.000000 0.000000 0.000000 0.000000 0.000000 -0.185150
#
#
# Mechanical properties :
#
#
# Convention : Reuss Voigt Hill
#
# Bulk Modulus (GPa) = 13.84345 32.83364 23.33855
# Shear Modulus (GPa) = 173.14123 19.70673 96.42398
#
# Velocity S-wave (km/s) = 9.42097 3.17836 7.03053
# Velocity P-wave (km/s) = 11.19982 5.50457 8.82429
#
# Compressibility (1/GPa) = 0.07223632
#
# Stress axis : x y z
#
# Youngs Moduli (GPa) = 88.98087 78.76702 18.56418
#
# Poissons Ratio (x) = 0.39310 -0.13153
# Poissons Ratio (y) = 0.44407 0.09053
# Poissons Ratio (z) = -0.63043 0.38413
#
# Static dielectric constant tensor:
#      x y z
#    x 1.667320 0.000000 0.000000 
#    y 0.000000 1.697810 0.000000 
#    z 0.000000 0.000000 1.702640 
# 
# From -- ./inp_files/12634.got.cif
#   From: 2010.05.17/outbox.cif.g08.bks.cpg/sg71_7_cif.got.tgz:12634.got - 2010.06.03 16:22:01.
