data_PCOD9519681
_publ_section_title
;
Structure prediction by ZEFSAII (Michael W. Deem and Ramdas Pophale) SiO2 
 PCOD9519681
Probable space group: I M M M
;
_chemical_formula_sum "Si O2"
_cell_formula_units_Z 96
_cell_length_a 26.038327
_cell_length_b 11.493039
_cell_length_c 18.603212
_cell_angle_alpha 90.000000
_cell_angle_beta 90.000000
_cell_angle_gamma 90.000000
_cell_volume 5567.188065
_symmetry_space_group_name_H-M "I M M M"
_symmetry_group_IT_number 71
_symmetry_cell_setting 'orthorhombic'
loop_
_space_group_symop_operation_xyz
x,y,z
-x,-y,z
x,-y,-z
-x,y,-z
-x,-y,-z
x,y,-z
-x,y,z
x,-y,z
1/2+x,1/2+y,1/2+z
1/2-x,1/2-y,1/2+z
1/2+x,1/2-y,1/2-z
1/2-x,1/2+y,1/2-z
1/2-x,1/2-y,1/2-z
1/2+x,1/2+y,1/2-z
1/2-x,1/2+y,1/2+z
1/2+x,1/2-y,1/2+z
loop_
_atom_site_type_symbol
_atom_site_label
_atom_site_fract_x
_atom_site_fract_y
_atom_site_fract_z
Si Si1 0.096741 0.640882 0.681786
Si Si2 0.762698 0.000000 0.584445
Si Si3 0.799343 0.228193 0.655818
Si Si4 0.356076 0.000000 0.413802
Si Si5 0.000000 0.640715 0.417575
Si Si6 0.199991 0.862403 0.819788
Si Si7 0.097207 0.730213 0.844870
Si Si8 0.000000 0.860951 0.086605
O O1 0.100555 0.500000 0.687438
O O2 0.149299 0.695849 0.651437
O O3 0.050265 0.672226 0.628433
O O4 0.087871 0.693623 0.761546
O O5 0.793359 0.114140 0.608002
O O6 0.756877 0.000000 0.500000
O O7 0.703542 0.000000 0.614484
O O8 0.797367 0.179905 0.737285
O O9 0.749254 0.306384 0.642355
O O10 0.385833 0.887040 0.385478
O O11 0.355252 0.000000 0.500000
O O12 0.000000 0.500000 0.421175
O O13 0.000000 0.683987 0.500000
O O14 0.146636 0.813729 0.849025
O O15 0.202157 0.000000 0.822929
O O16 0.049251 0.796031 0.879656
O O17 0.000000 0.000000 0.102929
O O18 0.000000 0.848754 0.000000
#
# Coordination Sequence:
#
# PCOD9519681 Si02
#       8
#    16   8  16   8   8  16  16   8
#     4  10  20  35  61  92 118 149 192 246 292 345
#     4  11  22  38  55  81 125 163 193 232 286 354
#     4  10  20  33  55  85 114 150 191 232 291 339
#     4  11  22  37  58  83 119 160 195 234 294 352
#     4   9  19  36  56  79 112 149 183 226 289 345
#     4  10  19  32  56  82 115 143 186 242 289 340
#     4  11  21  37  60  85 117 151 197 246 293 347
#     4  11  25  43  59  79 115 161 206 250 300 353
#
# _framework density 17.243894999999998
#
# number of rings (size 3 to 8) (size 9 to 14) (size 15 to 20)
#    0.000    1.667    3.333    2.000    0.000    1.000 
#    0.000    0.833    0.000    2.500    0.000    1.167 
#    0.000    0.000    0.000    0.000    0.000    0.000 
#
# Total GULP energy -267832.298704 kJ/mol
# GULP energy per Si atom -5579.839556 kJ/mol
# Density = 1.720465 g / cm^3
# Si number density = 17.243895 Si / 1000 Ang^3
#
#
#
# Elastic Constant Matrix: (Units=GPa)
#
#
# Indices 1 2 3 4 5 6 
#
# 1 151.5137 90.1508 75.4906 0.0000 0.0000 0.0000
# 2 90.1508 124.0852 23.7218 0.0000 0.0000 0.0000
# 3 75.4906 23.7218 66.4059 0.0000 0.0000 0.0000
# 4 0.0000 0.0000 0.0000 4.8310 0.0000 0.0000
# 5 0.0000 0.0000 0.0000 0.0000 18.5520 0.0000
# 6 0.0000 0.0000 0.0000 0.0000 0.0000 33.3769
#
#
#
# Elastic Compliance Matrix: (Units=1/GPa)
#
#
# Indices 1 2 3 4 5 6 
#
# 1 0.032088 -0.017537 -0.030213 0.000000 0.000000 0.000000
# 2 -0.017537 0.018234 0.013422 0.000000 0.000000 0.000000
# 3 -0.030213 0.013422 0.044611 0.000000 0.000000 0.000000
# 4 0.000000 0.000000 0.000000 0.206998 0.000000 0.000000
# 5 0.000000 0.000000 0.000000 0.000000 0.053903 0.000000
# 6 0.000000 0.000000 0.000000 0.000000 0.000000 0.029961
#
#
# Mechanical properties :
#
#
# Convention : Reuss Voigt Hill
#
# Bulk Modulus (GPa) = 38.05598 80.08125 59.06861
# Shear Modulus (GPa) = 10.79430 21.52806 16.16118
#
# Velocity S-wave (km/s) = 2.50467 3.53717 3.06471
# Velocity P-wave (km/s) = 5.52102 7.95130 6.84488
#
# Compressibility (1/GPa) = 0.02627708
#
# Stress axis : x y z
#
# Youngs Moduli (GPa) = 31.16446 54.84323 22.41621
#
# Poissons Ratio (x) = 0.96177 0.67726
# Poissons Ratio (y) = 0.54652 -0.30087
# Poissons Ratio (z) = 0.94157 -0.73611
#
# Static dielectric constant tensor:
#      x y z
#    x 1.582920 0.000000 0.000000 
#    y 0.000000 1.750540 0.000000 
#    z 0.000000 0.000000 1.571570 
# 
# From -- ./inp_files/48117.got.cif
#   From: 2010.05.17/outbox.cif.g08.bks.cpg/sg71_25_cif.got.tgz:48117.got - 2010.06.03 16:22:01.
