data_PCOD9519131
_publ_section_title
;
Structure prediction by ZEFSAII (Michael W. Deem and Ramdas Pophale) SiO2 
 PCOD9519131
Probable space group: I M M M
;
_chemical_formula_sum "Si O2"
_cell_formula_units_Z 80
_cell_length_a 25.743067
_cell_length_b 8.775910
_cell_length_c 20.383403
_cell_angle_alpha 90.000000
_cell_angle_beta 90.000000
_cell_angle_gamma 90.000000
_cell_volume 4604.994743
_symmetry_space_group_name_H-M "I M M M"
_symmetry_group_IT_number 71
_symmetry_cell_setting 'orthorhombic'
loop_
_space_group_symop_operation_xyz
x,y,z
-x,-y,z
x,-y,-z
-x,y,-z
-x,-y,-z
x,y,-z
-x,y,z
x,-y,z
1/2+x,1/2+y,1/2+z
1/2-x,1/2-y,1/2+z
1/2+x,1/2-y,1/2-z
1/2-x,1/2+y,1/2-z
1/2-x,1/2-y,1/2-z
1/2+x,1/2+y,1/2-z
1/2-x,1/2+y,1/2+z
1/2+x,1/2-y,1/2+z
loop_
_atom_site_type_symbol
_atom_site_label
_atom_site_fract_x
_atom_site_fract_y
_atom_site_fract_z
Si Si1 0.557855 0.678565 0.244693
Si Si2 0.559602 0.327942 0.598039
Si Si3 0.667629 0.181351 0.751680
Si Si4 0.735844 0.322188 0.500000
Si Si5 0.370418 0.829070 0.500000
Si Si6 0.240975 0.816220 0.146587
O O1 0.500000 0.734242 0.223862
O O2 0.561320 0.500000 0.226550
O O3 0.559047 0.686241 0.323854
O O4 0.610798 0.763088 0.226141
O O5 0.500000 0.314853 0.576205
O O6 0.577686 0.500000 0.581859
O O7 0.594154 0.203722 0.562824
O O8 0.710253 0.222534 0.807014
O O9 0.689842 0.252797 0.683772
O O10 0.667117 0.000000 0.743940
O O11 0.750406 0.500000 0.500000
O O12 0.674405 0.295367 0.500000
O O13 0.750868 0.260041 0.572161
O O14 0.349366 0.000000 0.500000
O O15 0.235656 0.000000 0.144403
#
# Coordination Sequence:
#
# PCOD9519131 Si02
#       6
#    16  16  16   8   8  16
#     4   9  18  32  49  68  90 119 155 190 225 273
#     4   9  18  32  46  58  78 115 159 191 215 256
#     4  10  19  31  49  74 100 123 151 193 242 283
#     4  10  20  35  51  64  85 122 162 191 219 268
#     4  12  23  29  38  61  90 115 145 190 235 269
#     4   9  19  34  51  70  93 125 162 195 230 277
#
# _framework density 17.372441999999999
#
# number of rings (size 3 to 8) (size 9 to 14) (size 15 to 20)
#    0.000    2.400    0.000    4.200    0.000    9.200 
#    0.000    2.000    0.000    0.000    0.000    0.700 
#    0.000    5.600    0.000    0.000    0.000    0.000 
#
# Total GULP energy -222869.512277 kJ/mol
# GULP energy per Si atom -5571.737807 kJ/mol
# Density = 1.733290 g / cm^3
# Si number density = 17.372442 Si / 1000 Ang^3
#
#
#
# Elastic Constant Matrix: (Units=GPa)
#
#
# Indices 1 2 3 4 5 6 
#
# 1 100.1563 20.0110 22.2752 0.0000 0.0000 0.0000
# 2 20.0110 13.5571 11.9505 0.0000 0.0000 0.0000
# 3 22.2752 11.9505 75.7621 0.0000 0.0000 0.0000
# 4 0.0000 0.0000 0.0000 11.5847 0.0000 0.0000
# 5 0.0000 0.0000 0.0000 0.0000 19.5248 0.0000
# 6 0.0000 0.0000 0.0000 0.0000 0.0000 24.6915
#
#
#
# Elastic Compliance Matrix: (Units=1/GPa)
#
#
# Indices 1 2 3 4 5 6 
#
# 1 0.014227 -0.020108 -0.001011 0.000000 0.000000 0.000000
# 2 -0.020108 0.114096 -0.012085 0.000000 0.000000 0.000000
# 3 -0.001011 -0.012085 0.015403 0.000000 0.000000 0.000000
# 4 0.000000 0.000000 0.000000 0.086321 0.000000 0.000000
# 5 0.000000 0.000000 0.000000 0.000000 0.051217 0.000000
# 6 0.000000 0.000000 0.000000 0.000000 0.000000 0.040500
#
#
# Mechanical properties :
#
#
# Convention : Reuss Voigt Hill
#
# Bulk Modulus (GPa) = 12.93386 33.10545 23.01966
# Shear Modulus (GPa) = 12.07893 20.17610 16.12752
#
# Velocity S-wave (km/s) = 2.63970 3.41161 3.05017
# Velocity P-wave (km/s) = 4.09291 5.88357 5.06795
#
# Compressibility (1/GPa) = 0.07731646
#
# Stress axis : x y z
#
# Youngs Moduli (GPa) = 70.28951 8.76458 64.92354
#
# Poissons Ratio (x) = 0.17624 0.06564
# Poissons Ratio (y) = 1.41341 0.78460
# Poissons Ratio (z) = 0.07107 0.10592
#
# Static dielectric constant tensor:
#      x y z
#    x 1.608670 0.000000 0.000000 
#    y 0.000000 1.599990 0.000000 
#    z 0.000000 0.000000 1.615220 
# 
# From -- ./inp_files/8418.got.cif
#   From: 2010.05.17/outbox.cif.g08.bks.cpg/sg71_5_cif.got.tgz:8418.got - 2010.06.03 16:22:01.
