data_PCOD9519830
_publ_section_title
;
Structure prediction by ZEFSAII (Michael W. Deem and Ramdas Pophale) SiO2 
 PCOD9519830
Probable space group: I M M M
;
_chemical_formula_sum "Si O2"
_cell_formula_units_Z 72
_cell_length_a 22.588704
_cell_length_b 17.018990
_cell_length_c 8.235641
_cell_angle_alpha 90.000000
_cell_angle_beta 90.000000
_cell_angle_gamma 90.000000
_cell_volume 3166.084522
_symmetry_space_group_name_H-M "I M M M"
_symmetry_group_IT_number 71
_symmetry_cell_setting 'orthorhombic'
loop_
_space_group_symop_operation_xyz
x,y,z
-x,-y,z
x,-y,-z
-x,y,-z
-x,-y,-z
x,y,-z
-x,y,z
x,-y,z
1/2+x,1/2+y,1/2+z
1/2-x,1/2-y,1/2+z
1/2+x,1/2-y,1/2-z
1/2-x,1/2+y,1/2-z
1/2-x,1/2-y,1/2-z
1/2+x,1/2+y,1/2-z
1/2-x,1/2+y,1/2+z
1/2+x,1/2-y,1/2+z
loop_
_atom_site_type_symbol
_atom_site_label
_atom_site_fract_x
_atom_site_fract_y
_atom_site_fract_z
Si Si1 0.412519 0.832152 0.686232
Si Si2 0.721338 0.168534 0.802369
Si Si3 0.428061 0.592298 0.500000
Si Si4 0.590235 0.000000 0.811116
Si Si5 0.264814 0.000000 0.188706
Si Si6 0.567887 0.331722 0.174516
O O1 0.426996 0.814264 0.500000
O O2 0.342407 0.831768 0.717642
O O3 0.434916 0.761577 0.797435
O O4 0.431642 0.919854 0.731057
O O5 0.750000 0.250000 0.750000
O O6 0.752563 0.086477 0.748508
O O7 0.714772 0.165994 0.000000
O O8 0.417088 0.500000 0.500000
O O9 0.500000 0.604661 0.500000
O O10 0.404047 0.631394 0.335649
O O11 0.662699 0.000000 0.802388
O O12 0.575056 0.000000 0.000000
O O13 0.247264 0.000000 0.000000
O O14 0.500000 0.361199 0.168227
O O15 0.596223 0.348732 0.000000
#
# Coordination Sequence:
#
# PCOD9519830 Si02
#       6
#    16  16   8   8   8  16
#     4  11  20  33  54  79 108 141 181 223 264 316
#     4  10  19  33  53  77 103 137 178 220 269 319
#     4   9  18  34  56  81 107 137 179 226 270 324
#     4   9  17  31  50  76 105 139 179 218 260 312
#     4   7  14  29  49  70  98 131 168 214 259 313
#     4  10  20  35  56  81 110 144 179 222 273 321
#
# _framework density 22.741022999999998
#
# number of rings (size 3 to 8) (size 9 to 14) (size 15 to 20)
#    0.000    2.333    1.111    4.333    0.000    0.444 
#    0.000    4.444    2.444    3.333    0.000    0.000 
#    0.000    0.000    0.000    0.000    0.000    0.000 
#
# Total GULP energy -200934.294350 kJ/mol
# GULP energy per Si atom -5581.508176 kJ/mol
# Density = 2.268926 g / cm^3
# Si number density = 22.741023 Si / 1000 Ang^3
#
#
#
# Elastic Constant Matrix: (Units=GPa)
#
#
# Indices 1 2 3 4 5 6 
#
# 1 39.8911 25.2475 -0.5677 0.0000 0.0000 0.0000
# 2 25.2475 150.7403 51.0000 0.0000 0.0000 0.0000
# 3 -0.5677 51.0000 161.6269 0.0000 0.0000 0.0000
# 4 0.0000 0.0000 0.0000 24.4379 0.0000 0.0000
# 5 0.0000 0.0000 0.0000 0.0000 4.3860 0.0000
# 6 0.0000 0.0000 0.0000 0.0000 0.0000 11.3826
#
#
#
# Elastic Compliance Matrix: (Units=1/GPa)
#
#
# Indices 1 2 3 4 5 6 
#
# 1 0.028500 -0.005382 0.001798 0.000000 0.000000 0.000000
# 2 -0.005382 0.008443 -0.002683 0.000000 0.000000 0.000000
# 3 0.001798 -0.002683 0.007040 0.000000 0.000000 0.000000
# 4 0.000000 0.000000 0.000000 0.040920 0.000000 0.000000
# 5 0.000000 0.000000 0.000000 0.000000 0.228001 0.000000
# 6 0.000000 0.000000 0.000000 0.000000 0.000000 0.087854
#
#
# Mechanical properties :
#
#
# Convention : Reuss Voigt Hill
#
# Bulk Modulus (GPa) = 31.79653 55.95752 43.87702
# Shear Modulus (GPa) = 11.79874 26.47986 19.13930
#
# Velocity S-wave (km/s) = 2.28026 3.41605 2.90422
# Velocity P-wave (km/s) = 4.57658 6.34185 5.53011
#
# Compressibility (1/GPa) = 0.03144997
#
# Stress axis : x y z
#
# Youngs Moduli (GPa) = 35.08756 118.44000 142.04510
#
# Poissons Ratio (x) = 0.63743 -0.25544
# Poissons Ratio (y) = 0.18884 0.38111
# Poissons Ratio (z) = -0.06310 0.31778
#
# Static dielectric constant tensor:
#      x y z
#    x 2.016890 0.000000 0.000000 
#    y 0.000000 1.859410 0.000000 
#    z 0.000000 0.000000 1.843800 
# 
# From -- ./inp_files/16391.got.cif
#   From: 2010.05.17/outbox.cif.g08.bks.cpg/sg71_9_cif.got.tgz:16391.got - 2010.06.03 16:22:01.
