data_PCOD9519940
_publ_section_title
;
Structure prediction by ZEFSAII (Michael W. Deem and Ramdas Pophale) SiO2 
 PCOD9519940
Probable space group: I M M M
;
_chemical_formula_sum "Si O2"
_cell_formula_units_Z 88
_cell_length_a 18.570821
_cell_length_b 29.786698
_cell_length_c 7.918114
_cell_angle_alpha 90.000000
_cell_angle_beta 90.000000
_cell_angle_gamma 90.000000
_cell_volume 4380.011153
_symmetry_space_group_name_H-M "I M M M"
_symmetry_group_IT_number 71
_symmetry_cell_setting 'orthorhombic'
loop_
_space_group_symop_operation_xyz
x,y,z
-x,-y,z
x,-y,-z
-x,y,-z
-x,-y,-z
x,y,-z
-x,y,z
x,-y,z
1/2+x,1/2+y,1/2+z
1/2-x,1/2-y,1/2+z
1/2+x,1/2-y,1/2-z
1/2-x,1/2+y,1/2-z
1/2-x,1/2-y,1/2-z
1/2+x,1/2+y,1/2-z
1/2-x,1/2+y,1/2+z
1/2+x,1/2-y,1/2+z
loop_
_atom_site_type_symbol
_atom_site_label
_atom_site_fract_x
_atom_site_fract_y
_atom_site_fract_z
Si Si1 0.177879 0.693467 0.199882
Si Si2 0.204972 0.949115 0.299088
Si Si3 0.646471 0.096030 0.803176
Si Si4 0.157179 0.790759 0.296101
Si Si5 0.081602 0.118428 0.293114
Si Si6 0.000000 0.447901 0.293534
O O1 0.145113 0.649558 0.283040
O O2 0.139494 0.740769 0.235082
O O3 0.260793 0.698816 0.260359
O O4 0.180011 0.685541 0.000000
O O5 0.193569 0.952383 0.500000
O O6 0.280927 0.924235 0.274532
O O7 0.140166 0.917885 0.233060
O O8 0.206337 0.000000 0.230474
O O9 0.573214 0.075103 0.731976
O O10 0.650169 0.084318 0.000000
O O11 0.157369 0.789747 0.500000
O O12 0.106879 0.831688 0.241173
O O13 0.082893 0.118188 0.500000
O O14 0.000000 0.108916 0.240264
O O15 0.000000 0.500000 0.249482
O O16 0.000000 0.444425 0.500000
#
# Coordination Sequence:
#
# PCOD9519940 Si02
#       6
#    16  16  16  16  16   8
#     4  10  19  33  55  81 111 140 175 224 273 323
#     4  10  20  35  56  83 113 142 178 226 276 323
#     4  11  21  36  59  82 107 141 183 225 271 328
#     4   9  17  32  53  78 108 142 182 222 263 316
#     4   9  17  32  54  80 111 147 186 227 266 312
#     4   9  20  38  57  79 107 139 181 231 272 317
#
# _framework density 20.091273999999999
#
# number of rings (size 3 to 8) (size 9 to 14) (size 15 to 20)
#    0.000    2.273    1.818    1.636    0.000    2.182 
#    1.636    3.636    0.000    4.909    0.000    1.273 
#    0.000    0.000    0.000    0.000    0.000    0.000 
#
# Total GULP energy -245600.508522 kJ/mol
# GULP energy per Si atom -5581.829739 kJ/mol
# Density = 2.004554 g / cm^3
# Si number density = 20.091274 Si / 1000 Ang^3
#
#
#
# Elastic Constant Matrix: (Units=GPa)
#
#
# Indices 1 2 3 4 5 6 
#
# 1 146.6895 89.8927 3.1785 0.0000 -0.0002 0.0000
# 2 89.8927 151.9481 -5.2153 0.0000 -0.0001 0.0000
# 3 3.1785 -5.2153 14.0654 -0.0008 -0.0005 -0.0005
# 4 0.0000 0.0000 -0.0008 20.4672 0.0001 -0.0001
# 5 -0.0002 -0.0001 -0.0005 0.0001 -8.6918 0.0001
# 6 0.0000 0.0000 -0.0005 -0.0001 0.0001 19.2849
#
#
#
# Elastic Compliance Matrix: (Units=1/GPa)
#
#
# Indices 1 2 3 4 5 6 
#
# 1 0.011027 -0.006695 -0.004974 0.000000 0.000000 0.000000
# 2 -0.006695 0.010730 0.005491 0.000000 0.000000 0.000000
# 3 -0.004974 0.005491 0.074257 0.000003 -0.000004 0.000002
# 4 0.000000 0.000000 0.000003 0.048859 0.000000 0.000000
# 5 0.000000 0.000000 -0.000004 0.000000 -0.115051 0.000000
# 6 0.000000 0.000000 0.000002 0.000000 0.000000 0.051854
#
#
# Mechanical properties :
#
#
# Convention : Reuss Voigt Hill
#
# Bulk Modulus (GPa) = 11.95318 54.26831 33.11074
# Shear Modulus (GPa) = 41.01124 21.20185 31.10654
#
# Velocity S-wave (km/s) = 4.52292 3.25203 3.93906
# Velocity P-wave (km/s) = 5.76525 6.41642 6.09953
#
# Compressibility (1/GPa) = 0.08365978
#
# Stress axis : x y z
#
# Youngs Moduli (GPa) = 90.68336 93.19513 13.46677
#
# Poissons Ratio (x) = 0.62390 0.06699
# Poissons Ratio (y) = 0.60708 -0.07395
# Poissons Ratio (z) = 0.45108 -0.51178
#
# Static dielectric constant tensor:
#      x y z
#    x 1.691500 0.000000 0.000000 
#    y 0.000000 1.699150 0.000000 
#    z 0.000000 0.000000 1.737670 
# 
# From -- ./inp_files/8738.got.cif
#   From: 2010.05.17/outbox.cif.g08.bks.cpg/sg71_5_cif.got.tgz:8738.got - 2010.06.03 16:22:01.
