data_PCOD9519682
_publ_section_title
;
Structure prediction by ZEFSAII (Michael W. Deem and Ramdas Pophale) SiO2 
 PCOD9519682
Probable space group: I M M M
;
_chemical_formula_sum "Si O2"
_cell_formula_units_Z 72
_cell_length_a 16.955163
_cell_length_b 7.596259
_cell_length_c 25.709160
_cell_angle_alpha 90.000000
_cell_angle_beta 90.000000
_cell_angle_gamma 90.000000
_cell_volume 3311.232075
_symmetry_space_group_name_H-M "I M M M"
_symmetry_group_IT_number 71
_symmetry_cell_setting 'orthorhombic'
loop_
_space_group_symop_operation_xyz
x,y,z
-x,-y,z
x,-y,-z
-x,y,-z
-x,-y,-z
x,y,-z
-x,y,z
x,-y,z
1/2+x,1/2+y,1/2+z
1/2-x,1/2-y,1/2+z
1/2+x,1/2-y,1/2-z
1/2-x,1/2+y,1/2-z
1/2-x,1/2-y,1/2-z
1/2+x,1/2+y,1/2-z
1/2-x,1/2+y,1/2+z
1/2+x,1/2-y,1/2+z
loop_
_atom_site_type_symbol
_atom_site_label
_atom_site_fract_x
_atom_site_fract_y
_atom_site_fract_z
Si Si1 0.674857 0.787645 0.712143
Si Si2 0.298708 0.790321 0.594520
Si Si3 0.000000 0.298612 0.243306
Si Si4 0.588046 0.709809 0.500000
Si Si5 0.500000 0.713771 0.861659
Si Si6 0.869697 0.784895 0.442786
O O1 0.750000 0.750000 0.750000
O O2 0.689862 0.723254 0.653121
O O3 0.586472 0.722423 0.727875
O O4 0.670091 0.000000 0.711921
O O5 0.367093 0.761568 0.552720
O O6 0.218357 0.723396 0.568711
O O7 0.289226 0.000000 0.599998
O O8 0.000000 0.294956 0.305370
O O9 0.000000 0.500000 0.223275
O O10 0.584786 0.500000 0.500000
O O11 0.500000 0.782793 0.500000
O O12 0.500000 0.500000 0.856129
O O13 0.574727 0.767419 0.895829
O O14 0.896177 0.727626 0.500000
O O15 0.870863 0.000000 0.443643
#
# Coordination Sequence:
#
# PCOD9519682 Si02
#       6
#    16  16   8   8   8  16
#     4  10  22  39  61  89 119 154 196 243 292 345
#     4  10  20  37  62  86 111 149 196 235 277 343
#     4  10  22  39  55  80 119 152 185 235 292 339
#     4  11  25  41  57  84 117 146 182 237 303 355
#     4  10  19  32  56  84 111 147 192 231 269 325
#     4   9  16  29  52  85 114 137 177 233 275 313
#
# _framework density 21.744171000000001
#
# number of rings (size 3 to 8) (size 9 to 14) (size 15 to 20)
#    0.000    2.111    1.111    2.000    1.556    5.778 
#    0.000    1.111    0.000    0.667    0.000    0.000 
#    0.000    0.000    0.000    0.000    0.000    0.000 
#
# Total GULP energy -200915.878998 kJ/mol
# GULP energy per Si atom -5580.996639 kJ/mol
# Density = 2.169468 g / cm^3
# Si number density = 21.744171 Si / 1000 Ang^3
#
#
#
# Elastic Constant Matrix: (Units=GPa)
#
#
# Indices 1 2 3 4 5 6 
#
# 1 140.5890 -2.1519 50.5869 0.0000 0.0000 0.0000
# 2 -2.1519 45.8697 -4.2324 0.0000 0.0000 0.0000
# 3 50.5869 -4.2324 150.1460 0.0000 0.0000 0.0000
# 4 0.0000 0.0000 0.0000 21.3899 0.0000 0.0000
# 5 0.0000 0.0000 0.0000 0.0000 47.2940 0.0000
# 6 0.0000 0.0000 0.0000 0.0000 0.0000 22.9130
#
#
#
# Elastic Compliance Matrix: (Units=1/GPa)
#
#
# Indices 1 2 3 4 5 6 
#
# 1 0.008095 0.000128 -0.002724 0.000000 0.000000 0.000000
# 2 0.000128 0.021860 0.000573 0.000000 0.000000 0.000000
# 3 -0.002724 0.000573 0.007594 0.000000 0.000000 0.000000
# 4 0.000000 0.000000 0.000000 0.046751 0.000000 0.000000
# 5 0.000000 0.000000 0.000000 0.000000 0.021144 0.000000
# 6 0.000000 0.000000 0.000000 0.000000 0.000000 0.043643
#
#
# Mechanical properties :
#
#
# Convention : Reuss Voigt Hill
#
# Bulk Modulus (GPa) = 29.84715 47.22333 38.53524
# Shear Modulus (GPa) = 30.43209 37.81283 34.12246
#
# Velocity S-wave (km/s) = 3.74512 4.17464 3.96570
# Velocity P-wave (km/s) = 5.69715 6.70833 6.22331
#
# Compressibility (1/GPa) = 0.03350403
#
# Stress axis : x y z
#
# Youngs Moduli (GPa) = 123.53383 45.74609 131.68283
#
# Poissons Ratio (x) = -0.00588 0.35867
# Poissons Ratio (y) = -0.01587 -0.07544
# Poissons Ratio (z) = 0.33647 -0.02621
#
# Static dielectric constant tensor:
#      x y z
#    x 1.813670 0.000000 0.000000 
#    y 0.000000 1.844250 0.000000 
#    z 0.000000 0.000000 1.749840 
# 
# From -- ./inp_files/60394.got.cif
#   From: 2010.05.17/outbox.cif.g08.bks.cpg/sg71_31_cif.got.tgz:60394.got - 2010.06.03 16:22:01.
