data_PCOD9519807
_publ_section_title
;
Structure prediction by ZEFSAII (Michael W. Deem and Ramdas Pophale) SiO2 
 PCOD9519807
Probable space group: I M M M
;
_chemical_formula_sum "Si O2"
_cell_formula_units_Z 72
_cell_length_a 12.305000
_cell_length_b 24.485281
_cell_length_c 13.043076
_cell_angle_alpha 90.000000
_cell_angle_beta 90.000000
_cell_angle_gamma 90.000000
_cell_volume 3929.766403
_symmetry_space_group_name_H-M "I M M M"
_symmetry_group_IT_number 71
_symmetry_cell_setting 'orthorhombic'
loop_
_space_group_symop_operation_xyz
x,y,z
-x,-y,z
x,-y,-z
-x,y,-z
-x,-y,-z
x,y,-z
-x,y,z
x,-y,z
1/2+x,1/2+y,1/2+z
1/2-x,1/2-y,1/2+z
1/2+x,1/2-y,1/2-z
1/2-x,1/2+y,1/2-z
1/2-x,1/2-y,1/2-z
1/2+x,1/2+y,1/2-z
1/2-x,1/2+y,1/2+z
1/2+x,1/2-y,1/2+z
loop_
_atom_site_type_symbol
_atom_site_label
_atom_site_fract_x
_atom_site_fract_y
_atom_site_fract_z
Si Si1 0.724063 0.886052 0.825311
Si Si2 0.371473 0.565180 0.500000
Si Si3 0.500000 0.936220 0.793319
Si Si4 0.257825 0.163916 0.379646
Si Si5 0.876568 0.270811 0.623098
Si Si6 0.500000 0.152247 0.615705
O O1 0.612595 0.919241 0.847110
O O2 0.753277 0.884432 0.703941
O O3 0.693961 0.823122 0.847398
O O4 0.815627 0.908445 0.899971
O O5 0.352786 0.500000 0.500000
O O6 0.500000 0.575099 0.500000
O O7 0.500000 0.898037 0.693131
O O8 0.500000 0.000000 0.771694
O O9 0.238728 0.149576 0.500000
O O10 0.179528 0.213685 0.349924
O O11 0.384885 0.182510 0.372467
O O12 0.882452 0.271132 0.500000
O O13 0.000000 0.276105 0.663134
O O14 0.500000 0.130680 0.500000
#
# Coordination Sequence:
#
# PCOD9519807 Si02
#       6
#    16   8   8  16  16   8
#     4  11  20  38  57  81 115 147 191 239 281 339
#     4  11  26  45  61  81 111 148 189 239 295 344
#     4  10  20  32  56  84 105 143 193 238 289 328
#     4   9  19  34  55  83 115 155 187 225 283 334
#     4  10  19  33  52  79 115 150 189 238 280 334
#     4   8  16  33  51  77 118 150 181 230 273 337
#
# _framework density 18.321698999999999
#
# number of rings (size 3 to 8) (size 9 to 14) (size 15 to 20)
#    0.000    2.111    2.222    1.333    0.000    1.556 
#    2.000    1.111    0.000    2.000    0.000    1.556 
#    0.000    0.000    0.000    0.000    0.000    0.000 
#
# Total GULP energy -200657.483368 kJ/mol
# GULP energy per Si atom -5573.818982 kJ/mol
# Density = 1.828000 g / cm^3
# Si number density = 18.321699 Si / 1000 Ang^3
#
#
#
# Elastic Constant Matrix: (Units=GPa)
#
#
# Indices 1 2 3 4 5 6 
#
# 1 105.2217 47.6104 67.8085 0.0000 0.0000 0.0000
# 2 47.6104 62.2162 31.1685 -0.0001 0.0000 0.0000
# 3 67.8085 31.1685 83.3156 -0.0001 0.0000 0.0000
# 4 0.0000 -0.0001 -0.0001 8.7729 0.0000 0.0000
# 5 0.0000 0.0000 0.0000 0.0000 27.8260 0.0000
# 6 0.0000 0.0000 0.0000 0.0000 0.0000 23.5670
#
#
#
# Elastic Compliance Matrix: (Units=1/GPa)
#
#
# Indices 1 2 3 4 5 6 
#
# 1 0.024846 -0.010932 -0.016132 0.000000 0.000000 0.000000
# 2 -0.010932 0.024590 -0.000302 0.000000 0.000000 0.000000
# 3 -0.016132 -0.000302 0.025245 0.000000 0.000000 0.000000
# 4 0.000000 0.000000 0.000000 0.113988 0.000000 0.000000
# 5 0.000000 0.000000 0.000000 0.000000 0.035938 0.000000
# 6 0.000000 0.000000 0.000000 0.000000 0.000000 0.042432
#
#
# Mechanical properties :
#
#
# Convention : Reuss Voigt Hill
#
# Bulk Modulus (GPa) = 50.12710 60.43647 55.28179
# Shear Modulus (GPa) = 15.22444 18.97760 17.10102
#
# Velocity S-wave (km/s) = 2.88575 3.22187 3.05843
# Velocity P-wave (km/s) = 6.20663 6.84825 6.53532
#
# Compressibility (1/GPa) = 0.01994929
#
# Stress axis : x y z
#
# Youngs Moduli (GPa) = 40.24779 40.66760 39.61166
#
# Poissons Ratio (x) = 0.44456 0.63902
# Poissons Ratio (y) = 0.43997 0.01197
# Poissons Ratio (z) = 0.64928 0.01229
#
# Static dielectric constant tensor:
#      x y z
#    x 1.663190 0.000000 0.000000 
#    y 0.000000 1.582470 0.000000 
#    z 0.000000 0.000000 1.709530 
# 
# From -- ./inp_files/32622.got.cif
#   From: 2010.05.17/outbox.cif.g08.bks.cpg/sg71_17_cif.got.tgz:32622.got - 2010.06.03 16:22:01.
