data_PCOD9519318
_publ_section_title
;
Structure prediction by ZEFSAII (Michael W. Deem and Ramdas Pophale) SiO2 
 PCOD9519318
Probable space group: I M M M
;
_chemical_formula_sum "Si O2"
_cell_formula_units_Z 128
_cell_length_a 7.347997
_cell_length_b 29.841924
_cell_length_c 26.582475
_cell_angle_alpha 90.000000
_cell_angle_beta 90.000000
_cell_angle_gamma 90.000000
_cell_volume 5828.961736
_symmetry_space_group_name_H-M "I M M M"
_symmetry_group_IT_number 71
_symmetry_cell_setting 'orthorhombic'
loop_
_space_group_symop_operation_xyz
x,y,z
-x,-y,z
x,-y,-z
-x,y,-z
-x,-y,-z
x,y,-z
-x,y,z
x,-y,z
1/2+x,1/2+y,1/2+z
1/2-x,1/2-y,1/2+z
1/2+x,1/2-y,1/2-z
1/2-x,1/2+y,1/2-z
1/2-x,1/2-y,1/2-z
1/2+x,1/2+y,1/2-z
1/2-x,1/2+y,1/2+z
1/2+x,1/2-y,1/2+z
loop_
_atom_site_type_symbol
_atom_site_label
_atom_site_fract_x
_atom_site_fract_y
_atom_site_fract_z
Si Si1 0.210589 0.194701 0.385385
Si Si2 0.719376 0.284726 0.557695
Si Si3 0.221774 0.114637 0.942337
Si Si4 0.277619 0.551382 0.352425
Si Si5 0.717653 0.701206 0.227131
Si Si6 0.278452 0.551551 0.153781
Si Si7 0.778071 0.894990 0.753794
Si Si8 0.277851 0.392233 0.942968
O O1 0.217793 0.243867 0.408738
O O2 0.290646 0.196658 0.329650
O O3 0.282733 0.156765 0.422994
O O4 0.000000 0.181729 0.378620
O O5 0.776633 0.277498 0.500000
O O6 0.500000 0.284250 0.558784
O O7 0.777128 0.334814 0.572490
O O8 0.281262 0.078591 0.901687
O O9 0.000000 0.114391 0.942725
O O10 0.278741 0.106309 0.000000
O O11 0.500000 0.551563 0.352456
O O12 0.219561 0.500000 0.353049
O O13 0.219123 0.576498 0.301772
O O14 0.500000 0.697689 0.224969
O O15 0.750000 0.750000 0.250000
O O16 0.780280 0.656885 0.256555
O O17 0.500000 0.551792 0.154159
O O18 0.220815 0.500000 0.159385
O O19 0.221806 0.582066 0.201167
O O20 0.222564 0.572978 0.100528
O O21 0.000000 0.895810 0.754006
O O22 0.500000 0.393085 0.944787
O O23 0.216251 0.400863 0.000000
#
# Coordination Sequence:
#
# PCOD9519318 Si02
#       8
#    16  16  16  16  16  16  16  16
#     4  10  19  32  48  68  94 126 162 197 236 284
#     4   9  18  31  47  69  96 127 162 195 231 280
#     4   8  15  27  40  58  88 121 150 185 231 278
#     4   9  16  24  38  61  85 115 155 190 226 279
#     4  10  21  34  49  70  97 127 160 196 239 287
#     4   9  15  24  39  58  85 120 152 186 229 276
#     4   9  16  28  42  60  88 119 151 190 234 279
#     4   9  16  26  40  60  88 121 154 188 231 280
#
# _framework density 21.959315
#
# number of rings (size 3 to 8) (size 9 to 14) (size 15 to 20)
#    0.000    2.875    1.250    1.500    1.750    3.250 
#    0.000    2.500    0.000    0.000    0.000    0.000 
#    0.000    5.000    0.000    5.375    0.000    5.250 
#
# Total GULP energy -357372.292829 kJ/mol
# GULP energy per Si atom -5583.942075 kJ/mol
# Density = 2.190933 g / cm^3
# Si number density = 21.959315 Si / 1000 Ang^3
#
#
#
# Elastic Constant Matrix: (Units=GPa)
#
#
# Indices 1 2 3 4 5 6 
#
# 1 79.3095 -3.3764 -1.4489 0.0000 0.0000 0.0000
# 2 -3.3764 186.2022 89.7676 0.0000 0.0000 0.0000
# 3 -1.4489 89.7676 116.9173 0.0000 0.0000 0.0000
# 4 0.0000 0.0000 0.0000 29.5428 0.0000 0.0000
# 5 0.0000 0.0000 0.0000 0.0000 -4.9563 0.0000
# 6 0.0000 0.0000 0.0000 0.0000 0.0000 6.7029
#
#
#
# Elastic Compliance Matrix: (Units=1/GPa)
#
#
# Indices 1 2 3 4 5 6 
#
# 1 0.012619 0.000244 -0.000031 0.000000 0.000000 0.000000
# 2 0.000244 0.008531 -0.006547 0.000000 0.000000 0.000000
# 3 -0.000031 -0.006547 0.013580 0.000000 0.000000 0.000000
# 4 0.000000 0.000000 0.000000 0.033849 0.000000 0.000000
# 5 0.000000 0.000000 0.000000 0.000000 -0.201762 0.000000
# 6 0.000000 0.000000 0.000000 0.000000 0.000000 0.149188
#
#
# Mechanical properties :
#
#
# Convention : Reuss Voigt Hill
#
# Bulk Modulus (GPa) = 45.32898 61.36818 53.34858
# Shear Modulus (GPa) = 138.78374 26.09032 82.43703
#
# Velocity S-wave (km/s) = 7.95849 3.45065 6.13370
# Velocity P-wave (km/s) = 10.25364 6.62442 8.63192
#
# Compressibility (1/GPa) = 0.02206094
#
# Stress axis : x y z
#
# Youngs Moduli (GPa) = 79.24786 117.21518 73.64019
#
# Poissons Ratio (x) = -0.02855 0.00226
# Poissons Ratio (y) = -0.01930 0.48214
# Poissons Ratio (z) = 0.00243 0.76743
#
# Static dielectric constant tensor:
#      x y z
#    x 1.974150 0.000000 0.000000 
#    y 0.000000 1.764430 0.000000 
#    z 0.000000 0.000000 1.764140 
# 
# From -- ./inp_files/59292.got.cif
#   From: 2010.05.17/outbox.cif.g08.bks.cpg/sg71_30_cif.got.tgz:59292.got - 2010.06.03 16:22:01.
