data_PCOD9519633
_publ_section_title
;
Structure prediction by ZEFSAII (Michael W. Deem and Ramdas Pophale) SiO2 
 PCOD9519633
Probable space group: I M M M
;
_chemical_formula_sum "Si O2"
_cell_formula_units_Z 120
_cell_length_a 8.304772
_cell_length_b 26.805475
_cell_length_c 28.193402
_cell_angle_alpha 90.000000
_cell_angle_beta 90.000000
_cell_angle_gamma 90.000000
_cell_volume 6276.227899
_symmetry_space_group_name_H-M "I M M M"
_symmetry_group_IT_number 71
_symmetry_cell_setting 'orthorhombic'
loop_
_space_group_symop_operation_xyz
x,y,z
-x,-y,z
x,-y,-z
-x,y,-z
-x,-y,-z
x,y,-z
-x,y,z
x,-y,z
1/2+x,1/2+y,1/2+z
1/2-x,1/2-y,1/2+z
1/2+x,1/2-y,1/2-z
1/2-x,1/2+y,1/2-z
1/2-x,1/2-y,1/2-z
1/2+x,1/2+y,1/2-z
1/2-x,1/2+y,1/2+z
1/2+x,1/2-y,1/2+z
loop_
_atom_site_type_symbol
_atom_site_label
_atom_site_fract_x
_atom_site_fract_y
_atom_site_fract_z
Si Si1 0.318250 0.941429 0.743491
Si Si2 0.809198 0.303641 0.266442
Si Si3 0.315444 0.630735 0.820930
Si Si4 0.190882 0.358305 0.074594
Si Si5 0.196546 0.245899 0.946663
Si Si6 0.806111 0.164242 0.870420
Si Si7 0.305941 0.443189 0.349439
Si Si8 0.197047 0.558510 0.000000
O O1 0.500000 0.920204 0.740323
O O2 0.208069 0.923890 0.700526
O O3 0.244175 0.931684 0.795219
O O4 0.332275 0.000000 0.740751
O O5 0.750000 0.250000 0.250000
O O6 0.754213 0.338343 0.223161
O O7 0.736401 0.318945 0.317083
O O8 0.000000 0.303961 0.271263
O O9 0.500000 0.644110 0.828785
O O10 0.222608 0.636289 0.869787
O O11 0.253689 0.303156 0.060442
O O12 0.249096 0.406515 0.044705
O O13 0.000000 0.356704 0.065481
O O14 0.253699 0.205993 0.907554
O O15 0.000000 0.247311 0.943293
O O16 0.237918 0.229958 0.000000
O O17 0.750400 0.106535 0.877519
O O18 0.000000 0.163389 0.874254
O O19 0.500000 0.444783 0.352020
O O20 0.248093 0.500000 0.361230
O O21 0.250445 0.500000 0.000000
O O22 0.000000 0.556212 0.000000
#
# Coordination Sequence:
#
# PCOD9519633 Si02
#       8
#    16  16  16  16  16  16  16   8
#     4  10  20  34  53  77 106 145 191 233 272 322
#     4  12  24  38  55  78 113 150 187 233 285 345
#     4  12  24  37  54  80 115 152 189 230 286 344
#     4  10  19  35  58  81 108 145 191 240 293 346
#     4   9  17  32  56  83 107 138 183 234 282 335
#     4  10  19  32  54  82 110 144 189 233 280 339
#     4   9  17  30  49  74 108 148 185 225 274 329
#     4   9  18  34  59  87 111 141 190 252 308 355
#
# _framework density 19.119765999999998
#
# number of rings (size 3 to 8) (size 9 to 14) (size 15 to 20)
#    0.000    1.800    2.000    3.600    0.000    2.400 
#    0.000    1.667    0.000    2.000    0.000    2.800 
#    0.000    0.000    0.000    4.533    0.000    4.800 
#
# Total GULP energy -334399.346317 kJ/mol
# GULP energy per Si atom -5573.322439 kJ/mol
# Density = 1.907625 g / cm^3
# Si number density = 19.119766 Si / 1000 Ang^3
#
#
#
# Elastic Constant Matrix: (Units=GPa)
#
#
# Indices 1 2 3 4 5 6 
#
# 1 7.0430 7.7381 -7.3301 0.0000 0.0000 0.0000
# 2 7.7381 157.0345 80.4431 0.0000 0.0000 0.0000
# 3 -7.3301 80.4431 115.8588 0.0000 0.0000 0.0000
# 4 0.0000 0.0000 0.0000 28.3202 0.0000 0.0000
# 5 0.0000 0.0000 0.0000 0.0000 16.4387 0.0000
# 6 0.0000 0.0000 0.0000 0.0000 0.0000 13.8507
#
#
#
# Elastic Compliance Matrix: (Units=1/GPa)
#
#
# Indices 1 2 3 4 5 6 
#
# 1 0.201899 -0.025596 0.030546 0.000000 0.000000 0.000000
# 2 -0.025596 0.013128 -0.010735 0.000000 0.000000 0.000000
# 3 0.030546 -0.010735 0.018017 0.000000 0.000000 0.000000
# 4 0.000000 0.000000 0.000000 0.035311 0.000000 0.000000
# 5 0.000000 0.000000 0.000000 0.000000 0.060832 0.000000
# 6 0.000000 0.000000 0.000000 0.000000 0.000000 0.072198
#
#
# Mechanical properties :
#
#
# Convention : Reuss Voigt Hill
#
# Bulk Modulus (GPa) = 4.51521 49.07094 26.79308
# Shear Modulus (GPa) = 10.27157 24.99425 17.63291
#
# Velocity S-wave (km/s) = 2.32032 3.61951 3.04013
# Velocity P-wave (km/s) = 3.08953 6.57180 5.13487
#
# Compressibility (1/GPa) = 0.22147359
#
# Stress axis : x y z
#
# Youngs Moduli (GPa) = 4.95297 76.17136 55.50311
#
# Poissons Ratio (x) = 1.94970 -1.69538
# Poissons Ratio (y) = 0.12678 0.59581
# Poissons Ratio (z) = -0.15129 0.81767
#
# Static dielectric constant tensor:
#      x y z
#    x 1.649160 0.000000 0.000000 
#    y 0.000000 2.567420 0.000000 
#    z 0.000000 0.000000 1.638370 
# 
# From -- ./inp_files/63779.got.cif
#   From: 2010.05.17/outbox.cif.g08.bks.cpg/sg71_32_cif.got.tgz:63779.got - 2010.06.03 16:22:01.
