data_PCOD9519704
_publ_section_title
;
Structure prediction by ZEFSAII (Michael W. Deem and Ramdas Pophale) SiO2 
 PCOD9519704
Probable space group: I M M M
;
_chemical_formula_sum "Si O2"
_cell_formula_units_Z 88
_cell_length_a 8.471614
_cell_length_b 30.687701
_cell_length_c 19.224788
_cell_angle_alpha 90.000000
_cell_angle_beta 90.000000
_cell_angle_gamma 90.000000
_cell_volume 4997.951907
_symmetry_space_group_name_H-M "I M M M"
_symmetry_group_IT_number 71
_symmetry_cell_setting 'orthorhombic'
loop_
_space_group_symop_operation_xyz
x,y,z
-x,-y,z
x,-y,-z
-x,y,-z
-x,-y,-z
x,y,-z
-x,y,z
x,-y,z
1/2+x,1/2+y,1/2+z
1/2-x,1/2-y,1/2+z
1/2+x,1/2-y,1/2-z
1/2-x,1/2+y,1/2-z
1/2-x,1/2-y,1/2-z
1/2+x,1/2+y,1/2-z
1/2-x,1/2+y,1/2+z
1/2+x,1/2-y,1/2+z
loop_
_atom_site_type_symbol
_atom_site_label
_atom_site_fract_x
_atom_site_fract_y
_atom_site_fract_z
Si Si1 0.683583 0.740712 0.000000
Si Si2 0.692077 0.596245 0.919452
Si Si3 0.182464 0.346449 0.500000
Si Si4 0.810625 0.345504 0.207176
Si Si5 0.820767 0.000000 0.583906
Si Si6 0.688442 0.242015 0.353253
Si Si7 0.311368 0.658490 0.352081
O O1 0.694166 0.793507 0.000000
O O2 0.768554 0.725735 0.069562
O O3 0.500000 0.728045 0.000000
O O4 0.500000 0.595832 0.918982
O O5 0.752066 0.628332 0.860028
O O6 0.750040 0.547194 0.900059
O O7 0.738438 0.606155 0.000000
O O8 0.258294 0.360255 0.573375
O O9 0.000000 0.358484 0.500000
O O10 0.750778 0.295402 0.197784
O O11 0.749683 0.362959 0.281150
O O12 0.000000 0.345156 0.207753
O O13 0.832128 0.000000 0.500000
O O14 0.000000 0.000000 0.612116
O O15 0.500000 0.244608 0.345977
O O16 0.751559 0.291234 0.348652
O O17 0.500000 0.659403 0.351372
#
# Coordination Sequence:
#
# PCOD9519704 Si02
#       7
#     8  16   8  16   8  16  16
#     4   9  17  27  43  63  81 108 153 198 233 275
#     4   9  18  33  52  73  96 125 162 199 237 284
#     4   9  17  31  49  67  87 112 147 194 243 287
#     4  11  22  32  44  66  97 126 154 196 246 287
#     4   7  12  28  53  73  91 120 157 196 235 279
#     4   9  19  32  44  59  86 124 159 196 241 285
#     4  10  19  33  50  66  86 120 165 204 238 281
#
# _framework density 17.607213000000002
#
# number of rings (size 3 to 8) (size 9 to 14) (size 15 to 20)
#    0.000    2.636    0.000    3.273    1.273    4.727 
#    0.000    0.455    0.000    1.636    0.000    0.000 
#    0.000    0.727    0.000    7.818    0.000    3.455 
#
# Total GULP energy -245062.376479 kJ/mol
# GULP energy per Si atom -5569.599465 kJ/mol
# Density = 1.756714 g / cm^3
# Si number density = 17.607213 Si / 1000 Ang^3
#
#
#
# Elastic Constant Matrix: (Units=GPa)
#
#
# Indices 1 2 3 4 5 6 
#
# 1 22.3846 6.7259 20.7339 0.0000 0.0000 0.0000
# 2 6.7259 36.2202 22.4452 0.0000 0.0000 0.0000
# 3 20.7339 22.4452 141.4443 0.0000 0.0000 0.0000
# 4 0.0000 0.0000 0.0000 13.3566 0.0000 0.0000
# 5 0.0000 0.0000 0.0000 0.0000 26.2282 0.0000
# 6 0.0000 0.0000 0.0000 0.0000 0.0000 8.7611
#
#
#
# Elastic Compliance Matrix: (Units=1/GPa)
#
#
# Indices 1 2 3 4 5 6 
#
# 1 0.052677 -0.005542 -0.006842 0.000000 0.000000 0.000000
# 2 -0.005542 0.031203 -0.004139 0.000000 0.000000 0.000000
# 3 -0.006842 -0.004139 0.008730 0.000000 0.000000 0.000000
# 4 0.000000 0.000000 0.000000 0.074870 0.000000 0.000000
# 5 0.000000 0.000000 0.000000 0.000000 0.038127 0.000000
# 6 0.000000 0.000000 0.000000 0.000000 0.000000 0.114141
#
#
# Mechanical properties :
#
#
# Convention : Reuss Voigt Hill
#
# Bulk Modulus (GPa) = 16.78896 33.31768 25.05332
# Shear Modulus (GPa) = 13.41750 19.67877 16.54814
#
# Velocity S-wave (km/s) = 2.76351 3.34676 3.06902
# Velocity P-wave (km/s) = 4.44282 5.82222 5.17865
#
# Compressibility (1/GPa) = 0.05956295
#
# Stress axis : x y z
#
# Youngs Moduli (GPa) = 18.98379 32.04830 114.55094
#
# Poissons Ratio (x) = 0.17760 0.78379
# Poissons Ratio (y) = 0.10520 0.47414
# Poissons Ratio (z) = 0.12989 0.13265
#
# Static dielectric constant tensor:
#      x y z
#    x 1.598290 0.000000 0.000000 
#    y 0.000000 1.635160 0.000000 
#    z 0.000000 0.000000 1.600400 
# 
# From -- ./inp_files/16726.got.cif
#   From: 2010.05.17/outbox.cif.g08.bks.cpg/sg71_9_cif.got.tgz:16726.got - 2010.06.03 16:22:01.
