data_PCOD9519023
_publ_section_title
;
Structure prediction by ZEFSAII (Michael W. Deem and Ramdas Pophale) SiO2 
 PCOD9519023
Probable space group: I M M M
;
_chemical_formula_sum "Si O2"
_cell_formula_units_Z 96
_cell_length_a 21.433516
_cell_length_b 22.585019
_cell_length_c 12.251083
_cell_angle_alpha 90.000000
_cell_angle_beta 90.000000
_cell_angle_gamma 90.000000
_cell_volume 5930.459739
_symmetry_space_group_name_H-M "I M M M"
_symmetry_group_IT_number 71
_symmetry_cell_setting 'orthorhombic'
loop_
_space_group_symop_operation_xyz
x,y,z
-x,-y,z
x,-y,-z
-x,y,-z
-x,-y,-z
x,y,-z
-x,y,z
x,-y,z
1/2+x,1/2+y,1/2+z
1/2-x,1/2-y,1/2+z
1/2+x,1/2-y,1/2-z
1/2-x,1/2+y,1/2-z
1/2-x,1/2-y,1/2-z
1/2+x,1/2+y,1/2-z
1/2-x,1/2+y,1/2+z
1/2+x,1/2-y,1/2+z
loop_
_atom_site_type_symbol
_atom_site_label
_atom_site_fract_x
_atom_site_fract_y
_atom_site_fract_z
Si Si1 0.735243 0.177229 0.377130
Si Si2 0.069653 0.806117 0.127258
Si Si3 0.677437 0.567990 0.157989
Si Si4 0.655300 0.763179 0.795324
Si Si5 0.387699 0.564928 0.375868
Si Si6 0.073211 0.259384 0.500000
Si Si7 0.926462 0.115595 0.500000
O O1 0.710876 0.187139 0.500000
O O2 0.769243 0.113917 0.373481
O O3 0.685272 0.186462 0.281161
O O4 0.789086 0.225773 0.351613
O O5 0.118627 0.779247 0.211020
O O6 0.070507 0.877267 0.137627
O O7 0.000000 0.784260 0.152234
O O8 0.083958 0.792749 0.000000
O O9 0.689208 0.500000 0.126818
O O10 0.666371 0.570160 0.287252
O O11 0.612764 0.589715 0.101791
O O12 0.608485 0.781233 0.891533
O O13 0.364352 0.566606 0.500000
O O14 0.417778 0.500000 0.359171
O O15 0.078576 0.187051 0.500000
O O16 0.000000 0.273513 0.500000
O O17 0.000000 0.100258 0.500000
#
# Coordination Sequence:
#
# PCOD9519023 Si02
#       7
#    16  16  16  16  16   8   8
#     4  11  21  35  50  72 102 132 177 217 258 311
#     4  10  19  31  47  68  93 128 173 215 260 304
#     4  11  20  34  51  71 100 136 179 219 261 303
#     4  11  20  34  50  72  98 134 171 213 267 310
#     4   9  18  31  44  63  93 129 171 210 248 289
#     4  11  20  35  56  79 111 138 177 219 261 310
#     4  11  21  34  51  76 108 141 182 226 260 299
#
# _framework density 16.187615000000001
#
# number of rings (size 3 to 8) (size 9 to 14) (size 15 to 20)
#    0.000    1.500    5.000    1.250    0.000    3.000 
#    1.500    3.333    0.000    0.000    0.000    0.000 
#    0.000    3.333    0.000    8.167    0.000    0.000 
#
# Total GULP energy -267637.194437 kJ/mol
# GULP energy per Si atom -5575.774884 kJ/mol
# Density = 1.615077 g / cm^3
# Si number density = 16.187615 Si / 1000 Ang^3
#
#
#
# Elastic Constant Matrix: (Units=GPa)
#
#
# Indices 1 2 3 4 5 6 
#
# 1 71.7227 34.1099 49.0593 0.0000 0.0000 0.0000
# 2 34.1099 57.1657 31.8787 0.0000 0.0000 0.0000
# 3 49.0593 31.8787 106.9233 0.0000 0.0000 0.0000
# 4 0.0000 0.0000 0.0000 17.8268 0.0000 0.0000
# 5 0.0000 0.0000 0.0000 0.0000 18.6520 0.0000
# 6 0.0000 0.0000 0.0000 0.0000 0.0000 13.2188
#
#
#
# Elastic Compliance Matrix: (Units=1/GPa)
#
#
# Indices 1 2 3 4 5 6 
#
# 1 0.024243 -0.009910 -0.008169 0.000000 0.000000 0.000000
# 2 -0.009910 0.025033 -0.002916 0.000000 0.000000 0.000000
# 3 -0.008169 -0.002916 0.013970 0.000000 0.000000 0.000000
# 4 0.000000 0.000000 0.000000 0.056095 0.000000 0.000000
# 5 0.000000 0.000000 0.000000 0.000000 0.053614 0.000000
# 6 0.000000 0.000000 0.000000 0.000000 0.000000 0.075650
#
#
# Mechanical properties :
#
#
# Convention : Reuss Voigt Hill
#
# Bulk Modulus (GPa) = 47.04706 51.76749 49.40728
# Shear Modulus (GPa) = 16.79654 17.99043 17.39349
#
# Velocity S-wave (km/s) = 3.22470 3.33734 3.28150
# Velocity P-wave (km/s) = 6.55680 6.84832 6.70415
#
# Compressibility (1/GPa) = 0.02125531
#
# Stress axis : x y z
#
# Youngs Moduli (GPa) = 41.24858 39.94796 71.58178
#
# Poissons Ratio (x) = 0.39589 0.58474
# Poissons Ratio (y) = 0.40878 0.20875
# Poissons Ratio (z) = 0.33695 0.11650
#
# Static dielectric constant tensor:
#      x y z
#    x 1.533660 0.000000 0.000000 
#    y 0.000000 1.540980 0.000000 
#    z 0.000000 0.000000 1.592570 
# 
# From -- ./inp_files/26011.got.cif
#   From: 2010.05.17/outbox.cif.g08.bks.cpg/sg71_14_cif.got.tgz:26011.got - 2010.06.03 16:22:01.
