data_PCOD9519246
_publ_section_title
;
Structure prediction by ZEFSAII (Michael W. Deem and Ramdas Pophale) SiO2 
 PCOD9519246
Probable space group: I M M M
;
_chemical_formula_sum "Si O2"
_cell_formula_units_Z 104
_cell_length_a 21.629453
_cell_length_b 14.555760
_cell_length_c 18.760745
_cell_angle_alpha 90.000000
_cell_angle_beta 90.000000
_cell_angle_gamma 90.000000
_cell_volume 5906.504009
_symmetry_space_group_name_H-M "I M M M"
_symmetry_group_IT_number 71
_symmetry_cell_setting 'orthorhombic'
loop_
_space_group_symop_operation_xyz
x,y,z
-x,-y,z
x,-y,-z
-x,y,-z
-x,-y,-z
x,y,-z
-x,y,z
x,-y,z
1/2+x,1/2+y,1/2+z
1/2-x,1/2-y,1/2+z
1/2+x,1/2-y,1/2-z
1/2-x,1/2+y,1/2-z
1/2-x,1/2-y,1/2-z
1/2+x,1/2+y,1/2-z
1/2-x,1/2+y,1/2+z
1/2+x,1/2-y,1/2+z
loop_
_atom_site_type_symbol
_atom_site_label
_atom_site_fract_x
_atom_site_fract_y
_atom_site_fract_z
Si Si1 0.612134 0.500000 0.914455
Si Si2 0.428245 0.704157 0.916393
Si Si3 0.430283 0.608857 0.288266
Si Si4 0.256253 0.000000 0.585525
Si Si5 0.500000 0.893714 0.413975
Si Si6 0.657774 0.254922 0.203369
Si Si7 0.903812 0.234865 0.084188
Si Si8 0.705758 0.182746 0.658622
O O1 0.580782 0.403671 0.894772
O O2 0.683822 0.500000 0.892490
O O3 0.610990 0.500000 0.000000
O O4 0.500000 0.727623 0.910102
O O5 0.385653 0.763650 0.864214
O O6 0.410273 0.711565 0.000000
O O7 0.500000 0.627188 0.260275
O O8 0.419916 0.500000 0.287128
O O9 0.377878 0.663241 0.245027
O O10 0.427972 0.651480 0.367712
O O11 0.288711 0.087887 0.618055
O O12 0.258980 0.000000 0.500000
O O13 0.500000 0.900186 0.500000
O O14 0.558636 0.828588 0.395409
O O15 0.500000 0.000000 0.387430
O O16 0.670550 0.180735 0.265274
O O17 0.724844 0.283850 0.174658
O O18 0.833178 0.250747 0.107391
O O19 0.911323 0.220679 0.000000
#
# Coordination Sequence:
#
# PCOD9519246 Si02
#       8
#     8  16  16   8   8  16  16  16
#     4   9  17  28  45  76 115 141 168 213 260 313
#     4  10  19  31  51  79 109 142 177 216 266 322
#     4  10  21  35  54  79 108 148 187 220 268 328
#     4  11  20  33  56  84 111 143 183 225 271 327
#     4   9  18  32  51  75 103 135 169 218 282 330
#     4  10  21  37  50  73 110 148 181 222 269 319
#     4  10  20  36  55  77 106 137 180 233 278 330
#     4  10  22  35  52  76 105 142 184 223 272 326
#
# _framework density 17.607709
#
# number of rings (size 3 to 8) (size 9 to 14) (size 15 to 20)
#    0.000    2.077    2.308    1.154    3.231    1.846 
#    0.000    0.769    0.000    0.000    0.000    0.538 
#    0.000    1.231    0.000    0.000    0.000    0.000 
#
# Total GULP energy -289822.219788 kJ/mol
# GULP energy per Si atom -5573.504227 kJ/mol
# Density = 1.756763 g / cm^3
# Si number density = 17.607709 Si / 1000 Ang^3
#
#
#
# Elastic Constant Matrix: (Units=GPa)
#
#
# Indices 1 2 3 4 5 6 
#
# 1 104.3046 26.9970 41.9691 0.0000 0.0000 0.0000
# 2 26.9970 37.7041 16.7513 0.0000 0.0000 0.0000
# 3 41.9691 16.7513 99.1749 0.0000 0.0000 0.0000
# 4 0.0000 0.0000 0.0000 27.5352 0.0000 0.0000
# 5 0.0000 0.0000 0.0000 0.0000 32.4032 0.0000
# 6 0.0000 0.0000 0.0000 0.0000 0.0000 80.5477
#
#
#
# Elastic Compliance Matrix: (Units=1/GPa)
#
#
# Indices 1 2 3 4 5 6 
#
# 1 0.013302 -0.007593 -0.004346 0.000000 0.000000 0.000000
# 2 -0.007593 0.033009 -0.002362 0.000000 0.000000 0.000000
# 3 -0.004346 -0.002362 0.012322 0.000000 0.000000 0.000000
# 4 0.000000 0.000000 0.000000 0.036317 0.000000 0.000000
# 5 0.000000 0.000000 0.000000 0.000000 0.030861 0.000000
# 6 0.000000 0.000000 0.000000 0.000000 0.000000 0.012415
#
#
# Mechanical properties :
#
#
# Convention : Reuss Voigt Hill
#
# Bulk Modulus (GPa) = 33.30192 45.84649 39.57420
# Shear Modulus (GPa) = 28.27449 38.46162 33.36806
#
# Velocity S-wave (km/s) = 4.01159 4.67879 4.35798
# Velocity P-wave (km/s) = 6.35700 7.43521 6.91715
#
# Compressibility (1/GPa) = 0.03002830
#
# Stress axis : x y z
#
# Youngs Moduli (GPa) = 75.17943 30.29508 81.15894
#
# Poissons Ratio (x) = 0.23004 0.35275
# Poissons Ratio (y) = 0.57085 0.19171
# Poissons Ratio (z) = 0.32676 0.07156
#
# Static dielectric constant tensor:
#      x y z
#    x 1.626950 0.000000 0.000000 
#    y 0.000000 1.601320 0.000000 
#    z 0.000000 0.000000 1.634970 
# 
# From -- ./inp_files/55091.got.cif
#   From: 2010.05.17/outbox.cif.g08.bks.cpg/sg71_28_cif.got.tgz:55091.got - 2010.06.03 16:22:01.
