data_PCOD9519146
_publ_section_title
;
Structure prediction by ZEFSAII (Michael W. Deem and Ramdas Pophale) SiO2 
 PCOD9519146
Probable space group: I M M M
;
_chemical_formula_sum "Si O2"
_cell_formula_units_Z 116
_cell_length_a 7.566202
_cell_length_b 30.331074
_cell_length_c 24.531126
_cell_angle_alpha 90.000000
_cell_angle_beta 90.000000
_cell_angle_gamma 90.000000
_cell_volume 5629.673441
_symmetry_space_group_name_H-M "I M M M"
_symmetry_group_IT_number 71
_symmetry_cell_setting 'orthorhombic'
loop_
_space_group_symop_operation_xyz
x,y,z
-x,-y,z
x,-y,-z
-x,y,-z
-x,-y,-z
x,y,-z
-x,y,z
x,-y,z
1/2+x,1/2+y,1/2+z
1/2-x,1/2-y,1/2+z
1/2+x,1/2-y,1/2-z
1/2-x,1/2+y,1/2-z
1/2-x,1/2-y,1/2-z
1/2+x,1/2+y,1/2-z
1/2-x,1/2+y,1/2+z
1/2+x,1/2-y,1/2+z
loop_
_atom_site_type_symbol
_atom_site_label
_atom_site_fract_x
_atom_site_fract_y
_atom_site_fract_z
Si Si1 0.295967 0.857562 0.415883
Si Si2 0.000000 0.829299 0.500000
Si Si3 0.710855 0.950983 0.377726
Si Si4 0.787130 0.049352 0.749626
Si Si5 0.713210 0.950685 0.062173
Si Si6 0.291748 0.385537 0.658476
Si Si7 0.714503 0.707346 0.687618
Si Si8 0.202410 0.805250 0.687694
O O1 0.500000 0.856915 0.435060
O O2 0.230108 0.908404 0.411296
O O3 0.295256 0.836487 0.355427
O O4 0.156690 0.831999 0.452760
O O5 0.500000 0.952537 0.384784
O O6 0.745333 0.942993 0.313613
O O7 0.781682 0.000000 0.391232
O O8 0.717488 0.086206 0.790883
O O9 0.000000 0.048716 0.754355
O O10 0.722815 0.000000 0.764058
O O11 0.500000 0.951168 0.061943
O O12 0.770856 0.914178 0.104565
O O13 0.773093 0.000000 0.078393
O O14 0.771530 0.942667 0.000000
O O15 0.500000 0.380639 0.669722
O O16 0.226190 0.335577 0.654469
O O17 0.500000 0.712190 0.687008
O O18 0.788392 0.754216 0.669251
O O19 0.769868 0.697017 0.750161
O O20 0.000000 0.820435 0.690876
#
# Coordination Sequence:
#
# PCOD9519146 Si02
#       8
#    16   4  16  16  16  16  16  16
#     4  11  23  41  65  88 119 156 197 252 295 339
#     4  12  26  44  65  92 116 156 212 244 287 356
#     4   9  19  35  55  83 117 152 189 232 288 345
#     4   9  17  28  46  75 112 151 187 225 279 350
#     4   9  19  35  52  69  95 137 187 235 282 331
#     4  10  19  31  49  76 111 143 180 229 283 340
#     4   9  19  33  54  87 122 151 181 228 292 356
#     4  10  19  36  61  87 116 151 192 235 288 356
#
# _framework density 20.605103
#
# number of rings (size 3 to 8) (size 9 to 14) (size 15 to 20)
#    0.000    2.345    0.690    2.276    0.966    3.862 
#    0.000    2.759    1.517    1.655    0.000    0.000 
#    0.000    0.000    0.000    0.000    0.000    0.000 
#
# Total GULP energy -323187.168544 kJ/mol
# GULP energy per Si atom -5572.192561 kJ/mol
# Density = 2.055820 g / cm^3
# Si number density = 20.605103 Si / 1000 Ang^3
#
#
#
# Elastic Constant Matrix: (Units=GPa)
#
#
# Indices 1 2 3 4 5 6 
#
# 1 70.7071 1.3333 2.1768 0.0000 0.0000 0.0000
# 2 1.3333 80.7163 11.1955 0.0000 -0.0001 0.0000
# 3 2.1768 11.1955 20.9622 0.0000 -0.0001 0.0000
# 4 0.0000 0.0000 0.0000 -1.7328 0.0000 0.0000
# 5 0.0000 -0.0001 -0.0001 0.0000 -641.6104 0.0000
# 6 0.0000 0.0000 0.0000 0.0000 0.0000 13.8287
#
#
#
# Elastic Compliance Matrix: (Units=1/GPa)
#
#
# Indices 1 2 3 4 5 6 
#
# 1 0.014188 -0.000032 -0.001456 0.000000 0.000000 0.000000
# 2 -0.000032 0.013380 -0.007143 0.000000 0.000000 0.000000
# 3 -0.001456 -0.007143 0.051671 0.000000 0.000000 0.000000
# 4 0.000000 0.000000 0.000000 -0.577112 0.000000 0.000000
# 5 0.000000 0.000000 0.000000 0.000000 -0.001559 0.000000
# 6 0.000000 0.000000 0.000000 0.000000 0.000000 0.072314
#
#
# Mechanical properties :
#
#
# Convention : Reuss Voigt Hill
#
# Bulk Modulus (GPa) = 16.13502 22.42185 19.27843
# Shear Modulus (GPa) = -12.84699 -115.39089 -64.11894
#
# Velocity S-wave (km/s) = -2.49968 -7.49151 -5.58440
# Velocity P-wave (km/s) = 0.69541 7.99531 5.67488
#
# Compressibility (1/GPa) = 0.06197700
#
# Stress axis : x y z
#
# Youngs Moduli (GPa) = 70.48065 74.73659 19.35326
#
# Poissons Ratio (x) = 0.00242 0.02818
# Poissons Ratio (y) = 0.00228 0.13824
# Poissons Ratio (z) = 0.10262 0.53383
#
# Static dielectric constant tensor:
#      x y z
#    x 1.770070 0.000000 0.000000 
#    y 0.000000 1.771150 0.000000 
#    z 0.000000 0.000000 1.712860 
# 
# From -- ./inp_files/58252.got.cif
#   From: 2010.05.17/outbox.cif.g08.bks.cpg/sg71_30_cif.got.tgz:58252.got - 2010.06.03 16:22:01.
