data_PCOD9519527
_publ_section_title
;
Structure prediction by ZEFSAII (Michael W. Deem and Ramdas Pophale) SiO2 
 PCOD9519527
Probable space group: I M M M
;
_chemical_formula_sum "Si O2"
_cell_formula_units_Z 104
_cell_length_a 28.631097
_cell_length_b 22.612788
_cell_length_c 9.535879
_cell_angle_alpha 90.000000
_cell_angle_beta 90.000000
_cell_angle_gamma 90.000000
_cell_volume 6173.803906
_symmetry_space_group_name_H-M "I M M M"
_symmetry_group_IT_number 71
_symmetry_cell_setting 'orthorhombic'
loop_
_space_group_symop_operation_xyz
x,y,z
-x,-y,z
x,-y,-z
-x,y,-z
-x,-y,-z
x,y,-z
-x,y,z
x,-y,z
1/2+x,1/2+y,1/2+z
1/2-x,1/2-y,1/2+z
1/2+x,1/2-y,1/2-z
1/2-x,1/2+y,1/2-z
1/2-x,1/2-y,1/2-z
1/2+x,1/2+y,1/2-z
1/2-x,1/2+y,1/2+z
1/2+x,1/2-y,1/2+z
loop_
_atom_site_type_symbol
_atom_site_label
_atom_site_fract_x
_atom_site_fract_y
_atom_site_fract_z
Si Si1 0.445346 0.500000 0.170179
Si Si2 0.884960 0.345770 0.165843
Si Si3 0.054960 0.429502 0.343838
Si Si4 0.898893 0.875431 0.668798
Si Si5 0.297343 0.676470 0.163760
Si Si6 0.946010 0.770374 0.166213
Si Si7 0.704834 0.818925 0.836349
O O1 0.500000 0.500000 0.217035
O O2 0.417349 0.440472 0.211067
O O3 0.446660 0.500000 0.000000
O O4 0.917207 0.397865 0.222446
O O5 0.912501 0.284834 0.197593
O O6 0.836946 0.347304 0.249833
O O7 0.877210 0.348516 0.000000
O O8 0.070454 0.409428 0.500000
O O9 0.060375 0.500000 0.337889
O O10 0.000000 0.416449 0.332008
O O11 0.903612 0.870568 0.500000
O O12 0.844910 0.858295 0.701007
O O13 0.930365 0.826422 0.744131
O O14 0.303274 0.747716 0.173920
O O15 0.253861 0.664133 0.264876
O O16 0.286307 0.663639 0.000000
O O17 0.000000 0.754980 0.194205
O O18 0.941678 0.783357 0.000000
O O19 0.704336 0.834364 0.000000
#
# Coordination Sequence:
#
# PCOD9519527 Si02
#       7
#     8  16  16  16  16  16  16
#     4   9  18  32  53  81 109 139 177 223 272 317
#     4  11  21  33  52  78 109 140 174 217 265 314
#     4   9  19  36  56  77 104 140 179 216 256 308
#     4  10  19  34  55  78 104 137 179 222 266 320
#     4   9  18  32  51  76 104 134 171 215 266 321
#     4  10  21  34  48  73 109 142 172 212 262 311
#     4  10  19  32  52  78 106 135 172 214 265 322
#
# _framework density 16.845368000000001
#
# number of rings (size 3 to 8) (size 9 to 14) (size 15 to 20)
#    0.000    2.231    1.538    2.308    0.000    4.000 
#    0.000    1.154    1.692    1.385    0.000    0.000 
#    0.000    0.000    0.000    0.000    0.000    0.000 
#
# Total GULP energy -289978.187539 kJ/mol
# GULP energy per Si atom -5576.503607 kJ/mol
# Density = 1.680703 g / cm^3
# Si number density = 16.845368 Si / 1000 Ang^3
#
#
#
# Elastic Constant Matrix: (Units=GPa)
#
#
# Indices 1 2 3 4 5 6 
#
# 1 101.8252 37.2362 47.8330 0.0000 0.0000 0.0000
# 2 37.2362 30.6703 21.8679 0.0000 0.0000 0.0000
# 3 47.8330 21.8679 53.4498 0.0000 0.0000 0.0000
# 4 0.0000 0.0000 0.0000 22.4617 0.0000 0.0000
# 5 0.0000 0.0000 0.0000 0.0000 32.1294 0.0000
# 6 0.0000 0.0000 0.0000 0.0000 0.0000 -27.4337
#
#
#
# Elastic Compliance Matrix: (Units=1/GPa)
#
#
# Indices 1 2 3 4 5 6 
#
# 1 0.022395 -0.018213 -0.012591 0.000000 0.000000 0.000000
# 2 -0.018213 0.060844 -0.008594 0.000000 0.000000 0.000000
# 3 -0.012591 -0.008594 0.033493 0.000000 0.000000 0.000000
# 4 0.000000 0.000000 0.000000 0.044520 0.000000 0.000000
# 5 0.000000 0.000000 0.000000 0.000000 0.031124 0.000000
# 6 0.000000 0.000000 0.000000 0.000000 0.000000 -0.036451
#
#
# Mechanical properties :
#
#
# Convention : Reuss Voigt Hill
#
# Bulk Modulus (GPa) = 26.35936 44.42441 35.39188
# Shear Modulus (GPa) = 20.21289 10.69870 15.45579
#
# Velocity S-wave (km/s) = 3.46773 2.52288 3.03233
# Velocity P-wave (km/s) = 5.63164 5.90895 5.77196
#
# Compressibility (1/GPa) = 0.03793718
#
# Stress axis : x y z
#
# Youngs Moduli (GPa) = 44.65189 16.43537 29.85708
#
# Poissons Ratio (x) = 0.29933 0.37592
# Poissons Ratio (y) = 0.81324 0.25660
# Poissons Ratio (z) = 0.56220 0.14125
#
# Static dielectric constant tensor:
#      x y z
#    x 1.568040 0.000000 0.000000 
#    y 0.000000 1.552370 0.000000 
#    z 0.000000 0.000000 1.557920 
# 
# From -- ./inp_files/11556.got.cif
#   From: 2010.05.17/outbox.cif.g08.bks.cpg/sg71_6_cif.got.tgz:11556.got - 2010.06.03 16:22:01.
