data_PCOD9519861
_publ_section_title
;
Structure prediction by ZEFSAII (Michael W. Deem and Ramdas Pophale) SiO2 
 PCOD9519861
Probable space group: I M M M
;
_chemical_formula_sum "Si O2"
_cell_formula_units_Z 120
_cell_length_a 22.069911
_cell_length_b 11.314003
_cell_length_c 27.783929
_cell_angle_alpha 90.000000
_cell_angle_beta 90.000000
_cell_angle_gamma 90.000000
_cell_volume 6937.620378
_symmetry_space_group_name_H-M "I M M M"
_symmetry_group_IT_number 71
_symmetry_cell_setting 'orthorhombic'
loop_
_space_group_symop_operation_xyz
x,y,z
-x,-y,z
x,-y,-z
-x,y,-z
-x,-y,-z
x,y,-z
-x,y,z
x,-y,z
1/2+x,1/2+y,1/2+z
1/2-x,1/2-y,1/2+z
1/2+x,1/2-y,1/2-z
1/2-x,1/2+y,1/2-z
1/2-x,1/2-y,1/2-z
1/2+x,1/2+y,1/2-z
1/2-x,1/2+y,1/2+z
1/2+x,1/2-y,1/2+z
loop_
_atom_site_type_symbol
_atom_site_label
_atom_site_fract_x
_atom_site_fract_y
_atom_site_fract_z
Si Si1 0.694893 0.639508 0.699849
Si Si2 0.687380 0.373091 0.910285
Si Si3 0.431841 0.860865 0.152749
Si Si4 0.000000 0.854984 0.056158
Si Si5 0.746512 0.367944 0.557413
Si Si6 0.569130 0.731452 0.945688
Si Si7 0.380254 0.361965 0.610646
Si Si8 0.679473 0.719222 0.807129
O O1 0.702736 0.500000 0.691087
O O2 0.645465 0.686317 0.661300
O O3 0.676086 0.660854 0.754834
O O4 0.759132 0.703192 0.691814
O O5 0.714973 0.500000 0.924833
O O6 0.719572 0.249807 0.924760
O O7 0.620674 0.362551 0.933325
O O8 0.682988 0.367726 0.852552
O O9 0.500000 0.821422 0.166246
O O10 0.424258 0.828479 0.096289
O O11 0.379577 0.797468 0.182414
O O12 0.427751 0.000000 0.159059
O O13 0.060017 0.813615 0.084690
O O14 0.000000 0.000000 0.055385
O O15 0.000000 0.818885 0.000000
O O16 0.749779 0.368319 0.500000
O O17 0.768330 0.500000 0.574319
O O18 0.677269 0.357745 0.575054
O O19 0.500000 0.686224 0.942919
O O20 0.578580 0.776962 0.000000
O O21 0.394244 0.500000 0.619812
#
# Coordination Sequence:
#
# PCOD9519861 Si02
#       8
#    16  16  16   8  16  16  16  16
#     4  10  19  33  54  77 101 135 177 221 271 323
#     4  11  22  35  52  76 107 141 180 225 271 326
#     4   9  18  33  53  76 103 138 181 226 273 328
#     4   9  16  28  50  80 113 143 169 205 262 329
#     4  10  20  34  53  78 109 142 177 219 268 321
#     4   9  19  34  50  71 100 135 177 224 271 318
#     4   9  17  31  51  78 108 137 171 214 265 321
#     4  10  20  34  52  74 103 138 177 223 274 323
#
# _framework density 17.296997000000001
#
# number of rings (size 3 to 8) (size 9 to 14) (size 15 to 20)
#    0.000    2.333    1.333    1.600    0.000    5.333 
#    1.200    2.000    0.000    0.800    0.000    0.467 
#    0.000    1.600    0.000    0.000    0.000    0.000 
#
# Total GULP energy -334156.154743 kJ/mol
# GULP energy per Si atom -5569.269246 kJ/mol
# Density = 1.725763 g / cm^3
# Si number density = 17.296997 Si / 1000 Ang^3
#
#
#
# Elastic Constant Matrix: (Units=GPa)
#
#
# Indices 1 2 3 4 5 6 
#
# 1 92.4007 31.7834 41.8544 0.0000 0.0000 0.0000
# 2 31.7834 73.0465 16.7319 0.0000 0.0000 0.0000
# 3 41.8544 16.7319 97.3890 0.0000 0.0000 0.0000
# 4 0.0000 0.0000 0.0000 7.6989 0.0000 0.0000
# 5 0.0000 0.0000 0.0000 0.0000 27.8587 0.0000
# 6 0.0000 0.0000 0.0000 0.0000 0.0000 -1.3068
#
#
#
# Elastic Compliance Matrix: (Units=1/GPa)
#
#
# Indices 1 2 3 4 5 6 
#
# 1 0.015199 -0.005327 -0.005617 0.000000 0.000000 0.000000
# 2 -0.005327 0.016118 -0.000480 0.000000 0.000000 0.000000
# 3 -0.005617 -0.000480 0.012764 0.000000 0.000000 0.000000
# 4 0.000000 0.000000 0.000000 0.129889 0.000000 0.000000
# 5 0.000000 0.000000 0.000000 0.000000 0.035895 0.000000
# 6 0.000000 0.000000 0.000000 0.000000 0.000000 -0.765214
#
#
# Mechanical properties :
#
#
# Convention : Reuss Voigt Hill
#
# Bulk Modulus (GPa) = 47.09379 49.28618 48.18999
# Shear Modulus (GPa) = -9.51612 18.34793 4.41591
#
# Velocity S-wave (km/s) = -2.34809 3.26046 1.59954
# Velocity P-wave (km/s) = 4.46478 6.53682 5.59752
#
# Compressibility (1/GPa) = 0.02123422
#
# Stress axis : x y z
#
# Youngs Moduli (GPa) = 65.79443 62.04435 78.34264
#
# Poissons Ratio (x) = 0.33049 0.44003
# Poissons Ratio (y) = 0.35046 0.03759
# Poissons Ratio (z) = 0.36955 0.02977
#
# Static dielectric constant tensor:
#      x y z
#    x 1.596260 0.000000 0.000000 
#    y 0.000000 1.597930 0.000000 
#    z 0.000000 0.000000 1.599380 
# 
# From -- ./inp_files/66615.got.cif
#   From: 2010.05.17/outbox.cif.g08.bks.cpg/sg71_34_cif.got.tgz:66615.got - 2010.06.03 16:22:01.
