data_PCOD9519042
_publ_section_title
;
Structure prediction by ZEFSAII (Michael W. Deem and Ramdas Pophale) SiO2 
 PCOD9519042
Probable space group: I M M M
;
_chemical_formula_sum "Si O2"
_cell_formula_units_Z 72
_cell_length_a 16.473068
_cell_length_b 13.840429
_cell_length_c 14.034623
_cell_angle_alpha 90.000000
_cell_angle_beta 90.000000
_cell_angle_gamma 90.000000
_cell_volume 3199.814441
_symmetry_space_group_name_H-M "I M M M"
_symmetry_group_IT_number 71
_symmetry_cell_setting 'orthorhombic'
loop_
_space_group_symop_operation_xyz
x,y,z
-x,-y,z
x,-y,-z
-x,y,-z
-x,-y,-z
x,y,-z
-x,y,z
x,-y,z
1/2+x,1/2+y,1/2+z
1/2-x,1/2-y,1/2+z
1/2+x,1/2-y,1/2-z
1/2-x,1/2+y,1/2-z
1/2-x,1/2-y,1/2-z
1/2+x,1/2+y,1/2-z
1/2-x,1/2+y,1/2+z
1/2+x,1/2-y,1/2+z
loop_
_atom_site_type_symbol
_atom_site_label
_atom_site_fract_x
_atom_site_fract_y
_atom_site_fract_z
Si Si1 0.596119 0.000000 0.116235
Si Si2 0.855166 0.602808 0.114507
Si Si3 0.902782 0.708453 0.609729
Si Si4 0.093460 0.178726 0.112503
Si Si5 0.700355 0.654422 0.224269
O O1 0.628621 0.895769 0.149717
O O2 0.500000 0.000000 0.136532
O O3 0.602862 0.000000 0.000000
O O4 0.896743 0.500000 0.140267
O O5 0.897606 0.705724 0.137218
O O6 0.766159 0.599933 0.161627
O O7 0.847555 0.604622 0.000000
O O8 0.876262 0.712220 0.500000
O O9 0.872086 0.803736 0.660170
O O10 0.000000 0.704313 0.612561
O O11 0.157060 0.121665 0.178594
O O12 0.000000 0.150976 0.129142
O O13 0.111065 0.168047 0.000000
O O14 0.750000 0.750000 0.250000
#
# Coordination Sequence:
#
# PCOD9519042 Si02
#       5
#     8  16  16  16  16
#     4   7  12  24  42  68  99 123 144 181 237 295
#     4   9  18  33  53  77 106 137 167 206 257 309
#     4   9  16  28  48  72  98 127 159 199 249 301
#     4   9  18  33  53  76 101 133 174 215 254 299
#     4  10  19  31  47  72 101 136 172 204 246 303
#
# _framework density 22.501304000000001
#
# number of rings (size 3 to 8) (size 9 to 14) (size 15 to 20)
#    0.000    3.000    0.000    2.667    0.000    1.333 
#    8.000    2.222    0.000    3.333    0.000    9.333 
#    0.000    0.000    0.000    0.000    0.000    0.000 
#
# Total GULP energy -200632.440668 kJ/mol
# GULP energy per Si atom -5573.123352 kJ/mol
# Density = 2.245009 g / cm^3
# Si number density = 22.501304 Si / 1000 Ang^3
#
#
#
# Elastic Constant Matrix: (Units=GPa)
#
#
# Indices 1 2 3 4 5 6 
#
# 1 51.8236 -7.7642 25.3001 0.0000 0.0000 0.0000
# 2 -7.7642 41.0020 -2.5275 0.0000 0.0000 0.0000
# 3 25.3001 -2.5275 47.3248 0.0000 0.0000 0.0000
# 4 0.0000 0.0000 0.0000 8.4197 0.0000 0.0000
# 5 0.0000 0.0000 0.0000 0.0000 30.0886 0.0000
# 6 0.0000 0.0000 0.0000 0.0000 0.0000 9.4292
#
#
#
# Elastic Compliance Matrix: (Units=1/GPa)
#
#
# Indices 1 2 3 4 5 6 
#
# 1 0.026816 0.004208 -0.014111 0.000000 0.000000 0.000000
# 2 0.004208 0.025130 -0.000907 0.000000 0.000000 0.000000
# 3 -0.014111 -0.000907 0.028626 0.000000 0.000000 0.000000
# 4 0.000000 0.000000 0.000000 0.118770 0.000000 0.000000
# 5 0.000000 0.000000 0.000000 0.000000 0.033235 0.000000
# 6 0.000000 0.000000 0.000000 0.000000 0.000000 0.106054
#
#
# Mechanical properties :
#
#
# Convention : Reuss Voigt Hill
#
# Bulk Modulus (GPa) = 16.96339 18.90746 17.93542
# Shear Modulus (GPa) = 13.16132 17.93029 15.54581
#
# Velocity S-wave (km/s) = 2.42112 2.82593 2.63132
# Velocity P-wave (km/s) = 3.92059 4.36679 4.14969
#
# Compressibility (1/GPa) = 0.05895048
#
# Stress axis : x y z
#
# Youngs Moduli (GPa) = 37.29167 39.79316 34.93330
#
# Poissons Ratio (x) = -0.16745 0.49295
# Poissons Ratio (y) = -0.15692 0.03170
# Poissons Ratio (z) = 0.52623 0.03611
#
# Static dielectric constant tensor:
#      x y z
#    x 1.856850 0.000000 0.000000 
#    y 0.000000 1.924460 0.000000 
#    z 0.000000 0.000000 1.939130 
# 
# From -- ./inp_files/36070.got.cif
#   From: 2010.05.17/outbox.cif.g08.bks.cpg/sg71_19_cif.got.tgz:36070.got - 2010.06.03 16:22:01.
