data_PCOD9519326
_publ_section_title
;
Structure prediction by ZEFSAII (Michael W. Deem and Ramdas Pophale) SiO2 
 PCOD9519326
Probable space group: I M M M
;
_chemical_formula_sum "Si O2"
_cell_formula_units_Z 80
_cell_length_a 20.964760
_cell_length_b 23.969294
_cell_length_c 10.045014
_cell_angle_alpha 90.000000
_cell_angle_beta 90.000000
_cell_angle_gamma 90.000000
_cell_volume 5047.724968
_symmetry_space_group_name_H-M "I M M M"
_symmetry_group_IT_number 71
_symmetry_cell_setting 'orthorhombic'
loop_
_space_group_symop_operation_xyz
x,y,z
-x,-y,z
x,-y,-z
-x,y,-z
-x,-y,-z
x,y,-z
-x,y,z
x,-y,z
1/2+x,1/2+y,1/2+z
1/2-x,1/2-y,1/2+z
1/2+x,1/2-y,1/2-z
1/2-x,1/2+y,1/2-z
1/2-x,1/2-y,1/2-z
1/2+x,1/2+y,1/2-z
1/2-x,1/2+y,1/2+z
1/2+x,1/2-y,1/2+z
loop_
_atom_site_type_symbol
_atom_site_label
_atom_site_fract_x
_atom_site_fract_y
_atom_site_fract_z
Si Si1 0.300131 0.282379 0.657798
Si Si2 0.595719 0.120596 0.148036
Si Si3 0.069845 0.720164 0.156233
Si Si4 0.782691 0.500000 0.153581
Si Si5 0.570927 0.000000 0.263622
Si Si6 0.245035 0.400651 0.650967
O O1 0.287437 0.271868 0.500000
O O2 0.250000 0.250000 0.750000
O O3 0.370777 0.259889 0.688456
O O4 0.290746 0.348427 0.677811
O O5 0.573152 0.164141 0.257450
O O6 0.672546 0.122114 0.149989
O O7 0.575228 0.057207 0.179542
O O8 0.574502 0.136112 0.000000
O O9 0.000000 0.746329 0.176739
O O10 0.075354 0.705496 0.000000
O O11 0.860954 0.500000 0.159182
O O12 0.756514 0.447246 0.235880
O O13 0.763852 0.500000 0.000000
O O14 0.500000 0.000000 0.329259
O O15 0.256937 0.422408 0.500000
#
# Coordination Sequence:
#
# PCOD9519326 Si02
#       6
#    16  16  16   8   8  16
#     4  10  19  33  53  74  98 130 168 204 243 291
#     4  10  19  32  49  67  90 126 172 212 242 279
#     4  10  21  34  48  71 103 132 158 199 252 297
#     4  10  21  34  50  72  95 121 157 205 250 288
#     4  10  21  33  43  61  93 130 169 205 242 285
#     4   9  18  33  51  71  95 126 162 202 244 285
#
# _framework density 15.848723
#
# number of rings (size 3 to 8) (size 9 to 14) (size 15 to 20)
#    0.000    2.200    2.000    1.200    0.000    8.600 
#    0.000    0.000    0.000    0.000    0.000    0.700 
#    0.000    5.600    0.000    0.000    0.000    0.000 
#
# Total GULP energy -222870.641649 kJ/mol
# GULP energy per Si atom -5571.766041 kJ/mol
# Density = 1.581265 g / cm^3
# Si number density = 15.848723 Si / 1000 Ang^3
#
#
#
# Elastic Constant Matrix: (Units=GPa)
#
#
# Indices 1 2 3 4 5 6 
#
# 1 100.2415 63.9934 49.8769 0.0000 0.0000 0.0000
# 2 63.9934 93.0296 60.6154 0.0000 0.0000 0.0000
# 3 49.8769 60.6154 96.7570 0.0000 0.0000 0.0000
# 4 0.0000 0.0000 0.0000 14.6378 0.0000 0.0000
# 5 0.0000 0.0000 0.0000 0.0000 10.6910 0.0000
# 6 0.0000 0.0000 0.0000 0.0000 0.0000 6.2539
#
#
#
# Elastic Compliance Matrix: (Units=1/GPa)
#
#
# Indices 1 2 3 4 5 6 
#
# 1 0.018164 -0.010804 -0.002595 0.000000 0.000000 0.000000
# 2 -0.010804 0.024590 -0.009835 0.000000 0.000000 0.000000
# 3 -0.002595 -0.009835 0.017834 0.000000 0.000000 0.000000
# 4 0.000000 0.000000 0.000000 0.068316 0.000000 0.000000
# 5 0.000000 0.000000 0.000000 0.000000 0.093537 0.000000
# 6 0.000000 0.000000 0.000000 0.000000 0.000000 0.159899
#
#
# Mechanical properties :
#
#
# Convention : Reuss Voigt Hill
#
# Bulk Modulus (GPa) = 70.82397 70.99995 70.91196
# Shear Modulus (GPa) = 11.53360 14.01937 12.77649
#
# Velocity S-wave (km/s) = 2.70057 2.97741 2.84236
# Velocity P-wave (km/s) = 7.38300 7.53098 7.45736
#
# Compressibility (1/GPa) = 0.01411951
#
# Stress axis : x y z
#
# Youngs Moduli (GPa) = 55.05286 40.66764 56.07149
#
# Poissons Ratio (x) = 0.43938 0.14551
# Poissons Ratio (y) = 0.59480 0.55148
# Poissons Ratio (z) = 0.14286 0.39998
#
# Static dielectric constant tensor:
#      x y z
#    x 1.546780 0.000000 0.000000 
#    y 0.000000 1.510940 0.000000 
#    z 0.000000 0.000000 1.536770 
# 
# From -- ./inp_files/8463.got.cif
#   From: 2010.05.17/outbox.cif.g08.bks.cpg/sg71_5_cif.got.tgz:8463.got - 2010.06.03 16:22:01.
