data_PCOD9519931
_publ_section_title
;
Structure prediction by ZEFSAII (Michael W. Deem and Ramdas Pophale) SiO2 
 PCOD9519931
Probable space group: I M M M
;
_chemical_formula_sum "Si O2"
_cell_formula_units_Z 88
_cell_length_a 7.570518
_cell_length_b 19.575447
_cell_length_c 28.359208
_cell_angle_alpha 90.000000
_cell_angle_beta 90.000000
_cell_angle_gamma 90.000000
_cell_volume 4202.728956
_symmetry_space_group_name_H-M "I M M M"
_symmetry_group_IT_number 71
_symmetry_cell_setting 'orthorhombic'
loop_
_space_group_symop_operation_xyz
x,y,z
-x,-y,z
x,-y,-z
-x,y,-z
-x,-y,-z
x,y,-z
-x,y,z
x,-y,z
1/2+x,1/2+y,1/2+z
1/2-x,1/2-y,1/2+z
1/2+x,1/2-y,1/2-z
1/2-x,1/2+y,1/2-z
1/2-x,1/2-y,1/2-z
1/2+x,1/2+y,1/2-z
1/2-x,1/2+y,1/2+z
1/2+x,1/2-y,1/2+z
loop_
_atom_site_type_symbol
_atom_site_label
_atom_site_fract_x
_atom_site_fract_y
_atom_site_fract_z
Si Si1 0.283667 0.079884 0.000000
Si Si2 0.205802 0.298369 0.120891
Si Si3 0.716454 0.921075 0.192878
Si Si4 0.288421 0.177964 0.725540
Si Si5 0.794439 0.647502 0.596387
Si Si6 0.286489 0.423800 0.054364
O O1 0.220546 0.117245 0.047719
O O2 0.500000 0.083285 0.000000
O O3 0.235833 0.000000 0.000000
O O4 0.281228 0.317897 0.172249
O O5 0.285770 0.229296 0.099690
O O6 0.223236 0.362771 0.086812
O O7 0.000000 0.282023 0.127308
O O8 0.500000 0.918336 0.193192
O O9 0.777997 0.880682 0.239298
O O10 0.778717 0.883930 0.145006
O O11 0.767825 0.000000 0.192986
O O12 0.500000 0.168700 0.722355
O O13 0.250000 0.250000 0.750000
O O14 0.000000 0.627218 0.596285
O O15 0.500000 0.422928 0.055005
O O16 0.229764 0.500000 0.069630
O O17 0.231179 0.414376 0.000000
#
# Coordination Sequence:
#
# PCOD9519931 Si02
#       6
#     8  16  16  16  16  16
#     4   9  18  32  53  83 110 133 178 237 279 316
#     4  11  23  35  53  83 117 150 180 222 277 333
#     4   9  17  31  54  80 103 136 183 228 270 316
#     4  10  20  35  54  77 108 145 183 225 269 319
#     4  10  19  33  55  80 108 145 182 226 274 321
#     4   9  20  40  63  84 108 142 185 230 274 325
#
# _framework density 20.938776000000001
#
# number of rings (size 3 to 8) (size 9 to 14) (size 15 to 20)
#    0.000    2.273    1.818    1.636    1.273    4.364 
#    0.000    2.727    0.000    4.364    0.000    0.000 
#    0.000    0.000    0.000    0.000    0.000    0.000 
#
# Total GULP energy -245692.890528 kJ/mol
# GULP energy per Si atom -5583.929330 kJ/mol
# Density = 2.089112 g / cm^3
# Si number density = 20.938776 Si / 1000 Ang^3
#
#
#
# Elastic Constant Matrix: (Units=GPa)
#
#
# Indices 1 2 3 4 5 6 
#
# 1 45.0121 -14.4873 1.1114 0.0000 0.0000 0.0000
# 2 -14.4873 166.4286 104.9821 0.0000 0.0000 0.0000
# 3 1.1114 104.9821 166.9058 0.0000 0.0000 0.0000
# 4 0.0000 0.0000 0.0000 41.7081 0.0000 0.0000
# 5 0.0000 0.0000 0.0000 0.0000 -1.3033 0.0000
# 6 0.0000 0.0000 0.0000 0.0000 0.0000 8.2701
#
#
#
# Elastic Compliance Matrix: (Units=1/GPa)
#
#
# Indices 1 2 3 4 5 6 
#
# 1 0.023415 0.003542 -0.002384 0.000000 0.000000 0.000000
# 2 0.003542 0.010496 -0.006626 0.000000 0.000000 0.000000
# 3 -0.002384 -0.006626 0.010175 0.000000 0.000000 0.000000
# 4 0.000000 0.000000 0.000000 0.023976 0.000000 0.000000
# 5 0.000000 0.000000 0.000000 0.000000 -0.767302 0.000000
# 6 0.000000 0.000000 0.000000 0.000000 0.000000 0.120918
#
#
# Mechanical properties :
#
#
# Convention : Reuss Voigt Hill
#
# Bulk Modulus (GPa) = 30.16491 62.39546 46.28018
# Shear Modulus (GPa) = -8.98736 28.85101 9.93183
#
# Velocity S-wave (km/s) = -2.07401 3.71600 2.18027
# Velocity P-wave (km/s) = 2.94994 6.94804 5.33748
#
# Compressibility (1/GPa) = 0.03315110
#
# Stress axis : x y z
#
# Youngs Moduli (GPa) = 42.70756 95.27144 98.28246
#
# Poissons Ratio (x) = -0.33744 0.23428
# Poissons Ratio (y) = -0.15126 0.65119
# Poissons Ratio (z) = 0.10180 0.63124
#
# Static dielectric constant tensor:
#      x y z
#    x 1.815600 0.000000 0.000000 
#    y 0.000000 1.690260 0.000000 
#    z 0.000000 0.000000 1.746230 
# 
# From -- ./inp_files/12565.got.cif
#   From: 2010.05.17/outbox.cif.g08.bks.cpg/sg71_7_cif.got.tgz:12565.got - 2010.06.03 16:22:01.
