data_PCOD9519268
_publ_section_title
;
Structure prediction by ZEFSAII (Michael W. Deem and Ramdas Pophale) SiO2 
 PCOD9519268
Probable space group: I M M M
;
_chemical_formula_sum "Si O2"
_cell_formula_units_Z 104
_cell_length_a 33.337555
_cell_length_b 7.353870
_cell_length_c 18.530117
_cell_angle_alpha 90.000000
_cell_angle_beta 90.000000
_cell_angle_gamma 90.000000
_cell_volume 4542.844328
_symmetry_space_group_name_H-M "I M M M"
_symmetry_group_IT_number 71
_symmetry_cell_setting 'orthorhombic'
loop_
_space_group_symop_operation_xyz
x,y,z
-x,-y,z
x,-y,-z
-x,y,-z
-x,-y,-z
x,y,-z
-x,y,z
x,-y,z
1/2+x,1/2+y,1/2+z
1/2-x,1/2-y,1/2+z
1/2+x,1/2-y,1/2-z
1/2-x,1/2+y,1/2-z
1/2-x,1/2-y,1/2-z
1/2+x,1/2+y,1/2-z
1/2-x,1/2+y,1/2+z
1/2+x,1/2-y,1/2+z
loop_
_atom_site_type_symbol
_atom_site_label
_atom_site_fract_x
_atom_site_fract_y
_atom_site_fract_z
Si Si1 0.744610 0.277943 0.080365
Si Si2 0.835165 0.208286 0.352765
Si Si3 0.121388 0.286659 0.920712
Si Si4 0.954402 0.218933 0.833675
Si Si5 0.687125 0.220459 0.691068
Si Si6 0.500000 0.721520 0.082591
Si Si7 0.423769 0.277560 0.177140
O O1 0.744570 0.500000 0.081659
O O2 0.699526 0.213666 0.096731
O O3 0.774254 0.222698 0.144675
O O4 0.758051 0.224352 0.000000
O O5 0.816953 0.209619 0.271944
O O6 0.879837 0.287121 0.346936
O O7 0.840649 0.000000 0.376715
O O8 0.131373 0.500000 0.924597
O O9 0.075323 0.269361 0.897817
O O10 0.149075 0.215757 0.856291
O O11 0.128900 0.209054 0.000000
O O12 0.934972 0.281260 0.758127
O O13 0.000000 0.283689 0.840703
O O14 0.955744 0.000000 0.830728
O O15 0.687117 0.000000 0.696426
O O16 0.500000 0.500000 0.083184
O O17 0.540061 0.777261 0.124848
O O18 0.500000 0.780836 0.000000
O O19 0.422673 0.500000 0.178262
#
# Coordination Sequence:
#
# PCOD9519268 Si02
#       7
#    16  16  16  16  16   8  16
#     4   9  18  32  50  74 103 133 165 205 254 303
#     4  10  19  31  52  77 101 129 165 210 253 296
#     4  10  21  35  51  73 100 130 167 210 251 292
#     4  10  19  33  53  72  99 136 167 199 247 303
#     4  10  19  33  53  74  99 133 170 205 247 302
#     4   9  16  26  44  72 104 135 166 202 247 297
#     4   9  16  28  45  69 100 131 161 199 246 290
#
# _framework density 22.893145000000001
#
# number of rings (size 3 to 8) (size 9 to 14) (size 15 to 20)
#    0.000    2.385    2.308    0.923    0.000    3.385 
#    0.000    4.615    0.000    2.769    0.000    0.000 
#    0.000    3.077    0.000    0.000    0.000    0.000 
#
# Total GULP energy -290590.249429 kJ/mol
# GULP energy per Si atom -5588.274027 kJ/mol
# Density = 2.284104 g / cm^3
# Si number density = 22.893145 Si / 1000 Ang^3
#
#
#
# Elastic Constant Matrix: (Units=GPa)
#
#
# Indices 1 2 3 4 5 6 
#
# 1 121.8461 -9.0112 11.8671 0.0000 0.0000 0.0000
# 2 -9.0112 85.7651 -11.8974 0.0000 0.0000 0.0000
# 3 11.8671 -11.8974 72.6963 0.0000 0.0000 0.0000
# 4 0.0000 0.0000 0.0000 366.2651 0.0000 0.0000
# 5 0.0000 0.0000 0.0000 0.0000 250.0114 0.0000
# 6 0.0000 0.0000 0.0000 0.0000 0.0000 1.6440
#
#
#
# Elastic Compliance Matrix: (Units=1/GPa)
#
#
# Indices 1 2 3 4 5 6 
#
# 1 0.008381 0.000707 -0.001253 0.000000 0.000000 0.000000
# 2 0.000707 0.011990 0.001847 0.000000 0.000000 0.000000
# 3 -0.001253 0.001847 0.014263 0.000000 0.000000 0.000000
# 4 0.000000 0.000000 0.000000 0.002730 0.000000 0.000000
# 5 0.000000 0.000000 0.000000 0.000000 0.004000 0.000000
# 6 0.000000 0.000000 0.000000 0.000000 0.000000 0.608280
#
#
# Mechanical properties :
#
#
# Convention : Reuss Voigt Hill
#
# Bulk Modulus (GPa) = 26.85521 29.13605 27.99563
# Shear Modulus (GPa) = 7.58203 142.87404 75.22803
#
# Velocity S-wave (km/s) = 1.82184 7.90851 5.73863
# Velocity P-wave (km/s) = 4.02264 9.80548 7.49430
#
# Compressibility (1/GPa) = 0.03723672
#
# Stress axis : x y z
#
# Youngs Moduli (GPa) = 119.31268 83.40126 70.11353
#
# Poissons Ratio (x) = -0.05895 0.08782
# Poissons Ratio (y) = -0.08434 -0.12949
# Poissons Ratio (z) = 0.14944 -0.15404
#
# Static dielectric constant tensor:
#      x y z
#    x 1.841160 0.000000 0.000000 
#    y 0.000000 2.124590 0.000000 
#    z 0.000000 0.000000 1.793740 
# 
# From -- ./inp_files/49410.got.cif
#   From: 2010.05.17/outbox.cif.g08.bks.cpg/sg71_25_cif.got.tgz:49410.got - 2010.06.03 16:22:01.
