data_PCOD9519985
_publ_section_title
;
Structure prediction by ZEFSAII (Michael W. Deem and Ramdas Pophale) SiO2 
 PCOD9519985
Probable space group: I M M M
;
_chemical_formula_sum "Si O2"
_cell_formula_units_Z 72
_cell_length_a 24.195509
_cell_length_b 8.648087
_cell_length_c 18.191231
_cell_angle_alpha 90.000000
_cell_angle_beta 90.000000
_cell_angle_gamma 90.000000
_cell_volume 3806.421708
_symmetry_space_group_name_H-M "I M M M"
_symmetry_group_IT_number 71
_symmetry_cell_setting 'orthorhombic'
loop_
_space_group_symop_operation_xyz
x,y,z
-x,-y,z
x,-y,-z
-x,y,-z
-x,-y,-z
x,y,-z
-x,y,z
x,-y,z
1/2+x,1/2+y,1/2+z
1/2-x,1/2-y,1/2+z
1/2+x,1/2-y,1/2-z
1/2-x,1/2+y,1/2-z
1/2-x,1/2-y,1/2-z
1/2+x,1/2+y,1/2-z
1/2-x,1/2+y,1/2+z
1/2+x,1/2-y,1/2+z
loop_
_atom_site_type_symbol
_atom_site_label
_atom_site_fract_x
_atom_site_fract_y
_atom_site_fract_z
Si Si1 0.632383 0.812993 0.643683
Si Si2 0.244057 0.815130 0.085905
Si Si3 0.936476 0.311579 0.000000
Si Si4 0.436415 0.813156 0.786510
Si Si5 0.863889 0.814939 0.584915
O O1 0.693677 0.747938 0.633727
O O2 0.596284 0.763577 0.572928
O O3 0.601211 0.763661 0.717593
O O4 0.635077 0.000000 0.643188
O O5 0.303498 0.747550 0.107357
O O6 0.246058 0.000000 0.089776
O O7 0.234308 0.770099 0.000000
O O8 0.937404 0.500000 0.000000
O O9 0.000000 0.259352 0.000000
O O10 0.500000 0.764259 0.777141
O O11 0.409846 0.750282 0.860897
O O12 0.435600 0.000000 0.788158
O O13 0.872979 0.766869 0.500000
O O14 0.863461 0.000000 0.587744
#
# Coordination Sequence:
#
# PCOD9519985 Si02
#       5
#    16  16   8  16  16
#     4  10  19  33  56  84 115 152 191 231 274 326
#     4  10  20  35  57  85 117 149 186 233 285 337
#     4   9  16  28  51  81 111 149 194 231 264 311
#     4  10  22  39  58  84 117 150 188 233 281 335
#     4  10  22  40  62  85 109 143 189 237 287 343
#
# _framework density 18.915403000000001
#
# number of rings (size 3 to 8) (size 9 to 14) (size 15 to 20)
#    0.000    2.111    1.111    2.000    0.000    7.556 
#    0.000    2.222    0.000    2.667    0.000    0.000 
#    0.000    0.000    0.000    0.000    0.000    0.000 
#
# Total GULP energy -201074.774624 kJ/mol
# GULP energy per Si atom -5585.410406 kJ/mol
# Density = 1.887235 g / cm^3
# Si number density = 18.915403 Si / 1000 Ang^3
#
#
#
# Elastic Constant Matrix: (Units=GPa)
#
#
# Indices 1 2 3 4 5 6 
#
# 1 90.3459 22.8139 50.8162 0.0000 0.0000 0.0000
# 2 22.8139 14.6161 21.2624 0.0000 0.0000 0.0000
# 3 50.8162 21.2624 91.3011 0.0000 0.0000 0.0000
# 4 0.0000 0.0000 0.0000 21.9967 0.0000 0.0000
# 5 0.0000 0.0000 0.0000 0.0000 32.2339 0.0000
# 6 0.0000 0.0000 0.0000 0.0000 0.0000 27.9730
#
#
#
# Elastic Compliance Matrix: (Units=1/GPa)
#
#
# Indices 1 2 3 4 5 6 
#
# 1 0.020166 -0.022910 -0.005888 0.000000 0.000000 0.000000
# 2 -0.022910 0.129500 -0.017407 0.000000 0.000000 0.000000
# 3 -0.005888 -0.017407 0.018284 0.000000 0.000000 0.000000
# 4 0.000000 0.000000 0.000000 0.045461 0.000000 0.000000
# 5 0.000000 0.000000 0.000000 0.000000 0.031023 0.000000
# 6 0.000000 0.000000 0.000000 0.000000 0.000000 0.035749
#
#
# Mechanical properties :
#
#
# Convention : Reuss Voigt Hill
#
# Bulk Modulus (GPa) = 13.23825 42.89420 28.06623
# Shear Modulus (GPa) = 12.56995 23.19876 17.88435
#
# Velocity S-wave (km/s) = 2.58065 3.50587 3.07822
# Velocity P-wave (km/s) = 3.98667 6.25414 5.24442
#
# Compressibility (1/GPa) = 0.07553866
#
# Stress axis : x y z
#
# Youngs Moduli (GPa) = 49.58879 7.72200 54.69284
#
# Poissons Ratio (x) = 0.17691 0.32206
# Poissons Ratio (y) = 1.13609 0.95203
# Poissons Ratio (z) = 0.29200 0.13442
#
# Static dielectric constant tensor:
#      x y z
#    x 1.626510 0.000000 0.000000 
#    y 0.000000 1.641420 0.000000 
#    z 0.000000 0.000000 1.650930 
# 
# From -- ./inp_files/7991.got.cif
#   From: 2010.05.17/outbox.cif.g08.bks.cpg/sg71_4_cif.got.tgz:7991.got - 2010.06.03 16:22:01.
