data_PCOD9519537
_publ_section_title
;
Structure prediction by ZEFSAII (Michael W. Deem and Ramdas Pophale) SiO2 
 PCOD9519537
Probable space group: I M M M
;
_chemical_formula_sum "Si O2"
_cell_formula_units_Z 64
_cell_length_a 10.048478
_cell_length_b 39.360001
_cell_length_c 7.482629
_cell_angle_alpha 90.000000
_cell_angle_beta 90.000000
_cell_angle_gamma 90.000000
_cell_volume 2959.440410
_symmetry_space_group_name_H-M "I M M M"
_symmetry_group_IT_number 71
_symmetry_cell_setting 'orthorhombic'
loop_
_space_group_symop_operation_xyz
x,y,z
-x,-y,z
x,-y,-z
-x,y,-z
-x,-y,-z
x,y,-z
-x,y,z
x,-y,z
1/2+x,1/2+y,1/2+z
1/2-x,1/2-y,1/2+z
1/2+x,1/2-y,1/2-z
1/2-x,1/2+y,1/2-z
1/2-x,1/2-y,1/2-z
1/2+x,1/2+y,1/2-z
1/2-x,1/2+y,1/2+z
1/2+x,1/2-y,1/2+z
loop_
_atom_site_type_symbol
_atom_site_label
_atom_site_fract_x
_atom_site_fract_y
_atom_site_fract_z
Si Si1 0.746737 0.417211 0.215840
Si Si2 0.000000 0.961623 0.718353
Si Si3 0.154579 0.717819 0.285572
Si Si4 0.000000 0.539612 0.218743
Si Si5 0.153314 0.158422 0.210563
O O1 0.626107 0.440561 0.275939
O O2 0.716974 0.378850 0.271528
O O3 0.875646 0.437644 0.275873
O O4 0.750026 0.416536 0.000000
O O5 0.000000 0.962409 0.500000
O O6 0.000000 0.000000 0.780435
O O7 0.143659 0.714512 0.500000
O O8 0.250000 0.750000 0.250000
O O9 0.240694 0.685712 0.216000
O O10 0.000000 0.720550 0.219984
O O11 0.000000 0.500000 0.276528
O O12 0.000000 0.538234 0.000000
O O13 0.000000 0.159344 0.282416
O O14 0.141260 0.165812 0.000000
#
# Coordination Sequence:
#
# PCOD9519537 Si02
#       5
#    16   8  16   8  16
#     4  10  19  32  52  79 107 139 183 227 270 322
#     4   9  16  28  49  75 102 135 178 227 272 315
#     4  10  22  40  62  88 115 147 186 226 272 327
#     4   9  18  32  51  77 108 139 176 229 284 327
#     4  10  21  37  56  79 112 149 181 219 271 325
#
# _framework density 21.625712
#
# number of rings (size 3 to 8) (size 9 to 14) (size 15 to 20)
#    0.000    2.250    1.250    1.500    1.750    5.500 
#    0.000    0.000    0.000    4.500    0.000    0.000 
#    0.000    0.000    0.000    0.000    0.000    0.000 
#
# Total GULP energy -178550.889027 kJ/mol
# GULP energy per Si atom -5579.715282 kJ/mol
# Density = 2.157649 g / cm^3
# Si number density = 21.625712 Si / 1000 Ang^3
#
#
#
# Elastic Constant Matrix: (Units=GPa)
#
#
# Indices 1 2 3 4 5 6 
#
# 1 268.5768 141.8722 8.4131 -0.0118 -0.0001 -0.0009
# 2 141.8722 231.0502 -7.7059 -0.0162 0.0022 -0.0067
# 3 8.4131 -7.7059 61.3888 -0.0634 0.0236 -0.0145
# 4 -0.0118 -0.0162 -0.0634 23.0235 -0.0144 -0.0016
# 5 -0.0001 0.0022 0.0236 -0.0144 15.4441 -0.0062
# 6 -0.0009 -0.0067 -0.0145 -0.0016 -0.0062 39.8231
#
#
#
# Elastic Compliance Matrix: (Units=1/GPa)
#
#
# Indices 1 2 3 4 5 6 
#
# 1 0.005598 -0.003477 -0.001204 -0.000003 0.000002 -0.000001
# 2 -0.003477 0.006506 0.001293 0.000006 -0.000003 0.000001
# 3 -0.001204 0.001293 0.016617 0.000046 -0.000025 0.000006
# 4 -0.000003 0.000006 0.000046 0.043434 0.000040 0.000002
# 5 0.000002 -0.000003 -0.000025 0.000040 0.064750 0.000010
# 6 -0.000001 0.000001 0.000006 0.000002 0.000010 0.025111
#
#
# Mechanical properties :
#
#
# Convention : Reuss Voigt Hill
#
# Bulk Modulus (GPa) = 45.56697 94.01940 69.79319
# Shear Modulus (GPa) = 28.39181 43.55391 35.97286
#
# Velocity S-wave (km/s) = 3.62729 4.49262 4.08294
# Velocity P-wave (km/s) = 6.21767 8.39533 7.38719
#
# Compressibility (1/GPa) = 0.02194572
#
# Stress axis : x y z
#
# Youngs Moduli (GPa) = 178.63628 153.69290 60.17939
#
# Poissons Ratio (x) = 0.53446 0.07244
# Poissons Ratio (y) = 0.62120 -0.07783
# Poissons Ratio (z) = 0.21502 -0.19877
#
# Static dielectric constant tensor:
#      x y z
#    x 1.692970 0.000000 0.000000 
#    y 0.000000 1.752230 0.000010 
#    z 0.000000 0.000010 1.888460 
# 
# From -- ./inp_files/3748.got.cif
#   From: 2010.05.17/outbox.cif.g08.bks.cpg/sg71_2_cif.got.tgz:3748.got - 2010.06.03 16:22:01.
