data_PCOD9519347
_publ_section_title
;
Structure prediction by ZEFSAII (Michael W. Deem and Ramdas Pophale) SiO2 
 PCOD9519347
Probable space group: I M M M
;
_chemical_formula_sum "Si O2"
_cell_formula_units_Z 104
_cell_length_a 23.738370
_cell_length_b 29.024020
_cell_length_c 7.609255
_cell_angle_alpha 90.000000
_cell_angle_beta 90.000000
_cell_angle_gamma 90.000000
_cell_volume 5242.646772
_symmetry_space_group_name_H-M "I M M M"
_symmetry_group_IT_number 71
_symmetry_cell_setting 'orthorhombic'
loop_
_space_group_symop_operation_xyz
x,y,z
-x,-y,z
x,-y,-z
-x,y,-z
-x,-y,-z
x,y,-z
-x,y,z
x,-y,z
1/2+x,1/2+y,1/2+z
1/2-x,1/2-y,1/2+z
1/2+x,1/2-y,1/2-z
1/2-x,1/2+y,1/2-z
1/2-x,1/2-y,1/2-z
1/2+x,1/2+y,1/2-z
1/2-x,1/2+y,1/2+z
1/2+x,1/2-y,1/2+z
loop_
_atom_site_type_symbol
_atom_site_label
_atom_site_fract_x
_atom_site_fract_y
_atom_site_fract_z
Si Si1 0.873872 0.644384 0.285227
Si Si2 0.936982 0.735132 0.713672
Si Si3 0.640558 0.318781 0.213459
Si Si4 0.065446 0.552343 0.285597
Si Si5 0.563587 0.598863 0.208409
Si Si6 0.235896 0.302798 0.700862
Si Si7 0.564246 0.500000 0.291268
O O1 0.872033 0.641479 0.500000
O O2 0.919845 0.683382 0.238975
O O3 0.894177 0.593958 0.225166
O O4 0.814651 0.666570 0.219759
O O5 0.937572 0.737428 0.500000
O O6 0.888934 0.771075 0.770907
O O7 0.000000 0.747440 0.773374
O O8 0.601028 0.359958 0.276876
O O9 0.703657 0.326108 0.277287
O O10 0.642580 0.318101 0.000000
O O11 0.066456 0.552477 0.500000
O O12 0.080502 0.500000 0.230394
O O13 0.000000 0.560867 0.235390
O O14 0.500000 0.599022 0.282349
O O15 0.589672 0.548433 0.235512
O O16 0.558961 0.606179 0.000000
O O17 0.218677 0.298641 0.500000
O O18 0.250000 0.250000 0.750000
O O19 0.500000 0.500000 0.217157
O O20 0.561182 0.500000 0.500000
#
# Coordination Sequence:
#
# PCOD9519347 Si02
#       7
#    16  16  16  16  16  16   8
#     4   9  16  26  42  65  92 125 163 196 231 283
#     4   9  15  24  42  68  95 120 152 195 238 283
#     4  10  19  32  49  72  97 125 162 203 247 292
#     4   8  13  22  39  66  98 126 151 188 242 293
#     4   9  17  30  50  74  98 125 161 204 248 295
#     4  11  21  34  50  68  93 129 170 205 241 289
#     4   9  17  29  47  71  99 129 159 193 240 297
#
# _framework density 19.837309000000001
#
# number of rings (size 3 to 8) (size 9 to 14) (size 15 to 20)
#    0.000    2.692    1.538    2.077    0.000    5.231 
#    0.000    0.000    1.692    1.385    0.000    0.000 
#    0.000    0.000    0.000    6.769    0.000    6.154 
#
# Total GULP energy -289783.796305 kJ/mol
# GULP energy per Si atom -5572.765314 kJ/mol
# Density = 1.979216 g / cm^3
# Si number density = 19.837309 Si / 1000 Ang^3
#
#
#
# Elastic Constant Matrix: (Units=GPa)
#
#
# Indices 1 2 3 4 5 6 
#
# 1 109.7586 64.1576 -3.4193 0.0000 0.0000 0.0000
# 2 64.1576 163.1945 1.7625 0.0000 0.0000 0.0000
# 3 -3.4193 1.7625 35.7244 0.0000 0.0000 0.0000
# 4 0.0000 0.0000 0.0000 -8.8401 0.0000 0.0000
# 5 0.0000 0.0000 0.0000 0.0000 11.5309 0.0000
# 6 0.0000 0.0000 0.0000 0.0000 0.0000 21.7507
#
#
#
# Elastic Compliance Matrix: (Units=1/GPa)
#
#
# Indices 1 2 3 4 5 6 
#
# 1 0.011896 -0.004692 0.001370 0.000000 0.000000 0.000000
# 2 -0.004692 0.007981 -0.000843 0.000000 0.000000 0.000000
# 3 0.001370 -0.000843 0.028165 0.000000 0.000000 0.000000
# 4 0.000000 0.000000 0.000000 -0.113121 0.000000 0.000000
# 5 0.000000 0.000000 0.000000 0.000000 0.086723 0.000000
# 6 0.000000 0.000000 0.000000 0.000000 0.000000 0.045976
#
#
# Mechanical properties :
#
#
# Convention : Reuss Voigt Hill
#
# Bulk Modulus (GPa) = 25.18043 48.18656 36.68350
# Shear Modulus (GPa) = 56.06284 21.30009 38.68146
#
# Velocity S-wave (km/s) = 5.32190 3.28035 4.42060
# Velocity P-wave (km/s) = 7.10525 6.22023 6.67742
#
# Compressibility (1/GPa) = 0.03971338
#
# Stress axis : x y z
#
# Youngs Moduli (GPa) = 84.06230 125.29505 35.50534
#
# Poissons Ratio (x) = 0.58782 -0.04864
# Poissons Ratio (y) = 0.39438 0.02992
# Poissons Ratio (z) = -0.11517 0.10560
#
# Static dielectric constant tensor:
#      x y z
#    x 1.716840 0.000000 0.000000 
#    y 0.000000 1.724600 0.000000 
#    z 0.000000 0.000000 1.773660 
# 
# From -- ./inp_files/13349.got.cif
#   From: 2010.05.17/outbox.cif.g08.bks.cpg/sg71_7_cif.got.tgz:13349.got - 2010.06.03 16:22:01.
