data_PCOD9519259
_publ_section_title
;
Structure prediction by ZEFSAII (Michael W. Deem and Ramdas Pophale) SiO2 
 PCOD9519259
Probable space group: I M M M
;
_chemical_formula_sum "Si O2"
_cell_formula_units_Z 76
_cell_length_a 7.355385
_cell_length_b 27.650576
_cell_length_c 18.099716
_cell_angle_alpha 90.000000
_cell_angle_beta 90.000000
_cell_angle_gamma 90.000000
_cell_volume 3681.131678
_symmetry_space_group_name_H-M "I M M M"
_symmetry_group_IT_number 71
_symmetry_cell_setting 'orthorhombic'
loop_
_space_group_symop_operation_xyz
x,y,z
-x,-y,z
x,-y,-z
-x,y,-z
-x,-y,-z
x,y,-z
-x,y,z
x,-y,z
1/2+x,1/2+y,1/2+z
1/2-x,1/2-y,1/2+z
1/2+x,1/2-y,1/2-z
1/2-x,1/2+y,1/2-z
1/2-x,1/2-y,1/2-z
1/2+x,1/2+y,1/2-z
1/2-x,1/2+y,1/2+z
1/2+x,1/2-y,1/2+z
loop_
_atom_site_type_symbol
_atom_site_label
_atom_site_fract_x
_atom_site_fract_y
_atom_site_fract_z
Si Si1 0.500000 0.143594 0.000000
Si Si2 0.280359 0.151821 0.728834
Si Si3 0.720644 0.205778 0.419144
Si Si4 0.222234 0.445084 0.162332
Si Si5 0.708832 0.316890 0.607810
Si Si6 0.206549 0.558923 0.000000
O O1 0.658518 0.147765 0.064513
O O2 0.500000 0.153931 0.729341
O O3 0.217550 0.178438 0.654168
O O4 0.225929 0.095730 0.720300
O O5 0.217326 0.175598 0.804326
O O6 0.780576 0.187508 0.500000
O O7 0.500000 0.203151 0.418711
O O8 0.769169 0.262265 0.412072
O O9 0.280282 0.500000 0.177370
O O10 0.285353 0.429461 0.080014
O O11 0.000000 0.445897 0.158452
O O12 0.500000 0.322122 0.585054
O O13 0.197297 0.500000 0.000000
O O14 0.000000 0.578525 0.000000
#
# Coordination Sequence:
#
# PCOD9519259 Si02
#       6
#     4  16  16  16  16   8
#     4  12  22  40  66  82 109 148 193 224 290 360
#     4  10  19  31  51  80 116 152 194 238 283 333
#     4   9  18  32  50  76 113 155 193 233 279 327
#     4   8  14  24  42  72 110 150 192 237 281 328
#     4  11  22  39  58  83 115 148 189 238 284 338
#     4   7  10  18  33  60 100 142 183 224 264 309
#
# _framework density 20.645824999999999
#
# number of rings (size 3 to 8) (size 9 to 14) (size 15 to 20)
#    0.000    2.632    2.105    2.211    1.474    0.000 
#    1.895    0.000    0.000    0.632    0.000    1.474 
#    0.000    4.211    0.000    0.000    0.000    0.000 
#
# Total GULP energy -211633.871938 kJ/mol
# GULP energy per Si atom -5569.312419 kJ/mol
# Density = 2.059883 g / cm^3
# Si number density = 20.645825 Si / 1000 Ang^3
#
#
#
# Elastic Constant Matrix: (Units=GPa)
#
#
# Indices 1 2 3 4 5 6 
#
# 1 94.9952 3.7330 10.7730 0.0000 0.0000 0.0000
# 2 3.7330 46.4591 37.5067 0.0000 0.0000 0.0000
# 3 10.7730 37.5067 164.0982 0.0001 0.0000 0.0000
# 4 0.0000 0.0000 0.0001 40.8900 0.0000 0.0000
# 5 0.0000 0.0000 0.0000 0.0000 -11.1832 0.0000
# 6 0.0000 0.0000 0.0000 0.0000 0.0000 -8.3230
#
#
#
# Elastic Compliance Matrix: (Units=1/GPa)
#
#
# Indices 1 2 3 4 5 6 
#
# 1 0.010611 -0.000356 -0.000615 0.000000 0.000000 0.000000
# 2 -0.000356 0.026407 -0.006012 0.000000 0.000000 0.000000
# 3 -0.000615 -0.006012 0.007508 0.000000 0.000000 0.000000
# 4 0.000000 0.000000 0.000000 0.024456 0.000000 0.000000
# 5 0.000000 0.000000 0.000000 0.000000 -0.089420 0.000000
# 6 0.000000 0.000000 0.000000 0.000000 0.000000 -0.120150
#
#
# Mechanical properties :
#
#
# Convention : Reuss Voigt Hill
#
# Bulk Modulus (GPa) = 32.72356 45.50865 39.11610
# Shear Modulus (GPa) = -42.94234 21.17943 -10.88145
#
# Velocity S-wave (km/s) = -4.56560 3.20636 -2.29825
# Velocity P-wave (km/s) = 3.45087 5.98315 3.45612
#
# Compressibility (1/GPa) = 0.03055902
#
# Stress axis : x y z
#
# Youngs Moduli (GPa) = 94.24534 37.86937 133.18297
#
# Poissons Ratio (x) = 0.01348 0.08194
# Poissons Ratio (y) = 0.03354 0.80072
# Poissons Ratio (z) = 0.05798 0.22768
#
# Static dielectric constant tensor:
#      x y z
#    x 1.805790 0.000000 0.000000 
#    y 0.000000 1.735720 0.000000 
#    z 0.000000 0.000000 1.724650 
# 
# From -- ./inp_files/42288.got.cif
#   From: 2010.05.17/outbox.cif.g08.bks.cpg/sg71_22_cif.got.tgz:42288.got - 2010.06.03 16:22:01.
