data_PCOD9519895
_publ_section_title
;
Structure prediction by ZEFSAII (Michael W. Deem and Ramdas Pophale) SiO2 
 PCOD9519895
Probable space group: I M M M
;
_chemical_formula_sum "Si O2"
_cell_formula_units_Z 96
_cell_length_a 24.439659
_cell_length_b 26.099625
_cell_length_c 8.262084
_cell_angle_alpha 90.000000
_cell_angle_beta 90.000000
_cell_angle_gamma 90.000000
_cell_volume 5270.101936
_symmetry_space_group_name_H-M "I M M M"
_symmetry_group_IT_number 71
_symmetry_cell_setting 'orthorhombic'
loop_
_space_group_symop_operation_xyz
x,y,z
-x,-y,z
x,-y,-z
-x,y,-z
-x,-y,-z
x,y,-z
-x,y,z
x,-y,z
1/2+x,1/2+y,1/2+z
1/2-x,1/2-y,1/2+z
1/2+x,1/2-y,1/2-z
1/2-x,1/2+y,1/2-z
1/2-x,1/2-y,1/2-z
1/2+x,1/2+y,1/2-z
1/2-x,1/2+y,1/2+z
1/2+x,1/2-y,1/2+z
loop_
_atom_site_type_symbol
_atom_site_label
_atom_site_fract_x
_atom_site_fract_y
_atom_site_fract_z
Si Si1 0.749238 0.940768 0.804846
Si Si2 0.437328 0.500000 0.697803
Si Si3 0.062000 0.808629 0.304849
Si Si4 0.062867 0.500000 0.197841
Si Si5 0.133355 0.097703 0.195216
Si Si6 0.062132 0.308613 0.304669
Si Si7 0.633358 0.097588 0.693078
O O1 0.804922 0.913453 0.747887
O O2 0.694443 0.911653 0.755270
O O3 0.747373 0.000000 0.747192
O O4 0.751300 0.942515 0.000000
O O5 0.500000 0.500000 0.752048
O O6 0.437388 0.500000 0.500000
O O7 0.405020 0.449337 0.750229
O O8 0.061578 0.808798 0.500000
O O9 0.106183 0.849301 0.247142
O O10 0.072916 0.750028 0.252671
O O11 0.000000 0.822463 0.250483
O O12 0.095316 0.550504 0.252136
O O13 0.000000 0.500000 0.251502
O O14 0.062579 0.500000 0.000000
O O15 0.134146 0.096497 0.000000
O O16 0.062514 0.309175 0.500000
O O17 0.105607 0.349446 0.243992
O O18 0.000000 0.322215 0.251988
O O19 0.634613 0.095047 0.500000
#
# Coordination Sequence:
#
# PCOD9519895 Si02
#       7
#    16   8  16   8  16  16  16
#     4  10  20  36  55  75 106 146 184 221 263 314
#     4   9  16  27  47  77 109 135 164 213 270 315
#     4   9  19  36  56  79 110 144 175 216 271 322
#     4   9  18  31  47  73 109 137 158 203 268 319
#     4  10  19  33  54  80 106 139 183 223 263 314
#     4   9  19  37  58  79 107 143 179 216 265 322
#     4  11  21  34  54  80 109 140 178 220 268 320
#
# _framework density 18.215966000000002
#
# number of rings (size 3 to 8) (size 9 to 14) (size 15 to 20)
#    0.000    2.333    1.667    2.500    0.000    3.333 
#    0.000    2.917    0.000    3.500    0.000    0.000 
#    0.000    0.000    0.000    0.000    0.000    0.000 
#
# Total GULP energy -267874.535083 kJ/mol
# GULP energy per Si atom -5580.719481 kJ/mol
# Density = 1.817451 g / cm^3
# Si number density = 18.215966 Si / 1000 Ang^3
#
#
#
# Elastic Constant Matrix: (Units=GPa)
#
#
# Indices 1 2 3 4 5 6 
#
# 1 204.4193 115.2255 20.7507 0.0000 0.0000 0.0000
# 2 115.2255 138.5685 16.2890 0.0000 0.0000 0.0000
# 3 20.7507 16.2890 10.3062 0.0000 0.0000 0.0000
# 4 0.0000 0.0000 0.0000 21.1302 0.0000 0.0000
# 5 0.0000 0.0000 0.0000 0.0000 22.4107 0.0000
# 6 0.0000 0.0000 0.0000 0.0000 0.0000 21.4924
#
#
#
# Elastic Compliance Matrix: (Units=1/GPa)
#
#
# Indices 1 2 3 4 5 6 
#
# 1 0.009764 -0.007134 -0.008384 0.000000 0.000000 0.000000
# 2 -0.007134 0.014075 -0.007883 0.000000 0.000000 0.000000
# 3 -0.008384 -0.007883 0.126370 0.000000 0.000000 0.000000
# 4 0.000000 0.000000 0.000000 0.047326 0.000000 0.000000
# 5 0.000000 0.000000 0.000000 0.000000 0.044622 0.000000
# 6 0.000000 0.000000 0.000000 0.000000 0.000000 0.046528
#
#
# Mechanical properties :
#
#
# Convention : Reuss Voigt Hill
#
# Bulk Modulus (GPa) = 9.67052 73.09160 41.38106
# Shear Modulus (GPa) = 13.51513 26.40857 19.96185
#
# Velocity S-wave (km/s) = 2.72681 3.81169 3.31394
# Velocity P-wave (km/s) = 3.90312 7.71907 6.11631
#
# Compressibility (1/GPa) = 0.10340703
#
# Stress axis : x y z
#
# Youngs Moduli (GPa) = 102.41703 71.04703 7.91328
#
# Poissons Ratio (x) = 0.50682 0.06635
# Poissons Ratio (y) = 0.73060 0.06238
# Poissons Ratio (z) = 0.85870 0.56007
#
# Static dielectric constant tensor:
#      x y z
#    x 1.610270 0.000000 0.000000 
#    y 0.000000 1.608400 0.000000 
#    z 0.000000 0.000000 1.643240 
# 
# From -- ./inp_files/12914.got.cif
#   From: 2010.05.17/outbox.cif.g08.bks.cpg/sg71_7_cif.got.tgz:12914.got - 2010.06.03 16:22:01.
