data_PCOD9519209
_publ_section_title
;
Structure prediction by ZEFSAII (Michael W. Deem and Ramdas Pophale) SiO2 
 PCOD9519209
Probable space group: I M M M
;
_chemical_formula_sum "Si O2"
_cell_formula_units_Z 104
_cell_length_a 18.852466
_cell_length_b 12.009182
_cell_length_c 26.499308
_cell_angle_alpha 90.000000
_cell_angle_beta 90.000000
_cell_angle_gamma 90.000000
_cell_volume 5999.514756
_symmetry_space_group_name_H-M "I M M M"
_symmetry_group_IT_number 71
_symmetry_cell_setting 'orthorhombic'
loop_
_space_group_symop_operation_xyz
x,y,z
-x,-y,z
x,-y,-z
-x,y,-z
-x,-y,-z
x,y,-z
-x,y,z
x,-y,z
1/2+x,1/2+y,1/2+z
1/2-x,1/2-y,1/2+z
1/2+x,1/2-y,1/2-z
1/2-x,1/2+y,1/2-z
1/2-x,1/2-y,1/2-z
1/2+x,1/2+y,1/2-z
1/2-x,1/2+y,1/2+z
1/2+x,1/2-y,1/2+z
loop_
_atom_site_type_symbol
_atom_site_label
_atom_site_fract_x
_atom_site_fract_y
_atom_site_fract_z
Si Si1 0.420199 0.632224 0.635798
Si Si2 0.133453 0.741832 0.768250
Si Si3 0.292920 0.369516 0.557844
Si Si4 0.584745 0.500000 0.060775
Si Si5 0.669285 0.278305 0.098730
Si Si6 0.264785 0.373971 0.198960
Si Si7 0.917006 0.624258 0.667792
O O1 0.500000 0.652608 0.615678
O O2 0.414954 0.500000 0.646927
O O3 0.410224 0.701254 0.687343
O O4 0.356822 0.658100 0.596584
O O5 0.182378 0.644624 0.790661
O O6 0.190211 0.830568 0.746485
O O7 0.094793 0.694060 0.719155
O O8 0.318201 0.363214 0.500000
O O9 0.272352 0.500000 0.567336
O O10 0.226595 0.285577 0.564233
O O11 0.500000 0.500000 0.076610
O O12 0.627419 0.388275 0.078958
O O13 0.585226 0.500000 0.000000
O O14 0.712898 0.309220 0.149134
O O15 0.614351 0.187924 0.119917
O O16 0.283217 0.500000 0.190263
O O17 0.885447 0.500000 0.673202
O O18 0.000000 0.614956 0.660612
#
# Coordination Sequence:
#
# PCOD9519209 Si02
#       7
#    16  16  16   8  16  16  16
#     4  10  20  34  53  79 112 147 183 228 284 339
#     4  10  19  32  51  76 111 146 181 225 264 327
#     4  10  21  37  58  83 108 139 185 237 285 331
#     4  11  24  40  60  86 115 145 181 231 283 331
#     4  11  20  37  58  80 107 144 181 225 271 327
#     4  10  19  31  50  79 105 138 182 222 266 317
#     4  10  21  35  53  79 111 148 184 220 269 327
#
# _framework density 17.334734999999998
#
# number of rings (size 3 to 8) (size 9 to 14) (size 15 to 20)
#    0.000    1.769    2.308    2.769    0.000    0.308 
#    0.000    1.538    0.000    0.000    0.000    6.462 
#    0.000    3.077    0.000    0.000    0.000    0.000 
#
# Total GULP energy -289670.645785 kJ/mol
# GULP energy per Si atom -5570.589342 kJ/mol
# Density = 1.729528 g / cm^3
# Si number density = 17.334735 Si / 1000 Ang^3
#
#
#
# Elastic Constant Matrix: (Units=GPa)
#
#
# Indices 1 2 3 4 5 6 
#
# 1 94.8700 40.8730 34.6539 0.0000 0.0000 0.0000
# 2 40.8730 73.2449 23.9377 0.0000 0.0000 0.0000
# 3 34.6539 23.9377 74.4895 0.0000 0.0000 0.0000
# 4 0.0000 0.0000 0.0000 26.2395 0.0000 0.0000
# 5 0.0000 0.0000 0.0000 0.0000 19.0052 0.0000
# 6 0.0000 0.0000 0.0000 0.0000 0.0000 24.7938
#
#
#
# Elastic Compliance Matrix: (Units=1/GPa)
#
#
# Indices 1 2 3 4 5 6 
#
# 1 0.015324 -0.006951 -0.004895 0.000000 0.000000 0.000000
# 2 -0.006951 0.018408 -0.002682 0.000000 0.000000 0.000000
# 3 -0.004895 -0.002682 0.016564 0.000000 0.000000 0.000000
# 4 0.000000 0.000000 0.000000 0.038111 0.000000 0.000000
# 5 0.000000 0.000000 0.000000 0.000000 0.052617 0.000000
# 6 0.000000 0.000000 0.000000 0.000000 0.000000 0.040333
#
#
# Mechanical properties :
#
#
# Convention : Reuss Voigt Hill
#
# Bulk Modulus (GPa) = 47.08188 49.05929 48.07059
# Shear Modulus (GPa) = 22.98935 23.55035 23.26985
#
# Velocity S-wave (km/s) = 3.64566 3.68987 3.66783
# Velocity P-wave (km/s) = 6.70376 6.82027 6.76227
#
# Compressibility (1/GPa) = 0.02123959
#
# Stress axis : x y z
#
# Youngs Moduli (GPa) = 65.25884 54.32327 60.37279
#
# Poissons Ratio (x) = 0.37762 0.29552
# Poissons Ratio (y) = 0.45363 0.16191
# Poissons Ratio (z) = 0.31944 0.14568
#
# Static dielectric constant tensor:
#      x y z
#    x 1.610500 0.000000 0.000000 
#    y 0.000000 1.608020 0.000000 
#    z 0.000000 0.000000 1.581240 
# 
# From -- ./inp_files/66029.got.cif
#   From: 2010.05.17/outbox.cif.g08.bks.cpg/sg71_34_cif.got.tgz:66029.got - 2010.06.03 16:22:01.
