data_PCOD9519738
_publ_section_title
;
Structure prediction by ZEFSAII (Michael W. Deem and Ramdas Pophale) SiO2 
 PCOD9519738
Probable space group: I M M M
;
_chemical_formula_sum "Si O2"
_cell_formula_units_Z 120
_cell_length_a 28.190941
_cell_length_b 9.290421
_cell_length_c 27.448200
_cell_angle_alpha 90.000000
_cell_angle_beta 90.000000
_cell_angle_gamma 90.000000
_cell_volume 7188.840317
_symmetry_space_group_name_H-M "I M M M"
_symmetry_group_IT_number 71
_symmetry_cell_setting 'orthorhombic'
loop_
_space_group_symop_operation_xyz
x,y,z
-x,-y,z
x,-y,-z
-x,y,-z
-x,-y,-z
x,y,-z
-x,y,z
x,-y,z
1/2+x,1/2+y,1/2+z
1/2-x,1/2-y,1/2+z
1/2+x,1/2-y,1/2-z
1/2-x,1/2+y,1/2-z
1/2-x,1/2-y,1/2-z
1/2+x,1/2+y,1/2-z
1/2-x,1/2+y,1/2+z
1/2+x,1/2-y,1/2+z
loop_
_atom_site_type_symbol
_atom_site_label
_atom_site_fract_x
_atom_site_fract_y
_atom_site_fract_z
Si Si1 0.710083 0.833120 0.557007
Si Si2 0.792672 0.834091 0.302768
Si Si3 0.090942 0.339327 0.441844
Si Si4 0.556635 0.829034 0.556779
Si Si5 0.818627 0.671167 0.790918
Si Si6 0.817310 0.834303 0.414782
Si Si7 0.500000 0.335999 0.940432
Si Si8 0.133965 0.827575 0.121120
O O1 0.698244 0.827991 0.500000
O O2 0.765478 0.798974 0.564216
O O3 0.677210 0.726828 0.587063
O O4 0.703280 0.000000 0.574076
O O5 0.817954 0.731465 0.264030
O O6 0.736333 0.801606 0.306940
O O7 0.813672 0.825018 0.356497
O O8 0.796040 0.000000 0.285400
O O9 0.084805 0.348110 0.500000
O O10 0.089180 0.500000 0.421548
O O11 0.141108 0.266467 0.432557
O O12 0.047221 0.244542 0.423486
O O13 0.567940 0.793012 0.500000
O O14 0.500000 0.808899 0.563112
O O15 0.587561 0.737885 0.594586
O O16 0.566794 0.000000 0.562899
O O17 0.827038 0.500000 0.793080
O O18 0.853912 0.755759 0.826681
O O19 0.827523 0.000000 0.428718
O O20 0.500000 0.500000 0.924391
O O21 0.500000 0.336162 0.000000
O O22 0.131855 0.000000 0.124269
#
# Coordination Sequence:
#
# PCOD9519738 Si02
#       8
#    16  16  16  16  16  16   8  16
#     4  10  20  34  50  69 100 142 181 212 246 297
#     4   9  18  33  52  75 102 130 168 216 259 299
#     4  10  20  32  47  71 103 134 166 209 254 295
#     4   9  19  37  59  80 104 138 179 220 264 318
#     4  10  19  34  54  74 100 133 172 212 255 303
#     4  10  19  33  51  72 100 135 172 207 249 304
#     4   9  17  31  51  71  91 123 169 211 247 291
#     4  12  23  33  50  77 108 139 174 215 261 310
#
# _framework density 16.692540000000001
#
# number of rings (size 3 to 8) (size 9 to 14) (size 15 to 20)
#    0.000    2.067    1.333    3.400    0.000    6.133 
#    0.000    0.667    0.000    0.000    1.733    0.000 
#    0.000    0.000    0.000    0.000    0.000    0.000 
#
# Total GULP energy -334769.828162 kJ/mol
# GULP energy per Si atom -5579.497136 kJ/mol
# Density = 1.665455 g / cm^3
# Si number density = 16.692540 Si / 1000 Ang^3
#
#
#
# Elastic Constant Matrix: (Units=GPa)
#
#
# Indices 1 2 3 4 5 6 
#
# 1 64.4740 50.2770 12.6655 0.0000 0.0000 0.0000
# 2 50.2770 98.2658 28.6866 0.0000 0.0000 0.0000
# 3 12.6655 28.6866 46.2870 0.0000 0.0000 0.0000
# 4 0.0000 0.0000 0.0000 25.5938 0.0000 0.0000
# 5 0.0000 0.0000 0.0000 0.0000 11.8149 0.0000
# 6 0.0000 0.0000 0.0000 0.0000 0.0000 -4.0056
#
#
#
# Elastic Compliance Matrix: (Units=1/GPa)
#
#
# Indices 1 2 3 4 5 6 
#
# 1 0.025878 -0.013641 0.001373 0.000000 0.000000 0.000000
# 2 -0.013641 0.019615 -0.008424 0.000000 0.000000 0.000000
# 3 0.001373 -0.008424 0.026449 0.000000 0.000000 0.000000
# 4 0.000000 0.000000 0.000000 0.039072 0.000000 0.000000
# 5 0.000000 0.000000 0.000000 0.000000 0.084639 0.000000
# 6 0.000000 0.000000 0.000000 0.000000 0.000000 -0.249650
#
#
# Mechanical properties :
#
#
# Convention : Reuss Voigt Hill
#
# Bulk Modulus (GPa) = 32.72409 43.58724 38.15567
# Shear Modulus (GPa) = -2059.80812 14.50713 -1022.65049
#
# Velocity S-wave (km/s) = -35.16601 2.95121 -24.77840
# Velocity P-wave (km/s) = 40.36357 6.14666 28.20848
#
# Compressibility (1/GPa) = 0.03055852
#
# Stress axis : x y z
#
# Youngs Moduli (GPa) = 38.64335 50.98144 37.80816
#
# Poissons Ratio (x) = 0.69544 -0.05192
# Poissons Ratio (y) = 0.52713 0.31849
# Poissons Ratio (z) = -0.05306 0.42946
#
# Static dielectric constant tensor:
#      x y z
#    x 1.547700 0.000000 0.000000 
#    y 0.000000 1.567540 0.000000 
#    z 0.000000 0.000000 1.563550 
# 
# From -- ./inp_files/67154.got.cif
#   From: 2010.05.17/outbox.cif.g08.bks.cpg/sg71_34_cif.got.tgz:67154.got - 2010.06.03 16:22:01.
