data_PCOD9519117
_publ_section_title
;
Structure prediction by ZEFSAII (Michael W. Deem and Ramdas Pophale) SiO2 
 PCOD9519117
Probable space group: I M M M
;
_chemical_formula_sum "Si O2"
_cell_formula_units_Z 104
_cell_length_a 28.396881
_cell_length_b 10.035036
_cell_length_c 23.299151
_cell_angle_alpha 90.000000
_cell_angle_beta 90.000000
_cell_angle_gamma 90.000000
_cell_volume 6639.412815
_symmetry_space_group_name_H-M "I M M M"
_symmetry_group_IT_number 71
_symmetry_cell_setting 'orthorhombic'
loop_
_space_group_symop_operation_xyz
x,y,z
-x,-y,z
x,-y,-z
-x,y,-z
-x,-y,-z
x,y,-z
-x,y,z
x,-y,z
1/2+x,1/2+y,1/2+z
1/2-x,1/2-y,1/2+z
1/2+x,1/2-y,1/2-z
1/2-x,1/2+y,1/2-z
1/2-x,1/2-y,1/2-z
1/2+x,1/2+y,1/2-z
1/2-x,1/2+y,1/2+z
1/2+x,1/2-y,1/2+z
loop_
_atom_site_type_symbol
_atom_site_label
_atom_site_fract_x
_atom_site_fract_y
_atom_site_fract_z
Si Si1 0.904111 0.845832 0.159641
Si Si2 0.555215 0.838635 0.000000
Si Si3 0.197717 0.343124 0.685512
Si Si4 0.104837 0.659884 0.619899
Si Si5 0.943343 0.652478 0.935419
Si Si6 0.803644 0.154187 0.795141
Si Si7 0.443635 0.654311 0.786318
O O1 0.924521 0.750627 0.112050
O O2 0.847943 0.831469 0.163601
O O3 0.924541 0.814746 0.222780
O O4 0.916024 0.000000 0.147814
O O5 0.584121 0.800843 0.942458
O O6 0.500000 0.793036 0.000000
O O7 0.553370 0.000000 0.000000
O O8 0.191817 0.500000 0.700151
O O9 0.160144 0.315546 0.634959
O O10 0.188846 0.251267 0.741064
O O11 0.253371 0.321500 0.674611
O O12 0.097110 0.500000 0.625979
O O13 0.077179 0.743735 0.667756
O O14 0.928592 0.500000 0.924419
O O15 0.000000 0.654818 0.934353
O O16 0.928371 0.689143 0.000000
O O17 0.803480 0.000000 0.774537
O O18 0.500000 0.661834 0.786245
O O19 0.430029 0.500000 0.799174
#
# Coordination Sequence:
#
# PCOD9519117 Si02
#       7
#    16   8  16  16  16  16  16
#     4  10  19  31  49  72  99 129 160 195 238 290
#     4   9  18  32  49  69  95 129 167 207 250 293
#     4   9  17  29  48  73  97 122 158 198 239 289
#     4  10  19  32  51  72  95 125 165 207 247 293
#     4   9  19  35  52  70  95 128 164 201 240 283
#     4   9  17  30  48  71 101 128 153 190 239 290
#     4  10  20  32  46  69 101 130 157 194 241 290
#
# _framework density 15.664035
#
# number of rings (size 3 to 8) (size 9 to 14) (size 15 to 20)
#    0.000    2.538    1.538    1.385    0.000    3.385 
#    0.000    1.154    1.692    1.385    0.000    0.000 
#    0.000    0.000    0.000    0.000    0.000    0.000 
#
# Total GULP energy -289563.611793 kJ/mol
# GULP energy per Si atom -5568.530996 kJ/mol
# Density = 1.562838 g / cm^3
# Si number density = 15.664035 Si / 1000 Ang^3
#
#
#
# Elastic Constant Matrix: (Units=GPa)
#
#
# Indices 1 2 3 4 5 6 
#
# 1 83.3074 40.7300 65.1795 0.0000 0.0000 0.0000
# 2 40.7300 54.0590 72.6894 0.0000 0.0000 0.0000
# 3 65.1795 72.6894 128.7302 0.0000 0.0000 0.0000
# 4 0.0000 0.0000 0.0000 17.8181 0.0000 0.0000
# 5 0.0000 0.0000 0.0000 0.0000 23.1256 0.0000
# 6 0.0000 0.0000 0.0000 0.0000 0.0000 22.9261
#
#
#
# Elastic Compliance Matrix: (Units=1/GPa)
#
#
# Indices 1 2 3 4 5 6 
#
# 1 0.020358 -0.006141 -0.006840 0.000000 0.000000 0.000000
# 2 -0.006141 0.078694 -0.041326 0.000000 0.000000 0.000000
# 3 -0.006840 -0.041326 0.034567 0.000000 0.000000 0.000000
# 4 0.000000 0.000000 0.000000 0.056123 0.000000 0.000000
# 5 0.000000 0.000000 0.000000 0.000000 0.043242 0.000000
# 6 0.000000 0.000000 0.000000 0.000000 0.000000 0.043618
#
#
# Mechanical properties :
#
#
# Convention : Reuss Voigt Hill
#
# Bulk Modulus (GPa) = 39.99360 69.25491 54.62426
# Shear Modulus (GPa) = 12.70484 18.60714 15.65599
#
# Velocity S-wave (km/s) = 2.85104 3.45032 3.16490
# Velocity P-wave (km/s) = 6.03535 7.75768 6.95007
#
# Compressibility (1/GPa) = 0.02500400
#
# Stress axis : x y z
#
# Youngs Moduli (GPa) = 49.12124 12.70753 28.92924
#
# Poissons Ratio (x) = 0.07803 0.19788
# Poissons Ratio (y) = 0.30164 1.19554
# Poissons Ratio (z) = 0.33600 0.52515
#
# Static dielectric constant tensor:
#      x y z
#    x 1.551400 0.000000 0.000000 
#    y 0.000000 1.522190 0.000000 
#    z 0.000000 0.000000 1.488170 
# 
# From -- ./inp_files/11558.got.cif
#   From: 2010.05.17/outbox.cif.g08.bks.cpg/sg71_6_cif.got.tgz:11558.got - 2010.06.03 16:22:01.
