data_PCOD9519533
_publ_section_title
;
Structure prediction by ZEFSAII (Michael W. Deem and Ramdas Pophale) SiO2 
 PCOD9519533
Probable space group: I M M M
;
_chemical_formula_sum "Si O2"
_cell_formula_units_Z 104
_cell_length_a 22.473248
_cell_length_b 14.529875
_cell_length_c 17.244850
_cell_angle_alpha 90.000000
_cell_angle_beta 90.000000
_cell_angle_gamma 90.000000
_cell_volume 5631.020956
_symmetry_space_group_name_H-M "I M M M"
_symmetry_group_IT_number 71
_symmetry_cell_setting 'orthorhombic'
loop_
_space_group_symop_operation_xyz
x,y,z
-x,-y,z
x,-y,-z
-x,y,-z
-x,-y,-z
x,y,-z
-x,y,z
x,-y,z
1/2+x,1/2+y,1/2+z
1/2-x,1/2-y,1/2+z
1/2+x,1/2-y,1/2-z
1/2-x,1/2+y,1/2-z
1/2-x,1/2-y,1/2-z
1/2+x,1/2+y,1/2-z
1/2-x,1/2+y,1/2+z
1/2+x,1/2-y,1/2+z
loop_
_atom_site_type_symbol
_atom_site_label
_atom_site_fract_x
_atom_site_fract_y
_atom_site_fract_z
Si Si1 0.567588 0.397737 0.906858
Si Si2 0.229110 0.098822 0.256288
Si Si3 0.265828 0.658257 0.585366
Si Si4 0.000000 0.893356 0.905998
Si Si5 0.396265 0.250665 0.410298
Si Si6 0.633301 0.893080 0.282852
Si Si7 0.156300 0.249880 0.342016
O O1 0.500000 0.386346 0.879158
O O2 0.587904 0.500000 0.882937
O O3 0.607903 0.315848 0.878395
O O4 0.566935 0.396989 0.000000
O O5 0.235836 0.098998 0.163465
O O6 0.294662 0.107447 0.293501
O O7 0.190500 0.186238 0.279363
O O8 0.203926 0.000000 0.280490
O O9 0.263494 0.614241 0.500000
O O10 0.328489 0.712162 0.589116
O O11 0.207167 0.720599 0.597343
O O12 0.941628 0.832553 0.885392
O O13 0.000000 0.000000 0.877491
O O14 0.000000 0.899289 0.000000
O O15 0.411177 0.226084 0.500000
O O16 0.397410 0.165245 0.351180
O O17 0.627604 0.836368 0.202547
O O18 0.614961 0.000000 0.278960
#
# Coordination Sequence:
#
# PCOD9519533 Si02
#       7
#    16  16  16   8  16  16  16
#     4   9  19  36  58  85 116 148 182 224 279 339
#     4  10  19  32  52  78 112 148 179 225 287 342
#     4  10  19  32  53  80 108 142 186 228 273 326
#     4   9  20  38  59  81 109 145 179 218 276 345
#     4  10  19  36  57  79 110 144 183 234 284 331
#     4  10  20  36  54  76 109 148 189 234 282 329
#     4  11  18  35  55  81 111 151 183 231 279 337
#
# _framework density 18.46912
#
# number of rings (size 3 to 8) (size 9 to 14) (size 15 to 20)
#    0.000    2.077    3.077    2.308    0.000    1.231 
#    1.385    1.923    0.000    2.769    0.000    1.077 
#    0.000    0.000    0.000    0.000    0.000    0.000 
#
# Total GULP energy -289688.598301 kJ/mol
# GULP energy per Si atom -5570.934583 kJ/mol
# Density = 1.842708 g / cm^3
# Si number density = 18.469120 Si / 1000 Ang^3
#
#
#
# Elastic Constant Matrix: (Units=GPa)
#
#
# Indices 1 2 3 4 5 6 
#
# 1 77.8892 59.2921 31.4958 0.0000 0.0000 0.0000
# 2 59.2921 148.3778 36.1496 0.0000 0.0000 0.0000
# 3 31.4958 36.1496 61.1051 0.0000 0.0000 0.0000
# 4 0.0000 0.0000 0.0000 14.1374 0.0000 0.0000
# 5 0.0000 0.0000 0.0000 0.0000 14.4029 0.0000
# 6 0.0000 0.0000 0.0000 0.0000 0.0000 18.7535
#
#
#
# Elastic Compliance Matrix: (Units=1/GPa)
#
#
# Indices 1 2 3 4 5 6 
#
# 1 0.020560 -0.006583 -0.006703 0.000000 0.000000 0.000000
# 2 -0.006583 0.009982 -0.002512 0.000000 0.000000 0.000000
# 3 -0.006703 -0.002512 0.021307 0.000000 0.000000 0.000000
# 4 0.000000 0.000000 0.000000 0.070734 0.000000 0.000000
# 5 0.000000 0.000000 0.000000 0.000000 0.069430 0.000000
# 6 0.000000 0.000000 0.000000 0.000000 0.000000 0.053323
#
#
# Mechanical properties :
#
#
# Convention : Reuss Voigt Hill
#
# Bulk Modulus (GPa) = 49.37696 60.13857 54.75776
# Shear Modulus (GPa) = 17.62519 20.15441 18.88980
#
# Velocity S-wave (km/s) = 3.09254 3.30699 3.20156
# Velocity P-wave (km/s) = 6.28845 6.87124 6.58629
#
# Compressibility (1/GPa) = 0.02025236
#
# Stress axis : x y z
#
# Youngs Moduli (GPa) = 48.63705 100.17850 46.93373
#
# Poissons Ratio (x) = 0.65946 0.31461
# Poissons Ratio (y) = 0.32017 0.11791
# Poissons Ratio (z) = 0.32602 0.25168
#
# Static dielectric constant tensor:
#      x y z
#    x 1.636190 0.000000 0.000000 
#    y 0.000000 1.649440 0.000000 
#    z 0.000000 0.000000 1.655040 
# 
# From -- ./inp_files/47353.got.cif
#   From: 2010.05.17/outbox.cif.g08.bks.cpg/sg71_24_cif.got.tgz:47353.got - 2010.06.03 16:22:01.
