data_PCOD9519717
_publ_section_title
;
Structure prediction by ZEFSAII (Michael W. Deem and Ramdas Pophale) SiO2 
 PCOD9519717
Probable space group: I M M M
;
_chemical_formula_sum "Si O2"
_cell_formula_units_Z 80
_cell_length_a 26.387306
_cell_length_b 12.873013
_cell_length_c 13.795647
_cell_angle_alpha 90.000000
_cell_angle_beta 90.000000
_cell_angle_gamma 90.000000
_cell_volume 4686.162393
_symmetry_space_group_name_H-M "I M M M"
_symmetry_group_IT_number 71
_symmetry_cell_setting 'orthorhombic'
loop_
_space_group_symop_operation_xyz
x,y,z
-x,-y,z
x,-y,-z
-x,y,-z
-x,-y,-z
x,y,-z
-x,y,z
x,-y,z
1/2+x,1/2+y,1/2+z
1/2-x,1/2-y,1/2+z
1/2+x,1/2-y,1/2-z
1/2-x,1/2+y,1/2-z
1/2-x,1/2-y,1/2-z
1/2+x,1/2+y,1/2-z
1/2-x,1/2+y,1/2+z
1/2+x,1/2-y,1/2+z
loop_
_atom_site_type_symbol
_atom_site_label
_atom_site_fract_x
_atom_site_fract_y
_atom_site_fract_z
Si Si1 0.739259 0.117996 0.616777
Si Si2 0.230676 0.000000 0.117340
Si Si3 0.615025 0.500000 0.381988
Si Si4 0.131150 0.376753 0.784008
Si Si5 0.940154 0.213416 0.883647
Si Si6 0.305431 0.811923 0.884050
O O1 0.735452 0.121840 0.500000
O O2 0.683855 0.143675 0.658274
O O3 0.781553 0.201485 0.644336
O O4 0.751965 0.000000 0.645501
O O5 0.173135 0.000000 0.152655
O O6 0.263330 0.101221 0.142821
O O7 0.227603 0.000000 0.000000
O O8 0.615467 0.500000 0.500000
O O9 0.586149 0.394937 0.353279
O O10 0.121286 0.500000 0.788064
O O11 0.087427 0.308429 0.831109
O O12 0.144722 0.340784 0.675402
O O13 0.000000 0.210097 0.864214
O O14 0.933327 0.224195 0.000000
O O15 0.312821 0.815288 0.000000
#
# Coordination Sequence:
#
# PCOD9519717 Si02
#       6
#    16   8   8  16  16  16
#     4   9  18  31  47  70 103 139 172 209 257 312
#     4   9  16  27  48  75 100 134 172 203 247 301
#     4   9  17  32  55  80 107 135 167 210 257 311
#     4  11  21  33  50  74 105 140 177 217 260 304
#     4  10  21  37  56  78 104 136 174 217 267 314
#     4  10  19  33  50  71 105 143 178 214 253 304
#
# _framework density 17.071538
#
# number of rings (size 3 to 8) (size 9 to 14) (size 15 to 20)
#    0.000    2.200    1.000    2.700    0.000    6.000 
#    1.800    1.000    0.000    0.600    0.000    1.400 
#    0.000    1.600    0.000    0.000    0.000    0.000 
#
# Total GULP energy -223337.769612 kJ/mol
# GULP energy per Si atom -5583.444240 kJ/mol
# Density = 1.703268 g / cm^3
# Si number density = 17.071538 Si / 1000 Ang^3
#
#
#
# Elastic Constant Matrix: (Units=GPa)
#
#
# Indices 1 2 3 4 5 6 
#
# 1 87.7879 40.3765 31.3372 0.0000 0.0000 0.0000
# 2 40.3765 83.7361 28.5396 0.0000 0.0000 0.0000
# 3 31.3372 28.5396 47.6448 0.0000 0.0000 0.0000
# 4 0.0000 0.0000 0.0000 22.3105 0.0000 0.0000
# 5 0.0000 0.0000 0.0000 0.0000 26.6563 0.0000
# 6 0.0000 0.0000 0.0000 0.0000 0.0000 20.2760
#
#
#
# Elastic Compliance Matrix: (Units=1/GPa)
#
#
# Indices 1 2 3 4 5 6 
#
# 1 0.016619 -0.005388 -0.007703 0.000000 0.000000 0.000000
# 2 -0.005388 0.016753 -0.006491 0.000000 0.000000 0.000000
# 3 -0.007703 -0.006491 0.029944 0.000000 0.000000 0.000000
# 4 0.000000 0.000000 0.000000 0.044822 0.000000 0.000000
# 5 0.000000 0.000000 0.000000 0.000000 0.037515 0.000000
# 6 0.000000 0.000000 0.000000 0.000000 0.000000 0.049319
#
#
# Mechanical properties :
#
#
# Convention : Reuss Voigt Hill
#
# Bulk Modulus (GPa) = 41.40727 46.63061 44.01894
# Shear Modulus (GPa) = 20.64526 21.77626 21.21076
#
# Velocity S-wave (km/s) = 3.48133 3.57541 3.52868
# Velocity P-wave (km/s) = 6.36139 6.66475 6.51484
#
# Compressibility (1/GPa) = 0.02415035
#
# Stress axis : x y z
#
# Youngs Moduli (GPa) = 60.17210 59.69197 33.39607
#
# Poissons Ratio (x) = 0.32162 0.25726
# Poissons Ratio (y) = 0.32420 0.21678
# Poissons Ratio (z) = 0.46353 0.38747
#
# Static dielectric constant tensor:
#      x y z
#    x 1.532160 0.000000 0.000000 
#    y 0.000000 1.585650 0.000000 
#    z 0.000000 0.000000 1.613040 
# 
# From -- ./inp_files/27114.got.cif
#   From: 2010.05.17/outbox.cif.g08.bks.cpg/sg71_14_cif.got.tgz:27114.got - 2010.06.03 16:22:01.
