data_PCOD9519646
_publ_section_title
;
Structure prediction by ZEFSAII (Michael W. Deem and Ramdas Pophale) SiO2 
 PCOD9519646
Probable space group: I M M M
;
_chemical_formula_sum "Si O2"
_cell_formula_units_Z 72
_cell_length_a 24.247287
_cell_length_b 11.395933
_cell_length_c 15.509075
_cell_angle_alpha 90.000000
_cell_angle_beta 90.000000
_cell_angle_gamma 90.000000
_cell_volume 4285.474708
_symmetry_space_group_name_H-M "I M M M"
_symmetry_group_IT_number 71
_symmetry_cell_setting 'orthorhombic'
loop_
_space_group_symop_operation_xyz
x,y,z
-x,-y,z
x,-y,-z
-x,y,-z
-x,-y,-z
x,y,-z
-x,y,z
x,-y,z
1/2+x,1/2+y,1/2+z
1/2-x,1/2-y,1/2+z
1/2+x,1/2-y,1/2-z
1/2-x,1/2+y,1/2-z
1/2-x,1/2-y,1/2-z
1/2+x,1/2+y,1/2-z
1/2-x,1/2+y,1/2+z
1/2+x,1/2-y,1/2+z
loop_
_atom_site_type_symbol
_atom_site_label
_atom_site_fract_x
_atom_site_fract_y
_atom_site_fract_z
Si Si1 0.612391 0.754240 0.846740
Si Si2 0.182586 0.142092 0.500000
Si Si3 0.689492 0.141358 0.500000
Si Si4 0.438303 0.000000 0.898268
Si Si5 0.120355 0.356863 0.830450
Si Si6 0.500000 0.141223 0.401271
Si Si7 0.000000 0.139613 0.399480
O O1 0.594506 0.884490 0.874430
O O2 0.635829 0.777818 0.751617
O O3 0.555029 0.683137 0.852605
O O4 0.652784 0.694445 0.915529
O O5 0.246804 0.176829 0.500000
O O6 0.177539 0.000000 0.500000
O O7 0.656747 0.174592 0.586319
O O8 0.689100 0.000000 0.500000
O O9 0.500000 0.000000 0.857989
O O10 0.444671 0.000000 0.000000
O O11 0.124790 0.500000 0.815814
O O12 0.056428 0.329795 0.852573
O O13 0.500000 0.186424 0.500000
O O14 0.500000 0.000000 0.407711
O O15 0.000000 0.184415 0.500000
O O16 0.000000 0.000000 0.403493
#
# Coordination Sequence:
#
# PCOD9519646 Si02
#       7
#    16   8   8   8  16   8   8
#     4  12  21  33  55  84 112 144 177 223 280 327
#     4  11  24  40  55  73 105 152 200 231 258 315
#     4   9  20  39  56  75 108 147 187 231 273 318
#     4  11  20  32  48  81 123 143 163 210 286 346
#     4  10  19  32  54  85 116 141 171 222 282 336
#     4   9  15  26  48  79 114 142 163 199 268 339
#     4  11  21  35  53  80 114 151 188 216 256 326
#
# _framework density 16.800937999999999
#
# number of rings (size 3 to 8) (size 9 to 14) (size 15 to 20)
#    0.000    1.444    5.556    1.333    0.000    0.889 
#    0.000    0.000    0.000    0.000    2.889    0.778 
#    0.000    0.000    0.000    0.000    0.000    0.000 
#
# Total GULP energy -200755.498420 kJ/mol
# GULP energy per Si atom -5576.541623 kJ/mol
# Density = 1.676270 g / cm^3
# Si number density = 16.800938 Si / 1000 Ang^3
#
#
#
# Elastic Constant Matrix: (Units=GPa)
#
#
# Indices 1 2 3 4 5 6 
#
# 1 128.8074 34.0137 66.8530 0.0000 0.0000 0.0000
# 2 34.0137 66.1752 35.8787 0.0000 0.0000 0.0000
# 3 66.8530 35.8787 145.4011 0.0000 0.0000 0.0000
# 4 0.0000 0.0000 0.0000 14.8337 0.0000 0.0000
# 5 0.0000 0.0000 0.0000 0.0000 4.9709 0.0000
# 6 0.0000 0.0000 0.0000 0.0000 0.0000 11.6258
#
#
#
# Elastic Compliance Matrix: (Units=1/GPa)
#
#
# Indices 1 2 3 4 5 6 
#
# 1 0.010786 -0.003296 -0.004146 0.000000 0.000000 0.000000
# 2 -0.003296 0.018453 -0.003038 0.000000 0.000000 0.000000
# 3 -0.004146 -0.003038 0.009533 0.000000 0.000000 0.000000
# 4 0.000000 0.000000 0.000000 0.067414 0.000000 0.000000
# 5 0.000000 0.000000 0.000000 0.000000 0.201171 0.000000
# 6 0.000000 0.000000 0.000000 0.000000 0.000000 0.086016
#
#
# Mechanical properties :
#
#
# Convention : Reuss Voigt Hill
#
# Bulk Modulus (GPa) = 56.14106 68.20829 62.17468
# Shear Modulus (GPa) = 11.89714 19.86198 15.87956
#
# Velocity S-wave (km/s) = 2.66395 3.44204 3.07768
# Velocity P-wave (km/s) = 6.55363 7.51551 7.05099
#
# Compressibility (1/GPa) = 0.01781227
#
# Stress axis : x y z
#
# Youngs Moduli (GPa) = 92.71639 54.19299 104.89584
#
# Poissons Ratio (x) = 0.17862 0.43487
# Poissons Ratio (y) = 0.30559 0.31866
# Poissons Ratio (z) = 0.38438 0.16463
#
# Static dielectric constant tensor:
#      x y z
#    x 1.574420 0.000000 0.000000 
#    y 0.000000 1.688140 0.000000 
#    z 0.000000 0.000000 1.619610 
# 
# From -- ./inp_files/47015.got.cif
#   From: 2010.05.17/outbox.cif.g08.bks.cpg/sg71_24_cif.got.tgz:47015.got - 2010.06.03 16:22:01.
