data_PCOD9519756
_publ_section_title
;
Structure prediction by ZEFSAII (Michael W. Deem and Ramdas Pophale) SiO2 
 PCOD9519756
Probable space group: I M M M
;
_chemical_formula_sum "Si O2"
_cell_formula_units_Z 88
_cell_length_a 24.805253
_cell_length_b 12.237683
_cell_length_c 15.230706
_cell_angle_alpha 90.000000
_cell_angle_beta 90.000000
_cell_angle_gamma 90.000000
_cell_volume 4623.415186
_symmetry_space_group_name_H-M "I M M M"
_symmetry_group_IT_number 71
_symmetry_cell_setting 'orthorhombic'
loop_
_space_group_symop_operation_xyz
x,y,z
-x,-y,z
x,-y,-z
-x,y,-z
-x,-y,-z
x,y,-z
-x,y,z
x,-y,z
1/2+x,1/2+y,1/2+z
1/2-x,1/2-y,1/2+z
1/2+x,1/2-y,1/2-z
1/2-x,1/2+y,1/2-z
1/2-x,1/2-y,1/2-z
1/2+x,1/2+y,1/2-z
1/2-x,1/2+y,1/2+z
1/2+x,1/2-y,1/2+z
loop_
_atom_site_type_symbol
_atom_site_label
_atom_site_fract_x
_atom_site_fract_y
_atom_site_fract_z
Si Si1 0.235245 0.870286 0.897996
Si Si2 0.846190 0.627333 0.310514
Si Si3 0.903518 0.383248 0.500000
Si Si4 0.563509 0.869536 0.500000
Si Si5 0.060728 0.154325 0.500000
Si Si6 0.565272 0.500000 0.342732
Si Si7 0.565519 0.500000 0.144827
Si Si8 0.621586 0.268989 0.646442
O O1 0.283539 0.846458 0.830368
O O2 0.182617 0.798988 0.879868
O O3 0.222273 0.000000 0.889392
O O4 0.252243 0.854012 0.000000
O O5 0.850462 0.500000 0.278721
O O6 0.870740 0.626290 0.409119
O O7 0.873965 0.712806 0.243491
O O8 0.930871 0.500000 0.500000
O O9 0.941117 0.280981 0.500000
O O10 0.500000 0.839998 0.500000
O O11 0.593330 0.818977 0.415947
O O12 0.567456 0.000000 0.500000
O O13 0.084642 0.102868 0.587718
O O14 0.000000 0.113035 0.500000
O O15 0.500000 0.500000 0.352471
O O16 0.585210 0.500000 0.242003
O O17 0.588819 0.617347 0.371736
O O18 0.500000 0.500000 0.155355
#
# Coordination Sequence:
#
# PCOD9519756 Si02
#       8
#    16  16   8   8   8   8   8  16
#     4  10  19  37  61  90 124 159 200 251 315 375
#     4  10  21  37  61  87 118 164 205 252 310 370
#     4  10  19  33  51  79 111 145 195 242 295 351
#     4  11  26  46  65  88 123 166 211 261 311 363
#     4   9  16  29  50  73 103 149 189 228 288 348
#     4  11  23  37  57  91 125 157 201 258 310 358
#     4   8  16  31  49  72 106 145 185 226 283 350
#     4  12  22  39  63  91 121 160 211 253 307 375
#
# _framework density 19.033549000000001
#
# number of rings (size 3 to 8) (size 9 to 14) (size 15 to 20)
#    0.000    1.727    2.727    3.273    0.000    0.545 
#    0.000    1.818    0.000    2.182    4.727    0.000 
#    0.000    0.000    0.000    0.000    0.000    0.000 
#
# Total GULP energy -244964.247820 kJ/mol
# GULP energy per Si atom -5567.369269 kJ/mol
# Density = 1.899023 g / cm^3
# Si number density = 19.033549 Si / 1000 Ang^3
#
#
#
# Elastic Constant Matrix: (Units=GPa)
#
#
# Indices 1 2 3 4 5 6 
#
# 1 79.7908 48.5335 24.1550 0.0000 0.0000 0.0000
# 2 48.5335 122.0068 33.8157 0.0000 0.0000 0.0000
# 3 24.1550 33.8157 84.6103 0.0000 0.0000 0.0000
# 4 0.0000 0.0000 0.0000 21.9465 0.0000 0.0000
# 5 0.0000 0.0000 0.0000 0.0000 20.6892 0.0000
# 6 0.0000 0.0000 0.0000 0.0000 0.0000 40.8091
#
#
#
# Elastic Compliance Matrix: (Units=1/GPa)
#
#
# Indices 1 2 3 4 5 6 
#
# 1 0.016960 -0.006078 -0.002413 0.000000 0.000000 0.000000
# 2 -0.006078 0.011395 -0.002819 0.000000 0.000000 0.000000
# 3 -0.002413 -0.002819 0.013634 0.000000 0.000000 0.000000
# 4 0.000000 0.000000 0.000000 0.045565 0.000000 0.000000
# 5 0.000000 0.000000 0.000000 0.000000 0.048334 0.000000
# 6 0.000000 0.000000 0.000000 0.000000 0.000000 0.024504
#
#
# Mechanical properties :
#
#
# Convention : Reuss Voigt Hill
#
# Bulk Modulus (GPa) = 51.62548 55.49070 53.55809
# Shear Modulus (GPa) = 26.38936 28.68255 27.53596
#
# Velocity S-wave (km/s) = 3.72757 3.88615 3.80769
# Velocity P-wave (km/s) = 6.76082 7.02522 6.89428
#
# Compressibility (1/GPa) = 0.01937028
#
# Stress axis : x y z
#
# Youngs Moduli (GPa) = 58.96182 87.75480 73.34378
#
# Poissons Ratio (x) = 0.53337 0.17696
# Poissons Ratio (y) = 0.35836 0.20677
# Poissons Ratio (z) = 0.14226 0.24740
#
# Static dielectric constant tensor:
#      x y z
#    x 1.672090 0.000000 0.000000 
#    y 0.000000 1.675700 0.000000 
#    z 0.000000 0.000000 1.694150 
# 
# From -- ./inp_files/40237.got.cif
#   From: 2010.05.17/outbox.cif.g08.bks.cpg/sg71_21_cif.got.tgz:40237.got - 2010.06.03 16:22:01.
