data_PCOD9519902
_publ_section_title
;
Structure prediction by ZEFSAII (Michael W. Deem and Ramdas Pophale) SiO2 
 PCOD9519902
Probable space group: I M M M
;
_chemical_formula_sum "Si O2"
_cell_formula_units_Z 104
_cell_length_a 22.162116
_cell_length_b 27.108568
_cell_length_c 9.942990
_cell_angle_alpha 90.000000
_cell_angle_beta 90.000000
_cell_angle_gamma 90.000000
_cell_volume 5973.581634
_symmetry_space_group_name_H-M "I M M M"
_symmetry_group_IT_number 71
_symmetry_cell_setting 'orthorhombic'
loop_
_space_group_symop_operation_xyz
x,y,z
-x,-y,z
x,-y,-z
-x,y,-z
-x,-y,-z
x,y,-z
-x,y,z
x,-y,z
1/2+x,1/2+y,1/2+z
1/2-x,1/2-y,1/2+z
1/2+x,1/2-y,1/2-z
1/2-x,1/2+y,1/2-z
1/2-x,1/2-y,1/2-z
1/2+x,1/2+y,1/2-z
1/2-x,1/2+y,1/2+z
1/2+x,1/2-y,1/2+z
loop_
_atom_site_type_symbol
_atom_site_label
_atom_site_fract_x
_atom_site_fract_y
_atom_site_fract_z
Si Si1 0.000000 0.558421 0.849792
Si Si2 0.386424 0.791431 0.846243
Si Si3 0.316482 0.619767 0.155151
Si Si4 0.777846 0.709523 0.152915
Si Si5 0.402582 0.098465 0.848882
Si Si6 0.231734 0.558219 0.657480
Si Si7 0.067269 0.181422 0.337797
O O1 0.941853 0.573871 0.765150
O O2 0.000000 0.500000 0.860054
O O3 0.000000 0.580014 0.000000
O O4 0.339562 0.801695 0.727820
O O5 0.420114 0.843591 0.851985
O O6 0.418482 0.739526 0.814624
O O7 0.360401 0.785218 0.000000
O O8 0.267932 0.664064 0.150661
O O9 0.285020 0.579321 0.249303
O O10 0.378652 0.645175 0.206651
O O11 0.325077 0.602678 0.000000
O O12 0.750000 0.750000 0.250000
O O13 0.786625 0.726546 0.000000
O O14 0.331422 0.087783 0.823419
O O15 0.414578 0.078665 0.000000
O O16 0.247761 0.564270 0.500000
O O17 0.221294 0.500000 0.682815
O O18 0.066658 0.176726 0.500000
O O19 0.000000 0.169641 0.287124
#
# Coordination Sequence:
#
# PCOD9519902 Si02
#       7
#     8  16  16  16  16  16  16
#     4  11  25  41  55  73 105 151 195 235 280 323
#     4  10  19  33  54  81 109 141 180 218 266 323
#     4  10  20  34  54  81 109 141 182 227 277 327
#     4  11  20  31  50  78 111 143 177 217 264 317
#     4  10  21  36  58  83 108 141 187 233 272 326
#     4  10  21  37  58  83 109 139 177 228 287 338
#     4   9  18  33  54  79 110 146 183 220 261 321
#
# _framework density 17.409991000000002
#
# number of rings (size 3 to 8) (size 9 to 14) (size 15 to 20)
#    0.000    1.923    3.077    1.154    1.077    3.385 
#    0.000    0.000    0.000    1.846    0.000    3.231 
#    0.000    0.000    0.000    0.000    0.000    0.000 
#
# Total GULP energy -289594.120289 kJ/mol
# GULP energy per Si atom -5569.117698 kJ/mol
# Density = 1.737037 g / cm^3
# Si number density = 17.409991 Si / 1000 Ang^3
#
#
#
# Elastic Constant Matrix: (Units=GPa)
#
#
# Indices 1 2 3 4 5 6 
#
# 1 97.8003 26.7442 48.9338 0.0000 0.0000 0.0000
# 2 26.7442 67.8523 36.1667 0.0000 0.0000 0.0000
# 3 48.9338 36.1667 101.5902 0.0000 0.0000 0.0000
# 4 0.0000 0.0000 0.0000 27.5467 0.0000 0.0000
# 5 0.0000 0.0000 0.0000 0.0000 5.8897 0.0000
# 6 0.0000 0.0000 0.0000 0.0000 0.0000 14.3607
#
#
#
# Elastic Compliance Matrix: (Units=1/GPa)
#
#
# Indices 1 2 3 4 5 6 
#
# 1 0.013765 -0.002334 -0.005799 0.000000 0.000000 0.000000
# 2 -0.002334 0.018585 -0.005492 0.000000 0.000000 0.000000
# 3 -0.005799 -0.005492 0.014592 0.000000 0.000000 0.000000
# 4 0.000000 0.000000 0.000000 0.036302 0.000000 0.000000
# 5 0.000000 0.000000 0.000000 0.000000 0.169787 0.000000
# 6 0.000000 0.000000 0.000000 0.000000 0.000000 0.069634
#
#
# Mechanical properties :
#
#
# Convention : Reuss Voigt Hill
#
# Bulk Modulus (GPa) = 50.78467 54.54803 52.66635
# Shear Modulus (GPa) = 14.02599 19.91930 16.97265
#
# Velocity S-wave (km/s) = 2.84144 3.38617 3.12569
# Velocity P-wave (km/s) = 6.32441 6.83284 6.58354
#
# Compressibility (1/GPa) = 0.01969098
#
# Stress axis : x y z
#
# Youngs Moduli (GPa) = 72.64880 53.80566 68.53060
#
# Poissons Ratio (x) = 0.12560 0.39742
# Poissons Ratio (y) = 0.16959 0.37638
# Poissons Ratio (z) = 0.42130 0.29551
#
# Static dielectric constant tensor:
#      x y z
#    x 1.628330 0.000000 0.000000 
#    y 0.000000 1.577960 0.000000 
#    z 0.000000 0.000000 1.569100 
# 
# From -- ./inp_files/13337.got.cif
#   From: 2010.05.17/outbox.cif.g08.bks.cpg/sg71_7_cif.got.tgz:13337.got - 2010.06.03 16:22:01.
