data_PCOD9519103
_publ_section_title
;
Structure prediction by ZEFSAII (Michael W. Deem and Ramdas Pophale) SiO2 
 PCOD9519103
Probable space group: I M M M
;
_chemical_formula_sum "Si O2"
_cell_formula_units_Z 96
_cell_length_a 8.869012
_cell_length_b 23.738166
_cell_length_c 27.961984
_cell_angle_alpha 90.000000
_cell_angle_beta 90.000000
_cell_angle_gamma 90.000000
_cell_volume 5886.950552
_symmetry_space_group_name_H-M "I M M M"
_symmetry_group_IT_number 71
_symmetry_cell_setting 'orthorhombic'
loop_
_space_group_symop_operation_xyz
x,y,z
-x,-y,z
x,-y,-z
-x,y,-z
-x,-y,-z
x,y,-z
-x,y,z
x,-y,z
1/2+x,1/2+y,1/2+z
1/2-x,1/2-y,1/2+z
1/2+x,1/2-y,1/2-z
1/2-x,1/2+y,1/2-z
1/2-x,1/2-y,1/2-z
1/2+x,1/2+y,1/2-z
1/2-x,1/2+y,1/2+z
1/2+x,1/2-y,1/2+z
loop_
_atom_site_type_symbol
_atom_site_label
_atom_site_fract_x
_atom_site_fract_y
_atom_site_fract_z
Si Si1 0.674411 0.885676 0.894352
Si Si2 0.317424 0.885181 0.290243
Si Si3 0.680689 0.500000 0.359870
Si Si4 0.819245 0.710440 0.855634
Si Si5 0.817780 0.218317 0.945809
Si Si6 0.819164 0.000000 0.252742
Si Si7 0.673815 0.809265 0.799597
O O1 0.500000 0.894652 0.907400
O O2 0.752755 0.842373 0.930722
O O3 0.678667 0.852979 0.843621
O O4 0.757032 0.944515 0.885880
O O5 0.500000 0.891500 0.289727
O O6 0.270721 0.851376 0.338075
O O7 0.243318 0.944686 0.279018
O O8 0.275842 0.843271 0.246750
O O9 0.500000 0.500000 0.360708
O O10 0.728762 0.500000 0.303568
O O11 0.765525 0.735900 0.906256
O O12 0.770247 0.756069 0.815918
O O13 0.000000 0.709272 0.857140
O O14 0.000000 0.215566 0.943307
O O15 0.774573 0.232546 0.000000
O O16 0.000000 0.000000 0.253439
O O17 0.500000 0.791496 0.792722
#
# Coordination Sequence:
#
# PCOD9519103 Si02
#       7
#    16  16   8  16  16   8  16
#     4  10  19  31  49  71  96 127 165 203 238 283
#     4  10  19  32  47  67  98 131 163 196 233 281
#     4  11  21  33  48  68  95 130 170 202 235 282
#     4   9  18  30  48  72  95 125 161 195 237 288
#     4   9  18  34  53  73  99 126 155 199 251 294
#     4  11  23  33  47  70  97 134 171 200 231 278
#     4   9  17  28  44  67  96 128 156 191 238 280
#
# _framework density 16.307255000000001
#
# number of rings (size 3 to 8) (size 9 to 14) (size 15 to 20)
#    0.000    2.333    1.667    1.500    0.000    3.000 
#    0.000    0.417    0.000    2.500    0.000    0.583 
#    0.000    4.667    0.000    0.000    0.000    0.000 
#
# Total GULP energy -267596.842062 kJ/mol
# GULP energy per Si atom -5574.934210 kJ/mol
# Density = 1.627014 g / cm^3
# Si number density = 16.307255 Si / 1000 Ang^3
#
#
#
# Elastic Constant Matrix: (Units=GPa)
#
#
# Indices 1 2 3 4 5 6 
#
# 1 18.2978 21.1487 28.4730 0.0000 0.0000 0.0000
# 2 21.1487 88.6443 73.2719 0.0000 0.0000 0.0000
# 3 28.4730 73.2719 93.2134 0.0000 0.0000 0.0000
# 4 0.0000 0.0000 0.0000 9.0494 0.0000 0.0000
# 5 0.0000 0.0000 0.0000 0.0000 15.4022 0.0000
# 6 0.0000 0.0000 0.0000 0.0000 0.0000 23.6554
#
#
#
# Elastic Compliance Matrix: (Units=1/GPa)
#
#
# Indices 1 2 3 4 5 6 
#
# 1 0.104696 0.004158 -0.035248 0.000000 0.000000 0.000000
# 2 0.004158 0.032374 -0.026718 0.000000 0.000000 0.000000
# 3 -0.035248 -0.026718 0.042497 0.000000 0.000000 0.000000
# 4 0.000000 0.000000 0.000000 0.110505 0.000000 0.000000
# 5 0.000000 0.000000 0.000000 0.000000 0.064926 0.000000
# 6 0.000000 0.000000 0.000000 0.000000 0.000000 0.042274
#
#
# Mechanical properties :
#
#
# Convention : Reuss Voigt Hill
#
# Bulk Modulus (GPa) = 15.63750 49.54921 32.59336
# Shear Modulus (GPa) = 9.35972 14.77218 12.06595
#
# Velocity S-wave (km/s) = 2.39835 3.01303 2.72309
# Velocity P-wave (km/s) = 4.15686 6.52343 5.46967
#
# Compressibility (1/GPa) = 0.06394884
#
# Stress axis : x y z
#
# Youngs Moduli (GPa) = 9.55151 30.88937 23.53106
#
# Poissons Ratio (x) = -0.12843 0.82943
# Poissons Ratio (y) = -0.03971 0.62870
# Poissons Ratio (z) = 0.33668 0.82530
#
# Static dielectric constant tensor:
#      x y z
#    x 1.552220 0.000000 0.000000 
#    y 0.000000 1.534000 0.000000 
#    z 0.000000 0.000000 1.563360 
# 
# From -- ./inp_files/63481.got.cif
#   From: 2010.05.17/outbox.cif.g08.bks.cpg/sg71_32_cif.got.tgz:63481.got - 2010.06.03 16:22:01.
