data_PCOD9519949
_publ_section_title
;
Structure prediction by ZEFSAII (Michael W. Deem and Ramdas Pophale) SiO2 
 PCOD9519949
Probable space group: I M M M
;
_chemical_formula_sum "Si O2"
_cell_formula_units_Z 88
_cell_length_a 7.858664
_cell_length_b 23.553886
_cell_length_c 22.829284
_cell_angle_alpha 90.000000
_cell_angle_beta 90.000000
_cell_angle_gamma 90.000000
_cell_volume 4225.747861
_symmetry_space_group_name_H-M "I M M M"
_symmetry_group_IT_number 71
_symmetry_cell_setting 'orthorhombic'
loop_
_space_group_symop_operation_xyz
x,y,z
-x,-y,z
x,-y,-z
-x,y,-z
-x,-y,-z
x,y,-z
-x,y,z
x,-y,z
1/2+x,1/2+y,1/2+z
1/2-x,1/2-y,1/2+z
1/2+x,1/2-y,1/2-z
1/2-x,1/2+y,1/2-z
1/2-x,1/2-y,1/2-z
1/2+x,1/2+y,1/2-z
1/2-x,1/2+y,1/2+z
1/2+x,1/2-y,1/2+z
loop_
_atom_site_type_symbol
_atom_site_label
_atom_site_fract_x
_atom_site_fract_y
_atom_site_fract_z
Si Si1 0.207512 0.933133 0.500000
Si Si2 0.206734 0.347791 0.661773
Si Si3 0.292925 0.062252 0.933544
Si Si4 0.300871 0.387545 0.126071
Si Si5 0.800888 0.437720 0.244760
Si Si6 0.193308 0.727786 0.814489
O O1 0.262245 0.901675 0.439659
O O2 0.000000 0.931844 0.500000
O O3 0.257380 0.000000 0.500000
O O4 0.257792 0.388821 0.609492
O O5 0.264436 0.382612 0.719874
O O6 0.287224 0.286792 0.651814
O O7 0.000000 0.340545 0.663813
O O8 0.500000 0.061989 0.933977
O O9 0.238447 0.000000 0.912926
O O10 0.236011 0.070149 0.000000
O O11 0.500000 0.401861 0.126890
O O12 0.215202 0.425805 0.176051
O O13 0.282406 0.323060 0.150342
O O14 0.726893 0.500000 0.258896
O O15 0.000000 0.440270 0.261006
O O16 0.250000 0.750000 0.750000
O O17 0.000000 0.708381 0.807875
#
# Coordination Sequence:
#
# PCOD9519949 Si02
#       6
#     8  16  16  16  16  16
#     4   9  20  40  65  93 123 155 196 249 304 359
#     4  10  19  33  55  82 115 151 190 236 285 342
#     4   8  14  27  50  81 114 147 185 228 272 323
#     4  11  22  39  63  88 116 154 198 245 296 351
#     4  10  20  33  53  84 119 152 188 235 292 351
#     4  12  24  40  60  83 114 151 192 240 293 352
#
# _framework density 20.824715999999999
#
# number of rings (size 3 to 8) (size 9 to 14) (size 15 to 20)
#    0.000    1.909    1.818    3.818    0.000    3.273 
#    1.636    1.818    0.000    4.909    0.000    1.273 
#    0.000    0.000    0.000    0.000    0.000    0.000 
#
# Total GULP energy -245428.578975 kJ/mol
# GULP energy per Si atom -5577.922249 kJ/mol
# Density = 2.077732 g / cm^3
# Si number density = 20.824716 Si / 1000 Ang^3
#
#
#
# Elastic Constant Matrix: (Units=GPa)
#
#
# Indices 1 2 3 4 5 6 
#
# 1 28.7092 -12.5895 -8.7380 0.0000 0.0000 0.0000
# 2 -12.5895 122.4548 49.6352 0.0000 0.0000 0.0000
# 3 -8.7380 49.6352 92.3892 0.0000 0.0000 0.0000
# 4 0.0000 0.0000 0.0000 -1.3430 0.0000 0.0000
# 5 0.0000 0.0000 0.0000 0.0000 17.0627 0.0000
# 6 0.0000 0.0000 0.0000 0.0000 0.0000 15.4543
#
#
#
# Elastic Compliance Matrix: (Units=1/GPa)
#
#
# Indices 1 2 3 4 5 6 
#
# 1 0.036721 0.003027 0.001847 0.000000 0.000000 0.000000
# 2 0.003027 0.010689 -0.005456 0.000000 0.000000 0.000000
# 3 0.001847 -0.005456 0.013930 0.000000 0.000000 0.000000
# 4 0.000000 0.000000 0.000000 -0.744589 0.000000 0.000000
# 5 0.000000 0.000000 0.000000 0.000000 0.058607 0.000000
# 6 0.000000 0.000000 0.000000 0.000000 0.000000 0.064707
#
#
# Mechanical properties :
#
#
# Convention : Reuss Voigt Hill
#
# Bulk Modulus (GPa) = 16.61823 33.35208 24.98516
# Shear Modulus (GPa) = -9.28141 20.58451 5.65155
#
# Velocity S-wave (km/s) = -2.11343 3.14740 1.64917
# Velocity P-wave (km/s) = 1.42896 5.40912 3.95604
#
# Compressibility (1/GPa) = 0.06017487
#
# Stress axis : x y z
#
# Youngs Moduli (GPa) = 27.23210 93.55332 71.78835
#
# Poissons Ratio (x) = -0.28315 -0.13259
# Poissons Ratio (y) = -0.08242 0.39170
# Poissons Ratio (z) = -0.05030 0.51046
#
# Static dielectric constant tensor:
#      x y z
#    x 1.782290 0.000000 0.000000 
#    y 0.000000 1.781880 0.000000 
#    z 0.000000 0.000000 1.769060 
# 
# From -- ./inp_files/50512.got.cif
#   From: 2010.05.17/outbox.cif.g08.bks.cpg/sg71_26_cif.got.tgz:50512.got - 2010.06.03 16:22:01.
