data_PCOD9519914
_publ_section_title
;
Structure prediction by ZEFSAII (Michael W. Deem and Ramdas Pophale) SiO2 
 PCOD9519914
Probable space group: I M M M
;
_chemical_formula_sum "Si O2"
_cell_formula_units_Z 50
_cell_length_a 31.151990
_cell_length_b 5.301055
_cell_length_c 14.489289
_cell_angle_alpha 90.000000
_cell_angle_beta 90.000000
_cell_angle_gamma 90.000000
_cell_volume 2392.738182
_symmetry_space_group_name_H-M "I M M M"
_symmetry_group_IT_number 71
_symmetry_cell_setting 'orthorhombic'
loop_
_space_group_symop_operation_xyz
x,y,z
-x,-y,z
x,-y,-z
-x,y,-z
-x,-y,-z
x,y,-z
-x,y,z
x,-y,z
1/2+x,1/2+y,1/2+z
1/2-x,1/2-y,1/2+z
1/2+x,1/2-y,1/2-z
1/2-x,1/2+y,1/2-z
1/2-x,1/2-y,1/2-z
1/2+x,1/2+y,1/2-z
1/2-x,1/2+y,1/2+z
1/2+x,1/2-y,1/2+z
loop_
_atom_site_type_symbol
_atom_site_label
_atom_site_fract_x
_atom_site_fract_y
_atom_site_fract_z
Si Si1 0.137492 0.500000 0.610476
Si Si2 0.064316 0.000000 0.173979
Si Si3 0.662462 0.500000 0.387884
Si Si4 0.312717 0.500000 0.886829
Si Si5 0.047734 0.500000 0.293040
Si Si6 0.785792 0.500000 0.112459
Si Si7 0.500000 0.500000 0.500000
O O1 0.140065 0.500000 0.500000
O O2 0.161905 0.249231 0.643054
O O3 0.088060 0.500000 0.639109
O O4 0.114836 0.000000 0.152296
O O5 0.052494 0.749280 0.230591
O O6 0.037218 0.000000 0.080540
O O7 0.659121 0.500000 0.500000
O O8 0.688709 0.250823 0.360543
O O9 0.263427 0.500000 0.855612
O O10 0.312148 0.500000 0.000000
O O11 0.000000 0.500000 0.335419
O O12 0.784345 0.500000 0.000000
#
# Coordination Sequence:
#
# PCOD9519914 Si02
#       7
#     8   8   8   8   8   8   2
#     4  10  21  38  64  91 120 158 204 245 299 362
#     4  12  25  42  64  90 126 158 206 253 300 358
#     4  10  19  33  54  85 117 157 197 249 298 354
#     4   9  17  33  59  91 118 154 203 251 288 358
#     4  12  25  43  62  90 123 160 197 254 312 354
#     4   9  17  30  54  86 120 150 199 249 295 345
#     4  12  24  46  68  94 118 174 208 254 284 370
#
# _framework density 20.896561999999999
#
# number of rings (size 3 to 8) (size 9 to 14) (size 15 to 20)
#    0.000    1.600    2.400    2.880    0.000    5.440 
#    0.000    0.000    0.000   24.000    0.000    0.000 
#    0.000    0.000    0.000    0.000    0.000    0.000 
#
# Total GULP energy -139623.558261 kJ/mol
# GULP energy per Si atom -5584.942330 kJ/mol
# Density = 2.084900 g / cm^3
# Si number density = 20.896562 Si / 1000 Ang^3
#
#
#
# Elastic Constant Matrix: (Units=GPa)
#
#
# Indices 1 2 3 4 5 6 
#
# 1 255.0072 100.5255 21.6691 0.0000 0.0000 0.0000
# 2 100.5255 202.5904 19.6217 0.0000 0.0000 0.0000
# 3 21.6691 19.6217 48.0096 0.0000 0.0000 0.0000
# 4 0.0000 0.0000 0.0000 -9.8768 0.0000 0.0000
# 5 0.0000 0.0000 0.0000 0.0000 29.1567 0.0000
# 6 0.0000 0.0000 0.0000 0.0000 0.0000 32.6612
#
#
#
# Elastic Compliance Matrix: (Units=1/GPa)
#
#
# Indices 1 2 3 4 5 6 
#
# 1 0.004950 -0.002332 -0.001281 0.000000 0.000000 0.000000
# 2 -0.002332 0.006238 -0.001497 0.000000 0.000000 0.000000
# 3 -0.001281 -0.001497 0.022019 0.000000 0.000000 0.000000
# 4 0.000000 0.000000 0.000000 -0.101247 0.000000 0.000000
# 5 0.000000 0.000000 0.000000 0.000000 0.034297 0.000000
# 6 0.000000 0.000000 0.000000 0.000000 0.000000 0.030617
#
#
# Mechanical properties :
#
#
# Convention : Reuss Voigt Hill
#
# Bulk Modulus (GPa) = 43.50264 87.69330 65.59797
# Shear Modulus (GPa) = 338.83580 34.64094 186.73837
#
# Velocity S-wave (km/s) = 12.74759 4.07595 9.46347
# Velocity P-wave (km/s) = 15.41205 8.01297 12.28289
#
# Compressibility (1/GPa) = 0.02298711
#
# Stress axis : x y z
#
# Youngs Moduli (GPa) = 202.03831 160.30375 45.41501
#
# Poissons Ratio (x) = 0.37381 0.05817
# Poissons Ratio (y) = 0.47114 0.06799
# Poissons Ratio (z) = 0.25879 0.23998
#
# Static dielectric constant tensor:
#      x y z
#    x 1.708060 0.000000 0.000000 
#    y 0.000000 1.715960 0.000000 
#    z 0.000000 0.000000 1.755960 
# 
# From -- ./inp_files/30500.got.cif
#   From: 2010.05.17/outbox.cif.g08.bks.cpg/sg71_16_cif.got.tgz:30500.got - 2010.06.03 16:22:01.
