data_PCOD9519530
_publ_section_title
;
Structure prediction by ZEFSAII (Michael W. Deem and Ramdas Pophale) SiO2 
 PCOD9519530
Probable space group: I M M M
;
_chemical_formula_sum "Si O2"
_cell_formula_units_Z 88
_cell_length_a 8.913469
_cell_length_b 29.924325
_cell_length_c 17.950321
_cell_angle_alpha 90.000000
_cell_angle_beta 90.000000
_cell_angle_gamma 90.000000
_cell_volume 4787.880921
_symmetry_space_group_name_H-M "I M M M"
_symmetry_group_IT_number 71
_symmetry_cell_setting 'orthorhombic'
loop_
_space_group_symop_operation_xyz
x,y,z
-x,-y,z
x,-y,-z
-x,y,-z
-x,-y,-z
x,y,-z
-x,y,z
x,-y,z
1/2+x,1/2+y,1/2+z
1/2-x,1/2-y,1/2+z
1/2+x,1/2-y,1/2-z
1/2-x,1/2+y,1/2-z
1/2-x,1/2-y,1/2-z
1/2+x,1/2+y,1/2-z
1/2-x,1/2+y,1/2+z
1/2+x,1/2-y,1/2+z
loop_
_atom_site_type_symbol
_atom_site_label
_atom_site_fract_x
_atom_site_fract_y
_atom_site_fract_z
Si Si1 0.319251 0.123395 0.086865
Si Si2 0.678786 0.309394 0.911278
Si Si3 0.327279 0.283754 0.409365
Si Si4 0.824963 0.053466 0.500000
Si Si5 0.180203 0.399134 0.858372
Si Si6 0.182661 0.551138 0.293584
O O1 0.500000 0.127329 0.091101
O O2 0.248524 0.169909 0.114366
O O3 0.270793 0.081698 0.136957
O O4 0.279533 0.116964 0.000000
O O5 0.500000 0.311287 0.903698
O O6 0.739454 0.260945 0.887402
O O7 0.755862 0.349310 0.866554
O O8 0.714196 0.315299 0.000000
O O9 0.323755 0.284363 0.500000
O O10 0.500000 0.281500 0.385703
O O11 0.745191 0.073187 0.572452
O O12 0.000000 0.067120 0.500000
O O13 0.816469 0.000000 0.500000
O O14 0.225833 0.423793 0.782350
O O15 0.000000 0.397919 0.862064
O O16 0.236028 0.500000 0.296188
O O17 0.000000 0.549687 0.294477
#
# Coordination Sequence:
#
# PCOD9519530 Si02
#       6
#    16  16  16   8  16  16
#     4   9  17  32  56  83 109 139 177 220 270 325
#     4  10  19  32  52  78 110 143 179 223 269 317
#     4   9  17  30  51  79 110 141 177 219 266 320
#     4  11  23  37  53  75 105 141 185 233 274 317
#     4  11  21  34  54  78 107 143 184 225 270 322
#     4   9  19  35  54  79 110 141 177 225 275 322
#
# _framework density 18.379738
#
# number of rings (size 3 to 8) (size 9 to 14) (size 15 to 20)
#    0.000    2.273    0.909    2.455    0.000    4.727 
#    0.000    4.545    0.000    2.727    0.000    2.545 
#    0.000    0.000    0.000    0.000    0.000    0.000 
#
# Total GULP energy -245585.905649 kJ/mol
# GULP energy per Si atom -5581.497856 kJ/mol
# Density = 1.833790 g / cm^3
# Si number density = 18.379738 Si / 1000 Ang^3
#
#
#
# Elastic Constant Matrix: (Units=GPa)
#
#
# Indices 1 2 3 4 5 6 
#
# 1 54.3505 57.7013 36.4107 0.0000 0.0000 0.0000
# 2 57.7013 198.1304 82.3516 0.0000 0.0000 0.0000
# 3 36.4107 82.3516 78.0567 0.0000 0.0000 0.0000
# 4 0.0000 0.0000 0.0000 34.8759 0.0000 0.0000
# 5 0.0000 0.0000 0.0000 0.0000 6.2134 0.0000
# 6 0.0000 0.0000 0.0000 0.0000 0.0000 28.2776
#
#
#
# Elastic Compliance Matrix: (Units=1/GPa)
#
#
# Indices 1 2 3 4 5 6 
#
# 1 0.029392 -0.005096 -0.008334 0.000000 0.000000 0.000000
# 2 -0.005096 0.009872 -0.008039 0.000000 0.000000 0.000000
# 3 -0.008334 -0.008039 0.025180 0.000000 0.000000 0.000000
# 4 0.000000 0.000000 0.000000 0.028673 0.000000 0.000000
# 5 0.000000 0.000000 0.000000 0.000000 0.160942 0.000000
# 6 0.000000 0.000000 0.000000 0.000000 0.000000 0.035364
#
#
# Mechanical properties :
#
#
# Convention : Reuss Voigt Hill
#
# Bulk Modulus (GPa) = 46.49622 75.94053 61.21837
# Shear Modulus (GPa) = 14.72626 24.14500 19.43563
#
# Velocity S-wave (km/s) = 2.83366 3.62840 3.25537
# Velocity P-wave (km/s) = 6.00488 7.67860 6.89273
#
# Compressibility (1/GPa) = 0.02150712
#
# Stress axis : x y z
#
# Youngs Moduli (GPa) = 34.02237 101.29224 39.71442
#
# Poissons Ratio (x) = 0.51617 0.33099
# Poissons Ratio (y) = 0.17337 0.31925
# Poissons Ratio (z) = 0.28355 0.81425
#
# Static dielectric constant tensor:
#      x y z
#    x 1.618210 0.000000 0.000000 
#    y 0.000000 1.620670 0.000000 
#    z 0.000000 0.000000 1.625150 
# 
# From -- ./inp_files/42463.got.cif
#   From: 2010.05.17/outbox.cif.g08.bks.cpg/sg71_22_cif.got.tgz:42463.got - 2010.06.03 16:22:01.
