data_PCOD9519565
_publ_section_title
;
Structure prediction by ZEFSAII (Michael W. Deem and Ramdas Pophale) SiO2 
 PCOD9519565
Probable space group: I M M M
;
_chemical_formula_sum "Si O2"
_cell_formula_units_Z 72
_cell_length_a 19.646584
_cell_length_b 23.502736
_cell_length_c 7.488593
_cell_angle_alpha 90.000000
_cell_angle_beta 90.000000
_cell_angle_gamma 90.000000
_cell_volume 3457.846413
_symmetry_space_group_name_H-M "I M M M"
_symmetry_group_IT_number 71
_symmetry_cell_setting 'orthorhombic'
loop_
_space_group_symop_operation_xyz
x,y,z
-x,-y,z
x,-y,-z
-x,y,-z
-x,-y,-z
x,y,-z
-x,y,z
x,-y,z
1/2+x,1/2+y,1/2+z
1/2-x,1/2-y,1/2+z
1/2+x,1/2-y,1/2-z
1/2-x,1/2+y,1/2-z
1/2-x,1/2-y,1/2-z
1/2+x,1/2+y,1/2-z
1/2-x,1/2+y,1/2+z
1/2+x,1/2-y,1/2+z
loop_
_atom_site_type_symbol
_atom_site_label
_atom_site_fract_x
_atom_site_fract_y
_atom_site_fract_z
Si Si1 0.921780 0.000000 0.718128
Si Si2 0.175642 0.436050 0.785360
Si Si3 0.576776 0.167504 0.786883
Si Si4 0.325634 0.396639 0.781543
Si Si5 0.827528 0.231740 0.285942
O O1 0.880139 0.056067 0.774080
O O2 0.921887 0.000000 0.500000
O O3 0.000000 0.000000 0.776464
O O4 0.162123 0.500000 0.720162
O O5 0.118130 0.390490 0.741380
O O6 0.249826 0.414784 0.723438
O O7 0.179593 0.438447 0.000000
O O8 0.500000 0.165419 0.716109
O O9 0.621326 0.220223 0.715503
O O10 0.572334 0.175289 0.000000
O O11 0.339994 0.332406 0.720948
O O12 0.325435 0.396507 0.000000
O O13 0.835142 0.230054 0.500000
O O14 0.750000 0.250000 0.250000
#
# Coordination Sequence:
#
# PCOD9519565 Si02
#       5
#     8  16  16  16  16
#     4   9  16  26  44  74 108 135 160 200 259 313
#     4  10  19  33  55  78 102 133 173 216 256 302
#     4  10  22  37  51  74 108 138 168 212 262 309
#     4   9  16  28  47  73 102 131 165 208 251 296
#     4  10  19  32  53  76 101 134 172 210 251 300
#
# _framework density 20.822209999999998
#
# number of rings (size 3 to 8) (size 9 to 14) (size 15 to 20)
#    0.000    2.333    3.333    0.000    0.000    2.222 
#    0.000    6.667    0.000    0.000    0.000    0.000 
#    0.000    4.444    0.000    0.000    0.000    0.000 
#
# Total GULP energy -201078.296696 kJ/mol
# GULP energy per Si atom -5585.508242 kJ/mol
# Density = 2.077482 g / cm^3
# Si number density = 20.822210 Si / 1000 Ang^3
#
#
#
# Elastic Constant Matrix: (Units=GPa)
#
#
# Indices 1 2 3 4 5 6 
#
# 1 218.1722 140.5667 3.3522 0.0000 0.0000 0.0000
# 2 140.5667 253.6036 5.7442 0.0000 0.0000 0.0000
# 3 3.3522 5.7442 58.4823 0.0000 0.0000 0.0000
# 4 0.0000 0.0000 0.0000 12.1553 0.0000 0.0000
# 5 0.0000 0.0000 0.0000 0.0000 11.4465 0.0000
# 6 0.0000 0.0000 0.0000 0.0000 0.0000 32.4399
#
#
#
# Elastic Compliance Matrix: (Units=1/GPa)
#
#
# Indices 1 2 3 4 5 6 
#
# 1 0.007130 -0.003951 -0.000021 0.000000 0.000000 0.000000
# 2 -0.003951 0.006142 -0.000377 0.000000 0.000000 0.000000
# 3 -0.000021 -0.000377 0.017137 0.000000 0.000000 0.000000
# 4 0.000000 0.000000 0.000000 0.082268 0.000000 0.000000
# 5 0.000000 0.000000 0.000000 0.000000 0.087363 0.000000
# 6 0.000000 0.000000 0.000000 0.000000 0.000000 0.030826
#
#
# Mechanical properties :
#
#
# Convention : Reuss Voigt Hill
#
# Bulk Modulus (GPa) = 46.05847 92.17603 69.11725
# Shear Modulus (GPa) = 20.25924 36.58136 28.42030
#
# Velocity S-wave (km/s) = 3.12262 4.19602 3.69847
# Velocity P-wave (km/s) = 5.93034 8.23648 7.17665
#
# Compressibility (1/GPa) = 0.02171153
#
# Stress axis : x y z
#
# Youngs Moduli (GPa) = 140.25878 162.81762 58.35196
#
# Poissons Ratio (x) = 0.64335 0.00120
# Poissons Ratio (y) = 0.55421 0.02198
# Poissons Ratio (z) = 0.00288 0.06134
#
# Static dielectric constant tensor:
#      x y z
#    x 1.699520 0.000000 0.000000 
#    y 0.000000 1.732880 0.000000 
#    z 0.000000 0.000000 1.832220 
# 
# From -- ./inp_files/7924.got.cif
#   From: 2010.05.17/outbox.cif.g08.bks.cpg/sg71_4_cif.got.tgz:7924.got - 2010.06.03 16:22:01.
