data_PCOD9519789
_publ_section_title
;
Structure prediction by ZEFSAII (Michael W. Deem and Ramdas Pophale) SiO2 
 PCOD9519789
Probable space group: I M M M
;
_chemical_formula_sum "Si O2"
_cell_formula_units_Z 104
_cell_length_a 9.177599
_cell_length_b 33.432295
_cell_length_c 20.207283
_cell_angle_alpha 90.000000
_cell_angle_beta 90.000000
_cell_angle_gamma 90.000000
_cell_volume 6200.164212
_symmetry_space_group_name_H-M "I M M M"
_symmetry_group_IT_number 71
_symmetry_cell_setting 'orthorhombic'
loop_
_space_group_symop_operation_xyz
x,y,z
-x,-y,z
x,-y,-z
-x,y,-z
-x,-y,-z
x,y,-z
-x,y,z
x,-y,z
1/2+x,1/2+y,1/2+z
1/2-x,1/2-y,1/2+z
1/2+x,1/2-y,1/2-z
1/2-x,1/2+y,1/2-z
1/2-x,1/2-y,1/2-z
1/2+x,1/2+y,1/2-z
1/2-x,1/2+y,1/2+z
1/2+x,1/2-y,1/2+z
loop_
_atom_site_type_symbol
_atom_site_label
_atom_site_fract_x
_atom_site_fract_y
_atom_site_fract_z
Si Si1 0.174808 0.796016 0.077543
Si Si2 0.828129 0.854377 0.304953
Si Si3 0.172954 0.124564 0.847983
Si Si4 0.672407 0.500000 0.078415
Si Si5 0.674328 0.955236 0.183638
Si Si6 0.673071 0.066722 0.663210
Si Si7 0.325775 0.262153 0.818762
O O1 0.216166 0.840812 0.101005
O O2 0.258484 0.764389 0.122975
O O3 0.000000 0.792146 0.089028
O O4 0.203178 0.790445 0.000000
O O5 0.799492 0.858015 0.225960
O O6 0.732377 0.888227 0.339365
O O7 0.798865 0.809457 0.328229
O O8 0.000000 0.863029 0.314477
O O9 0.252641 0.082114 0.852952
O O10 0.000000 0.117964 0.853854
O O11 0.500000 0.500000 0.091712
O O12 0.745731 0.461583 0.111987
O O13 0.695420 0.500000 0.000000
O O14 0.500000 0.953150 0.175574
O O15 0.704446 0.948948 0.262065
O O16 0.723049 0.000000 0.164549
O O17 0.500000 0.064930 0.653547
O O18 0.500000 0.256306 0.813877
O O19 0.250000 0.250000 0.750000
#
# Coordination Sequence:
#
# PCOD9519789 Si02
#       7
#    16  16  16   8  16  16  16
#     4  10  21  38  57  79 112 149 185 228 277 328
#     4   9  18  33  52  77 107 137 173 220 270 322
#     4   9  17  31  50  76 105 137 177 215 261 316
#     4  11  23  37  53  73 101 141 182 217 262 321
#     4   9  17  30  48  75 107 132 162 211 267 313
#     4  10  19  33  52  76 103 133 171 218 267 315
#     4  11  21  35  57  83 113 145 185 231 277 330
#
# _framework density 16.773748999999999
#
# number of rings (size 3 to 8) (size 9 to 14) (size 15 to 20)
#    0.000    2.231    2.308    1.154    0.000    3.692 
#    0.000    0.769    0.000    1.385    0.000    3.231 
#    0.000    0.000    0.000    0.000    0.000    0.000 
#
# Total GULP energy -290081.392449 kJ/mol
# GULP energy per Si atom -5578.488316 kJ/mol
# Density = 1.673557 g / cm^3
# Si number density = 16.773749 Si / 1000 Ang^3
#
#
#
# Elastic Constant Matrix: (Units=GPa)
#
#
# Indices 1 2 3 4 5 6 
#
# 1 54.8429 67.1280 53.4463 0.0000 0.0000 0.0000
# 2 67.1280 154.8787 63.0362 0.0000 0.0000 0.0000
# 3 53.4463 63.0362 76.5925 0.0000 0.0000 0.0000
# 4 0.0000 0.0000 0.0000 21.7467 0.0000 0.0000
# 5 0.0000 0.0000 0.0000 0.0000 20.2229 0.0000
# 6 0.0000 0.0000 0.0000 0.0000 0.0000 36.1837
#
#
#
# Elastic Compliance Matrix: (Units=1/GPa)
#
#
# Indices 1 2 3 4 5 6 
#
# 1 0.080980 -0.018194 -0.041534 0.000000 0.000000 0.000000
# 2 -0.018194 0.013797 0.001341 0.000000 0.000000 0.000000
# 3 -0.041534 0.001341 0.040935 0.000000 0.000000 0.000000
# 4 0.000000 0.000000 0.000000 0.045984 0.000000 0.000000
# 5 0.000000 0.000000 0.000000 0.000000 0.049449 0.000000
# 6 0.000000 0.000000 0.000000 0.000000 0.000000 0.027637
#
#
# Mechanical properties :
#
#
# Convention : Reuss Voigt Hill
#
# Bulk Modulus (GPa) = 52.80542 72.61501 62.71021
# Shear Modulus (GPa) = 13.09357 22.47757 17.78557
#
# Velocity S-wave (km/s) = 2.79695 3.66463 3.25979
# Velocity P-wave (km/s) = 6.47919 7.82885 7.18578
#
# Compressibility (1/GPa) = 0.01893745
#
# Stress axis : x y z
#
# Youngs Moduli (GPa) = 12.34875 72.48208 24.42916
#
# Poissons Ratio (x) = 1.31874 1.01464
# Poissons Ratio (y) = 0.22467 -0.03276
# Poissons Ratio (z) = 0.51289 -0.09721
#
# Static dielectric constant tensor:
#      x y z
#    x 1.558580 0.000000 0.000000 
#    y 0.000000 1.566100 0.000000 
#    z 0.000000 0.000000 1.543610 
# 
# From -- ./inp_files/51127.got.cif
#   From: 2010.05.17/outbox.cif.g08.bks.cpg/sg71_26_cif.got.tgz:51127.got - 2010.06.03 16:22:01.
