data_PCOD9519936
_publ_section_title
;
Structure prediction by ZEFSAII (Michael W. Deem and Ramdas Pophale) SiO2 
 PCOD9519936
Probable space group: I M M M
;
_chemical_formula_sum "Si O2"
_cell_formula_units_Z 88
_cell_length_a 24.049769
_cell_length_b 7.417351
_cell_length_c 21.905030
_cell_angle_alpha 90.000000
_cell_angle_beta 90.000000
_cell_angle_gamma 90.000000
_cell_volume 3907.541441
_symmetry_space_group_name_H-M "I M M M"
_symmetry_group_IT_number 71
_symmetry_cell_setting 'orthorhombic'
loop_
_space_group_symop_operation_xyz
x,y,z
-x,-y,z
x,-y,-z
-x,y,-z
-x,-y,-z
x,y,-z
-x,y,z
x,-y,z
1/2+x,1/2+y,1/2+z
1/2-x,1/2-y,1/2+z
1/2+x,1/2-y,1/2-z
1/2-x,1/2+y,1/2-z
1/2-x,1/2-y,1/2-z
1/2+x,1/2+y,1/2-z
1/2-x,1/2+y,1/2+z
1/2+x,1/2-y,1/2+z
loop_
_atom_site_type_symbol
_atom_site_label
_atom_site_fract_x
_atom_site_fract_y
_atom_site_fract_z
Si Si1 0.846776 0.800494 0.154961
Si Si2 0.373363 0.717355 0.880734
Si Si3 0.059282 0.285364 0.071961
Si Si4 0.937134 0.779734 0.500000
Si Si5 0.250414 0.212748 0.071667
Si Si6 0.065350 0.779550 0.256202
O O1 0.889485 0.813962 0.099467
O O2 0.794124 0.711529 0.121044
O O3 0.888616 0.719548 0.205898
O O4 0.829617 0.000000 0.178052
O O5 0.374268 0.500000 0.878746
O O6 0.310045 0.768233 0.895769
O O7 0.406230 0.775166 0.820204
O O8 0.406816 0.781081 0.939526
O O9 0.064675 0.500000 0.082464
O O10 0.000000 0.226079 0.098571
O O11 0.057812 0.259033 0.000000
O O12 0.000000 0.722256 0.500000
O O13 0.935808 0.000000 0.500000
O O14 0.237647 0.000000 0.066942
O O15 0.250304 0.280248 0.000000
O O16 0.000000 0.722175 0.250285
O O17 0.063831 0.000000 0.252926
#
# Coordination Sequence:
#
# PCOD9519936 Si02
#       6
#    16  16  16   8  16  16
#     4  10  20  34  53  76 103 142 184 215 255 313
#     4  10  19  33  55  81 105 135 176 218 266 323
#     4   9  18  32  49  72 103 136 173 223 277 317
#     4   9  16  28  51  81 105 127 166 219 266 311
#     4  10  21  36  52  73 107 144 178 221 266 307
#     4   9  18  33  54  81 110 135 168 222 274 313
#
# _framework density 22.520554000000001
#
# number of rings (size 3 to 8) (size 9 to 14) (size 15 to 20)
#    0.000    2.455    0.909    2.182    0.000    5.818 
#    0.000    1.818    0.000    3.818    0.000    0.000 
#    0.000    0.000    0.000    0.000    0.000    0.000 
#
# Total GULP energy -245207.345146 kJ/mol
# GULP energy per Si atom -5572.894208 kJ/mol
# Density = 2.246930 g / cm^3
# Si number density = 22.520554 Si / 1000 Ang^3
#
#
#
# Elastic Constant Matrix: (Units=GPa)
#
#
# Indices 1 2 3 4 5 6 
#
# 1 224.7213 4.6259 107.3027 0.0000 0.0000 0.0000
# 2 4.6259 61.2856 15.0807 0.0000 0.0000 0.0000
# 3 107.3027 15.0807 157.9908 0.0000 0.0000 0.0000
# 4 0.0000 0.0000 0.0000 346.3997 0.0000 0.0000
# 5 0.0000 0.0000 0.0000 0.0000 31.8412 0.0000
# 6 0.0000 0.0000 0.0000 0.0000 0.0000 15.8094
#
#
#
# Elastic Compliance Matrix: (Units=1/GPa)
#
#
# Indices 1 2 3 4 5 6 
#
# 1 0.006609 0.000620 -0.004548 0.000000 0.000000 0.000000
# 2 0.000620 0.016768 -0.002022 0.000000 0.000000 0.000000
# 3 -0.004548 -0.002022 0.009611 0.000000 0.000000 0.000000
# 4 0.000000 0.000000 0.000000 0.002887 0.000000 0.000000
# 5 0.000000 0.000000 0.000000 0.000000 0.031406 0.000000
# 6 0.000000 0.000000 0.000000 0.000000 0.000000 0.063253
#
#
# Mechanical properties :
#
#
# Convention : Reuss Voigt Hill
#
# Bulk Modulus (GPa) = 47.41779 77.55737 62.48758
# Shear Modulus (GPa) = 33.45342 99.94262 66.69802
#
# Velocity S-wave (km/s) = 3.85835 6.66894 5.44801
# Velocity P-wave (km/s) = 6.39923 9.68571 8.20863
#
# Compressibility (1/GPa) = 0.02108913
#
# Stress axis : x y z
#
# Youngs Moduli (GPa) = 151.31732 59.63840 104.04687
#
# Poissons Ratio (x) = -0.03699 0.47316
# Poissons Ratio (y) = -0.09385 0.21036
# Poissons Ratio (z) = 0.68813 0.12057
#
# Static dielectric constant tensor:
#      x y z
#    x 1.855800 0.000000 0.000000 
#    y 0.000000 1.901350 0.000000 
#    z 0.000000 0.000000 1.852980 
# 
# From -- ./inp_files/10422.got.cif
#   From: 2010.05.17/outbox.cif.g08.bks.cpg/sg71_6_cif.got.tgz:10422.got - 2010.06.03 16:22:01.
