data_PCOD9519462
_publ_section_title
;
Structure prediction by ZEFSAII (Michael W. Deem and Ramdas Pophale) SiO2 
 PCOD9519462
Probable space group: I M M M
;
_chemical_formula_sum "Si O2"
_cell_formula_units_Z 96
_cell_length_a 30.883564
_cell_length_b 19.805749
_cell_length_c 7.640222
_cell_angle_alpha 90.000000
_cell_angle_beta 90.000000
_cell_angle_gamma 90.000000
_cell_volume 4673.310764
_symmetry_space_group_name_H-M "I M M M"
_symmetry_group_IT_number 71
_symmetry_cell_setting 'orthorhombic'
loop_
_space_group_symop_operation_xyz
x,y,z
-x,-y,z
x,-y,-z
-x,y,-z
-x,-y,-z
x,y,-z
-x,y,z
x,-y,z
1/2+x,1/2+y,1/2+z
1/2-x,1/2-y,1/2+z
1/2+x,1/2-y,1/2-z
1/2-x,1/2+y,1/2-z
1/2-x,1/2-y,1/2-z
1/2+x,1/2+y,1/2-z
1/2-x,1/2+y,1/2+z
1/2+x,1/2-y,1/2+z
loop_
_atom_site_type_symbol
_atom_site_label
_atom_site_fract_x
_atom_site_fract_y
_atom_site_fract_z
Si Si1 0.548771 0.922384 0.789798
Si Si2 0.049552 0.927447 0.786393
Si Si3 0.130194 0.674268 0.210690
Si Si4 0.117331 0.175000 0.209841
Si Si5 0.728875 0.823928 0.289179
Si Si6 0.697204 0.423034 0.789065
O O1 0.500000 0.900196 0.729402
O O2 0.590417 0.876209 0.748239
O O3 0.555128 0.000000 0.728419
O O4 0.546725 0.924211 0.000000
O O5 0.076333 0.865102 0.719963
O O6 0.000000 0.924884 0.732312
O O7 0.068565 0.000000 0.733217
O O8 0.050111 0.926324 0.000000
O O9 0.120280 0.749560 0.278191
O O10 0.179714 0.662823 0.273340
O O11 0.132960 0.676081 0.000000
O O12 0.157918 0.126718 0.244078
O O13 0.113366 0.180647 0.000000
O O14 0.727904 0.826916 0.500000
O O15 0.750000 0.750000 0.250000
O O16 0.760290 0.883386 0.225222
O O17 0.692558 0.500000 0.723789
O O18 0.699381 0.426610 0.000000
#
# Coordination Sequence:
#
# PCOD9519462 Si02
#       6
#    16  16  16  16  16  16
#     4   9  20  40  62  83 111 148 189 232 280 338
#     4   8  14  25  42  65  94 129 166 205 252 300
#     4  10  21  34  54  85 113 140 180 227 280 336
#     4  10  19  32  51  77 105 135 175 221 266 316
#     4  10  20  36  55  77 108 146 184 227 278 332
#     4  10  21  35  52  75 104 142 182 219 268 327
#
# _framework density 20.542183000000001
#
# number of rings (size 3 to 8) (size 9 to 14) (size 15 to 20)
#    0.000    2.500    1.667    1.500    0.000    4.333 
#    0.000    4.167    0.000    0.500    0.000    2.333 
#    0.000    0.000    0.000    0.000    0.000    0.000 
#
# Total GULP energy -267568.759439 kJ/mol
# GULP energy per Si atom -5574.349155 kJ/mol
# Density = 2.049543 g / cm^3
# Si number density = 20.542183 Si / 1000 Ang^3
#
#
#
# Elastic Constant Matrix: (Units=GPa)
#
#
# Indices 1 2 3 4 5 6 
#
# 1 156.0419 90.2239 -4.2070 0.0000 0.0000 0.0000
# 2 90.2239 143.3978 -2.5333 0.0000 0.0000 0.0000
# 3 -4.2070 -2.5333 38.1346 0.0000 0.0000 0.0000
# 4 0.0000 0.0000 0.0000 -12.6369 0.0000 0.0000
# 5 0.0000 0.0000 0.0000 0.0000 20.9220 0.0000
# 6 0.0000 0.0000 0.0000 0.0000 0.0000 43.7604
#
#
#
# Elastic Compliance Matrix: (Units=1/GPa)
#
#
# Indices 1 2 3 4 5 6 
#
# 1 0.010091 -0.006337 0.000692 0.000000 0.000000 0.000000
# 2 -0.006337 0.010961 0.000029 0.000000 0.000000 0.000000
# 3 0.000692 0.000029 0.026301 0.000000 0.000000 0.000000
# 4 0.000000 0.000000 0.000000 -0.079133 0.000000 0.000000
# 5 0.000000 0.000000 0.000000 0.000000 0.047797 0.000000
# 6 0.000000 0.000000 0.000000 0.000000 0.000000 0.022852
#
#
# Mechanical properties :
#
#
# Convention : Reuss Voigt Hill
#
# Bulk Modulus (GPa) = 27.68364 56.06016 41.87190
# Shear Modulus (GPa) = 80.46151 27.34846 53.90499
#
# Velocity S-wave (km/s) = 6.26530 3.65270 5.12817
# Velocity P-wave (km/s) = 8.11445 6.71857 7.44928
#
# Compressibility (1/GPa) = 0.03612242
#
# Stress axis : x y z
#
# Youngs Moduli (GPa) = 99.09494 91.22976 38.02104
#
# Poissons Ratio (x) = 0.57813 -0.02632
# Poissons Ratio (y) = 0.62797 -0.00111
# Poissons Ratio (z) = -0.06860 -0.00265
#
# Static dielectric constant tensor:
#      x y z
#    x 1.748170 0.000000 0.000000 
#    y 0.000000 1.729370 0.000000 
#    z 0.000000 0.000000 1.770180 
# 
# From -- ./inp_files/14878.got.cif
#   From: 2010.05.17/outbox.cif.g08.bks.cpg/sg71_8_cif.got.tgz:14878.got - 2010.06.03 16:22:01.
