data_PCOD9519022
_publ_section_title
;
Structure prediction by ZEFSAII (Michael W. Deem and Ramdas Pophale) SiO2 
 PCOD9519022
Probable space group: I M M M
;
_chemical_formula_sum "Si O2"
_cell_formula_units_Z 128
_cell_length_a 22.820062
_cell_length_b 18.470008
_cell_length_c 19.812457
_cell_angle_alpha 90.000000
_cell_angle_beta 90.000000
_cell_angle_gamma 90.000000
_cell_volume 8350.687669
_symmetry_space_group_name_H-M "I M M M"
_symmetry_group_IT_number 71
_symmetry_cell_setting 'orthorhombic'
loop_
_space_group_symop_operation_xyz
x,y,z
-x,-y,z
x,-y,-z
-x,y,-z
-x,-y,-z
x,y,-z
-x,y,z
x,-y,z
1/2+x,1/2+y,1/2+z
1/2-x,1/2-y,1/2+z
1/2+x,1/2-y,1/2-z
1/2-x,1/2+y,1/2-z
1/2-x,1/2-y,1/2-z
1/2+x,1/2+y,1/2-z
1/2-x,1/2+y,1/2+z
1/2+x,1/2-y,1/2+z
loop_
_atom_site_type_symbol
_atom_site_label
_atom_site_fract_x
_atom_site_fract_y
_atom_site_fract_z
Si Si1 0.569510 0.840746 0.921023
Si Si2 0.734159 0.285932 0.574504
Si Si3 0.296598 0.584087 0.157365
Si Si4 0.640800 0.704187 0.077405
Si Si5 0.565419 0.086586 0.340005
Si Si6 0.871105 0.414854 0.297912
Si Si7 0.750106 0.831697 0.781019
Si Si8 0.820430 0.370087 0.077841
O O1 0.500000 0.849048 0.915624
O O2 0.589639 0.759141 0.902123
O O3 0.601810 0.894429 0.870041
O O4 0.586242 0.851207 0.000000
O O5 0.728062 0.320048 0.500000
O O6 0.799966 0.252943 0.579317
O O7 0.726184 0.330682 0.642563
O O8 0.692932 0.215540 0.577764
O O9 0.311212 0.500000 0.158406
O O10 0.344670 0.634262 0.121114
O O11 0.286170 0.617690 0.230869
O O12 0.234481 0.594690 0.117543
O O13 0.631579 0.681985 0.000000
O O14 0.500000 0.114397 0.355138
O O15 0.582503 0.099441 0.261909
O O16 0.618381 0.115175 0.385689
O O17 0.564705 0.000000 0.349326
O O18 0.855132 0.500000 0.294875
O O19 0.815113 0.364626 0.283888
O O20 0.750000 0.750000 0.750000
O O21 0.820708 0.394960 0.000000
#
# Coordination Sequence:
#
# PCOD9519022 Si02
#       8
#    16  16  16  16  16  16  16  16
#     4  10  20  34  52  71  92 124 168 209 240 283
#     4   9  17  30  48  67  90 118 155 199 240 282
#     4  11  20  30  47  74  98 120 152 198 247 294
#     4   9  17  31  48  69  94 123 157 194 242 293
#     4  10  20  32  43  58  88 129 164 191 225 273
#     4  11  21  33  47  67  97 130 164 205 247 283
#     4  12  18  30  51  71  93 127 163 200 242 290
#     4  10  19  31  47  68  91 119 155 196 241 285
#
# _framework density 15.328079000000001
#
# number of rings (size 3 to 8) (size 9 to 14) (size 15 to 20)
#    0.000    1.750    5.000    2.250    0.000    3.000 
#    0.000    1.250    0.000    1.500    0.000    1.750 
#    0.000    0.000    0.000    0.000    0.000    0.125 
#
# Total GULP energy -356767.888058 kJ/mol
# GULP energy per Si atom -5574.498251 kJ/mol
# Density = 1.529319 g / cm^3
# Si number density = 15.328079 Si / 1000 Ang^3
#
#
#
# Elastic Constant Matrix: (Units=GPa)
#
#
# Indices 1 2 3 4 5 6 
#
# 1 36.7167 15.3841 6.5017 0.0000 0.0000 0.0000
# 2 15.3841 50.5323 31.8966 0.0000 0.0000 0.0000
# 3 6.5017 31.8966 94.2800 0.0000 0.0000 0.0000
# 4 0.0000 0.0000 0.0000 16.6315 0.0000 0.0000
# 5 0.0000 0.0000 0.0000 0.0000 17.5215 0.0000
# 6 0.0000 0.0000 0.0000 0.0000 0.0000 16.1580
#
#
#
# Elastic Compliance Matrix: (Units=1/GPa)
#
#
# Indices 1 2 3 4 5 6 
#
# 1 0.031354 -0.010402 0.001357 0.000000 0.000000 0.000000
# 2 -0.010402 0.028614 -0.008963 0.000000 0.000000 0.000000
# 3 0.001357 -0.008963 0.013546 0.000000 0.000000 0.000000
# 4 0.000000 0.000000 0.000000 0.060127 0.000000 0.000000
# 5 0.000000 0.000000 0.000000 0.000000 0.057073 0.000000
# 6 0.000000 0.000000 0.000000 0.000000 0.000000 0.061889
#
#
# Mechanical properties :
#
#
# Convention : Reuss Voigt Hill
#
# Bulk Modulus (GPa) = 26.66903 32.12154 29.39529
# Shear Modulus (GPa) = 16.60487 18.57863 17.59175
#
# Velocity S-wave (km/s) = 3.29492 3.48525 3.39142
# Velocity P-wave (km/s) = 5.64906 6.09897 5.87832
#
# Compressibility (1/GPa) = 0.03749667
#
# Stress axis : x y z
#
# Youngs Moduli (GPa) = 31.89425 34.94818 73.82495
#
# Poissons Ratio (x) = 0.36352 -0.10017
# Poissons Ratio (y) = 0.33176 0.66171
# Poissons Ratio (z) = -0.04328 0.31325
#
# Static dielectric constant tensor:
#      x y z
#    x 1.499910 0.000000 0.000000 
#    y 0.000000 1.500910 0.000000 
#    z 0.000000 0.000000 1.549070 
# 
# From -- ./inp_files/48430.got.cif
#   From: 2010.05.17/outbox.cif.g08.bks.cpg/sg71_25_cif.got.tgz:48430.got - 2010.06.03 16:22:01.
