data_PCOD9519240
_publ_section_title
;
Structure prediction by ZEFSAII (Michael W. Deem and Ramdas Pophale) SiO2 
 PCOD9519240
Probable space group: I M M M
;
_chemical_formula_sum "Si O2"
_cell_formula_units_Z 64
_cell_length_a 8.033899
_cell_length_b 10.673684
_cell_length_c 36.863000
_cell_angle_alpha 90.000000
_cell_angle_beta 90.000000
_cell_angle_gamma 90.000000
_cell_volume 3161.050143
_symmetry_space_group_name_H-M "I M M M"
_symmetry_group_IT_number 71
_symmetry_cell_setting 'orthorhombic'
loop_
_space_group_symop_operation_xyz
x,y,z
-x,-y,z
x,-y,-z
-x,y,-z
-x,-y,-z
x,y,-z
-x,y,z
x,-y,z
1/2+x,1/2+y,1/2+z
1/2-x,1/2-y,1/2+z
1/2+x,1/2-y,1/2-z
1/2-x,1/2+y,1/2-z
1/2-x,1/2-y,1/2-z
1/2+x,1/2+y,1/2-z
1/2-x,1/2+y,1/2+z
1/2+x,1/2-y,1/2+z
loop_
_atom_site_type_symbol
_atom_site_label
_atom_site_fract_x
_atom_site_fract_y
_atom_site_fract_z
Si Si1 0.301761 0.500000 0.833305
Si Si2 0.701128 0.000000 0.916423
Si Si3 0.703596 0.249531 0.958124
Si Si4 0.201164 0.000000 0.167478
Si Si5 0.801752 0.751139 0.791858
Si Si6 0.203837 0.000000 0.416222
O O1 0.500000 0.500000 0.835423
O O2 0.250422 0.375445 0.812023
O O3 0.237430 0.500000 0.874645
O O4 0.758828 0.874866 0.937020
O O5 0.752157 0.000000 0.874610
O O6 0.500000 0.000000 0.917810
O O7 0.500000 0.249063 0.958146
O O8 0.756486 0.374941 0.937282
O O9 0.756637 0.249213 0.000000
O O10 0.264059 0.874654 0.187492
O O11 0.000000 0.000000 0.169832
O O12 0.750000 0.750000 0.750000
O O13 0.000000 0.757506 0.792961
O O14 0.000000 0.000000 0.415982
#
# Coordination Sequence:
#
# PCOD9519240 Si02
#       6
#     8   8  16   8  16   8
#     4  11  22  37  57  85 119 150 185 230 279 338
#     4  10  19  31  51  78 105 137 178 223 273 327
#     4   9  16  27  45  72 105 138 175 222 272 319
#     4  10  23  40  57  80 112 147 184 228 277 332
#     4  11  23  40  61  85 112 146 188 233 284 336
#     4   9  17  28  45  71 104 142 179 217 267 325
#
# _framework density 20.246435000000002
#
# number of rings (size 3 to 8) (size 9 to 14) (size 15 to 20)
#    0.000    2.000    0.000    4.125    0.000    8.000 
#    0.000    0.000    0.000    1.500    0.000    0.000 
#    0.000   10.000    0.000    0.000    0.000    0.000 
#
# Total GULP energy -178846.013575 kJ/mol
# GULP energy per Si atom -5588.937924 kJ/mol
# Density = 2.020035 g / cm^3
# Si number density = 20.246435 Si / 1000 Ang^3
#
#
#
# Elastic Constant Matrix: (Units=GPa)
#
#
# Indices 1 2 3 4 5 6 
#
# 1 21.4726 17.7961 11.9237 0.0000 0.0000 0.0000
# 2 17.7961 260.7256 162.3337 0.0000 0.0000 0.0000
# 3 11.9237 162.3337 252.1826 0.0000 0.0000 0.0000
# 4 0.0000 0.0000 0.0000 47.8982 0.0000 0.0000
# 5 0.0000 0.0000 0.0000 0.0000 22.4805 0.0000
# 6 0.0000 0.0000 0.0000 0.0000 0.0000 -2.6163
#
#
#
# Elastic Compliance Matrix: (Units=1/GPa)
#
#
# Indices 1 2 3 4 5 6 
#
# 1 0.049375 -0.003199 -0.000276 0.000000 0.000000 0.000000
# 2 -0.003199 0.006608 -0.004102 0.000000 0.000000 0.000000
# 3 -0.000276 -0.004102 0.006619 0.000000 0.000000 0.000000
# 4 0.000000 0.000000 0.000000 0.020878 0.000000 0.000000
# 5 0.000000 0.000000 0.000000 0.000000 0.044483 0.000000
# 6 0.000000 0.000000 0.000000 0.000000 0.000000 -0.382214
#
#
# Mechanical properties :
#
#
# Convention : Reuss Voigt Hill
#
# Bulk Modulus (GPa) = 21.07523 102.05421 61.56472
# Shear Modulus (GPa) = -22.39330 36.37428 6.99049
#
# Velocity S-wave (km/s) = -3.32932 4.24320 1.86016
# Velocity P-wave (km/s) = 2.08500 8.63260 5.92345
#
# Compressibility (1/GPa) = 0.04744906
#
# Stress axis : x y z
#
# Youngs Moduli (GPa) = 20.25316 151.33018 151.07479
#
# Poissons Ratio (x) = 0.48404 0.04164
# Poissons Ratio (y) = 0.06478 0.61978
# Poissons Ratio (z) = 0.00558 0.62083
#
# Static dielectric constant tensor:
#      x y z
#    x 1.742880 0.000000 0.000000 
#    y 0.000000 1.693640 0.000000 
#    z 0.000000 0.000000 1.700510 
# 
# From -- ./inp_files/67733.got.cif
#   From: 2010.05.17/outbox.cif.g08.bks.cpg/sg71_34_cif.got.tgz:67733.got - 2010.06.03 16:22:01.
