data_PCOD9519264
_publ_section_title
;
Structure prediction by ZEFSAII (Michael W. Deem and Ramdas Pophale) SiO2 
 PCOD9519264
Probable space group: I M M M
;
_chemical_formula_sum "Si O2"
_cell_formula_units_Z 88
_cell_length_a 29.675438
_cell_length_b 9.110710
_cell_length_c 17.837685
_cell_angle_alpha 90.000000
_cell_angle_beta 90.000000
_cell_angle_gamma 90.000000
_cell_volume 4822.673392
_symmetry_space_group_name_H-M "I M M M"
_symmetry_group_IT_number 71
_symmetry_cell_setting 'orthorhombic'
loop_
_space_group_symop_operation_xyz
x,y,z
-x,-y,z
x,-y,-z
-x,y,-z
-x,-y,-z
x,y,-z
-x,y,z
x,-y,z
1/2+x,1/2+y,1/2+z
1/2-x,1/2-y,1/2+z
1/2+x,1/2-y,1/2-z
1/2-x,1/2+y,1/2-z
1/2-x,1/2-y,1/2-z
1/2+x,1/2+y,1/2-z
1/2-x,1/2+y,1/2+z
1/2+x,1/2-y,1/2+z
loop_
_atom_site_type_symbol
_atom_site_label
_atom_site_fract_x
_atom_site_fract_y
_atom_site_fract_z
Si Si1 0.192108 0.826577 0.409838
Si Si2 0.602520 0.824286 0.138942
Si Si3 0.716471 0.669029 0.408828
Si Si4 0.947646 0.323888 0.205948
Si Si5 0.053942 0.828517 0.500000
Si Si6 0.616190 0.677162 0.587309
O O1 0.187026 0.800638 0.500000
O O2 0.152610 0.740332 0.368161
O O3 0.241282 0.767711 0.386940
O O4 0.188305 0.000000 0.397180
O O5 0.578628 0.788782 0.217391
O O6 0.603386 0.000000 0.129636
O O7 0.574034 0.750751 0.072505
O O8 0.715141 0.667621 0.500000
O O9 0.723251 0.500000 0.384820
O O10 0.666620 0.720387 0.385670
O O11 0.946112 0.500000 0.196369
O O12 0.921936 0.247209 0.138033
O O13 0.000000 0.279984 0.210905
O O14 0.000000 0.819892 0.500000
O O15 0.067505 0.000000 0.500000
O O16 0.611218 0.719179 0.500000
O O17 0.614579 0.500000 0.590859
#
# Coordination Sequence:
#
# PCOD9519264 Si02
#       6
#    16  16  16  16   8  16
#     4  10  19  31  51  82 117 147 184 232 277 325
#     4  11  22  37  57  79 109 151 194 232 277 333
#     4   8  15  30  53  80 111 145 182 222 271 330
#     4  10  23  41  58  80 111 146 187 235 284 335
#     4  11  23  37  55  81 111 143 187 241 288 331
#     4   9  19  37  61  88 114 143 183 230 279 338
#
# _framework density 18.247142
#
# number of rings (size 3 to 8) (size 9 to 14) (size 15 to 20)
#    0.000    2.273    0.909    3.000    0.000    5.455 
#    0.000    4.545    0.000    0.000    0.000    0.000 
#    0.000    0.000    0.000    0.000    0.000    0.000 
#
# Total GULP energy -245615.129458 kJ/mol
# GULP energy per Si atom -5582.162033 kJ/mol
# Density = 1.820561 g / cm^3
# Si number density = 18.247142 Si / 1000 Ang^3
#
#
#
# Elastic Constant Matrix: (Units=GPa)
#
#
# Indices 1 2 3 4 5 6 
#
# 1 152.3869 61.3759 75.1146 0.0000 0.0000 0.0000
# 2 61.3759 57.8751 49.6452 0.0000 0.0000 0.0000
# 3 75.1146 49.6452 87.8828 0.0000 0.0000 0.0000
# 4 0.0000 0.0000 0.0000 16.3681 0.0000 0.0000
# 5 0.0000 0.0000 0.0000 0.0000 33.7984 0.0000
# 6 0.0000 0.0000 0.0000 0.0000 0.0000 36.2793
#
#
#
# Elastic Compliance Matrix: (Units=1/GPa)
#
#
# Indices 1 2 3 4 5 6 
#
# 1 0.013131 -0.008339 -0.006513 0.000000 0.000000 0.000000
# 2 -0.008339 0.038818 -0.014801 0.000000 0.000000 0.000000
# 3 -0.006513 -0.014801 0.025307 0.000000 0.000000 0.000000
# 4 0.000000 0.000000 0.000000 0.061094 0.000000 0.000000
# 5 0.000000 0.000000 0.000000 0.000000 0.029587 0.000000
# 6 0.000000 0.000000 0.000000 0.000000 0.000000 0.027564
#
#
# Mechanical properties :
#
#
# Convention : Reuss Voigt Hill
#
# Bulk Modulus (GPa) = 55.70908 74.49069 65.09989
# Shear Modulus (GPa) = 19.17247 24.75642 21.96445
#
# Velocity S-wave (km/s) = 3.24498 3.68738 3.47323
# Velocity P-wave (km/s) = 6.68105 7.68380 7.19991
#
# Compressibility (1/GPa) = 0.01795039
#
# Stress axis : x y z
#
# Youngs Moduli (GPa) = 76.15555 25.76103 39.51537
#
# Poissons Ratio (x) = 0.21481 0.25735
# Poissons Ratio (y) = 0.63504 0.58488
# Poissons Ratio (z) = 0.49598 0.38130
#
# Static dielectric constant tensor:
#      x y z
#    x 1.625780 0.000000 0.000000 
#    y 0.000000 1.605450 0.000000 
#    z 0.000000 0.000000 1.609710 
# 
# From -- ./inp_files/49248.got.cif
#   From: 2010.05.17/outbox.cif.g08.bks.cpg/sg71_25_cif.got.tgz:49248.got - 2010.06.03 16:22:01.
