data_PCOD9519414
_publ_section_title
;
Structure prediction by ZEFSAII (Michael W. Deem and Ramdas Pophale) SiO2 
 PCOD9519414
Probable space group: I M M M
;
_chemical_formula_sum "Si O2"
_cell_formula_units_Z 88
_cell_length_a 20.648578
_cell_length_b 13.659091
_cell_length_c 17.966343
_cell_angle_alpha 90.000000
_cell_angle_beta 90.000000
_cell_angle_gamma 90.000000
_cell_volume 5067.241859
_symmetry_space_group_name_H-M "I M M M"
_symmetry_group_IT_number 71
_symmetry_cell_setting 'orthorhombic'
loop_
_space_group_symop_operation_xyz
x,y,z
-x,-y,z
x,-y,-z
-x,y,-z
-x,-y,-z
x,y,-z
-x,y,z
x,-y,z
1/2+x,1/2+y,1/2+z
1/2-x,1/2-y,1/2+z
1/2+x,1/2-y,1/2-z
1/2-x,1/2+y,1/2-z
1/2-x,1/2-y,1/2-z
1/2+x,1/2+y,1/2-z
1/2-x,1/2+y,1/2+z
1/2+x,1/2-y,1/2+z
loop_
_atom_site_type_symbol
_atom_site_label
_atom_site_fract_x
_atom_site_fract_y
_atom_site_fract_z
Si Si1 0.574729 0.000000 0.910984
Si Si2 0.424735 0.784541 0.868398
Si Si3 0.139729 0.731448 0.781911
Si Si4 0.331923 0.612348 0.917106
Si Si5 0.577896 0.113168 0.413018
Si Si6 0.734052 0.387242 0.240457
O O1 0.601102 0.894320 0.885825
O O2 0.500000 0.000000 0.883430
O O3 0.574973 0.000000 0.000000
O O4 0.500000 0.780932 0.890554
O O5 0.415764 0.767074 0.780308
O O6 0.384881 0.697555 0.907348
O O7 0.113853 0.685972 0.857691
O O8 0.197480 0.664342 0.748856
O O9 0.176275 0.835109 0.785442
O O10 0.357866 0.500000 0.911040
O O11 0.283693 0.623890 0.847475
O O12 0.302759 0.620746 0.000000
O O13 0.593110 0.129318 0.500000
O O14 0.500000 0.121961 0.404738
O O15 0.595046 0.000000 0.394600
O O16 0.738056 0.500000 0.258755
#
# Coordination Sequence:
#
# PCOD9519414 Si02
#       6
#     8  16  16  16  16  16
#     4   9  18  30  42  62  95 129 157 191 229 272
#     4  10  20  31  47  73  99 129 165 197 238 293
#     4  10  19  32  51  73  96 131 164 200 244 296
#     4   9  18  33  51  71  98 129 163 204 244 284
#     4   9  18  31  49  76 105 127 152 197 254 304
#     4   9  19  33  49  72  98 128 166 207 244 282
#
# _framework density 17.36645
#
# number of rings (size 3 to 8) (size 9 to 14) (size 15 to 20)
#    0.000    2.636    0.000    2.182    2.545    2.182 
#    0.000    2.727    0.000    2.182    0.000    1.273 
#    0.000    0.000    0.000    0.000    0.000    0.000 
#
# Total GULP energy -245102.520843 kJ/mol
# GULP energy per Si atom -5570.511837 kJ/mol
# Density = 1.732692 g / cm^3
# Si number density = 17.366450 Si / 1000 Ang^3
#
#
#
# Elastic Constant Matrix: (Units=GPa)
#
#
# Indices 1 2 3 4 5 6 
#
# 1 19.8081 5.6951 -1.9250 0.0000 0.0000 0.0000
# 2 5.6951 79.0006 -0.9593 0.0000 0.0000 0.0000
# 3 -1.9250 -0.9593 45.9604 0.0000 0.0000 0.0000
# 4 0.0000 0.0000 0.0000 26.3508 0.0000 0.0000
# 5 0.0000 0.0000 0.0000 0.0000 10.5425 0.0000
# 6 0.0000 0.0000 0.0000 0.0000 0.0000 17.5522
#
#
#
# Elastic Compliance Matrix: (Units=1/GPa)
#
#
# Indices 1 2 3 4 5 6 
#
# 1 0.051753 -0.003705 0.002090 0.000000 0.000000 0.000000
# 2 -0.003705 0.012927 0.000115 0.000000 0.000000 0.000000
# 3 0.002090 0.000115 0.021848 0.000000 0.000000 0.000000
# 4 0.000000 0.000000 0.000000 0.037950 0.000000 0.000000
# 5 0.000000 0.000000 0.000000 0.000000 0.094854 0.000000
# 6 0.000000 0.000000 0.000000 0.000000 0.000000 0.056973
#
#
# Mechanical properties :
#
#
# Convention : Reuss Voigt Hill
#
# Bulk Modulus (GPa) = 11.97230 16.71008 14.34119
# Shear Modulus (GPa) = 16.27886 20.35299 18.31592
#
# Velocity S-wave (km/s) = 3.06498 3.42712 3.25110
# Velocity P-wave (km/s) = 4.40844 5.03022 4.72956
#
# Compressibility (1/GPa) = 0.08352612
#
# Stress axis : x y z
#
# Youngs Moduli (GPa) = 19.32262 77.35953 45.77121
#
# Poissons Ratio (x) = 0.28665 -0.09567
# Poissons Ratio (y) = 0.07160 -0.00525
# Poissons Ratio (z) = -0.04039 -0.00887
#
# Static dielectric constant tensor:
#      x y z
#    x 1.583550 0.000000 0.000000 
#    y 0.000000 1.611290 0.000000 
#    z 0.000000 0.000000 1.592140 
# 
# From -- ./inp_files/43365.got.cif
#   From: 2010.05.17/outbox.cif.g08.bks.cpg/sg71_22_cif.got.tgz:43365.got - 2010.06.03 16:22:01.
