data_PCOD9519673
_publ_section_title
;
Structure prediction by ZEFSAII (Michael W. Deem and Ramdas Pophale) SiO2 
 PCOD9519673
Probable space group: I M M M
;
_chemical_formula_sum "Si O2"
_cell_formula_units_Z 88
_cell_length_a 20.877977
_cell_length_b 9.056795
_cell_length_c 26.180902
_cell_angle_alpha 90.000000
_cell_angle_beta 90.000000
_cell_angle_gamma 90.000000
_cell_volume 4950.482818
_symmetry_space_group_name_H-M "I M M M"
_symmetry_group_IT_number 71
_symmetry_cell_setting 'orthorhombic'
loop_
_space_group_symop_operation_xyz
x,y,z
-x,-y,z
x,-y,-z
-x,y,-z
-x,-y,-z
x,y,-z
-x,y,z
x,-y,z
1/2+x,1/2+y,1/2+z
1/2-x,1/2-y,1/2+z
1/2+x,1/2-y,1/2-z
1/2-x,1/2+y,1/2-z
1/2-x,1/2-y,1/2-z
1/2+x,1/2+y,1/2-z
1/2-x,1/2+y,1/2+z
1/2+x,1/2-y,1/2+z
loop_
_atom_site_type_symbol
_atom_site_label
_atom_site_fract_x
_atom_site_fract_y
_atom_site_fract_z
Si Si1 0.774453 0.822337 0.000000
Si Si2 0.318755 0.173108 0.692632
Si Si3 0.665977 0.325164 0.798880
Si Si4 0.000000 0.331869 0.938863
Si Si5 0.630713 0.676182 0.407832
Si Si6 0.635072 0.678863 0.000000
Si Si7 0.073521 0.820347 0.608104
O O1 0.816308 0.781834 0.950313
O O2 0.706389 0.743181 0.000000
O O3 0.765565 0.000000 0.000000
O O4 0.343033 0.234287 0.746923
O O5 0.241561 0.189951 0.689175
O O6 0.348196 0.265751 0.646940
O O7 0.333467 0.000000 0.687605
O O8 0.653900 0.500000 0.789772
O O9 0.621354 0.275942 0.846065
O O10 0.063396 0.248308 0.921663
O O11 0.000000 0.500000 0.919583
O O12 0.000000 0.335301 0.000000
O O13 0.625188 0.500000 0.408593
O O14 0.599186 0.724986 0.052191
O O15 0.637847 0.500000 0.000000
O O16 0.000000 0.772359 0.615987
O O17 0.073640 0.000000 0.608051
#
# Coordination Sequence:
#
# PCOD9519673 Si02
#       7
#     8  16  16   8  16   8  16
#     4  10  22  36  54  81 113 145 180 223 268 323
#     4  10  20  35  56  82 110 141 184 238 286 330
#     4   9  18  34  55  79 109 147 188 230 282 339
#     4  11  23  39  59  83 113 147 183 226 277 328
#     4  11  22  38  58  81 111 148 187 225 273 335
#     4  10  19  32  55  85 112 141 179 225 274 326
#     4   9  17  31  53  81 111 142 181 227 273 327
#
# _framework density 17.776043000000001
#
# number of rings (size 3 to 8) (size 9 to 14) (size 15 to 20)
#    0.000    2.091    0.909    2.727    0.000    5.091 
#    1.636    0.909    0.000    2.182    0.000    0.000 
#    0.000    0.000    0.000    0.000    0.000    0.000 
#
# Total GULP energy -245585.614087 kJ/mol
# GULP energy per Si atom -5581.491229 kJ/mol
# Density = 1.773558 g / cm^3
# Si number density = 17.776043 Si / 1000 Ang^3
#
#
#
# Elastic Constant Matrix: (Units=GPa)
#
#
# Indices 1 2 3 4 5 6 
#
# 1 107.2713 39.0794 71.9018 0.0000 0.0000 0.0000
# 2 39.0794 49.1631 41.6979 0.0000 0.0000 0.0000
# 3 71.9018 41.6979 140.1365 0.0000 0.0000 0.0000
# 4 0.0000 0.0000 0.0000 9.0799 0.0000 0.0000
# 5 0.0000 0.0000 0.0000 0.0000 0.3703 0.0000
# 6 0.0000 0.0000 0.0000 0.0000 0.0000 168.3847
#
#
#
# Elastic Compliance Matrix: (Units=1/GPa)
#
#
# Indices 1 2 3 4 5 6 
#
# 1 0.016163 -0.007777 -0.005979 0.000000 0.000000 0.000000
# 2 -0.007777 0.030948 -0.005219 0.000000 0.000000 0.000000
# 3 -0.005979 -0.005219 0.011756 0.000000 0.000000 0.000000
# 4 0.000000 0.000000 0.000000 0.110134 0.000000 0.000000
# 5 0.000000 0.000000 0.000000 0.000000 2.700385 0.000000
# 6 0.000000 0.000000 0.000000 0.000000 0.000000 0.005939
#
#
# Mechanical properties :
#
#
# Convention : Reuss Voigt Hill
#
# Bulk Modulus (GPa) = 47.80331 66.88101 57.34216
# Shear Modulus (GPa) = 1.71218 45.15977 23.43598
#
# Velocity S-wave (km/s) = 0.98249 5.04579 3.63492
# Velocity P-wave (km/s) = 5.31389 8.46479 7.06718
#
# Compressibility (1/GPa) = 0.02091905
#
# Stress axis : x y z
#
# Youngs Moduli (GPa) = 61.87072 32.31202 85.06010
#
# Poissons Ratio (x) = 0.25128 0.50857
# Poissons Ratio (y) = 0.48114 0.44390
# Poissons Ratio (z) = 0.36992 0.16863
#
# Static dielectric constant tensor:
#      x y z
#    x 1.578350 0.000000 0.000000 
#    y 0.000000 1.589180 0.000000 
#    z 0.000000 0.000000 1.591650 
# 
# From -- ./inp_files/61158.got.cif
#   From: 2010.05.17/outbox.cif.g08.bks.cpg/sg71_31_cif.got.tgz:61158.got - 2010.06.03 16:22:01.
