data_PCOD9519867
_publ_section_title
;
Structure prediction by ZEFSAII (Michael W. Deem and Ramdas Pophale) SiO2 
 PCOD9519867
Probable space group: I M M M
;
_chemical_formula_sum "Si O2"
_cell_formula_units_Z 88
_cell_length_a 13.058448
_cell_length_b 21.500708
_cell_length_c 12.849247
_cell_angle_alpha 90.000000
_cell_angle_beta 90.000000
_cell_angle_gamma 90.000000
_cell_volume 3607.630108
_symmetry_space_group_name_H-M "I M M M"
_symmetry_group_IT_number 71
_symmetry_cell_setting 'orthorhombic'
loop_
_space_group_symop_operation_xyz
x,y,z
-x,-y,z
x,-y,-z
-x,y,-z
-x,-y,-z
x,y,-z
-x,y,z
x,-y,z
1/2+x,1/2+y,1/2+z
1/2-x,1/2-y,1/2+z
1/2+x,1/2-y,1/2-z
1/2-x,1/2+y,1/2-z
1/2-x,1/2-y,1/2-z
1/2+x,1/2+y,1/2-z
1/2-x,1/2+y,1/2+z
1/2+x,1/2-y,1/2+z
loop_
_atom_site_type_symbol
_atom_site_label
_atom_site_fract_x
_atom_site_fract_y
_atom_site_fract_z
Si Si1 0.386187 0.848333 0.296353
Si Si2 0.385599 0.571417 0.661124
Si Si3 0.375576 0.244703 0.118402
Si Si4 0.333082 0.925902 0.109775
Si Si5 0.625830 0.925570 0.500000
Si Si6 0.376430 0.389911 0.887433
O O1 0.500000 0.826418 0.327155
O O2 0.341439 0.793817 0.220734
O O3 0.390088 0.901752 0.209433
O O4 0.343440 0.884277 0.397864
O O5 0.500000 0.599347 0.646683
O O6 0.393419 0.500000 0.626881
O O7 0.284188 0.599005 0.610879
O O8 0.356267 0.572738 0.783122
O O9 0.500000 0.239382 0.117489
O O10 0.349148 0.317495 0.128452
O O11 0.340942 0.226895 0.000000
O O12 0.327204 0.000000 0.114722
O O13 0.381794 0.908681 0.000000
O O14 0.500000 0.926310 0.500000
O O15 0.653244 0.000000 0.500000
O O16 0.500000 0.390257 0.893120
O O17 0.341060 0.413782 0.000000
#
# Coordination Sequence:
#
# PCOD9519867 Si02
#       6
#    16  16  16  16   8  16
#     4  10  19  33  54  77 105 139 173 209 252 308
#     4   9  18  33  52  74 103 138 174 214 262 315
#     4   8  14  26  48  77 105 136 171 209 257 307
#     4  10  21  35  51  75 105 134 172 220 261 303
#     4   9  18  32  50  72 101 141 180 208 245 301
#     4   8  14  27  49  76 105 135 170 214 261 310
#
# _framework density 24.392745000000001
#
# number of rings (size 3 to 8) (size 9 to 14) (size 15 to 20)
#    0.000    3.000    0.000    2.182    0.000    2.909 
#    1.636    5.455    2.000    0.000    0.000    0.000 
#    0.000    0.000    0.000    0.000    0.000    0.000 
#
# Total GULP energy -245188.080331 kJ/mol
# GULP energy per Si atom -5572.456371 kJ/mol
# Density = 2.433723 g / cm^3
# Si number density = 24.392745 Si / 1000 Ang^3
#
#
#
# Elastic Constant Matrix: (Units=GPa)
#
#
# Indices 1 2 3 4 5 6 
#
# 1 92.3720 15.5751 31.8774 0.0000 0.0001 0.0000
# 2 15.5751 79.4942 38.8782 0.0002 -0.0011 0.0000
# 3 31.8774 38.8782 198.8389 0.0002 -0.0018 0.0000
# 4 0.0000 0.0002 0.0002 17.6763 -0.0017 0.0000
# 5 0.0001 -0.0011 -0.0018 -0.0017 610.6359 0.0000
# 6 0.0000 0.0000 0.0000 0.0000 0.0000 22.6477
#
#
#
# Elastic Compliance Matrix: (Units=1/GPa)
#
#
# Indices 1 2 3 4 5 6 
#
# 1 0.011621 -0.001510 -0.001568 0.000000 0.000000 0.000000
# 2 -0.001510 0.014106 -0.002516 0.000000 0.000000 0.000000
# 3 -0.001568 -0.002516 0.005772 0.000000 0.000000 0.000000
# 4 0.000000 0.000000 0.000000 0.056573 0.000000 0.000000
# 5 0.000000 0.000000 0.000000 0.000000 0.001638 0.000000
# 6 0.000000 0.000000 0.000000 0.000000 0.000000 0.044155
#
#
# Mechanical properties :
#
#
# Convention : Reuss Voigt Hill
#
# Bulk Modulus (GPa) = 49.23226 60.37406 54.80316
# Shear Modulus (GPa) = 32.93295 149.15027 91.04161
#
# Velocity S-wave (km/s) = 3.67837 7.82803 6.11590
# Velocity P-wave (km/s) = 6.18608 10.32030 8.50812
#
# Compressibility (1/GPa) = 0.02031188
#
# Stress axis : x y z
#
# Youngs Moduli (GPa) = 86.04754 70.89236 173.23560
#
# Poissons Ratio (x) = 0.10706 0.27161
# Poissons Ratio (y) = 0.12995 0.43585
# Poissons Ratio (z) = 0.13491 0.17836
#
# Static dielectric constant tensor:
#      x y z
#    x 2.065200 0.000000 0.000000 
#    y 0.000000 1.915110 0.000000 
#    z 0.000000 0.000000 1.981540 
# 
# From -- ./inp_files/21995.got.cif
#   From: 2010.05.17/outbox.cif.g08.bks.cpg/sg71_11_cif.got.tgz:21995.got - 2010.06.03 16:22:01.
