data_PCOD9519828
_publ_section_title
;
Structure prediction by ZEFSAII (Michael W. Deem and Ramdas Pophale) SiO2 
 PCOD9519828
Probable space group: I M M M
;
_chemical_formula_sum "Si O2"
_cell_formula_units_Z 72
_cell_length_a 22.083667
_cell_length_b 16.729570
_cell_length_c 8.602572
_cell_angle_alpha 90.000000
_cell_angle_beta 90.000000
_cell_angle_gamma 90.000000
_cell_volume 3178.222401
_symmetry_space_group_name_H-M "I M M M"
_symmetry_group_IT_number 71
_symmetry_cell_setting 'orthorhombic'
loop_
_space_group_symop_operation_xyz
x,y,z
-x,-y,z
x,-y,-z
-x,y,-z
-x,-y,-z
x,y,-z
-x,y,z
x,-y,z
1/2+x,1/2+y,1/2+z
1/2-x,1/2-y,1/2+z
1/2+x,1/2-y,1/2-z
1/2-x,1/2+y,1/2-z
1/2-x,1/2-y,1/2-z
1/2+x,1/2+y,1/2-z
1/2-x,1/2+y,1/2+z
1/2+x,1/2-y,1/2+z
loop_
_atom_site_type_symbol
_atom_site_label
_atom_site_fract_x
_atom_site_fract_y
_atom_site_fract_z
Si Si1 0.737017 0.500000 0.323271
Si Si2 0.265689 0.333896 0.174159
Si Si3 0.429817 0.833197 0.674369
Si Si4 0.411403 0.667068 0.176879
Si Si5 0.427003 0.094710 0.000000
Si Si6 0.089154 0.000000 0.180156
O O1 0.756600 0.500000 0.500000
O O2 0.756597 0.583606 0.248903
O O3 0.663151 0.500000 0.316729
O O4 0.250000 0.250000 0.250000
O O5 0.338543 0.336808 0.174266
O O6 0.242812 0.331643 0.000000
O O7 0.404771 0.849695 0.500000
O O8 0.500000 0.860087 0.669696
O O9 0.428849 0.738307 0.708105
O O10 0.403043 0.869809 0.835380
O O11 0.431375 0.580416 0.235151
O O12 0.431392 0.684082 0.000000
O O13 0.500000 0.110975 0.000000
O O14 0.418161 0.000000 0.000000
O O15 0.071645 0.000000 0.000000
#
# Coordination Sequence:
#
# PCOD9519828 Si02
#       6
#     8  16  16  16   8   8
#     4   9  17  31  51  74 102 133 172 218 259 308
#     4  10  20  33  53  78 104 137 176 216 263 314
#     4  10  20  34  55  81 108 140 176 217 265 315
#     4  10  19  33  53  76 106 140 176 215 259 312
#     4   9  18  34  56  79 105 137 175 220 266 316
#     4   9  17  29  48  76 103 135 177 216 252 302
#
# _framework density 22.654171999999999
#
# number of rings (size 3 to 8) (size 9 to 14) (size 15 to 20)
#    0.000    2.333    1.111    2.000    0.000    5.778 
#    0.000    2.778    2.444    3.333    0.000    0.000 
#    0.000    0.000    0.000    0.000    0.000    0.000 
#
# Total GULP energy -201047.487748 kJ/mol
# GULP energy per Si atom -5584.652437 kJ/mol
# Density = 2.260261 g / cm^3
# Si number density = 22.654172 Si / 1000 Ang^3
#
#
#
# Elastic Constant Matrix: (Units=GPa)
#
#
# Indices 1 2 3 4 5 6 
#
# 1 60.6937 9.1449 10.9459 0.0000 0.0000 0.0000
# 2 9.1449 177.3061 109.0325 0.0000 0.0000 0.0000
# 3 10.9459 109.0325 230.9741 0.0000 0.0000 0.0000
# 4 0.0000 0.0000 0.0000 39.2914 0.0000 0.0000
# 5 0.0000 0.0000 0.0000 0.0000 5.9064 0.0000
# 6 0.0000 0.0000 0.0000 0.0000 0.0000 -21.9649
#
#
#
# Elastic Compliance Matrix: (Units=1/GPa)
#
#
# Indices 1 2 3 4 5 6 
#
# 1 0.016653 -0.000526 -0.000541 0.000000 0.000000 0.000000
# 2 -0.000526 0.007963 -0.003734 0.000000 0.000000 0.000000
# 3 -0.000541 -0.003734 0.006118 0.000000 0.000000 0.000000
# 4 0.000000 0.000000 0.000000 0.025451 0.000000 0.000000
# 5 0.000000 0.000000 0.000000 0.000000 0.169308 0.000000
# 6 0.000000 0.000000 0.000000 0.000000 0.000000 -0.045527
#
#
# Mechanical properties :
#
#
# Convention : Reuss Voigt Hill
#
# Bulk Modulus (GPa) = 47.32240 80.80228 64.06234
# Shear Modulus (GPa) = 25.43077 27.30329 26.36703
#
# Velocity S-wave (km/s) = 3.35410 3.47540 3.41529
# Velocity P-wave (km/s) = 5.99453 7.20067 6.62511
#
# Compressibility (1/GPa) = 0.02113164
#
# Stress axis : x y z
#
# Youngs Moduli (GPa) = 60.04918 125.57376 163.45533
#
# Poissons Ratio (x) = 0.06611 0.08838
# Poissons Ratio (y) = 0.03161 0.61038
# Poissons Ratio (z) = 0.03247 0.46892
#
# Static dielectric constant tensor:
#      x y z
#    x 1.898950 0.000000 0.000000 
#    y 0.000000 1.748380 0.000000 
#    z 0.000000 0.000000 1.832720 
# 
# From -- ./inp_files/6229.got.cif
#   From: 2010.05.17/outbox.cif.g08.bks.cpg/sg71_4_cif.got.tgz:6229.got - 2010.06.03 16:22:01.
