data_PCOD9519227
_publ_section_title
;
Structure prediction by ZEFSAII (Michael W. Deem and Ramdas Pophale) SiO2 
 PCOD9519227
Probable space group: I M M M
;
_chemical_formula_sum "Si O2"
_cell_formula_units_Z 104
_cell_length_a 14.190415
_cell_length_b 24.335112
_cell_length_c 17.368661
_cell_angle_alpha 90.000000
_cell_angle_beta 90.000000
_cell_angle_gamma 90.000000
_cell_volume 5997.838737
_symmetry_space_group_name_H-M "I M M M"
_symmetry_group_IT_number 71
_symmetry_cell_setting 'orthorhombic'
loop_
_space_group_symop_operation_xyz
x,y,z
-x,-y,z
x,-y,-z
-x,y,-z
-x,-y,-z
x,y,-z
-x,y,z
x,-y,z
1/2+x,1/2+y,1/2+z
1/2-x,1/2-y,1/2+z
1/2+x,1/2-y,1/2-z
1/2-x,1/2+y,1/2-z
1/2-x,1/2-y,1/2-z
1/2+x,1/2+y,1/2-z
1/2-x,1/2+y,1/2+z
1/2+x,1/2-y,1/2+z
loop_
_atom_site_type_symbol
_atom_site_label
_atom_site_fract_x
_atom_site_fract_y
_atom_site_fract_z
Si Si1 0.000000 0.566436 0.915662
Si Si2 0.774201 0.670518 0.623327
Si Si3 0.755954 0.325232 0.806241
Si Si4 0.609929 0.063321 0.129265
Si Si5 0.169390 0.437789 0.806596
Si Si6 0.389099 0.250504 0.410577
Si Si7 0.611173 0.726328 0.084575
O O1 0.908631 0.579991 0.867703
O O2 0.000000 0.500000 0.920702
O O3 0.000000 0.590947 0.000000
O O4 0.772254 0.682254 0.715392
O O5 0.813255 0.609389 0.605412
O O6 0.672139 0.692983 0.596282
O O7 0.850176 0.711867 0.587770
O O8 0.754071 0.390952 0.813406
O O9 0.837612 0.293263 0.854269
O O10 0.661364 0.302841 0.844258
O O11 0.500000 0.076721 0.110523
O O12 0.621288 0.063151 0.222397
O O13 0.627649 0.000000 0.103678
O O14 0.200651 0.500000 0.821168
O O15 0.381498 0.232676 0.500000
O O16 0.500000 0.256839 0.392248
O O17 0.500000 0.724814 0.091221
O O18 0.638605 0.703259 0.000000
#
# Coordination Sequence:
#
# PCOD9519227 Si02
#       7
#     8  16  16  16  16  16  16
#     4   9  16  24  36  56  84 124 163 185 212 264
#     4  10  19  31  51  76  98 123 158 197 237 286
#     4  10  20  30  49  75  96 123 159 203 239 279
#     4   9  16  28  48  72 100 127 151 188 237 286
#     4   9  17  29  42  63  96 129 157 190 234 280
#     4  10  21  35  50  69  97 131 160 194 242 289
#     4  10  20  34  50  67  93 128 161 197 241 287
#
# _framework density 17.339580000000002
#
# number of rings (size 3 to 8) (size 9 to 14) (size 15 to 20)
#    0.000    2.385    0.769    4.154    1.077    4.308 
#    0.000    0.000    0.000    2.769    0.000   11.846 
#    0.000    0.000    0.000    0.000    0.000    0.000 
#
# Total GULP energy -289513.976613 kJ/mol
# GULP energy per Si atom -5567.576473 kJ/mol
# Density = 1.730011 g / cm^3
# Si number density = 17.339580 Si / 1000 Ang^3
#
#
#
# Elastic Constant Matrix: (Units=GPa)
#
#
# Indices 1 2 3 4 5 6 
#
# 1 93.1005 40.3463 17.9091 0.0001 0.0000 0.0000
# 2 40.3463 86.3914 14.9555 -0.0001 0.0000 0.0000
# 3 17.9091 14.9555 64.3761 -0.0003 0.0000 0.0000
# 4 0.0001 -0.0001 -0.0003 6.2322 0.0000 0.0000
# 5 0.0000 0.0000 0.0000 0.0000 19.7945 0.0000
# 6 0.0000 0.0000 0.0000 0.0000 0.0000 18.4538
#
#
#
# Elastic Compliance Matrix: (Units=1/GPa)
#
#
# Indices 1 2 3 4 5 6 
#
# 1 0.013826 -0.006034 -0.002445 0.000000 0.000000 0.000000
# 2 -0.006034 0.014694 -0.001735 0.000000 0.000000 0.000000
# 3 -0.002445 -0.001735 0.016617 0.000001 0.000000 0.000000
# 4 0.000000 0.000000 0.000001 0.160457 0.000000 0.000000
# 5 0.000000 0.000000 0.000000 0.000000 0.050519 0.000000
# 6 0.000000 0.000000 0.000000 0.000000 0.000000 0.054189
#
#
# Mechanical properties :
#
#
# Convention : Reuss Voigt Hill
#
# Bulk Modulus (GPa) = 40.46994 43.36554 41.91774
# Shear Modulus (GPa) = 14.75077 20.27324 17.51201
#
# Velocity S-wave (km/s) = 2.91984 3.42305 3.18141
# Velocity P-wave (km/s) = 5.89556 6.37863 6.14184
#
# Compressibility (1/GPa) = 0.02470970
#
# Stress axis : x y z
#
# Youngs Moduli (GPa) = 72.32641 68.05730 60.17992
#
# Poissons Ratio (x) = 0.41065 0.14712
# Poissons Ratio (y) = 0.43641 0.10441
# Poissons Ratio (z) = 0.17681 0.11807
#
# Static dielectric constant tensor:
#      x y z
#    x 1.567940 0.000000 0.000000 
#    y 0.000000 1.614140 0.000000 
#    z 0.000000 0.000000 1.620290 
# 
# From -- ./inp_files/45158.got.cif
#   From: 2010.05.17/outbox.cif.g08.bks.cpg/sg71_23_cif.got.tgz:45158.got - 2010.06.03 16:22:01.
