data_PCOD9519492
_publ_section_title
;
Structure prediction by ZEFSAII (Michael W. Deem and Ramdas Pophale) SiO2 
 PCOD9519492
Probable space group: I M M M
;
_chemical_formula_sum "Si O2"
_cell_formula_units_Z 120
_cell_length_a 17.296450
_cell_length_b 20.644805
_cell_length_c 20.952969
_cell_angle_alpha 90.000000
_cell_angle_beta 90.000000
_cell_angle_gamma 90.000000
_cell_volume 7481.924670
_symmetry_space_group_name_H-M "I M M M"
_symmetry_group_IT_number 71
_symmetry_cell_setting 'orthorhombic'
loop_
_space_group_symop_operation_xyz
x,y,z
-x,-y,z
x,-y,-z
-x,y,-z
-x,-y,-z
x,y,-z
-x,y,z
x,-y,z
1/2+x,1/2+y,1/2+z
1/2-x,1/2-y,1/2+z
1/2+x,1/2-y,1/2-z
1/2-x,1/2+y,1/2-z
1/2-x,1/2-y,1/2-z
1/2+x,1/2+y,1/2-z
1/2-x,1/2+y,1/2+z
1/2+x,1/2-y,1/2+z
loop_
_atom_site_type_symbol
_atom_site_label
_atom_site_fract_x
_atom_site_fract_y
_atom_site_fract_z
Si Si1 0.411331 0.676195 0.205308
Si Si2 0.717215 0.426836 0.222772
Si Si3 0.194941 0.643176 0.110663
Si Si4 0.408804 0.144576 0.072722
Si Si5 0.912932 0.305536 0.783380
Si Si6 0.369374 0.926186 0.800836
Si Si7 0.350455 0.711699 0.928719
Si Si8 0.092708 0.421790 0.000000
O O1 0.500000 0.660261 0.219232
O O2 0.351118 0.624003 0.230847
O O3 0.393750 0.746108 0.236549
O O4 0.398259 0.681404 0.129384
O O5 0.688495 0.500000 0.218445
O O6 0.763007 0.408248 0.157682
O O7 0.779954 0.422424 0.279276
O O8 0.145949 0.687965 0.158615
O O9 0.263257 0.684998 0.078674
O O10 0.137560 0.608558 0.060943
O O11 0.500000 0.160516 0.082647
O O12 0.383611 0.094383 0.126568
O O13 0.360354 0.210952 0.078682
O O14 0.400625 0.120665 0.000000
O O15 0.909490 0.372086 0.743138
O O16 0.000000 0.296075 0.807059
O O17 0.395411 0.000000 0.789065
O O18 0.378672 0.695526 0.000000
O O19 0.100666 0.500000 0.000000
O O20 0.000000 0.407450 0.000000
#
# Coordination Sequence:
#
# PCOD9519492 Si02
#       8
#    16  16  16  16  16  16  16   8
#     4  10  20  33  54  78 102 135 169 213 267 308
#     4   9  20  35  52  75 102 132 172 217 259 310
#     4  10  20  34  53  74 101 134 172 213 256 306
#     4  10  20  32  48  73 106 135 168 210 251 301
#     4  10  20  33  50  76 105 131 168 212 255 307
#     4  10  20  33  51  73 102 139 172 205 250 305
#     4  10  19  32  52  76 100 133 170 209 251 304
#     4  11  22  36  54  76 105 141 176 213 261 313
#
# _framework density 16.038654000000001
#
# number of rings (size 3 to 8) (size 9 to 14) (size 15 to 20)
#    0.000    2.067    2.000    1.600    1.867    4.533 
#    0.000    0.667    0.000    0.000    0.000    1.867 
#    0.000    0.000    0.000    2.933    0.000    0.000 
#
# Total GULP energy -334480.404031 kJ/mol
# GULP energy per Si atom -5574.673401 kJ/mol
# Density = 1.600215 g / cm^3
# Si number density = 16.038654 Si / 1000 Ang^3
#
#
#
# Elastic Constant Matrix: (Units=GPa)
#
#
# Indices 1 2 3 4 5 6 
#
# 1 83.5447 55.2586 36.2287 0.0000 0.0000 0.0000
# 2 55.2586 90.6306 27.1412 0.0000 0.0000 0.0000
# 3 36.2287 27.1412 70.3540 0.0000 0.0000 0.0000
# 4 0.0000 0.0000 0.0000 17.4384 0.0000 0.0000
# 5 0.0000 0.0000 0.0000 0.0000 17.7962 0.0000
# 6 0.0000 0.0000 0.0000 0.0000 0.0000 -5.3908
#
#
#
# Elastic Compliance Matrix: (Units=1/GPa)
#
#
# Indices 1 2 3 4 5 6 
#
# 1 0.022921 -0.011804 -0.007249 0.000000 0.000000 0.000000
# 2 -0.011804 0.018554 -0.001079 0.000000 0.000000 0.000000
# 3 -0.007249 -0.001079 0.018363 0.000000 0.000000 0.000000
# 4 0.000000 0.000000 0.000000 0.057345 0.000000 0.000000
# 5 0.000000 0.000000 0.000000 0.000000 0.056192 0.000000
# 6 0.000000 0.000000 0.000000 0.000000 0.000000 -0.185500
#
#
# Mechanical properties :
#
#
# Convention : Reuss Voigt Hill
#
# Bulk Modulus (GPa) = 51.09137 53.53183 52.31160
# Shear Modulus (GPa) = 144.24261 14.36214 79.30238
#
# Velocity S-wave (km/s) = 9.49366 2.99569 7.03931
# Velocity P-wave (km/s) = 12.33277 6.73905 9.93760
#
# Compressibility (1/GPa) = 0.01957278
#
# Stress axis : x y z
#
# Youngs Moduli (GPa) = 43.62852 53.89628 54.45674
#
# Poissons Ratio (x) = 0.63620 0.39477
# Poissons Ratio (y) = 0.51500 0.05878
# Poissons Ratio (z) = 0.31627 0.05817
#
# Static dielectric constant tensor:
#      x y z
#    x 1.532670 0.000000 0.000000 
#    y 0.000000 1.523740 0.000000 
#    z 0.000000 0.000000 1.539110 
# 
# From -- ./inp_files/53435.got.cif
#   From: 2010.05.17/outbox.cif.g08.bks.cpg/sg71_27_cif.got.tgz:53435.got - 2010.06.03 16:22:01.
