data_PCOD9519626
_publ_section_title
;
Structure prediction by ZEFSAII (Michael W. Deem and Ramdas Pophale) SiO2 
 PCOD9519626
Probable space group: I M M M
;
_chemical_formula_sum "Si O2"
_cell_formula_units_Z 104
_cell_length_a 20.784428
_cell_length_b 8.917331
_cell_length_c 32.660122
_cell_angle_alpha 90.000000
_cell_angle_beta 90.000000
_cell_angle_gamma 90.000000
_cell_volume 6053.280055
_symmetry_space_group_name_H-M "I M M M"
_symmetry_group_IT_number 71
_symmetry_cell_setting 'orthorhombic'
loop_
_space_group_symop_operation_xyz
x,y,z
-x,-y,z
x,-y,-z
-x,y,-z
-x,-y,-z
x,y,-z
-x,y,z
x,-y,z
1/2+x,1/2+y,1/2+z
1/2-x,1/2-y,1/2+z
1/2+x,1/2-y,1/2-z
1/2-x,1/2+y,1/2-z
1/2-x,1/2-y,1/2-z
1/2+x,1/2+y,1/2-z
1/2-x,1/2+y,1/2+z
1/2+x,1/2-y,1/2+z
loop_
_atom_site_type_symbol
_atom_site_label
_atom_site_fract_x
_atom_site_fract_y
_atom_site_fract_z
Si Si1 0.821214 0.180453 0.632383
Si Si2 0.204165 0.679543 0.545945
Si Si3 0.177356 0.675979 0.158133
Si Si4 0.924346 0.169100 0.000000
Si Si5 0.426038 0.679496 0.718177
Si Si6 0.340535 0.824903 0.436586
Si Si7 0.574901 0.178220 0.807842
O O1 0.826556 0.245468 0.586299
O O2 0.752159 0.224937 0.652904
O O3 0.877886 0.241480 0.660590
O O4 0.820878 0.000000 0.629970
O O5 0.180440 0.721154 0.500000
O O6 0.200232 0.500000 0.549557
O O7 0.277959 0.733660 0.549210
O O8 0.177412 0.500000 0.169874
O O9 0.129993 0.763852 0.188122
O O10 0.151379 0.689079 0.111884
O O11 0.899686 0.258354 0.039150
O O12 0.000000 0.161000 0.000000
O O13 0.897439 0.000000 0.000000
O O14 0.500000 0.717624 0.704847
O O15 0.422655 0.500000 0.721940
O O16 0.416198 0.754411 0.762507
O O17 0.330081 0.000000 0.445948
O O18 0.500000 0.202116 0.818997
O O19 0.587088 0.000000 0.807241
#
# Coordination Sequence:
#
# PCOD9519626 Si02
#       7
#    16  16  16   8  16  16  16
#     4  10  21  36  56  84 114 144 182 225 271 323
#     4  10  19  32  54  81 109 140 175 216 265 320
#     4   9  20  36  53  78 108 140 179 224 273 323
#     4  11  23  35  47  67  97 135 180 227 276 329
#     4  10  21  36  55  79 106 142 186 227 272 326
#     4  10  20  34  52  72  99 135 177 224 272 322
#     4  10  21  38  60  83 109 143 180 220 270 329
#
# _framework density 17.180766999999999
#
# number of rings (size 3 to 8) (size 9 to 14) (size 15 to 20)
#    0.000    2.077    0.769    3.462    0.000    8.308 
#    0.000    3.077    0.000    0.462    0.000    3.231 
#    0.000    0.000    0.000    0.000    0.000    0.000 
#
# Total GULP energy -290020.799190 kJ/mol
# GULP energy per Si atom -5577.323061 kJ/mol
# Density = 1.714166 g / cm^3
# Si number density = 17.180767 Si / 1000 Ang^3
#
#
#
# Elastic Constant Matrix: (Units=GPa)
#
#
# Indices 1 2 3 4 5 6 
#
# 1 81.7027 53.1298 72.7074 0.0000 0.0000 0.0000
# 2 53.1298 81.2697 59.2496 0.0000 0.0000 0.0000
# 3 72.7074 59.2496 110.7042 0.0000 0.0000 0.0000
# 4 0.0000 0.0000 0.0000 106.9606 0.0000 0.0000
# 5 0.0000 0.0000 0.0000 0.0000 33.3080 0.0000
# 6 0.0000 0.0000 0.0000 0.0000 0.0000 25.9245
#
#
#
# Elastic Compliance Matrix: (Units=1/GPa)
#
#
# Indices 1 2 3 4 5 6 
#
# 1 0.033476 -0.009603 -0.016846 0.000000 0.000000 0.000000
# 2 -0.009603 0.022933 -0.005967 0.000000 0.000000 0.000000
# 3 -0.016846 -0.005967 0.023291 0.000000 0.000000 0.000000
# 4 0.000000 0.000000 0.000000 0.009349 0.000000 0.000000
# 5 0.000000 0.000000 0.000000 0.000000 0.030023 0.000000
# 6 0.000000 0.000000 0.000000 0.000000 0.000000 0.038574
#
#
# Mechanical properties :
#
#
# Convention : Reuss Voigt Hill
#
# Bulk Modulus (GPa) = 67.26285 71.53891 69.40088
# Shear Modulus (GPa) = 21.98456 39.14462 30.56459
#
# Velocity S-wave (km/s) = 3.58103 4.77843 4.22240
# Velocity P-wave (km/s) = 7.50556 8.49552 8.01584
#
# Compressibility (1/GPa) = 0.01486705
#
# Stress axis : x y z
#
# Youngs Moduli (GPa) = 29.87248 43.60603 42.93533
#
# Poissons Ratio (x) = 0.41874 0.72331
# Poissons Ratio (y) = 0.28686 0.25619
# Poissons Ratio (z) = 0.50324 0.26019
#
# Static dielectric constant tensor:
#      x y z
#    x 1.569920 0.000000 0.000000 
#    y 0.000000 1.582330 0.000000 
#    z 0.000000 0.000000 1.575810 
# 
# From -- ./inp_files/70776.got.cif
#   From: 2010.05.17/outbox.cif.g08.bks.cpg/sg71_36_cif.got.tgz:70776.got - 2010.06.03 16:22:01.
