data_PCOD9519987
_publ_section_title
;
Structure prediction by ZEFSAII (Michael W. Deem and Ramdas Pophale) SiO2 
 PCOD9519987
Probable space group: I M M M
;
_chemical_formula_sum "Si O2"
_cell_formula_units_Z 88
_cell_length_a 19.812504
_cell_length_b 29.248514
_cell_length_c 8.147392
_cell_angle_alpha 90.000000
_cell_angle_beta 90.000000
_cell_angle_gamma 90.000000
_cell_volume 4721.302050
_symmetry_space_group_name_H-M "I M M M"
_symmetry_group_IT_number 71
_symmetry_cell_setting 'orthorhombic'
loop_
_space_group_symop_operation_xyz
x,y,z
-x,-y,z
x,-y,-z
-x,y,-z
-x,-y,-z
x,y,-z
-x,y,z
x,-y,z
1/2+x,1/2+y,1/2+z
1/2-x,1/2-y,1/2+z
1/2+x,1/2-y,1/2-z
1/2-x,1/2+y,1/2-z
1/2-x,1/2-y,1/2-z
1/2+x,1/2+y,1/2-z
1/2-x,1/2+y,1/2+z
1/2+x,1/2-y,1/2+z
loop_
_atom_site_type_symbol
_atom_site_label
_atom_site_fract_x
_atom_site_fract_y
_atom_site_fract_z
Si Si1 0.311807 0.802620 0.694774
Si Si2 0.077372 0.554674 0.500000
Si Si3 0.689937 0.448223 0.803592
Si Si4 0.342217 0.292649 0.193169
Si Si5 0.924422 0.122262 0.194005
Si Si6 0.837971 0.408117 0.195676
O O1 0.309441 0.792937 0.500000
O O2 0.352337 0.761136 0.775887
O O3 0.234119 0.802048 0.756678
O O4 0.339431 0.853351 0.715550
O O5 0.079044 0.500000 0.500000
O O6 0.113251 0.570954 0.332236
O O7 0.000000 0.570488 0.500000
O O8 0.684303 0.500000 0.736944
O O9 0.629169 0.415043 0.754980
O O10 0.762510 0.426134 0.763568
O O11 0.688705 0.451041 0.000000
O O12 0.394804 0.327424 0.270764
O O13 0.342172 0.302367 0.000000
O O14 0.000000 0.116995 0.264329
O O15 0.928499 0.116634 0.000000
O O16 0.850940 0.418490 0.000000
#
# Coordination Sequence:
#
# PCOD9519987 Si02
#       6
#    16   8  16  16  16  16
#     4   9  18  33  57  89 119 147 191 246 300 358
#     4  11  26  44  64  94 127 161 203 247 307 385
#     4  10  21  38  61  89 118 153 204 258 305 358
#     4  10  19  33  56  85 115 151 194 243 297 359
#     4  11  24  39  55  80 120 165 206 253 307 364
#     4  10  21  40  66  95 126 160 202 256 309 362
#
# _framework density 18.638925
#
# number of rings (size 3 to 8) (size 9 to 14) (size 15 to 20)
#    0.000    1.909    1.818    1.636    2.545    4.364 
#    0.000    3.636    0.000    1.091    0.000    0.000 
#    0.000    0.000    0.000    0.000    0.000    0.000 
#
# Total GULP energy -245481.668790 kJ/mol
# GULP energy per Si atom -5579.128836 kJ/mol
# Density = 1.859650 g / cm^3
# Si number density = 18.638925 Si / 1000 Ang^3
#
#
#
# Elastic Constant Matrix: (Units=GPa)
#
#
# Indices 1 2 3 4 5 6 
#
# 1 134.3380 65.3092 50.7860 0.0000 0.0000 0.0000
# 2 65.3092 107.5629 32.8299 0.0000 0.0000 0.0000
# 3 50.7860 32.8299 48.0628 0.0000 0.0000 0.0000
# 4 0.0000 0.0000 0.0000 34.0788 0.0000 0.0000
# 5 0.0000 0.0000 0.0000 0.0000 16.2101 0.0000
# 6 0.0000 0.0000 0.0000 0.0000 0.0000 18.6381
#
#
#
# Elastic Compliance Matrix: (Units=1/GPa)
#
#
# Indices 1 2 3 4 5 6 
#
# 1 0.014355 -0.005163 -0.011642 0.000000 0.000000 0.000000
# 2 -0.005163 0.013602 -0.003836 0.000000 0.000000 0.000000
# 3 -0.011642 -0.003836 0.035728 0.000000 0.000000 0.000000
# 4 0.000000 0.000000 0.000000 0.029344 0.000000 0.000000
# 5 0.000000 0.000000 0.000000 0.000000 0.061690 0.000000
# 6 0.000000 0.000000 0.000000 0.000000 0.000000 0.053654
#
#
# Mechanical properties :
#
#
# Convention : Reuss Voigt Hill
#
# Bulk Modulus (GPa) = 44.63502 65.31266 54.97384
# Shear Modulus (GPa) = 19.44607 23.18798 21.31702
#
# Velocity S-wave (km/s) = 3.23353 3.53095 3.38551
# Velocity P-wave (km/s) = 6.15955 7.19309 6.69629
#
# Compressibility (1/GPa) = 0.02240393
#
# Stress axis : x y z
#
# Youngs Moduli (GPa) = 69.66253 73.51684 27.98935
#
# Poissons Ratio (x) = 0.37954 0.32585
# Poissons Ratio (y) = 0.35964 0.10737
# Poissons Ratio (z) = 0.81100 0.28202
#
# Static dielectric constant tensor:
#      x y z
#    x 1.646050 0.000000 0.000000 
#    y 0.000000 1.648530 0.000000 
#    z 0.000000 0.000000 1.649710 
# 
# From -- ./inp_files/8805.got.cif
#   From: 2010.05.17/outbox.cif.g08.bks.cpg/sg71_5_cif.got.tgz:8805.got - 2010.06.03 16:22:01.
