data_PCOD9519677
_publ_section_title
;
Structure prediction by ZEFSAII (Michael W. Deem and Ramdas Pophale) SiO2 
 PCOD9519677
Probable space group: I M M M
;
_chemical_formula_sum "Si O2"
_cell_formula_units_Z 66
_cell_length_a 12.353795
_cell_length_b 31.295996
_cell_length_c 9.101717
_cell_angle_alpha 90.000000
_cell_angle_beta 90.000000
_cell_angle_gamma 90.000000
_cell_volume 3518.945136
_symmetry_space_group_name_H-M "I M M M"
_symmetry_group_IT_number 71
_symmetry_cell_setting 'orthorhombic'
loop_
_space_group_symop_operation_xyz
x,y,z
-x,-y,z
x,-y,-z
-x,y,-z
-x,-y,-z
x,y,-z
-x,y,z
x,-y,z
1/2+x,1/2+y,1/2+z
1/2-x,1/2-y,1/2+z
1/2+x,1/2-y,1/2-z
1/2-x,1/2+y,1/2-z
1/2-x,1/2-y,1/2-z
1/2+x,1/2+y,1/2-z
1/2-x,1/2+y,1/2+z
1/2+x,1/2-y,1/2+z
loop_
_atom_site_type_symbol
_atom_site_label
_atom_site_fract_x
_atom_site_fract_y
_atom_site_fract_z
Si Si1 0.000000 0.000000 0.000000
Si Si2 0.624412 0.126727 0.320952
Si Si3 0.500000 0.327586 0.672420
Si Si4 0.281090 0.705137 0.177619
Si Si5 0.500000 0.426812 0.252913
Si Si6 0.264009 0.452096 0.830115
O O1 0.000000 0.037316 0.124418
O O2 0.624402 0.124981 0.500000
O O3 0.500000 0.128300 0.272408
O O4 0.692213 0.168959 0.283390
O O5 0.686811 0.084426 0.264525
O O6 0.500000 0.315764 0.500000
O O7 0.394546 0.309922 0.754626
O O8 0.500000 0.378824 0.687556
O O9 0.250000 0.750000 0.250000
O O10 0.287094 0.708209 0.000000
O O11 0.613041 0.435069 0.170767
O O12 0.258794 0.500000 0.763569
O O13 0.231496 0.456174 0.000000
#
# Coordination Sequence:
#
# PCOD9519677 Si02
#       6
#     2  16   8  16   8  16
#     4  12  24  36  54  88 122 164 200 262 328 378
#     4   9  19  35  56  85 121 157 195 244 303 368
#     4  12  25  41  65  95 124 164 214 266 321 381
#     4  11  24  42  65  93 126 165 207 261 321 385
#     4  12  21  35  55  86 121 161 204 254 314 377
#     4  10  19  32  55  85 118 154 196 248 306 374
#
# _framework density 18.755621999999999
#
# number of rings (size 3 to 8) (size 9 to 14) (size 15 to 20)
#    0.000    1.455    4.242    1.455    1.697    2.424 
#    0.000    2.424    0.000    0.000    0.000    0.848 
#    0.000    0.000    0.000    0.000    0.000    0.000 
#
# Total GULP energy -183817.789009 kJ/mol
# GULP energy per Si atom -5570.236031 kJ/mol
# Density = 1.871293 g / cm^3
# Si number density = 18.755622 Si / 1000 Ang^3
#
#
#
# Elastic Constant Matrix: (Units=GPa)
#
#
# Indices 1 2 3 4 5 6 
#
# 1 180.3791 113.3510 30.5319 -0.0001 -0.0001 0.0001
# 2 113.3510 187.8387 45.1618 -0.0001 -0.0001 -0.0004
# 3 30.5319 45.1618 61.4654 -0.0022 0.0001 -0.0015
# 4 -0.0001 -0.0001 -0.0022 32.0220 0.0001 -0.0003
# 5 -0.0001 -0.0001 0.0001 0.0001 10.4950 0.0001
# 6 0.0001 -0.0004 -0.0015 -0.0003 0.0001 5.8352
#
#
#
# Elastic Compliance Matrix: (Units=1/GPa)
#
#
# Indices 1 2 3 4 5 6 
#
# 1 0.008947 -0.005260 -0.000580 0.000000 0.000000 -0.000001
# 2 -0.005260 0.009558 -0.004410 0.000000 0.000000 0.000000
# 3 -0.000580 -0.004410 0.019798 0.000001 0.000000 0.000005
# 4 0.000000 0.000000 0.000001 0.031228 0.000000 0.000002
# 5 0.000000 0.000000 0.000000 0.000000 0.095284 -0.000002
# 6 -0.000001 0.000000 0.000005 0.000002 -0.000002 0.171375
#
#
# Mechanical properties :
#
#
# Convention : Reuss Voigt Hill
#
# Bulk Modulus (GPa) = 56.16824 89.75252 72.96038
# Shear Modulus (GPa) = 13.78838 25.71300 19.75069
#
# Velocity S-wave (km/s) = 2.71432 3.70665 3.24860
# Velocity P-wave (km/s) = 6.31156 8.14104 7.28397
#
# Compressibility (1/GPa) = 0.01780366
#
# Stress axis : x y z
#
# Youngs Moduli (GPa) = 111.76503 104.62337 50.51122
#
# Poissons Ratio (x) = 0.55031 0.02928
# Poissons Ratio (y) = 0.58787 0.22276
# Poissons Ratio (z) = 0.06479 0.46140
#
# Static dielectric constant tensor:
#      x y z
#    x 1.646030 0.000000 0.000000 
#    y 0.000000 1.655630 0.000000 
#    z 0.000000 0.000000 1.658840 
# 
# From -- ./inp_files/3837.got.cif
#   From: 2010.05.17/outbox.cif.g08.bks.cpg/sg71_2_cif.got.tgz:3837.got - 2010.06.03 16:22:01.
