data_PCOD9519591
_publ_section_title
;
Structure prediction by ZEFSAII (Michael W. Deem and Ramdas Pophale) SiO2 
 PCOD9519591
Probable space group: I M M M
;
_chemical_formula_sum "Si O2"
_cell_formula_units_Z 116
_cell_length_a 23.544515
_cell_length_b 32.830953
_cell_length_c 7.480992
_cell_angle_alpha 90.000000
_cell_angle_beta 90.000000
_cell_angle_gamma 90.000000
_cell_volume 5782.723518
_symmetry_space_group_name_H-M "I M M M"
_symmetry_group_IT_number 71
_symmetry_cell_setting 'orthorhombic'
loop_
_space_group_symop_operation_xyz
x,y,z
-x,-y,z
x,-y,-z
-x,y,-z
-x,-y,-z
x,y,-z
-x,y,z
x,-y,z
1/2+x,1/2+y,1/2+z
1/2-x,1/2-y,1/2+z
1/2+x,1/2-y,1/2-z
1/2-x,1/2+y,1/2-z
1/2-x,1/2-y,1/2-z
1/2+x,1/2+y,1/2-z
1/2-x,1/2+y,1/2+z
1/2+x,1/2-y,1/2+z
loop_
_atom_site_type_symbol
_atom_site_label
_atom_site_fract_x
_atom_site_fract_y
_atom_site_fract_z
Si Si1 0.600316 0.451072 0.287449
Si Si2 0.564581 0.105332 0.787480
Si Si3 0.000000 0.064653 0.500000
Si Si4 0.835410 0.453327 0.281361
Si Si5 0.219535 0.909720 0.781984
Si Si6 0.241493 0.180889 0.795595
Si Si7 0.436063 0.197899 0.286992
Si Si8 0.670599 0.753383 0.207356
O O1 0.589660 0.442501 0.500000
O O2 0.606369 0.500000 0.271006
O O3 0.659522 0.429593 0.233250
O O4 0.549770 0.437704 0.157463
O O5 0.500000 0.100830 0.715575
O O6 0.612294 0.074662 0.718683
O O7 0.582944 0.152114 0.760164
O O8 0.561033 0.098720 0.000000
O O9 0.835782 0.452385 0.500000
O O10 0.842090 0.500000 0.226545
O O11 0.774644 0.435342 0.225606
O O12 0.227868 0.863159 0.718555
O O13 0.219322 0.909505 0.000000
O O14 0.290843 0.209648 0.715928
O O15 0.187195 0.210739 0.794354
O O16 0.259787 0.173116 0.000000
O O17 0.437358 0.200552 0.500000
O O18 0.500000 0.202585 0.217369
O O19 0.393333 0.231865 0.220147
O O20 0.686158 0.748659 0.000000
#
# Coordination Sequence:
#
# PCOD9519591 Si02
#       8
#    16  16   4  16  16  16  16  16
#     4  10  20  35  58  85 111 144 186 228 275 332
#     4   9  17  29  47  74 106 141 183 227 267 310
#     4  12  23  38  60  86 114 144 180 232 280 322
#     4   9  16  27  47  76 109 143 179 221 269 318
#     4   9  17  31  52  77 105 140 181 219 265 323
#     4   9  18  33  53  76 105 139 170 209 259 316
#     4  10  20  33  51  73  99 135 175 215 261 312
#     4  10  19  32  53  80 105 130 170 215 261 311
#
# _framework density 20.059750999999999
#
# number of rings (size 3 to 8) (size 9 to 14) (size 15 to 20)
#    0.000    2.483    0.000    2.897    0.000    6.069 
#    1.241    1.379    3.034    0.414    0.000    1.931 
#    0.000    0.000    0.000    0.000    0.000    0.000 
#
# Total GULP energy -323091.491413 kJ/mol
# GULP energy per Si atom -5570.542955 kJ/mol
# Density = 2.001409 g / cm^3
# Si number density = 20.059751 Si / 1000 Ang^3
#
#
#
# Elastic Constant Matrix: (Units=GPa)
#
#
# Indices 1 2 3 4 5 6 
#
# 1 74.7096 22.4871 7.1421 0.0000 0.0000 0.0000
# 2 22.4871 38.8865 -7.5498 0.0000 0.0000 0.0000
# 3 7.1421 -7.5498 73.5039 0.0000 0.0000 0.0000
# 4 0.0000 0.0000 0.0000 3.7825 0.0000 0.0000
# 5 0.0000 0.0000 0.0000 0.0000 -0.8681 0.0000
# 6 0.0000 0.0000 0.0000 0.0000 0.0000 32.1172
#
#
#
# Elastic Compliance Matrix: (Units=1/GPa)
#
#
# Indices 1 2 3 4 5 6 
#
# 1 0.016704 -0.010177 -0.002668 0.000000 0.000000 0.000000
# 2 -0.010177 0.032440 0.004321 0.000000 0.000000 0.000000
# 3 -0.002668 0.004321 0.014308 0.000000 0.000000 0.000000
# 4 0.000000 0.000000 0.000000 0.264377 0.000000 0.000000
# 5 0.000000 0.000000 0.000000 0.000000 -1.151936 0.000000
# 6 0.000000 0.000000 0.000000 0.000000 0.000000 0.031136
#
#
# Mechanical properties :
#
#
# Convention : Reuss Voigt Hill
#
# Bulk Modulus (GPa) = 21.55086 25.69543 23.62315
# Shear Modulus (GPa) = -6.57502 18.00769 5.71634
#
# Velocity S-wave (km/s) = -1.81241 2.99942 1.68992
# Velocity P-wave (km/s) = 2.52723 4.98323 3.95092
#
# Compressibility (1/GPa) = 0.04640187
#
# Stress axis : x y z
#
# Youngs Moduli (GPa) = 59.86746 30.82608 69.89189
#
# Poissons Ratio (x) = 0.31373 0.18650
# Poissons Ratio (y) = 0.60929 -0.30200
# Poissons Ratio (z) = 0.15975 -0.13320
#
# Static dielectric constant tensor:
#      x y z
#    x 1.687670 0.000000 0.000000 
#    y 0.000000 1.684550 0.000000 
#    z 0.000000 0.000000 1.789940 
# 
# From -- ./inp_files/13746.got.cif
#   From: 2010.05.17/outbox.cif.g08.bks.cpg/sg71_7_cif.got.tgz:13746.got - 2010.06.03 16:22:01.
