data_PCOD9519005
_publ_section_title
;
Structure prediction by ZEFSAII (Michael W. Deem and Ramdas Pophale) SiO2 
 PCOD9519005
Probable space group: I M M M
;
_chemical_formula_sum "Si O2"
_cell_formula_units_Z 80
_cell_length_a 10.023066
_cell_length_b 19.333024
_cell_length_c 30.300801
_cell_angle_alpha 90.000000
_cell_angle_beta 90.000000
_cell_angle_gamma 90.000000
_cell_volume 5871.573333
_symmetry_space_group_name_H-M "I M M M"
_symmetry_group_IT_number 71
_symmetry_cell_setting 'orthorhombic'
loop_
_space_group_symop_operation_xyz
x,y,z
-x,-y,z
x,-y,-z
-x,y,-z
-x,-y,-z
x,y,-z
-x,y,z
x,-y,z
1/2+x,1/2+y,1/2+z
1/2-x,1/2-y,1/2+z
1/2+x,1/2-y,1/2-z
1/2-x,1/2+y,1/2-z
1/2-x,1/2-y,1/2-z
1/2+x,1/2+y,1/2-z
1/2-x,1/2+y,1/2+z
1/2+x,1/2-y,1/2+z
loop_
_atom_site_type_symbol
_atom_site_label
_atom_site_fract_x
_atom_site_fract_y
_atom_site_fract_z
Si Si1 0.500000 0.418267 0.947857
Si Si2 0.243284 0.128995 0.607134
Si Si3 0.500000 0.084140 0.553053
Si Si4 0.659204 0.726428 0.816973
Si Si5 0.838842 0.000000 0.767257
Si Si6 0.658313 0.654400 0.723010
Si Si7 0.837523 0.000000 0.665749
O O1 0.500000 0.500000 0.934868
O O2 0.625741 0.379985 0.927857
O O3 0.500000 0.416754 0.000000
O O4 0.375204 0.116712 0.578871
O O5 0.222422 0.195025 0.638484
O O6 0.219793 0.065885 0.640845
O O7 0.500000 0.097373 0.500000
O O8 0.500000 0.000000 0.558040
O O9 0.500000 0.739098 0.822893
O O10 0.669193 0.672766 0.775438
O O11 0.744455 0.792746 0.801866
O O12 0.801155 0.074911 0.786173
O O13 0.795997 0.000000 0.716390
O O14 0.000000 0.000000 0.767429
O O15 0.500000 0.663910 0.712171
O O16 0.000000 0.000000 0.664466
#
# Coordination Sequence:
#
# PCOD9519005 Si02
#       7
#     8  16   8  16   8  16   8
#     4  11  20  30  48  69  86 113 159 202 231 267
#     4  12  19  32  48  64  88 124 160 196 232 273
#     4  11  24  36  44  63  96 125 153 198 247 277
#     4  10  19  31  46  67  92 119 156 196 230 268
#     4   9  16  28  48  67  93 121 158 198 229 265
#     4   9  18  30  46  67  92 121 153 192 234 270
#     4  11  16  27  46  70  86 118 166 199 223 260
#
# _framework density 13.624969
#
# number of rings (size 3 to 8) (size 9 to 14) (size 15 to 20)
#    0.000    1.600    6.000    0.600    1.400    1.600 
#    0.000    0.500    2.200    0.000    0.000    0.000 
#    0.000    0.000    0.000    5.400    0.000    0.100 
#
# Total GULP energy -222775.075503 kJ/mol
# GULP energy per Si atom -5569.376888 kJ/mol
# Density = 1.359396 g / cm^3
# Si number density = 13.624969 Si / 1000 Ang^3
#
#
#
# Elastic Constant Matrix: (Units=GPa)
#
#
# Indices 1 2 3 4 5 6 
#
# 1 109.6131 43.6828 51.1364 0.0000 0.0000 0.0000
# 2 43.6828 91.6622 40.1528 0.0000 0.0000 0.0000
# 3 51.1364 40.1528 81.9353 0.0000 0.0000 0.0000
# 4 0.0000 0.0000 0.0000 27.1643 0.0000 0.0000
# 5 0.0000 0.0000 0.0000 0.0000 35.7208 0.0000
# 6 0.0000 0.0000 0.0000 0.0000 0.0000 21.0274
#
#
#
# Elastic Compliance Matrix: (Units=1/GPa)
#
#
# Indices 1 2 3 4 5 6 
#
# 1 0.013721 -0.003550 -0.006824 0.000000 0.000000 0.000000
# 2 -0.003550 0.014810 -0.005042 0.000000 0.000000 0.000000
# 3 -0.006824 -0.005042 0.018935 0.000000 0.000000 0.000000
# 4 0.000000 0.000000 0.000000 0.036813 0.000000 0.000000
# 5 0.000000 0.000000 0.000000 0.000000 0.027995 0.000000
# 6 0.000000 0.000000 0.000000 0.000000 0.000000 0.047557
#
#
# Mechanical properties :
#
#
# Convention : Reuss Voigt Hill
#
# Bulk Modulus (GPa) = 60.11825 61.46164 60.78994
# Shear Modulus (GPa) = 25.48328 26.66510 26.07419
#
# Velocity S-wave (km/s) = 4.32943 4.42868 4.37934
# Velocity P-wave (km/s) = 8.31934 8.44740 8.38361
#
# Compressibility (1/GPa) = 0.01663389
#
# Stress axis : x y z
#
# Youngs Moduli (GPa) = 72.88059 67.52144 52.81338
#
# Poissons Ratio (x) = 0.23968 0.36039
# Poissons Ratio (y) = 0.25871 0.26630
# Poissons Ratio (z) = 0.49733 0.34047
#
# Static dielectric constant tensor:
#      x y z
#    x 1.361600 0.000000 0.000000 
#    y 0.000000 1.447870 0.000000 
#    z 0.000000 0.000000 1.432230 
# 
# From -- ./inp_files/10794.got.cif
#   From: 2010.05.17/outbox.cif.g08.bks.cpg/sg71_6_cif.got.tgz:10794.got - 2010.06.03 16:22:01.
