data_PCOD9519368
_publ_section_title
;
Structure prediction by ZEFSAII (Michael W. Deem and Ramdas Pophale) SiO2 
 PCOD9519368
Probable space group: I M M M
;
_chemical_formula_sum "Si O2"
_cell_formula_units_Z 88
_cell_length_a 22.115029
_cell_length_b 13.216380
_cell_length_c 20.752017
_cell_angle_alpha 90.000000
_cell_angle_beta 90.000000
_cell_angle_gamma 90.000000
_cell_volume 6065.412540
_symmetry_space_group_name_H-M "I M M M"
_symmetry_group_IT_number 71
_symmetry_cell_setting 'orthorhombic'
loop_
_space_group_symop_operation_xyz
x,y,z
-x,-y,z
x,-y,-z
-x,y,-z
-x,-y,-z
x,y,-z
-x,y,z
x,-y,z
1/2+x,1/2+y,1/2+z
1/2-x,1/2-y,1/2+z
1/2+x,1/2-y,1/2-z
1/2-x,1/2+y,1/2-z
1/2-x,1/2-y,1/2-z
1/2+x,1/2+y,1/2-z
1/2-x,1/2+y,1/2+z
1/2+x,1/2-y,1/2+z
loop_
_atom_site_type_symbol
_atom_site_label
_atom_site_fract_x
_atom_site_fract_y
_atom_site_fract_z
Si Si1 0.140742 0.122232 0.125640
Si Si2 0.726184 0.121222 0.922058
Si Si3 0.000000 0.381151 0.577513
Si Si4 0.572630 0.618946 0.000000
Si Si5 0.388245 0.749541 0.119416
Si Si6 0.430655 0.623569 0.500000
Si Si7 0.572819 0.378374 0.757608
O O1 0.210481 0.148256 0.112377
O O2 0.107877 0.150359 0.191936
O O3 0.138827 0.000000 0.124262
O O4 0.102765 0.158649 0.064201
O O5 0.673635 0.189728 0.891815
O O6 0.715040 0.000000 0.913332
O O7 0.730111 0.136865 0.000000
O O8 0.058395 0.330171 0.608344
O O9 0.000000 0.500000 0.588059
O O10 0.000000 0.364514 0.500000
O O11 0.601820 0.669349 0.062247
O O12 0.581869 0.500000 0.000000
O O13 0.500000 0.636713 0.000000
O O14 0.399366 0.688554 0.185126
O O15 0.428801 0.500000 0.500000
O O16 0.500000 0.653963 0.500000
O O17 0.500000 0.362046 0.752812
O O18 0.580875 0.500000 0.768748
#
# Coordination Sequence:
#
# PCOD9519368 Si02
#       7
#    16  16   8   8  16   8  16
#     4   9  17  30  47  70  97 128 160 194 241 295
#     4  10  19  32  50  71  98 128 161 203 247 292
#     4  11  20  32  48  70  94 121 166 217 247 276
#     4  11  20  31  46  66  92 127 171 208 235 273
#     4  12  19  32  47  68  96 131 166 199 243 287
#     4   9  14  23  44  70  94 120 155 194 237 288
#     4  10  20  33  49  70 101 133 162 198 242 289
#
# _framework density 14.508494000000001
#
# number of rings (size 3 to 8) (size 9 to 14) (size 15 to 20)
#    0.000    1.727    4.545    1.636    0.000    5.818 
#    0.000    0.000    0.000    0.000    0.000    0.000 
#    0.000    0.000    0.000    0.818    0.000    2.636 
#
# Total GULP energy -245229.114329 kJ/mol
# GULP energy per Si atom -5573.388962 kJ/mol
# Density = 1.447547 g / cm^3
# Si number density = 14.508494 Si / 1000 Ang^3
#
#
#
# Elastic Constant Matrix: (Units=GPa)
#
#
# Indices 1 2 3 4 5 6 
#
# 1 146.4047 54.7664 89.2266 0.0000 0.0000 0.0000
# 2 54.7664 75.5093 55.0166 0.0000 0.0000 0.0000
# 3 89.2266 55.0166 150.9478 0.0000 0.0000 0.0000
# 4 0.0000 0.0000 0.0000 8.8343 0.0000 0.0000
# 5 0.0000 0.0000 0.0000 0.0000 25.7811 0.0000
# 6 0.0000 0.0000 0.0000 0.0000 0.0000 12.9581
#
#
#
# Elastic Compliance Matrix: (Units=1/GPa)
#
#
# Indices 1 2 3 4 5 6 
#
# 1 0.011801 -0.004734 -0.005250 0.000000 0.000000 0.000000
# 2 -0.004734 0.019931 -0.004466 0.000000 0.000000 0.000000
# 3 -0.005250 -0.004466 0.011356 0.000000 0.000000 0.000000
# 4 0.000000 0.000000 0.000000 0.113195 0.000000 0.000000
# 5 0.000000 0.000000 0.000000 0.000000 0.038788 0.000000
# 6 0.000000 0.000000 0.000000 0.000000 0.000000 0.077172
#
#
# Mechanical properties :
#
#
# Convention : Reuss Voigt Hill
#
# Bulk Modulus (GPa) = 70.48450 85.65342 78.06896
# Shear Modulus (GPa) = 16.34666 21.10483 18.72574
#
# Velocity S-wave (km/s) = 3.36027 3.81813 3.59649
# Velocity P-wave (km/s) = 7.98387 8.86580 8.43637
#
# Compressibility (1/GPa) = 0.01418752
#
# Stress axis : x y z
#
# Youngs Moduli (GPa) = 84.73859 50.17357 88.05834
#
# Poissons Ratio (x) = 0.23751 0.46234
# Poissons Ratio (y) = 0.40113 0.39328
# Poissons Ratio (z) = 0.44491 0.22408
#
# Static dielectric constant tensor:
#      x y z
#    x 1.493800 0.000000 0.000000 
#    y 0.000000 1.455040 0.000000 
#    z 0.000000 0.000000 1.491840 
# 
# From -- ./inp_files/47282.got.cif
#   From: 2010.05.17/outbox.cif.g08.bks.cpg/sg71_24_cif.got.tgz:47282.got - 2010.06.03 16:22:01.
