data_PCOD9519941
_publ_section_title
;
Structure prediction by ZEFSAII (Michael W. Deem and Ramdas Pophale) SiO2 
 PCOD9519941
Probable space group: I M M M
;
_chemical_formula_sum "Si O2"
_cell_formula_units_Z 64
_cell_length_a 21.424092
_cell_length_b 7.717721
_cell_length_c 18.263999
_cell_angle_alpha 90.000000
_cell_angle_beta 90.000000
_cell_angle_gamma 90.000000
_cell_volume 3019.863923
_symmetry_space_group_name_H-M "I M M M"
_symmetry_group_IT_number 71
_symmetry_cell_setting 'orthorhombic'
loop_
_space_group_symop_operation_xyz
x,y,z
-x,-y,z
x,-y,-z
-x,y,-z
-x,-y,-z
x,y,-z
-x,y,z
x,-y,z
1/2+x,1/2+y,1/2+z
1/2-x,1/2-y,1/2+z
1/2+x,1/2-y,1/2-z
1/2-x,1/2+y,1/2-z
1/2-x,1/2-y,1/2-z
1/2+x,1/2+y,1/2-z
1/2-x,1/2+y,1/2+z
1/2+x,1/2-y,1/2+z
loop_
_atom_site_type_symbol
_atom_site_label
_atom_site_fract_x
_atom_site_fract_y
_atom_site_fract_z
Si Si1 0.374541 0.794828 0.670889
Si Si2 0.500000 0.712402 0.914868
Si Si3 0.747887 0.787636 0.415250
Si Si4 0.625821 0.703462 0.160595
Si Si5 0.500000 0.292570 0.416330
O O1 0.314822 0.728855 0.625597
O O2 0.376552 0.719524 0.752228
O O3 0.438034 0.762629 0.626697
O O4 0.366991 0.000000 0.679800
O O5 0.500000 0.500000 0.910790
O O6 0.437289 0.775652 0.875155
O O7 0.500000 0.758953 0.000000
O O8 0.748833 0.735005 0.500000
O O9 0.809877 0.726353 0.373122
O O10 0.747015 0.000000 0.414318
O O11 0.626327 0.500000 0.141794
O O12 0.500000 0.500000 0.418796
O O13 0.500000 0.226326 0.500000
#
# Coordination Sequence:
#
# PCOD9519941 Si02
#       5
#    16   8  16  16   8
#     4  11  22  36  56  81 112 148 184 225 275 333
#     4   9  17  30  52  80 104 133 178 227 272 318
#     4   9  18  33  54  80 109 145 190 234 273 318
#     4  10  19  33  55  81 111 145 183 229 273 319
#     4  11  24  41  60  82 108 139 180 231 282 332
#
# _framework density 21.193010000000001
#
# number of rings (size 3 to 8) (size 9 to 14) (size 15 to 20)
#    0.000    2.000    0.000    4.125    0.000    6.000 
#    0.000    1.250    0.000    6.750    0.000    0.000 
#    0.000    0.000    0.000    0.000    0.000    0.000 
#
# Total GULP energy -178867.265870 kJ/mol
# GULP energy per Si atom -5589.602058 kJ/mol
# Density = 2.114477 g / cm^3
# Si number density = 21.193010 Si / 1000 Ang^3
#
#
#
# Elastic Constant Matrix: (Units=GPa)
#
#
# Indices 1 2 3 4 5 6 
#
# 1 246.6660 -6.9029 124.6854 0.0000 0.0000 0.0000
# 2 -6.9029 28.6099 -25.9335 0.0000 0.0000 0.0000
# 3 124.6854 -25.9335 174.5382 0.0000 0.0000 0.0000
# 4 0.0000 0.0000 0.0000 0.6207 0.0000 0.0000
# 5 0.0000 0.0000 0.0000 0.0000 48.4899 0.0000
# 6 0.0000 0.0000 0.0000 0.0000 0.0000 7.5728
#
#
#
# Elastic Compliance Matrix: (Units=1/GPa)
#
#
# Indices 1 2 3 4 5 6 
#
# 1 0.006573 -0.003086 -0.005154 0.000000 0.000000 0.000000
# 2 -0.003086 0.041842 0.008422 0.000000 0.000000 0.000000
# 3 -0.005154 0.008422 0.010663 0.000000 0.000000 0.000000
# 4 0.000000 0.000000 0.000000 1.611140 0.000000 0.000000
# 5 0.000000 0.000000 0.000000 0.000000 0.020623 0.000000
# 6 0.000000 0.000000 0.000000 0.000000 0.000000 0.132052
#
#
# Mechanical properties :
#
#
# Convention : Reuss Voigt Hill
#
# Bulk Modulus (GPa) = 16.82344 70.39020 43.60682
# Shear Modulus (GPa) = 2.71394 35.20101 18.95747
#
# Velocity S-wave (km/s) = 1.13286 4.07992 2.99409
# Velocity P-wave (km/s) = 3.10911 7.44851 5.70732
#
# Compressibility (1/GPa) = 0.05944087
#
# Stress axis : x y z
#
# Youngs Moduli (GPa) = 152.13694 23.89932 93.78489
#
# Poissons Ratio (x) = 0.07375 0.48338
# Poissons Ratio (y) = 0.46950 -0.78982
# Poissons Ratio (z) = 0.78413 -0.20127
#
# Static dielectric constant tensor:
#      x y z
#    x 1.738520 0.000000 0.000000 
#    y 0.000000 1.797600 0.000000 
#    z 0.000000 0.000000 1.703100 
# 
# From -- ./inp_files/7550.got.cif
#   From: 2010.05.17/outbox.cif.g08.bks.cpg/sg71_4_cif.got.tgz:7550.got - 2010.06.03 16:22:01.
