data_PCOD9519920
_publ_section_title
;
Structure prediction by ZEFSAII (Michael W. Deem and Ramdas Pophale) SiO2 
 PCOD9519920
Probable space group: I M M M
;
_chemical_formula_sum "Si O2"
_cell_formula_units_Z 104
_cell_length_a 28.605313
_cell_length_b 8.065799
_cell_length_c 24.086519
_cell_angle_alpha 90.000000
_cell_angle_beta 90.000000
_cell_angle_gamma 90.000000
_cell_volume 5557.354991
_symmetry_space_group_name_H-M "I M M M"
_symmetry_group_IT_number 71
_symmetry_cell_setting 'orthorhombic'
loop_
_space_group_symop_operation_xyz
x,y,z
-x,-y,z
x,-y,-z
-x,y,-z
-x,-y,-z
x,y,-z
-x,y,z
x,-y,z
1/2+x,1/2+y,1/2+z
1/2-x,1/2-y,1/2+z
1/2+x,1/2-y,1/2-z
1/2-x,1/2+y,1/2-z
1/2-x,1/2-y,1/2-z
1/2+x,1/2+y,1/2-z
1/2-x,1/2+y,1/2+z
1/2+x,1/2-y,1/2+z
loop_
_atom_site_type_symbol
_atom_site_label
_atom_site_fract_x
_atom_site_fract_y
_atom_site_fract_z
Si Si1 0.055753 0.297659 0.500000
Si Si2 0.944542 0.200125 0.940756
Si Si3 0.386239 0.200638 0.889379
Si Si4 0.095295 0.809657 0.172012
Si Si5 0.798288 0.801943 0.677362
Si Si6 0.192409 0.694049 0.803535
Si Si7 0.052492 0.697310 0.286351
O O1 0.054215 0.500000 0.500000
O O2 0.086250 0.246892 0.445528
O O3 0.000000 0.246085 0.500000
O O4 0.923291 0.268616 0.884591
O O5 0.000000 0.225407 0.939115
O O6 0.936867 0.000000 0.940669
O O7 0.926647 0.264239 0.000000
O O8 0.333342 0.252647 0.872344
O O9 0.416635 0.263019 0.836964
O O10 0.385925 0.000000 0.890645
O O11 0.150880 0.799122 0.171261
O O12 0.076332 0.725892 0.227394
O O13 0.079421 0.000000 0.175136
O O14 0.810656 0.720515 0.736819
O O15 0.743266 0.759850 0.672578
O O16 0.801401 0.000000 0.684691
O O17 0.184559 0.500000 0.814418
O O18 0.049649 0.500000 0.295075
O O19 0.000000 0.765527 0.286632
#
# Coordination Sequence:
#
# PCOD9519920 Si02
#       7
#     8  16  16  16  16  16  16
#     4   9  18  34  57  83 109 143 189 229 264 319
#     4   8  15  29  48  70  99 134 169 205 247 294
#     4  10  19  33  55  79 106 141 179 221 266 313
#     4  11  20  30  50  79 105 133 170 214 260 304
#     4  10  20  34  54  78 103 134 171 214 262 316
#     4  10  20  34  52  76 106 137 169 207 260 319
#     4  10  20  32  47  72 107 142 171 206 259 315
#
# _framework density 18.713940000000001
#
# number of rings (size 3 to 8) (size 9 to 14) (size 15 to 20)
#    0.000    2.231    1.538    2.769    0.000    4.615 
#    0.000    0.385    1.692    3.692    0.000    5.385 
#    0.000    0.000    0.000    0.000    0.000    0.000 
#
# Total GULP energy -289762.396878 kJ/mol
# GULP energy per Si atom -5572.353786 kJ/mol
# Density = 1.867135 g / cm^3
# Si number density = 18.713940 Si / 1000 Ang^3
#
#
#
# Elastic Constant Matrix: (Units=GPa)
#
#
# Indices 1 2 3 4 5 6 
#
# 1 60.4494 -2.5333 43.5724 0.0000 0.0000 0.0000
# 2 -2.5333 12.2442 0.5954 0.0000 0.0000 0.0000
# 3 43.5724 0.5954 136.6164 0.0000 0.0000 0.0000
# 4 0.0000 0.0000 0.0000 44.5746 0.0000 0.0000
# 5 0.0000 0.0000 0.0000 0.0000 30.2014 0.0000
# 6 0.0000 0.0000 0.0000 0.0000 0.0000 15.3975
#
#
#
# Elastic Compliance Matrix: (Units=1/GPa)
#
#
# Indices 1 2 3 4 5 6 
#
# 1 0.021764 0.004842 -0.006963 0.000000 0.000000 0.000000
# 2 0.004842 0.082766 -0.001905 0.000000 0.000000 0.000000
# 3 -0.006963 -0.001905 0.009549 0.000000 0.000000 0.000000
# 4 0.000000 0.000000 0.000000 0.022434 0.000000 0.000000
# 5 0.000000 0.000000 0.000000 0.000000 0.033111 0.000000
# 6 0.000000 0.000000 0.000000 0.000000 0.000000 0.064945
#
#
# Mechanical properties :
#
#
# Convention : Reuss Voigt Hill
#
# Bulk Modulus (GPa) = 9.43153 32.50878 20.97016
# Shear Modulus (GPa) = 17.98794 29.21308 23.60051
#
# Velocity S-wave (km/s) = 3.10369 3.95528 3.55508
# Velocity P-wave (km/s) = 4.23021 6.18612 5.29919
#
# Compressibility (1/GPa) = 0.10602734
#
# Stress axis : x y z
#
# Youngs Moduli (GPa) = 45.94665 12.08226 104.72605
#
# Poissons Ratio (x) = -0.05850 0.72917
# Poissons Ratio (y) = -0.22246 0.19950
# Poissons Ratio (z) = 0.31991 0.02302
#
# Static dielectric constant tensor:
#      x y z
#    x 1.672710 0.000000 0.000000 
#    y 0.000000 1.672120 0.000000 
#    z 0.000000 0.000000 1.645730 
# 
# From -- ./inp_files/61943.got.cif
#   From: 2010.05.17/outbox.cif.g08.bks.cpg/sg71_31_cif.got.tgz:61943.got - 2010.06.03 16:22:01.
