data_PCOD9519054
_publ_section_title
;
Structure prediction by ZEFSAII (Michael W. Deem and Ramdas Pophale) SiO2 
 PCOD9519054
Probable space group: I M M M
;
_chemical_formula_sum "Si O2"
_cell_formula_units_Z 96
_cell_length_a 8.359351
_cell_length_b 19.463267
_cell_length_c 33.510099
_cell_angle_alpha 90.000000
_cell_angle_beta 90.000000
_cell_angle_gamma 90.000000
_cell_volume 5452.102506
_symmetry_space_group_name_H-M "I M M M"
_symmetry_group_IT_number 71
_symmetry_cell_setting 'orthorhombic'
loop_
_space_group_symop_operation_xyz
x,y,z
-x,-y,z
x,-y,-z
-x,y,-z
-x,-y,-z
x,y,-z
-x,y,z
x,-y,z
1/2+x,1/2+y,1/2+z
1/2-x,1/2-y,1/2+z
1/2+x,1/2-y,1/2-z
1/2-x,1/2+y,1/2-z
1/2-x,1/2-y,1/2-z
1/2+x,1/2+y,1/2-z
1/2-x,1/2+y,1/2+z
1/2+x,1/2-y,1/2+z
loop_
_atom_site_type_symbol
_atom_site_label
_atom_site_fract_x
_atom_site_fract_y
_atom_site_fract_z
Si Si1 0.192966 0.788575 0.122742
Si Si2 0.806702 0.922099 0.411472
Si Si3 0.193047 0.922363 0.166473
Si Si4 0.692945 0.789599 0.455439
Si Si5 0.308728 0.342446 0.168126
Si Si6 0.308656 0.078778 0.744562
O O1 0.250797 0.863224 0.136593
O O2 0.251529 0.760833 0.079823
O O3 0.241517 0.731282 0.155110
O O4 0.000000 0.790527 0.121106
O O5 0.741809 0.866302 0.442431
O O6 0.759802 0.894919 0.367417
O O7 0.000000 0.921239 0.413316
O O8 0.752014 0.000000 0.418114
O O9 0.242204 0.904490 0.211664
O O10 0.000000 0.923545 0.164758
O O11 0.251102 0.000000 0.158095
O O12 0.750826 0.773609 0.500000
O O13 0.500000 0.786129 0.455632
O O14 0.500000 0.338886 0.168416
O O15 0.249752 0.370673 0.210191
O O16 0.500000 0.080180 0.746161
O O17 0.257236 0.000000 0.735247
#
# Coordination Sequence:
#
# PCOD9519054 Si02
#       6
#    16  16  16  16  16  16
#     4   9  18  33  51  70  93 121 154 192 234 280
#     4   9  18  31  46  66  93 125 160 196 230 263
#     4   9  18  33  52  71  91 119 155 193 234 280
#     4   9  18  32  49  69  93 121 152 187 230 279
#     4  10  19  31  48  69  95 128 164 198 231 269
#     4  10  20  32  47  69  97 128 161 196 233 272
#
# _framework density 17.607886000000001
#
# number of rings (size 3 to 8) (size 9 to 14) (size 15 to 20)
#    0.000    2.667    0.000    1.500    0.000    4.667 
#    0.000    1.667    0.000    0.500    0.000    3.500 
#    0.000    0.000    0.000   12.500    0.000   13.000 
#
# Total GULP energy -267679.071486 kJ/mol
# GULP energy per Si atom -5576.647323 kJ/mol
# Density = 1.756781 g / cm^3
# Si number density = 17.607886 Si / 1000 Ang^3
#
#
#
# Elastic Constant Matrix: (Units=GPa)
#
#
# Indices 1 2 3 4 5 6 
#
# 1 5.8455 12.6173 10.3909 0.0000 0.0000 0.0000
# 2 12.6173 127.7875 102.2818 0.0000 0.0000 0.0000
# 3 10.3909 102.2818 113.3927 0.0000 0.0000 0.0000
# 4 0.0000 0.0000 0.0000 8.9402 0.0000 0.0000
# 5 0.0000 0.0000 0.0000 0.0000 17.2951 0.0000
# 6 0.0000 0.0000 0.0000 0.0000 0.0000 16.5472
#
#
#
# Elastic Compliance Matrix: (Units=1/GPa)
#
#
# Indices 1 2 3 4 5 6 
#
# 1 0.217533 -0.019866 -0.002015 0.000000 0.000000 0.000000
# 2 -0.019866 0.029961 -0.025205 0.000000 0.000000 0.000000
# 3 -0.002015 -0.025205 0.031739 0.000000 0.000000 0.000000
# 4 0.000000 0.000000 0.000000 0.111855 0.000000 0.000000
# 5 0.000000 0.000000 0.000000 0.000000 0.057820 0.000000
# 6 0.000000 0.000000 0.000000 0.000000 0.000000 0.060433
#
#
# Mechanical properties :
#
#
# Convention : Reuss Voigt Hill
#
# Bulk Modulus (GPa) = 5.40360 55.28952 30.34656
# Shear Modulus (GPa) = 7.51656 16.67222 12.09439
#
# Velocity S-wave (km/s) = 2.06836 3.08045 2.62367
# Velocity P-wave (km/s) = 2.96305 6.64235 5.14298
#
# Compressibility (1/GPa) = 0.18506175
#
# Stress axis : x y z
#
# Youngs Moduli (GPa) = 4.59701 33.37659 31.50728
#
# Poissons Ratio (x) = 0.66306 0.06347
# Poissons Ratio (y) = 0.09132 0.79414
# Poissons Ratio (z) = 0.00926 0.84125
#
# Static dielectric constant tensor:
#      x y z
#    x 1.606320 0.000000 0.000000 
#    y 0.000000 1.602820 0.000000 
#    z 0.000000 0.000000 1.590510 
# 
# From -- ./inp_files/14833.got.cif
#   From: 2010.05.17/outbox.cif.g08.bks.cpg/sg71_8_cif.got.tgz:14833.got - 2010.06.03 16:22:01.
