data_PCOD9519263
_publ_section_title
;
Structure prediction by ZEFSAII (Michael W. Deem and Ramdas Pophale) SiO2 
 PCOD9519263
Probable space group: I M M M
;
_chemical_formula_sum "Si O2"
_cell_formula_units_Z 104
_cell_length_a 22.851441
_cell_length_b 8.856234
_cell_length_c 27.156960
_cell_angle_alpha 90.000000
_cell_angle_beta 90.000000
_cell_angle_gamma 90.000000
_cell_volume 5495.963341
_symmetry_space_group_name_H-M "I M M M"
_symmetry_group_IT_number 71
_symmetry_cell_setting 'orthorhombic'
loop_
_space_group_symop_operation_xyz
x,y,z
-x,-y,z
x,-y,-z
-x,y,-z
-x,-y,-z
x,y,-z
-x,y,z
x,-y,z
1/2+x,1/2+y,1/2+z
1/2-x,1/2-y,1/2+z
1/2+x,1/2-y,1/2-z
1/2-x,1/2+y,1/2-z
1/2-x,1/2-y,1/2-z
1/2+x,1/2+y,1/2-z
1/2-x,1/2+y,1/2+z
1/2+x,1/2-y,1/2+z
loop_
_atom_site_type_symbol
_atom_site_label
_atom_site_fract_x
_atom_site_fract_y
_atom_site_fract_z
Si Si1 0.807613 0.318380 0.810396
Si Si2 0.105970 0.178631 0.442343
Si Si3 0.850913 0.318777 0.085144
Si Si4 0.324316 0.319932 0.796555
Si Si5 0.563363 0.820540 0.848421
Si Si6 0.227733 0.670577 0.558789
Si Si7 0.430585 0.319024 0.500000
O O1 0.809077 0.500000 0.803361
O O2 0.850013 0.282726 0.856320
O O3 0.739081 0.276850 0.819990
O O4 0.823422 0.237355 0.759728
O O5 0.096150 0.212117 0.500000
O O6 0.066126 0.270284 0.405182
O O7 0.171942 0.228174 0.428370
O O8 0.098777 0.000000 0.435176
O O9 0.852040 0.500000 0.079785
O O10 0.788297 0.252936 0.069232
O O11 0.899138 0.248231 0.048767
O O12 0.327798 0.500000 0.798253
O O13 0.380855 0.251818 0.822399
O O14 0.500000 0.773125 0.827679
O O15 0.567887 0.000000 0.844834
O O16 0.224611 0.655499 0.500000
O O17 0.224927 0.500000 0.579918
O O18 0.422379 0.500000 0.500000
O O19 0.500000 0.286223 0.500000
#
# Coordination Sequence:
#
# PCOD9519263 Si02
#       7
#    16  16  16  16  16  16   8
#     4   9  20  37  59  90 122 149 183 234 296 353
#     4  10  21  36  55  81 114 150 192 241 287 332
#     4  11  21  35  59  87 116 152 194 239 290 353
#     4  10  20  37  62  90 118 151 191 237 291 349
#     4  11  24  40  58  80 111 154 197 238 287 342
#     4  10  19  31  51  81 116 151 186 227 279 335
#     4  11  25  43  59  79 115 159 202 251 304 361
#
# _framework density 18.922979999999999
#
# number of rings (size 3 to 8) (size 9 to 14) (size 15 to 20)
#    0.000    1.769    0.769    3.462    0.000    6.769 
#    0.000    2.308    0.000    0.923    0.000    0.000 
#    0.000    0.000    0.000    0.000    0.000    0.000 
#
# Total GULP energy -290269.465744 kJ/mol
# GULP energy per Si atom -5582.105110 kJ/mol
# Density = 1.887991 g / cm^3
# Si number density = 18.922980 Si / 1000 Ang^3
#
#
#
# Elastic Constant Matrix: (Units=GPa)
#
#
# Indices 1 2 3 4 5 6 
#
# 1 111.2976 35.8951 61.7156 0.0000 0.0000 0.0000
# 2 35.8951 49.8850 39.4129 0.0000 0.0000 0.0000
# 3 61.7156 39.4129 90.3099 0.0000 0.0000 0.0000
# 4 0.0000 0.0000 0.0000 33.2087 0.0000 0.0000
# 5 0.0000 0.0000 0.0000 0.0000 14.6486 0.0000
# 6 0.0000 0.0000 0.0000 0.0000 0.0000 23.2208
#
#
#
# Elastic Compliance Matrix: (Units=1/GPa)
#
#
# Indices 1 2 3 4 5 6 
#
# 1 0.015000 -0.004113 -0.008456 0.000000 0.000000 0.000000
# 2 -0.004113 0.031723 -0.011034 0.000000 0.000000 0.000000
# 3 -0.008456 -0.011034 0.021667 0.000000 0.000000 0.000000
# 4 0.000000 0.000000 0.000000 0.030113 0.000000 0.000000
# 5 0.000000 0.000000 0.000000 0.000000 0.068266 0.000000
# 6 0.000000 0.000000 0.000000 0.000000 0.000000 0.043065
#
#
# Mechanical properties :
#
#
# Convention : Reuss Voigt Hill
#
# Bulk Modulus (GPa) = 47.20309 58.39330 52.79820
# Shear Modulus (GPa) = 18.93214 21.84687 20.38950
#
# Velocity S-wave (km/s) = 3.16647 3.40150 3.28609
# Velocity P-wave (km/s) = 6.19417 6.80826 6.50846
#
# Compressibility (1/GPa) = 0.02118505
#
# Stress axis : x y z
#
# Youngs Moduli (GPa) = 66.66574 31.52266 46.15302
#
# Poissons Ratio (x) = 0.12964 0.39027
# Poissons Ratio (y) = 0.27418 0.50926
# Poissons Ratio (z) = 0.56372 0.34782
#
# Static dielectric constant tensor:
#      x y z
#    x 1.668070 0.000000 0.000000 
#    y 0.000000 1.640010 0.000000 
#    z 0.000000 0.000000 1.689720 
# 
# From -- ./inp_files/66435.got.cif
#   From: 2010.05.17/outbox.cif.g08.bks.cpg/sg71_34_cif.got.tgz:66435.got - 2010.06.03 16:22:01.
