data_PCOD9519859
_publ_section_title
;
Structure prediction by ZEFSAII (Michael W. Deem and Ramdas Pophale) SiO2 
 PCOD9519859
Probable space group: I M M M
;
_chemical_formula_sum "Si O2"
_cell_formula_units_Z 120
_cell_length_a 16.868998
_cell_length_b 31.574753
_cell_length_c 13.464755
_cell_angle_alpha 90.000000
_cell_angle_beta 90.000000
_cell_angle_gamma 90.000000
_cell_volume 7171.792309
_symmetry_space_group_name_H-M "I M M M"
_symmetry_group_IT_number 71
_symmetry_cell_setting 'orthorhombic'
loop_
_space_group_symop_operation_xyz
x,y,z
-x,-y,z
x,-y,-z
-x,y,-z
-x,-y,-z
x,y,-z
-x,y,z
x,-y,z
1/2+x,1/2+y,1/2+z
1/2-x,1/2-y,1/2+z
1/2+x,1/2-y,1/2-z
1/2-x,1/2+y,1/2-z
1/2-x,1/2-y,1/2-z
1/2+x,1/2+y,1/2-z
1/2-x,1/2+y,1/2+z
1/2+x,1/2-y,1/2+z
loop_
_atom_site_type_symbol
_atom_site_label
_atom_site_fract_x
_atom_site_fract_y
_atom_site_fract_z
Si Si1 0.091234 0.500000 0.620304
Si Si2 0.592253 0.676992 0.115600
Si Si3 0.167991 0.886100 0.760442
Si Si4 0.094316 0.814036 0.889858
Si Si5 0.843194 0.251560 0.730509
Si Si6 0.406493 0.449412 0.111348
Si Si7 0.678409 0.913021 0.882977
Si Si8 0.593819 0.174360 0.111877
O O1 0.087555 0.500000 0.500000
O O2 0.138557 0.542609 0.647544
O O3 0.000000 0.500000 0.656247
O O4 0.500000 0.671290 0.151803
O O5 0.656427 0.647618 0.170610
O O6 0.621650 0.724111 0.139128
O O7 0.591170 0.668278 0.000000
O O8 0.122086 0.858822 0.844136
O O9 0.131266 0.927009 0.706510
O O10 0.250119 0.899288 0.810892
O O11 0.119349 0.774044 0.822814
O O12 0.000000 0.814394 0.893750
O O13 0.128145 0.809488 0.000000
O O14 0.750000 0.250000 0.750000
O O15 0.866736 0.298866 0.700065
O O16 0.500000 0.439058 0.112549
O O17 0.398146 0.500000 0.117900
O O18 0.376931 0.436792 0.000000
O O19 0.615182 0.874975 0.878479
O O20 0.703738 0.916398 0.000000
O O21 0.500000 0.180932 0.116108
O O22 0.621671 0.186882 0.000000
#
# Coordination Sequence:
#
# PCOD9519859 Si02
#       8
#     8  16  16  16  16  16  16  16
#     4   9  18  36  58  76 100 135 172 208 250 305
#     4  10  20  34  52  74 101 136 177 217 258 306
#     4  11  19  30  51  74 104 133 167 212 256 304
#     4  10  21  36  51  68  97 143 189 214 240 297
#     4  11  21  32  49  74 105 136 167 213 261 307
#     4   9  18  32  50  73 101 132 167 212 264 310
#     4  10  21  34  51  78 108 136 167 208 258 309
#     4  10  19  33  54  77 101 130 167 213 264 311
#
# _framework density 16.732219000000001
#
# number of rings (size 3 to 8) (size 9 to 14) (size 15 to 20)
#    0.000    1.933    0.000    6.800    0.933    5.867 
#    0.000    0.000    0.000    0.000    0.000    2.800 
#    0.000    8.533    0.000    0.000    0.000    0.133 
#
# Total GULP energy -334043.524172 kJ/mol
# GULP energy per Si atom -5567.392070 kJ/mol
# Density = 1.669414 g / cm^3
# Si number density = 16.732219 Si / 1000 Ang^3
#
#
#
# Elastic Constant Matrix: (Units=GPa)
#
#
# Indices 1 2 3 4 5 6 
#
# 1 72.1279 36.5559 33.9007 0.0000 0.0000 0.0000
# 2 36.5559 91.3308 33.4657 0.0000 0.0000 0.0000
# 3 33.9007 33.4657 83.6916 -0.0002 -0.0001 0.0000
# 4 0.0000 0.0000 -0.0002 21.5052 -0.0001 0.0000
# 5 0.0000 0.0000 -0.0001 -0.0001 20.1142 0.0000
# 6 0.0000 0.0000 0.0000 0.0000 0.0000 29.6780
#
#
#
# Elastic Compliance Matrix: (Units=1/GPa)
#
#
# Indices 1 2 3 4 5 6 
#
# 1 0.019376 -0.005717 -0.005563 0.000000 0.000000 0.000000
# 2 -0.005717 0.014516 -0.003489 0.000000 0.000000 0.000000
# 3 -0.005563 -0.003489 0.015597 0.000000 0.000000 0.000000
# 4 0.000000 0.000000 0.000000 0.046500 0.000000 0.000000
# 5 0.000000 0.000000 0.000000 0.000000 0.049716 0.000000
# 6 0.000000 0.000000 0.000000 0.000000 0.000000 0.033695
#
#
# Mechanical properties :
#
#
# Convention : Reuss Voigt Hill
#
# Bulk Modulus (GPa) = 50.11975 50.55499 50.33737
# Shear Modulus (GPa) = 23.19238 23.80802 23.50020
#
# Velocity S-wave (km/s) = 3.72706 3.77621 3.75172
# Velocity P-wave (km/s) = 6.96709 7.02088 6.99404
#
# Compressibility (1/GPa) = 0.01995221
#
# Stress axis : x y z
#
# Youngs Moduli (GPa) = 51.60935 68.89004 64.11568
#
# Poissons Ratio (x) = 0.39386 0.35665
# Poissons Ratio (y) = 0.29507 0.22367
# Poissons Ratio (z) = 0.28708 0.24033
#
# Static dielectric constant tensor:
#      x y z
#    x 1.549190 0.000000 0.000000 
#    y 0.000000 1.612240 0.000000 
#    z 0.000000 0.000000 1.597210 
# 
# From -- ./inp_files/35472.got.cif
#   From: 2010.05.17/outbox.cif.g08.bks.cpg/sg71_18_cif.got.tgz:35472.got - 2010.06.03 16:22:01.
