data_PCOD9519321
_publ_section_title
;
Structure prediction by ZEFSAII (Michael W. Deem and Ramdas Pophale) SiO2 
 PCOD9519321
Probable space group: I M M M
;
_chemical_formula_sum "Si O2"
_cell_formula_units_Z 80
_cell_length_a 13.646523
_cell_length_b 12.969356
_cell_length_c 28.500501
_cell_angle_alpha 90.000000
_cell_angle_beta 90.000000
_cell_angle_gamma 90.000000
_cell_volume 5044.207196
_symmetry_space_group_name_H-M "I M M M"
_symmetry_group_IT_number 71
_symmetry_cell_setting 'orthorhombic'
loop_
_space_group_symop_operation_xyz
x,y,z
-x,-y,z
x,-y,-z
-x,y,-z
-x,-y,-z
x,y,-z
-x,y,z
x,-y,z
1/2+x,1/2+y,1/2+z
1/2-x,1/2-y,1/2+z
1/2+x,1/2-y,1/2-z
1/2-x,1/2+y,1/2-z
1/2-x,1/2-y,1/2-z
1/2+x,1/2+y,1/2-z
1/2-x,1/2+y,1/2+z
1/2+x,1/2-y,1/2+z
loop_
_atom_site_type_symbol
_atom_site_label
_atom_site_fract_x
_atom_site_fract_y
_atom_site_fract_z
Si Si1 0.381328 0.500000 0.713796
Si Si2 0.116151 0.782826 0.631248
Si Si3 0.384382 0.882161 0.635714
Si Si4 0.771008 0.879181 0.445357
Si Si5 0.382769 0.500000 0.822565
Si Si6 0.776342 0.786523 0.196916
O O1 0.500000 0.500000 0.708795
O O2 0.354421 0.500000 0.768868
O O3 0.333755 0.394556 0.695450
O O4 0.152425 0.799446 0.578085
O O5 0.145688 0.894866 0.652664
O O6 0.179370 0.707452 0.663971
O O7 0.000000 0.766999 0.634680
O O8 0.500000 0.869320 0.628754
O O9 0.325746 0.869627 0.586849
O O10 0.344225 0.800331 0.672893
O O11 0.366491 0.000000 0.652027
O O12 0.753844 0.858462 0.500000
O O13 0.804278 0.000000 0.442021
O O14 0.500000 0.500000 0.823973
O O15 0.750000 0.750000 0.250000
#
# Coordination Sequence:
#
# PCOD9519321 Si02
#       6
#     8  16  16  16   8  16
#     4  11  22  36  53  74 100 138 181 218 253 301
#     4  10  19  32  48  70 103 139 171 205 252 304
#     4   9  19  34  51  73 103 137 172 214 264 310
#     4   9  17  28  46  74 104 135 170 206 251 312
#     4   9  16  28  47  69  96 134 168 196 247 303
#     4  11  22  32  53  73 103 135 178 213 255 298
#
# _framework density 15.859776999999999
#
# number of rings (size 3 to 8) (size 9 to 14) (size 15 to 20)
#    0.000    2.200    3.000    0.600    2.800    1.600 
#    0.000    3.500    0.000    0.000    0.000   11.200 
#    0.000   25.600    0.000    0.000    0.000    0.000 
#
# Total GULP energy -222813.593976 kJ/mol
# GULP energy per Si atom -5570.339849 kJ/mol
# Density = 1.582368 g / cm^3
# Si number density = 15.859777 Si / 1000 Ang^3
#
#
#
# Elastic Constant Matrix: (Units=GPa)
#
#
# Indices 1 2 3 4 5 6 
#
# 1 112.9562 50.0903 50.6711 0.0000 0.0000 0.0000
# 2 50.0903 84.1032 51.9370 0.0000 0.0000 0.0000
# 3 50.6711 51.9370 114.4118 0.0000 0.0000 0.0000
# 4 0.0000 0.0000 0.0000 16.6572 0.0000 0.0000
# 5 0.0000 0.0000 0.0000 0.0000 14.6287 0.0000
# 6 0.0000 0.0000 0.0000 0.0000 0.0000 28.0575
#
#
#
# Elastic Compliance Matrix: (Units=1/GPa)
#
#
# Indices 1 2 3 4 5 6 
#
# 1 0.012756 -0.005709 -0.003058 0.000000 0.000000 0.000000
# 2 -0.005709 0.019077 -0.006131 0.000000 0.000000 0.000000
# 3 -0.003058 -0.006131 0.012878 0.000000 0.000000 0.000000
# 4 0.000000 0.000000 0.000000 0.060034 0.000000 0.000000
# 5 0.000000 0.000000 0.000000 0.000000 0.068359 0.000000
# 6 0.000000 0.000000 0.000000 0.000000 0.000000 0.035641
#
#
# Mechanical properties :
#
#
# Convention : Reuss Voigt Hill
#
# Bulk Modulus (GPa) = 67.04976 68.54088 67.79532
# Shear Modulus (GPa) = 20.53273 22.45352 21.49313
#
# Velocity S-wave (km/s) = 3.60202 3.76673 3.68529
# Velocity P-wave (km/s) = 7.72449 7.88849 7.80692
#
# Compressibility (1/GPa) = 0.01491430
#
# Stress axis : x y z
#
# Youngs Moduli (GPa) = 78.39166 52.41984 77.65155
#
# Poissons Ratio (x) = 0.29927 0.23746
# Poissons Ratio (y) = 0.44754 0.47611
# Poissons Ratio (z) = 0.23972 0.32141
#
# Static dielectric constant tensor:
#      x y z
#    x 1.556160 0.000000 0.000000 
#    y 0.000000 1.535970 0.000000 
#    z 0.000000 0.000000 1.545490 
# 
# From -- ./inp_files/28538.got.cif
#   From: 2010.05.17/outbox.cif.g08.bks.cpg/sg71_15_cif.got.tgz:28538.got - 2010.06.03 16:22:01.
