data_PCOD9519316
_publ_section_title
;
Structure prediction by ZEFSAII (Michael W. Deem and Ramdas Pophale) SiO2 
 PCOD9519316
Probable space group: I M M M
;
_chemical_formula_sum "Si O2"
_cell_formula_units_Z 72
_cell_length_a 19.818153
_cell_length_b 8.701871
_cell_length_c 28.141026
_cell_angle_alpha 90.000000
_cell_angle_beta 90.000000
_cell_angle_gamma 90.000000
_cell_volume 4853.060945
_symmetry_space_group_name_H-M "I M M M"
_symmetry_group_IT_number 71
_symmetry_cell_setting 'orthorhombic'
loop_
_space_group_symop_operation_xyz
x,y,z
-x,-y,z
x,-y,-z
-x,y,-z
-x,-y,-z
x,y,-z
-x,y,z
x,-y,z
1/2+x,1/2+y,1/2+z
1/2-x,1/2-y,1/2+z
1/2+x,1/2-y,1/2-z
1/2-x,1/2+y,1/2-z
1/2-x,1/2-y,1/2-z
1/2+x,1/2+y,1/2-z
1/2-x,1/2+y,1/2+z
1/2+x,1/2-y,1/2+z
loop_
_atom_site_type_symbol
_atom_site_label
_atom_site_fract_x
_atom_site_fract_y
_atom_site_fract_z
Si Si1 0.000000 0.182680 0.734341
Si Si2 0.277814 0.316243 0.675535
Si Si3 0.871337 0.317126 0.901251
Si Si4 0.149148 0.813779 0.274432
Si Si5 0.920325 0.815559 0.000000
Si Si6 0.000000 0.181922 0.847878
O O1 0.072626 0.242016 0.717199
O O2 0.000000 0.198217 0.791342
O O3 0.000000 0.000000 0.724122
O O4 0.278631 0.500000 0.671265
O O5 0.306619 0.242320 0.627736
O O6 0.204159 0.257046 0.690405
O O7 0.326088 0.275355 0.720707
O O8 0.870728 0.500000 0.904146
O O9 0.934701 0.258888 0.870385
O O10 0.883598 0.246928 0.953170
O O11 0.150858 0.000000 0.277735
O O12 0.000000 0.767943 0.000000
O O13 0.919297 0.000000 0.000000
O O14 0.000000 0.000000 0.859223
#
# Coordination Sequence:
#
# PCOD9519316 Si02
#       6
#     8  16  16  16   8   8
#     4   9  16  29  48  68  93 126 162 200 240 285
#     4  10  19  32  48  66  93 128 162 197 240 287
#     4  12  23  34  49  70  95 124 162 206 242 281
#     4   9  17  30  47  68  93 124 162 200 239 283
#     4  11  23  37  53  69  92 127 162 199 242 284
#     4  11  19  32  48  67  93 129 165 197 240 287
#
# _framework density 14.835997000000001
#
# number of rings (size 3 to 8) (size 9 to 14) (size 15 to 20)
#    0.000    1.667    3.333    3.333    0.000    1.333 
#    0.000    0.556    0.000    0.000    0.000    0.000 
#    0.000    0.889    0.000    9.556    0.000    4.222 
#
# Total GULP energy -200880.883979 kJ/mol
# GULP energy per Si atom -5580.024555 kJ/mol
# Density = 1.480223 g / cm^3
# Si number density = 14.835997 Si / 1000 Ang^3
#
#
#
# Elastic Constant Matrix: (Units=GPa)
#
#
# Indices 1 2 3 4 5 6 
#
# 1 130.2131 39.1139 61.2367 0.0000 0.0000 0.0000
# 2 39.1139 64.4524 39.3693 0.0000 0.0000 0.0000
# 3 61.2367 39.3693 76.9512 0.0000 0.0000 0.0000
# 4 0.0000 0.0000 0.0000 18.6609 0.0000 0.0000
# 5 0.0000 0.0000 0.0000 0.0000 22.5418 0.0000
# 6 0.0000 0.0000 0.0000 0.0000 0.0000 21.7573
#
#
#
# Elastic Compliance Matrix: (Units=1/GPa)
#
#
# Indices 1 2 3 4 5 6 
#
# 1 0.012482 -0.002193 -0.008811 0.000000 0.000000 0.000000
# 2 -0.002193 0.022953 -0.009998 0.000000 0.000000 0.000000
# 3 -0.008811 -0.009998 0.025122 0.000000 0.000000 0.000000
# 4 0.000000 0.000000 0.000000 0.053588 0.000000 0.000000
# 5 0.000000 0.000000 0.000000 0.000000 0.044362 0.000000
# 6 0.000000 0.000000 0.000000 0.000000 0.000000 0.045962
#
#
# Mechanical properties :
#
#
# Convention : Reuss Voigt Hill
#
# Bulk Modulus (GPa) = 53.89903 61.22851 57.56377
# Shear Modulus (GPa) = 19.78958 21.38512 20.58735
#
# Velocity S-wave (km/s) = 3.65621 3.80074 3.72918
# Velocity P-wave (km/s) = 7.36428 7.78593 7.57804
#
# Compressibility (1/GPa) = 0.01855321
#
# Stress axis : x y z
#
# Youngs Moduli (GPa) = 80.11427 43.56684 39.80523
#
# Poissons Ratio (x) = 0.09553 0.35073
# Poissons Ratio (y) = 0.17568 0.39798
# Poissons Ratio (z) = 0.70591 0.43559
#
# Static dielectric constant tensor:
#      x y z
#    x 1.490650 0.000000 0.000000 
#    y 0.000000 1.492720 0.000000 
#    z 0.000000 0.000000 1.469910 
# 
# From -- ./inp_files/12341.got.cif
#   From: 2010.05.17/outbox.cif.g08.bks.cpg/sg71_7_cif.got.tgz:12341.got - 2010.06.03 16:22:01.
