data_PCOD9519192
_publ_section_title
;
Structure prediction by ZEFSAII (Michael W. Deem and Ramdas Pophale) SiO2 
 PCOD9519192
Probable space group: I M M M
;
_chemical_formula_sum "Si O2"
_cell_formula_units_Z 128
_cell_length_a 17.952112
_cell_length_b 17.970995
_cell_length_c 23.118624
_cell_angle_alpha 90.000000
_cell_angle_beta 90.000000
_cell_angle_gamma 90.000000
_cell_volume 7458.468401
_symmetry_space_group_name_H-M "I M M M"
_symmetry_group_IT_number 71
_symmetry_cell_setting 'orthorhombic'
loop_
_space_group_symop_operation_xyz
x,y,z
-x,-y,z
x,-y,-z
-x,y,-z
-x,-y,-z
x,y,-z
-x,y,z
x,-y,z
1/2+x,1/2+y,1/2+z
1/2-x,1/2-y,1/2+z
1/2+x,1/2-y,1/2-z
1/2-x,1/2+y,1/2-z
1/2-x,1/2-y,1/2-z
1/2+x,1/2+y,1/2-z
1/2-x,1/2+y,1/2+z
1/2+x,1/2-y,1/2+z
loop_
_atom_site_type_symbol
_atom_site_label
_atom_site_fract_x
_atom_site_fract_y
_atom_site_fract_z
Si Si1 0.159379 0.763263 0.065728
Si Si2 0.089029 0.914087 0.104173
Si Si3 0.086907 0.676848 0.173734
Si Si4 0.415054 0.417446 0.930626
Si Si5 0.584152 0.730662 0.790001
Si Si6 0.306287 0.705731 0.882859
Si Si7 0.135548 0.916039 0.762222
Si Si8 0.277061 0.084980 0.304885
O O1 0.132569 0.848520 0.072059
O O2 0.115309 0.715574 0.114545
O O3 0.246955 0.752021 0.080252
O O4 0.145004 0.737924 0.000000
O O5 0.110685 0.906147 0.171865
O O6 0.000000 0.903049 0.097978
O O7 0.105550 0.000000 0.087125
O O8 0.096947 0.734145 0.226987
O O9 0.136847 0.607383 0.194128
O O10 0.000000 0.659409 0.168154
O O11 0.500000 0.407175 0.909894
O O12 0.388782 0.500000 0.910246
O O13 0.364572 0.347218 0.915444
O O14 0.417181 0.421220 0.000000
O O15 0.500000 0.747476 0.808257
O O16 0.645888 0.753057 0.836767
O O17 0.595378 0.642840 0.778812
O O18 0.257930 0.645704 0.847359
O O19 0.224798 0.906996 0.752116
O O20 0.116186 0.000000 0.745280
O O21 0.268679 0.000000 0.324024
#
# Coordination Sequence:
#
# PCOD9519192 Si02
#       8
#    16  16  16  16  16  16  16  16
#     4  11  23  36  53  75 100 137 180 217 256 303
#     4  10  20  34  53  76 103 134 168 211 260 309
#     4  10  21  35  52  73 100 133 169 211 258 303
#     4   9  17  30  49  73 103 139 175 212 256 306
#     4  10  19  31  50  76 104 134 164 200 252 311
#     4  10  20  32  51  72 106 133 171 210 258 304
#     4   9  17  29  49  76 106 136 163 197 248 309
#     4   9  19  32  49  73  99 130 167 203 247 301
#
# _framework density 17.1617
#
# number of rings (size 3 to 8) (size 9 to 14) (size 15 to 20)
#    0.000    2.250    1.250    2.250    1.750    4.250 
#    0.000    0.625    0.000    3.375    0.000    3.500 
#    0.000    1.500    0.000    6.125    0.000    0.000 
#
# Total GULP energy -356521.283064 kJ/mol
# GULP energy per Si atom -5570.645048 kJ/mol
# Density = 1.712264 g / cm^3
# Si number density = 17.161700 Si / 1000 Ang^3
#
#
#
# Elastic Constant Matrix: (Units=GPa)
#
#
# Indices 1 2 3 4 5 6 
#
# 1 104.8613 34.6823 39.0868 0.0000 0.0000 0.0000
# 2 34.6823 46.4913 16.7199 0.0000 0.0000 0.0000
# 3 39.0868 16.7199 54.7303 0.0000 0.0000 0.0000
# 4 0.0000 0.0000 0.0000 16.3696 0.0000 0.0000
# 5 0.0000 0.0000 0.0000 0.0000 16.1515 0.0000
# 6 0.0000 0.0000 0.0000 0.0000 0.0000 7.4275
#
#
#
# Elastic Compliance Matrix: (Units=1/GPa)
#
#
# Indices 1 2 3 4 5 6 
#
# 1 0.015516 -0.008526 -0.008476 0.000000 0.000000 0.000000
# 2 -0.008526 0.028850 -0.002724 0.000000 0.000000 0.000000
# 3 -0.008476 -0.002724 0.025157 0.000000 0.000000 0.000000
# 4 0.000000 0.000000 0.000000 0.061089 0.000000 0.000000
# 5 0.000000 0.000000 0.000000 0.000000 0.061914 0.000000
# 6 0.000000 0.000000 0.000000 0.000000 0.000000 0.134634
#
#
# Mechanical properties :
#
#
# Convention : Reuss Voigt Hill
#
# Bulk Modulus (GPa) = 33.25669 43.00678 38.13173
# Shear Modulus (GPa) = 13.27540 15.69599 14.48570
#
# Velocity S-wave (km/s) = 2.78429 3.02751 2.90844
# Velocity P-wave (km/s) = 5.45499 6.11025 5.79189
#
# Compressibility (1/GPa) = 0.03006914
#
# Stress axis : x y z
#
# Youngs Moduli (GPa) = 64.44962 34.66228 39.75020
#
# Poissons Ratio (x) = 0.29555 0.33693
# Poissons Ratio (y) = 0.54953 0.10828
# Poissons Ratio (z) = 0.54629 0.09442
#
# Static dielectric constant tensor:
#      x y z
#    x 1.621610 0.000000 0.000000 
#    y 0.000000 1.596480 0.000000 
#    z 0.000000 0.000000 1.603590 
# 
# From -- ./inp_files/60894.got.cif
#   From: 2010.05.17/outbox.cif.g08.bks.cpg/sg71_31_cif.got.tgz:60894.got - 2010.06.03 16:22:01.
