data_PCOD9519792
_publ_section_title
;
Structure prediction by ZEFSAII (Michael W. Deem and Ramdas Pophale) SiO2 
 PCOD9519792
Probable space group: I M M M
;
_chemical_formula_sum "Si O2"
_cell_formula_units_Z 104
_cell_length_a 20.369702
_cell_length_b 8.452650
_cell_length_c 32.684263
_cell_angle_alpha 90.000000
_cell_angle_beta 90.000000
_cell_angle_gamma 90.000000
_cell_volume 5627.509780
_symmetry_space_group_name_H-M "I M M M"
_symmetry_group_IT_number 71
_symmetry_cell_setting 'orthorhombic'
loop_
_space_group_symop_operation_xyz
x,y,z
-x,-y,z
x,-y,-z
-x,y,-z
-x,-y,-z
x,y,-z
-x,y,z
x,-y,z
1/2+x,1/2+y,1/2+z
1/2-x,1/2-y,1/2+z
1/2+x,1/2-y,1/2-z
1/2-x,1/2+y,1/2-z
1/2-x,1/2-y,1/2-z
1/2+x,1/2+y,1/2-z
1/2-x,1/2+y,1/2+z
1/2+x,1/2-y,1/2+z
loop_
_atom_site_type_symbol
_atom_site_label
_atom_site_fract_x
_atom_site_fract_y
_atom_site_fract_z
Si Si1 0.573699 0.807064 0.845123
Si Si2 0.076185 0.810363 0.500000
Si Si3 0.199548 0.311476 0.097352
Si Si4 0.207435 0.187720 0.188590
Si Si5 0.841673 0.310353 0.422506
Si Si6 0.573221 0.192791 0.452469
Si Si7 0.846089 0.309493 0.268925
O O1 0.500000 0.754866 0.854418
O O2 0.624067 0.755445 0.880193
O O3 0.596870 0.759409 0.799925
O O4 0.574641 0.000000 0.845422
O O5 0.115678 0.752160 0.460246
O O6 0.000000 0.754594 0.500000
O O7 0.075457 0.000000 0.500000
O O8 0.202110 0.500000 0.092886
O O9 0.196990 0.268657 0.145195
O O10 0.266307 0.243327 0.078073
O O11 0.133952 0.251693 0.074730
O O12 0.156570 0.234533 0.224163
O O13 0.278542 0.232570 0.207341
O O14 0.207817 0.000000 0.182290
O O15 0.843351 0.500000 0.423283
O O16 0.582219 0.237245 0.500000
O O17 0.500000 0.244270 0.439366
O O18 0.573211 0.000000 0.451130
O O19 0.847250 0.500000 0.264402
#
# Coordination Sequence:
#
# PCOD9519792 Si02
#       7
#    16   8  16  16  16  16  16
#     4   9  17  32  55  80 107 141 185 233 274 321
#     4  11  25  43  59  81 116 155 196 243 289 330
#     4  11  21  33  56  87 115 145 183 231 284 333
#     4  10  19  33  52  76 107 142 179 223 274 329
#     4  11  22  38  58  84 115 151 193 233 281 341
#     4   8  16  33  56  81 108 139 179 226 275 330
#     4   9  17  32  52  76 103 135 180 227 273 323
#
# _framework density 18.480643000000001
#
# number of rings (size 3 to 8) (size 9 to 14) (size 15 to 20)
#    0.000    2.231    1.538    2.538    1.077    1.846 
#    0.000    0.769    0.000    8.769    0.000    4.308 
#    0.000    0.000    0.000    0.000    0.000    0.000 
#
# Total GULP energy -290126.802558 kJ/mol
# GULP energy per Si atom -5579.361588 kJ/mol
# Density = 1.843858 g / cm^3
# Si number density = 18.480643 Si / 1000 Ang^3
#
#
#
# Elastic Constant Matrix: (Units=GPa)
#
#
# Indices 1 2 3 4 5 6 
#
# 1 147.2587 24.7004 72.6359 0.0000 0.0000 0.0000
# 2 24.7004 23.1881 20.4493 0.0000 0.0000 0.0000
# 3 72.6359 20.4493 98.7818 0.0000 0.0000 0.0000
# 4 0.0000 0.0000 0.0000 25.1984 0.0000 0.0000
# 5 0.0000 0.0000 0.0000 0.0000 26.1603 0.0000
# 6 0.0000 0.0000 0.0000 0.0000 0.0000 11.3818
#
#
#
# Elastic Compliance Matrix: (Units=1/GPa)
#
#
# Indices 1 2 3 4 5 6 
#
# 1 0.011246 -0.005734 -0.007082 0.000000 0.000000 0.000000
# 2 -0.005734 0.055680 -0.007311 0.000000 0.000000 0.000000
# 3 -0.007082 -0.007311 0.016845 0.000000 0.000000 0.000000
# 4 0.000000 0.000000 0.000000 0.039685 0.000000 0.000000
# 5 0.000000 0.000000 0.000000 0.000000 0.038226 0.000000
# 6 0.000000 0.000000 0.000000 0.000000 0.000000 0.087860
#
#
# Mechanical properties :
#
#
# Convention : Reuss Voigt Hill
#
# Bulk Modulus (GPa) = 22.97924 56.08888 39.53406
# Shear Modulus (GPa) = 16.43113 22.64428 19.53770
#
# Velocity S-wave (km/s) = 2.98501 3.50422 3.25499
# Velocity P-wave (km/s) = 4.93372 6.84023 5.96365
#
# Compressibility (1/GPa) = 0.04351753
#
# Stress axis : x y z
#
# Youngs Moduli (GPa) = 88.92141 17.95970 59.36648
#
# Poissons Ratio (x) = 0.10297 0.42046
# Poissons Ratio (y) = 0.50983 0.43401
# Poissons Ratio (z) = 0.62977 0.13130
#
# Static dielectric constant tensor:
#      x y z
#    x 1.642970 0.000000 0.000000 
#    y 0.000000 1.635850 0.000000 
#    z 0.000000 0.000000 1.623710 
# 
# From -- ./inp_files/70760.got.cif
#   From: 2010.05.17/outbox.cif.g08.bks.cpg/sg71_36_cif.got.tgz:70760.got - 2010.06.03 16:22:01.
