data_PCOD9519086
_publ_section_title
;
Structure prediction by ZEFSAII (Michael W. Deem and Ramdas Pophale) SiO2 
 PCOD9519086
Probable space group: I M M M
;
_chemical_formula_sum "Si O2"
_cell_formula_units_Z 120
_cell_length_a 14.148598
_cell_length_b 18.479605
_cell_length_c 27.704158
_cell_angle_alpha 90.000000
_cell_angle_beta 90.000000
_cell_angle_gamma 90.000000
_cell_volume 7243.543068
_symmetry_space_group_name_H-M "I M M M"
_symmetry_group_IT_number 71
_symmetry_cell_setting 'orthorhombic'
loop_
_space_group_symop_operation_xyz
x,y,z
-x,-y,z
x,-y,-z
-x,y,-z
-x,-y,-z
x,y,-z
-x,y,z
x,-y,z
1/2+x,1/2+y,1/2+z
1/2-x,1/2-y,1/2+z
1/2+x,1/2-y,1/2-z
1/2-x,1/2+y,1/2-z
1/2-x,1/2-y,1/2-z
1/2+x,1/2+y,1/2-z
1/2-x,1/2+y,1/2+z
1/2+x,1/2-y,1/2+z
loop_
_atom_site_type_symbol
_atom_site_label
_atom_site_fract_x
_atom_site_fract_y
_atom_site_fract_z
Si Si1 0.386593 0.418031 0.000000
Si Si2 0.889387 0.191222 0.305173
Si Si3 0.886598 0.198970 0.418959
Si Si4 0.241067 0.828091 0.946390
Si Si5 0.113207 0.085030 0.126365
Si Si6 0.797210 0.917959 0.767883
Si Si7 0.608264 0.859439 0.197408
Si Si8 0.896241 0.583599 0.589871
O O1 0.364478 0.369411 0.046890
O O2 0.347759 0.500000 0.000000
O O3 0.500000 0.424301 0.000000
O O4 0.875727 0.181533 0.362485
O O5 0.830006 0.137918 0.272341
O O6 0.869620 0.275307 0.293717
O O7 0.000000 0.178489 0.295015
O O8 0.810696 0.261356 0.432235
O O9 0.000000 0.218525 0.426336
O O10 0.162996 0.856062 0.908357
O O11 0.314659 0.894394 0.945649
O O12 0.202341 0.815696 0.000000
O O13 0.151807 0.096437 0.180677
O O14 0.000000 0.091960 0.125047
O O15 0.136200 0.000000 0.113794
O O16 0.686070 0.908184 0.777521
O O17 0.819972 0.000000 0.753785
O O18 0.500000 0.874585 0.211390
O O19 0.614124 0.872680 0.139806
O O20 0.890586 0.500000 0.603390
O O21 0.000000 0.598191 0.569526
#
# Coordination Sequence:
#
# PCOD9519086 Si02
#       8
#     8  16  16  16  16  16  16  16
#     4   9  18  32  52  78 110 149 180 204 254 331
#     4  10  20  33  53  79 106 140 183 228 271 314
#     4  10  19  34  55  81 114 144 172 217 273 324
#     4  12  22  33  53  78 104 138 184 227 267 316
#     4  10  22  39  54  71 104 149 190 229 275 321
#     4  11  21  35  56  80 108 142 182 228 274 325
#     4  10  19  33  54  77 104 141 180 219 266 327
#     4  10  19  31  48  73 104 136 173 213 258 319
#
# _framework density 16.566478
#
# number of rings (size 3 to 8) (size 9 to 14) (size 15 to 20)
#    0.000    1.667    3.333    2.000    0.000    4.267 
#    0.000    2.667    0.000    0.000    0.000    0.000 
#    0.000    1.067    0.000    0.000    0.000    0.133 
#
# Total GULP energy -334512.829388 kJ/mol
# GULP energy per Si atom -5575.213823 kJ/mol
# Density = 1.652877 g / cm^3
# Si number density = 16.566478 Si / 1000 Ang^3
#
#
#
# Elastic Constant Matrix: (Units=GPa)
#
#
# Indices 1 2 3 4 5 6 
#
# 1 65.6541 41.7551 32.9238 0.0000 0.0000 0.0000
# 2 41.7551 89.0280 43.9758 0.0000 0.0000 0.0000
# 3 32.9238 43.9758 67.3394 0.0000 0.0000 0.0000
# 4 0.0000 0.0000 0.0000 19.7519 0.0000 0.0000
# 5 0.0000 0.0000 0.0000 0.0000 17.3829 0.0000
# 6 0.0000 0.0000 0.0000 0.0000 0.0000 15.8832
#
#
#
# Elastic Compliance Matrix: (Units=1/GPa)
#
#
# Indices 1 2 3 4 5 6 
#
# 1 0.023389 -0.007855 -0.006306 0.000000 0.000000 0.000000
# 2 -0.007855 0.019219 -0.008711 0.000000 0.000000 0.000000
# 3 -0.006306 -0.008711 0.023622 0.000000 0.000000 0.000000
# 4 0.000000 0.000000 0.000000 0.050628 0.000000 0.000000
# 5 0.000000 0.000000 0.000000 0.000000 0.057528 0.000000
# 6 0.000000 0.000000 0.000000 0.000000 0.000000 0.062960
#
#
# Mechanical properties :
#
#
# Convention : Reuss Voigt Hill
#
# Bulk Modulus (GPa) = 48.81089 51.03677 49.92383
# Shear Modulus (GPa) = 17.24631 17.49471 17.37051
#
# Velocity S-wave (km/s) = 3.23001 3.25319 3.24162
# Velocity P-wave (km/s) = 6.59077 6.70709 6.64919
#
# Compressibility (1/GPa) = 0.02048723
#
# Stress axis : x y z
#
# Youngs Moduli (GPa) = 42.75479 52.03158 42.33414
#
# Poissons Ratio (x) = 0.40871 0.26695
# Poissons Ratio (y) = 0.33584 0.36875
# Poissons Ratio (z) = 0.26960 0.45322
#
# Static dielectric constant tensor:
#      x y z
#    x 1.563890 0.000000 0.000000 
#    y 0.000000 1.578380 0.000000 
#    z 0.000000 0.000000 1.563110 
# 
# From -- ./inp_files/60222.got.cif
#   From: 2010.05.17/outbox.cif.g08.bks.cpg/sg71_31_cif.got.tgz:60222.got - 2010.06.03 16:22:01.
