data_PCOD9519592
_publ_section_title
;
Structure prediction by ZEFSAII (Michael W. Deem and Ramdas Pophale) SiO2 
 PCOD9519592
Probable space group: I M M M
;
_chemical_formula_sum "Si O2"
_cell_formula_units_Z 88
_cell_length_a 29.471453
_cell_length_b 19.742245
_cell_length_c 9.207183
_cell_angle_alpha 90.000000
_cell_angle_beta 90.000000
_cell_angle_gamma 90.000000
_cell_volume 5357.039644
_symmetry_space_group_name_H-M "I M M M"
_symmetry_group_IT_number 71
_symmetry_cell_setting 'orthorhombic'
loop_
_space_group_symop_operation_xyz
x,y,z
-x,-y,z
x,-y,-z
-x,y,-z
-x,-y,-z
x,y,-z
-x,y,z
x,-y,z
1/2+x,1/2+y,1/2+z
1/2-x,1/2-y,1/2+z
1/2+x,1/2-y,1/2-z
1/2-x,1/2+y,1/2-z
1/2-x,1/2-y,1/2-z
1/2+x,1/2+y,1/2-z
1/2-x,1/2+y,1/2+z
1/2+x,1/2-y,1/2+z
loop_
_atom_site_type_symbol
_atom_site_label
_atom_site_fract_x
_atom_site_fract_y
_atom_site_fract_z
Si Si1 0.947996 0.817387 0.823346
Si Si2 0.394200 0.183556 0.665153
Si Si3 0.787370 0.155991 0.329638
Si Si4 0.696826 0.817753 0.169436
Si Si5 0.130273 0.920583 0.825167
Si Si6 0.946071 0.577444 0.000000
O O1 0.922979 0.747646 0.779767
O O2 0.915118 0.879304 0.782474
O O3 0.000000 0.822059 0.771582
O O4 0.950027 0.815844 0.000000
O O5 0.377448 0.201907 0.500000
O O6 0.351676 0.165587 0.762643
O O7 0.426560 0.119718 0.635729
O O8 0.785395 0.139446 0.500000
O O9 0.738399 0.148334 0.254878
O O10 0.798712 0.236053 0.315634
O O11 0.826490 0.113492 0.251021
O O12 0.699694 0.834444 0.000000
O O13 0.126833 0.000000 0.790488
O O14 0.135191 0.913904 0.000000
O O15 0.931035 0.500000 0.000000
O O16 0.000000 0.580308 0.000000
#
# Coordination Sequence:
#
# PCOD9519592 Si02
#       6
#    16  16  16  16  16   8
#     4   9  16  28  49  76 103 134 177 221 260 306
#     4   9  17  29  53  79 104 136 171 211 259 308
#     4  10  20  33  52  75 102 136 176 218 264 318
#     4  10  19  32  53  80 105 130 172 221 265 312
#     4  10  20  33  50  74 106 142 179 223 269 311
#     4   9  18  32  54  84 111 135 171 213 259 319
#
# _framework density 16.426981999999999
#
# number of rings (size 3 to 8) (size 9 to 14) (size 15 to 20)
#    0.545    1.909    1.818    1.636    0.000    2.182 
#    0.000    2.727    0.000    5.455    0.000    2.545 
#    0.000    0.000    0.000    0.000    0.000    0.000 
#
# Total GULP energy -245084.442353 kJ/mol
# GULP energy per Si atom -5570.100963 kJ/mol
# Density = 1.638959 g / cm^3
# Si number density = 16.426982 Si / 1000 Ang^3
#
#
#
# Elastic Constant Matrix: (Units=GPa)
#
#
# Indices 1 2 3 4 5 6 
#
# 1 151.5082 68.0913 41.2816 0.0000 0.0000 0.0000
# 2 68.0913 88.4110 32.3415 0.0000 0.0000 0.0000
# 3 41.2816 32.3415 36.9229 0.0000 0.0000 0.0000
# 4 0.0000 0.0000 0.0000 11.8927 0.0000 0.0000
# 5 0.0000 0.0000 0.0000 0.0000 27.8483 0.0000
# 6 0.0000 0.0000 0.0000 0.0000 0.0000 22.3464
#
#
#
# Elastic Compliance Matrix: (Units=1/GPa)
#
#
# Indices 1 2 3 4 5 6 
#
# 1 0.011314 -0.006013 -0.007383 0.000000 0.000000 0.000000
# 2 -0.006013 0.019840 -0.010655 0.000000 0.000000 0.000000
# 3 -0.007383 -0.010655 0.044671 0.000000 0.000000 0.000000
# 4 0.000000 0.000000 0.000000 0.084085 0.000000 0.000000
# 5 0.000000 0.000000 0.000000 0.000000 0.035909 0.000000
# 6 0.000000 0.000000 0.000000 0.000000 0.000000 0.044750
#
#
# Mechanical properties :
#
#
# Convention : Reuss Voigt Hill
#
# Bulk Modulus (GPa) = 36.07145 62.25232 49.16189
# Shear Modulus (GPa) = 16.78348 21.42598 19.10473
#
# Velocity S-wave (km/s) = 3.19987 3.61545 3.41399
# Velocity P-wave (km/s) = 5.97148 7.44361 6.74781
#
# Compressibility (1/GPa) = 0.02772275
#
# Stress axis : x y z
#
# Youngs Moduli (GPa) = 88.38251 50.40408 22.38602
#
# Poissons Ratio (x) = 0.30309 0.16528
# Poissons Ratio (y) = 0.53147 0.23852
# Poissons Ratio (z) = 0.65253 0.53705
#
# Static dielectric constant tensor:
#      x y z
#    x 1.538490 0.000000 0.000000 
#    y 0.000000 1.545760 0.000000 
#    z 0.000000 0.000000 1.549300 
# 
# From -- ./inp_files/16873.got.cif
#   From: 2010.05.17/outbox.cif.g08.bks.cpg/sg71_9_cif.got.tgz:16873.got - 2010.06.03 16:22:01.
