data_PCOD9519823
_publ_section_title
;
Structure prediction by ZEFSAII (Michael W. Deem and Ramdas Pophale) SiO2 
 PCOD9519823
Probable space group: I M M M
;
_chemical_formula_sum "Si O2"
_cell_formula_units_Z 104
_cell_length_a 21.601497
_cell_length_b 30.916097
_cell_length_c 7.623845
_cell_angle_alpha 90.000000
_cell_angle_beta 90.000000
_cell_angle_gamma 90.000000
_cell_volume 5091.462723
_symmetry_space_group_name_H-M "I M M M"
_symmetry_group_IT_number 71
_symmetry_cell_setting 'orthorhombic'
loop_
_space_group_symop_operation_xyz
x,y,z
-x,-y,z
x,-y,-z
-x,y,-z
-x,-y,-z
x,y,-z
-x,y,z
x,-y,z
1/2+x,1/2+y,1/2+z
1/2-x,1/2-y,1/2+z
1/2+x,1/2-y,1/2-z
1/2-x,1/2+y,1/2-z
1/2-x,1/2-y,1/2-z
1/2+x,1/2+y,1/2-z
1/2-x,1/2+y,1/2+z
1/2+x,1/2-y,1/2+z
loop_
_atom_site_type_symbol
_atom_site_label
_atom_site_fract_x
_atom_site_fract_y
_atom_site_fract_z
Si Si1 0.500000 0.947635 0.300039
Si Si2 0.858838 0.866095 0.705071
Si Si3 0.136109 0.450187 0.784776
Si Si4 0.928305 0.047684 0.211895
Si Si5 0.814083 0.275375 0.208201
Si Si6 0.430748 0.283824 0.790901
Si Si7 0.280955 0.130094 0.715377
O O1 0.500000 0.930685 0.500000
O O2 0.566944 0.936997 0.222629
O O3 0.500000 0.000000 0.308820
O O4 0.851203 0.855090 0.500000
O O5 0.889133 0.912808 0.719473
O O6 0.903635 0.829242 0.780900
O O7 0.789797 0.867582 0.778367
O O8 0.149264 0.500000 0.731645
O O9 0.184538 0.413694 0.729414
O O10 0.134219 0.450726 0.000000
O O11 0.000000 0.052356 0.264999
O O12 0.906614 0.000000 0.268027
O O13 0.926673 0.048798 0.000000
O O14 0.750000 0.250000 0.250000
O O15 0.875908 0.250535 0.264496
O O16 0.811537 0.324797 0.273390
O O17 0.816162 0.277546 0.000000
O O18 0.500000 0.273934 0.722085
O O19 0.437344 0.288418 0.000000
O O20 0.281317 0.129190 0.500000
#
# Coordination Sequence:
#
# PCOD9519823 Si02
#       7
#     8  16  16  16  16  16  16
#     4   7  10  18  34  56  84 122 163 193 231 297
#     4  10  19  33  53  76 102 134 174 217 267 320
#     4   8  13  23  40  63  93 130 167 203 250 306
#     4   9  19  35  51  70 102 139 172 213 264 312
#     4  11  21  37  58  79 109 145 183 223 270 328
#     4  10  21  38  58  80 109 142 178 227 281 329
#     4   9  18  31  47  71 103 134 167 213 262 310
#
# _framework density 20.426351
#
# number of rings (size 3 to 8) (size 9 to 14) (size 15 to 20)
#    0.000    2.692    1.538    2.308    0.000    2.769 
#    1.385    2.308    0.000    0.000    0.000    0.000 
#    0.000    0.000    0.000    1.692    0.000    1.385 
#
# Total GULP energy -289933.495856 kJ/mol
# GULP energy per Si atom -5575.644151 kJ/mol
# Density = 2.037986 g / cm^3
# Si number density = 20.426351 Si / 1000 Ang^3
#
#
#
# Elastic Constant Matrix: (Units=GPa)
#
#
# Indices 1 2 3 4 5 6 
#
# 1 178.9864 103.9666 9.6481 0.0000 0.0000 0.0000
# 2 103.9666 158.0209 0.4619 0.0000 0.0000 0.0000
# 3 9.6481 0.4619 39.4680 0.0000 0.0000 0.0000
# 4 0.0000 0.0000 0.0000 16.3907 0.0000 0.0000
# 5 0.0000 0.0000 0.0000 0.0000 -68.3253 0.0000
# 6 0.0000 0.0000 0.0000 0.0000 0.0000 23.2758
#
#
#
# Elastic Compliance Matrix: (Units=1/GPa)
#
#
# Indices 1 2 3 4 5 6 
#
# 1 0.009228 -0.006065 -0.002185 0.000000 0.000000 0.000000
# 2 -0.006065 0.010314 0.001362 0.000000 0.000000 0.000000
# 3 -0.002185 0.001362 0.025855 0.000000 0.000000 0.000000
# 4 0.000000 0.000000 0.000000 0.061010 0.000000 0.000000
# 5 0.000000 0.000000 0.000000 0.000000 -0.014636 0.000000
# 6 0.000000 0.000000 0.000000 0.000000 0.000000 0.042963
#
#
# Mechanical properties :
#
#
# Convention : Reuss Voigt Hill
#
# Bulk Modulus (GPa) = 31.62364 67.18094 49.40229
# Shear Modulus (GPa) = 31.43658 11.76148 21.59903
#
# Velocity S-wave (km/s) = 3.92729 2.40219 3.25531
# Velocity P-wave (km/s) = 6.00668 6.37611 6.19415
#
# Compressibility (1/GPa) = 0.03162191
#
# Stress axis : x y z
#
# Youngs Moduli (GPa) = 108.37140 96.95160 38.67706
#
# Poissons Ratio (x) = 0.58798 0.08450
# Poissons Ratio (y) = 0.65724 -0.05267
# Poissons Ratio (z) = 0.23676 -0.13203
#
# Static dielectric constant tensor:
#      x y z
#    x 1.712810 0.000000 0.000000 
#    y 0.000000 1.711540 0.000000 
#    z 0.000000 0.000000 1.777650 
# 
# From -- ./inp_files/11493.got.cif
#   From: 2010.05.17/outbox.cif.g08.bks.cpg/sg71_6_cif.got.tgz:11493.got - 2010.06.03 16:22:01.
