data_PCOD9519595
_publ_section_title
;
Structure prediction by ZEFSAII (Michael W. Deem and Ramdas Pophale) SiO2 
 PCOD9519595
Probable space group: I M M M
;
_chemical_formula_sum "Si O2"
_cell_formula_units_Z 120
_cell_length_a 18.724491
_cell_length_b 20.192551
_cell_length_c 14.425708
_cell_angle_alpha 90.000000
_cell_angle_beta 90.000000
_cell_angle_gamma 90.000000
_cell_volume 5454.291521
_symmetry_space_group_name_H-M "I M M M"
_symmetry_group_IT_number 71
_symmetry_cell_setting 'orthorhombic'
loop_
_space_group_symop_operation_xyz
x,y,z
-x,-y,z
x,-y,-z
-x,y,-z
-x,-y,-z
x,y,-z
-x,y,z
x,-y,z
1/2+x,1/2+y,1/2+z
1/2-x,1/2-y,1/2+z
1/2+x,1/2-y,1/2-z
1/2-x,1/2+y,1/2-z
1/2-x,1/2-y,1/2-z
1/2+x,1/2+y,1/2-z
1/2-x,1/2+y,1/2+z
1/2+x,1/2-y,1/2+z
loop_
_atom_site_type_symbol
_atom_site_label
_atom_site_fract_x
_atom_site_fract_y
_atom_site_fract_z
Si Si1 0.577401 0.790535 0.894261
Si Si2 0.284166 0.284169 0.885705
Si Si3 0.228342 0.071482 0.394120
Si Si4 0.301423 0.575198 0.388107
Si Si5 0.135847 0.426929 0.349154
Si Si6 0.000000 0.303616 0.868279
Si Si7 0.364054 0.713956 0.612888
Si Si8 0.895876 0.426666 0.866674
O O1 0.500000 0.781777 0.847471
O O2 0.647376 0.757025 0.852879
O O3 0.595051 0.867938 0.897708
O O4 0.572309 0.765964 0.000000
O O5 0.294769 0.359216 0.852166
O O6 0.208611 0.252538 0.858565
O O7 0.283159 0.283823 0.000000
O O8 0.201524 0.069837 0.500000
O O9 0.314032 0.076909 0.398041
O O10 0.211416 0.000000 0.350148
O O11 0.292735 0.578491 0.500000
O O12 0.325150 0.500000 0.366001
O O13 0.221113 0.584808 0.349194
O O14 0.351611 0.636685 0.362225
O O15 0.124500 0.500000 0.388928
O O16 0.107136 0.426440 0.244835
O O17 0.935758 0.248921 0.853651
O O18 0.939185 0.361767 0.891529
O O19 0.368074 0.717136 0.500000
O O20 0.921929 0.500000 0.894747
#
# Coordination Sequence:
#
# PCOD9519595 Si02
#       8
#    16  16  16  16  16   8  16  16
#     4  10  20  33  52  77 105 137 173 212 262 329
#     4   9  16  31  51  73 104 133 166 219 273 316
#     4   9  17  32  54  75  96 129 174 221 267 315
#     4   9  17  33  58  84 109 141 182 225 272 329
#     4  10  20  34  54  76 107 145 174 212 268 326
#     4  12  22  34  49  70 105 149 186 216 265 324
#     4  10  19  32  53  80 107 139 180 229 275 318
#     4  10  22  36  50  73 107 142 177 220 271 324
#
# _framework density 22.001024000000001
#
# number of rings (size 3 to 8) (size 9 to 14) (size 15 to 20)
#    0.000    2.267    2.667    0.800    0.933    1.600 
#    0.000    3.667    0.000    5.200    0.000    2.800 
#    0.000    1.067    0.000    0.000    0.000    0.000 
#
# Total GULP energy -334031.252662 kJ/mol
# GULP energy per Si atom -5567.187544 kJ/mol
# Density = 2.195095 g / cm^3
# Si number density = 22.001024 Si / 1000 Ang^3
#
#
#
# Elastic Constant Matrix: (Units=GPa)
#
#
# Indices 1 2 3 4 5 6 
#
# 1 150.2247 95.8648 13.8150 0.0000 0.0000 0.0000
# 2 95.8648 187.1640 14.3331 0.0000 0.0000 0.0000
# 3 13.8150 14.3331 66.3096 0.0000 0.0000 0.0000
# 4 0.0000 0.0000 0.0000 -5.1487 0.0000 0.0000
# 5 0.0000 0.0000 0.0000 0.0000 10.0966 0.0000
# 6 0.0000 0.0000 0.0000 0.0000 0.0000 42.2779
#
#
#
# Elastic Compliance Matrix: (Units=1/GPa)
#
#
# Indices 1 2 3 4 5 6 
#
# 1 0.009952 -0.005022 -0.000988 0.000000 0.000000 0.000000
# 2 -0.005022 0.007967 -0.000676 0.000000 0.000000 0.000000
# 3 -0.000988 -0.000676 0.015433 0.000000 0.000000 0.000000
# 4 0.000000 0.000000 0.000000 -0.194224 0.000000 0.000000
# 5 0.000000 0.000000 0.000000 0.000000 0.099043 0.000000
# 6 0.000000 0.000000 0.000000 0.000000 0.000000 0.023653
#
#
# Mechanical properties :
#
#
# Convention : Reuss Voigt Hill
#
# Bulk Modulus (GPa) = 50.04873 72.41378 61.23126
# Shear Modulus (GPa) = -275.56563 28.09084 -123.73739
#
# Velocity S-wave (km/s) = -11.20371 3.57711 -7.50758
# Velocity P-wave (km/s) = 12.02358 7.07433 6.87460
#
# Compressibility (1/GPa) = 0.01998053
#
# Stress axis : x y z
#
# Youngs Moduli (GPa) = 100.48040 125.52051 64.79751
#
# Poissons Ratio (x) = 0.63034 0.06402
# Poissons Ratio (y) = 0.50459 0.04379
# Poissons Ratio (z) = 0.09927 0.08483
#
# Static dielectric constant tensor:
#      x y z
#    x 1.759050 0.000000 0.000000 
#    y 0.000000 1.830250 0.000000 
#    z 0.000000 0.000000 1.928970 
# 
# From -- ./inp_files/46496.got.cif
#   From: 2010.05.17/outbox.cif.g08.bks.cpg/sg71_24_cif.got.tgz:46496.got - 2010.06.03 16:22:01.
