data_PCOD9519002
_publ_section_title
;
Structure prediction by ZEFSAII (Michael W. Deem and Ramdas Pophale) SiO2 
 PCOD9519002
Probable space group: I M M M
;
_chemical_formula_sum "Si O2"
_cell_formula_units_Z 88
_cell_length_a 31.320691
_cell_length_b 8.353245
_cell_length_c 20.835310
_cell_angle_alpha 90.000000
_cell_angle_beta 90.000000
_cell_angle_gamma 90.000000
_cell_volume 5451.129769
_symmetry_space_group_name_H-M "I M M M"
_symmetry_group_IT_number 71
_symmetry_cell_setting 'orthorhombic'
loop_
_space_group_symop_operation_xyz
x,y,z
-x,-y,z
x,-y,-z
-x,y,-z
-x,-y,-z
x,y,-z
-x,y,z
x,-y,z
1/2+x,1/2+y,1/2+z
1/2-x,1/2-y,1/2+z
1/2+x,1/2-y,1/2-z
1/2-x,1/2+y,1/2-z
1/2-x,1/2-y,1/2-z
1/2+x,1/2+y,1/2-z
1/2-x,1/2+y,1/2+z
1/2+x,1/2-y,1/2+z
loop_
_atom_site_type_symbol
_atom_site_label
_atom_site_fract_x
_atom_site_fract_y
_atom_site_fract_z
Si Si1 0.051891 0.818935 0.000000
Si Si2 0.226591 0.192636 0.430007
Si Si3 0.951425 0.309447 0.140475
Si Si4 0.675909 0.693442 0.569323
Si Si5 0.630401 0.693004 0.301678
Si Si6 0.292596 0.305719 0.211857
O O1 0.062782 0.742343 0.068551
O O2 0.000000 0.820717 0.000000
O O3 0.068555 0.000000 0.000000
O O4 0.209997 0.250155 0.500000
O O5 0.276262 0.240228 0.427755
O O6 0.207740 0.249954 0.362238
O O7 0.223114 0.000000 0.430091
O O8 0.952365 0.500000 0.141675
O O9 0.918190 0.249711 0.193747
O O10 0.000000 0.248791 0.150046
O O11 0.657254 0.739467 0.500000
O O12 0.677994 0.500000 0.571830
O O13 0.650802 0.749770 0.631123
O O14 0.630022 0.500000 0.300869
O O15 0.663902 0.746005 0.247458
O O16 0.291426 0.500000 0.212731
O O17 0.250000 0.250000 0.250000
#
# Coordination Sequence:
#
# PCOD9519002 Si02
#       6
#     8  16  16  16  16  16
#     4   9  17  31  51  69  87 117 153 191 235 275
#     4   9  17  29  45  64  88 120 154 187 224 266
#     4  10  21  35  48  65  89 116 151 194 236 277
#     4   9  17  28  41  60  87 117 150 187 222 261
#     4  10  20  31  45  65  87 118 156 191 231 276
#     4  10  19  31  46  66  93 122 154 190 227 273
#
# _framework density 16.143443000000001
#
# number of rings (size 3 to 8) (size 9 to 14) (size 15 to 20)
#    0.000    2.455    1.818    0.818    1.273    3.636 
#    0.000    0.000    0.000    0.000    0.000    0.000 
#    0.000    0.727    0.000    9.091    0.000    1.455 
#
# Total GULP energy -245156.787506 kJ/mol
# GULP energy per Si atom -5571.745171 kJ/mol
# Density = 1.610670 g / cm^3
# Si number density = 16.143443 Si / 1000 Ang^3
#
#
#
# Elastic Constant Matrix: (Units=GPa)
#
#
# Indices 1 2 3 4 5 6 
#
# 1 96.4010 10.5386 65.7591 0.0000 0.0000 0.0000
# 2 10.5386 6.5524 14.1518 0.0000 0.0000 0.0000
# 3 65.7591 14.1518 130.5850 0.0000 0.0000 0.0000
# 4 0.0000 0.0000 0.0000 13.1946 0.0000 0.0000
# 5 0.0000 0.0000 0.0000 0.0000 31.0435 0.0000
# 6 0.0000 0.0000 0.0000 0.0000 0.0000 19.6031
#
#
#
# Elastic Compliance Matrix: (Units=1/GPa)
#
#
# Indices 1 2 3 4 5 6 
#
# 1 0.016402 -0.011152 -0.007051 0.000000 0.000000 0.000000
# 2 -0.011152 0.206835 -0.016799 0.000000 0.000000 0.000000
# 3 -0.007051 -0.016799 0.013029 0.000000 0.000000 0.000000
# 4 0.000000 0.000000 0.000000 0.075789 0.000000 0.000000
# 5 0.000000 0.000000 0.000000 0.000000 0.032213 0.000000
# 6 0.000000 0.000000 0.000000 0.000000 0.000000 0.051012
#
#
# Mechanical properties :
#
#
# Convention : Reuss Voigt Hill
#
# Bulk Modulus (GPa) = 6.01461 46.04860 26.03161
# Shear Modulus (GPa) = 9.60234 22.30749 15.95491
#
# Velocity S-wave (km/s) = 2.44153 3.72133 3.14717
# Velocity P-wave (km/s) = 3.41788 6.85937 5.41908
#
# Compressibility (1/GPa) = 0.16626173
#
# Stress axis : x y z
#
# Youngs Moduli (GPa) = 60.96659 4.83477 76.75021
#
# Poissons Ratio (x) = 0.05392 0.54119
# Poissons Ratio (y) = 0.67989 1.28936
# Poissons Ratio (z) = 0.42989 0.08122
#
# Static dielectric constant tensor:
#      x y z
#    x 1.565450 0.000000 0.000000 
#    y 0.000000 1.556120 0.000000 
#    z 0.000000 0.000000 1.574400 
# 
# From -- ./inp_files/10927.got.cif
#   From: 2010.05.17/outbox.cif.g08.bks.cpg/sg71_6_cif.got.tgz:10927.got - 2010.06.03 16:22:01.
