data_PCOD9519754
_publ_section_title
;
Structure prediction by ZEFSAII (Michael W. Deem and Ramdas Pophale) SiO2 
 PCOD9519754
Probable space group: I M M M
;
_chemical_formula_sum "Si O2"
_cell_formula_units_Z 104
_cell_length_a 27.032644
_cell_length_b 12.385413
_cell_length_c 18.051060
_cell_angle_alpha 90.000000
_cell_angle_beta 90.000000
_cell_angle_gamma 90.000000
_cell_volume 6043.683710
_symmetry_space_group_name_H-M "I M M M"
_symmetry_group_IT_number 71
_symmetry_cell_setting 'orthorhombic'
loop_
_space_group_symop_operation_xyz
x,y,z
-x,-y,z
x,-y,-z
-x,y,-z
-x,-y,-z
x,y,-z
-x,y,z
x,-y,z
1/2+x,1/2+y,1/2+z
1/2-x,1/2-y,1/2+z
1/2+x,1/2-y,1/2-z
1/2-x,1/2+y,1/2-z
1/2-x,1/2-y,1/2-z
1/2+x,1/2+y,1/2-z
1/2-x,1/2+y,1/2+z
1/2+x,1/2-y,1/2+z
loop_
_atom_site_type_symbol
_atom_site_label
_atom_site_fract_x
_atom_site_fract_y
_atom_site_fract_z
Si Si1 0.878989 0.629757 0.417870
Si Si2 0.559426 0.371868 0.500000
Si Si3 0.779599 0.279597 0.355224
Si Si4 0.391227 0.266528 0.644981
Si Si5 0.302337 0.120829 0.587528
Si Si6 0.308330 0.380871 0.727722
Si Si7 0.558840 0.872729 0.227815
O O1 0.895490 0.666426 0.500000
O O2 0.878557 0.500000 0.418459
O O3 0.823553 0.670741 0.402446
O O4 0.913302 0.660304 0.348107
O O5 0.572498 0.500000 0.500000
O O6 0.500000 0.363779 0.500000
O O7 0.580805 0.313295 0.426629
O O8 0.745826 0.191842 0.396288
O O9 0.740167 0.365888 0.323857
O O10 0.803750 0.215622 0.286485
O O11 0.349714 0.179738 0.621110
O O12 0.358442 0.360707 0.682362
O O13 0.424876 0.205359 0.705276
O O14 0.309398 0.115539 0.500000
O O15 0.296949 0.000000 0.617989
O O16 0.308076 0.500000 0.761179
O O17 0.500000 0.867038 0.217486
O O18 0.571305 0.000000 0.243378
#
# Coordination Sequence:
#
# PCOD9519754 Si02
#       7
#    16   8  16  16  16  16  16
#     4  10  20  35  56  82 113 146 181 225 278 333
#     4  11  24  40  59  83 111 145 190 240 282 325
#     4  10  19  33  51  78 111 145 180 224 267 324
#     4  11  20  38  57  79 110 147 181 229 276 328
#     4  10  20  33  52  77 109 147 182 219 269 326
#     4  10  20  32  52  79 107 143 184 222 269 325
#     4  10  21  37  58  84 111 142 183 229 280 336
#
# _framework density 17.208048000000002
#
# number of rings (size 3 to 8) (size 9 to 14) (size 15 to 20)
#    0.000    1.769    2.308    2.769    0.000    0.308 
#    0.000    1.538    0.000    1.846    0.000    0.000 
#    0.000    1.231    0.000    0.000    0.000    0.000 
#
# Total GULP energy -290016.844018 kJ/mol
# GULP energy per Si atom -5577.247000 kJ/mol
# Density = 1.716888 g / cm^3
# Si number density = 17.208048 Si / 1000 Ang^3
#
#
#
# Elastic Constant Matrix: (Units=GPa)
#
#
# Indices 1 2 3 4 5 6 
#
# 1 85.3696 22.5773 46.0687 0.0000 0.0000 0.0000
# 2 22.5773 54.2934 33.2619 0.0000 0.0000 0.0000
# 3 46.0687 33.2619 104.4260 0.0000 0.0000 0.0000
# 4 0.0000 0.0000 0.0000 14.0178 0.0000 0.0000
# 5 0.0000 0.0000 0.0000 0.0000 26.8126 0.0000
# 6 0.0000 0.0000 0.0000 0.0000 0.0000 9.9230
#
#
#
# Elastic Compliance Matrix: (Units=1/GPa)
#
#
# Indices 1 2 3 4 5 6 
#
# 1 0.015719 -0.002843 -0.006029 0.000000 0.000000 0.000000
# 2 -0.002843 0.023398 -0.006199 0.000000 0.000000 0.000000
# 3 -0.006029 -0.006199 0.014210 0.000000 0.000000 0.000000
# 4 0.000000 0.000000 0.000000 0.071338 0.000000 0.000000
# 5 0.000000 0.000000 0.000000 0.000000 0.037296 0.000000
# 6 0.000000 0.000000 0.000000 0.000000 0.000000 0.100776
#
#
# Mechanical properties :
#
#
# Convention : Reuss Voigt Hill
#
# Bulk Modulus (GPa) = 43.12904 49.76722 46.44813
# Shear Modulus (GPa) = 16.63294 19.62939 18.13117
#
# Velocity S-wave (km/s) = 3.11236 3.38110 3.24951
# Velocity P-wave (km/s) = 6.16712 6.65028 6.41325
#
# Compressibility (1/GPa) = 0.02318623
#
# Stress axis : x y z
#
# Youngs Moduli (GPa) = 63.61638 42.73844 70.37115
#
# Poissons Ratio (x) = 0.12151 0.42428
# Poissons Ratio (y) = 0.18086 0.43620
# Poissons Ratio (z) = 0.38355 0.26492
#
# Static dielectric constant tensor:
#      x y z
#    x 1.562920 0.000000 0.000000 
#    y 0.000000 1.588140 0.000000 
#    z 0.000000 0.000000 1.610640 
# 
# From -- ./inp_files/48846.got.cif
#   From: 2010.05.17/outbox.cif.g08.bks.cpg/sg71_25_cif.got.tgz:48846.got - 2010.06.03 16:22:01.
