data_PCOD9519779
_publ_section_title
;
Structure prediction by ZEFSAII (Michael W. Deem and Ramdas Pophale) SiO2 
 PCOD9519779
Probable space group: I M M M
;
_chemical_formula_sum "Si O2"
_cell_formula_units_Z 120
_cell_length_a 27.802352
_cell_length_b 28.765352
_cell_length_c 8.559973
_cell_angle_alpha 90.000000
_cell_angle_beta 90.000000
_cell_angle_gamma 90.000000
_cell_volume 6845.790828
_symmetry_space_group_name_H-M "I M M M"
_symmetry_group_IT_number 71
_symmetry_cell_setting 'orthorhombic'
loop_
_space_group_symop_operation_xyz
x,y,z
-x,-y,z
x,-y,-z
-x,y,-z
-x,-y,-z
x,y,-z
-x,y,z
x,-y,z
1/2+x,1/2+y,1/2+z
1/2-x,1/2-y,1/2+z
1/2+x,1/2-y,1/2-z
1/2-x,1/2+y,1/2-z
1/2-x,1/2-y,1/2-z
1/2+x,1/2+y,1/2-z
1/2-x,1/2+y,1/2+z
1/2+x,1/2-y,1/2+z
loop_
_atom_site_type_symbol
_atom_site_label
_atom_site_fract_x
_atom_site_fract_y
_atom_site_fract_z
Si Si1 0.800024 0.397917 0.811966
Si Si2 0.500000 0.556199 0.318080
Si Si3 0.644494 0.196299 0.685500
Si Si4 0.391098 0.948662 0.187933
Si Si5 0.055065 0.643598 0.310998
Si Si6 0.103319 0.945940 0.311444
Si Si7 0.192956 0.882984 0.690832
Si Si8 0.296756 0.723432 0.185083
O O1 0.819227 0.346098 0.770335
O O2 0.837891 0.433520 0.740021
O O3 0.744816 0.403981 0.763611
O O4 0.802618 0.401292 0.000000
O O5 0.500000 0.500000 0.302828
O O6 0.500000 0.568283 0.500000
O O7 0.550613 0.571070 0.242662
O O8 0.648355 0.202640 0.500000
O O9 0.592002 0.179086 0.733899
O O10 0.659524 0.243015 0.771279
O O11 0.427069 0.907805 0.238174
O O12 0.403199 0.000000 0.246639
O O13 0.392438 0.949506 0.000000
O O14 0.059336 0.646476 0.500000
O O15 0.000000 0.651300 0.268336
O O16 0.103628 0.946103 0.500000
O O17 0.147119 0.913087 0.257060
O O18 0.109825 0.000000 0.260367
O O19 0.191687 0.882809 0.500000
O O20 0.194446 0.829095 0.743031
O O21 0.250000 0.750000 0.250000
O O22 0.290369 0.720192 0.000000
#
# Coordination Sequence:
#
# PCOD9519779 Si02
#       8
#    16   8  16  16  16  16  16  16
#     4   9  17  31  48  68  97 132 167 203 248 303
#     4   9  17  31  51  73  99 129 159 197 245 291
#     4  10  19  33  52  75 101 130 168 212 260 309
#     4   9  18  31  46  69 101 134 170 213 259 305
#     4   9  18  33  53  75  98 131 176 219 262 314
#     4   9  17  31  53  77  99 129 169 205 238 286
#     4   9  18  32  50  76 105 130 164 208 247 288
#     4  11  20  33  53  77 105 135 170 209 251 300
#
# _framework density 17.529019000000002
#
# number of rings (size 3 to 8) (size 9 to 14) (size 15 to 20)
#    0.000    2.600    1.333    1.000    0.000    2.667 
#    0.000    4.667    1.467    1.600    0.000    3.733 
#    0.000    0.000    0.000    0.000    0.000    0.000 
#
# Total GULP energy -334445.013021 kJ/mol
# GULP energy per Si atom -5574.083550 kJ/mol
# Density = 1.748912 g / cm^3
# Si number density = 17.529019 Si / 1000 Ang^3
#
#
#
# Elastic Constant Matrix: (Units=GPa)
#
#
# Indices 1 2 3 4 5 6 
#
# 1 133.2653 38.9745 14.2490 0.0000 0.0000 0.0000
# 2 38.9745 59.6612 8.3037 0.0000 0.0000 0.0000
# 3 14.2490 8.3037 6.5938 0.0000 0.0000 0.0000
# 4 0.0000 0.0000 0.0000 15.9483 0.0000 0.0000
# 5 0.0000 0.0000 0.0000 0.0000 25.2622 0.0000
# 6 0.0000 0.0000 0.0000 0.0000 0.0000 15.9551
#
#
#
# Elastic Compliance Matrix: (Units=1/GPa)
#
#
# Indices 1 2 3 4 5 6 
#
# 1 0.010697 -0.004572 -0.017358 0.000000 0.000000 0.000000
# 2 -0.004572 0.022278 -0.018175 0.000000 0.000000 0.000000
# 3 -0.017358 -0.018175 0.212056 0.000000 0.000000 0.000000
# 4 0.000000 0.000000 0.000000 0.062703 0.000000 0.000000
# 5 0.000000 0.000000 0.000000 0.000000 0.039585 0.000000
# 6 0.000000 0.000000 0.000000 0.000000 0.000000 0.062676
#
#
# Mechanical properties :
#
#
# Convention : Reuss Voigt Hill
#
# Bulk Modulus (GPa) = 6.06718 35.84162 20.95440
# Shear Modulus (GPa) = 9.17188 20.63266 14.90227
#
# Velocity S-wave (km/s) = 2.28992 3.43455 2.91889
# Velocity P-wave (km/s) = 3.23426 6.01827 4.83115
#
# Compressibility (1/GPa) = 0.16482114
#
# Stress axis : x y z
#
# Youngs Moduli (GPa) = 93.48513 44.88805 4.71572
#
# Poissons Ratio (x) = 0.20523 0.08186
# Poissons Ratio (y) = 0.42741 0.08571
# Poissons Ratio (z) = 1.62272 0.81584
#
# Static dielectric constant tensor:
#      x y z
#    x 1.594530 0.000000 0.000000 
#    y 0.000000 1.605150 0.000000 
#    z 0.000000 0.000000 1.604550 
# 
# From -- ./inp_files/15636.got.cif
#   From: 2010.05.17/outbox.cif.g08.bks.cpg/sg71_8_cif.got.tgz:15636.got - 2010.06.03 16:22:01.
