data_PCOD9519294
_publ_section_title
;
Structure prediction by ZEFSAII (Michael W. Deem and Ramdas Pophale) SiO2 
 PCOD9519294
Probable space group: I M M M
;
_chemical_formula_sum "Si O2"
_cell_formula_units_Z 104
_cell_length_a 7.751698
_cell_length_b 26.539620
_cell_length_c 24.181090
_cell_angle_alpha 90.000000
_cell_angle_beta 90.000000
_cell_angle_gamma 90.000000
_cell_volume 4974.705987
_symmetry_space_group_name_H-M "I M M M"
_symmetry_group_IT_number 71
_symmetry_cell_setting 'orthorhombic'
loop_
_space_group_symop_operation_xyz
x,y,z
-x,-y,z
x,-y,-z
-x,y,-z
-x,-y,-z
x,y,-z
-x,y,z
x,-y,z
1/2+x,1/2+y,1/2+z
1/2-x,1/2-y,1/2+z
1/2+x,1/2-y,1/2-z
1/2-x,1/2+y,1/2-z
1/2-x,1/2-y,1/2-z
1/2+x,1/2+y,1/2-z
1/2-x,1/2+y,1/2+z
1/2+x,1/2-y,1/2+z
loop_
_atom_site_type_symbol
_atom_site_label
_atom_site_fract_x
_atom_site_fract_y
_atom_site_fract_z
Si Si1 0.301198 0.294716 0.440090
Si Si2 0.791112 0.352275 0.274424
Si Si3 0.699015 0.250345 0.825981
Si Si4 0.297508 0.893185 0.891944
Si Si5 0.706427 0.500000 0.562825
Si Si6 0.710585 0.558230 0.063876
Si Si7 0.202837 0.861727 0.655855
O O1 0.231421 0.279691 0.500000
O O2 0.500000 0.278275 0.436414
O O3 0.204127 0.274135 0.386957
O O4 0.294814 0.354928 0.433402
O O5 0.731059 0.294003 0.285567
O O6 0.738597 0.381219 0.329780
O O7 0.721759 0.378741 0.219432
O O8 0.000000 0.351283 0.271553
O O9 0.500000 0.257733 0.810025
O O10 0.781246 0.305283 0.836770
O O11 0.500000 0.881280 0.895102
O O12 0.268479 0.950150 0.907329
O O13 0.500000 0.500000 0.562101
O O14 0.770768 0.500000 0.500000
O O15 0.500000 0.558299 0.065212
O O16 0.763540 0.500000 0.075609
O O17 0.770303 0.599354 0.109513
O O18 0.760475 0.570080 0.000000
O O19 0.000000 0.855277 0.642534
#
# Coordination Sequence:
#
# PCOD9519294 Si02
#       7
#    16  16  16  16   8  16  16
#     4  10  20  33  50  74 104 137 174 218 269 319
#     4   9  19  35  51  71 104 140 171 208 262 317
#     4   9  19  33  49  73 104 138 176 216 259 316
#     4  10  21  37  55  75 102 140 182 219 261 315
#     4  11  23  37  55  81 109 137 176 225 272 313
#     4   8  15  30  51  75 105 135 163 206 263 316
#     4  10  19  31  53  82 103 129 176 220 257 310
#
# _framework density 20.905757999999999
#
# number of rings (size 3 to 8) (size 9 to 14) (size 15 to 20)
#    0.000    2.538    0.000    3.462    0.000    8.000 
#    1.385    1.538    0.000    0.462    0.000    1.077 
#    0.000    0.000    0.000    0.000    0.000    0.000 
#
# Total GULP energy -289910.428209 kJ/mol
# GULP energy per Si atom -5575.200542 kJ/mol
# Density = 2.085818 g / cm^3
# Si number density = 20.905758 Si / 1000 Ang^3
#
#
#
# Elastic Constant Matrix: (Units=GPa)
#
#
# Indices 1 2 3 4 5 6 
#
# 1 40.4479 3.7457 9.7846 0.0000 0.0000 0.0000
# 2 3.7457 112.2479 72.2067 0.0000 0.0000 0.0000
# 3 9.7846 72.2067 148.9440 0.0000 0.0000 -0.0001
# 4 0.0000 0.0000 0.0000 35.0338 0.0000 0.0000
# 5 0.0000 0.0000 0.0000 0.0000 41.4770 0.0000
# 6 0.0000 0.0000 -0.0001 0.0000 0.0000 52.1331
#
#
#
# Elastic Compliance Matrix: (Units=1/GPa)
#
#
# Indices 1 2 3 4 5 6 
#
# 1 0.025131 0.000325 -0.001808 0.000000 0.000000 0.000000
# 2 0.000325 0.012950 -0.006300 0.000000 0.000000 0.000000
# 3 -0.001808 -0.006300 0.009887 0.000000 0.000000 0.000000
# 4 0.000000 0.000000 0.000000 0.028544 0.000000 0.000000
# 5 0.000000 0.000000 0.000000 0.000000 0.024110 0.000000
# 6 0.000000 0.000000 0.000000 0.000000 0.000000 0.019182
#
#
# Mechanical properties :
#
#
# Convention : Reuss Voigt Hill
#
# Bulk Modulus (GPa) = 30.86308 52.56821 41.71565
# Shear Modulus (GPa) = 34.20680 40.12229 37.16455
#
# Velocity S-wave (km/s) = 4.04943 4.38562 4.22087
# Velocity P-wave (km/s) = 6.05466 7.13055 6.61452
#
# Compressibility (1/GPa) = 0.03240118
#
# Stress axis : x y z
#
# Youngs Moduli (GPa) = 39.79224 77.21771 101.14608
#
# Poissons Ratio (x) = -0.02507 0.18290
# Poissons Ratio (y) = -0.01292 0.63718
# Poissons Ratio (z) = 0.07196 0.48644
#
# Static dielectric constant tensor:
#      x y z
#    x 1.780530 0.000000 0.000000 
#    y 0.000000 1.779060 0.000000 
#    z 0.000000 0.000000 1.769500 
# 
# From -- ./inp_files/58020.got.cif
#   From: 2010.05.17/outbox.cif.g08.bks.cpg/sg71_30_cif.got.tgz:58020.got - 2010.06.03 16:22:01.
