data_PCOD9519694
_publ_section_title
;
Structure prediction by ZEFSAII (Michael W. Deem and Ramdas Pophale) SiO2 
 PCOD9519694
Probable space group: I M M M
;
_chemical_formula_sum "Si O2"
_cell_formula_units_Z 104
_cell_length_a 22.179949
_cell_length_b 14.880911
_cell_length_c 16.434321
_cell_angle_alpha 90.000000
_cell_angle_beta 90.000000
_cell_angle_gamma 90.000000
_cell_volume 5424.276607
_symmetry_space_group_name_H-M "I M M M"
_symmetry_group_IT_number 71
_symmetry_cell_setting 'orthorhombic'
loop_
_space_group_symop_operation_xyz
x,y,z
-x,-y,z
x,-y,-z
-x,y,-z
-x,-y,-z
x,y,-z
-x,y,z
x,-y,z
1/2+x,1/2+y,1/2+z
1/2-x,1/2-y,1/2+z
1/2+x,1/2-y,1/2-z
1/2-x,1/2+y,1/2-z
1/2-x,1/2-y,1/2-z
1/2+x,1/2+y,1/2-z
1/2-x,1/2+y,1/2+z
1/2+x,1/2-y,1/2+z
loop_
_atom_site_type_symbol
_atom_site_label
_atom_site_fract_x
_atom_site_fract_y
_atom_site_fract_z
Si Si1 0.729481 0.902263 0.868177
Si Si2 0.379669 0.186264 0.910425
Si Si3 0.343564 0.296748 0.635079
Si Si4 0.659472 0.642175 0.178581
Si Si5 0.500000 0.897857 0.900166
Si Si6 0.427973 0.500000 0.097863
Si Si7 0.203012 0.601539 0.823815
Si Si8 0.926649 0.890266 0.000000
O O1 0.667231 0.894303 0.915049
O O2 0.778183 0.830080 0.895785
O O3 0.709583 0.891758 0.774056
O O4 0.757971 0.000000 0.877547
O O5 0.347268 0.260323 0.858610
O O6 0.441066 0.153089 0.872073
O O7 0.392862 0.222674 0.000000
O O8 0.347016 0.344248 0.724306
O O9 0.335512 0.187982 0.645297
O O10 0.394945 0.338880 0.576977
O O11 0.606418 0.583175 0.139831
O O12 0.725864 0.608063 0.153104
O O13 0.500000 0.000000 0.873231
O O14 0.500000 0.898693 0.000000
O O15 0.500000 0.500000 0.112639
O O16 0.419024 0.500000 0.000000
O O17 0.181093 0.500000 0.844384
O O18 0.000000 0.879947 0.000000
O O19 0.914801 0.000000 0.000000
#
# Coordination Sequence:
#
# PCOD9519694 Si02
#       8
#    16  16  16  16   8   8  16   8
#     4  10  19  32  58  92 128 163 206 262 319 371
#     4  11  21  34  55  84 124 167 208 256 301 365
#     4  11  22  42  66  94 127 160 210 263 325 385
#     4  11  21  40  61  91 126 171 212 255 317 383
#     4   9  20  36  50  73 119 170 211 247 299 366
#     4  11  26  42  60  91 133 173 219 266 299 366
#     4  10  19  38  64  93 131 165 204 265 320 378
#     4  11  28  50  71  97 129 160 206 275 332 383
#
# _framework density 19.173062999999999
#
# number of rings (size 3 to 8) (size 9 to 14) (size 15 to 20)
#    0.000    1.462    3.846    2.308    4.308    1.538 
#    1.385    0.385    0.000    0.923    0.000    0.000 
#    0.000    0.000    0.000    0.000    0.000    0.000 
#
# Total GULP energy -289712.021850 kJ/mol
# GULP energy per Si atom -5571.385036 kJ/mol
# Density = 1.912942 g / cm^3
# Si number density = 19.173063 Si / 1000 Ang^3
#
#
#
# Elastic Constant Matrix: (Units=GPa)
#
#
# Indices 1 2 3 4 5 6 
#
# 1 112.0710 44.5417 35.1259 0.0000 0.0000 0.0000
# 2 44.5417 138.2378 29.5303 0.0000 0.0000 0.0000
# 3 35.1259 29.5303 62.0204 0.0000 0.0000 0.0000
# 4 0.0000 0.0000 0.0000 0.6117 0.0000 0.0000
# 5 0.0000 0.0000 0.0000 0.0000 44.1052 0.0000
# 6 0.0000 0.0000 0.0000 0.0000 0.0000 27.7551
#
#
#
# Elastic Compliance Matrix: (Units=1/GPa)
#
#
# Indices 1 2 3 4 5 6 
#
# 1 0.011635 -0.002606 -0.005349 0.000000 0.000000 0.000000
# 2 -0.002606 0.008637 -0.002636 0.000000 0.000000 0.000000
# 3 -0.005349 -0.002636 0.020408 0.000000 0.000000 0.000000
# 4 0.000000 0.000000 0.000000 1.634689 0.000000 0.000000
# 5 0.000000 0.000000 0.000000 0.000000 0.022673 0.000000
# 6 0.000000 0.000000 0.000000 0.000000 0.000000 0.036029
#
#
# Mechanical properties :
#
#
# Convention : Reuss Voigt Hill
#
# Bulk Modulus (GPa) = 51.28809 58.96943 55.12876
# Shear Modulus (GPa) = 2.83808 28.03650 15.43729
#
# Velocity S-wave (km/s) = 1.21797 3.82813 2.84060
# Velocity P-wave (km/s) = 5.36527 7.09666 6.29082
#
# Compressibility (1/GPa) = 0.01949771
#
# Stress axis : x y z
#
# Youngs Moduli (GPa) = 85.94590 115.78286 48.99987
#
# Poissons Ratio (x) = 0.30178 0.26209
# Poissons Ratio (y) = 0.22401 0.12917
# Poissons Ratio (z) = 0.45970 0.30522
#
# Static dielectric constant tensor:
#      x y z
#    x 1.583600 0.000000 0.000000 
#    y 0.000000 1.642170 0.000000 
#    z 0.000000 0.000000 1.695140 
# 
# From -- ./inp_files/47381.got.cif
#   From: 2010.05.17/outbox.cif.g08.bks.cpg/sg71_24_cif.got.tgz:47381.got - 2010.06.03 16:22:01.
