data_PCOD9519447
_publ_section_title
;
Structure prediction by ZEFSAII (Michael W. Deem and Ramdas Pophale) SiO2 
 PCOD9519447
Probable space group: I M M M
;
_chemical_formula_sum "Si O2"
_cell_formula_units_Z 104
_cell_length_a 22.637669
_cell_length_b 12.879860
_cell_length_c 22.741314
_cell_angle_alpha 90.000000
_cell_angle_beta 90.000000
_cell_angle_gamma 90.000000
_cell_volume 6630.685092
_symmetry_space_group_name_H-M "I M M M"
_symmetry_group_IT_number 71
_symmetry_cell_setting 'orthorhombic'
loop_
_space_group_symop_operation_xyz
x,y,z
-x,-y,z
x,-y,-z
-x,y,-z
-x,-y,-z
x,y,-z
-x,y,z
x,-y,z
1/2+x,1/2+y,1/2+z
1/2-x,1/2-y,1/2+z
1/2+x,1/2-y,1/2-z
1/2-x,1/2+y,1/2-z
1/2-x,1/2-y,1/2-z
1/2+x,1/2+y,1/2-z
1/2-x,1/2+y,1/2+z
1/2+x,1/2-y,1/2+z
loop_
_atom_site_type_symbol
_atom_site_label
_atom_site_fract_x
_atom_site_fract_y
_atom_site_fract_z
Si Si1 0.847091 0.238492 0.253820
Si Si2 0.875342 0.124880 0.374105
Si Si3 0.000000 0.125743 0.567653
Si Si4 0.069956 0.622019 0.178562
Si Si5 0.730708 0.248572 0.931912
Si Si6 0.750224 0.877304 0.181817
Si Si7 0.351138 0.877445 0.565963
O O1 0.866640 0.165796 0.307795
O O2 0.900496 0.301849 0.225455
O O3 0.811332 0.171940 0.205496
O O4 0.800620 0.322412 0.279460
O O5 0.939751 0.155268 0.399144
O O6 0.824436 0.180075 0.412459
O O7 0.869407 0.000000 0.376781
O O8 0.000000 0.162599 0.500000
O O9 0.000000 0.000000 0.565941
O O10 0.081446 0.500000 0.192603
O O11 0.101655 0.644522 0.116408
O O12 0.000000 0.635968 0.174723
O O13 0.737265 0.156016 0.885181
O O14 0.790564 0.315601 0.925349
O O15 0.724852 0.217534 0.000000
O O16 0.750169 0.000000 0.189458
O O17 0.373486 0.855047 0.500000
O O18 0.337521 0.000000 0.568998
#
# Coordination Sequence:
#
# PCOD9519447 Si02
#       7
#    16  16   8  16  16  16  16
#     4  10  20  34  51  74 101 135 167 209 250 307
#     4  10  20  32  50  75 102 135 170 208 253 304
#     4   9  18  32  48  70 101 133 164 203 251 301
#     4  10  20  33  51  74 102 136 171 209 251 301
#     4  10  19  32  51  76 100 129 167 207 256 305
#     4  10  20  34  52  74 100 131 165 208 259 302
#     4   9  17  30  49  74 102 128 161 208 257 303
#
# _framework density 15.684654
#
# number of rings (size 3 to 8) (size 9 to 14) (size 15 to 20)
#    0.000    2.231    1.538    1.846    1.077    2.154 
#    0.000    1.538    0.000    0.000    0.000    0.000 
#    0.000    8.923    0.000    0.000    0.000    0.000 
#
# Total GULP energy -289936.765007 kJ/mol
# GULP energy per Si atom -5575.707019 kJ/mol
# Density = 1.564896 g / cm^3
# Si number density = 15.684654 Si / 1000 Ang^3
#
#
#
# Elastic Constant Matrix: (Units=GPa)
#
#
# Indices 1 2 3 4 5 6 
#
# 1 86.9867 37.2199 39.4574 0.0000 0.0000 0.0000
# 2 37.2199 75.5003 43.3442 0.0000 0.0000 0.0000
# 3 39.4574 43.3442 89.7186 0.0000 0.0000 0.0000
# 4 0.0000 0.0000 0.0000 12.7732 0.0000 0.0000
# 5 0.0000 0.0000 0.0000 0.0000 18.1503 0.0000
# 6 0.0000 0.0000 0.0000 0.0000 0.0000 22.0646
#
#
#
# Elastic Compliance Matrix: (Units=1/GPa)
#
#
# Indices 1 2 3 4 5 6 
#
# 1 0.015726 -0.005233 -0.004388 0.000000 0.000000 0.000000
# 2 -0.005233 0.020070 -0.007394 0.000000 0.000000 0.000000
# 3 -0.004388 -0.007394 0.016648 0.000000 0.000000 0.000000
# 4 0.000000 0.000000 0.000000 0.078289 0.000000 0.000000
# 5 0.000000 0.000000 0.000000 0.000000 0.055096 0.000000
# 6 0.000000 0.000000 0.000000 0.000000 0.000000 0.045321
#
#
# Mechanical properties :
#
#
# Convention : Reuss Voigt Hill
#
# Bulk Modulus (GPa) = 54.31090 54.69428 54.50259
# Shear Modulus (GPa) = 18.42857 19.40989 18.91923
#
# Velocity S-wave (km/s) = 3.43146 3.52164 3.47684
# Velocity P-wave (km/s) = 7.09943 7.17515 7.13739
#
# Compressibility (1/GPa) = 0.01841251
#
# Stress axis : x y z
#
# Youngs Moduli (GPa) = 63.59091 49.82541 60.06741
#
# Poissons Ratio (x) = 0.26076 0.26355
# Poissons Ratio (y) = 0.33280 0.44417
# Poissons Ratio (z) = 0.27901 0.36843
#
# Static dielectric constant tensor:
#      x y z
#    x 1.501760 0.000000 0.000000 
#    y 0.000000 1.491550 0.000000 
#    z 0.000000 0.000000 1.532590 
# 
# From -- ./inp_files/59043.got.cif
#   From: 2010.05.17/outbox.cif.g08.bks.cpg/sg71_30_cif.got.tgz:59043.got - 2010.06.03 16:22:01.
