data_PCOD9519285
_publ_section_title
;
Structure prediction by ZEFSAII (Michael W. Deem and Ramdas Pophale) SiO2 
 PCOD9519285
Probable space group: I M M M
;
_chemical_formula_sum "Si O2"
_cell_formula_units_Z 88
_cell_length_a 9.043144
_cell_length_b 20.237905
_cell_length_c 26.423841
_cell_angle_alpha 90.000000
_cell_angle_beta 90.000000
_cell_angle_gamma 90.000000
_cell_volume 4835.940478
_symmetry_space_group_name_H-M "I M M M"
_symmetry_group_IT_number 71
_symmetry_cell_setting 'orthorhombic'
loop_
_space_group_symop_operation_xyz
x,y,z
-x,-y,z
x,-y,-z
-x,y,-z
-x,-y,-z
x,y,-z
-x,y,z
x,-y,z
1/2+x,1/2+y,1/2+z
1/2-x,1/2-y,1/2+z
1/2+x,1/2-y,1/2-z
1/2-x,1/2+y,1/2-z
1/2-x,1/2-y,1/2-z
1/2+x,1/2+y,1/2-z
1/2-x,1/2+y,1/2+z
1/2+x,1/2-y,1/2+z
loop_
_atom_site_type_symbol
_atom_site_label
_atom_site_fract_x
_atom_site_fract_y
_atom_site_fract_z
Si Si1 0.833233 0.176970 0.126660
Si Si2 0.823424 0.783373 0.557214
Si Si3 0.000000 0.921188 0.060392
Si Si4 0.675228 0.571799 0.081154
Si Si5 0.325316 0.817561 0.231258
Si Si6 0.170709 0.924184 0.702686
O O1 0.758678 0.236336 0.096097
O O2 0.739462 0.163023 0.176446
O O3 0.000000 0.196460 0.142774
O O4 0.862683 0.115140 0.088759
O O5 0.803024 0.759017 0.500000
O O6 0.767788 0.859096 0.560043
O O7 0.000000 0.783889 0.568322
O O8 0.000000 0.000000 0.068018
O O9 0.000000 0.908115 0.000000
O O10 0.500000 0.570070 0.068375
O O11 0.737365 0.500000 0.065603
O O12 0.685988 0.576827 0.141983
O O13 0.500000 0.808757 0.228312
O O14 0.250000 0.750000 0.250000
O O15 0.279812 0.874381 0.270457
O O16 0.000000 0.905767 0.714394
O O17 0.193202 0.000000 0.719060
#
# Coordination Sequence:
#
# PCOD9519285 Si02
#       6
#    16  16   8  16  16  16
#     4  10  22  37  59  84 111 147 194 244 302 362
#     4  10  19  31  52  82 114 148 188 240 295 345
#     4   9  20  40  66  90 113 147 199 259 315 376
#     4   8  15  29  49  75 108 149 194 234 272 322
#     4  12  24  38  57  84 121 157 197 243 298 359
#     4   9  18  34  56  79 109 153 199 237 279 339
#
# _framework density 18.19708
#
# number of rings (size 3 to 8) (size 9 to 14) (size 15 to 20)
#    0.545    1.727    0.000    4.909    0.000    2.909 
#    0.000    1.818    0.000    3.273    0.000    7.636 
#    0.000    0.000    0.000    0.000    0.000    0.000 
#
# Total GULP energy -245287.832218 kJ/mol
# GULP energy per Si atom -5574.723460 kJ/mol
# Density = 1.815566 g / cm^3
# Si number density = 18.197080 Si / 1000 Ang^3
#
#
#
# Elastic Constant Matrix: (Units=GPa)
#
#
# Indices 1 2 3 4 5 6 
#
# 1 79.3539 21.1150 32.2815 0.0000 0.0000 0.0000
# 2 21.1150 73.3701 32.3149 0.0000 0.0000 0.0000
# 3 32.2815 32.3149 62.2172 0.0000 0.0000 0.0000
# 4 0.0000 0.0000 0.0000 36.5799 0.0000 0.0000
# 5 0.0000 0.0000 0.0000 0.0000 22.2714 0.0000
# 6 0.0000 0.0000 0.0000 0.0000 0.0000 27.9769
#
#
#
# Elastic Compliance Matrix: (Units=1/GPa)
#
#
# Indices 1 2 3 4 5 6 
#
# 1 0.016059 -0.001234 -0.007691 0.000000 0.000000 0.000000
# 2 -0.001234 0.017767 -0.008588 0.000000 0.000000 0.000000
# 3 -0.007691 -0.008588 0.024524 0.000000 0.000000 0.000000
# 4 0.000000 0.000000 0.000000 0.027337 0.000000 0.000000
# 5 0.000000 0.000000 0.000000 0.000000 0.044901 0.000000
# 6 0.000000 0.000000 0.000000 0.000000 0.000000 0.035744
#
#
# Mechanical properties :
#
#
# Convention : Reuss Voigt Hill
#
# Bulk Modulus (GPa) = 42.87492 42.92933 42.90212
# Shear Modulus (GPa) = 23.90835 25.98098 24.94466
#
# Velocity S-wave (km/s) = 3.62865 3.78266 3.70646
# Velocity P-wave (km/s) = 6.41628 6.53610 6.47647
#
# Compressibility (1/GPa) = 0.02332366
#
# Stress axis : x y z
#
# Youngs Moduli (GPa) = 62.27051 56.28415 40.77693
#
# Poissons Ratio (x) = 0.06946 0.31363
# Poissons Ratio (y) = 0.07685 0.35018
# Poissons Ratio (z) = 0.47894 0.48335
#
# Static dielectric constant tensor:
#      x y z
#    x 1.615020 0.000000 0.000000 
#    y 0.000000 1.630560 0.000000 
#    z 0.000000 0.000000 1.688460 
# 
# From -- ./inp_files/63223.got.cif
#   From: 2010.05.17/outbox.cif.g08.bks.cpg/sg71_32_cif.got.tgz:63223.got - 2010.06.03 16:22:01.
