data_PCOD9519709
_publ_section_title
;
Structure prediction by ZEFSAII (Michael W. Deem and Ramdas Pophale) SiO2 
 PCOD9519709
Probable space group: I M M M
;
_chemical_formula_sum "Si O2"
_cell_formula_units_Z 104
_cell_length_a 9.505804
_cell_length_b 33.122270
_cell_length_c 20.305387
_cell_angle_alpha 90.000000
_cell_angle_beta 90.000000
_cell_angle_gamma 90.000000
_cell_volume 6393.228393
_symmetry_space_group_name_H-M "I M M M"
_symmetry_group_IT_number 71
_symmetry_cell_setting 'orthorhombic'
loop_
_space_group_symop_operation_xyz
x,y,z
-x,-y,z
x,-y,-z
-x,y,-z
-x,-y,-z
x,y,-z
-x,y,z
x,-y,z
1/2+x,1/2+y,1/2+z
1/2-x,1/2-y,1/2+z
1/2+x,1/2-y,1/2-z
1/2-x,1/2+y,1/2-z
1/2-x,1/2-y,1/2-z
1/2+x,1/2+y,1/2-z
1/2-x,1/2+y,1/2+z
1/2+x,1/2-y,1/2+z
loop_
_atom_site_type_symbol
_atom_site_label
_atom_site_fract_x
_atom_site_fract_y
_atom_site_fract_z
Si Si1 0.337074 0.430880 0.641047
Si Si2 0.167389 0.724156 0.576404
Si Si3 0.332107 0.193361 0.423444
Si Si4 0.336134 0.454000 0.795125
Si Si5 0.332504 0.126026 0.681524
Si Si6 0.157351 0.500000 0.422335
Si Si7 0.832829 0.647918 0.667616
O O1 0.500000 0.429676 0.620984
O O2 0.331739 0.447293 0.716169
O O3 0.244800 0.461306 0.599273
O O4 0.263959 0.387474 0.639390
O O5 0.198323 0.712028 0.500000
O O6 0.251816 0.765013 0.590603
O O7 0.199307 0.689197 0.629136
O O8 0.000000 0.731982 0.579880
O O9 0.305937 0.182935 0.500000
O O10 0.500000 0.199526 0.415425
O O11 0.288987 0.157498 0.374731
O O12 0.500000 0.450559 0.814959
O O13 0.288586 0.500000 0.809728
O O14 0.246385 0.416806 0.823005
O O15 0.500000 0.119056 0.676242
O O16 0.307841 0.146260 0.753538
O O17 0.144987 0.500000 0.500000
O O18 0.000000 0.500000 0.392672
O O19 0.000000 0.639470 0.657693
#
# Coordination Sequence:
#
# PCOD9519709 Si02
#       7
#    16  16  16  16  16   8  16
#     4  10  19  33  50  69  94 124 159 202 247 289
#     4   9  18  32  49  68  93 128 165 197 237 291
#     4   9  18  33  51  70  96 127 159 199 243 288
#     4   9  17  31  50  72  98 125 153 192 240 288
#     4   9  18  31  48  73  98 124 161 199 240 289
#     4  11  23  35  47  65  91 127 168 205 244 289
#     4   9  18  32  48  70  99 127 158 201 244 288
#
# _framework density 16.267212000000001
#
# number of rings (size 3 to 8) (size 9 to 14) (size 15 to 20)
#    0.000    2.692    0.769    0.692    0.000    4.000 
#    0.000    1.538    0.000    0.462    0.000    3.231 
#    0.000    0.000    0.000    0.000    0.000    0.000 
#
# Total GULP energy -289730.703315 kJ/mol
# GULP energy per Si atom -5571.744295 kJ/mol
# Density = 1.623019 g / cm^3
# Si number density = 16.267212 Si / 1000 Ang^3
#
#
#
# Elastic Constant Matrix: (Units=GPa)
#
#
# Indices 1 2 3 4 5 6 
#
# 1 73.0938 78.8504 52.4401 0.0000 0.0000 0.0000
# 2 78.8504 166.1048 82.1434 0.0000 0.0000 0.0000
# 3 52.4401 82.1434 62.7080 0.0000 0.0000 0.0000
# 4 0.0000 0.0000 0.0000 42.3940 0.0000 0.0000
# 5 0.0000 0.0000 0.0000 0.0000 16.3931 0.0000
# 6 0.0000 0.0000 0.0000 0.0000 0.0000 31.5379
#
#
#
# Elastic Compliance Matrix: (Units=1/GPa)
#
#
# Indices 1 2 3 4 5 6 
#
# 1 0.036394 -0.006319 -0.022158 0.000000 0.000000 0.000000
# 2 -0.006319 0.018190 -0.018544 0.000000 0.000000 0.000000
# 3 -0.022158 -0.018544 0.058768 0.000000 0.000000 0.000000
# 4 0.000000 0.000000 0.000000 0.023588 0.000000 0.000000
# 5 0.000000 0.000000 0.000000 0.000000 0.061001 0.000000
# 6 0.000000 0.000000 0.000000 0.000000 0.000000 0.031708
#
#
# Mechanical properties :
#
#
# Convention : Reuss Voigt Hill
#
# Bulk Modulus (GPa) = 51.78284 80.97493 66.37889
# Shear Modulus (GPa) = 15.14561 23.96318 19.55439
#
# Velocity S-wave (km/s) = 3.05462 3.84226 3.47086
# Velocity P-wave (km/s) = 6.65903 8.34086 7.54694
#
# Compressibility (1/GPa) = 0.01931142
#
# Stress axis : x y z
#
# Youngs Moduli (GPa) = 27.47679 54.97400 17.01606
#
# Poissons Ratio (x) = 0.34737 0.37704
# Poissons Ratio (y) = 0.17362 0.31555
# Poissons Ratio (z) = 0.60882 1.01944
#
# Static dielectric constant tensor:
#      x y z
#    x 1.545800 0.000000 0.000000 
#    y 0.000000 1.522670 0.000000 
#    z 0.000000 0.000000 1.541860 
# 
# From -- ./inp_files/11145.got.cif
#   From: 2010.05.17/outbox.cif.g08.bks.cpg/sg71_6_cif.got.tgz:11145.got - 2010.06.03 16:22:01.
