data_PCOD9519433
_publ_section_title
;
Structure prediction by ZEFSAII (Michael W. Deem and Ramdas Pophale) SiO2 
 PCOD9519433
Probable space group: I M M M
;
_chemical_formula_sum "Si O2"
_cell_formula_units_Z 80
_cell_length_a 9.389153
_cell_length_b 33.897051
_cell_length_c 12.352266
_cell_angle_alpha 90.000000
_cell_angle_beta 90.000000
_cell_angle_gamma 90.000000
_cell_volume 3931.288974
_symmetry_space_group_name_H-M "I M M M"
_symmetry_group_IT_number 71
_symmetry_cell_setting 'orthorhombic'
loop_
_space_group_symop_operation_xyz
x,y,z
-x,-y,z
x,-y,-z
-x,y,-z
-x,-y,-z
x,y,-z
-x,y,z
x,-y,z
1/2+x,1/2+y,1/2+z
1/2-x,1/2-y,1/2+z
1/2+x,1/2-y,1/2-z
1/2-x,1/2+y,1/2-z
1/2-x,1/2-y,1/2-z
1/2+x,1/2+y,1/2-z
1/2-x,1/2+y,1/2+z
1/2+x,1/2-y,1/2+z
loop_
_atom_site_type_symbol
_atom_site_label
_atom_site_fract_x
_atom_site_fract_y
_atom_site_fract_z
Si Si1 0.664190 0.693631 0.826452
Si Si2 0.164938 0.578068 0.374894
Si Si3 0.164052 0.619147 0.160791
Si Si4 0.162982 0.284429 0.621664
Si Si5 0.669161 0.544171 0.811242
O O1 0.500000 0.681546 0.829258
O O2 0.759897 0.658914 0.873924
O O3 0.721022 0.700315 0.704854
O O4 0.676461 0.736720 0.879355
O O5 0.199773 0.585267 0.500000
O O6 0.170018 0.615588 0.293574
O O7 0.270334 0.548605 0.311856
O O8 0.000000 0.563975 0.369742
O O9 0.248356 0.579490 0.128959
O O10 0.000000 0.617669 0.129371
O O11 0.179026 0.299544 0.500000
O O12 0.000000 0.292787 0.659279
O O13 0.500000 0.550563 0.813834
O O14 0.699391 0.500000 0.850790
#
# Coordination Sequence:
#
# PCOD9519433 Si02
#       5
#    16  16  16  16  16
#     4  10  19  32  51  74  98 123 157 200 238 273
#     4   8  16  28  39  53  76 111 151 186 223 271
#     4   9  18  30  44  61  85 119 154 188 229 277
#     4   9  19  35  53  72  97 129 158 187 233 291
#     4   9  17  28  41  59  84 113 149 194 237 274
#
# _framework density 20.349557999999998
#
# number of rings (size 3 to 8) (size 9 to 14) (size 15 to 20)
#    1.200    1.800    0.000    1.200    0.000    4.400 
#    0.000    4.000    0.000    0.000    0.000    0.000 
#    0.000    0.800    0.000    9.200    0.000    2.600 
#
# Total GULP energy -222729.806501 kJ/mol
# GULP energy per Si atom -5568.245163 kJ/mol
# Density = 2.030324 g / cm^3
# Si number density = 20.349558 Si / 1000 Ang^3
#
#
#
# Elastic Constant Matrix: (Units=GPa)
#
#
# Indices 1 2 3 4 5 6 
#
# 1 110.9664 59.9707 12.1317 0.0000 0.0000 0.0000
# 2 59.9707 89.9162 -2.0689 0.0000 0.0000 0.0000
# 3 12.1317 -2.0689 75.2492 0.0001 -0.0001 0.0000
# 4 0.0000 0.0000 0.0001 -8.7361 0.0000 0.0000
# 5 0.0000 0.0000 -0.0001 0.0000 -7.0445 0.0000
# 6 0.0000 0.0000 0.0000 0.0000 0.0000 31.1883
#
#
#
# Elastic Compliance Matrix: (Units=1/GPa)
#
#
# Indices 1 2 3 4 5 6 
#
# 1 0.014590 -0.009791 -0.002621 0.000000 0.000000 0.000000
# 2 -0.009791 0.017699 0.002065 0.000000 0.000000 0.000000
# 3 -0.002621 0.002065 0.013769 0.000000 0.000000 0.000000
# 4 0.000000 0.000000 0.000000 -0.114468 0.000001 0.000000
# 5 0.000000 0.000000 0.000000 0.000001 -0.141955 0.000000
# 6 0.000000 0.000000 0.000000 0.000000 0.000000 0.032063
#
#
# Mechanical properties :
#
#
# Convention : Reuss Voigt Hill
#
# Bulk Modulus (GPa) = 39.42759 46.24431 42.83595
# Shear Modulus (GPa) = -33.52265 16.82144 -8.35060
#
# Velocity S-wave (km/s) = -4.06315 2.87823 -2.02793
# Velocity P-wave (km/s) = 1.61090 5.81549 3.95126
#
# Compressibility (1/GPa) = 0.02536295
#
# Stress axis : x y z
#
# Youngs Moduli (GPa) = 68.54066 56.49928 72.62917
#
# Poissons Ratio (x) = 0.55320 0.19039
# Poissons Ratio (y) = 0.67110 -0.14999
# Poissons Ratio (z) = 0.17967 -0.11668
#
# Static dielectric constant tensor:
#      x y z
#    x 1.677180 0.000000 0.000000 
#    y 0.000000 1.745490 0.000000 
#    z 0.000000 0.000000 1.747660 
# 
# From -- ./inp_files/42376.got.cif
#   From: 2010.05.17/outbox.cif.g08.bks.cpg/sg71_22_cif.got.tgz:42376.got - 2010.06.03 16:22:01.
