data_PCOD9519662
_publ_section_title
;
Structure prediction by ZEFSAII (Michael W. Deem and Ramdas Pophale) SiO2 
 PCOD9519662
Probable space group: I M M M
;
_chemical_formula_sum "Si O2"
_cell_formula_units_Z 104
_cell_length_a 27.784169
_cell_length_b 22.193472
_cell_length_c 9.323411
_cell_angle_alpha 90.000000
_cell_angle_beta 90.000000
_cell_angle_gamma 90.000000
_cell_volume 5749.068603
_symmetry_space_group_name_H-M "I M M M"
_symmetry_group_IT_number 71
_symmetry_cell_setting 'orthorhombic'
loop_
_space_group_symop_operation_xyz
x,y,z
-x,-y,z
x,-y,-z
-x,y,-z
-x,-y,-z
x,y,-z
-x,y,z
x,-y,z
1/2+x,1/2+y,1/2+z
1/2-x,1/2-y,1/2+z
1/2+x,1/2-y,1/2-z
1/2-x,1/2+y,1/2-z
1/2-x,1/2-y,1/2-z
1/2+x,1/2+y,1/2-z
1/2-x,1/2+y,1/2+z
1/2+x,1/2-y,1/2+z
loop_
_atom_site_type_symbol
_atom_site_label
_atom_site_fract_x
_atom_site_fract_y
_atom_site_fract_z
Si Si1 0.559121 0.500000 0.335894
Si Si2 0.143783 0.570851 0.671934
Si Si3 0.056212 0.113956 0.339611
Si Si4 0.266398 0.154893 0.835599
Si Si5 0.814428 0.212700 0.335831
Si Si6 0.944754 0.365290 0.172061
Si Si7 0.913073 0.228417 0.170639
O O1 0.500000 0.500000 0.338482
O O2 0.574791 0.500000 0.500000
O O3 0.576749 0.440731 0.253303
O O4 0.137940 0.578472 0.500000
O O5 0.149909 0.500000 0.702301
O O6 0.191353 0.609365 0.711828
O O7 0.096371 0.596471 0.749507
O O8 0.076649 0.117799 0.500000
O O9 0.059787 0.176086 0.254810
O O10 0.000000 0.099865 0.354107
O O11 0.221360 0.162793 0.729930
O O12 0.288733 0.222104 0.840035
O O13 0.252204 0.139363 0.000000
O O14 0.828182 0.198687 0.500000
O O15 0.859268 0.222217 0.231013
O O16 0.933915 0.294732 0.201343
O O17 0.000000 0.379487 0.214110
O O18 0.940893 0.373796 0.000000
O O19 0.915222 0.219145 0.000000
#
# Coordination Sequence:
#
# PCOD9519662 Si02
#       7
#     8  16  16  16  16  16  16
#     4   9  17  31  51  73  99 135 179 221 261 315
#     4  10  21  38  60  84 111 147 191 237 286 344
#     4  10  20  33  51  76 106 141 181 226 275 326
#     4   9  18  34  55  81 110 137 172 219 274 332
#     4  10  19  32  55  83 109 137 173 218 273 334
#     4  10  22  38  55  79 114 153 193 240 289 337
#     4  11  21  34  54  80 112 147 186 230 282 339
#
# _framework density 18.089887000000001
#
# number of rings (size 3 to 8) (size 9 to 14) (size 15 to 20)
#    0.000    2.077    1.538    2.077    0.000    5.231 
#    0.000    1.538    1.692    0.000    0.000    0.000 
#    0.000    0.000    0.000    0.000    0.000    0.000 
#
# Total GULP energy -289930.933199 kJ/mol
# GULP energy per Si atom -5575.594869 kJ/mol
# Density = 1.804871 g / cm^3
# Si number density = 18.089887 Si / 1000 Ang^3
#
#
#
# Elastic Constant Matrix: (Units=GPa)
#
#
# Indices 1 2 3 4 5 6 
#
# 1 45.4166 19.9907 15.6120 0.0000 0.0000 0.0000
# 2 19.9907 86.6563 41.2279 0.0000 0.0000 0.0000
# 3 15.6120 41.2279 81.4070 0.0000 0.0000 0.0000
# 4 0.0000 0.0000 0.0000 18.6722 0.0000 0.0000
# 5 0.0000 0.0000 0.0000 0.0000 26.5217 0.0000
# 6 0.0000 0.0000 0.0000 0.0000 0.0000 24.0572
#
#
#
# Elastic Compliance Matrix: (Units=1/GPa)
#
#
# Indices 1 2 3 4 5 6 
#
# 1 0.024874 -0.004570 -0.002456 0.000000 0.000000 0.000000
# 2 -0.004570 0.016042 -0.007248 0.000000 0.000000 0.000000
# 3 -0.002456 -0.007248 0.016426 0.000000 0.000000 0.000000
# 4 0.000000 0.000000 0.000000 0.053556 0.000000 0.000000
# 5 0.000000 0.000000 0.000000 0.000000 0.037705 0.000000
# 6 0.000000 0.000000 0.000000 0.000000 0.000000 0.041568
#
#
# Mechanical properties :
#
#
# Convention : Reuss Voigt Hill
#
# Bulk Modulus (GPa) = 34.72892 40.79345 37.76118
# Shear Modulus (GPa) = 21.89946 22.96019 22.42982
#
# Velocity S-wave (km/s) = 3.48313 3.56649 3.52506
# Velocity P-wave (km/s) = 5.95113 6.28961 6.12271
#
# Compressibility (1/GPa) = 0.02879445
#
# Stress axis : x y z
#
# Youngs Moduli (GPa) = 40.20260 62.33467 60.88009
#
# Poissons Ratio (x) = 0.28485 0.14952
# Poissons Ratio (y) = 0.18371 0.44127
# Poissons Ratio (z) = 0.09874 0.45181
#
# Static dielectric constant tensor:
#      x y z
#    x 1.662170 0.000000 0.000000 
#    y 0.000000 1.600770 0.000000 
#    z 0.000000 0.000000 1.633020 
# 
# From -- ./inp_files/11084.got.cif
#   From: 2010.05.17/outbox.cif.g08.bks.cpg/sg71_6_cif.got.tgz:11084.got - 2010.06.03 16:22:01.
