data_PCOD9519301
_publ_section_title
;
Structure prediction by ZEFSAII (Michael W. Deem and Ramdas Pophale) SiO2 
 PCOD9519301
Probable space group: I M M M
;
_chemical_formula_sum "Si O2"
_cell_formula_units_Z 90
_cell_length_a 27.378800
_cell_length_b 20.176723
_cell_length_c 7.702014
_cell_angle_alpha 90.000000
_cell_angle_beta 90.000000
_cell_angle_gamma 90.000000
_cell_volume 4254.703933
_symmetry_space_group_name_H-M "I M M M"
_symmetry_group_IT_number 71
_symmetry_cell_setting 'orthorhombic'
loop_
_space_group_symop_operation_xyz
x,y,z
-x,-y,z
x,-y,-z
-x,y,-z
-x,-y,-z
x,y,-z
-x,y,z
x,-y,z
1/2+x,1/2+y,1/2+z
1/2-x,1/2-y,1/2+z
1/2+x,1/2-y,1/2-z
1/2-x,1/2+y,1/2-z
1/2-x,1/2-y,1/2-z
1/2+x,1/2+y,1/2-z
1/2-x,1/2+y,1/2+z
1/2+x,1/2-y,1/2+z
loop_
_atom_site_type_symbol
_atom_site_label
_atom_site_fract_x
_atom_site_fract_y
_atom_site_fract_z
Si Si1 0.681138 0.000000 0.212677
Si Si2 0.764700 0.631311 0.705097
Si Si3 0.500000 0.500000 0.000000
Si Si4 0.569313 0.000000 0.699957
Si Si5 0.410080 0.500000 0.715604
Si Si6 0.052309 0.352118 0.298366
Si Si7 0.851757 0.275552 0.201479
Si Si8 0.653343 0.630492 0.288693
O O1 0.708412 0.065898 0.271868
O O2 0.627356 0.000000 0.285528
O O3 0.677833 0.000000 0.000000
O O4 0.758993 0.621934 0.500000
O O5 0.802155 0.692267 0.725361
O O6 0.709668 0.633017 0.773924
O O7 0.456902 0.500000 0.843044
O O8 0.553000 0.931521 0.784216
O O9 0.554417 0.000000 0.500000
O O10 0.419467 0.500000 0.500000
O O11 0.377772 0.565784 0.758186
O O12 0.053766 0.333713 0.500000
O O13 0.101783 0.323416 0.219591
O O14 0.000000 0.328900 0.223724
O O15 0.866197 0.202641 0.268696
O O16 0.840422 0.267752 0.000000
O O17 0.653293 0.628654 0.500000
#
# Coordination Sequence:
#
# PCOD9519301 Si02
#       8
#     8  16   2   8   8  16  16  16
#     4  10  19  31  55  85 118 159 206 247 285 354
#     4  10  19  35  60  90 125 172 216 255 313 382
#     4  12  26  48  76 118 128 168 222 282 346 422
#     4  12  23  36  59  84 116 151 195 256 305 351
#     4  10  22  49  76 101 138 173 218 280 343 407
#     4  11  24  42  60  82 113 162 214 260 309 367
#     4  11  22  37  57  91 129 163 211 263 319 386
#     4   9  20  40  67  94 126 170 210 256 325 394
#
# _framework density 21.153057
#
# number of rings (size 3 to 8) (size 9 to 14) (size 15 to 20)
#    0.000    1.600    1.778    3.333    0.000    4.622 
#    6.400    0.000    1.956    0.000    0.000    0.000 
#    0.000    0.000    0.000    0.000    0.000    0.000 
#
# Total GULP energy -250799.430990 kJ/mol
# GULP energy per Si atom -5573.320689 kJ/mol
# Density = 2.110491 g / cm^3
# Si number density = 21.153057 Si / 1000 Ang^3
#
#
#
# Elastic Constant Matrix: (Units=GPa)
#
#
# Indices 1 2 3 4 5 6 
#
# 1 159.3234 70.0631 11.3545 0.0000 0.0000 0.0000
# 2 70.0631 145.4526 3.4411 0.0000 0.0000 0.0000
# 3 11.3545 3.4411 47.7652 0.0000 0.0000 0.0000
# 4 0.0000 0.0000 0.0000 60.6805 0.0000 0.0000
# 5 0.0000 0.0000 0.0000 0.0000 -32.3264 0.0000
# 6 0.0000 0.0000 0.0000 0.0000 0.0000 20.3136
#
#
#
# Elastic Compliance Matrix: (Units=1/GPa)
#
#
# Indices 1 2 3 4 5 6 
#
# 1 0.008090 -0.003858 -0.001645 0.000000 0.000000 0.000000
# 2 -0.003858 0.008727 0.000288 0.000000 0.000000 0.000000
# 3 -0.001645 0.000288 0.021306 0.000000 0.000000 0.000000
# 4 0.000000 0.000000 0.000000 0.016480 0.000000 0.000000
# 5 0.000000 0.000000 0.000000 0.000000 -0.030934 0.000000
# 6 0.000000 0.000000 0.000000 0.000000 0.000000 0.049228
#
#
# Mechanical properties :
#
#
# Convention : Reuss Voigt Hill
#
# Bulk Modulus (GPa) = 36.10988 58.02874 47.06931
# Shear Modulus (GPa) = 54.02035 27.57903 40.79969
#
# Velocity S-wave (km/s) = 5.05898 3.61471 4.39656
# Velocity P-wave (km/s) = 7.15767 6.70178 6.93347
#
# Compressibility (1/GPa) = 0.02769325
#
# Stress axis : x y z
#
# Youngs Moduli (GPa) = 123.60267 114.59076 46.93498
#
# Poissons Ratio (x) = 0.44211 0.07722
# Poissons Ratio (y) = 0.47688 -0.01354
# Poissons Ratio (z) = 0.20336 -0.03305
#
# Static dielectric constant tensor:
#      x y z
#    x 1.769690 0.000000 0.000000 
#    y 0.000000 1.782590 0.000000 
#    z 0.000000 0.000000 1.774270 
# 
# From -- ./inp_files/12668.got.cif
#   From: 2010.05.17/outbox.cif.g08.bks.cpg/sg71_7_cif.got.tgz:12668.got - 2010.06.03 16:22:01.
