data_PCOD9519928
_publ_section_title
;
Structure prediction by ZEFSAII (Michael W. Deem and Ramdas Pophale) SiO2 
 PCOD9519928
Probable space group: I M M M
;
_chemical_formula_sum "Si O2"
_cell_formula_units_Z 72
_cell_length_a 13.393222
_cell_length_b 16.092651
_cell_length_c 16.309352
_cell_angle_alpha 90.000000
_cell_angle_beta 90.000000
_cell_angle_gamma 90.000000
_cell_volume 3515.194552
_symmetry_space_group_name_H-M "I M M M"
_symmetry_group_IT_number 71
_symmetry_cell_setting 'orthorhombic'
loop_
_space_group_symop_operation_xyz
x,y,z
-x,-y,z
x,-y,-z
-x,y,-z
-x,-y,-z
x,y,-z
-x,y,z
x,-y,z
1/2+x,1/2+y,1/2+z
1/2-x,1/2-y,1/2+z
1/2+x,1/2-y,1/2-z
1/2-x,1/2+y,1/2-z
1/2-x,1/2-y,1/2-z
1/2+x,1/2+y,1/2-z
1/2-x,1/2+y,1/2+z
1/2+x,1/2-y,1/2+z
loop_
_atom_site_type_symbol
_atom_site_label
_atom_site_fract_x
_atom_site_fract_y
_atom_site_fract_z
Si Si1 0.324301 0.825834 0.908176
Si Si2 0.306542 0.094171 0.599267
Si Si3 0.111385 0.229461 0.864940
Si Si4 0.610906 0.661461 0.180658
Si Si5 0.119135 0.500000 0.596019
O O1 0.207009 0.806038 0.911426
O O2 0.376792 0.750201 0.863605
O O3 0.341997 0.914530 0.866455
O O4 0.365782 0.829926 0.000000
O O5 0.296972 0.105571 0.500000
O O6 0.372333 0.170586 0.633733
O O7 0.199267 0.106162 0.643363
O O8 0.343421 0.000000 0.613130
O O9 0.121075 0.186860 0.775735
O O10 0.000000 0.211870 0.896183
O O11 0.500000 0.626981 0.166909
O O12 0.153010 0.500000 0.500000
O O13 0.000000 0.500000 0.597625
#
# Coordination Sequence:
#
# PCOD9519928 Si02
#       5
#    16  16  16  16   8
#     4  10  19  33  55  80 106 140 179 224 273 318
#     4  10  21  36  57  85 112 142 183 233 285 331
#     4  10  21  38  55  77 110 148 189 224 266 327
#     4  10  20  36  55  78 109 145 183 222 272 332
#     4   9  18  32  51  79 109 131 163 216 272 320
#
# _framework density 20.482507999999999
#
# number of rings (size 3 to 8) (size 9 to 14) (size 15 to 20)
#    0.000    2.111    0.000    6.000    0.000    5.333 
#    8.000    2.778    0.000    2.000    0.000    0.000 
#    0.000    0.000    0.000    0.000    0.000    0.000 
#
# Total GULP energy -200773.555723 kJ/mol
# GULP energy per Si atom -5577.043215 kJ/mol
# Density = 2.043589 g / cm^3
# Si number density = 20.482508 Si / 1000 Ang^3
#
#
#
# Elastic Constant Matrix: (Units=GPa)
#
#
# Indices 1 2 3 4 5 6 
#
# 1 76.0026 -6.2819 -1.4311 0.0000 0.0000 0.0000
# 2 -6.2819 82.1757 -17.8648 0.0000 0.0000 0.0000
# 3 -1.4311 -17.8648 39.7592 0.0000 0.0000 0.0000
# 4 0.0000 0.0000 0.0000 126.4839 0.0000 0.0000
# 5 0.0000 0.0000 0.0000 0.0000 77.5870 0.0000
# 6 0.0000 0.0000 0.0000 0.0000 0.0000 2.3395
#
#
#
# Elastic Compliance Matrix: (Units=1/GPa)
#
#
# Indices 1 2 3 4 5 6 
#
# 1 0.013279 0.001240 0.001035 0.000000 0.000000 0.000000
# 2 0.001240 0.013602 0.006156 0.000000 0.000000 0.000000
# 3 0.001035 0.006156 0.027955 0.000000 0.000000 0.000000
# 4 0.000000 0.000000 0.000000 0.007906 0.000000 0.000000
# 5 0.000000 0.000000 0.000000 0.000000 0.012889 0.000000
# 6 0.000000 0.000000 0.000000 0.000000 0.000000 0.427438
#
#
# Mechanical properties :
#
#
# Convention : Reuss Voigt Hill
#
# Bulk Modulus (GPa) = 13.94690 16.30910 15.12800
# Shear Modulus (GPa) = 9.80189 56.18311 32.99250
#
# Velocity S-wave (km/s) = 2.18995 5.24303 4.01779
# Velocity P-wave (km/s) = 3.63572 6.68073 5.37823
#
# Compressibility (1/GPa) = 0.07170051
#
# Stress axis : x y z
#
# Youngs Moduli (GPa) = 75.30440 73.51718 35.77185
#
# Poissons Ratio (x) = -0.09118 -0.03703
# Poissons Ratio (y) = -0.09339 -0.22023
# Poissons Ratio (z) = -0.07796 -0.45261
#
# Static dielectric constant tensor:
#      x y z
#    x 1.723520 0.000000 0.000000 
#    y 0.000000 1.740410 0.000000 
#    z 0.000000 0.000000 1.753090 
# 
# From -- ./inp_files/34048.got.cif
#   From: 2010.05.17/outbox.cif.g08.bks.cpg/sg71_18_cif.got.tgz:34048.got - 2010.06.03 16:22:01.
