data_PCOD9519247
_publ_section_title
;
Structure prediction by ZEFSAII (Michael W. Deem and Ramdas Pophale) SiO2 
 PCOD9519247
Probable space group: I M M M
;
_chemical_formula_sum "Si O2"
_cell_formula_units_Z 88
_cell_length_a 20.145167
_cell_length_b 15.849052
_cell_length_c 14.395277
_cell_angle_alpha 90.000000
_cell_angle_beta 90.000000
_cell_angle_gamma 90.000000
_cell_volume 4596.149942
_symmetry_space_group_name_H-M "I M M M"
_symmetry_group_IT_number 71
_symmetry_cell_setting 'orthorhombic'
loop_
_space_group_symop_operation_xyz
x,y,z
-x,-y,z
x,-y,-z
-x,y,-z
-x,-y,-z
x,y,-z
-x,y,z
x,-y,z
1/2+x,1/2+y,1/2+z
1/2-x,1/2-y,1/2+z
1/2+x,1/2-y,1/2-z
1/2-x,1/2+y,1/2-z
1/2-x,1/2-y,1/2-z
1/2+x,1/2+y,1/2-z
1/2-x,1/2+y,1/2+z
1/2+x,1/2-y,1/2+z
loop_
_atom_site_type_symbol
_atom_site_label
_atom_site_fract_x
_atom_site_fract_y
_atom_site_fract_z
Si Si1 0.775282 0.754271 0.390286
Si Si2 0.000000 0.597266 0.273342
Si Si3 0.862044 0.828680 0.896940
Si Si4 0.865404 0.404205 0.611262
Si Si5 0.500000 0.742043 0.651561
Si Si6 0.646676 0.405859 0.198592
Si Si7 0.500000 0.596182 0.804296
O O1 0.786938 0.767057 0.500000
O O2 0.697631 0.736416 0.377535
O O3 0.813585 0.668314 0.362582
O O4 0.805231 0.833246 0.336899
O O5 0.934551 0.610139 0.336057
O O6 0.000000 0.500000 0.242005
O O7 0.000000 0.664136 0.190998
O O8 0.931903 0.780534 0.898851
O O9 0.863425 0.891998 0.809616
O O10 0.849590 0.866388 0.000000
O O11 0.875995 0.399746 0.500000
O O12 0.842269 0.500000 0.632166
O O13 0.500000 0.675921 0.736875
O O14 0.671689 0.500000 0.181198
O O15 0.573288 0.397920 0.150926
O O16 0.500000 0.500000 0.762888
#
# Coordination Sequence:
#
# PCOD9519247 Si02
#       7
#    16   8  16  16   8  16   8
#     4  10  21  36  54  80 113 144 178 219 262 318
#     4  10  19  31  51  79 109 142 182 221 259 316
#     4  10  21  37  57  79 103 136 181 230 275 316
#     4   9  17  30  50  78 112 146 177 215 265 316
#     4  10  19  35  56  74 101 138 176 222 275 319
#     4  10  20  35  56  81 112 146 177 215 263 317
#     4   8  16  31  51  77 106 137 175 216 256 306
#
# _framework density 19.146457999999999
#
# number of rings (size 3 to 8) (size 9 to 14) (size 15 to 20)
#    0.000    2.364    0.000    3.273    0.000    2.545 
#    0.000    5.909    0.000    9.273    0.000    0.000 
#    0.000    0.000    0.000    0.000    0.000    0.000 
#
# Total GULP energy -245244.132029 kJ/mol
# GULP energy per Si atom -5573.730273 kJ/mol
# Density = 1.910288 g / cm^3
# Si number density = 19.146458 Si / 1000 Ang^3
#
#
#
# Elastic Constant Matrix: (Units=GPa)
#
#
# Indices 1 2 3 4 5 6 
#
# 1 104.6024 48.4381 12.8137 0.0000 0.0000 0.0000
# 2 48.4381 95.2802 25.2742 0.0000 0.0000 0.0000
# 3 12.8137 25.2742 29.4717 0.0000 0.0000 0.0000
# 4 0.0000 0.0000 0.0000 13.7363 0.0000 0.0000
# 5 0.0000 0.0000 0.0000 0.0000 17.1053 0.0000
# 6 0.0000 0.0000 0.0000 0.0000 0.0000 9.3050
#
#
#
# Elastic Compliance Matrix: (Units=1/GPa)
#
#
# Indices 1 2 3 4 5 6 
#
# 1 0.012503 -0.006362 0.000019 0.000000 0.000000 0.000000
# 2 -0.006362 0.016823 -0.011661 0.000000 0.000000 0.000000
# 3 0.000019 -0.011661 0.043922 0.000000 0.000000 0.000000
# 4 0.000000 0.000000 0.000000 0.072800 0.000000 0.000000
# 5 0.000000 0.000000 0.000000 0.000000 0.058462 0.000000
# 6 0.000000 0.000000 0.000000 0.000000 0.000000 0.107469
#
#
# Mechanical properties :
#
#
# Convention : Reuss Voigt Hill
#
# Bulk Modulus (GPa) = 26.85108 44.71180 35.78144
# Shear Modulus (GPa) = 13.87351 17.55120 15.71236
#
# Velocity S-wave (km/s) = 2.69476 3.03096 2.86779
# Velocity P-wave (km/s) = 4.87204 5.97094 5.44926
#
# Compressibility (1/GPa) = 0.03724245
#
# Stress axis : x y z
#
# Youngs Moduli (GPa) = 79.97764 59.44398 22.76738
#
# Poissons Ratio (x) = 0.37816 -0.00044
# Poissons Ratio (y) = 0.50878 0.26548
# Poissons Ratio (z) = -0.00154 0.69316
#
# Static dielectric constant tensor:
#      x y z
#    x 1.689020 0.000000 0.000000 
#    y 0.000000 1.634660 0.000000 
#    z 0.000000 0.000000 1.691890 
# 
# From -- ./inp_files/37780.got.cif
#   From: 2010.05.17/outbox.cif.g08.bks.cpg/sg71_19_cif.got.tgz:37780.got - 2010.06.03 16:22:01.
