data_PCOD9519585
_publ_section_title
;
Structure prediction by ZEFSAII (Michael W. Deem and Ramdas Pophale) SiO2 
 PCOD9519585
Probable space group: I M M M
;
_chemical_formula_sum "Si O2"
_cell_formula_units_Z 96
_cell_length_a 25.677994
_cell_length_b 24.780941
_cell_length_c 8.574212
_cell_angle_alpha 90.000000
_cell_angle_beta 90.000000
_cell_angle_gamma 90.000000
_cell_volume 5455.984202
_symmetry_space_group_name_H-M "I M M M"
_symmetry_group_IT_number 71
_symmetry_cell_setting 'orthorhombic'
loop_
_space_group_symop_operation_xyz
x,y,z
-x,-y,z
x,-y,-z
-x,y,-z
-x,-y,-z
x,y,-z
-x,y,z
x,-y,z
1/2+x,1/2+y,1/2+z
1/2-x,1/2-y,1/2+z
1/2+x,1/2-y,1/2-z
1/2-x,1/2+y,1/2-z
1/2-x,1/2-y,1/2-z
1/2+x,1/2+y,1/2-z
1/2-x,1/2+y,1/2+z
1/2+x,1/2-y,1/2+z
loop_
_atom_site_type_symbol
_atom_site_label
_atom_site_fract_x
_atom_site_fract_y
_atom_site_fract_z
Si Si1 0.108512 0.105456 0.814707
Si Si2 0.225982 0.500000 0.681435
Si Si3 0.163173 0.000000 0.317779
Si Si4 0.309642 0.310722 0.186505
Si Si5 0.500000 0.563737 0.812913
Si Si6 0.304327 0.184239 0.813999
Si Si7 0.441395 0.000000 0.311154
Si Si8 0.145829 0.416425 0.186306
O O1 0.141438 0.155658 0.748623
O O2 0.051155 0.094599 0.746797
O O3 0.140416 0.052623 0.763728
O O4 0.105596 0.109625 0.000000
O O5 0.241238 0.500000 0.500000
O O6 0.275468 0.500000 0.792338
O O7 0.190674 0.551280 0.722868
O O8 0.148937 0.000000 0.500000
O O9 0.313777 0.247106 0.224740
O O10 0.254357 0.329712 0.257680
O O11 0.306610 0.316625 0.000000
O O12 0.500000 0.500000 0.761482
O O13 0.500000 0.563120 0.000000
O O14 0.345975 0.145276 0.732899
O O15 0.306966 0.177951 0.000000
O O16 0.407599 0.947035 0.269319
O O17 0.500000 0.000000 0.249357
O O18 0.444190 0.000000 0.500000
O O19 0.152661 0.423126 0.000000
#
# Coordination Sequence:
#
# PCOD9519585 Si02
#       8
#    16   8   8  16   8  16   8  16
#     4  12  24  38  58  83 110 141 184 233 277 324
#     4  11  21  33  49  75 111 145 178 220 270 326
#     4  12  23  36  53  76 109 144 180 221 271 332
#     4  10  21  37  57  81 111 148 186 224 270 326
#     4  11  23  41  63  83 108 146 186 227 280 335
#     4  10  20  35  56  82 113 147 183 222 269 325
#     4   8  16  32  54  79 104 135 178 220 265 314
#     4  10  19  32  53  79 108 142 177 220 271 327
#
# _framework density 17.595358000000001
#
# number of rings (size 3 to 8) (size 9 to 14) (size 15 to 20)
#    0.000    1.500    0.833    6.250    0.000    2.333 
#    0.000    0.000    1.833    9.000    0.000    0.000 
#    0.000    0.000    0.000    0.000    0.000    0.000 
#
# Total GULP energy -268081.397722 kJ/mol
# GULP energy per Si atom -5585.029119 kJ/mol
# Density = 1.755531 g / cm^3
# Si number density = 17.595358 Si / 1000 Ang^3
#
#
#
# Elastic Constant Matrix: (Units=GPa)
#
#
# Indices 1 2 3 4 5 6 
#
# 1 130.2642 60.8011 18.7592 0.0000 0.0000 0.0000
# 2 60.8011 94.3472 32.0785 0.0000 0.0000 0.0000
# 3 18.7592 32.0785 59.7060 0.0000 0.0000 0.0000
# 4 0.0000 0.0000 0.0000 36.4102 0.0000 0.0000
# 5 0.0000 0.0000 0.0000 0.0000 19.2258 0.0000
# 6 0.0000 0.0000 0.0000 0.0000 0.0000 65.8241
#
#
#
# Elastic Compliance Matrix: (Units=1/GPa)
#
#
# Indices 1 2 3 4 5 6 
#
# 1 0.010988 -0.007228 0.000431 0.000000 0.000000 0.000000
# 2 -0.007228 0.017722 -0.007251 0.000000 0.000000 0.000000
# 3 0.000431 -0.007251 0.020509 0.000000 0.000000 0.000000
# 4 0.000000 0.000000 0.000000 0.027465 0.000000 0.000000
# 5 0.000000 0.000000 0.000000 0.000000 0.052013 0.000000
# 6 0.000000 0.000000 0.000000 0.000000 0.000000 0.015192
#
#
# Mechanical properties :
#
#
# Convention : Reuss Voigt Hill
#
# Bulk Modulus (GPa) = 47.33920 56.39944 51.86932
# Shear Modulus (GPa) = 27.92880 35.80392 31.86636
#
# Velocity S-wave (km/s) = 3.98839 4.51583 4.26028
# Velocity P-wave (km/s) = 6.94064 7.70152 7.33096
#
# Compressibility (1/GPa) = 0.02112414
#
# Stress axis : x y z
#
# Youngs Moduli (GPa) = 91.00655 56.42611 48.75895
#
# Poissons Ratio (x) = 0.40783 -0.02101
# Poissons Ratio (y) = 0.65777 0.35354
# Poissons Ratio (z) = -0.03921 0.40914
#
# Static dielectric constant tensor:
#      x y z
#    x 1.591230 0.000000 0.000000 
#    y 0.000000 1.615580 0.000000 
#    z 0.000000 0.000000 1.587870 
# 
# From -- ./inp_files/12964.got.cif
#   From: 2010.05.17/outbox.cif.g08.bks.cpg/sg71_7_cif.got.tgz:12964.got - 2010.06.03 16:22:01.
