data_PCOD9519748
_publ_section_title
;
Structure prediction by ZEFSAII (Michael W. Deem and Ramdas Pophale) SiO2 
 PCOD9519748
Probable space group: I M M M
;
_chemical_formula_sum "Si O2"
_cell_formula_units_Z 80
_cell_length_a 21.999975
_cell_length_b 14.077980
_cell_length_c 14.434447
_cell_angle_alpha 90.000000
_cell_angle_beta 90.000000
_cell_angle_gamma 90.000000
_cell_volume 4470.567756
_symmetry_space_group_name_H-M "I M M M"
_symmetry_group_IT_number 71
_symmetry_cell_setting 'orthorhombic'
loop_
_space_group_symop_operation_xyz
x,y,z
-x,-y,z
x,-y,-z
-x,y,-z
-x,-y,-z
x,y,-z
-x,y,z
x,-y,z
1/2+x,1/2+y,1/2+z
1/2-x,1/2-y,1/2+z
1/2+x,1/2-y,1/2-z
1/2-x,1/2+y,1/2-z
1/2-x,1/2-y,1/2-z
1/2+x,1/2+y,1/2-z
1/2-x,1/2+y,1/2+z
1/2+x,1/2-y,1/2+z
loop_
_atom_site_type_symbol
_atom_site_label
_atom_site_fract_x
_atom_site_fract_y
_atom_site_fract_z
Si Si1 0.692091 0.386732 0.295595
Si Si2 0.126221 0.275326 0.892263
Si Si3 0.246194 0.113014 0.395829
Si Si4 0.931901 0.386462 0.734416
Si Si5 0.820187 0.384907 0.605685
O O1 0.682688 0.500000 0.304126
O O2 0.641027 0.325801 0.346042
O O3 0.701207 0.361482 0.187565
O O4 0.756694 0.362523 0.344392
O O5 0.189828 0.333700 0.885615
O O6 0.078693 0.332677 0.830593
O O7 0.110258 0.267256 0.000000
O O8 0.223116 0.129932 0.500000
O O9 0.258174 0.000000 0.385986
O O10 0.925198 0.500000 0.748496
O O11 0.878603 0.354660 0.664708
O O12 0.000000 0.369392 0.698551
O O13 0.820338 0.350408 0.500000
O O14 0.822803 0.500000 0.602656
#
# Coordination Sequence:
#
# PCOD9519748 Si02
#       5
#    16  16  16  16  16
#     4  10  19  33  51  74 106 137 166 203 251 305
#     4  11  21  32  50  74 101 133 170 210 252 300
#     4   9  17  29  47  72 102 134 165 199 244 298
#     4  10  21  36  52  72 100 134 172 211 251 298
#     4   9  17  30  49  73 102 135 167 200 243 298
#
# _framework density 17.894818999999998
#
# number of rings (size 3 to 8) (size 9 to 14) (size 15 to 20)
#    0.000    2.200    2.000    1.800    0.000    3.200 
#    0.000    3.000    0.000    0.600    0.000    1.400 
#    0.000    0.000    0.000    6.800    0.000    0.200 
#
# Total GULP energy -223282.081154 kJ/mol
# GULP energy per Si atom -5582.052029 kJ/mol
# Density = 1.785409 g / cm^3
# Si number density = 17.894819 Si / 1000 Ang^3
#
#
#
# Elastic Constant Matrix: (Units=GPa)
#
#
# Indices 1 2 3 4 5 6 
#
# 1 39.9604 16.8389 15.4907 0.0000 0.0000 0.0000
# 2 16.8389 59.5877 16.5422 0.0000 0.0000 0.0000
# 3 15.4907 16.5422 110.8486 0.0000 0.0000 0.0000
# 4 0.0000 0.0000 0.0000 19.3816 0.0000 0.0000
# 5 0.0000 0.0000 0.0000 0.0000 9.9468 0.0000
# 6 0.0000 0.0000 0.0000 0.0000 0.0000 20.5816
#
#
#
# Elastic Compliance Matrix: (Units=1/GPa)
#
#
# Indices 1 2 3 4 5 6 
#
# 1 0.029325 -0.007458 -0.002985 0.000000 0.000000 0.000000
# 2 -0.007458 0.019404 -0.001853 0.000000 0.000000 0.000000
# 3 -0.002985 -0.001853 0.009715 0.000000 0.000000 0.000000
# 4 0.000000 0.000000 0.000000 0.051595 0.000000 0.000000
# 5 0.000000 0.000000 0.000000 0.000000 0.100535 0.000000
# 6 0.000000 0.000000 0.000000 0.000000 0.000000 0.048587
#
#
# Mechanical properties :
#
#
# Convention : Reuss Voigt Hill
#
# Bulk Modulus (GPa) = 29.54161 34.23780 31.88970
# Shear Modulus (GPa) = 16.94697 20.75034 18.84865
#
# Velocity S-wave (km/s) = 3.08073 3.40894 3.24898
# Velocity P-wave (km/s) = 5.40359 5.88803 5.65100
#
# Compressibility (1/GPa) = 0.03385056
#
# Stress axis : x y z
#
# Youngs Moduli (GPa) = 34.10088 51.53543 102.93302
#
# Poissons Ratio (x) = 0.38436 0.30726
# Poissons Ratio (y) = 0.25433 0.19078
# Poissons Ratio (z) = 0.10179 0.09552
#
# Static dielectric constant tensor:
#      x y z
#    x 1.570760 0.000000 0.000000 
#    y 0.000000 1.638750 0.000000 
#    z 0.000000 0.000000 1.633800 
# 
# From -- ./inp_files/34253.got.cif
#   From: 2010.05.17/outbox.cif.g08.bks.cpg/sg71_18_cif.got.tgz:34253.got - 2010.06.03 16:22:01.
