data_PCOD9519388
_publ_section_title
;
Structure prediction by ZEFSAII (Michael W. Deem and Ramdas Pophale) SiO2 
 PCOD9519388
Probable space group: I M M M
;
_chemical_formula_sum "Si O2"
_cell_formula_units_Z 104
_cell_length_a 7.823778
_cell_length_b 27.621678
_cell_length_c 26.819537
_cell_angle_alpha 90.000000
_cell_angle_beta 90.000000
_cell_angle_gamma 90.000000
_cell_volume 5795.859555
_symmetry_space_group_name_H-M "I M M M"
_symmetry_group_IT_number 71
_symmetry_cell_setting 'orthorhombic'
loop_
_space_group_symop_operation_xyz
x,y,z
-x,-y,z
x,-y,-z
-x,y,-z
-x,-y,-z
x,y,-z
-x,y,z
x,-y,z
1/2+x,1/2+y,1/2+z
1/2-x,1/2-y,1/2+z
1/2+x,1/2-y,1/2-z
1/2-x,1/2+y,1/2-z
1/2-x,1/2-y,1/2-z
1/2+x,1/2+y,1/2-z
1/2-x,1/2+y,1/2+z
1/2+x,1/2-y,1/2+z
loop_
_atom_site_type_symbol
_atom_site_label
_atom_site_fract_x
_atom_site_fract_y
_atom_site_fract_z
Si Si1 0.500000 0.448454 0.394711
Si Si2 0.810359 0.594940 0.443797
Si Si3 0.706887 0.237747 0.556410
Si Si4 0.691667 0.817512 0.864648
Si Si5 0.799142 0.556288 0.854655
Si Si6 0.500000 0.635591 0.312760
Si Si7 0.500000 0.443186 0.774637
Si Si8 0.792143 0.625637 0.944597
O O1 0.500000 0.500000 0.368799
O O2 0.334181 0.442225 0.428563
O O3 0.500000 0.404845 0.356128
O O4 0.781632 0.612665 0.500000
O O5 0.802691 0.639358 0.405516
O O6 0.000000 0.573664 0.440805
O O7 0.761737 0.252926 0.500000
O O8 0.500000 0.240317 0.556847
O O9 0.771263 0.270439 0.601703
O O10 0.757883 0.181640 0.562907
O O11 0.500000 0.815271 0.843750
O O12 0.833875 0.831122 0.823622
O O13 0.790726 0.500000 0.870412
O O14 0.669661 0.561804 0.808710
O O15 0.741864 0.590775 0.899789
O O16 0.000000 0.566431 0.842421
O O17 0.500000 0.601355 0.264295
O O18 0.500000 0.500000 0.756031
O O19 0.000000 0.625011 0.945315
O O20 0.734239 0.610515 0.000000
#
# Coordination Sequence:
#
# PCOD9519388 Si02
#       8
#     8  16  16  16  16   8   8  16
#     4  10  20  32  46  65  87 116 156 199 254 316
#     4   9  18  30  43  62  90 121 155 196 245 303
#     4   9  16  28  49  77 110 147 182 216 258 313
#     4  10  19  32  50  73  98 133 173 220 269 317
#     4   9  18  34  57  84 111 144 182 217 262 319
#     4  10  21  37  54  73  97 128 168 227 284 318
#     4  10  21  38  60  82 104 134 180 234 282 328
#     4   8  15  29  51  83 119 152 181 211 254 308
#
# _framework density 17.943845
#
# number of rings (size 3 to 8) (size 9 to 14) (size 15 to 20)
#    0.000    2.769    0.769    1.846    0.000    2.769 
#    1.385    2.692    0.000    5.077    0.000    0.000 
#    0.000    0.000    0.000    0.000    0.000    0.000 
#
# Total GULP energy -289619.623450 kJ/mol
# GULP energy per Si atom -5569.608143 kJ/mol
# Density = 1.790300 g / cm^3
# Si number density = 17.943845 Si / 1000 Ang^3
#
#
#
# Elastic Constant Matrix: (Units=GPa)
#
#
# Indices 1 2 3 4 5 6 
#
# 1 87.9790 43.1600 49.6530 0.0000 0.0000 0.0000
# 2 43.1600 71.2482 51.3946 0.0000 0.0000 0.0000
# 3 49.6530 51.3946 83.8220 0.0000 0.0000 0.0000
# 4 0.0000 0.0000 0.0000 53.7438 0.0000 0.0000
# 5 0.0000 0.0000 0.0000 0.0000 7.5262 0.0000
# 6 0.0000 0.0000 0.0000 0.0000 0.0000 28.0763
#
#
#
# Elastic Compliance Matrix: (Units=1/GPa)
#
#
# Indices 1 2 3 4 5 6 
#
# 1 0.018350 -0.005872 -0.007269 0.000000 0.000000 0.000000
# 2 -0.005872 0.027045 -0.013104 0.000000 0.000000 0.000000
# 3 -0.007269 -0.013104 0.024271 0.000000 0.000000 0.000000
# 4 0.000000 0.000000 0.000000 0.018607 0.000000 0.000000
# 5 0.000000 0.000000 0.000000 0.000000 0.132869 0.000000
# 6 0.000000 0.000000 0.000000 0.000000 0.000000 0.035617
#
#
# Mechanical properties :
#
#
# Convention : Reuss Voigt Hill
#
# Bulk Modulus (GPa) = 58.22503 59.05161 58.63832
# Shear Modulus (GPa) = 15.87430 24.45868 20.16649
#
# Velocity S-wave (km/s) = 2.97756 3.69598 3.35605
# Velocity P-wave (km/s) = 6.65883 7.15502 6.91138
#
# Compressibility (1/GPa) = 0.01717474
#
# Stress axis : x y z
#
# Youngs Moduli (GPa) = 54.49731 36.97528 41.20188
#
# Poissons Ratio (x) = 0.21712 0.29951
# Poissons Ratio (y) = 0.32000 0.53991
# Poissons Ratio (z) = 0.39616 0.48453
#
# Static dielectric constant tensor:
#      x y z
#    x 1.651800 0.000000 0.000000 
#    y 0.000000 1.608630 0.000000 
#    z 0.000000 0.000000 1.594490 
# 
# From -- ./inp_files/58059.got.cif
#   From: 2010.05.17/outbox.cif.g08.bks.cpg/sg71_30_cif.got.tgz:58059.got - 2010.06.03 16:22:01.
