data_PCOD9519160
_publ_section_title
;
Structure prediction by ZEFSAII (Michael W. Deem and Ramdas Pophale) SiO2 
 PCOD9519160
Probable space group: I M M M
;
_chemical_formula_sum "Si O2"
_cell_formula_units_Z 88
_cell_length_a 24.834901
_cell_length_b 25.376842
_cell_length_c 9.445125
_cell_angle_alpha 90.000000
_cell_angle_beta 90.000000
_cell_angle_gamma 90.000000
_cell_volume 5952.613962
_symmetry_space_group_name_H-M "I M M M"
_symmetry_group_IT_number 71
_symmetry_cell_setting 'orthorhombic'
loop_
_space_group_symop_operation_xyz
x,y,z
-x,-y,z
x,-y,-z
-x,y,-z
-x,-y,-z
x,y,-z
-x,y,z
x,-y,z
1/2+x,1/2+y,1/2+z
1/2-x,1/2-y,1/2+z
1/2+x,1/2-y,1/2-z
1/2-x,1/2+y,1/2-z
1/2-x,1/2-y,1/2-z
1/2+x,1/2+y,1/2-z
1/2-x,1/2+y,1/2+z
1/2+x,1/2-y,1/2+z
loop_
_atom_site_type_symbol
_atom_site_label
_atom_site_fract_x
_atom_site_fract_y
_atom_site_fract_z
Si Si1 0.220745 0.061577 0.832373
Si Si2 0.836470 0.247497 0.168392
Si Si3 0.386796 0.589863 0.165791
Si Si4 0.936515 0.206540 0.333393
Si Si5 0.937481 0.000000 0.155109
Si Si6 0.763576 0.671760 0.666526
O O1 0.171290 0.079545 0.734835
O O2 0.263265 0.108895 0.809957
O O3 0.234700 0.000000 0.804227
O O4 0.206418 0.064920 0.000000
O O5 0.894427 0.239771 0.240644
O O6 0.805285 0.296708 0.237172
O O7 0.795729 0.197661 0.194584
O O8 0.841783 0.252767 0.000000
O O9 0.412734 0.647440 0.179596
O O10 0.422777 0.550346 0.254467
O O11 0.384965 0.576851 0.000000
O O12 0.932879 0.221045 0.500000
O O13 0.000000 0.208713 0.293472
O O14 0.000000 0.000000 0.135581
O O15 0.910283 0.000000 0.000000
O O16 0.774662 0.681939 0.500000
#
# Coordination Sequence:
#
# PCOD9519160 Si02
#       6
#    16  16  16  16   8  16
#     4  10  19  32  50  70  96 127 161 199 240 285
#     4  10  19  31  50  73  94 122 161 202 243 288
#     4  11  21  32  47  66  89 120 160 202 243 283
#     4  10  21  35  49  67  95 128 160 199 246 292
#     4  11  23  35  45  57  79 117 163 207 246 281
#     4   9  18  32  49  70  96 126 159 197 243 290
#
# _framework density 14.783422
#
# number of rings (size 3 to 8) (size 9 to 14) (size 15 to 20)
#    0.000    1.909    2.727    1.909    0.000    4.000 
#    0.000    0.000    0.000    0.000    0.000    0.000 
#    0.000    0.727    0.000    8.364    0.000    2.364 
#
# Total GULP energy -245084.769285 kJ/mol
# GULP energy per Si atom -5570.108393 kJ/mol
# Density = 1.474977 g / cm^3
# Si number density = 14.783422 Si / 1000 Ang^3
#
#
#
# Elastic Constant Matrix: (Units=GPa)
#
#
# Indices 1 2 3 4 5 6 
#
# 1 73.8262 50.1684 61.3160 0.0000 0.0000 0.0000
# 2 50.1684 93.0449 59.4509 0.0000 0.0000 0.0000
# 3 61.3160 59.4509 80.4131 0.0000 0.0000 0.0000
# 4 0.0000 0.0000 0.0000 18.1616 0.0000 0.0000
# 5 0.0000 0.0000 0.0000 0.0000 31.4079 0.0000
# 6 0.0000 0.0000 0.0000 0.0000 0.0000 26.0795
#
#
#
# Elastic Compliance Matrix: (Units=1/GPa)
#
#
# Indices 1 2 3 4 5 6 
#
# 1 0.037600 -0.003704 -0.025932 0.000000 0.000000 0.000000
# 2 -0.003704 0.020735 -0.012505 0.000000 0.000000 0.000000
# 3 -0.025932 -0.012505 0.041455 0.000000 0.000000 0.000000
# 4 0.000000 0.000000 0.000000 0.055061 0.000000 0.000000
# 5 0.000000 0.000000 0.000000 0.000000 0.031839 0.000000
# 6 0.000000 0.000000 0.000000 0.000000 0.000000 0.038344
#
#
# Mechanical properties :
#
#
# Convention : Reuss Voigt Hill
#
# Bulk Modulus (GPa) = 64.48766 65.46165 64.97465
# Shear Modulus (GPa) = 15.89894 20.21974 18.05934
#
# Velocity S-wave (km/s) = 3.28297 3.70230 3.49892
# Velocity P-wave (km/s) = 7.62147 7.91534 7.76980
#
# Compressibility (1/GPa) = 0.01550684
#
# Stress axis : x y z
#
# Youngs Moduli (GPa) = 26.59555 48.22782 24.12275
#
# Poissons Ratio (x) = 0.17865 0.62555
# Poissons Ratio (y) = 0.09852 0.30166
# Poissons Ratio (z) = 0.68968 0.60310
#
# Static dielectric constant tensor:
#      x y z
#    x 1.490690 0.000000 0.000000 
#    y 0.000000 1.538570 0.000000 
#    z 0.000000 0.000000 1.509460 
# 
# From -- ./inp_files/10445.got.cif
#   From: 2010.05.17/outbox.cif.g08.bks.cpg/sg71_6_cif.got.tgz:10445.got - 2010.06.03 16:22:01.
