data_PCOD9519734
_publ_section_title
;
Structure prediction by ZEFSAII (Michael W. Deem and Ramdas Pophale) SiO2 
 PCOD9519734
Probable space group: I M M M
;
_chemical_formula_sum "Si O2"
_cell_formula_units_Z 80
_cell_length_a 8.022254
_cell_length_b 24.525230
_cell_length_c 20.201482
_cell_angle_alpha 90.000000
_cell_angle_beta 90.000000
_cell_angle_gamma 90.000000
_cell_volume 3974.593594
_symmetry_space_group_name_H-M "I M M M"
_symmetry_group_IT_number 71
_symmetry_cell_setting 'orthorhombic'
loop_
_space_group_symop_operation_xyz
x,y,z
-x,-y,z
x,-y,-z
-x,y,-z
-x,-y,-z
x,y,-z
-x,y,z
x,-y,z
1/2+x,1/2+y,1/2+z
1/2-x,1/2-y,1/2+z
1/2+x,1/2-y,1/2-z
1/2-x,1/2+y,1/2-z
1/2-x,1/2-y,1/2-z
1/2+x,1/2+y,1/2-z
1/2-x,1/2+y,1/2+z
1/2+x,1/2-y,1/2+z
loop_
_atom_site_type_symbol
_atom_site_label
_atom_site_fract_x
_atom_site_fract_y
_atom_site_fract_z
Si Si1 0.306818 0.225825 0.645214
Si Si2 0.000000 0.437185 0.081124
Si Si3 0.809738 0.066132 0.000000
Si Si4 0.295674 0.562377 0.645707
Si Si5 0.677995 0.372523 0.078440
Si Si6 0.797704 0.831258 0.779760
O O1 0.500000 0.226305 0.625676
O O2 0.205386 0.191125 0.592505
O O3 0.283422 0.191373 0.713069
O O4 0.255046 0.287040 0.663357
O O5 0.835191 0.406001 0.104538
O O6 0.000000 0.500000 0.100577
O O7 0.000000 0.435395 0.000000
O O8 0.735829 0.079370 0.928198
O O9 0.000000 0.087589 0.000000
O O10 0.818842 0.000000 0.000000
O O11 0.500000 0.562068 0.642905
O O12 0.243955 0.500000 0.659574
O O13 0.248060 0.608380 0.698208
O O14 0.500000 0.389901 0.107316
O O15 0.673878 0.381635 0.000000
O O16 0.000000 0.829023 0.771561
#
# Coordination Sequence:
#
# PCOD9519734 Si02
#       6
#    16   8   8  16  16  16
#     4  10  19  33  51  71 102 143 182 226 273 321
#     4   9  18  34  56  82 112 142 175 218 268 326
#     4   7  10  18  36  62  95 129 153 189 253 314
#     4   8  13  24  43  69 101 131 164 212 267 320
#     4  10  20  35  57  82 110 145 180 222 275 325
#     4   9  18  31  49  74  99 136 183 222 270 327
#
# _framework density 20.127842999999999
#
# number of rings (size 3 to 8) (size 9 to 14) (size 15 to 20)
#    0.000    3.000    1.000    1.800    0.000    1.200 
#    1.800    3.000    0.000    2.400    0.000    0.000 
#    0.000    2.400    0.000    0.000    0.000    0.000 
#
# Total GULP energy -222847.608646 kJ/mol
# GULP energy per Si atom -5571.190216 kJ/mol
# Density = 2.008203 g / cm^3
# Si number density = 20.127843 Si / 1000 Ang^3
#
#
#
# Elastic Constant Matrix: (Units=GPa)
#
#
# Indices 1 2 3 4 5 6 
#
# 1 77.4806 25.4852 0.9428 0.0000 0.0000 0.0000
# 2 25.4852 105.3747 14.0496 0.0000 0.0000 0.0000
# 3 0.9428 14.0496 6.9794 0.0001 0.0000 0.0000
# 4 0.0000 0.0000 0.0001 27.9324 0.0000 0.0000
# 5 0.0000 0.0000 0.0000 0.0000 12.8728 0.0000
# 6 0.0000 0.0000 0.0000 0.0000 0.0000 5.8313
#
#
#
# Elastic Compliance Matrix: (Units=1/GPa)
#
#
# Indices 1 2 3 4 5 6 
#
# 1 0.014258 -0.004362 0.006855 0.000000 0.000000 0.000000
# 2 -0.004362 0.014306 -0.028209 0.000000 0.000000 0.000000
# 3 0.006855 -0.028209 0.199137 0.000000 0.000000 0.000000
# 4 0.000000 0.000000 0.000000 0.035801 0.000000 0.000000
# 5 0.000000 0.000000 0.000000 0.000000 0.077683 0.000000
# 6 0.000000 0.000000 0.000000 0.000000 0.000000 0.171487
#
#
# Mechanical properties :
#
#
# Convention : Reuss Voigt Hill
#
# Bulk Modulus (GPa) = 5.67314 30.08775 17.88045
# Shear Modulus (GPa) = 8.02749 19.28445 13.65597
#
# Velocity S-wave (km/s) = 1.99923 3.09867 2.60756
# Velocity P-wave (km/s) = 2.85550 5.27097 4.23893
#
# Compressibility (1/GPa) = 0.17626918
#
# Stress axis : x y z
#
# Youngs Moduli (GPa) = 70.13646 69.90052 5.02167
#
# Poissons Ratio (x) = 0.30493 -0.03443
# Poissons Ratio (y) = 0.30596 0.14166
# Poissons Ratio (z) = -0.48081 1.97181
#
# Static dielectric constant tensor:
#      x y z
#    x 1.742950 0.000000 0.000000 
#    y 0.000000 1.702530 0.000000 
#    z 0.000000 0.000000 1.732760 
# 
# From -- ./inp_files/10722.got.cif
#   From: 2010.05.17/outbox.cif.g08.bks.cpg/sg71_6_cif.got.tgz:10722.got - 2010.06.03 16:22:01.
