data_PCOD9519126
_publ_section_title
;
Structure prediction by ZEFSAII (Michael W. Deem and Ramdas Pophale) SiO2 
 PCOD9519126
Probable space group: I M M M
;
_chemical_formula_sum "Si O2"
_cell_formula_units_Z 120
_cell_length_a 20.617276
_cell_length_b 17.086381
_cell_length_c 19.771227
_cell_angle_alpha 90.000000
_cell_angle_beta 90.000000
_cell_angle_gamma 90.000000
_cell_volume 6964.901734
_symmetry_space_group_name_H-M "I M M M"
_symmetry_group_IT_number 71
_symmetry_cell_setting 'orthorhombic'
loop_
_space_group_symop_operation_xyz
x,y,z
-x,-y,z
x,-y,-z
-x,y,-z
-x,-y,-z
x,y,-z
-x,y,z
x,-y,z
1/2+x,1/2+y,1/2+z
1/2-x,1/2-y,1/2+z
1/2+x,1/2-y,1/2-z
1/2-x,1/2+y,1/2-z
1/2-x,1/2-y,1/2-z
1/2+x,1/2+y,1/2-z
1/2-x,1/2+y,1/2+z
1/2+x,1/2-y,1/2+z
loop_
_atom_site_type_symbol
_atom_site_label
_atom_site_fract_x
_atom_site_fract_y
_atom_site_fract_z
Si Si1 0.893983 0.594747 0.073952
Si Si2 0.673097 0.198481 0.921183
Si Si3 0.076639 0.812580 0.635344
Si Si4 0.244069 0.136660 0.424958
Si Si5 0.676854 0.410656 0.791181
Si Si6 0.797842 0.405882 0.700095
Si Si7 0.078066 0.912066 0.500000
Si Si8 0.070322 0.404773 0.223121
O O1 0.891287 0.500000 0.074793
O O2 0.820954 0.626656 0.077189
O O3 0.927058 0.618113 0.143994
O O4 0.921454 0.617063 0.000000
O O5 0.606971 0.230054 0.886682
O O6 0.721203 0.273477 0.917273
O O7 0.699205 0.129658 0.874473
O O8 0.663874 0.179265 0.000000
O O9 0.116745 0.852414 0.696271
O O10 0.092155 0.865451 0.568665
O O11 0.000000 0.811151 0.646470
O O12 0.222792 0.110317 0.500000
O O13 0.214380 0.089806 0.362900
O O14 0.656563 0.500000 0.775787
O O15 0.731412 0.382689 0.738220
O O16 0.798368 0.500000 0.699248
O O17 0.863020 0.379771 0.740472
O O18 0.000000 0.917337 0.500000
O O19 0.103433 0.000000 0.500000
O O20 0.070861 0.500000 0.225857
O O21 0.000000 0.378867 0.251529
#
# Coordination Sequence:
#
# PCOD9519126 Si02
#       8
#    16  16  16  16  16  16   8  16
#     4   9  15  25  43  67  98 131 162 194 226 277
#     4  10  21  36  54  72  97 131 169 222 273 312
#     4  10  20  33  49  75 109 143 175 205 249 310
#     4   9  17  28  44  70  99 128 161 193 239 299
#     4  10  19  31  49  73 105 141 174 212 253 301
#     4  10  21  37  54  73  96 128 175 225 274 319
#     4   9  16  28  46  70 103 141 174 202 233 284
#     4   9  17  30  46  66  95 128 164 206 251 297
#
# _framework density 17.229246
#
# number of rings (size 3 to 8) (size 9 to 14) (size 15 to 20)
#    0.000    2.467    2.000    0.800    0.933    4.800 
#    0.000    1.333    0.000    0.000    0.000    2.800 
#    0.000    0.533    0.000    2.933    0.000    0.000 
#
# Total GULP energy -334302.256353 kJ/mol
# GULP energy per Si atom -5571.704273 kJ/mol
# Density = 1.719003 g / cm^3
# Si number density = 17.229246 Si / 1000 Ang^3
#
#
#
# Elastic Constant Matrix: (Units=GPa)
#
#
# Indices 1 2 3 4 5 6 
#
# 1 91.1845 19.1593 47.1424 0.0000 0.0000 0.0000
# 2 19.1593 16.5404 27.3545 0.0000 0.0000 0.0000
# 3 47.1424 27.3545 81.4001 0.0000 0.0000 0.0000
# 4 0.0000 0.0000 0.0000 -42.6703 0.0000 0.0000
# 5 0.0000 0.0000 0.0000 0.0000 10.4536 0.0000
# 6 0.0000 0.0000 0.0000 0.0000 0.0000 10.7350
#
#
#
# Elastic Compliance Matrix: (Units=1/GPa)
#
#
# Indices 1 2 3 4 5 6 
#
# 1 0.016030 -0.007236 -0.006852 0.000000 0.000000 0.000000
# 2 -0.007236 0.139359 -0.042641 0.000000 0.000000 0.000000
# 3 -0.006852 -0.042641 0.030583 0.000000 0.000000 0.000000
# 4 0.000000 0.000000 0.000000 -0.023436 0.000000 0.000000
# 5 0.000000 0.000000 0.000000 0.000000 0.095661 0.000000
# 6 0.000000 0.000000 0.000000 0.000000 0.000000 0.093154
#
#
# Mechanical properties :
#
#
# Convention : Reuss Voigt Hill
#
# Bulk Modulus (GPa) = 13.79049 41.82639 27.80844
# Shear Modulus (GPa) = 10.22539 2.06825 6.14682
#
# Velocity S-wave (km/s) = 2.43881 1.09683 1.89088
# Velocity P-wave (km/s) = 3.99398 5.09246 4.57630
#
# Compressibility (1/GPa) = 0.07251376
#
# Stress axis : x y z
#
# Youngs Moduli (GPa) = 62.38486 7.17570 32.69837
#
# Poissons Ratio (x) = 0.05193 0.22404
# Poissons Ratio (y) = 0.45143 1.39429
# Poissons Ratio (z) = 0.42744 0.30598
#
# Static dielectric constant tensor:
#      x y z
#    x 1.626720 0.000000 0.000000 
#    y 0.000000 1.572980 0.000000 
#    z 0.000000 0.000000 1.590140 
# 
# From -- ./inp_files/47583.got.cif
#   From: 2010.05.17/outbox.cif.g08.bks.cpg/sg71_24_cif.got.tgz:47583.got - 2010.06.03 16:22:01.
