data_PCOD9519602
_publ_section_title
;
Structure prediction by ZEFSAII (Michael W. Deem and Ramdas Pophale) SiO2 
 PCOD9519602
Probable space group: I M M M
;
_chemical_formula_sum "Si O2"
_cell_formula_units_Z 80
_cell_length_a 21.058630
_cell_length_b 7.473851
_cell_length_c 23.777578
_cell_angle_alpha 90.000000
_cell_angle_beta 90.000000
_cell_angle_gamma 90.000000
_cell_volume 3742.330719
_symmetry_space_group_name_H-M "I M M M"
_symmetry_group_IT_number 71
_symmetry_cell_setting 'orthorhombic'
loop_
_space_group_symop_operation_xyz
x,y,z
-x,-y,z
x,-y,-z
-x,y,-z
-x,-y,-z
x,y,-z
-x,y,z
x,-y,z
1/2+x,1/2+y,1/2+z
1/2-x,1/2-y,1/2+z
1/2+x,1/2-y,1/2-z
1/2-x,1/2+y,1/2-z
1/2-x,1/2-y,1/2-z
1/2+x,1/2+y,1/2-z
1/2-x,1/2+y,1/2+z
1/2+x,1/2-y,1/2+z
loop_
_atom_site_type_symbol
_atom_site_label
_atom_site_fract_x
_atom_site_fract_y
_atom_site_fract_z
Si Si1 0.125180 0.291356 0.365645
Si Si2 0.500000 0.281091 0.564695
Si Si3 0.374152 0.286119 0.372443
Si Si4 0.753371 0.280525 0.434627
Si Si5 0.426939 0.214455 0.748218
Si Si6 0.000000 0.784854 0.564448
O O1 0.140446 0.500000 0.355983
O O2 0.184750 0.217825 0.400349
O O3 0.106133 0.214519 0.304855
O O4 0.062532 0.279024 0.403621
O O5 0.500000 0.500000 0.566522
O O6 0.500000 0.228473 0.500000
O O7 0.563219 0.218215 0.595800
O O8 0.373365 0.500000 0.379418
O O9 0.309756 0.221460 0.401530
O O10 0.385319 0.250463 0.306823
O O11 0.753676 0.224744 0.500000
O O12 0.754085 0.500000 0.435482
O O13 0.500000 0.281149 0.741880
O O14 0.431823 0.000000 0.754101
O O15 0.000000 0.724686 0.500000
O O16 0.000000 0.000000 0.565464
#
# Coordination Sequence:
#
# PCOD9519602 Si02
#       6
#    16   8  16  16  16   8
#     4  10  20  37  59  80 104 145 189 223 266 320
#     4   9  16  27  47  74 102 133 172 217 264 313
#     4  10  19  32  53  81 108 139 178 220 271 325
#     4   9  18  33  55  83 111 137 177 232 273 312
#     4  10  20  35  53  76 108 141 179 228 270 313
#     4  11  23  36  53  82 114 141 176 227 278 323
#
# _framework density 21.377051000000002
#
# number of rings (size 3 to 8) (size 9 to 14) (size 15 to 20)
#    0.000    2.200    2.000    1.500    0.000    5.600 
#    0.000    1.000    0.000    4.200    0.000    0.000 
#    0.000    0.000    0.000    0.000    0.000    0.000 
#
# Total GULP energy -223459.665744 kJ/mol
# GULP energy per Si atom -5586.491644 kJ/mol
# Density = 2.132840 g / cm^3
# Si number density = 21.377051 Si / 1000 Ang^3
#
#
#
# Elastic Constant Matrix: (Units=GPa)
#
#
# Indices 1 2 3 4 5 6 
#
# 1 213.8664 -1.2903 127.4947 0.0000 0.0000 0.0000
# 2 -1.2903 60.5447 -7.9030 0.0000 0.0000 0.0000
# 3 127.4947 -7.9030 224.7357 0.0000 0.0000 0.0000
# 4 0.0000 0.0000 0.0000 52.0871 0.0000 0.0000
# 5 0.0000 0.0000 0.0000 0.0000 33.2055 0.0000
# 6 0.0000 0.0000 0.0000 0.0000 0.0000 -12.0199
#
#
#
# Elastic Compliance Matrix: (Units=1/GPa)
#
#
# Indices 1 2 3 4 5 6 
#
# 1 0.007074 -0.000375 -0.004026 0.000000 0.000000 0.000000
# 2 -0.000375 0.016613 0.000797 0.000000 0.000000 0.000000
# 3 -0.004026 0.000797 0.006762 0.000000 0.000000 0.000000
# 4 0.000000 0.000000 0.000000 0.019199 0.000000 0.000000
# 5 0.000000 0.000000 0.000000 0.000000 0.030115 0.000000
# 6 0.000000 0.000000 0.000000 0.000000 0.000000 -0.083195
#
#
# Mechanical properties :
#
#
# Convention : Reuss Voigt Hill
#
# Bulk Modulus (GPa) = 43.02931 81.74996 62.38963
# Shear Modulus (GPa) = 433.95184 40.04424 236.99804
#
# Velocity S-wave (km/s) = 14.26323 4.33278 10.54070
# Velocity P-wave (km/s) = 17.07118 7.95963 13.31880
#
# Compressibility (1/GPa) = 0.02323997
#
# Stress axis : x y z
#
# Youngs Moduli (GPa) = 141.36822 60.19472 147.89007
#
# Poissons Ratio (x) = 0.02256 0.59543
# Poissons Ratio (y) = 0.05298 -0.11784
# Poissons Ratio (z) = 0.56917 -0.04796
#
# Static dielectric constant tensor:
#      x y z
#    x 1.733140 0.000000 0.000000 
#    y 0.000000 1.831450 0.000000 
#    z 0.000000 0.000000 1.743160 
# 
# From -- ./inp_files/10717.got.cif
#   From: 2010.05.17/outbox.cif.g08.bks.cpg/sg71_6_cif.got.tgz:10717.got - 2010.06.03 16:22:01.
