data_PCOD9519957
_publ_section_title
;
Structure prediction by ZEFSAII (Michael W. Deem and Ramdas Pophale) SiO2 
 PCOD9519957
Probable space group: I M M M
;
_chemical_formula_sum "Si O2"
_cell_formula_units_Z 116
_cell_length_a 20.350332
_cell_length_b 15.020189
_cell_length_c 21.591323
_cell_angle_alpha 90.000000
_cell_angle_beta 90.000000
_cell_angle_gamma 90.000000
_cell_volume 6599.729727
_symmetry_space_group_name_H-M "I M M M"
_symmetry_group_IT_number 71
_symmetry_cell_setting 'orthorhombic'
loop_
_space_group_symop_operation_xyz
x,y,z
-x,-y,z
x,-y,-z
-x,y,-z
-x,-y,-z
x,y,-z
-x,y,z
x,-y,z
1/2+x,1/2+y,1/2+z
1/2-x,1/2-y,1/2+z
1/2+x,1/2-y,1/2-z
1/2-x,1/2+y,1/2-z
1/2-x,1/2-y,1/2-z
1/2+x,1/2+y,1/2-z
1/2-x,1/2+y,1/2+z
1/2+x,1/2-y,1/2+z
loop_
_atom_site_type_symbol
_atom_site_label
_atom_site_fract_x
_atom_site_fract_y
_atom_site_fract_z
Si Si1 0.773573 0.350787 0.070654
Si Si2 0.425225 0.288933 0.312335
Si Si3 0.809933 0.000000 0.000000
Si Si4 0.803079 0.149094 0.108800
Si Si5 0.175142 0.600942 0.684344
Si Si6 0.575280 0.742682 0.828835
Si Si7 0.370540 0.097458 0.322640
Si Si8 0.379753 0.396667 0.927883
O O1 0.781277 0.245095 0.081944
O O2 0.821361 0.395846 0.119928
O O3 0.698422 0.380333 0.079946
O O4 0.791752 0.372214 0.000000
O O5 0.500000 0.317213 0.324524
O O6 0.371424 0.336883 0.354623
O O7 0.410389 0.298737 0.239102
O O8 0.417674 0.182698 0.324479
O O9 0.808870 0.077762 0.054482
O O10 0.746590 0.120451 0.157092
O O11 0.156102 0.500000 0.666779
O O12 0.124383 0.675176 0.660521
O O13 0.170860 0.606574 0.758886
O O14 0.500000 0.774414 0.826530
O O15 0.584348 0.669388 0.881461
O O16 0.402752 0.000000 0.321265
O O17 0.394620 0.500000 0.915432
O O18 0.395485 0.378253 0.000000
#
# Coordination Sequence:
#
# PCOD9519957 Si02
#       8
#    16  16   4  16  16  16  16  16
#     4  10  19  33  55  83 115 148 181 229 284 337
#     4   9  21  39  58  82 115 152 190 236 289 345
#     4  12  24  40  61  96 107 150 196 244 312 346
#     4  11  21  37  62  83 113 145 190 239 288 347
#     4  10  20  36  59  90 115 146 189 241 290 341
#     4  10  21  38  59  83 117 156 192 235 290 342
#     4   9  19  32  56  88 116 145 186 232 286 341
#     4  10  21  35  54  80 113 152 192 231 276 333
#
# _framework density 17.576477000000001
#
# number of rings (size 3 to 8) (size 9 to 14) (size 15 to 20)
#    0.000    2.069    2.759    0.414    1.931    3.586 
#    1.241    4.483    0.000    0.000    0.000    3.379 
#    0.000    0.000    0.000    0.000    0.000    0.000 
#
# Total GULP energy -323012.823671 kJ/mol
# GULP energy per Si atom -5569.186615 kJ/mol
# Density = 1.753647 g / cm^3
# Si number density = 17.576477 Si / 1000 Ang^3
#
#
#
# Elastic Constant Matrix: (Units=GPa)
#
#
# Indices 1 2 3 4 5 6 
#
# 1 75.6754 29.9057 43.3988 0.0000 0.0000 0.0000
# 2 29.9057 98.8446 43.5002 0.0000 0.0000 0.0000
# 3 43.3988 43.5002 69.5423 0.0000 0.0000 0.0000
# 4 0.0000 0.0000 0.0000 30.3139 0.0000 0.0000
# 5 0.0000 0.0000 0.0000 0.0000 15.1843 0.0000
# 6 0.0000 0.0000 0.0000 0.0000 0.0000 2.8789
#
#
#
# Elastic Compliance Matrix: (Units=1/GPa)
#
#
# Indices 1 2 3 4 5 6 
#
# 1 0.020625 -0.000794 -0.012374 0.000000 0.000000 0.000000
# 2 -0.000794 0.013990 -0.008256 0.000000 0.000000 0.000000
# 3 -0.012374 -0.008256 0.027266 0.000000 0.000000 0.000000
# 4 0.000000 0.000000 0.000000 0.032988 0.000000 0.000000
# 5 0.000000 0.000000 0.000000 0.000000 0.065858 0.000000
# 6 0.000000 0.000000 0.000000 0.000000 0.000000 0.347355
#
#
# Mechanical properties :
#
#
# Convention : Reuss Voigt Hill
#
# Bulk Modulus (GPa) = 52.54068 53.07465 52.80766
# Shear Modulus (GPa) = 8.97224 18.15926 13.56575
#
# Velocity S-wave (km/s) = 2.26181 3.21776 2.78117
# Velocity P-wave (km/s) = 6.06453 6.63832 6.35790
#
# Compressibility (1/GPa) = 0.01903287
#
# Stress axis : x y z
#
# Youngs Moduli (GPa) = 48.48561 71.47768 36.67563
#
# Poissons Ratio (x) = 0.05678 0.45383
# Poissons Ratio (y) = 0.03851 0.30278
# Poissons Ratio (z) = 0.59997 0.59009
#
# Static dielectric constant tensor:
#      x y z
#    x 1.575880 0.000000 0.000000 
#    y 0.000000 1.607000 0.000000 
#    z 0.000000 0.000000 1.583600 
# 
# From -- ./inp_files/60765.got.cif
#   From: 2010.05.17/outbox.cif.g08.bks.cpg/sg71_31_cif.got.tgz:60765.got - 2010.06.03 16:22:01.
