data_PCOD9519097
_publ_section_title
;
Structure prediction by ZEFSAII (Michael W. Deem and Ramdas Pophale) SiO2 
 PCOD9519097
Probable space group: I M M M
;
_chemical_formula_sum "Si O2"
_cell_formula_units_Z 112
_cell_length_a 15.330092
_cell_length_b 33.238975
_cell_length_c 14.088563
_cell_angle_alpha 90.000000
_cell_angle_beta 90.000000
_cell_angle_gamma 90.000000
_cell_volume 7178.919483
_symmetry_space_group_name_H-M "I M M M"
_symmetry_group_IT_number 71
_symmetry_cell_setting 'orthorhombic'
loop_
_space_group_symop_operation_xyz
x,y,z
-x,-y,z
x,-y,-z
-x,y,-z
-x,-y,-z
x,y,-z
-x,y,z
x,-y,z
1/2+x,1/2+y,1/2+z
1/2-x,1/2-y,1/2+z
1/2+x,1/2-y,1/2-z
1/2-x,1/2+y,1/2-z
1/2-x,1/2-y,1/2-z
1/2+x,1/2+y,1/2-z
1/2-x,1/2+y,1/2+z
1/2+x,1/2-y,1/2+z
loop_
_atom_site_type_symbol
_atom_site_label
_atom_site_fract_x
_atom_site_fract_y
_atom_site_fract_z
Si Si1 0.729810 0.547753 0.886991
Si Si2 0.596463 0.906181 0.384928
Si Si3 0.399949 0.606606 0.216955
Si Si4 0.638961 0.687192 0.892184
Si Si5 0.605401 0.661349 0.390557
Si Si6 0.648765 0.183650 0.610045
Si Si7 0.849208 0.239650 0.222408
O O1 0.723937 0.500000 0.875059
O O2 0.825131 0.564374 0.858699
O O3 0.659987 0.571953 0.825350
O O4 0.717260 0.556735 0.000000
O O5 0.594984 0.906089 0.500000
O O6 0.500000 0.917778 0.351503
O O7 0.618131 0.860259 0.357267
O O8 0.500000 0.593378 0.225865
O O9 0.395085 0.644565 0.145315
O O10 0.370243 0.625753 0.317621
O O11 0.745148 0.684291 0.888421
O O12 0.609931 0.721385 0.818139
O O13 0.613545 0.694969 0.000000
O O14 0.628185 0.653955 0.500000
O O15 0.500000 0.665615 0.383923
O O16 0.645883 0.702925 0.352203
O O17 0.622282 0.189370 0.500000
O O18 0.614769 0.220107 0.674306
O O19 0.750000 0.250000 0.250000
#
# Coordination Sequence:
#
# PCOD9519097 Si02
#       7
#    16  16  16  16  16  16  16
#     4  10  20  33  49  70  98 126 153 192 237 287
#     4   9  17  29  46  67  91 123 158 190 233 285
#     4  10  19  31  49  70  94 125 159 191 231 282
#     4   9  16  27  41  59  89 128 163 193 225 266
#     4   9  18  32  49  70  96 125 161 203 241 278
#     4   9  15  25  41  60  88 121 155 197 237 272
#     4   9  17  26  41  65  93 126 162 194 231 271
#
# _framework density 15.601234
#
# number of rings (size 3 to 8) (size 9 to 14) (size 15 to 20)
#    0.000    2.714    1.429    0.857    0.000    2.857 
#    0.000    3.571    0.000    0.429    0.000    2.000 
#    0.000    0.571    0.000    1.286    0.000    0.143 
#
# Total GULP energy -312021.428263 kJ/mol
# GULP energy per Si atom -5571.811219 kJ/mol
# Density = 1.556573 g / cm^3
# Si number density = 15.601234 Si / 1000 Ang^3
#
#
#
# Elastic Constant Matrix: (Units=GPa)
#
#
# Indices 1 2 3 4 5 6 
#
# 1 66.6164 44.0079 29.1376 0.0000 0.0000 0.0000
# 2 44.0079 97.3070 53.0173 0.0000 0.0000 0.0000
# 3 29.1376 53.0173 97.7014 0.0001 0.0001 0.0000
# 4 0.0000 0.0000 0.0001 22.1319 0.0000 0.0000
# 5 0.0000 0.0000 0.0001 0.0000 8.3125 0.0000
# 6 0.0000 0.0000 0.0000 0.0000 0.0000 -4.2794
#
#
#
# Elastic Compliance Matrix: (Units=1/GPa)
#
#
# Indices 1 2 3 4 5 6 
#
# 1 0.021586 -0.008881 -0.001619 0.000000 0.000000 0.000000
# 2 -0.008881 0.018244 -0.007252 0.000000 0.000000 0.000000
# 3 -0.001619 -0.007252 0.014653 0.000000 0.000000 0.000000
# 4 0.000000 0.000000 0.000000 0.045184 0.000000 0.000000
# 5 0.000000 0.000000 0.000000 0.000000 0.120300 0.000000
# 6 0.000000 0.000000 0.000000 0.000000 0.000000 -0.233677
#
#
# Mechanical properties :
#
#
# Convention : Reuss Voigt Hill
#
# Bulk Modulus (GPa) = 52.68282 57.10560 54.89421
# Shear Modulus (GPa) = 177.82139 14.26380 96.04260
#
# Velocity S-wave (km/s) = 10.68768 3.02698 7.85459
# Velocity P-wave (km/s) = 13.64345 6.99282 10.84074
#
# Compressibility (1/GPa) = 0.01898152
#
# Stress axis : x y z
#
# Youngs Moduli (GPa) = 46.32647 54.81235 68.24516
#
# Poissons Ratio (x) = 0.48676 0.11046
# Poissons Ratio (y) = 0.41140 0.49489
# Poissons Ratio (z) = 0.07498 0.39748
#
# Static dielectric constant tensor:
#      x y z
#    x 1.559150 0.000000 0.000000 
#    y 0.000000 1.504590 0.000000 
#    z 0.000000 0.000000 1.521890 
# 
# From -- ./inp_files/35387.got.cif
#   From: 2010.05.17/outbox.cif.g08.bks.cpg/sg71_18_cif.got.tgz:35387.got - 2010.06.03 16:22:01.
