data_PCOD9519366
_publ_section_title
;
Structure prediction by ZEFSAII (Michael W. Deem and Ramdas Pophale) SiO2 
 PCOD9519366
Probable space group: I M M M
;
_chemical_formula_sum "Si O2"
_cell_formula_units_Z 112
_cell_length_a 24.462479
_cell_length_b 27.169317
_cell_length_c 7.266033
_cell_angle_alpha 90.000000
_cell_angle_beta 90.000000
_cell_angle_gamma 90.000000
_cell_volume 4829.215132
_symmetry_space_group_name_H-M "I M M M"
_symmetry_group_IT_number 71
_symmetry_cell_setting 'orthorhombic'
loop_
_space_group_symop_operation_xyz
x,y,z
-x,-y,z
x,-y,-z
-x,y,-z
-x,-y,-z
x,y,-z
-x,y,z
x,-y,z
1/2+x,1/2+y,1/2+z
1/2-x,1/2-y,1/2+z
1/2+x,1/2-y,1/2-z
1/2-x,1/2+y,1/2-z
1/2-x,1/2-y,1/2-z
1/2+x,1/2+y,1/2-z
1/2-x,1/2+y,1/2+z
1/2+x,1/2-y,1/2+z
loop_
_atom_site_type_symbol
_atom_site_label
_atom_site_fract_x
_atom_site_fract_y
_atom_site_fract_z
Si Si1 0.938086 0.406635 0.789014
Si Si2 0.784391 0.117719 0.724365
Si Si3 0.000000 0.222232 0.722681
Si Si4 0.500000 0.389417 0.224868
Si Si5 0.889698 0.056100 0.724010
Si Si6 0.691400 0.272122 0.782956
Si Si7 0.178936 0.556302 0.224224
Si Si8 0.594973 0.204716 0.777723
O O1 0.882919 0.431595 0.711207
O O2 0.923354 0.348579 0.789711
O O3 0.000000 0.413213 0.711450
O O4 0.941409 0.423866 0.000000
O O5 0.781969 0.119551 0.500000
O O6 0.833140 0.081284 0.778627
O O7 0.803587 0.171942 0.787121
O O8 0.725457 0.095658 0.783122
O O9 0.948416 0.254072 0.776498
O O10 0.000000 0.220105 0.500000
O O11 0.000000 0.166774 0.786994
O O12 0.555712 0.415718 0.283049
O O13 0.500000 0.389919 0.000000
O O14 0.890030 0.056857 0.500000
O O15 0.891984 0.000000 0.783171
O O16 0.750000 0.250000 0.750000
O O17 0.650836 0.229678 0.713062
O O18 0.677894 0.276929 0.000000
O O19 0.193653 0.500000 0.273525
O O20 0.178043 0.558651 0.000000
O O21 0.595629 0.199779 0.000000
#
# Coordination Sequence:
#
# PCOD9519366 Si02
#       8
#    16  16   8   8  16  16  16  16
#     4  10  20  33  50  73  99 126 158 202 254 298
#     4   9  16  27  42  62  89 121 157 195 234 280
#     4   9  16  27  43  62  86 120 160 197 228 271
#     4   9  15  22  33  53  83 118 155 192 228 271
#     4   9  15  22  34  54  83 118 153 189 230 276
#     4  10  20  32  48  71  98 129 162 197 239 285
#     4   9  17  29  46  67  91 121 157 198 244 293
#     4  10  19  32  50  71  96 130 168 199 235 289
#
# _framework density 23.192174999999999
#
# number of rings (size 3 to 8) (size 9 to 14) (size 15 to 20)
#    0.000    2.571    0.714    2.357    0.000    8.000 
#    0.000    1.429    0.000    0.429    0.000    1.000 
#    0.000    1.714    0.000    0.571    0.000   11.857 
#
# Total GULP energy -312677.701788 kJ/mol
# GULP energy per Si atom -5583.530389 kJ/mol
# Density = 2.313939 g / cm^3
# Si number density = 23.192175 Si / 1000 Ang^3
#
#
#
# Elastic Constant Matrix: (Units=GPa)
#
#
# Indices 1 2 3 4 5 6 
#
# 1 116.6433 -25.0854 -5.9002 0.0000 0.0000 0.0000
# 2 -25.0854 48.2094 -10.9936 0.0000 0.0000 0.0000
# 3 -5.9002 -10.9936 101.1901 0.0000 0.0000 0.0000
# 4 0.0000 0.0000 0.0000 -53.1044 0.0000 0.0000
# 5 0.0000 0.0000 0.0000 0.0000 -186.6407 0.0000
# 6 0.0000 0.0000 0.0000 0.0000 0.0000 46.0009
#
#
#
# Elastic Compliance Matrix: (Units=1/GPa)
#
#
# Indices 1 2 3 4 5 6 
#
# 1 0.009783 0.005353 0.001152 0.000000 0.000000 0.000000
# 2 0.005353 0.024199 0.002941 0.000000 0.000000 0.000000
# 3 0.001152 0.002941 0.010269 0.000000 0.000000 0.000000
# 4 0.000000 0.000000 0.000000 -0.018831 0.000000 0.000000
# 5 0.000000 0.000000 0.000000 0.000000 -0.005358 0.000000
# 6 0.000000 0.000000 0.000000 0.000000 0.000000 0.021739
#
#
# Mechanical properties :
#
#
# Convention : Reuss Voigt Hill
#
# Bulk Modulus (GPa) = 15.83706 20.23158 18.03432
# Shear Modulus (GPa) = 113.75012 -18.21404 47.76804
#
# Velocity S-wave (km/s) = 7.01094 -2.80545 4.54327
# Velocity P-wave (km/s) = 8.50771 1.32352 5.94262
#
# Compressibility (1/GPa) = 0.06314305
#
# Stress axis : x y z
#
# Youngs Moduli (GPa) = 102.22183 41.32414 97.37954
#
# Poissons Ratio (x) = -0.22121 -0.11218
# Poissons Ratio (y) = -0.54720 -0.28641
# Poissons Ratio (z) = -0.11776 -0.12154
#
# Static dielectric constant tensor:
#      x y z
#    x 1.802370 0.000000 0.000000 
#    y 0.000000 1.824290 0.000000 
#    z 0.000000 0.000000 2.046520 
# 
# From -- ./inp_files/27853.got.cif
#   From: 2010.05.17/outbox.cif.g08.bks.cpg/sg71_14_cif.got.tgz:27853.got - 2010.06.03 16:22:01.
