data_PCOD9519340
_publ_section_title
;
Structure prediction by ZEFSAII (Michael W. Deem and Ramdas Pophale) SiO2 
 PCOD9519340
Probable space group: I M M M
;
_chemical_formula_sum "Si O2"
_cell_formula_units_Z 72
_cell_length_a 24.502600
_cell_length_b 14.654118
_cell_length_c 8.444769
_cell_angle_alpha 90.000000
_cell_angle_beta 90.000000
_cell_angle_gamma 90.000000
_cell_volume 3032.212466
_symmetry_space_group_name_H-M "I M M M"
_symmetry_group_IT_number 71
_symmetry_cell_setting 'orthorhombic'
loop_
_space_group_symop_operation_xyz
x,y,z
-x,-y,z
x,-y,-z
-x,y,-z
-x,-y,-z
x,y,-z
-x,y,z
x,-y,z
1/2+x,1/2+y,1/2+z
1/2-x,1/2-y,1/2+z
1/2+x,1/2-y,1/2-z
1/2-x,1/2+y,1/2-z
1/2-x,1/2-y,1/2-z
1/2+x,1/2+y,1/2-z
1/2-x,1/2+y,1/2+z
1/2+x,1/2-y,1/2+z
loop_
_atom_site_type_symbol
_atom_site_label
_atom_site_fract_x
_atom_site_fract_y
_atom_site_fract_z
Si Si1 0.398455 0.103919 0.829865
Si Si2 0.209386 0.631418 0.822278
Si Si3 0.940445 0.889752 0.188263
Si Si4 0.179067 0.154743 0.818093
Si Si5 0.935705 0.606256 0.000000
O O1 0.333548 0.097126 0.806312
O O2 0.417665 0.149302 0.666144
O O3 0.421057 0.000000 0.830325
O O4 0.411882 0.145827 0.000000
O O5 0.197208 0.739755 0.823712
O O6 0.271558 0.610564 0.779048
O O7 0.196574 0.599636 0.000000
O O8 0.881883 0.855549 0.250427
O O9 0.000000 0.858910 0.252468
O O10 0.939274 0.000000 0.201372
O O11 0.940834 0.867298 0.000000
O O12 0.178498 0.120373 0.000000
O O13 0.916468 0.500000 0.000000
O O14 0.000000 0.605221 0.000000
#
# Coordination Sequence:
#
# PCOD9519340 Si02
#       5
#    16  16  16  16   8
#     4  10  20  34  54  78 105 140 180 226 275 322
#     4  10  19  32  49  71 107 144 180 226 273 322
#     4   8  14  27  49  76 104 132 168 219 272 325
#     4   9  18  31  49  74 104 139 181 219 270 330
#     4   9  18  34  54  76 104 136 172 216 266 320
#
# _framework density 23.745038000000001
#
# number of rings (size 3 to 8) (size 9 to 14) (size 15 to 20)
#    0.000    2.778    1.111    1.333    0.000    2.222 
#    0.000    5.556    0.000    0.667    0.000    1.556 
#    0.000    0.000    0.000    0.000    0.000    0.000 
#
# Total GULP energy -200787.541014 kJ/mol
# GULP energy per Si atom -5577.431695 kJ/mol
# Density = 2.369099 g / cm^3
# Si number density = 23.745038 Si / 1000 Ang^3
#
#
#
# Elastic Constant Matrix: (Units=GPa)
#
#
# Indices 1 2 3 4 5 6 
#
# 1 199.1505 12.0032 41.8309 0.0000 0.0000 0.0000
# 2 12.0032 45.9881 7.6018 0.0000 0.0000 0.0000
# 3 41.8309 7.6018 147.5856 0.0000 0.0000 0.0000
# 4 0.0000 0.0000 0.0000 -1.5953 0.0000 0.0000
# 5 0.0000 0.0000 0.0000 0.0000 25.3423 0.0000
# 6 0.0000 0.0000 0.0000 0.0000 0.0000 26.4067
#
#
#
# Elastic Compliance Matrix: (Units=1/GPa)
#
#
# Indices 1 2 3 4 5 6 
#
# 1 0.005401 -0.001166 -0.001471 0.000000 0.000000 0.000000
# 2 -0.001166 0.022183 -0.000812 0.000000 0.000000 0.000000
# 3 -0.001471 -0.000812 0.007234 0.000000 0.000000 0.000000
# 4 0.000000 0.000000 0.000000 -0.626843 0.000000 0.000000
# 5 0.000000 0.000000 0.000000 0.000000 0.039460 0.000000
# 6 0.000000 0.000000 0.000000 0.000000 0.000000 0.037869
#
#
# Mechanical properties :
#
#
# Convention : Reuss Voigt Hill
#
# Bulk Modulus (GPa) = 35.81643 57.28846 46.55244
# Shear Modulus (GPa) = -10.03026 32.11663 11.04318
#
# Velocity S-wave (km/s) = -2.05750 3.68171 2.15890
# Velocity P-wave (km/s) = 3.07767 6.50017 5.08548
#
# Compressibility (1/GPa) = 0.02792014
#
# Stress axis : x y z
#
# Youngs Moduli (GPa) = 185.16690 45.07869 138.22886
#
# Poissons Ratio (x) = 0.05258 0.20328
# Poissons Ratio (y) = 0.21599 0.11224
# Poissons Ratio (z) = 0.27231 0.03660
#
# Static dielectric constant tensor:
#      x y z
#    x 1.924870 0.000000 0.000000 
#    y 0.000000 1.958290 0.000000 
#    z 0.000000 0.000000 1.911160 
# 
# From -- ./inp_files/12325.got.cif
#   From: 2010.05.17/outbox.cif.g08.bks.cpg/sg71_7_cif.got.tgz:12325.got - 2010.06.03 16:22:01.
