data_PCOD9519049
_publ_section_title
;
Structure prediction by ZEFSAII (Michael W. Deem and Ramdas Pophale) SiO2 
 PCOD9519049
Probable space group: I M M M
;
_chemical_formula_sum "Si O2"
_cell_formula_units_Z 128
_cell_length_a 28.976925
_cell_length_b 28.102696
_cell_length_c 9.389405
_cell_angle_alpha 90.000000
_cell_angle_beta 90.000000
_cell_angle_gamma 90.000000
_cell_volume 7646.071491
_symmetry_space_group_name_H-M "I M M M"
_symmetry_group_IT_number 71
_symmetry_cell_setting 'orthorhombic'
loop_
_space_group_symop_operation_xyz
x,y,z
-x,-y,z
x,-y,-z
-x,y,-z
-x,-y,-z
x,y,-z
-x,y,z
x,-y,z
1/2+x,1/2+y,1/2+z
1/2-x,1/2-y,1/2+z
1/2+x,1/2-y,1/2-z
1/2-x,1/2+y,1/2-z
1/2-x,1/2-y,1/2-z
1/2+x,1/2+y,1/2-z
1/2-x,1/2+y,1/2+z
1/2+x,1/2-y,1/2+z
loop_
_atom_site_type_symbol
_atom_site_label
_atom_site_fract_x
_atom_site_fract_y
_atom_site_fract_z
Si Si1 0.637585 0.093971 0.165606
Si Si2 0.448524 0.056243 0.329686
Si Si3 0.264841 0.947484 0.826458
Si Si4 0.773573 0.152520 0.827021
Si Si5 0.362204 0.287705 0.671446
Si Si6 0.443959 0.552789 0.165913
Si Si7 0.320538 0.800795 0.166673
Si Si8 0.053784 0.147810 0.171156
O O1 0.592530 0.083612 0.255198
O O2 0.681901 0.062970 0.212563
O O3 0.653438 0.148662 0.174539
O O4 0.628854 0.082669 0.000000
O O5 0.445764 0.061513 0.500000
O O6 0.500000 0.071450 0.284486
O O7 0.444042 0.000000 0.298100
O O8 0.235922 0.901474 0.777991
O O9 0.250335 0.000000 0.778032
O O10 0.263395 0.947289 0.000000
O O11 0.822714 0.173970 0.788906
O O12 0.731462 0.186966 0.781145
O O13 0.770695 0.151523 0.000000
O O14 0.361468 0.281837 0.500000
O O15 0.347009 0.239041 0.745276
O O16 0.411759 0.309620 0.711920
O O17 0.500000 0.552000 0.171326
O O18 0.428282 0.500000 0.214032
O O19 0.430082 0.598260 0.258089
O O20 0.431131 0.558655 0.000000
O O21 0.318106 0.786799 0.000000
O O22 0.000000 0.156300 0.209994
O O23 0.055899 0.142684 0.000000
#
# Coordination Sequence:
#
# PCOD9519049 Si02
#       8
#    16  16  16  16  16  16  16  16
#     4   9  17  29  46  68  90 114 150 192 229 269
#     4   9  18  31  45  64  93 126 156 186 222 265
#     4   8  13  23  42  67  93 118 142 175 224 275
#     4   8  15  28  45  67  93 117 145 184 225 267
#     4  10  19  31  48  68  90 119 156 192 225 268
#     4   8  14  26  45  67  88 112 146 185 221 261
#     4   9  18  32  49  69  92 115 144 189 240 279
#     4   9  18  31  45  64  92 122 151 186 226 265
#
# _framework density 16.740622999999999
#
# number of rings (size 3 to 8) (size 9 to 14) (size 15 to 20)
#    0.000    3.250    0.000    3.000    0.000    2.250 
#    0.000    3.125    0.000    5.250    0.000    0.000 
#    0.000    2.000    0.000    0.000    0.000    0.000 
#
# Total GULP energy -356289.473217 kJ/mol
# GULP energy per Si atom -5567.023019 kJ/mol
# Density = 1.670252 g / cm^3
# Si number density = 16.740623 Si / 1000 Ang^3
#
#
#
# Elastic Constant Matrix: (Units=GPa)
#
#
# Indices 1 2 3 4 5 6 
#
# 1 65.9422 27.6995 20.7837 0.0000 0.0000 0.0000
# 2 27.6995 83.8499 21.4563 0.0000 0.0000 0.0000
# 3 20.7837 21.4563 11.5573 0.0000 0.0000 0.0000
# 4 0.0000 0.0000 0.0000 27.7019 0.0000 0.0000
# 5 0.0000 0.0000 0.0000 0.0000 10.2587 0.0000
# 6 0.0000 0.0000 0.0000 0.0000 0.0000 12.9816
#
#
#
# Elastic Compliance Matrix: (Units=1/GPa)
#
#
# Indices 1 2 3 4 5 6 
#
# 1 0.038649 0.009558 -0.087248 0.000000 0.000000 0.000000
# 2 0.009558 0.025083 -0.063756 0.000000 0.000000 0.000000
# 3 -0.087248 -0.063756 0.361791 0.000000 0.000000 0.000000
# 4 0.000000 0.000000 0.000000 0.036099 0.000000 0.000000
# 5 0.000000 0.000000 0.000000 0.000000 0.097478 0.000000
# 6 0.000000 0.000000 0.000000 0.000000 0.000000 0.077032
#
#
# Mechanical properties :
#
#
# Convention : Reuss Voigt Hill
#
# Bulk Modulus (GPa) = 7.01111 33.46980 20.24046
# Shear Modulus (GPa) = 5.17294 16.28245 10.72770
#
# Velocity S-wave (km/s) = 1.75976 3.12209 2.53419
# Velocity P-wave (km/s) = 2.88551 5.74745 4.54749
#
# Compressibility (1/GPa) = 0.14263070
#
# Stress axis : x y z
#
# Youngs Moduli (GPa) = 25.87416 39.86753 2.76402
#
# Poissons Ratio (x) = -0.38107 0.24116
# Poissons Ratio (y) = -0.24732 0.17622
# Poissons Ratio (z) = 2.25747 2.54181
#
# Static dielectric constant tensor:
#      x y z
#    x 1.565820 0.000000 0.000000 
#    y 0.000000 1.568000 0.000000 
#    z 0.000000 0.000000 1.553330 
# 
# From -- ./inp_files/29264.got.cif
#   From: 2010.05.17/outbox.cif.g08.bks.cpg/sg71_15_cif.got.tgz:29264.got - 2010.06.03 16:22:01.
