data_PCOD9519743
_publ_section_title
;
Structure prediction by ZEFSAII (Michael W. Deem and Ramdas Pophale) SiO2 
 PCOD9519743
Probable space group: I M M M
;
_chemical_formula_sum "Si O2"
_cell_formula_units_Z 80
_cell_length_a 27.374494
_cell_length_b 7.375846
_cell_length_c 17.698843
_cell_angle_alpha 90.000000
_cell_angle_beta 90.000000
_cell_angle_gamma 90.000000
_cell_volume 3573.574312
_symmetry_space_group_name_H-M "I M M M"
_symmetry_group_IT_number 71
_symmetry_cell_setting 'orthorhombic'
loop_
_space_group_symop_operation_xyz
x,y,z
-x,-y,z
x,-y,-z
-x,y,-z
-x,-y,-z
x,y,-z
-x,y,z
x,-y,z
1/2+x,1/2+y,1/2+z
1/2-x,1/2-y,1/2+z
1/2+x,1/2-y,1/2-z
1/2-x,1/2+y,1/2-z
1/2-x,1/2-y,1/2-z
1/2+x,1/2+y,1/2-z
1/2-x,1/2+y,1/2+z
1/2+x,1/2-y,1/2+z
loop_
_atom_site_type_symbol
_atom_site_label
_atom_site_fract_x
_atom_site_fract_y
_atom_site_fract_z
Si Si1 0.322780 0.780664 0.915789
Si Si2 0.443233 0.721084 0.500000
Si Si3 0.000000 0.777518 0.586273
Si Si4 0.087345 0.210441 0.689506
Si Si5 0.116680 0.777510 0.851488
Si Si6 0.728117 0.716349 0.333498
O O1 0.360843 0.720987 0.852432
O O2 0.268776 0.718368 0.892508
O O3 0.323093 0.000000 0.915480
O O4 0.336606 0.720091 0.000000
O O5 0.443730 0.500000 0.500000
O O6 0.500000 0.778746 0.500000
O O7 0.413396 0.777390 0.425319
O O8 0.952843 0.714487 0.632669
O O9 0.000000 0.716532 0.500000
O O10 0.000000 0.000000 0.583479
O O11 0.091679 0.285365 0.773637
O O12 0.074300 0.000000 0.699402
O O13 0.173254 0.716669 0.847508
O O14 0.117290 0.000000 0.850922
O O15 0.725333 0.500000 0.341838
O O16 0.750000 0.750000 0.250000
#
# Coordination Sequence:
#
# PCOD9519743 Si02
#       6
#    16   8   8  16  16  16
#     4  10  21  34  50  74 105 138 172 210 254 306
#     4   9  18  30  48  76 109 139 173 220 273 320
#     4   9  18  30  47  72 100 128 161 207 259 303
#     4  10  19  33  53  75 101 134 173 213 256 306
#     4   9  18  30  47  72 102 136 170 209 259 310
#     4  10  19  33  51  73 102 135 171 211 256 308
#
# _framework density 22.386548999999999
#
# number of rings (size 3 to 8) (size 9 to 14) (size 15 to 20)
#    0.000    2.400    2.000    0.600    2.800    1.200 
#    0.000    0.500    0.000    1.800    0.000    2.100 
#    0.000    3.200    0.000    0.000    0.000    0.000 
#
# Total GULP energy -223467.894811 kJ/mol
# GULP energy per Si atom -5586.697370 kJ/mol
# Density = 2.233560 g / cm^3
# Si number density = 22.386549 Si / 1000 Ang^3
#
#
#
# Elastic Constant Matrix: (Units=GPa)
#
#
# Indices 1 2 3 4 5 6 
#
# 1 179.8798 -0.4411 108.3826 0.0000 0.0000 0.0000
# 2 -0.4411 77.4751 -1.0954 0.0000 0.0000 0.0000
# 3 108.3826 -1.0954 225.3145 0.0000 0.0000 0.0000
# 4 0.0000 0.0000 0.0000 2.5069 0.0000 0.0000
# 5 0.0000 0.0000 0.0000 0.0000 38.6352 0.0000
# 6 0.0000 0.0000 0.0000 0.0000 0.0000 12.6297
#
#
#
# Elastic Compliance Matrix: (Units=1/GPa)
#
#
# Indices 1 2 3 4 5 6 
#
# 1 0.007828 -0.000009 -0.003766 0.000000 0.000000 0.000000
# 2 -0.000009 0.012908 0.000067 0.000000 0.000000 0.000000
# 3 -0.003766 0.000067 0.006250 0.000000 0.000000 0.000000
# 4 0.000000 0.000000 0.000000 0.398895 0.000000 0.000000
# 5 0.000000 0.000000 0.000000 0.000000 0.025883 0.000000
# 6 0.000000 0.000000 0.000000 0.000000 0.000000 0.079178
#
#
# Mechanical properties :
#
#
# Convention : Reuss Voigt Hill
#
# Bulk Modulus (GPa) = 51.09432 77.37350 64.23391
# Shear Modulus (GPa) = 9.17631 35.80926 22.49279
#
# Velocity S-wave (km/s) = 2.02680 4.00382 3.17321
# Velocity P-wave (km/s) = 5.32451 7.48409 6.49469
#
# Compressibility (1/GPa) = 0.01957165
#
# Stress axis : x y z
#
# Youngs Moduli (GPa) = 127.74456 77.46973 160.00196
#
# Poissons Ratio (x) = 0.00067 0.60250
# Poissons Ratio (y) = 0.00111 -0.01071
# Poissons Ratio (z) = 0.48103 -0.00518
#
# Static dielectric constant tensor:
#      x y z
#    x 1.792520 0.000000 0.000000 
#    y 0.000000 1.911270 0.000000 
#    z 0.000000 0.000000 1.785230 
# 
# From -- ./inp_files/8387.got.cif
#   From: 2010.05.17/outbox.cif.g08.bks.cpg/sg71_5_cif.got.tgz:8387.got - 2010.06.03 16:22:01.
