data_PCOD9519955
_publ_section_title
;
Structure prediction by ZEFSAII (Michael W. Deem and Ramdas Pophale) SiO2 
 PCOD9519955
Probable space group: I M M M
;
_chemical_formula_sum "Si O2"
_cell_formula_units_Z 108
_cell_length_a 12.938840
_cell_length_b 23.332860
_cell_length_c 20.586806
_cell_angle_alpha 90.000000
_cell_angle_beta 90.000000
_cell_angle_gamma 90.000000
_cell_volume 6215.159661
_symmetry_space_group_name_H-M "I M M M"
_symmetry_group_IT_number 71
_symmetry_cell_setting 'orthorhombic'
loop_
_space_group_symop_operation_xyz
x,y,z
-x,-y,z
x,-y,-z
-x,y,-z
-x,-y,-z
x,y,-z
-x,y,z
x,-y,z
1/2+x,1/2+y,1/2+z
1/2-x,1/2-y,1/2+z
1/2+x,1/2-y,1/2-z
1/2-x,1/2+y,1/2-z
1/2-x,1/2-y,1/2-z
1/2+x,1/2+y,1/2-z
1/2-x,1/2+y,1/2+z
1/2+x,1/2-y,1/2+z
loop_
_atom_site_type_symbol
_atom_site_label
_atom_site_fract_x
_atom_site_fract_y
_atom_site_fract_z
Si Si1 0.380165 0.199174 0.280907
Si Si2 0.655096 0.500000 0.500000
Si Si3 0.379099 0.399203 0.607458
Si Si4 0.748138 0.203028 0.155836
Si Si5 0.268283 0.888683 0.364556
Si Si6 0.120849 0.500000 0.077864
Si Si7 0.613684 0.567611 0.757729
Si Si8 0.379616 0.702572 0.923649
O O1 0.500000 0.204174 0.267985
O O2 0.322120 0.180239 0.215009
O O3 0.334771 0.259453 0.306599
O O4 0.355133 0.154400 0.337911
O O5 0.649503 0.550929 0.556779
O O6 0.500000 0.383562 0.595218
O O7 0.302999 0.344391 0.610822
O O8 0.372798 0.422525 0.681219
O O9 0.676437 0.246661 0.115634
O O10 0.200655 0.905373 0.301934
O O11 0.188798 0.853920 0.409966
O O12 0.320153 0.943905 0.396200
O O13 0.000000 0.500000 0.098436
O O14 0.123282 0.500000 0.000000
O O15 0.500000 0.590996 0.775273
O O16 0.614081 0.500000 0.769914
O O17 0.500000 0.695937 0.904041
O O18 0.377492 0.715274 0.000000
#
# Coordination Sequence:
#
# PCOD9519955 Si02
#       8
#    16   4  16  16  16   8  16  16
#     4  10  20  35  55  84 112 142 185 238 294 346
#     4  12  25  38  58  86 123 162 201 244 290 348
#     4  11  21  36  56  84 118 154 191 236 290 350
#     4  10  21  35  57  83 112 150 186 237 290 350
#     4  11  20  37  59  82 112 146 186 235 285 337
#     4  11  24  39  56  80 112 156 195 226 271 336
#     4  10  19  33  55  83 114 143 179 231 290 340
#     4  10  22  39  57  81 113 151 192 235 282 340
#
# _framework density 17.376867000000001
#
# number of rings (size 3 to 8) (size 9 to 14) (size 15 to 20)
#    0.000    1.556    2.963    2.889    1.037    0.000 
#    0.000    0.000    0.000    4.444    0.000    3.630 
#    0.000    0.000    0.000    0.000    0.000    0.000 
#
# Total GULP energy -300678.919738 kJ/mol
# GULP energy per Si atom -5568.128143 kJ/mol
# Density = 1.733732 g / cm^3
# Si number density = 17.376867 Si / 1000 Ang^3
#
#
#
# Elastic Constant Matrix: (Units=GPa)
#
#
# Indices 1 2 3 4 5 6 
#
# 1 123.4220 63.6554 44.8660 0.0000 0.0000 0.0000
# 2 63.6554 87.0110 31.8033 0.0000 0.0000 0.0000
# 3 44.8660 31.8033 76.4858 0.0000 0.0000 0.0000
# 4 0.0000 0.0000 0.0000 30.3623 0.0000 0.0000
# 5 0.0000 0.0000 0.0000 0.0000 13.6980 0.0000
# 6 0.0000 0.0000 0.0000 0.0000 0.0000 12.5060
#
#
#
# Elastic Compliance Matrix: (Units=1/GPa)
#
#
# Indices 1 2 3 4 5 6 
#
# 1 0.014355 -0.008755 -0.004780 0.000000 0.000000 0.000000
# 2 -0.008755 0.018892 -0.002720 0.000000 0.000000 0.000000
# 3 -0.004780 -0.002720 0.017009 0.000000 0.000000 0.000000
# 4 0.000000 0.000000 0.000000 0.032936 0.000000 0.000000
# 5 0.000000 0.000000 0.000000 0.000000 0.073003 0.000000
# 6 0.000000 0.000000 0.000000 0.000000 0.000000 0.079962
#
#
# Mechanical properties :
#
#
# Convention : Reuss Voigt Hill
#
# Bulk Modulus (GPa) = 56.34943 63.06313 59.70628
# Shear Modulus (GPa) = 18.20945 21.08619 19.64782
#
# Velocity S-wave (km/s) = 3.24066 3.48726 3.36622
# Velocity P-wave (km/s) = 6.81915 7.25154 7.03866
#
# Compressibility (1/GPa) = 0.01774641
#
# Stress axis : x y z
#
# Youngs Moduli (GPa) = 69.66026 52.93321 58.79093
#
# Poissons Ratio (x) = 0.46342 0.28105
# Poissons Ratio (y) = 0.60986 0.15990
# Poissons Ratio (z) = 0.33301 0.14397
#
# Static dielectric constant tensor:
#      x y z
#    x 1.587480 0.000000 0.000000 
#    y 0.000000 1.601860 0.000000 
#    z 0.000000 0.000000 1.574240 
# 
# From -- ./inp_files/52229.got.cif
#   From: 2010.05.17/outbox.cif.g08.bks.cpg/sg71_27_cif.got.tgz:52229.got - 2010.06.03 16:22:01.
