data_PCOD9519793
_publ_section_title
;
Structure prediction by ZEFSAII (Michael W. Deem and Ramdas Pophale) SiO2 
 PCOD9519793
Probable space group: I M M M
;
_chemical_formula_sum "Si O2"
_cell_formula_units_Z 88
_cell_length_a 19.884951
_cell_length_b 28.197654
_cell_length_c 7.774424
_cell_angle_alpha 90.000000
_cell_angle_beta 90.000000
_cell_angle_gamma 90.000000
_cell_volume 4359.189259
_symmetry_space_group_name_H-M "I M M M"
_symmetry_group_IT_number 71
_symmetry_cell_setting 'orthorhombic'
loop_
_space_group_symop_operation_xyz
x,y,z
-x,-y,z
x,-y,-z
-x,y,-z
-x,-y,-z
x,y,-z
-x,y,z
x,-y,z
1/2+x,1/2+y,1/2+z
1/2-x,1/2-y,1/2+z
1/2+x,1/2-y,1/2-z
1/2-x,1/2+y,1/2-z
1/2-x,1/2-y,1/2-z
1/2+x,1/2+y,1/2-z
1/2-x,1/2+y,1/2+z
1/2+x,1/2-y,1/2+z
loop_
_atom_site_type_symbol
_atom_site_label
_atom_site_fract_x
_atom_site_fract_y
_atom_site_fract_z
Si Si1 0.305492 0.379892 0.706750
Si Si2 0.074303 0.945315 0.789918
Si Si3 0.922549 0.307934 0.789100
Si Si4 0.423414 0.000000 0.795847
Si Si5 0.152883 0.597146 0.795738
Si Si6 0.821265 0.226968 0.206871
O O1 0.311493 0.378058 0.500000
O O2 0.363644 0.414458 0.772505
O O3 0.230597 0.398362 0.742760
O O4 0.318654 0.326753 0.773394
O O5 0.000000 0.928052 0.737940
O O6 0.081085 0.000000 0.737484
O O7 0.075343 0.944825 0.000000
O O8 0.887435 0.356692 0.728774
O O9 0.879628 0.262354 0.731309
O O10 0.000000 0.305951 0.735801
O O11 0.921512 0.308175 0.000000
O O12 0.382861 0.047688 0.749378
O O13 0.500000 0.000000 0.723278
O O14 0.429070 0.000000 0.000000
O O15 0.151471 0.600655 0.000000
O O16 0.750000 0.250000 0.250000
O O17 0.827832 0.224711 0.000000
#
# Coordination Sequence:
#
# PCOD9519793 Si02
#       6
#    16  16  16   8  16  16
#     4  10  20  32  53  83 112 145 185 233 281 330
#     4   8  15  29  49  75 107 140 175 220 273 325
#     4   9  18  33  54  79 107 143 186 230 274 323
#     4  11  25  43  61  83 114 147 182 231 283 330
#     4  11  22  37  58  83 113 150 188 227 274 336
#     4  10  19  33  52  76 108 142 180 226 274 322
#
# _framework density 20.187239999999999
#
# number of rings (size 3 to 8) (size 9 to 14) (size 15 to 20)
#    0.000    2.273    1.818    1.909    1.273    2.182 
#    0.000    3.636    0.000    2.182    0.000    3.818 
#    0.000    0.000    0.000    0.000    0.000    0.000 
#
# Total GULP energy -245613.548244 kJ/mol
# GULP energy per Si atom -5582.126096 kJ/mol
# Density = 2.014129 g / cm^3
# Si number density = 20.187240 Si / 1000 Ang^3
#
#
#
# Elastic Constant Matrix: (Units=GPa)
#
#
# Indices 1 2 3 4 5 6 
#
# 1 238.8084 140.2369 3.5074 0.0000 0.0000 0.0000
# 2 140.2369 174.0302 6.8644 0.0000 0.0000 0.0000
# 3 3.5074 6.8644 28.9191 0.0000 0.0000 0.0000
# 4 0.0000 0.0000 0.0000 3.4014 0.0000 0.0000
# 5 0.0000 0.0000 0.0000 0.0000 10.5900 0.0000
# 6 0.0000 0.0000 0.0000 0.0000 0.0000 43.2051
#
#
#
# Elastic Compliance Matrix: (Units=1/GPa)
#
#
# Indices 1 2 3 4 5 6 
#
# 1 0.007958 -0.006435 0.000562 0.000000 0.000000 0.000000
# 2 -0.006435 0.011004 -0.001831 0.000000 0.000000 0.000000
# 3 0.000562 -0.001831 0.034946 0.000000 0.000000 0.000000
# 4 0.000000 0.000000 0.000000 0.293996 0.000000 0.000000
# 5 0.000000 0.000000 0.000000 0.000000 0.094429 0.000000
# 6 0.000000 0.000000 0.000000 0.000000 0.000000 0.023145
#
#
# Mechanical properties :
#
#
# Convention : Reuss Voigt Hill
#
# Bulk Modulus (GPa) = 25.97449 82.55278 54.26364
# Shear Modulus (GPa) = 10.12721 30.84924 20.48823
#
# Velocity S-wave (km/s) = 2.24222 3.91340 3.18922
# Velocity P-wave (km/s) = 4.42697 7.83594 6.36396
#
# Compressibility (1/GPa) = 0.03849931
#
# Stress axis : x y z
#
# Youngs Moduli (GPa) = 125.65979 90.87829 28.61576
#
# Poissons Ratio (x) = 0.58479 -0.01609
# Poissons Ratio (y) = 0.80861 0.05241
# Poissons Ratio (z) = -0.07065 0.16644
#
# Static dielectric constant tensor:
#      x y z
#    x 1.731410 0.000000 0.000000 
#    y 0.000000 1.712320 0.000000 
#    z 0.000000 0.000000 1.746120 
# 
# From -- ./inp_files/10444.got.cif
#   From: 2010.05.17/outbox.cif.g08.bks.cpg/sg71_6_cif.got.tgz:10444.got - 2010.06.03 16:22:01.
