data_PCOD9519314
_publ_section_title
;
Structure prediction by ZEFSAII (Michael W. Deem and Ramdas Pophale) SiO2 
 PCOD9519314
Probable space group: I M M M
;
_chemical_formula_sum "Si O2"
_cell_formula_units_Z 104
_cell_length_a 29.767514
_cell_length_b 15.818499
_cell_length_c 10.980275
_cell_angle_alpha 90.000000
_cell_angle_beta 90.000000
_cell_angle_gamma 90.000000
_cell_volume 5170.363238
_symmetry_space_group_name_H-M "I M M M"
_symmetry_group_IT_number 71
_symmetry_cell_setting 'orthorhombic'
loop_
_space_group_symop_operation_xyz
x,y,z
-x,-y,z
x,-y,-z
-x,y,-z
-x,-y,-z
x,y,-z
-x,y,z
x,-y,z
1/2+x,1/2+y,1/2+z
1/2-x,1/2-y,1/2+z
1/2+x,1/2-y,1/2-z
1/2-x,1/2+y,1/2-z
1/2-x,1/2-y,1/2-z
1/2+x,1/2+y,1/2-z
1/2-x,1/2+y,1/2+z
1/2+x,1/2-y,1/2+z
loop_
_atom_site_type_symbol
_atom_site_label
_atom_site_fract_x
_atom_site_fract_y
_atom_site_fract_z
Si Si1 0.201920 0.396688 0.134348
Si Si2 0.636204 0.397972 0.633387
Si Si3 0.445385 0.595082 0.000000
Si Si4 0.551479 0.325541 0.257095
Si Si5 0.192945 0.102790 0.365419
Si Si6 0.851099 0.597861 0.633987
Si Si7 0.451102 0.147833 0.141092
O O1 0.199162 0.500000 0.133983
O O2 0.254468 0.375092 0.146337
O O3 0.173770 0.364112 0.249374
O O4 0.186081 0.368636 0.000000
O O5 0.655674 0.378387 0.500000
O O6 0.632130 0.500000 0.641825
O O7 0.587076 0.357714 0.646713
O O8 0.665556 0.367833 0.748026
O O9 0.432833 0.637121 0.873323
O O10 0.428011 0.500000 0.000000
O O11 0.500000 0.594698 0.000000
O O12 0.500000 0.352855 0.280476
O O13 0.551078 0.225678 0.233642
O O14 0.176780 0.130731 0.500000
O O15 0.190895 0.000000 0.365278
O O16 0.841945 0.636395 0.500000
O O17 0.836720 0.500000 0.627539
O O18 0.904831 0.598451 0.652878
O O19 0.500000 0.105104 0.157029
O O20 0.451450 0.179851 0.000000
#
# Coordination Sequence:
#
# PCOD9519314 Si02
#       7
#    16  16   8  16  16  16  16
#     4   8  14  27  47  71  99 128 158 196 243 289
#     4  10  21  33  46  70 102 131 158 196 248 294
#     4   9  16  26  44  70  89 107 151 209 244 264
#     4  10  19  32  48  66  91 127 167 203 240 286
#     4   8  15  28  47  70  95 126 162 198 238 286
#     4   9  17  28  47  77 104 127 159 198 241 290
#     4   9  17  31  49  70  99 132 165 202 245 288
#
# _framework density 20.114640999999999
#
# number of rings (size 3 to 8) (size 9 to 14) (size 15 to 20)
#    0.000    3.000    0.769    1.385    1.077    2.154 
#    0.000    6.154    0.000    2.308    0.000    2.154 
#    0.000    0.000    0.000    0.000    0.000    0.000 
#
# Total GULP energy -289698.759132 kJ/mol
# GULP energy per Si atom -5571.129983 kJ/mol
# Density = 2.006886 g / cm^3
# Si number density = 20.114641 Si / 1000 Ang^3
#
#
#
# Elastic Constant Matrix: (Units=GPa)
#
#
# Indices 1 2 3 4 5 6 
#
# 1 83.1322 -1.6238 85.9412 0.0000 0.0000 0.0000
# 2 -1.6238 17.1254 12.7803 0.0000 0.0000 0.0000
# 3 85.9412 12.7803 169.6954 0.0000 0.0000 0.0000
# 4 0.0000 0.0000 0.0000 7.6442 0.0000 0.0000
# 5 0.0000 0.0000 0.0000 0.0000 29.9224 0.0000
# 6 0.0000 0.0000 0.0000 0.0000 0.0000 -19.7991
#
#
#
# Elastic Compliance Matrix: (Units=1/GPa)
#
#
# Indices 1 2 3 4 5 6 
#
# 1 0.028128 0.014090 -0.015306 0.000000 0.000000 0.000000
# 2 0.014090 0.068928 -0.012327 0.000000 0.000000 0.000000
# 3 -0.015306 -0.012327 0.014573 0.000000 0.000000 0.000000
# 4 0.000000 0.000000 0.000000 0.130819 0.000000 0.000000
# 5 0.000000 0.000000 0.000000 0.000000 0.033420 0.000000
# 6 0.000000 0.000000 0.000000 0.000000 0.000000 -0.050507
#
#
# Mechanical properties :
#
#
# Convention : Reuss Voigt Hill
#
# Bulk Modulus (GPa) = 11.82842 51.57206 31.70024
# Shear Modulus (GPa) = 17.81722 15.07718 16.44720
#
# Velocity S-wave (km/s) = 2.97944 2.74078 2.86260
# Velocity P-wave (km/s) = 4.21062 5.97583 5.16914
#
# Compressibility (1/GPa) = 0.08454214
#
# Stress axis : x y z
#
# Youngs Moduli (GPa) = 35.55218 14.50785 68.61982
#
# Poissons Ratio (x) = -0.20441 1.05031
# Poissons Ratio (y) = -0.50092 0.84587
# Poissons Ratio (z) = 0.54417 0.17884
#
# Static dielectric constant tensor:
#      x y z
#    x 1.712520 0.000000 0.000000 
#    y 0.000000 1.719420 0.000000 
#    z 0.000000 0.000000 1.740970 
# 
# From -- ./inp_files/28921.got.cif
#   From: 2010.05.17/outbox.cif.g08.bks.cpg/sg71_15_cif.got.tgz:28921.got - 2010.06.03 16:22:01.
