data_PCOD9519744
_publ_section_title
;
Structure prediction by ZEFSAII (Michael W. Deem and Ramdas Pophale) SiO2 
 PCOD9519744
Probable space group: I M M M
;
_chemical_formula_sum "Si O2"
_cell_formula_units_Z 112
_cell_length_a 14.211360
_cell_length_b 15.818212
_cell_length_c 25.892671
_cell_angle_alpha 90.000000
_cell_angle_beta 90.000000
_cell_angle_gamma 90.000000
_cell_volume 5820.628560
_symmetry_space_group_name_H-M "I M M M"
_symmetry_group_IT_number 71
_symmetry_cell_setting 'orthorhombic'
loop_
_space_group_symop_operation_xyz
x,y,z
-x,-y,z
x,-y,-z
-x,y,-z
-x,-y,-z
x,y,-z
-x,y,z
x,-y,z
1/2+x,1/2+y,1/2+z
1/2-x,1/2-y,1/2+z
1/2+x,1/2-y,1/2-z
1/2-x,1/2+y,1/2-z
1/2-x,1/2-y,1/2-z
1/2+x,1/2+y,1/2-z
1/2-x,1/2+y,1/2+z
1/2+x,1/2-y,1/2+z
loop_
_atom_site_type_symbol
_atom_site_label
_atom_site_fract_x
_atom_site_fract_y
_atom_site_fract_z
Si Si1 0.395114 0.400306 0.839508
Si Si2 0.237331 0.675942 0.627049
Si Si3 0.892208 0.218952 0.059923
Si Si4 0.113580 0.406361 0.094875
Si Si5 0.387746 0.699474 0.940329
Si Si6 0.792906 0.666931 0.194246
Si Si7 0.390509 0.097569 0.791576
O O1 0.500000 0.366190 0.828657
O O2 0.396408 0.500000 0.834483
O O3 0.372153 0.376308 0.899202
O O4 0.314700 0.364071 0.802918
O O5 0.326591 0.655998 0.591840
O O6 0.167623 0.725249 0.587800
O O7 0.282190 0.741085 0.668926
O O8 0.174911 0.610676 0.658546
O O9 0.860498 0.318256 0.066281
O O10 0.000000 0.215713 0.078081
O O11 0.888536 0.198998 0.000000
O O12 0.143159 0.500000 0.075236
O O13 0.155462 0.391914 0.151782
O O14 0.000000 0.407516 0.096099
O O15 0.500000 0.715446 0.940885
O O16 0.358953 0.685478 0.000000
O O17 0.849740 0.657095 0.246628
O O18 0.500000 0.116790 0.802367
O O19 0.384416 0.000000 0.774229
#
# Coordination Sequence:
#
# PCOD9519744 Si02
#       7
#    16  16  16  16  16  16  16
#     4   9  17  28  43  67 101 138 173 207 242 288
#     4  10  20  35  53  76 104 135 167 208 254 302
#     4   9  18  32  51  76 105 140 180 214 248 298
#     4   9  16  26  44  73 109 144 176 213 254 296
#     4   9  17  29  47  70  96 131 173 214 258 306
#     4  10  19  33  51  73 102 137 172 205 246 301
#     4  11  23  38  58  81 103 129 165 213 266 314
#
# _framework density 19.241907999999999
#
# number of rings (size 3 to 8) (size 9 to 14) (size 15 to 20)
#    0.000    2.429    0.000    3.000    0.000    2.857 
#    0.000    3.571    0.000    8.143    0.000    6.000 
#    0.000    0.000    0.000    0.000    0.000    0.000 
#
# Total GULP energy -312030.451549 kJ/mol
# GULP energy per Si atom -5571.972349 kJ/mol
# Density = 1.919811 g / cm^3
# Si number density = 19.241908 Si / 1000 Ang^3
#
#
#
# Elastic Constant Matrix: (Units=GPa)
#
#
# Indices 1 2 3 4 5 6 
#
# 1 68.7684 12.3768 39.7195 0.0000 0.0000 0.0000
# 2 12.3768 13.2880 7.0761 0.0000 0.0000 0.0000
# 3 39.7195 7.0761 52.7646 0.0000 0.0000 0.0000
# 4 0.0000 0.0000 0.0000 11.3318 0.0000 0.0000
# 5 0.0000 0.0000 0.0000 0.0000 34.5299 0.0000
# 6 0.0000 0.0000 0.0000 0.0000 0.0000 21.8766
#
#
#
# Elastic Compliance Matrix: (Units=1/GPa)
#
#
# Indices 1 2 3 4 5 6 
#
# 1 0.028702 -0.016400 -0.019407 0.000000 0.000000 0.000000
# 2 -0.016400 0.090414 0.000220 0.000000 0.000000 0.000000
# 3 -0.019407 0.000220 0.033531 0.000000 0.000000 0.000000
# 4 0.000000 0.000000 0.000000 0.088247 0.000000 0.000000
# 5 0.000000 0.000000 0.000000 0.000000 0.028960 0.000000
# 6 0.000000 0.000000 0.000000 0.000000 0.000000 0.045711
#
#
# Mechanical properties :
#
#
# Convention : Reuss Voigt Hill
#
# Bulk Modulus (GPa) = 12.27373 28.12952 20.20162
# Shear Modulus (GPa) = 12.08028 18.59089 15.33558
#
# Velocity S-wave (km/s) = 2.50833 3.11169 2.82616
# Velocity P-wave (km/s) = 3.84467 5.24984 4.60121
#
# Compressibility (1/GPa) = 0.08147483
#
# Stress axis : x y z
#
# Youngs Moduli (GPa) = 34.84054 11.06022 29.82280
#
# Poissons Ratio (x) = 0.18138 0.57876
# Poissons Ratio (y) = 0.57137 -0.00656
# Poissons Ratio (z) = 0.67614 -0.00243
#
# Static dielectric constant tensor:
#      x y z
#    x 1.719280 0.000000 0.000000 
#    y 0.000000 1.670850 0.000000 
#    z 0.000000 0.000000 1.677660 
# 
# From -- ./inp_files/65529.got.cif
#   From: 2010.05.17/outbox.cif.g08.bks.cpg/sg71_33_cif.got.tgz:65529.got - 2010.06.03 16:22:01.
