data_PCOD9519845
_publ_section_title
;
Structure prediction by ZEFSAII (Michael W. Deem and Ramdas Pophale) SiO2 
 PCOD9519845
Probable space group: I M M M
;
_chemical_formula_sum "Si O2"
_cell_formula_units_Z 98
_cell_length_a 24.895100
_cell_length_b 15.148497
_cell_length_c 15.503632
_cell_angle_alpha 90.000000
_cell_angle_beta 90.000000
_cell_angle_gamma 90.000000
_cell_volume 5846.781601
_symmetry_space_group_name_H-M "I M M M"
_symmetry_group_IT_number 71
_symmetry_cell_setting 'orthorhombic'
loop_
_space_group_symop_operation_xyz
x,y,z
-x,-y,z
x,-y,-z
-x,y,-z
-x,-y,-z
x,y,-z
-x,y,z
x,-y,z
1/2+x,1/2+y,1/2+z
1/2-x,1/2-y,1/2+z
1/2+x,1/2-y,1/2-z
1/2-x,1/2+y,1/2-z
1/2-x,1/2-y,1/2-z
1/2+x,1/2+y,1/2-z
1/2-x,1/2+y,1/2+z
1/2+x,1/2-y,1/2+z
loop_
_atom_site_type_symbol
_atom_site_label
_atom_site_fract_x
_atom_site_fract_y
_atom_site_fract_z
Si Si1 0.939646 0.814015 0.000000
Si Si2 0.737735 0.834761 0.903053
Si Si3 0.712560 0.369079 0.903842
Si Si4 0.107409 0.900086 0.308495
Si Si5 0.691130 0.902322 0.725322
Si Si6 0.000000 0.892517 0.402027
Si Si7 0.856886 0.222650 0.847328
Si Si8 0.500000 0.500000 0.500000
O O1 0.903856 0.785488 0.082064
O O2 0.000000 0.773360 0.000000
O O3 0.953565 0.919529 0.000000
O O4 0.712080 0.737076 0.901082
O O5 0.710877 0.885689 0.823435
O O6 0.800900 0.816206 0.885149
O O7 0.731177 0.871699 0.000000
O O8 0.653885 0.401941 0.879851
O O9 0.755175 0.399661 0.833225
O O10 0.729112 0.395408 0.000000
O O11 0.127031 0.837917 0.232747
O O12 0.052983 0.866134 0.351078
O O13 0.098478 0.000000 0.276175
O O14 0.655869 0.821193 0.688220
O O15 0.666634 0.000000 0.718086
O O16 0.000000 0.860583 0.500000
O O17 0.000000 0.000000 0.404962
#
# Coordination Sequence:
#
# PCOD9519845 Si02
#       8
#     8  16  16  16  16   8  16   2
#     4  10  24  42  63  88 120 151 198 247 293 356
#     4  10  19  36  56  80 116 155 195 241 296 354
#     4  10  19  33  53  78 111 149 189 237 284 344
#     4  11  21  32  53  78 109 149 187 233 290 349
#     4  11  22  37  55  84 116 152 200 241 288 354
#     4   9  20  35  49  75 109 140 180 227 285 360
#     4  11  21  39  56  82 119 156 192 240 300 351
#     4   8  24  44  60 100 118 148 214 252 280 374
#
# _framework density 16.761358000000001
#
# number of rings (size 3 to 8) (size 9 to 14) (size 15 to 20)
#    0.245    1.388    4.082    1.959    3.429    2.286 
#    1.469    0.000    0.000    0.980    0.000    0.000 
#    0.000    0.653    0.000    0.000    0.000    0.000 
#
# Total GULP energy -272942.142112 kJ/mol
# GULP energy per Si atom -5570.247798 kJ/mol
# Density = 1.672321 g / cm^3
# Si number density = 16.761358 Si / 1000 Ang^3
#
#
#
# Elastic Constant Matrix: (Units=GPa)
#
#
# Indices 1 2 3 4 5 6 
#
# 1 94.7704 36.7464 35.6213 0.0000 0.0000 0.0000
# 2 36.7464 85.8237 43.3662 0.0000 0.0000 0.0000
# 3 35.6213 43.3662 122.3733 0.0000 0.0000 0.0000
# 4 0.0000 0.0000 0.0000 162.6375 0.0000 0.0000
# 5 0.0000 0.0000 0.0000 0.0000 13.0657 0.0000
# 6 0.0000 0.0000 0.0000 0.0000 0.0000 13.9197
#
#
#
# Elastic Compliance Matrix: (Units=1/GPa)
#
#
# Indices 1 2 3 4 5 6 
#
# 1 0.013133 -0.004497 -0.002229 0.000000 0.000000 0.000000
# 2 -0.004497 0.015733 -0.004266 0.000000 0.000000 0.000000
# 3 -0.002229 -0.004266 0.010333 0.000000 0.000000 0.000000
# 4 0.000000 0.000000 0.000000 0.006149 0.000000 0.000000
# 5 0.000000 0.000000 0.000000 0.000000 0.076536 0.000000
# 6 0.000000 0.000000 0.000000 0.000000 0.000000 0.071840
#
#
# Mechanical properties :
#
#
# Convention : Reuss Voigt Hill
#
# Bulk Modulus (GPa) = 58.09311 59.38170 58.73740
# Shear Modulus (GPa) = 22.57873 50.40681 36.49277
#
# Velocity S-wave (km/s) = 3.67423 5.48986 4.67111
# Velocity P-wave (km/s) = 7.26183 8.69996 8.01322
#
# Compressibility (1/GPa) = 0.01721374
#
# Stress axis : x y z
#
# Youngs Moduli (GPa) = 76.14212 63.56102 96.78101
#
# Poissons Ratio (x) = 0.28581 0.21577
# Poissons Ratio (y) = 0.34239 0.41291
# Poissons Ratio (z) = 0.16975 0.27118
#
# Static dielectric constant tensor:
#      x y z
#    x 1.550190 0.000000 0.000000 
#    y 0.000000 1.577110 0.000000 
#    z 0.000000 0.000000 1.596520 
# 
# From -- ./inp_files/39223.got.cif
#   From: 2010.05.17/outbox.cif.g08.bks.cpg/sg71_20_cif.got.tgz:39223.got - 2010.06.03 16:22:01.
