data_PCOD9519672
_publ_section_title
;
Structure prediction by ZEFSAII (Michael W. Deem and Ramdas Pophale) SiO2 
 PCOD9519672
Probable space group: I M M M
;
_chemical_formula_sum "Si O2"
_cell_formula_units_Z 88
_cell_length_a 19.807603
_cell_length_b 8.228646
_cell_length_c 27.959751
_cell_angle_alpha 90.000000
_cell_angle_beta 90.000000
_cell_angle_gamma 90.000000
_cell_volume 4557.152915
_symmetry_space_group_name_H-M "I M M M"
_symmetry_group_IT_number 71
_symmetry_cell_setting 'orthorhombic'
loop_
_space_group_symop_operation_xyz
x,y,z
-x,-y,z
x,-y,-z
-x,y,-z
-x,-y,-z
x,y,-z
-x,y,z
x,-y,z
1/2+x,1/2+y,1/2+z
1/2-x,1/2-y,1/2+z
1/2+x,1/2-y,1/2-z
1/2-x,1/2+y,1/2-z
1/2-x,1/2-y,1/2-z
1/2+x,1/2+y,1/2-z
1/2-x,1/2+y,1/2+z
1/2+x,1/2-y,1/2+z
loop_
_atom_site_type_symbol
_atom_site_label
_atom_site_fract_x
_atom_site_fract_y
_atom_site_fract_z
Si Si1 0.194201 0.316917 0.190803
Si Si2 0.300395 0.193149 0.052871
Si Si3 0.574071 0.500000 0.556825
Si Si4 0.575123 0.694747 0.241971
Si Si5 0.843648 0.321721 0.920083
Si Si6 0.338144 0.302458 0.155528
O O1 0.203795 0.500000 0.209544
O O2 0.136323 0.236680 0.222429
O O3 0.167025 0.325129 0.136777
O O4 0.269283 0.244429 0.182802
O O5 0.229665 0.288167 0.057246
O O6 0.339918 0.239639 0.101209
O O7 0.286179 0.000000 0.054974
O O8 0.330247 0.227210 0.000000
O O9 0.500000 0.500000 0.579260
O O10 0.569232 0.500000 0.500000
O O11 0.611479 0.665933 0.569546
O O12 0.500000 0.758473 0.254173
O O13 0.571071 0.500000 0.241586
O O14 0.599642 0.745377 0.189029
O O15 0.869078 0.500000 0.935405
O O16 0.333467 0.500000 0.153264
#
# Coordination Sequence:
#
# PCOD9519672 Si02
#       6
#    16  16   8  16  16  16
#     4   9  19  34  54  80 105 138 184 230 279 337
#     4  10  19  32  55  85 110 135 176 230 285 340
#     4  11  24  38  52  74 106 148 193 233 282 342
#     4  10  21  35  53  78 109 147 187 229 279 337
#     4  10  21  37  56  80 110 143 185 236 289 335
#     4   9  19  35  53  78 111 144 183 229 281 339
#
# _framework density 19.310303000000001
#
# number of rings (size 3 to 8) (size 9 to 14) (size 15 to 20)
#    0.000    2.273    0.909    2.727    1.273    5.455 
#    0.000    2.727    0.000    0.545    0.000    3.818 
#    0.000    0.000    0.000    0.000    0.000    0.000 
#
# Total GULP energy -245217.944176 kJ/mol
# GULP energy per Si atom -5573.135095 kJ/mol
# Density = 1.926635 g / cm^3
# Si number density = 19.310303 Si / 1000 Ang^3
#
#
#
# Elastic Constant Matrix: (Units=GPa)
#
#
# Indices 1 2 3 4 5 6 
#
# 1 39.9980 13.5543 32.9534 0.0000 0.0000 0.0000
# 2 13.5543 71.9273 13.0902 0.0000 0.0000 0.0000
# 3 32.9534 13.0902 107.3263 0.0000 0.0000 0.0000
# 4 0.0000 0.0000 0.0000 -47.8040 0.0000 0.0000
# 5 0.0000 0.0000 0.0000 0.0000 24.4185 0.0000
# 6 0.0000 0.0000 0.0000 0.0000 0.0000 14.6908
#
#
#
# Elastic Compliance Matrix: (Units=1/GPa)
#
#
# Indices 1 2 3 4 5 6 
#
# 1 0.034981 -0.004742 -0.010162 0.000000 0.000000 0.000000
# 2 -0.004742 0.014861 -0.000356 0.000000 0.000000 0.000000
# 3 -0.010162 -0.000356 0.012481 0.000000 0.000000 0.000000
# 4 0.000000 0.000000 0.000000 -0.020919 0.000000 0.000000
# 5 0.000000 0.000000 0.000000 0.000000 0.040953 0.000000
# 6 0.000000 0.000000 0.000000 0.000000 0.000000 0.068070
#
#
# Mechanical properties :
#
#
# Convention : Reuss Voigt Hill
#
# Bulk Modulus (GPa) = 31.44536 37.60524 34.52530
# Shear Modulus (GPa) = 26.10295 8.90463 17.50379
#
# Velocity S-wave (km/s) = 3.68062 2.14973 3.01399
# Velocity P-wave (km/s) = 5.86364 5.06737 5.47999
#
# Compressibility (1/GPa) = 0.03180120
#
# Stress axis : x y z
#
# Youngs Moduli (GPa) = 28.58727 67.28796 80.12188
#
# Poissons Ratio (x) = 0.31911 0.81420
# Poissons Ratio (y) = 0.13557 0.02856
# Poissons Ratio (z) = 0.29050 0.02399
#
# Static dielectric constant tensor:
#      x y z
#    x 1.690760 0.000000 0.000000 
#    y 0.000000 1.758510 0.000000 
#    z 0.000000 0.000000 1.694070 
# 
# From -- ./inp_files/66327.got.cif
#   From: 2010.05.17/outbox.cif.g08.bks.cpg/sg71_34_cif.got.tgz:66327.got - 2010.06.03 16:22:01.
