data_PCOD9519039
_publ_section_title
;
Structure prediction by ZEFSAII (Michael W. Deem and Ramdas Pophale) SiO2 
 PCOD9519039
Probable space group: I M M M
;
_chemical_formula_sum "Si O2"
_cell_formula_units_Z 54
_cell_length_a 5.196982
_cell_length_b 32.352135
_cell_length_c 18.225603
_cell_angle_alpha 90.000000
_cell_angle_beta 90.000000
_cell_angle_gamma 90.000000
_cell_volume 3064.333752
_symmetry_space_group_name_H-M "I M M M"
_symmetry_group_IT_number 71
_symmetry_cell_setting 'orthorhombic'
loop_
_space_group_symop_operation_xyz
x,y,z
-x,-y,z
x,-y,-z
-x,y,-z
-x,-y,-z
x,y,-z
-x,y,z
x,-y,z
1/2+x,1/2+y,1/2+z
1/2-x,1/2-y,1/2+z
1/2+x,1/2-y,1/2-z
1/2-x,1/2+y,1/2-z
1/2-x,1/2-y,1/2-z
1/2+x,1/2+y,1/2-z
1/2-x,1/2+y,1/2+z
1/2+x,1/2-y,1/2+z
loop_
_atom_site_type_symbol
_atom_site_label
_atom_site_fract_x
_atom_site_fract_y
_atom_site_fract_z
Si Si1 0.000000 0.281656 0.415861
Si Si2 0.000000 0.587486 0.811433
Si Si3 0.500000 0.660760 0.417651
Si Si4 0.000000 0.125074 0.765810
Si Si5 0.000000 0.801028 0.660985
Si Si6 0.500000 0.500000 0.000000
Si Si7 0.000000 0.661370 0.086131
Si Si8 0.500000 0.000000 0.387579
O O1 0.250373 0.310171 0.410373
O O2 0.000000 0.248037 0.350731
O O3 0.000000 0.263208 0.500000
O O4 0.749772 0.602481 0.766773
O O5 0.000000 0.614404 0.886244
O O6 0.000000 0.540449 0.836010
O O7 0.500000 0.643147 0.500000
O O8 0.500000 0.627665 0.353053
O O9 0.000000 0.173117 0.736711
O O10 0.251270 0.816807 0.618998
O O11 0.264170 0.500000 0.063654
O O12 0.000000 0.664044 0.000000
#
# Coordination Sequence:
#
# PCOD9519039 Si02
#       8
#     8   8   8   8   8   2   8   4
#     4  10  19  31  49  74 104 140 179 230 274 325
#     4  10  22  37  57  78 109 143 181 223 266 318
#     4  10  21  35  54  79 104 135 181 231 288 338
#     4  10  21  38  54  78 107 141 183 228 275 335
#     4  10  20  32  48  71 104 142 184 222 268 316
#     4  10  24  34  60  86 124 150 178 230 244 302
#     4  10  19  31  47  71 100 143 181 220 254 306
#     4  11  22  42  56  90 115 152 188 222 265 314
#
# _framework density 17.622101000000001
#
# number of rings (size 3 to 8) (size 9 to 14) (size 15 to 20)
#    0.000    1.926    0.000    4.000    2.074    2.370 
#    0.000    0.000    0.000    0.000    0.000    3.111 
#    0.000    0.000    0.000    0.000    0.000    0.000 
#
# Total GULP energy -150383.092782 kJ/mol
# GULP energy per Si atom -5569.744177 kJ/mol
# Density = 1.758199 g / cm^3
# Si number density = 17.622101 Si / 1000 Ang^3
#
#
#
# Elastic Constant Matrix: (Units=GPa)
#
#
# Indices 1 2 3 4 5 6 
#
# 1 158.4399 17.9719 33.5822 0.0000 0.0000 0.0000
# 2 17.9719 38.2064 19.2933 0.0000 0.0000 0.0000
# 3 33.5822 19.2933 102.5547 0.0000 0.0000 0.0000
# 4 0.0000 0.0000 0.0000 4.1517 0.0000 0.0000
# 5 0.0000 0.0000 0.0000 0.0000 16.2230 0.0000
# 6 0.0000 0.0000 0.0000 0.0000 0.0000 5.1077
#
#
#
# Elastic Compliance Matrix: (Units=1/GPa)
#
#
# Indices 1 2 3 4 5 6 
#
# 1 0.006968 -0.002349 -0.001840 0.000000 0.000000 0.000000
# 2 -0.002349 0.029713 -0.004821 0.000000 0.000000 0.000000
# 3 -0.001840 -0.004821 0.011260 0.000000 0.000000 0.000000
# 4 0.000000 0.000000 0.000000 0.240864 0.000000 0.000000
# 5 0.000000 0.000000 0.000000 0.000000 0.061641 0.000000
# 6 0.000000 0.000000 0.000000 0.000000 0.000000 0.195781
#
#
# Mechanical properties :
#
#
# Convention : Reuss Voigt Hill
#
# Bulk Modulus (GPa) = 33.41948 48.98840 41.20394
# Shear Modulus (GPa) = 8.70747 20.32008 14.51378
#
# Velocity S-wave (km/s) = 2.22530 3.39942 2.87298
# Velocity P-wave (km/s) = 5.06046 6.57783 5.86840
#
# Compressibility (1/GPa) = 0.02992267
#
# Stress axis : x y z
#
# Youngs Moduli (GPa) = 143.51519 33.65562 88.80783
#
# Poissons Ratio (x) = 0.07904 0.16339
# Poissons Ratio (y) = 0.33705 0.42812
# Poissons Ratio (z) = 0.26405 0.16224
#
# Static dielectric constant tensor:
#      x y z
#    x 1.589950 0.000000 0.000000 
#    y 0.000000 1.613510 0.000000 
#    z 0.000000 0.000000 1.609970 
# 
# From -- ./inp_files/30519.got.cif
#   From: 2010.05.17/outbox.cif.g08.bks.cpg/sg71_16_cif.got.tgz:30519.got - 2010.06.03 16:22:01.
