data_PCOD9519149
_publ_section_title
;
Structure prediction by ZEFSAII (Michael W. Deem and Ramdas Pophale) SiO2 
 PCOD9519149
Probable space group: I M M M
;
_chemical_formula_sum "Si O2"
_cell_formula_units_Z 116
_cell_length_a 30.154770
_cell_length_b 7.526922
_cell_length_c 25.660111
_cell_angle_alpha 90.000000
_cell_angle_beta 90.000000
_cell_angle_gamma 90.000000
_cell_volume 5824.142154
_symmetry_space_group_name_H-M "I M M M"
_symmetry_group_IT_number 71
_symmetry_cell_setting 'orthorhombic'
loop_
_space_group_symop_operation_xyz
x,y,z
-x,-y,z
x,-y,-z
-x,y,-z
-x,-y,-z
x,y,-z
-x,y,z
x,-y,z
1/2+x,1/2+y,1/2+z
1/2-x,1/2-y,1/2+z
1/2+x,1/2-y,1/2-z
1/2-x,1/2+y,1/2-z
1/2-x,1/2-y,1/2-z
1/2+x,1/2+y,1/2-z
1/2-x,1/2+y,1/2+z
1/2+x,1/2-y,1/2+z
loop_
_atom_site_type_symbol
_atom_site_label
_atom_site_fract_x
_atom_site_fract_y
_atom_site_fract_z
Si Si1 0.705049 0.283677 0.191231
Si Si2 0.141857 0.794127 0.090626
Si Si3 0.049561 0.286285 0.440767
Si Si4 0.154125 0.500000 0.000000
Si Si5 0.550314 0.208928 0.634922
Si Si6 0.386440 0.710649 0.846712
Si Si7 0.805196 0.795927 0.191074
Si Si8 0.550329 0.285041 0.244638
O O1 0.708930 0.500000 0.191789
O O2 0.664126 0.225829 0.155416
O O3 0.753317 0.214030 0.176269
O O4 0.693453 0.221534 0.250240
O O5 0.089124 0.794219 0.101547
O O6 0.165086 0.726365 0.144216
O O7 0.155931 0.000000 0.081053
O O8 0.152789 0.657114 0.045345
O O9 0.057912 0.224772 0.500000
O O10 0.048142 0.500000 0.442124
O O11 0.086759 0.236822 0.399624
O O12 0.000000 0.224242 0.424998
O O13 0.500000 0.277095 0.627015
O O14 0.560642 0.231240 0.696338
O O15 0.550225 0.000000 0.622840
O O16 0.383303 0.500000 0.837942
O O17 0.415513 0.782138 0.798527
O O18 0.819720 0.000000 0.197020
O O19 0.500000 0.226496 0.232593
O O20 0.550623 0.500000 0.243494
#
# Coordination Sequence:
#
# PCOD9519149 Si02
#       8
#    16  16  16   4  16  16  16  16
#     4   9  18  32  54  86 120 148 177 224 285 350
#     4  11  23  42  66  88 119 157 198 249 295 342
#     4   9  19  35  52  69  95 138 188 235 284 334
#     4  12  26  44  65  96 116 154 210 248 289 346
#     4  10  20  35  56  86 120 153 193 237 286 348
#     4  10  19  31  49  77 111 143 182 230 284 343
#     4   9  19  36  59  86 113 147 189 229 283 349
#     4   9  17  29  47  74 112 154 189 226 284 353
#
# _framework density 19.917096000000001
#
# number of rings (size 3 to 8) (size 9 to 14) (size 15 to 20)
#    0.000    2.345    0.690    2.276    0.966    5.241 
#    0.000    2.759    1.517    0.828    0.000    0.000 
#    0.000    0.000    0.000    0.000    0.000    0.000 
#
# Total GULP energy -323127.715066 kJ/mol
# GULP energy per Si atom -5571.167501 kJ/mol
# Density = 1.987176 g / cm^3
# Si number density = 19.917096 Si / 1000 Ang^3
#
#
#
# Elastic Constant Matrix: (Units=GPa)
#
#
# Indices 1 2 3 4 5 6 
#
# 1 79.7053 -0.6640 39.3609 0.0000 0.0000 0.0000
# 2 -0.6640 70.4160 6.8642 0.0000 0.0000 0.0000
# 3 39.3609 6.8642 50.1665 0.0000 0.0000 0.0000
# 4 0.0000 0.0000 0.0000 -3.8483 0.0000 0.0000
# 5 0.0000 0.0000 0.0000 0.0000 13.7500 0.0000
# 6 0.0000 0.0000 0.0000 0.0000 0.0000 17.4445
#
#
#
# Elastic Compliance Matrix: (Units=1/GPa)
#
#
# Indices 1 2 3 4 5 6 
#
# 1 0.020706 0.001803 -0.016493 0.000000 0.000000 0.000000
# 2 0.001803 0.014550 -0.003406 0.000000 0.000000 0.000000
# 3 -0.016493 -0.003406 0.033340 0.000000 0.000000 0.000000
# 4 0.000000 0.000000 0.000000 -0.259852 0.000000 0.000000
# 5 0.000000 0.000000 0.000000 0.000000 0.072727 0.000000
# 6 0.000000 0.000000 0.000000 0.000000 0.000000 0.057325
#
#
# Mechanical properties :
#
#
# Convention : Reuss Voigt Hill
#
# Bulk Modulus (GPa) = 30.85887 32.37889 31.61888
# Shear Modulus (GPa) = -351.81422 15.78433 -168.01494
#
# Velocity S-wave (km/s) = -13.30499 2.81819 -9.19458
# Velocity P-wave (km/s) = 14.84935 5.18476 9.83924
#
# Compressibility (1/GPa) = 0.03240559
#
# Stress axis : x y z
#
# Youngs Moduli (GPa) = 48.29574 68.72710 29.99426
#
# Poissons Ratio (x) = -0.12391 0.49468
# Poissons Ratio (y) = -0.08707 0.10215
# Poissons Ratio (z) = 0.79652 0.23405
#
# Static dielectric constant tensor:
#      x y z
#    x 1.718150 0.000000 0.000000 
#    y 0.000000 1.754550 0.000000 
#    z 0.000000 0.000000 1.675200 
# 
# From -- ./inp_files/62397.got.cif
#   From: 2010.05.17/outbox.cif.g08.bks.cpg/sg71_32_cif.got.tgz:62397.got - 2010.06.03 16:22:01.
