data_PCOD9519404
_publ_section_title
;
Structure prediction by ZEFSAII (Michael W. Deem and Ramdas Pophale) SiO2 
 PCOD9519404
Probable space group: I M M M
;
_chemical_formula_sum "Si O2"
_cell_formula_units_Z 96
_cell_length_a 29.841329
_cell_length_b 14.500093
_cell_length_c 12.619793
_cell_angle_alpha 90.000000
_cell_angle_beta 90.000000
_cell_angle_gamma 90.000000
_cell_volume 5460.610248
_symmetry_space_group_name_H-M "I M M M"
_symmetry_group_IT_number 71
_symmetry_cell_setting 'orthorhombic'
loop_
_space_group_symop_operation_xyz
x,y,z
-x,-y,z
x,-y,-z
-x,y,-z
-x,-y,-z
x,y,-z
-x,y,z
x,-y,z
1/2+x,1/2+y,1/2+z
1/2-x,1/2-y,1/2+z
1/2+x,1/2-y,1/2-z
1/2-x,1/2+y,1/2-z
1/2-x,1/2-y,1/2-z
1/2+x,1/2+y,1/2-z
1/2-x,1/2+y,1/2+z
1/2+x,1/2-y,1/2+z
loop_
_atom_site_type_symbol
_atom_site_label
_atom_site_fract_x
_atom_site_fract_y
_atom_site_fract_z
Si Si1 0.611938 0.887549 0.500000
Si Si2 0.646544 0.708921 0.125467
Si Si3 0.051127 0.393045 0.194775
Si Si4 0.450421 0.255737 0.875866
Si Si5 0.269350 0.389487 0.207889
Si Si6 0.694379 0.894910 0.874916
Si Si7 0.714456 0.887794 0.500000
O O1 0.585380 0.859234 0.605357
O O2 0.663189 0.856243 0.500000
O O3 0.611400 0.000000 0.500000
O O4 0.594630 0.687109 0.146774
O O5 0.682299 0.656005 0.196807
O O6 0.656572 0.817895 0.142691
O O7 0.655383 0.689569 0.000000
O O8 0.060805 0.500000 0.218656
O O9 0.052126 0.332097 0.299651
O O10 0.000000 0.388695 0.152298
O O11 0.500000 0.298512 0.860094
O O12 0.447308 0.229514 0.000000
O O13 0.274457 0.500000 0.203933
O O14 0.238595 0.368164 0.309106
O O15 0.240854 0.359281 0.104926
O O16 0.681611 0.000000 0.842860
O O17 0.703956 0.895491 0.000000
O O18 0.713496 0.000000 0.500000
#
# Coordination Sequence:
#
# PCOD9519404 Si02
#       7
#     8  16  16  16  16  16   8
#     4   9  17  28  43  64  92 124 157 190 233 280
#     4  10  19  32  51  71  94 127 162 195 237 287
#     4   9  17  29  45  64  89 123 161 198 233 275
#     4   9  19  33  47  65  89 119 155 197 243 283
#     4  10  19  33  52  72  98 125 157 200 240 284
#     4   9  19  33  48  70 101 134 162 190 226 274
#     4   9  18  29  44  69  94 121 152 191 239 279
#
# _framework density 17.580452000000001
#
# number of rings (size 3 to 8) (size 9 to 14) (size 15 to 20)
#    0.000    2.667    0.833    0.750    2.333    2.000 
#    0.000    3.333    0.000    0.500    0.000    2.333 
#    0.000    0.000    0.000    4.167    0.000    0.000 
#
# Total GULP energy -267519.996296 kJ/mol
# GULP energy per Si atom -5573.333256 kJ/mol
# Density = 1.754044 g / cm^3
# Si number density = 17.580452 Si / 1000 Ang^3
#
#
#
# Elastic Constant Matrix: (Units=GPa)
#
#
# Indices 1 2 3 4 5 6 
#
# 1 140.8787 17.5176 33.4541 0.0000 0.0000 0.0000
# 2 17.5176 17.2633 8.4899 0.0000 0.0000 0.0000
# 3 33.4541 8.4899 33.9482 0.0000 0.0000 0.0000
# 4 0.0000 0.0000 0.0000 10.8720 0.0000 0.0000
# 5 0.0000 0.0000 0.0000 0.0000 14.0457 0.0000
# 6 0.0000 0.0000 0.0000 0.0000 0.0000 15.8296
#
#
#
# Elastic Compliance Matrix: (Units=1/GPa)
#
#
# Indices 1 2 3 4 5 6 
#
# 1 0.009768 -0.005904 -0.008149 0.000000 0.000000 0.000000
# 2 -0.005904 0.069618 -0.011592 0.000000 0.000000 0.000000
# 3 -0.008149 -0.011592 0.040386 0.000000 0.000000 0.000000
# 4 0.000000 0.000000 0.000000 0.091980 0.000000 0.000000
# 5 0.000000 0.000000 0.000000 0.000000 0.071196 0.000000
# 6 0.000000 0.000000 0.000000 0.000000 0.000000 0.063173
#
#
# Mechanical properties :
#
#
# Convention : Reuss Voigt Hill
#
# Bulk Modulus (GPa) = 14.60250 34.55704 24.57977
# Shear Modulus (GPa) = 11.89802 16.99136 14.44469
#
# Velocity S-wave (km/s) = 2.60431 3.11222 2.86952
# Velocity P-wave (km/s) = 4.16742 5.71084 4.99906
#
# Compressibility (1/GPa) = 0.06848142
#
# Stress axis : x y z
#
# Youngs Moduli (GPa) = 102.38019 14.36404 24.76110
#
# Poissons Ratio (x) = 0.08480 0.20177
# Poissons Ratio (y) = 0.60444 0.28704
# Poissons Ratio (z) = 0.83428 0.16651
#
# Static dielectric constant tensor:
#      x y z
#    x 1.631130 0.000000 0.000000 
#    y 0.000000 1.603780 0.000000 
#    z 0.000000 0.000000 1.595310 
# 
# From -- ./inp_files/29986.got.cif
#   From: 2010.05.17/outbox.cif.g08.bks.cpg/sg71_15_cif.got.tgz:29986.got - 2010.06.03 16:22:01.
