data_PCOD9519659
_publ_section_title
;
Structure prediction by ZEFSAII (Michael W. Deem and Ramdas Pophale) SiO2 
 PCOD9519659
Probable space group: I M M M
;
_chemical_formula_sum "Si O2"
_cell_formula_units_Z 96
_cell_length_a 20.116365
_cell_length_b 29.160619
_cell_length_c 9.440933
_cell_angle_alpha 90.000000
_cell_angle_beta 90.000000
_cell_angle_gamma 90.000000
_cell_volume 5538.104690
_symmetry_space_group_name_H-M "I M M M"
_symmetry_group_IT_number 71
_symmetry_cell_setting 'orthorhombic'
loop_
_space_group_symop_operation_xyz
x,y,z
-x,-y,z
x,-y,-z
-x,y,-z
-x,-y,-z
x,y,-z
-x,y,z
x,-y,z
1/2+x,1/2+y,1/2+z
1/2-x,1/2-y,1/2+z
1/2+x,1/2-y,1/2-z
1/2-x,1/2+y,1/2-z
1/2-x,1/2-y,1/2-z
1/2+x,1/2+y,1/2-z
1/2-x,1/2+y,1/2+z
1/2+x,1/2-y,1/2+z
loop_
_atom_site_type_symbol
_atom_site_label
_atom_site_fract_x
_atom_site_fract_y
_atom_site_fract_z
Si Si1 0.690388 0.400083 0.831567
Si Si2 0.690560 0.694298 0.662335
Si Si3 0.153340 0.721037 0.337422
Si Si4 0.924559 0.055064 0.839439
Si Si5 0.421305 0.872658 0.830414
Si Si6 0.667627 0.053751 0.670180
O O1 0.687368 0.351404 0.754240
O O2 0.627982 0.427962 0.773316
O O3 0.758853 0.426689 0.796517
O O4 0.688135 0.394363 0.000000
O O5 0.669909 0.686990 0.500000
O O6 0.768601 0.707935 0.660995
O O7 0.649449 0.735284 0.735316
O O8 0.134243 0.732386 0.500000
O O9 0.112046 0.676239 0.291622
O O10 0.000000 0.070798 0.811063
O O11 0.925199 0.000000 0.839089
O O12 0.906271 0.069715 0.000000
O O13 0.500000 0.872197 0.802193
O O14 0.384778 0.913779 0.749179
O O15 0.411345 0.878132 0.000000
O O16 0.658613 0.057140 0.500000
O O17 0.662380 0.000000 0.709016
#
# Coordination Sequence:
#
# PCOD9519659 Si02
#       6
#    16  16  16  16  16  16
#     4  11  21  34  55  83 114 147 185 229 277 326
#     4  10  19  32  55  82 108 139 179 222 271 326
#     4   9  18  34  54  79 108 138 176 222 274 327
#     4   9  19  36  56  78 107 144 183 223 272 330
#     4  10  21  38  59  82 110 145 186 233 284 338
#     4  10  22  38  55  79 112 148 189 236 281 328
#
# _framework density 17.334448999999999
#
# number of rings (size 3 to 8) (size 9 to 14) (size 15 to 20)
#    0.000    2.167    1.667    2.000    0.000    4.333 
#    0.000    3.333    0.000    3.000    0.000    0.000 
#    0.000    0.000    0.000    0.000    0.000    0.000 
#
# Total GULP energy -267753.767680 kJ/mol
# GULP energy per Si atom -5578.203493 kJ/mol
# Density = 1.729500 g / cm^3
# Si number density = 17.334449 Si / 1000 Ang^3
#
#
#
# Elastic Constant Matrix: (Units=GPa)
#
#
# Indices 1 2 3 4 5 6 
#
# 1 83.0501 67.4577 56.3630 0.0000 0.0000 0.0000
# 2 67.4577 140.0798 71.3542 0.0000 0.0000 0.0000
# 3 56.3630 71.3542 80.4608 0.0000 0.0000 0.0000
# 4 0.0000 0.0000 0.0000 36.0428 0.0000 0.0000
# 5 0.0000 0.0000 0.0000 0.0000 20.6238 0.0000
# 6 0.0000 0.0000 0.0000 0.0000 0.0000 14.2056
#
#
#
# Elastic Compliance Matrix: (Units=1/GPa)
#
#
# Indices 1 2 3 4 5 6 
#
# 1 0.025258 -0.005747 -0.012597 0.000000 0.000000 0.000000
# 2 -0.005747 0.014328 -0.008681 0.000000 0.000000 0.000000
# 3 -0.012597 -0.008681 0.028951 0.000000 0.000000 0.000000
# 4 0.000000 0.000000 0.000000 0.027745 0.000000 0.000000
# 5 0.000000 0.000000 0.000000 0.000000 0.048488 0.000000
# 6 0.000000 0.000000 0.000000 0.000000 0.000000 0.070395
#
#
# Mechanical properties :
#
#
# Convention : Reuss Voigt Hill
#
# Bulk Modulus (GPa) = 69.02293 77.10450 73.06372
# Shear Modulus (GPa) = 18.24542 21.40217 19.82379
#
# Velocity S-wave (km/s) = 3.24783 3.51759 3.38539
# Velocity P-wave (km/s) = 7.34638 7.81505 7.58433
#
# Compressibility (1/GPa) = 0.01448794
#
# Stress axis : x y z
#
# Youngs Moduli (GPa) = 39.59207 69.79323 34.54134
#
# Poissons Ratio (x) = 0.40108 0.43511
# Poissons Ratio (y) = 0.22752 0.29985
# Poissons Ratio (z) = 0.49873 0.60586
#
# Static dielectric constant tensor:
#      x y z
#    x 1.570580 0.000000 0.000000 
#    y 0.000000 1.581490 0.000000 
#    z 0.000000 0.000000 1.583420 
# 
# From -- ./inp_files/10812.got.cif
#   From: 2010.05.17/outbox.cif.g08.bks.cpg/sg71_6_cif.got.tgz:10812.got - 2010.06.03 16:22:01.
