data_PCOD9519507
_publ_section_title
;
Structure prediction by ZEFSAII (Michael W. Deem and Ramdas Pophale) SiO2 
 PCOD9519507
Probable space group: I M M M
;
_chemical_formula_sum "Si O2"
_cell_formula_units_Z 120
_cell_length_a 20.936519
_cell_length_b 23.383534
_cell_length_c 14.255151
_cell_angle_alpha 90.000000
_cell_angle_beta 90.000000
_cell_angle_gamma 90.000000
_cell_volume 6978.891479
_symmetry_space_group_name_H-M "I M M M"
_symmetry_group_IT_number 71
_symmetry_cell_setting 'orthorhombic'
loop_
_space_group_symop_operation_xyz
x,y,z
-x,-y,z
x,-y,-z
-x,y,-z
-x,-y,-z
x,y,-z
-x,y,z
x,-y,z
1/2+x,1/2+y,1/2+z
1/2-x,1/2-y,1/2+z
1/2+x,1/2-y,1/2-z
1/2-x,1/2+y,1/2-z
1/2-x,1/2-y,1/2-z
1/2+x,1/2+y,1/2-z
1/2-x,1/2+y,1/2+z
1/2+x,1/2-y,1/2+z
loop_
_atom_site_type_symbol
_atom_site_label
_atom_site_fract_x
_atom_site_fract_y
_atom_site_fract_z
Si Si1 0.426910 0.675085 0.801973
Si Si2 0.280496 0.066236 0.222876
Si Si3 0.316592 0.140583 0.387834
Si Si4 0.572864 0.431132 0.500000
Si Si5 0.072770 0.703542 0.217861
Si Si6 0.128510 0.932349 0.200911
Si Si7 0.199635 0.217308 0.390409
Si Si8 0.349444 0.163354 0.112139
O O1 0.500000 0.678098 0.837162
O O2 0.420306 0.727517 0.727252
O O3 0.411771 0.612466 0.761937
O O4 0.369616 0.689917 0.872446
O O5 0.308127 0.084261 0.324544
O O6 0.203897 0.075079 0.219259
O O7 0.315520 0.106123 0.147003
O O8 0.292369 0.000000 0.203604
O O9 0.314936 0.131322 0.500000
O O10 0.379101 0.174955 0.355256
O O11 0.256856 0.179337 0.352919
O O12 0.568046 0.500000 0.500000
O O13 0.500000 0.408434 0.500000
O O14 0.610819 0.416772 0.593969
O O15 0.090309 0.677185 0.320692
O O16 0.000000 0.690831 0.194342
O O17 0.113119 0.000000 0.216234
O O18 0.211373 0.218712 0.500000
O O19 0.196549 0.283190 0.361073
O O20 0.361683 0.164241 0.000000
#
# Coordination Sequence:
#
# PCOD9519507 Si02
#       8
#    16  16  16   8  16  16  16  16
#     4  10  19  32  52  76 108 145 177 220 264 304
#     4  10  21  34  52  81 110 138 177 225 267 310
#     4  10  20  36  58  77 102 141 178 224 274 317
#     4   9  18  32  46  62  92 140 191 223 248 300
#     4   9  20  35  53  82 112 135 169 217 269 325
#     4  10  20  33  49  70 103 147 187 223 259 300
#     4   9  18  33  53  79 104 135 180 220 264 316
#     4   9  19  33  55  81 107 139 172 213 266 323
#
# _framework density 17.194707999999999
#
# number of rings (size 3 to 8) (size 9 to 14) (size 15 to 20)
#    0.000    2.467    1.333    0.400    2.800    3.733 
#    1.200    2.667    0.000    6.800    0.000    8.400 
#    0.000    0.000    0.000    0.000    0.000    0.000 
#
# Total GULP energy -334039.641709 kJ/mol
# GULP energy per Si atom -5567.327362 kJ/mol
# Density = 1.715557 g / cm^3
# Si number density = 17.194708 Si / 1000 Ang^3
#
#
#
# Elastic Constant Matrix: (Units=GPa)
#
#
# Indices 1 2 3 4 5 6 
#
# 1 67.4362 36.7884 -9.0455 0.0000 0.0000 0.0000
# 2 36.7884 92.3991 13.3390 0.0000 0.0000 0.0000
# 3 -9.0455 13.3390 37.6679 0.0000 0.0000 0.0000
# 4 0.0000 0.0000 0.0000 14.2411 0.0000 0.0000
# 5 0.0000 0.0000 0.0000 0.0000 -7.2533 0.0000
# 6 0.0000 0.0000 0.0000 0.0000 0.0000 20.7619
#
#
#
# Elastic Compliance Matrix: (Units=1/GPa)
#
#
# Indices 1 2 3 4 5 6 
#
# 1 0.021266 -0.009700 0.008542 0.000000 0.000000 0.000000
# 2 -0.009700 0.015830 -0.007935 0.000000 0.000000 0.000000
# 3 0.008542 -0.007935 0.031409 0.000000 0.000000 0.000000
# 4 0.000000 0.000000 0.000000 0.070219 0.000000 0.000000
# 5 0.000000 0.000000 0.000000 0.000000 -0.137868 0.000000
# 6 0.000000 0.000000 0.000000 0.000000 0.000000 0.048165
#
#
# Mechanical properties :
#
#
# Convention : Reuss Voigt Hill
#
# Bulk Modulus (GPa) = 19.87337 31.07411 25.47374
# Shear Modulus (GPa) = 59.53654 15.97804 37.75729
#
# Velocity S-wave (km/s) = 5.89068 3.05165 4.69109
# Velocity P-wave (km/s) = 7.60590 5.52521 6.64747
#
# Compressibility (1/GPa) = 0.05031859
#
# Stress axis : x y z
#
# Youngs Moduli (GPa) = 47.02265 63.17004 31.83791
#
# Poissons Ratio (x) = 0.61277 -0.27196
# Poissons Ratio (y) = 0.45613 0.25264
# Poissons Ratio (z) = -0.40166 0.50127
#
# Static dielectric constant tensor:
#      x y z
#    x 1.590370 0.000000 0.000000 
#    y 0.000000 1.597710 0.000000 
#    z 0.000000 0.000000 1.584830 
# 
# From -- ./inp_files/38392.got.cif
#   From: 2010.05.17/outbox.cif.g08.bks.cpg/sg71_20_cif.got.tgz:38392.got - 2010.06.03 16:22:01.
