data_PCOD9519411
_publ_section_title
;
Structure prediction by ZEFSAII (Michael W. Deem and Ramdas Pophale) SiO2 
 PCOD9519411
Probable space group: I M M M
;
_chemical_formula_sum "Si O2"
_cell_formula_units_Z 104
_cell_length_a 30.335490
_cell_length_b 8.951764
_cell_length_c 23.003516
_cell_angle_alpha 90.000000
_cell_angle_beta 90.000000
_cell_angle_gamma 90.000000
_cell_volume 6246.746179
_symmetry_space_group_name_H-M "I M M M"
_symmetry_group_IT_number 71
_symmetry_cell_setting 'orthorhombic'
loop_
_space_group_symop_operation_xyz
x,y,z
-x,-y,z
x,-y,-z
-x,y,-z
-x,-y,-z
x,y,-z
-x,y,z
x,-y,z
1/2+x,1/2+y,1/2+z
1/2-x,1/2-y,1/2+z
1/2+x,1/2-y,1/2-z
1/2-x,1/2+y,1/2-z
1/2-x,1/2-y,1/2-z
1/2+x,1/2+y,1/2-z
1/2-x,1/2+y,1/2+z
1/2+x,1/2-y,1/2+z
loop_
_atom_site_type_symbol
_atom_site_label
_atom_site_fract_x
_atom_site_fract_y
_atom_site_fract_z
Si Si1 0.782035 0.171907 0.929394
Si Si2 0.447238 0.676328 0.000000
Si Si3 0.601574 0.178283 0.109638
Si Si4 0.126300 0.679717 0.932366
Si Si5 0.190669 0.823409 0.569903
Si Si6 0.550773 0.820586 0.658057
Si Si7 0.947965 0.822560 0.716794
O O1 0.828113 0.246289 0.911765
O O2 0.738528 0.262466 0.911861
O O3 0.779315 0.000000 0.910658
O O4 0.782233 0.174171 0.000000
O O5 0.426629 0.752105 0.943227
O O6 0.436026 0.500000 0.000000
O O7 0.500000 0.690820 0.000000
O O8 0.651245 0.236152 0.100593
O O9 0.581005 0.238556 0.169249
O O10 0.599965 0.000000 0.107146
O O11 0.131241 0.500000 0.930477
O O12 0.085399 0.721647 0.891702
O O13 0.118722 0.721144 0.000000
O O14 0.186247 0.800084 0.500000
O O15 0.187181 0.000000 0.580585
O O16 0.500000 0.786719 0.641790
O O17 0.560569 0.738949 0.718625
O O18 0.553705 0.000000 0.666765
O O19 0.000000 0.796305 0.704475
O O20 0.940216 0.000000 0.713900
#
# Coordination Sequence:
#
# PCOD9519411 Si02
#       7
#    16   8  16  16  16  16  16
#     4   9  17  29  47  72 103 136 172 212 253 301
#     4  11  23  37  51  71 103 139 173 213 264 315
#     4  12  23  34  52  76 103 133 171 218 264 311
#     4   9  17  30  50  78 110 141 172 206 254 310
#     4  10  19  32  51  73 102 136 171 211 259 312
#     4   9  18  33  53  77 105 137 175 217 255 299
#     4  10  21  37  55  73  97 134 178 218 258 309
#
# _framework density 16.648668000000001
#
# number of rings (size 3 to 8) (size 9 to 14) (size 15 to 20)
#    0.000    2.077    0.769    3.462    0.000    6.769 
#    0.000    1.538    0.000    0.923    0.000    4.308 
#    0.000    0.000    0.000    0.000    0.000    0.000 
#
# Total GULP energy -290225.486270 kJ/mol
# GULP energy per Si atom -5581.259351 kJ/mol
# Density = 1.661077 g / cm^3
# Si number density = 16.648668 Si / 1000 Ang^3
#
#
#
# Elastic Constant Matrix: (Units=GPa)
#
#
# Indices 1 2 3 4 5 6 
#
# 1 144.9819 83.9133 81.1363 0.0000 0.0000 0.0000
# 2 83.9133 101.6444 58.1834 0.0000 0.0000 0.0000
# 3 81.1363 58.1834 77.1294 0.0000 0.0000 0.0000
# 4 0.0000 0.0000 0.0000 19.4932 0.0000 0.0000
# 5 0.0000 0.0000 0.0000 0.0000 -9.8893 0.0000
# 6 0.0000 0.0000 0.0000 0.0000 0.0000 22.4506
#
#
#
# Elastic Compliance Matrix: (Units=1/GPa)
#
#
# Indices 1 2 3 4 5 6 
#
# 1 0.019723 -0.007755 -0.014898 0.000000 0.000000 0.000000
# 2 -0.007755 0.020364 -0.007204 0.000000 0.000000 0.000000
# 3 -0.014898 -0.007204 0.034072 0.000000 0.000000 0.000000
# 4 0.000000 0.000000 0.000000 0.051300 0.000000 0.000000
# 5 0.000000 0.000000 0.000000 0.000000 -0.101119 0.000000
# 6 0.000000 0.000000 0.000000 0.000000 0.000000 0.044542
#
#
# Mechanical properties :
#
#
# Convention : Reuss Voigt Hill
#
# Bulk Modulus (GPa) = 69.22766 85.58020 77.40393
# Shear Modulus (GPa) = 37.47852 13.11242 25.29547
#
# Velocity S-wave (km/s) = 4.74977 2.80946 3.90214
# Velocity P-wave (km/s) = 8.47066 7.87650 8.17898
#
# Compressibility (1/GPa) = 0.01444509
#
# Stress axis : x y z
#
# Youngs Moduli (GPa) = 50.70262 49.10619 29.35003
#
# Poissons Ratio (x) = 0.38080 0.43725
# Poissons Ratio (y) = 0.39318 0.21145
# Poissons Ratio (z) = 0.75535 0.35378
#
# Static dielectric constant tensor:
#      x y z
#    x 1.552840 0.000000 0.000000 
#    y 0.000000 1.555220 0.000000 
#    z 0.000000 0.000000 1.531810 
# 
# From -- ./inp_files/11479.got.cif
#   From: 2010.05.17/outbox.cif.g08.bks.cpg/sg71_6_cif.got.tgz:11479.got - 2010.06.03 16:22:01.
