data_PCOD9519392
_publ_section_title
;
Structure prediction by ZEFSAII (Michael W. Deem and Ramdas Pophale) SiO2 
 PCOD9519392
Probable space group: I M M M
;
_chemical_formula_sum "Si O2"
_cell_formula_units_Z 112
_cell_length_a 11.672206
_cell_length_b 21.058941
_cell_length_c 19.655952
_cell_angle_alpha 90.000000
_cell_angle_beta 90.000000
_cell_angle_gamma 90.000000
_cell_volume 4831.517473
_symmetry_space_group_name_H-M "I M M M"
_symmetry_group_IT_number 71
_symmetry_cell_setting 'orthorhombic'
loop_
_space_group_symop_operation_xyz
x,y,z
-x,-y,z
x,-y,-z
-x,y,-z
-x,-y,-z
x,y,-z
-x,y,z
x,-y,z
1/2+x,1/2+y,1/2+z
1/2-x,1/2-y,1/2+z
1/2+x,1/2-y,1/2-z
1/2-x,1/2+y,1/2-z
1/2-x,1/2-y,1/2-z
1/2+x,1/2+y,1/2-z
1/2-x,1/2+y,1/2+z
1/2+x,1/2-y,1/2+z
loop_
_atom_site_type_symbol
_atom_site_label
_atom_site_fract_x
_atom_site_fract_y
_atom_site_fract_z
Si Si1 0.627991 0.760026 0.602205
Si Si2 0.125478 0.755247 0.608133
Si Si3 0.372790 0.911060 0.578858
Si Si4 0.875311 0.310565 0.246016
Si Si5 0.864580 0.076328 0.073830
Si Si6 0.214146 0.925938 0.224222
Si Si7 0.624224 0.593250 0.135522
O O1 0.500000 0.733996 0.585267
O O2 0.751421 0.735359 0.576529
O O3 0.625018 0.834157 0.582325
O O4 0.642455 0.761654 0.684310
O O5 0.123672 0.724560 0.682720
O O6 0.128451 0.831322 0.619087
O O7 0.000000 0.739782 0.577018
O O8 0.368903 0.928883 0.500000
O O9 0.500000 0.930903 0.605444
O O10 0.249744 0.930610 0.610613
O O11 0.797975 0.371863 0.248669
O O12 0.000000 0.337210 0.232141
O O13 0.817415 0.095545 0.147496
O O14 0.000000 0.088384 0.075157
O O15 0.849985 0.000000 0.072902
O O16 0.820124 0.099755 0.000000
O O17 0.120991 0.921891 0.284029
O O18 0.252494 0.000000 0.220918
O O19 0.500000 0.571811 0.106497
#
# Coordination Sequence:
#
# PCOD9519392 Si02
#       7
#    16  16  16  16  16  16  16
#     4   9  16  28  48  74 103 132 168 215 265 310
#     4   9  17  30  50  76 104 135 174 219 267 318
#     4   9  17  31  52  76 105 143 183 221 265 322
#     4  10  19  32  50  75 105 135 174 221 265 314
#     4   8  15  30  51  73  99 134 174 212 254 310
#     4  11  21  32  51  79 109 140 174 216 270 324
#     4  10  20  33  52  82 111 136 176 227 278 325
#
# _framework density 23.181122999999999
#
# number of rings (size 3 to 8) (size 9 to 14) (size 15 to 20)
#    0.000    2.571    2.857    1.286    0.000    1.429 
#    0.000    0.714    0.000    4.286    0.000   20.000 
#    0.000    0.000    0.000    0.000    0.000    0.143 
#
# Total GULP energy -311777.578952 kJ/mol
# GULP energy per Si atom -5567.456767 kJ/mol
# Density = 2.312836 g / cm^3
# Si number density = 23.181123 Si / 1000 Ang^3
#
#
#
# Elastic Constant Matrix: (Units=GPa)
#
#
# Indices 1 2 3 4 5 6 
#
# 1 251.3857 27.9867 48.1200 0.0000 0.0000 0.0000
# 2 27.9867 48.3355 7.9758 0.0000 0.0000 0.0000
# 3 48.1200 7.9758 113.1983 0.0000 0.0000 0.0000
# 4 0.0000 0.0000 0.0000 -8.9906 0.0000 0.0000
# 5 0.0000 0.0000 0.0000 0.0000 -10.6977 0.0000
# 6 0.0000 0.0000 0.0000 0.0000 0.0000 -95.1076
#
#
#
# Elastic Compliance Matrix: (Units=1/GPa)
#
#
# Indices 1 2 3 4 5 6 
#
# 1 0.004582 -0.002359 -0.001781 0.000000 0.000000 0.000000
# 2 -0.002359 0.022147 -0.000558 0.000000 0.000000 0.000000
# 3 -0.001781 -0.000558 0.009631 0.000000 0.000000 0.000000
# 4 0.000000 0.000000 0.000000 -0.111227 0.000000 0.000000
# 5 0.000000 0.000000 0.000000 0.000000 -0.093478 0.000000
# 6 0.000000 0.000000 0.000000 0.000000 0.000000 -0.010514
#
#
# Mechanical properties :
#
#
# Convention : Reuss Voigt Hill
#
# Bulk Modulus (GPa) = 37.08801 64.56494 50.82647
# Shear Modulus (GPa) = -31.15708 -1.03672 -16.09690
#
# Velocity S-wave (km/s) = -3.67014 -0.66948 -2.63800
# Velocity P-wave (km/s) = 1.38777 5.22640 3.56296
#
# Compressibility (1/GPa) = 0.02696289
#
# Stress axis : x y z
#
# Youngs Moduli (GPa) = 218.26672 45.15380 103.83558
#
# Poissons Ratio (x) = 0.10651 0.18497
# Poissons Ratio (y) = 0.51485 0.05791
# Poissons Ratio (z) = 0.38882 0.02518
#
# Static dielectric constant tensor:
#      x y z
#    x 1.960330 0.000000 0.000000 
#    y 0.000000 1.877450 0.000000 
#    z 0.000000 0.000000 1.912640 
# 
# From -- ./inp_files/52191.got.cif
#   From: 2010.05.17/outbox.cif.g08.bks.cpg/sg71_27_cif.got.tgz:52191.got - 2010.06.03 16:22:01.
