data_PCOD9519476
_publ_section_title
;
Structure prediction by ZEFSAII (Michael W. Deem and Ramdas Pophale) SiO2 
 PCOD9519476
Probable space group: I M M M
;
_chemical_formula_sum "Si O2"
_cell_formula_units_Z 104
_cell_length_a 23.808784
_cell_length_b 25.469034
_cell_length_c 7.428268
_cell_angle_alpha 90.000000
_cell_angle_beta 90.000000
_cell_angle_gamma 90.000000
_cell_volume 4504.403136
_symmetry_space_group_name_H-M "I M M M"
_symmetry_group_IT_number 71
_symmetry_cell_setting 'orthorhombic'
loop_
_space_group_symop_operation_xyz
x,y,z
-x,-y,z
x,-y,-z
-x,y,-z
-x,-y,-z
x,y,-z
-x,y,z
x,-y,z
1/2+x,1/2+y,1/2+z
1/2-x,1/2-y,1/2+z
1/2+x,1/2-y,1/2-z
1/2-x,1/2+y,1/2-z
1/2-x,1/2-y,1/2-z
1/2+x,1/2+y,1/2-z
1/2-x,1/2+y,1/2+z
1/2+x,1/2-y,1/2+z
loop_
_atom_site_type_symbol
_atom_site_label
_atom_site_fract_x
_atom_site_fract_y
_atom_site_fract_z
Si Si1 0.500000 0.560782 0.720416
Si Si2 0.227893 0.900409 0.700120
Si Si3 0.911822 0.252987 0.204054
Si Si4 0.292296 0.796305 0.213520
Si Si5 0.898397 0.865301 0.213095
Si Si6 0.340794 0.057902 0.279997
Si Si7 0.560500 0.135155 0.720026
O O1 0.500000 0.500000 0.778182
O O2 0.500000 0.559943 0.500000
O O3 0.555350 0.593127 0.779198
O O4 0.217842 0.921013 0.500000
O O5 0.263691 0.846756 0.700681
O O6 0.165720 0.885696 0.767587
O O7 0.276325 0.936435 0.786966
O O8 0.848971 0.275548 0.200691
O O9 0.908856 0.194224 0.285021
O O10 0.940303 0.304522 0.286427
O O11 0.933531 0.247174 0.000000
O O12 0.250000 0.750000 0.250000
O O13 0.299650 0.804929 0.000000
O O14 0.907148 0.860866 0.000000
O O15 0.338189 0.061555 0.500000
O O16 0.384958 0.102393 0.219816
O O17 0.362066 0.000000 0.234593
O O18 0.563841 0.137252 0.500000
O O19 0.500000 0.110671 0.765413
#
# Coordination Sequence:
#
# PCOD9519476 Si02
#       7
#     8  16  16  16  16  16  16
#     4   9  20  40  61  83 115 155 198 242 287 338
#     4  11  21  35  55  82 115 149 186 236 290 340
#     4  10  19  32  51  81 116 145 182 232 284 339
#     4  12  22  33  53  81 115 152 186 226 282 346
#     4  10  21  35  57  85 111 147 190 234 282 342
#     4   9  18  32  50  76 110 147 189 236 285 331
#     4   9  17  29  49  78 111 147 186 233 281 327
#
# _framework density 23.088521
#
# number of rings (size 3 to 8) (size 9 to 14) (size 15 to 20)
#    0.000    1.923    3.077    1.846    1.077    0.923 
#    0.000    1.923    0.000    2.308    0.000    0.000 
#    0.000    1.231    0.000    0.000    0.000    0.000 
#
# Total GULP energy -289900.110409 kJ/mol
# GULP energy per Si atom -5575.002123 kJ/mol
# Density = 2.303597 g / cm^3
# Si number density = 23.088521 Si / 1000 Ang^3
#
#
#
# Elastic Constant Matrix: (Units=GPa)
#
#
# Indices 1 2 3 4 5 6 
#
# 1 171.6655 94.0022 2.1058 0.0000 0.0000 0.0000
# 2 94.0022 164.9377 3.2611 0.0000 0.0000 0.0000
# 3 2.1058 3.2611 89.3524 0.0000 0.0000 0.0000
# 4 0.0000 0.0000 0.0000 -3.3117 0.0000 0.0000
# 5 0.0000 0.0000 0.0000 0.0000 3.7665 0.0000
# 6 0.0000 0.0000 0.0000 0.0000 0.0000 27.6882
#
#
#
# Elastic Compliance Matrix: (Units=1/GPa)
#
#
# Indices 1 2 3 4 5 6 
#
# 1 0.008468 -0.004826 -0.000023 0.000000 0.000000 0.000000
# 2 -0.004826 0.008817 -0.000208 0.000000 0.000000 0.000000
# 3 -0.000023 -0.000208 0.011200 0.000000 0.000000 0.000000
# 4 0.000000 0.000000 0.000000 -0.301963 0.000000 0.000000
# 5 0.000000 0.000000 0.000000 0.000000 0.265496 0.000000
# 6 0.000000 0.000000 0.000000 0.000000 0.000000 0.036116
#
#
# Mechanical properties :
#
#
# Convention : Reuss Voigt Hill
#
# Bulk Modulus (GPa) = 54.43451 69.41044 61.92248
# Shear Modulus (GPa) = 112.68289 27.40105 70.04197
#
# Velocity S-wave (km/s) = 6.99362 3.44871 5.51381
# Velocity P-wave (km/s) = 9.42560 6.78131 8.21060
#
# Compressibility (1/GPa) = 0.01837070
#
# Stress axis : x y z
#
# Youngs Moduli (GPa) = 118.09061 113.41341 89.28742
#
# Poissons Ratio (x) = 0.54730 0.00209
# Poissons Ratio (y) = 0.56987 0.01858
# Poissons Ratio (z) = 0.00277 0.02360
#
# Static dielectric constant tensor:
#      x y z
#    x 1.772250 0.000000 0.000000 
#    y 0.000000 1.500530 0.000000 
#    z 0.000000 0.000000 2.349180 
# 
# From -- ./inp_files/11100.got.cif
#   From: 2010.05.17/outbox.cif.g08.bks.cpg/sg71_6_cif.got.tgz:11100.got - 2010.06.03 16:22:01.
