data_PCOD9519362
_publ_section_title
;
Structure prediction by ZEFSAII (Michael W. Deem and Ramdas Pophale) SiO2 
 PCOD9519362
Probable space group: I M M M
;
_chemical_formula_sum "Si O2"
_cell_formula_units_Z 120
_cell_length_a 22.675149
_cell_length_b 13.406768
_cell_length_c 23.066823
_cell_angle_alpha 90.000000
_cell_angle_beta 90.000000
_cell_angle_gamma 90.000000
_cell_volume 7012.324849
_symmetry_space_group_name_H-M "I M M M"
_symmetry_group_IT_number 71
_symmetry_cell_setting 'orthorhombic'
loop_
_space_group_symop_operation_xyz
x,y,z
-x,-y,z
x,-y,-z
-x,y,-z
-x,-y,-z
x,y,-z
-x,y,z
x,-y,z
1/2+x,1/2+y,1/2+z
1/2-x,1/2-y,1/2+z
1/2+x,1/2-y,1/2-z
1/2-x,1/2+y,1/2-z
1/2-x,1/2-y,1/2-z
1/2+x,1/2+y,1/2-z
1/2-x,1/2+y,1/2+z
1/2+x,1/2-y,1/2+z
loop_
_atom_site_type_symbol
_atom_site_label
_atom_site_fract_x
_atom_site_fract_y
_atom_site_fract_z
Si Si1 0.834309 0.387171 0.321076
Si Si2 0.564794 0.620873 0.500000
Si Si3 0.069619 0.765246 0.340162
Si Si4 0.852883 0.881172 0.432811
Si Si5 0.853995 0.883860 0.894423
Si Si6 0.930855 0.203162 0.203405
Si Si7 0.855096 0.388058 0.815683
Si Si8 0.245957 0.264336 0.879019
O O1 0.822891 0.500000 0.342744
O O2 0.895591 0.339835 0.343775
O O3 0.838837 0.392433 0.252023
O O4 0.785556 0.304714 0.336878
O O5 0.561716 0.500000 0.500000
O O6 0.500000 0.663361 0.500000
O O7 0.598481 0.647813 0.442010
O O8 0.099936 0.837994 0.386849
O O9 0.077898 0.801780 0.273157
O O10 0.000000 0.755671 0.349844
O O11 0.869464 0.862631 0.500000
O O12 0.791523 0.824917 0.418532
O O13 0.846365 0.000000 0.424968
O O14 0.885020 0.865345 0.832094
O O15 0.797343 0.816816 0.906772
O O16 0.840012 0.000000 0.900490
O O17 0.910818 0.313482 0.182344
O O18 0.000000 0.182727 0.191395
O O19 0.867231 0.500000 0.836434
O O20 0.799028 0.339618 0.847603
#
# Coordination Sequence:
#
# PCOD9519362 Si02
#       8
#    16   8  16  16  16  16  16  16
#     4   9  17  30  49  74 104 135 164 201 252 307
#     4   9  18  32  48  68  97 133 170 203 239 289
#     4   9  19  35  54  77 104 132 168 212 256 307
#     4  10  22  38  55  75  99 131 171 214 261 307
#     4  10  20  32  50  76 104 135 170 207 250 301
#     4   9  18  32  50  76 106 136 170 209 255 304
#     4   9  17  29  47  72 101 135 171 207 251 301
#     4  10  19  32  50  71 101 129 169 209 256 297
#
# _framework density 17.112727
#
# number of rings (size 3 to 8) (size 9 to 14) (size 15 to 20)
#    0.000    2.600    0.000    1.600    0.933    3.467 
#    0.000    4.667    0.000    3.600    0.000    3.733 
#    0.000    5.600    0.000    0.000    0.000    0.000 
#
# Total GULP energy -334074.934111 kJ/mol
# GULP energy per Si atom -5567.915569 kJ/mol
# Density = 1.707378 g / cm^3
# Si number density = 17.112727 Si / 1000 Ang^3
#
#
#
# Elastic Constant Matrix: (Units=GPa)
#
#
# Indices 1 2 3 4 5 6 
#
# 1 75.5322 10.9811 17.8715 0.0000 0.0000 0.0000
# 2 10.9811 76.9849 19.0930 0.0000 0.0000 0.0000
# 3 17.8715 19.0930 44.3892 0.0000 0.0000 0.0000
# 4 0.0000 0.0000 0.0000 21.0856 0.0000 0.0000
# 5 0.0000 0.0000 0.0000 0.0000 9.3189 0.0000
# 6 0.0000 0.0000 0.0000 0.0000 0.0000 17.3960
#
#
#
# Elastic Compliance Matrix: (Units=1/GPa)
#
#
# Indices 1 2 3 4 5 6 
#
# 1 0.014667 -0.000703 -0.005603 0.000000 0.000000 0.000000
# 2 -0.000703 0.014574 -0.005986 0.000000 0.000000 0.000000
# 3 -0.005603 -0.005986 0.027359 0.000000 0.000000 0.000000
# 4 0.000000 0.000000 0.000000 0.047426 0.000000 0.000000
# 5 0.000000 0.000000 0.000000 0.000000 0.107309 0.000000
# 6 0.000000 0.000000 0.000000 0.000000 0.000000 0.057485
#
#
# Mechanical properties :
#
#
# Convention : Reuss Voigt Hill
#
# Bulk Modulus (GPa) = 31.23327 32.53305 31.88316
# Shear Modulus (GPa) = 16.44331 19.49080 17.96706
#
# Velocity S-wave (km/s) = 3.10317 3.37852 3.24377
# Velocity P-wave (km/s) = 5.57949 5.85418 5.71849
#
# Compressibility (1/GPa) = 0.03201714
#
# Stress axis : x y z
#
# Youngs Moduli (GPa) = 68.17925 68.61374 36.55170
#
# Poissons Ratio (x) = 0.04820 0.20480
# Poissons Ratio (y) = 0.04790 0.21880
# Poissons Ratio (z) = 0.38201 0.41072
#
# Static dielectric constant tensor:
#      x y z
#    x 1.585600 0.000000 0.000000 
#    y 0.000000 1.592370 0.000000 
#    z 0.000000 0.000000 1.579110 
# 
# From -- ./inp_files/27711.got.cif
#   From: 2010.05.17/outbox.cif.g08.bks.cpg/sg71_14_cif.got.tgz:27711.got - 2010.06.03 16:22:01.
