data_PCOD9519044
_publ_section_title
;
Structure prediction by ZEFSAII (Michael W. Deem and Ramdas Pophale) SiO2 
 PCOD9519044
Probable space group: I M M M
;
_chemical_formula_sum "Si O2"
_cell_formula_units_Z 88
_cell_length_a 31.753245
_cell_length_b 8.066922
_cell_length_c 18.861616
_cell_angle_alpha 90.000000
_cell_angle_beta 90.000000
_cell_angle_gamma 90.000000
_cell_volume 4831.420869
_symmetry_space_group_name_H-M "I M M M"
_symmetry_group_IT_number 71
_symmetry_cell_setting 'orthorhombic'
loop_
_space_group_symop_operation_xyz
x,y,z
-x,-y,z
x,-y,-z
-x,y,-z
-x,-y,-z
x,y,-z
-x,y,z
x,-y,z
1/2+x,1/2+y,1/2+z
1/2-x,1/2-y,1/2+z
1/2+x,1/2-y,1/2-z
1/2-x,1/2+y,1/2-z
1/2-x,1/2-y,1/2-z
1/2+x,1/2+y,1/2-z
1/2-x,1/2+y,1/2+z
1/2+x,1/2-y,1/2+z
loop_
_atom_site_type_symbol
_atom_site_label
_atom_site_fract_x
_atom_site_fract_y
_atom_site_fract_z
Si Si1 0.809195 0.500000 0.413561
Si Si2 0.952997 0.693717 0.692863
Si Si3 0.500000 0.699763 0.416795
Si Si4 0.165771 0.194299 0.918343
Si Si5 0.906875 0.500000 0.415878
Si Si6 0.743966 0.682793 0.913591
Si Si7 0.415606 0.803183 0.335407
O O1 0.808132 0.500000 0.500000
O O2 0.858153 0.500000 0.393557
O O3 0.785029 0.665324 0.389360
O O4 0.958293 0.500000 0.715864
O O5 0.929481 0.661520 0.618702
O O6 0.925248 0.764882 0.756277
O O7 0.000000 0.765510 0.687050
O O8 0.500000 0.500000 0.410106
O O9 0.500000 0.741579 0.500000
O O10 0.458193 0.768881 0.379453
O O11 0.207452 0.288748 0.892847
O O12 0.124522 0.221656 0.872122
O O13 0.176834 0.000000 0.919411
O O14 0.156781 0.244962 0.000000
O O15 0.910522 0.500000 0.500000
O O16 0.729498 0.500000 0.891513
O O17 0.743790 0.687770 0.000000
O O18 0.407040 0.000000 0.334461
#
# Coordination Sequence:
#
# PCOD9519044 Si02
#       7
#     8  16   8  16   8  16  16
#     4   9  16  29  50  83 114 137 174 223 284 342
#     4   8  16  31  50  76 105 137 169 213 265 336
#     4  11  23  35  47  69 103 144 190 238 275 307
#     4  10  19  31  47  73 108 145 194 242 267 303
#     4   9  17  30  57  88 108 132 165 218 281 337
#     4   9  16  28  48  75 109 147 183 224 277 328
#     4  11  20  32  50  71 101 143 180 226 274 319
#
# _framework density 18.214103000000001
#
# number of rings (size 3 to 8) (size 9 to 14) (size 15 to 20)
#    0.545    1.909    1.818    1.909    0.000    4.727 
#    0.000    0.000    0.000    3.273    0.000    0.000 
#    0.000    0.727    0.000    0.364    0.000    0.000 
#
# Total GULP energy -244952.089463 kJ/mol
# GULP energy per Si atom -5567.092942 kJ/mol
# Density = 1.817265 g / cm^3
# Si number density = 18.214103 Si / 1000 Ang^3
#
#
#
# Elastic Constant Matrix: (Units=GPa)
#
#
# Indices 1 2 3 4 5 6 
#
# 1 94.9891 26.3088 35.3224 0.0000 0.0000 0.0000
# 2 26.3088 66.7705 8.1949 0.0000 0.0000 0.0000
# 3 35.3224 8.1949 71.6605 0.0000 0.0000 0.0000
# 4 0.0000 0.0000 0.0000 2.2965 0.0000 0.0000
# 5 0.0000 0.0000 0.0000 0.0000 -36.4599 0.0000
# 6 0.0000 0.0000 0.0000 0.0000 0.0000 11.3736
#
#
#
# Elastic Compliance Matrix: (Units=1/GPa)
#
#
# Indices 1 2 3 4 5 6 
#
# 1 0.014277 -0.004829 -0.006485 0.000000 0.000000 0.000000
# 2 -0.004829 0.016823 0.000457 0.000000 0.000000 0.000000
# 3 -0.006485 0.000457 0.017099 0.000000 0.000000 0.000000
# 4 0.000000 0.000000 0.000000 0.435440 0.000000 0.000000
# 5 0.000000 0.000000 0.000000 0.000000 -0.027427 0.000000
# 6 0.000000 0.000000 0.000000 0.000000 0.000000 0.087923
#
#
# Mechanical properties :
#
#
# Convention : Reuss Voigt Hill
#
# Bulk Modulus (GPa) = 37.75902 41.45251 39.60576
# Shear Modulus (GPa) = 8.70054 6.34832 7.52443
#
# Velocity S-wave (km/s) = 2.18796 1.86894 2.03472
# Velocity P-wave (km/s) = 5.21139 5.24072 5.22607
#
# Compressibility (1/GPa) = 0.02648374
#
# Stress axis : x y z
#
# Youngs Moduli (GPa) = 70.04511 59.44074 58.48319
#
# Poissons Ratio (x) = 0.28706 0.37925
# Poissons Ratio (y) = 0.33827 -0.02670
# Poissons Ratio (z) = 0.45423 -0.02714
#
# Static dielectric constant tensor:
#      x y z
#    x 1.617020 0.000000 0.000000 
#    y 0.000000 1.640670 0.000000 
#    z 0.000000 0.000000 1.634980 
# 
# From -- ./inp_files/56608.got.cif
#   From: 2010.05.17/outbox.cif.g08.bks.cpg/sg71_29_cif.got.tgz:56608.got - 2010.06.03 16:22:01.
