data_PCOD9519260
_publ_section_title
;
Structure prediction by ZEFSAII (Michael W. Deem and Ramdas Pophale) SiO2 
 PCOD9519260
Probable space group: I M M M
;
_chemical_formula_sum "Si O2"
_cell_formula_units_Z 72
_cell_length_a 17.985104
_cell_length_b 11.312803
_cell_length_c 15.397532
_cell_angle_alpha 90.000000
_cell_angle_beta 90.000000
_cell_angle_gamma 90.000000
_cell_volume 3132.811709
_symmetry_space_group_name_H-M "I M M M"
_symmetry_group_IT_number 71
_symmetry_cell_setting 'orthorhombic'
loop_
_space_group_symop_operation_xyz
x,y,z
-x,-y,z
x,-y,-z
-x,y,-z
-x,-y,-z
x,y,-z
-x,y,z
x,-y,z
1/2+x,1/2+y,1/2+z
1/2-x,1/2-y,1/2+z
1/2+x,1/2-y,1/2-z
1/2-x,1/2+y,1/2-z
1/2-x,1/2-y,1/2-z
1/2+x,1/2+y,1/2-z
1/2-x,1/2+y,1/2+z
1/2+x,1/2-y,1/2+z
loop_
_atom_site_type_symbol
_atom_site_label
_atom_site_fract_x
_atom_site_fract_y
_atom_site_fract_z
Si Si1 0.717489 0.134247 0.894276
Si Si2 0.850850 0.500000 0.105496
Si Si3 0.325653 0.500000 0.857229
Si Si4 0.917037 0.231380 0.398819
Si Si5 0.581258 0.500000 0.310367
Si Si6 0.629511 0.258824 0.395244
O O1 0.637759 0.172215 0.857935
O O2 0.784616 0.218593 0.867969
O O3 0.734531 0.000000 0.872609
O O4 0.714981 0.140838 0.000000
O O5 0.762756 0.500000 0.130103
O O6 0.888069 0.624572 0.133030
O O7 0.851572 0.500000 0.000000
O O8 0.367416 0.613704 0.896097
O O9 0.353049 0.500000 0.758682
O O10 0.925988 0.262030 0.500000
O O11 0.000000 0.219702 0.361698
O O12 0.500000 0.500000 0.267450
O O13 0.588040 0.376410 0.362328
O O14 0.624794 0.261657 0.500000
#
# Coordination Sequence:
#
# PCOD9519260 Si02
#       6
#    16   8   8  16   8  16
#     4   9  16  29  52  81 111 146 191 246 300 351
#     4  10  20  38  68 100 122 148 195 256 310 360
#     4  12  22  36  58  83 125 159 198 238 290 361
#     4  10  19  31  51  80 116 159 202 246 295 349
#     4  12  27  42  60  87 124 168 207 247 299 361
#     4  10  20  39  65  91 116 148 199 261 312 359
#
# _framework density 22.982548999999999
#
# number of rings (size 3 to 8) (size 9 to 14) (size 15 to 20)
#    0.000    1.778    3.333    2.333    0.000    3.111 
#    0.000    2.778    0.000    2.000    0.000    0.000 
#    0.000    0.000    0.000    0.000    0.000    0.000 
#
# Total GULP energy -200860.990416 kJ/mol
# GULP energy per Si atom -5579.471956 kJ/mol
# Density = 2.293024 g / cm^3
# Si number density = 22.982549 Si / 1000 Ang^3
#
#
#
# Elastic Constant Matrix: (Units=GPa)
#
#
# Indices 1 2 3 4 5 6 
#
# 1 61.3824 16.4422 8.2768 0.0000 0.0000 0.0000
# 2 16.4422 159.0037 18.8121 0.0000 0.0000 0.0000
# 3 8.2768 18.8121 39.4279 0.0000 0.0000 0.0000
# 4 0.0000 0.0000 0.0000 31.6729 0.0000 0.0000
# 5 0.0000 0.0000 0.0000 0.0000 7.3663 0.0000
# 6 0.0000 0.0000 0.0000 0.0000 0.0000 -77.8864
#
#
#
# Elastic Compliance Matrix: (Units=1/GPa)
#
#
# Indices 1 2 3 4 5 6 
#
# 1 0.017064 -0.001421 -0.002904 0.000000 0.000000 0.000000
# 2 -0.001421 0.006784 -0.002938 0.000000 0.000000 0.000000
# 3 -0.002904 -0.002938 0.027374 0.000000 0.000000 0.000000
# 4 0.000000 0.000000 0.000000 0.031573 0.000000 0.000000
# 5 0.000000 0.000000 0.000000 0.000000 0.135753 0.000000
# 6 0.000000 0.000000 0.000000 0.000000 0.000000 -0.012839
#
#
# Mechanical properties :
#
#
# Convention : Reuss Voigt Hill
#
# Bulk Modulus (GPa) = 27.25177 38.54179 32.89678
# Shear Modulus (GPa) = 21.50849 6.64942 14.07895
#
# Velocity S-wave (km/s) = 3.06251 1.70280 2.47775
# Velocity P-wave (km/s) = 4.93848 4.54670 4.74663
#
# Compressibility (1/GPa) = 0.03669487
#
# Stress axis : x y z
#
# Youngs Moduli (GPa) = 58.60455 147.41116 36.53053
#
# Poissons Ratio (x) = 0.20946 0.10609
# Poissons Ratio (y) = 0.08327 0.10734
# Poissons Ratio (z) = 0.17019 0.43316
#
# Static dielectric constant tensor:
#      x y z
#    x 1.856870 0.000000 0.000000 
#    y 0.000000 1.897050 0.000000 
#    z 0.000000 0.000000 1.895020 
# 
# From -- ./inp_files/45697.got.cif
#   From: 2010.05.17/outbox.cif.g08.bks.cpg/sg71_23_cif.got.tgz:45697.got - 2010.06.03 16:22:01.
