data_PCOD9519574
_publ_section_title
;
Structure prediction by ZEFSAII (Michael W. Deem and Ramdas Pophale) SiO2 
 PCOD9519574
Probable space group: I M M M
;
_chemical_formula_sum "Si O2"
_cell_formula_units_Z 64
_cell_length_a 14.650184
_cell_length_b 14.576086
_cell_length_c 16.038421
_cell_angle_alpha 90.000000
_cell_angle_beta 90.000000
_cell_angle_gamma 90.000000
_cell_volume 3424.881981
_symmetry_space_group_name_H-M "I M M M"
_symmetry_group_IT_number 71
_symmetry_cell_setting 'orthorhombic'
loop_
_space_group_symop_operation_xyz
x,y,z
-x,-y,z
x,-y,-z
-x,y,-z
-x,-y,-z
x,y,-z
-x,y,z
x,-y,z
1/2+x,1/2+y,1/2+z
1/2-x,1/2-y,1/2+z
1/2+x,1/2-y,1/2-z
1/2-x,1/2+y,1/2-z
1/2-x,1/2-y,1/2-z
1/2+x,1/2+y,1/2-z
1/2-x,1/2+y,1/2+z
1/2+x,1/2-y,1/2+z
loop_
_atom_site_type_symbol
_atom_site_label
_atom_site_fract_x
_atom_site_fract_y
_atom_site_fract_z
Si Si1 0.789251 0.109110 0.759546
Si Si2 0.392624 0.289408 0.406221
Si Si3 0.393253 0.388595 0.907317
Si Si4 0.896265 0.395389 0.818850
O O1 0.834024 0.160693 0.836252
O O2 0.834344 0.140994 0.671934
O O3 0.681085 0.122957 0.749531
O O4 0.806426 0.000000 0.767745
O O5 0.365095 0.312696 0.500000
O O6 0.500000 0.313411 0.395675
O O7 0.385757 0.180415 0.390026
O O8 0.500000 0.364110 0.896044
O O9 0.389068 0.500000 0.908414
O O10 0.363716 0.357155 0.000000
O O11 0.882065 0.500000 0.848879
O O12 0.000000 0.388104 0.786934
#
# Coordination Sequence:
#
# PCOD9519574 Si02
#       4
#    16  16  16  16
#     4  10  19  32  53  78 106 141 175 212 263 319
#     4  10  21  35  52  78 111 144 177 213 256 313
#     4   8  14  25  42  67  99 132 167 208 254 305
#     4   9  19  36  56  76  99 133 180 230 273 307
#
# _framework density 18.686775000000001
#
# number of rings (size 3 to 8) (size 9 to 14) (size 15 to 20)
#    0.000    2.750    0.000    2.250    0.000    3.500 
#    0.000    6.250    0.000    0.750    0.000    3.500 
#    0.000    0.000    0.000    0.000    0.000    0.500 
#
# Total GULP energy -178443.265671 kJ/mol
# GULP energy per Si atom -5576.352052 kJ/mol
# Density = 1.864424 g / cm^3
# Si number density = 18.686775 Si / 1000 Ang^3
#
#
#
# Elastic Constant Matrix: (Units=GPa)
#
#
# Indices 1 2 3 4 5 6 
#
# 1 85.8440 35.9874 80.3108 0.0000 0.0000 0.0000
# 2 35.9874 46.5795 46.8895 0.0000 0.0000 0.0000
# 3 80.3108 46.8895 148.9161 0.0000 0.0000 0.0000
# 4 0.0000 0.0000 0.0000 11.8952 0.0000 0.0000
# 5 0.0000 0.0000 0.0000 0.0000 11.4600 0.0000
# 6 0.0000 0.0000 0.0000 0.0000 0.0000 18.3144
#
#
#
# Elastic Compliance Matrix: (Units=1/GPa)
#
#
# Indices 1 2 3 4 5 6 
#
# 1 0.025685 -0.008638 -0.011132 0.000000 0.000000 0.000000
# 2 -0.008638 0.034336 -0.006153 0.000000 0.000000 0.000000
# 3 -0.011132 -0.006153 0.014656 0.000000 0.000000 0.000000
# 4 0.000000 0.000000 0.000000 0.084067 0.000000 0.000000
# 5 0.000000 0.000000 0.000000 0.000000 0.087260 0.000000
# 6 0.000000 0.000000 0.000000 0.000000 0.000000 0.054602
#
#
# Mechanical properties :
#
#
# Convention : Reuss Voigt Hill
#
# Bulk Modulus (GPa) = 43.79980 67.52388 55.66184
# Shear Modulus (GPa) = 13.88648 16.21074 15.04861
#
# Velocity S-wave (km/s) = 2.72898 2.94853 2.84087
# Velocity P-wave (km/s) = 5.78097 6.91410 6.37277
#
# Compressibility (1/GPa) = 0.02283115
#
# Stress axis : x y z
#
# Youngs Moduli (GPa) = 38.93380 29.12362 68.23098
#
# Poissons Ratio (x) = 0.25157 0.75954
# Poissons Ratio (y) = 0.33631 0.41983
# Poissons Ratio (z) = 0.43341 0.17920
#
# Static dielectric constant tensor:
#      x y z
#    x 1.675300 0.000000 0.000000 
#    y 0.000000 1.668590 0.000000 
#    z 0.000000 0.000000 1.612780 
# 
# From -- ./inp_files/21235.got.cif
#   From: 2010.05.17/outbox.cif.g08.bks.cpg/sg71_11_cif.got.tgz:21235.got - 2010.06.03 16:22:01.
