data_PCOD9519551
_publ_section_title
;
Structure prediction by ZEFSAII (Michael W. Deem and Ramdas Pophale) SiO2 
 PCOD9519551
Probable space group: I M M M
;
_chemical_formula_sum "Si O2"
_cell_formula_units_Z 90
_cell_length_a 23.663993
_cell_length_b 7.721059
_cell_length_c 24.818470
_cell_angle_alpha 90.000000
_cell_angle_beta 90.000000
_cell_angle_gamma 90.000000
_cell_volume 4534.609610
_symmetry_space_group_name_H-M "I M M M"
_symmetry_group_IT_number 71
_symmetry_cell_setting 'orthorhombic'
loop_
_space_group_symop_operation_xyz
x,y,z
-x,-y,z
x,-y,-z
-x,y,-z
-x,-y,-z
x,y,-z
-x,y,z
x,-y,z
1/2+x,1/2+y,1/2+z
1/2-x,1/2-y,1/2+z
1/2+x,1/2-y,1/2-z
1/2-x,1/2+y,1/2-z
1/2-x,1/2-y,1/2-z
1/2+x,1/2+y,1/2-z
1/2-x,1/2+y,1/2+z
1/2+x,1/2-y,1/2+z
loop_
_atom_site_type_symbol
_atom_site_label
_atom_site_fract_x
_atom_site_fract_y
_atom_site_fract_z
Si Si1 0.331183 0.709615 0.871790
Si Si2 0.061769 0.211349 0.437771
Si Si3 0.125207 0.205466 0.142765
Si Si4 0.000000 0.311649 0.113117
Si Si5 0.316339 0.291513 0.248038
Si Si6 0.000000 0.500000 0.000000
Si Si7 0.218601 0.207817 0.938739
O O1 0.332768 0.500000 0.870583
O O2 0.385046 0.773889 0.904669
O O3 0.334851 0.773457 0.810574
O O4 0.273598 0.756476 0.902537
O O5 0.066786 0.263092 0.500000
O O6 0.000000 0.265268 0.417451
O O7 0.062665 0.000000 0.436911
O O8 0.059116 0.229194 0.130968
O O9 0.149339 0.274471 0.199828
O O10 0.163872 0.275423 0.093754
O O11 0.135622 0.000000 0.144360
O O12 0.000000 0.500000 0.140212
O O13 0.000000 0.351432 0.048867
O O14 0.322339 0.500000 0.247806
O O15 0.250000 0.250000 0.250000
O O16 0.213560 0.000000 0.942875
O O17 0.223455 0.275812 0.000000
#
# Coordination Sequence:
#
# PCOD9519551 Si02
#       7
#    16  16  16   8  16   2  16
#     4  10  19  32  52  81 107 136 179 228 276 322
#     4   8  14  26  45  70 102 135 166 206 259 314
#     4  10  21  39  59  81 112 152 192 231 281 353
#     4  10  23  41  61  85 113 146 185 244 296 342
#     4  10  20  35  56  81 109 143 184 225 275 331
#     4   8  24  44  62  88 120 140 190 252 312 356
#     4  10  21  34  52  79 110 145 181 222 275 338
#
# _framework density 19.847353999999999
#
# number of rings (size 3 to 8) (size 9 to 14) (size 15 to 20)
#    0.267    2.133    1.778    1.333    1.244    2.489 
#    1.600    0.444    0.000    0.533    0.000    2.489 
#    0.000    0.000    0.000    0.000    0.000    0.000 
#
# Total GULP energy -250606.086052 kJ/mol
# GULP energy per Si atom -5569.024134 kJ/mol
# Density = 1.980218 g / cm^3
# Si number density = 19.847354 Si / 1000 Ang^3
#
#
#
# Elastic Constant Matrix: (Units=GPa)
#
#
# Indices 1 2 3 4 5 6 
#
# 1 160.6134 -3.9544 95.0074 0.0000 0.0000 0.0000
# 2 -3.9544 27.4280 11.4253 0.0000 0.0000 0.0000
# 3 95.0074 11.4253 172.9222 0.0000 0.0000 0.0000
# 4 0.0000 0.0000 0.0000 14.0538 0.0000 0.0000
# 5 0.0000 0.0000 0.0000 0.0000 23.1442 0.0000
# 6 0.0000 0.0000 0.0000 0.0000 0.0000 23.1317
#
#
#
# Elastic Compliance Matrix: (Units=1/GPa)
#
#
# Indices 1 2 3 4 5 6 
#
# 1 0.009570 0.003671 -0.005501 0.000000 0.000000 0.000000
# 2 0.003671 0.038899 -0.004587 0.000000 0.000000 0.000000
# 3 -0.005501 -0.004587 0.009108 0.000000 0.000000 0.000000
# 4 0.000000 0.000000 0.000000 0.071155 0.000000 0.000000
# 5 0.000000 0.000000 0.000000 0.000000 0.043207 0.000000
# 6 0.000000 0.000000 0.000000 0.000000 0.000000 0.043231
#
#
# Mechanical properties :
#
#
# Convention : Reuss Voigt Hill
#
# Bulk Modulus (GPa) = 22.34923 62.88003 42.61463
# Shear Modulus (GPa) = 20.58299 29.29829 24.94064
#
# Velocity S-wave (km/s) = 3.22384 3.84628 3.54873
# Velocity P-wave (km/s) = 5.01423 7.17466 6.18944
#
# Compressibility (1/GPa) = 0.04474428
#
# Stress axis : x y z
#
# Youngs Moduli (GPa) = 104.48930 25.70751 109.79045
#
# Poissons Ratio (x) = -0.09438 0.60393
# Poissons Ratio (y) = -0.38359 0.50363
# Poissons Ratio (z) = 0.57477 0.11792
#
# Static dielectric constant tensor:
#      x y z
#    x 1.916800 0.000000 0.000000 
#    y 0.000000 1.744710 0.000000 
#    z 0.000000 0.000000 1.629430 
# 
# From -- ./inp_files/55631.got.cif
#   From: 2010.05.17/outbox.cif.g08.bks.cpg/sg71_28_cif.got.tgz:55631.got - 2010.06.03 16:22:01.
