data_PCOD9519992
_publ_section_title
;
Structure prediction by ZEFSAII (Michael W. Deem and Ramdas Pophale) SiO2 
 PCOD9519992
Probable space group: I M M M
;
_chemical_formula_sum "Si O2"
_cell_formula_units_Z 112
_cell_length_a 15.170394
_cell_length_b 15.606854
_cell_length_c 23.098045
_cell_angle_alpha 90.000000
_cell_angle_beta 90.000000
_cell_angle_gamma 90.000000
_cell_volume 5468.742201
_symmetry_space_group_name_H-M "I M M M"
_symmetry_group_IT_number 71
_symmetry_cell_setting 'orthorhombic'
loop_
_space_group_symop_operation_xyz
x,y,z
-x,-y,z
x,-y,-z
-x,y,-z
-x,-y,-z
x,y,-z
-x,y,z
x,-y,z
1/2+x,1/2+y,1/2+z
1/2-x,1/2-y,1/2+z
1/2+x,1/2-y,1/2-z
1/2-x,1/2+y,1/2-z
1/2-x,1/2-y,1/2-z
1/2+x,1/2+y,1/2-z
1/2-x,1/2+y,1/2+z
1/2+x,1/2-y,1/2+z
loop_
_atom_site_type_symbol
_atom_site_label
_atom_site_fract_x
_atom_site_fract_y
_atom_site_fract_z
Si Si1 0.827700 0.269202 0.566076
Si Si2 0.258873 0.903704 0.243332
Si Si3 0.595238 0.096359 0.854800
Si Si4 0.165018 0.902123 0.935780
Si Si5 0.100144 0.634621 0.842783
Si Si6 0.260944 0.095693 0.430594
Si Si7 0.596353 0.334670 0.682703
O O1 0.856901 0.258008 0.500000
O O2 0.896478 0.325172 0.601613
O O3 0.741640 0.331026 0.566018
O O4 0.798668 0.176171 0.589771
O O5 0.324451 0.895468 0.188981
O O6 0.324113 0.891960 0.297213
O O7 0.174934 0.845597 0.228925
O O8 0.223371 0.000000 0.245218
O O9 0.500000 0.101044 0.824379
O O10 0.600040 0.000000 0.881047
O O11 0.112011 0.888167 0.876448
O O12 0.199438 0.000000 0.934114
O O13 0.121372 0.892662 0.000000
O O14 0.142184 0.607506 0.903646
O O15 0.096445 0.736745 0.837839
O O16 0.000000 0.602642 0.833151
O O17 0.264887 0.101854 0.500000
O O18 0.228598 0.000000 0.415155
O O19 0.500000 0.355613 0.707118
#
# Coordination Sequence:
#
# PCOD9519992 Si02
#       7
#    16  16  16  16  16  16  16
#     4  10  19  34  55  82 117 155 196 242 292 345
#     4  11  22  38  58  82 118 157 194 243 294 347
#     4  10  20  34  56  87 121 160 202 242 292 353
#     4  10  19  33  56  85 119 158 195 233 284 350
#     4  11  23  39  61  87 116 154 198 244 297 356
#     4  10  21  38  61  87 115 152 198 246 298 355
#     4  11  23  38  59  87 119 158 202 244 293 355
#
# _framework density 20.480029999999999
#
# number of rings (size 3 to 8) (size 9 to 14) (size 15 to 20)
#    0.000    1.571    2.857    2.143    0.000    4.571 
#    0.000    3.571    0.000    0.429    0.000    2.000 
#    0.000    0.000    0.000    0.000    0.000    0.143 
#
# Total GULP energy -312238.521350 kJ/mol
# GULP energy per Si atom -5575.687881 kJ/mol
# Density = 2.043342 g / cm^3
# Si number density = 20.480030 Si / 1000 Ang^3
#
#
#
# Elastic Constant Matrix: (Units=GPa)
#
#
# Indices 1 2 3 4 5 6 
#
# 1 99.5469 25.4598 15.9599 0.0000 0.0000 0.0000
# 2 25.4598 118.7429 7.8533 0.0000 0.0000 0.0000
# 3 15.9599 7.8533 34.1616 0.0000 0.0000 0.0000
# 4 0.0000 0.0000 0.0000 24.4168 0.0000 0.0000
# 5 0.0000 0.0000 0.0000 0.0000 9.1227 0.0000
# 6 0.0000 0.0000 0.0000 0.0000 0.0000 16.1389
#
#
#
# Elastic Compliance Matrix: (Units=1/GPa)
#
#
# Indices 1 2 3 4 5 6 
#
# 1 0.011360 -0.002117 -0.004821 0.000000 0.000000 0.000000
# 2 -0.002117 0.008946 -0.001068 0.000000 0.000000 0.000000
# 3 -0.004821 -0.001068 0.031770 0.000000 0.000000 0.000000
# 4 0.000000 0.000000 0.000000 0.040955 0.000000 0.000000
# 5 0.000000 0.000000 0.000000 0.000000 0.109617 0.000000
# 6 0.000000 0.000000 0.000000 0.000000 0.000000 0.061962
#
#
# Mechanical properties :
#
#
# Convention : Reuss Voigt Hill
#
# Bulk Modulus (GPa) = 27.72692 38.99971 33.36331
# Shear Modulus (GPa) = 17.08570 23.48090 20.28330
#
# Velocity S-wave (km/s) = 2.89149 3.38971 3.15047
# Velocity P-wave (km/s) = 4.97147 5.86552 5.43691
#
# Compressibility (1/GPa) = 0.03606603
#
# Stress axis : x y z
#
# Youngs Moduli (GPa) = 88.02999 111.78131 31.47608
#
# Poissons Ratio (x) = 0.23662 0.15173
# Poissons Ratio (y) = 0.18635 0.03360
# Poissons Ratio (z) = 0.42435 0.11934
#
# Static dielectric constant tensor:
#      x y z
#    x 1.731000 0.000000 0.000000 
#    y 0.000000 1.756250 0.000000 
#    z 0.000000 0.000000 1.774750 
# 
# From -- ./inp_files/59904.got.cif
#   From: 2010.05.17/outbox.cif.g08.bks.cpg/sg71_30_cif.got.tgz:59904.got - 2010.06.03 16:22:01.
