data_PCOD9519960
_publ_section_title
;
Structure prediction by ZEFSAII (Michael W. Deem and Ramdas Pophale) SiO2 
 PCOD9519960
Probable space group: I M M M
;
_chemical_formula_sum "Si O2"
_cell_formula_units_Z 72
_cell_length_a 8.075828
_cell_length_b 16.668217
_cell_length_c 25.506287
_cell_angle_alpha 90.000000
_cell_angle_beta 90.000000
_cell_angle_gamma 90.000000
_cell_volume 3433.392457
_symmetry_space_group_name_H-M "I M M M"
_symmetry_group_IT_number 71
_symmetry_cell_setting 'orthorhombic'
loop_
_space_group_symop_operation_xyz
x,y,z
-x,-y,z
x,-y,-z
-x,y,-z
-x,-y,-z
x,y,-z
-x,y,z
x,-y,z
1/2+x,1/2+y,1/2+z
1/2-x,1/2-y,1/2+z
1/2+x,1/2-y,1/2-z
1/2-x,1/2+y,1/2-z
1/2-x,1/2-y,1/2-z
1/2+x,1/2+y,1/2-z
1/2-x,1/2+y,1/2+z
1/2+x,1/2-y,1/2+z
loop_
_atom_site_type_symbol
_atom_site_label
_atom_site_fract_x
_atom_site_fract_y
_atom_site_fract_z
Si Si1 0.799014 0.836366 0.274627
Si Si2 0.700226 0.327561 0.559093
Si Si3 0.196459 0.410364 0.000000
Si Si4 0.192127 0.827418 0.607867
Si Si5 0.701709 0.500000 0.404172
Si Si6 0.797804 0.000000 0.216491
O O1 0.750000 0.750000 0.250000
O O2 0.737125 0.846164 0.334695
O O3 0.745077 0.916163 0.243153
O O4 0.000000 0.836530 0.275344
O O5 0.742095 0.302788 0.500000
O O6 0.500000 0.322601 0.564626
O O7 0.781939 0.267249 0.599377
O O8 0.753535 0.418439 0.568228
O O9 0.240216 0.367704 0.054893
O O10 0.269373 0.500000 0.000000
O O11 0.000000 0.415057 0.000000
O O12 0.000000 0.848453 0.609378
O O13 0.500000 0.500000 0.405577
O O14 0.753682 0.500000 0.343958
O O15 0.000000 0.000000 0.217825
#
# Coordination Sequence:
#
# PCOD9519960 Si02
#       6
#    16  16   8  16   8   8
#     4  10  22  39  61  88 119 157 200 244 294 351
#     4  10  19  33  55  83 116 152 194 239 285 342
#     4  11  25  43  63  88 115 150 197 245 296 355
#     4  11  23  38  60  88 120 156 194 239 297 355
#     4   9  17  30  54  84 111 149 195 240 283 332
#     4   9  18  35  57  81 111 150 195 237 287 350
#
# _framework density 20.970510999999998
#
# number of rings (size 3 to 8) (size 9 to 14) (size 15 to 20)
#    0.000    1.889    1.111    2.667    1.556    5.778 
#    0.000    1.111    0.000    5.333    0.000    0.000 
#    0.000    0.000    0.000    0.000    0.000    0.000 
#
# Total GULP energy -200939.602688 kJ/mol
# GULP energy per Si atom -5581.655630 kJ/mol
# Density = 2.092278 g / cm^3
# Si number density = 20.970511 Si / 1000 Ang^3
#
#
#
# Elastic Constant Matrix: (Units=GPa)
#
#
# Indices 1 2 3 4 5 6 
#
# 1 15.6091 0.3399 13.6636 0.0000 0.0000 0.0000
# 2 0.3399 106.0676 31.0760 0.0000 0.0000 0.0000
# 3 13.6636 31.0760 114.5231 0.0000 0.0000 0.0000
# 4 0.0000 0.0000 0.0000 -23.0612 0.0000 0.0000
# 5 0.0000 0.0000 0.0000 0.0000 17.4885 0.0000
# 6 0.0000 0.0000 0.0000 0.0000 0.0000 -8.5823
#
#
#
# Elastic Compliance Matrix: (Units=1/GPa)
#
#
# Indices 1 2 3 4 5 6 
#
# 1 0.072136 0.002488 -0.009282 0.000000 0.000000 0.000000
# 2 0.002488 0.010328 -0.003099 0.000000 0.000000 0.000000
# 3 -0.009282 -0.003099 0.010680 0.000000 0.000000 0.000000
# 4 0.000000 0.000000 0.000000 -0.043363 0.000000 0.000000
# 5 0.000000 0.000000 0.000000 0.000000 0.057180 0.000000
# 6 0.000000 0.000000 0.000000 0.000000 0.000000 -0.116519
#
#
# Mechanical properties :
#
#
# Convention : Reuss Voigt Hill
#
# Bulk Modulus (GPa) = 13.63171 36.26211 24.94691
# Shear Modulus (GPa) = 144.17122 9.91036 77.04079
#
# Velocity S-wave (km/s) = 8.30053 2.17626 6.06774
# Velocity P-wave (km/s) = 9.91865 4.86254 7.81101
#
# Compressibility (1/GPa) = 0.07335836
#
# Stress axis : x y z
#
# Youngs Moduli (GPa) = 13.86277 96.82378 93.63066
#
# Poissons Ratio (x) = -0.24091 0.86904
# Poissons Ratio (y) = -0.03449 0.29020
# Poissons Ratio (z) = 0.12867 0.30009
#
# Static dielectric constant tensor:
#      x y z
#    x 1.766900 0.000000 0.000000 
#    y 0.000000 1.751420 0.000000 
#    z 0.000000 0.000000 1.744890 
# 
# From -- ./inp_files/62890.got.cif
#   From: 2010.05.17/outbox.cif.g08.bks.cpg/sg71_32_cif.got.tgz:62890.got - 2010.06.03 16:22:01.
