data_PCOD9519040
_publ_section_title
;
Structure prediction by ZEFSAII (Michael W. Deem and Ramdas Pophale) SiO2 
 PCOD9519040
Probable space group: I M M M
;
_chemical_formula_sum "Si O2"
_cell_formula_units_Z 96
_cell_length_a 14.417095
_cell_length_b 32.059282
_cell_length_c 13.190510
_cell_angle_alpha 90.000000
_cell_angle_beta 90.000000
_cell_angle_gamma 90.000000
_cell_volume 6096.676334
_symmetry_space_group_name_H-M "I M M M"
_symmetry_group_IT_number 71
_symmetry_cell_setting 'orthorhombic'
loop_
_space_group_symop_operation_xyz
x,y,z
-x,-y,z
x,-y,-z
-x,y,-z
-x,-y,-z
x,y,-z
-x,y,z
x,-y,z
1/2+x,1/2+y,1/2+z
1/2-x,1/2-y,1/2+z
1/2+x,1/2-y,1/2-z
1/2-x,1/2+y,1/2-z
1/2-x,1/2-y,1/2-z
1/2+x,1/2+y,1/2-z
1/2-x,1/2+y,1/2+z
1/2+x,1/2-y,1/2+z
loop_
_atom_site_type_symbol
_atom_site_label
_atom_site_fract_x
_atom_site_fract_y
_atom_site_fract_z
Si Si1 0.887761 0.548694 0.500000
Si Si2 0.394045 0.213046 0.885761
Si Si3 0.889842 0.263406 0.109327
Si Si4 0.793702 0.336908 0.217135
Si Si5 0.607236 0.298925 0.204580
Si Si6 0.612430 0.076709 0.770512
Si Si7 0.111965 0.500000 0.880395
O O1 0.860017 0.500000 0.500000
O O2 0.860679 0.567772 0.610665
O O3 0.000000 0.550102 0.500000
O O4 0.500000 0.206428 0.846187
O O5 0.322482 0.188037 0.818761
O O6 0.378414 0.262710 0.879115
O O7 0.391284 0.198466 0.000000
O O8 0.840168 0.306795 0.133739
O O9 0.874432 0.228710 0.194525
O O10 0.000000 0.270978 0.108691
O O11 0.859850 0.247461 0.000000
O O12 0.683777 0.334518 0.200075
O O13 0.838392 0.381860 0.229379
O O14 0.500000 0.312307 0.202811
O O15 0.500000 0.081499 0.769868
O O16 0.636253 0.039710 0.690992
O O17 0.000000 0.500000 0.886635
O O18 0.144300 0.500000 0.000000
#
# Coordination Sequence:
#
# PCOD9519040 Si02
#       7
#     8  16  16  16  16  16   8
#     4   9  16  30  50  68  93 127 147 171 218 282
#     4   9  17  29  45  66  92 120 151 191 237 278
#     4   9  17  30  46  63  89 125 158 189 230 279
#     4  11  20  28  44  69  93 118 154 196 233 267
#     4   9  19  33  44  59  87 124 165 200 229 265
#     4  10  19  31  47  71  98 121 149 181 225 278
#     4   9  18  33  51  69  96 129 149 168 211 279
#
# _framework density 15.746285
#
# number of rings (size 3 to 8) (size 9 to 14) (size 15 to 20)
#    0.000    2.500    0.833    4.500    1.167    3.333 
#    0.000    1.667    0.000    0.000    0.000    0.583 
#    0.000    1.333    0.000    0.000    0.000    0.000 
#
# Total GULP energy -267206.218888 kJ/mol
# GULP energy per Si atom -5566.796227 kJ/mol
# Density = 1.571045 g / cm^3
# Si number density = 15.746285 Si / 1000 Ang^3
#
#
#
# Elastic Constant Matrix: (Units=GPa)
#
#
# Indices 1 2 3 4 5 6 
#
# 1 59.6342 41.0933 4.7856 0.0001 0.0000 0.0000
# 2 41.0933 58.7666 1.6116 -0.0002 0.0000 0.0000
# 3 4.7856 1.6116 65.5236 0.0005 0.0001 0.0000
# 4 0.0001 -0.0002 0.0005 -0.3561 0.0000 0.0000
# 5 0.0000 0.0000 0.0001 0.0000 3.5535 0.0000
# 6 0.0000 0.0000 0.0000 0.0000 0.0000 15.7249
#
#
#
# Elastic Compliance Matrix: (Units=1/GPa)
#
#
# Indices 1 2 3 4 5 6 
#
# 1 0.032579 -0.022731 -0.001820 0.000017 0.000000 0.000000
# 2 -0.022731 0.032888 0.000851 -0.000021 0.000000 0.000000
# 3 -0.001820 0.000851 0.015374 0.000019 -0.000001 0.000000
# 4 0.000017 -0.000021 0.000019 -2.808351 0.000016 -0.000002
# 5 0.000000 0.000000 -0.000001 0.000016 0.281412 0.000001
# 6 0.000000 0.000000 0.000000 -0.000002 0.000001 0.063593
#
#
# Mechanical properties :
#
#
# Convention : Reuss Voigt Hill
#
# Bulk Modulus (GPa) = 29.90414 30.98947 30.44681
# Shear Modulus (GPa) = -2.15150 12.88006 5.36428
#
# Velocity S-wave (km/s) = -1.17018 2.86313 1.84773
# Velocity P-wave (km/s) = 4.14810 5.53654 4.89183
#
# Compressibility (1/GPa) = 0.03344018
#
# Stress axis : x y z
#
# Youngs Moduli (GPa) = 30.69482 30.40606 65.04617
#
# Poissons Ratio (x) = 0.69117 0.11841
# Poissons Ratio (y) = 0.69773 -0.05537
# Poissons Ratio (z) = 0.05588 -0.02588
#
# Static dielectric constant tensor:
#      x y z
#    x 1.540590 0.000000 0.000000 
#    y 0.000000 1.520450 0.000000 
#    z 0.000000 0.000000 1.588980 
# 
# From -- ./inp_files/35064.got.cif
#   From: 2010.05.17/outbox.cif.g08.bks.cpg/sg71_18_cif.got.tgz:35064.got - 2010.06.03 16:22:01.
