data_PCOD9519597
_publ_section_title
;
Structure prediction by ZEFSAII (Michael W. Deem and Ramdas Pophale) SiO2 
 PCOD9519597
Probable space group: I M M M
;
_chemical_formula_sum "Si O2"
_cell_formula_units_Z 96
_cell_length_a 7.908247
_cell_length_b 22.191961
_cell_length_c 25.320288
_cell_angle_alpha 90.000000
_cell_angle_beta 90.000000
_cell_angle_gamma 90.000000
_cell_volume 4443.698112
_symmetry_space_group_name_H-M "I M M M"
_symmetry_group_IT_number 71
_symmetry_cell_setting 'orthorhombic'
loop_
_space_group_symop_operation_xyz
x,y,z
-x,-y,z
x,-y,-z
-x,y,-z
-x,-y,-z
x,y,-z
-x,y,z
x,-y,z
1/2+x,1/2+y,1/2+z
1/2-x,1/2-y,1/2+z
1/2+x,1/2-y,1/2-z
1/2-x,1/2+y,1/2-z
1/2-x,1/2-y,1/2-z
1/2+x,1/2+y,1/2-z
1/2-x,1/2+y,1/2+z
1/2+x,1/2-y,1/2+z
loop_
_atom_site_type_symbol
_atom_site_label
_atom_site_fract_x
_atom_site_fract_y
_atom_site_fract_z
Si Si1 0.690435 0.180479 0.756453
Si Si2 0.205683 0.831059 0.359984
Si Si3 0.206189 0.932084 0.441024
Si Si4 0.801408 0.091917 0.057754
Si Si5 0.295985 0.229902 0.941345
Si Si6 0.297091 0.434175 0.673979
O O1 0.500000 0.186116 0.774887
O O2 0.750000 0.250000 0.750000
O O3 0.713056 0.159258 0.696457
O O4 0.762551 0.127393 0.793732
O O5 0.258760 0.884761 0.398096
O O6 0.254778 0.770584 0.391718
O O7 0.000000 0.830609 0.354154
O O8 0.261949 0.916147 0.500000
O O9 0.000000 0.931379 0.441627
O O10 0.259570 0.000000 0.429384
O O11 0.784418 0.164240 0.060647
O O12 0.730021 0.069706 0.113593
O O13 0.000000 0.075702 0.056751
O O14 0.729562 0.073920 0.000000
O O15 0.500000 0.223760 0.939045
O O16 0.257835 0.256348 0.000000
O O17 0.500000 0.436262 0.670781
O O18 0.241378 0.500000 0.696433
#
# Coordination Sequence:
#
# PCOD9519597 Si02
#       6
#    16  16  16  16  16  16
#     4  12  26  43  62  84 114 153 199 250 299 348
#     4  10  19  32  53  80 108 142 187 237 287 340
#     4   8  14  26  47  77 111 145 182 225 273 329
#     4   9  18  33  55  84 115 145 178 219 271 334
#     4   9  17  29  48  77 112 147 183 228 281 335
#     4  10  22  41  64  89 119 155 194 237 287 346
#
# _framework density 21.603626999999999
#
# number of rings (size 3 to 8) (size 9 to 14) (size 15 to 20)
#    0.000    2.333    0.000    3.500    0.000    7.333 
#    0.000    3.333    0.000    1.500    0.000    4.667 
#    0.000    0.000    0.000    0.000    0.000    0.000 
#
# Total GULP energy -267622.758276 kJ/mol
# GULP energy per Si atom -5575.474131 kJ/mol
# Density = 2.155446 g / cm^3
# Si number density = 21.603627 Si / 1000 Ang^3
#
#
#
# Elastic Constant Matrix: (Units=GPa)
#
#
# Indices 1 2 3 4 5 6 
#
# 1 26.9743 16.3615 5.4570 0.0000 0.0000 0.0000
# 2 16.3615 144.2775 85.1191 0.0000 0.0000 0.0000
# 3 5.4570 85.1191 113.3776 0.0001 0.0000 0.0000
# 4 0.0000 0.0000 0.0001 608.9596 0.0000 0.0000
# 5 0.0000 0.0000 0.0000 0.0000 6.9102 0.0000
# 6 0.0000 0.0000 0.0000 0.0000 0.0000 9.6889
#
#
#
# Elastic Compliance Matrix: (Units=1/GPa)
#
#
# Indices 1 2 3 4 5 6 
#
# 1 0.040257 -0.006143 0.002674 0.000000 0.000000 0.000000
# 2 -0.006143 0.013379 -0.009749 0.000000 0.000000 0.000000
# 3 0.002674 -0.009749 0.016010 0.000000 0.000000 0.000000
# 4 0.000000 0.000000 0.000000 0.001642 0.000000 0.000000
# 5 0.000000 0.000000 0.000000 0.000000 0.144714 0.000000
# 6 0.000000 0.000000 0.000000 0.000000 0.000000 0.103211
#
#
# Mechanical properties :
#
#
# Convention : Reuss Voigt Hill
#
# Bulk Modulus (GPa) = 23.14185 55.38940 39.26562
# Shear Modulus (GPa) = 13.88681 136.95783 75.42232
#
# Velocity S-wave (km/s) = 2.53810 7.97078 5.91504
# Velocity P-wave (km/s) = 4.39597 10.50742 8.05389
#
# Compressibility (1/GPa) = 0.04321177
#
# Stress axis : x y z
#
# Youngs Moduli (GPa) = 24.84015 74.74240 62.45918
#
# Poissons Ratio (x) = 0.45915 -0.16703
# Poissons Ratio (y) = 0.15259 0.60891
# Poissons Ratio (z) = -0.06643 0.72866
#
# Static dielectric constant tensor:
#      x y z
#    x 1.804330 0.000000 0.000000 
#    y 0.000000 1.845040 0.000000 
#    z 0.000000 0.000000 1.820780 
# 
# From -- ./inp_files/63214.got.cif
#   From: 2010.05.17/outbox.cif.g08.bks.cpg/sg71_32_cif.got.tgz:63214.got - 2010.06.03 16:22:01.
