data_PCOD9519123
_publ_section_title
;
Structure prediction by ZEFSAII (Michael W. Deem and Ramdas Pophale) SiO2 
 PCOD9519123
Probable space group: I M M M
;
_chemical_formula_sum "Si O2"
_cell_formula_units_Z 80
_cell_length_a 23.897827
_cell_length_b 7.377533
_cell_length_c 20.859759
_cell_angle_alpha 90.000000
_cell_angle_beta 90.000000
_cell_angle_gamma 90.000000
_cell_volume 3677.721683
_symmetry_space_group_name_H-M "I M M M"
_symmetry_group_IT_number 71
_symmetry_cell_setting 'orthorhombic'
loop_
_space_group_symop_operation_xyz
x,y,z
-x,-y,z
x,-y,-z
-x,y,-z
-x,-y,-z
x,y,-z
-x,y,z
x,-y,z
1/2+x,1/2+y,1/2+z
1/2-x,1/2-y,1/2+z
1/2+x,1/2-y,1/2-z
1/2-x,1/2+y,1/2-z
1/2-x,1/2-y,1/2-z
1/2+x,1/2+y,1/2-z
1/2-x,1/2+y,1/2+z
1/2+x,1/2-y,1/2+z
loop_
_atom_site_type_symbol
_atom_site_label
_atom_site_fract_x
_atom_site_fract_y
_atom_site_fract_z
Si Si1 0.063465 0.219424 0.239717
Si Si2 0.875916 0.221215 0.630736
Si Si3 0.064866 0.778572 0.500000
Si Si4 0.246065 0.217343 0.326367
Si Si5 0.564869 0.222259 0.500000
Si Si6 0.638919 0.791108 0.618609
O O1 0.086089 0.275471 0.309011
O O2 0.103774 0.285596 0.183968
O O3 0.000000 0.278715 0.229159
O O4 0.064622 0.000000 0.237932
O O5 0.902722 0.279638 0.563919
O O6 0.812740 0.282379 0.645085
O O7 0.875230 0.000000 0.629992
O O8 0.000000 0.722075 0.500000
O O9 0.064589 0.000000 0.500000
O O10 0.250000 0.250000 0.250000
O O11 0.300544 0.289038 0.363786
O O12 0.246464 0.000000 0.333177
O O13 0.500000 0.281194 0.500000
O O14 0.599812 0.283722 0.437737
O O15 0.562770 0.000000 0.500000
O O16 0.648989 0.000000 0.600105
#
# Coordination Sequence:
#
# PCOD9519123 Si02
#       6
#    16  16   8  16   8  16
#     4  10  19  31  49  73 101 133 168 207 251 297
#     4   9  17  29  46  70 101 133 163 202 251 297
#     4   9  16  27  45  71 103 135 166 203 250 302
#     4  10  19  32  51  75 102 131 166 210 253 296
#     4   9  18  33  50  70 101 133 162 206 255 294
#     4  10  20  33  52  75  98 132 172 208 250 300
#
# _framework density 21.752597000000002
#
# number of rings (size 3 to 8) (size 9 to 14) (size 15 to 20)
#    0.000    2.400    2.000    1.200    0.000    4.400 
#    0.000    4.500    0.000    1.800    0.000    4.200 
#    0.000    4.800    0.000    0.000    0.000    0.000 
#
# Total GULP energy -223473.000649 kJ/mol
# GULP energy per Si atom -5586.825016 kJ/mol
# Density = 2.170309 g / cm^3
# Si number density = 21.752597 Si / 1000 Ang^3
#
#
#
# Elastic Constant Matrix: (Units=GPa)
#
#
# Indices 1 2 3 4 5 6 
#
# 1 164.8268 -0.2020 49.8857 0.0000 0.0000 0.0000
# 2 -0.2020 77.3313 -8.6034 0.0000 0.0000 0.0000
# 3 49.8857 -8.6034 137.4787 0.0000 0.0000 0.0000
# 4 0.0000 0.0000 0.0000 16.4349 0.0000 0.0000
# 5 0.0000 0.0000 0.0000 0.0000 41.8577 0.0000
# 6 0.0000 0.0000 0.0000 0.0000 0.0000 3.2039
#
#
#
# Elastic Compliance Matrix: (Units=1/GPa)
#
#
# Indices 1 2 3 4 5 6 
#
# 1 0.006821 -0.000259 -0.002491 0.000000 0.000000 0.000000
# 2 -0.000259 0.013032 0.000910 0.000000 0.000000 0.000000
# 3 -0.002491 0.000910 0.008235 0.000000 0.000000 0.000000
# 4 0.000000 0.000000 0.000000 0.060846 0.000000 0.000000
# 5 0.000000 0.000000 0.000000 0.000000 0.023890 0.000000
# 6 0.000000 0.000000 0.000000 0.000000 0.000000 0.312115
#
#
# Mechanical properties :
#
#
# Convention : Reuss Voigt Hill
#
# Bulk Modulus (GPa) = 40.97435 51.31082 46.14259
# Shear Modulus (GPa) = 11.44804 34.86974 23.15889
#
# Velocity S-wave (km/s) = 2.29658 4.00811 3.26644
# Velocity P-wave (km/s) = 5.09016 6.71264 5.95690
#
# Compressibility (1/GPa) = 0.02440551
#
# Stress axis : x y z
#
# Youngs Moduli (GPa) = 146.61418 76.73477 121.43697
#
# Poissons Ratio (x) = 0.01990 0.30252
# Poissons Ratio (y) = 0.03802 -0.11046
# Poissons Ratio (z) = 0.36524 -0.06980
#
# Static dielectric constant tensor:
#      x y z
#    x 1.768670 0.000000 0.000000 
#    y 0.000000 1.923750 0.000000 
#    z 0.000000 0.000000 1.726900 
# 
# From -- ./inp_files/25568.got.cif
#   From: 2010.05.17/outbox.cif.g08.bks.cpg/sg71_13_cif.got.tgz:25568.got - 2010.06.03 16:22:01.
