data_PCOD9519008
_publ_section_title
;
Structure prediction by ZEFSAII (Michael W. Deem and Ramdas Pophale) SiO2 
 PCOD9519008
Probable space group: I M M M
;
_chemical_formula_sum "Si O2"
_cell_formula_units_Z 120
_cell_length_a 22.492762
_cell_length_b 22.833379
_cell_length_c 13.237725
_cell_angle_alpha 90.000000
_cell_angle_beta 90.000000
_cell_angle_gamma 90.000000
_cell_volume 6798.707048
_symmetry_space_group_name_H-M "I M M M"
_symmetry_group_IT_number 71
_symmetry_cell_setting 'orthorhombic'
loop_
_space_group_symop_operation_xyz
x,y,z
-x,-y,z
x,-y,-z
-x,y,-z
-x,-y,-z
x,y,-z
-x,y,z
x,-y,z
1/2+x,1/2+y,1/2+z
1/2-x,1/2-y,1/2+z
1/2+x,1/2-y,1/2-z
1/2-x,1/2+y,1/2-z
1/2-x,1/2-y,1/2-z
1/2+x,1/2+y,1/2-z
1/2-x,1/2+y,1/2+z
1/2+x,1/2-y,1/2+z
loop_
_atom_site_type_symbol
_atom_site_label
_atom_site_fract_x
_atom_site_fract_y
_atom_site_fract_z
Si Si1 0.434888 0.183901 0.176342
Si Si2 0.714286 0.069262 0.682037
Si Si3 0.380097 0.838382 0.613917
Si Si4 0.341864 0.097241 0.115160
Si Si5 0.278904 0.737373 0.387274
Si Si6 0.435593 0.000000 0.121413
Si Si7 0.065495 0.179731 0.621057
Si Si8 0.305810 0.333084 0.189728
O O1 0.500000 0.159955 0.141875
O O2 0.425866 0.170942 0.295137
O O3 0.374666 0.159159 0.125834
O O4 0.436148 0.252215 0.152437
O O5 0.657402 0.101982 0.632750
O O6 0.706428 0.081166 0.802200
O O7 0.770315 0.109512 0.653647
O O8 0.717653 0.000000 0.661373
O O9 0.403982 0.837696 0.500000
O O10 0.332085 0.785209 0.623170
O O11 0.396848 0.055723 0.146304
O O12 0.324308 0.086129 0.000000
O O13 0.278971 0.712906 0.500000
O O14 0.288477 0.688008 0.303053
O O15 0.219745 0.776488 0.370782
O O16 0.500000 0.000000 0.168458
O O17 0.440743 0.000000 0.000000
O O18 0.072287 0.175381 0.500000
O O19 0.124642 0.156433 0.674381
O O20 0.000000 0.154772 0.647605
#
# Coordination Sequence:
#
# PCOD9519008 Si02
#       8
#    16  16  16  16  16   8  16  16
#     4  10  19  31  48  73 102 134 171 205 246 304
#     4  10  21  35  51  73  99 133 176 219 260 304
#     4   9  18  33  50  70  99 132 169 212 254 295
#     4  10  19  31  46  70 103 134 168 210 257 304
#     4   9  17  30  50  76 103 132 167 207 255 308
#     4   9  16  26  42  62  91 135 176 205 239 287
#     4  10  20  34  53  78 107 134 160 198 254 319
#     4  10  19  33  51  76 104 135 171 211 259 313
#
# _framework density 17.650414999999999
#
# number of rings (size 3 to 8) (size 9 to 14) (size 15 to 20)
#    0.000    2.333    2.000    1.200    1.867    2.933 
#    0.000    0.000    0.000    0.800    0.000    2.800 
#    0.000    0.000    0.000    2.400    0.000    0.000 
#
# Total GULP energy -334293.693872 kJ/mol
# GULP energy per Si atom -5571.561565 kJ/mol
# Density = 1.761024 g / cm^3
# Si number density = 17.650415 Si / 1000 Ang^3
#
#
#
# Elastic Constant Matrix: (Units=GPa)
#
#
# Indices 1 2 3 4 5 6 
#
# 1 63.4346 7.8167 -12.6960 0.0000 0.0000 0.0000
# 2 7.8167 53.3556 -7.5606 0.0000 0.0000 0.0000
# 3 -12.6960 -7.5606 58.4614 0.0000 0.0000 0.0000
# 4 0.0000 0.0000 0.0000 9.3576 0.0000 0.0000
# 5 0.0000 0.0000 0.0000 0.0000 14.3809 0.0000
# 6 0.0000 0.0000 0.0000 0.0000 0.0000 34.6286
#
#
#
# Elastic Compliance Matrix: (Units=1/GPa)
#
#
# Indices 1 2 3 4 5 6 
#
# 1 0.016681 -0.001966 0.003368 0.000000 0.000000 0.000000
# 2 -0.001966 0.019324 0.002072 0.000000 0.000000 0.000000
# 3 0.003368 0.002072 0.018105 0.000000 0.000000 0.000000
# 4 0.000000 0.000000 0.000000 0.106865 0.000000 0.000000
# 5 0.000000 0.000000 0.000000 0.000000 0.069537 0.000000
# 6 0.000000 0.000000 0.000000 0.000000 0.000000 0.028878
#
#
# Mechanical properties :
#
#
# Convention : Reuss Voigt Hill
#
# Bulk Modulus (GPa) = 16.37817 16.70797 16.54307
# Shear Modulus (GPa) = 18.32887 24.18618 21.25753
#
# Velocity S-wave (km/s) = 3.22598 3.70576 3.47416
# Velocity P-wave (km/s) = 4.81407 5.27227 5.04837
#
# Compressibility (1/GPa) = 0.06105690
#
# Stress axis : x y z
#
# Youngs Moduli (GPa) = 59.94951 51.74942 55.23413
#
# Poissons Ratio (x) = 0.10176 -0.18604
# Poissons Ratio (y) = 0.11789 -0.11445
# Poissons Ratio (z) = -0.20192 -0.10723
#
# Static dielectric constant tensor:
#      x y z
#    x 1.664190 0.000000 0.000000 
#    y 0.000000 3.032730 0.000000 
#    z 0.000000 0.000000 1.628620 
# 
# From -- ./inp_files/38529.got.cif
#   From: 2010.05.17/outbox.cif.g08.bks.cpg/sg71_20_cif.got.tgz:38529.got - 2010.06.03 16:22:01.
