data_PCOD9519291
_publ_section_title
;
Structure prediction by ZEFSAII (Michael W. Deem and Ramdas Pophale) SiO2 
 PCOD9519291
Probable space group: I M M M
;
_chemical_formula_sum "Si O2"
_cell_formula_units_Z 88
_cell_length_a 18.410623
_cell_length_b 29.979565
_cell_length_c 7.686560
_cell_angle_alpha 90.000000
_cell_angle_beta 90.000000
_cell_angle_gamma 90.000000
_cell_volume 4242.538904
_symmetry_space_group_name_H-M "I M M M"
_symmetry_group_IT_number 71
_symmetry_cell_setting 'orthorhombic'
loop_
_space_group_symop_operation_xyz
x,y,z
-x,-y,z
x,-y,-z
-x,y,-z
-x,-y,-z
x,y,-z
-x,y,z
x,-y,z
1/2+x,1/2+y,1/2+z
1/2-x,1/2-y,1/2+z
1/2+x,1/2-y,1/2-z
1/2-x,1/2+y,1/2-z
1/2-x,1/2-y,1/2-z
1/2+x,1/2+y,1/2-z
1/2-x,1/2+y,1/2+z
1/2+x,1/2-y,1/2+z
loop_
_atom_site_type_symbol
_atom_site_label
_atom_site_fract_x
_atom_site_fract_y
_atom_site_fract_z
Si Si1 0.000000 0.449295 0.208214
Si Si2 0.082082 0.115199 0.786777
Si Si3 0.287230 0.448629 0.287132
Si Si4 0.149544 0.205969 0.799550
Si Si5 0.644579 0.104173 0.795010
Si Si6 0.813466 0.300858 0.203374
O O1 0.928070 0.423458 0.264974
O O2 0.000000 0.500000 0.275367
O O3 0.000000 0.450787 0.000000
O O4 0.142190 0.079295 0.732125
O O5 0.105503 0.164514 0.723634
O O6 0.000000 0.104515 0.734960
O O7 0.084267 0.115952 0.000000
O O8 0.286245 0.448943 0.500000
O O9 0.288267 0.500000 0.230553
O O10 0.214509 0.423126 0.228057
O O11 0.147798 0.256202 0.725765
O O12 0.235006 0.193263 0.792150
O O13 0.125527 0.209419 0.000000
O O14 0.642487 0.153715 0.718292
O O15 0.655227 0.110165 0.000000
O O16 0.797682 0.292339 0.000000
#
# Coordination Sequence:
#
# PCOD9519291 Si02
#       6
#     8  16  16  16  16  16
#     4  11  25  43  61  85 117 147 183 235 290 343
#     4   9  16  28  48  75 109 144 179 222 273 325
#     4   9  17  29  49  78 107 137 178 226 270 320
#     4   9  17  32  51  77 108 144 187 229 279 340
#     4  11  21  37  59  81 112 149 187 229 277 340
#     4  10  19  31  53  81 108 142 185 234 284 332
#
# _framework density 20.742296
#
# number of rings (size 3 to 8) (size 9 to 14) (size 15 to 20)
#    0.000    2.273    1.818    1.909    0.000    2.545 
#    1.636    1.818    0.000    0.545    0.000    0.000 
#    0.000    1.455    0.000    0.000    0.000    0.000 
#
# Total GULP energy -245623.836551 kJ/mol
# GULP energy per Si atom -5582.359922 kJ/mol
# Density = 2.069509 g / cm^3
# Si number density = 20.742296 Si / 1000 Ang^3
#
#
#
# Elastic Constant Matrix: (Units=GPa)
#
#
# Indices 1 2 3 4 5 6 
#
# 1 132.8074 82.6232 -4.7695 -0.0001 0.0001 -0.0001
# 2 82.6232 175.7969 0.1206 -0.0001 0.0000 0.0000
# 3 -4.7695 0.1206 41.7248 -0.0003 -0.0014 -0.0002
# 4 -0.0001 -0.0001 -0.0003 10.2646 -0.0004 0.0000
# 5 0.0001 0.0000 -0.0014 -0.0004 7.1589 -0.0001
# 6 -0.0001 0.0000 -0.0002 0.0000 -0.0001 22.5987
#
#
#
# Elastic Compliance Matrix: (Units=1/GPa)
#
#
# Indices 1 2 3 4 5 6 
#
# 1 0.010705 -0.005032 0.001238 0.000000 0.000000 0.000000
# 2 -0.005032 0.008054 -0.000598 0.000000 0.000000 0.000000
# 3 0.001238 -0.000598 0.024110 0.000001 0.000005 0.000000
# 4 0.000000 0.000000 0.000001 0.097422 0.000005 0.000000
# 5 0.000000 0.000000 0.000005 0.000005 0.139685 0.000001
# 6 0.000000 0.000000 0.000000 0.000000 0.000001 0.044250
#
#
# Mechanical properties :
#
#
# Convention : Reuss Voigt Hill
#
# Bulk Modulus (GPa) = 29.33949 56.25309 42.79629
# Shear Modulus (GPa) = 14.51919 26.16145 20.34032
#
# Velocity S-wave (km/s) = 2.64858 3.55528 3.13488
# Velocity P-wave (km/s) = 4.85065 6.63568 5.81210
#
# Compressibility (1/GPa) = 0.03408376
#
# Stress axis : x y z
#
# Youngs Moduli (GPa) = 93.41687 124.16523 41.47690
#
# Poissons Ratio (x) = 0.62480 -0.05136
# Poissons Ratio (y) = 0.47007 0.02482
# Poissons Ratio (z) = -0.11567 0.07431
#
# Static dielectric constant tensor:
#      x y z
#    x 1.679180 0.000000 0.000000 
#    y 0.000000 1.747800 0.000000 
#    z 0.000000 0.000000 1.805440 
# 
# From -- ./inp_files/8818.got.cif
#   From: 2010.05.17/outbox.cif.g08.bks.cpg/sg71_5_cif.got.tgz:8818.got - 2010.06.03 16:22:01.
