data_PCOD9520450
_publ_section_title
;
Structure prediction by ZEFSAII (Michael W. Deem and Ramdas Pophale) SiO2 
 PCOD9520450
Probable space group: I M M M
;
_chemical_formula_sum "Si O2"
_cell_formula_units_Z 96
_cell_length_a 7.958738
_cell_length_b 28.309045
_cell_length_c 23.957468
_cell_angle_alpha 90.000000
_cell_angle_beta 90.000000
_cell_angle_gamma 90.000000
_cell_volume 5397.719891
_symmetry_space_group_name_H-M "I M M M"
_symmetry_group_IT_number 71
_symmetry_cell_setting 'orthorhombic'
loop_
_space_group_symop_operation_xyz
x,y,z
-x,-y,z
x,-y,-z
-x,y,-z
-x,-y,-z
x,y,-z
-x,y,z
x,-y,z
1/2+x,1/2+y,1/2+z
1/2-x,1/2-y,1/2+z
1/2+x,1/2-y,1/2-z
1/2-x,1/2+y,1/2-z
1/2-x,1/2-y,1/2-z
1/2+x,1/2+y,1/2-z
1/2-x,1/2+y,1/2+z
1/2+x,1/2-y,1/2+z
loop_
_atom_site_type_symbol
_atom_site_label
_atom_site_fract_x
_atom_site_fract_y
_atom_site_fract_z
Si Si1 0.298734 0.123307 0.164185
Si Si2 0.303530 0.092246 0.713440
Si Si3 0.202210 0.053953 0.936127
Si Si4 0.796914 0.730591 0.311435
Si Si5 0.000000 0.860855 0.565103
Si Si6 0.500000 0.448075 0.145689
Si Si7 0.812181 0.678281 0.871317
O O1 0.500000 0.126216 0.163166
O O2 0.254823 0.096983 0.221895
O O3 0.248005 0.093131 0.109982
O O4 0.239475 0.177523 0.172862
O O5 0.500000 0.077416 0.709059
O O6 0.167040 0.060599 0.682344
O O7 0.292954 0.143549 0.682683
O O8 0.000000 0.052476 0.937604
O O9 0.259919 0.000000 0.922158
O O10 0.259580 0.064543 0.000000
O O11 0.750000 0.750000 0.250000
O O12 0.714313 0.768369 0.352369
O O13 0.000000 0.732299 0.315672
O O14 0.166366 0.834552 0.586139
O O15 0.000000 0.866411 0.500000
O O16 0.000000 0.910245 0.596971
O O17 0.500000 0.500000 0.122445
O O18 0.000000 0.670367 0.893026
#
# Coordination Sequence:
#
# PCOD9520450 Si02
#       7
#    16  16  16  16   8   8  16
#     4  10  21  34  53  84 114 144 183 230 282 337
#     4   9  19  35  53  81 120 151 180 227 284 346
#     4   9  20  39  58  75 101 141 189 239 282 325
#     4  11  20  32  54  86 120 151 184 230 283 336
#     4  10  22  41  62  82 114 153 194 246 286 334
#     4  10  22  37  58  86 113 150 192 232 292 346
#     4  10  19  36  58  84 116 153 193 227 285 351
#
# _framework density 17.785288000000001
#
# number of rings (size 3 to 8) (size 9 to 14) (size 15 to 20)
#    0.000    2.167    2.500    1.000    1.167    3.500 
#    0.000    3.333    0.000    0.000    0.000    4.667 
#    0.000    0.000    0.000    0.000    0.000    0.000 
#
# Total GULP energy -267595.843693 kJ/mol
# GULP energy per Si atom -5574.913410 kJ/mol
# Density = 1.774481 g / cm^3
# Si number density = 17.785288 Si / 1000 Ang^3
#
#
#
# Elastic Constant Matrix: (Units=GPa)
#
#
# Indices 1 2 3 4 5 6 
#
# 1 72.6141 26.2537 40.6489 0.0000 0.0000 0.0000
# 2 26.2537 96.9626 54.2090 0.0000 0.0000 0.0000
# 3 40.6489 54.2090 114.7287 0.0000 0.0000 0.0000
# 4 0.0000 0.0000 0.0000 13.1742 0.0000 0.0000
# 5 0.0000 0.0000 0.0000 0.0000 11.4579 0.0000
# 6 0.0000 0.0000 0.0000 0.0000 0.0000 13.3844
#
#
#
# Elastic Compliance Matrix: (Units=1/GPa)
#
#
# Indices 1 2 3 4 5 6 
#
# 1 0.017387 -0.001717 -0.005349 0.000000 0.000000 0.000000
# 2 -0.001717 0.014185 -0.006094 0.000000 0.000000 0.000000
# 3 -0.005349 -0.006094 0.013491 0.000000 0.000000 0.000000
# 4 0.000000 0.000000 0.000000 0.075906 0.000000 0.000000
# 5 0.000000 0.000000 0.000000 0.000000 0.087276 0.000000
# 6 0.000000 0.000000 0.000000 0.000000 0.000000 0.074714
#
#
# Mechanical properties :
#
#
# Convention : Reuss Voigt Hill
#
# Bulk Modulus (GPa) = 53.35505 58.50319 55.92912
# Shear Modulus (GPa) = 15.84654 18.48286 17.16470
#
# Velocity S-wave (km/s) = 2.98819 3.22719 3.10999
# Velocity P-wave (km/s) = 6.47845 6.84485 6.66417
#
# Compressibility (1/GPa) = 0.01874237
#
# Stress axis : x y z
#
# Youngs Moduli (GPa) = 57.51587 70.49588 74.12506
#
# Poissons Ratio (x) = 0.12106 0.39647
# Poissons Ratio (y) = 0.09877 0.45172
# Poissons Ratio (z) = 0.30764 0.42960
#
# Static dielectric constant tensor:
#      x y z
#    x 1.558800 0.000000 0.000000 
#    y 0.000000 1.614340 0.000000 
#    z 0.000000 0.000000 1.591130 
# 
# From -- ./inp_files/57786.got.cif
#   From: 2010.05.17/outbox.cif.g08.bks.cpg/sg71_29_cif.got.tgz:57786.got - 2010.06.03 16:22:01.
