data_PCOD9520371
_publ_section_title
;
Structure prediction by ZEFSAII (Michael W. Deem and Ramdas Pophale) SiO2 
 PCOD9520371
Probable space group: I M M M
;
_chemical_formula_sum "Si O2"
_cell_formula_units_Z 88
_cell_length_a 17.660398
_cell_length_b 29.596111
_cell_length_c 9.216635
_cell_angle_alpha 90.000000
_cell_angle_beta 90.000000
_cell_angle_gamma 90.000000
_cell_volume 4817.342482
_symmetry_space_group_name_H-M "I M M M"
_symmetry_group_IT_number 71
_symmetry_cell_setting 'orthorhombic'
loop_
_space_group_symop_operation_xyz
x,y,z
-x,-y,z
x,-y,-z
-x,y,-z
-x,-y,-z
x,y,-z
-x,y,z
x,-y,z
1/2+x,1/2+y,1/2+z
1/2-x,1/2-y,1/2+z
1/2+x,1/2-y,1/2-z
1/2-x,1/2+y,1/2-z
1/2-x,1/2-y,1/2-z
1/2+x,1/2+y,1/2-z
1/2-x,1/2+y,1/2+z
1/2+x,1/2-y,1/2+z
loop_
_atom_site_type_symbol
_atom_site_label
_atom_site_fract_x
_atom_site_fract_y
_atom_site_fract_z
Si Si1 0.000000 0.818292 0.665247
Si Si2 0.587686 0.000000 0.323356
Si Si3 0.645513 0.282290 0.328765
Si Si4 0.655083 0.553279 0.666611
Si Si5 0.694469 0.916498 0.673977
Si Si6 0.500000 0.426428 0.166707
Si Si7 0.205007 0.684665 0.171295
O O1 0.073609 0.801426 0.747715
O O2 0.000000 0.872319 0.663444
O O3 0.000000 0.801859 0.500000
O O4 0.634797 0.955128 0.279547
O O5 0.500000 0.000000 0.274317
O O6 0.585946 0.000000 0.500000
O O7 0.640831 0.290315 0.500000
O O8 0.720226 0.305901 0.264615
O O9 0.652717 0.228292 0.304310
O O10 0.648576 0.569400 0.500000
O O11 0.672274 0.500000 0.664052
O O12 0.724751 0.576374 0.749293
O O13 0.575820 0.559183 0.749578
O O14 0.704570 0.921589 0.500000
O O15 0.670704 0.864613 0.702371
O O16 0.500000 0.442942 0.000000
O O17 0.225960 0.685076 0.000000
#
# Coordination Sequence:
#
# PCOD9520371 Si02
#       7
#     8   8  16  16  16   8  16
#     4  11  23  38  54  77 110 145 181 228 275 321
#     4   9  18  34  57  86 111 136 177 229 278 323
#     4  10  20  35  55  80 110 145 182 223 272 327
#     4  11  23  37  54  80 115 150 185 228 275 326
#     4  10  19  35  59  84 110 144 186 229 275 330
#     4  11  24  38  55  80 110 148 191 233 272 318
#     4   9  19  35  55  82 110 141 180 226 272 321
#
# _framework density 18.267334000000002
#
# number of rings (size 3 to 8) (size 9 to 14) (size 15 to 20)
#    0.000    1.909    0.909    3.000    0.000    9.455 
#    1.636    0.000    0.000    1.091    0.000    0.000 
#    0.000    0.000    0.000    0.000    0.000    0.000 
#
# Total GULP energy -245613.696264 kJ/mol
# GULP energy per Si atom -5582.129461 kJ/mol
# Density = 1.822576 g / cm^3
# Si number density = 18.267334 Si / 1000 Ang^3
#
#
#
# Elastic Constant Matrix: (Units=GPa)
#
#
# Indices 1 2 3 4 5 6 
#
# 1 42.5903 21.0334 13.3655 0.0001 -0.0001 -0.0001
# 2 21.0334 115.1036 33.1453 0.0006 -0.0007 -0.0004
# 3 13.3655 33.1453 46.1306 0.0037 -0.0008 -0.0006
# 4 0.0001 0.0006 0.0037 24.4683 -0.0008 -0.0003
# 5 -0.0001 -0.0007 -0.0008 -0.0008 54.1613 0.0021
# 6 -0.0001 -0.0004 -0.0006 -0.0003 0.0021 16.6205
#
#
#
# Elastic Compliance Matrix: (Units=1/GPa)
#
#
# Indices 1 2 3 4 5 6 
#
# 1 0.026819 -0.003358 -0.005358 0.000001 0.000000 0.000000
# 2 -0.003358 0.011375 -0.007200 0.000001 0.000000 0.000000
# 3 -0.005358 -0.007200 0.028403 -0.000004 0.000000 0.000001
# 4 0.000001 0.000001 -0.000004 0.040869 0.000001 0.000001
# 5 0.000000 0.000000 0.000000 0.000001 0.018463 -0.000002
# 6 0.000000 0.000000 0.000001 0.000001 -0.000002 0.060167
#
#
# Mechanical properties :
#
#
# Convention : Reuss Voigt Hill
#
# Bulk Modulus (GPa) = 28.76378 37.65698 33.21038
# Shear Modulus (GPa) = 21.78498 28.13539 24.96019
#
# Velocity S-wave (km/s) = 3.45710 3.92880 3.70047
# Velocity P-wave (km/s) = 5.63166 6.42182 6.03967
#
# Compressibility (1/GPa) = 0.03476595
#
# Stress axis : x y z
#
# Youngs Moduli (GPa) = 37.28670 87.91393 35.20743
#
# Poissons Ratio (x) = 0.29522 0.18863
# Poissons Ratio (y) = 0.12521 0.25349
# Poissons Ratio (z) = 0.19977 0.63298
#
# Static dielectric constant tensor:
#      x y z
#    x 1.580790 0.000000 0.000000 
#    y 0.000000 1.652410 0.000000 
#    z 0.000000 0.000000 1.617620 
# 
# From -- ./inp_files/8936.got.cif
#   From: 2010.05.17/outbox.cif.g08.bks.cpg/sg71_5_cif.got.tgz:8936.got - 2010.06.03 16:22:01.
