data_PCOD9520711
_publ_section_title
;
Structure prediction by ZEFSAII (Michael W. Deem and Ramdas Pophale) SiO2 
 PCOD9520711
Probable space group: I M M M
;
_chemical_formula_sum "Si O2"
_cell_formula_units_Z 104
_cell_length_a 8.238426
_cell_length_b 27.902128
_cell_length_c 23.093243
_cell_angle_alpha 90.000000
_cell_angle_beta 90.000000
_cell_angle_gamma 90.000000
_cell_volume 5308.434918
_symmetry_space_group_name_H-M "I M M M"
_symmetry_group_IT_number 71
_symmetry_cell_setting 'orthorhombic'
loop_
_space_group_symop_operation_xyz
x,y,z
-x,-y,z
x,-y,-z
-x,y,-z
-x,-y,-z
x,y,-z
-x,y,z
x,-y,z
1/2+x,1/2+y,1/2+z
1/2-x,1/2-y,1/2+z
1/2+x,1/2-y,1/2-z
1/2-x,1/2+y,1/2-z
1/2-x,1/2-y,1/2-z
1/2+x,1/2+y,1/2-z
1/2-x,1/2+y,1/2+z
1/2+x,1/2-y,1/2+z
loop_
_atom_site_type_symbol
_atom_site_label
_atom_site_fract_x
_atom_site_fract_y
_atom_site_fract_z
Si Si1 0.500000 0.055954 0.068562
Si Si2 0.810036 0.770731 0.345856
Si Si3 0.192453 0.313568 0.726962
Si Si4 0.827315 0.945512 0.884478
Si Si5 0.801089 0.148437 0.567018
Si Si6 0.188386 0.573226 0.266934
Si Si7 0.803698 0.053630 0.636940
O O1 0.665448 0.078664 0.091445
O O2 0.500000 0.000000 0.089068
O O3 0.500000 0.055784 0.000000
O O4 0.748908 0.717656 0.328133
O O5 0.786483 0.797960 0.284686
O O6 0.741938 0.805816 0.395372
O O7 0.000000 0.765484 0.359651
O O8 0.205337 0.370084 0.722419
O O9 0.000000 0.302468 0.735590
O O10 0.801203 0.948952 0.815853
O O11 0.000000 0.922609 0.898054
O O12 0.831024 0.000000 0.908318
O O13 0.752002 0.150563 0.500000
O O14 0.750169 0.098512 0.597547
O O15 0.000000 0.148679 0.568507
O O16 0.237993 0.560809 0.201862
O O17 0.000000 0.559625 0.276196
O O18 0.000000 0.055150 0.639214
O O19 0.756967 0.000000 0.616489
#
# Coordination Sequence:
#
# PCOD9520711 Si02
#       7
#     8  16  16  16  16  16  16
#     4   9  18  34  54  76 104 138 179 223 265 315
#     4   9  16  30  50  72  97 126 162 211 262 317
#     4   9  18  29  47  74 100 126 160 214 265 318
#     4  10  20  33  51  77 108 142 182 224 269 323
#     4   9  17  30  50  74 100 133 174 218 265 322
#     4  11  20  31  48  72 106 142 174 220 277 332
#     4  10  20  32  47  71 102 135 177 224 269 321
#
# _framework density 19.591460999999999
#
# number of rings (size 3 to 8) (size 9 to 14) (size 15 to 20)
#    0.000    2.385    2.308    0.923    0.000    3.385 
#    0.000    3.077    0.000    2.769    0.000    1.077 
#    0.000    0.000    0.000    0.000    0.000    0.000 
#
# Total GULP energy -289703.849137 kJ/mol
# GULP energy per Si atom -5571.227868 kJ/mol
# Density = 1.954687 g / cm^3
# Si number density = 19.591461 Si / 1000 Ang^3
#
#
#
# Elastic Constant Matrix: (Units=GPa)
#
#
# Indices 1 2 3 4 5 6 
#
# 1 60.6017 4.1338 16.2462 0.0000 0.0000 0.0000
# 2 4.1338 93.1571 35.0764 0.0000 0.0000 0.0000
# 3 16.2462 35.0764 95.3091 0.0000 0.0000 0.0000
# 4 0.0000 0.0000 0.0000 15.3584 0.0000 0.0000
# 5 0.0000 0.0000 0.0000 0.0000 7.3986 0.0000
# 6 0.0000 0.0000 0.0000 0.0000 0.0000 6.1721
#
#
#
# Elastic Compliance Matrix: (Units=1/GPa)
#
#
# Indices 1 2 3 4 5 6 
#
# 1 0.017304 0.000398 -0.003096 0.000000 0.000000 0.000000
# 2 0.000398 0.012471 -0.004657 0.000000 0.000000 0.000000
# 3 -0.003096 -0.004657 0.012734 0.000000 0.000000 0.000000
# 4 0.000000 0.000000 0.000000 0.065111 0.000000 0.000000
# 5 0.000000 0.000000 0.000000 0.000000 0.135161 0.000000
# 6 0.000000 0.000000 0.000000 0.000000 0.000000 0.162018
#
#
# Mechanical properties :
#
#
# Convention : Reuss Voigt Hill
#
# Bulk Modulus (GPa) = 35.97439 39.99786 37.98613
# Shear Modulus (GPa) = 11.66111 18.69325 15.17718
#
# Velocity S-wave (km/s) = 2.44235 3.09229 2.78633
# Velocity P-wave (km/s) = 5.13377 5.76281 5.45736
#
# Compressibility (1/GPa) = 0.02779755
#
# Stress axis : x y z
#
# Youngs Moduli (GPa) = 57.78997 80.18911 78.53016
#
# Poissons Ratio (x) = -0.03191 0.24313
# Poissons Ratio (y) = -0.02300 0.36574
# Poissons Ratio (z) = 0.17892 0.37347
#
# Static dielectric constant tensor:
#      x y z
#    x 1.734710 0.000000 0.000000 
#    y 0.000000 1.752810 0.000000 
#    z 0.000000 0.000000 1.658680 
# 
# From -- ./inp_files/51147.got.cif
#   From: 2010.05.17/outbox.cif.g08.bks.cpg/sg71_26_cif.got.tgz:51147.got - 2010.06.03 16:22:01.
