data_PCOD9520845
_publ_section_title
;
Structure prediction by ZEFSAII (Michael W. Deem and Ramdas Pophale) SiO2 
 PCOD9520845
Probable space group: I M M M
;
_chemical_formula_sum "Si O2"
_cell_formula_units_Z 90
_cell_length_a 20.843143
_cell_length_b 25.126520
_cell_length_c 7.412796
_cell_angle_alpha 90.000000
_cell_angle_beta 90.000000
_cell_angle_gamma 90.000000
_cell_volume 3882.197271
_symmetry_space_group_name_H-M "I M M M"
_symmetry_group_IT_number 71
_symmetry_cell_setting 'orthorhombic'
loop_
_space_group_symop_operation_xyz
x,y,z
-x,-y,z
x,-y,-z
-x,y,-z
-x,-y,-z
x,y,-z
-x,y,z
x,-y,z
1/2+x,1/2+y,1/2+z
1/2-x,1/2-y,1/2+z
1/2+x,1/2-y,1/2-z
1/2-x,1/2+y,1/2-z
1/2-x,1/2-y,1/2-z
1/2+x,1/2+y,1/2-z
1/2-x,1/2+y,1/2+z
1/2+x,1/2-y,1/2+z
loop_
_atom_site_type_symbol
_atom_site_label
_atom_site_fract_x
_atom_site_fract_y
_atom_site_fract_z
Si Si1 0.893162 0.185755 0.714530
Si Si2 0.000000 0.100470 0.277942
Si Si3 0.000000 0.000000 0.000000
Si Si4 0.068479 0.417924 0.292068
Si Si5 0.611324 0.197331 0.285415
Si Si6 0.790290 0.442312 0.718980
Si Si7 0.747668 0.327091 0.793430
O O1 0.887485 0.179103 0.500000
O O2 0.938912 0.137885 0.771787
O O3 0.918261 0.245296 0.747921
O O4 0.820869 0.185336 0.791958
O O5 0.000000 0.092376 0.500000
O O6 0.000000 0.047224 0.159890
O O7 0.067588 0.435479 0.500000
O O8 0.075138 0.353896 0.289398
O O9 0.135789 0.438430 0.216921
O O10 0.000000 0.432956 0.210307
O O11 0.613619 0.189325 0.500000
O O12 0.685262 0.194415 0.214609
O O13 0.790382 0.438244 0.500000
O O14 0.763536 0.500000 0.768009
O O15 0.754384 0.390961 0.790750
O O16 0.746594 0.307870 0.000000
#
# Coordination Sequence:
#
# PCOD9520845 Si02
#       7
#    16   8   2  16  16  16  16
#     4  10  21  39  61  86 117 149 192 238 292 363
#     4  10  25  47  71  98 125 163 207 260 314 378
#     4  12  26  52  76  90 132 164 210 264 324 370
#     4   9  18  32  50  73 106 152 193 225 279 342
#     4  10  20  32  54  84 119 150 186 236 290 354
#     4   9  18  33  51  76 107 140 187 244 285 328
#     4   9  19  36  55  81 113 153 190 231 295 360
#
# _framework density 23.182749000000001
#
# number of rings (size 3 to 8) (size 9 to 14) (size 15 to 20)
#    0.000    2.489    0.000    1.200    2.489    2.489 
#    1.600    1.778    0.000    0.000    0.000    4.978 
#    0.000    0.000    0.000    0.000    0.000    0.000 
#
# Total GULP energy -250995.237893 kJ/mol
# GULP energy per Si atom -5577.671953 kJ/mol
# Density = 2.312998 g / cm^3
# Si number density = 23.182749 Si / 1000 Ang^3
#
#
#
# Elastic Constant Matrix: (Units=GPa)
#
#
# Indices 1 2 3 4 5 6 
#
# 1 70.3572 19.6035 9.8236 0.0000 0.0000 0.0000
# 2 19.6035 173.9494 7.7859 0.0000 0.0000 0.0000
# 3 9.8236 7.7859 96.3538 0.0000 0.0000 0.0000
# 4 0.0000 0.0000 0.0000 0.4512 0.0000 0.0000
# 5 0.0000 0.0000 0.0000 0.0000 -0.9399 0.0000
# 6 0.0000 0.0000 0.0000 0.0000 0.0000 -3.9281
#
#
#
# Elastic Compliance Matrix: (Units=1/GPa)
#
#
# Indices 1 2 3 4 5 6 
#
# 1 0.014856 -0.001612 -0.001384 0.000000 0.000000 0.000000
# 2 -0.001612 0.005945 -0.000316 0.000000 0.000000 0.000000
# 3 -0.001384 -0.000316 0.010545 0.000000 0.000000 0.000000
# 4 0.000000 0.000000 0.000000 2.216556 0.000000 0.000000
# 5 0.000000 0.000000 0.000000 0.000000 -1.063955 0.000000
# 6 0.000000 0.000000 0.000000 0.000000 0.000000 -0.254575
#
#
# Mechanical properties :
#
#
# Convention : Reuss Voigt Hill
#
# Bulk Modulus (GPa) = 40.45252 46.12073 43.28662
# Shear Modulus (GPa) = 5.29528 19.34645 12.32086
#
# Velocity S-wave (km/s) = 1.51298 2.89194 2.30786
# Velocity P-wave (km/s) = 4.53204 5.57572 5.08075
#
# Compressibility (1/GPa) = 0.02472034
#
# Stress axis : x y z
#
# Youngs Moduli (GPa) = 67.31434 168.21889 94.83084
#
# Poissons Ratio (x) = 0.27121 0.13128
# Poissons Ratio (y) = 0.10853 0.02997
# Poissons Ratio (z) = 0.09318 0.05315
#
# Static dielectric constant tensor:
#      x y z
#    x 1.902180 0.000000 0.000000 
#    y 0.000000 1.843030 0.000000 
#    z 0.000000 0.000000 1.886350 
# 
# From -- ./inp_files/10539.got.cif
#   From: 2010.05.17/outbox.cif.g08.bks.cpg/sg71_6_cif.got.tgz:10539.got - 2010.06.03 16:22:01.
