data_PCOD9520074
_publ_section_title
;
Structure prediction by ZEFSAII (Michael W. Deem and Ramdas Pophale) SiO2 
 PCOD9520074
Probable space group: I M M M
;
_chemical_formula_sum "Si O2"
_cell_formula_units_Z 72
_cell_length_a 27.614746
_cell_length_b 8.724726
_cell_length_c 16.409358
_cell_angle_alpha 90.000000
_cell_angle_beta 90.000000
_cell_angle_gamma 90.000000
_cell_volume 3953.524549
_symmetry_space_group_name_H-M "I M M M"
_symmetry_group_IT_number 71
_symmetry_cell_setting 'orthorhombic'
loop_
_space_group_symop_operation_xyz
x,y,z
-x,-y,z
x,-y,-z
-x,y,-z
-x,-y,-z
x,y,-z
-x,y,z
x,-y,z
1/2+x,1/2+y,1/2+z
1/2-x,1/2-y,1/2+z
1/2+x,1/2-y,1/2-z
1/2-x,1/2+y,1/2-z
1/2-x,1/2-y,1/2-z
1/2+x,1/2+y,1/2-z
1/2-x,1/2+y,1/2+z
1/2+x,1/2-y,1/2+z
loop_
_atom_site_type_symbol
_atom_site_label
_atom_site_fract_x
_atom_site_fract_y
_atom_site_fract_z
Si Si1 0.111562 0.318750 0.669974
Si Si2 0.941561 0.820003 0.822028
Si Si3 0.219110 0.184997 0.676278
Si Si4 0.943681 0.813353 0.000000
Si Si5 0.776545 0.821524 0.500000
Si Si6 0.605541 0.677701 0.000000
O O1 0.117972 0.500000 0.664039
O O2 0.079211 0.273895 0.747061
O O3 0.163783 0.239918 0.682683
O O4 0.090433 0.256856 0.584245
O O5 0.000000 0.811369 0.823210
O O6 0.928801 0.000000 0.811675
O O7 0.923274 0.767197 0.911820
O O8 0.250000 0.250000 0.750000
O O9 0.238369 0.242607 0.587710
O O10 0.220015 0.000000 0.676275
O O11 0.000000 0.765033 0.000000
O O12 0.943629 0.000000 0.000000
O O13 0.835401 0.815937 0.500000
O O14 0.762286 0.000000 0.500000
O O15 0.591403 0.500000 0.000000
#
# Coordination Sequence:
#
# PCOD9520074 Si02
#       6
#    16  16  16   8   8   8
#     4  11  21  33  51  77 106 135 168 207 253 306
#     4   9  17  32  54  77 101 132 170 211 255 302
#     4  10  19  34  54  76 101 132 170 210 253 300
#     4   7  12  26  50  75  96 125 169 212 247 293
#     4   7  14  29  50  71  94 125 159 198 246 299
#     4   9  17  33  54  73  96 131 172 210 249 297
#
# _framework density 18.211597999999999
#
# number of rings (size 3 to 8) (size 9 to 14) (size 15 to 20)
#    0.000    2.778    0.000    5.667    0.000    0.444 
#    0.000    3.889    0.000    5.333    0.000    0.000 
#    0.000    0.000    0.000    0.000    0.000    0.000 
#
# Total GULP energy -200511.138055 kJ/mol
# GULP energy per Si atom -5569.753835 kJ/mol
# Density = 1.817015 g / cm^3
# Si number density = 18.211598 Si / 1000 Ang^3
#
#
#
# Elastic Constant Matrix: (Units=GPa)
#
#
# Indices 1 2 3 4 5 6 
#
# 1 11.0358 13.2108 29.7464 0.0000 0.0000 0.0000
# 2 13.2108 79.3446 54.2066 0.0000 0.0000 0.0000
# 3 29.7464 54.2066 193.8465 0.0000 0.0000 0.0000
# 4 0.0000 0.0000 0.0000 24.6223 0.0000 0.0000
# 5 0.0000 0.0000 0.0000 0.0000 28.9252 0.0000
# 6 0.0000 0.0000 0.0000 0.0000 0.0000 17.8351
#
#
#
# Elastic Compliance Matrix: (Units=1/GPa)
#
#
# Indices 1 2 3 4 5 6 
#
# 1 0.163984 -0.012500 -0.021669 0.000000 0.000000 0.000000
# 2 -0.012500 0.016532 -0.002705 0.000000 0.000000 0.000000
# 3 -0.021669 -0.002705 0.009240 0.000000 0.000000 0.000000
# 4 0.000000 0.000000 0.000000 0.040614 0.000000 0.000000
# 5 0.000000 0.000000 0.000000 0.000000 0.034572 0.000000
# 6 0.000000 0.000000 0.000000 0.000000 0.000000 0.056069
#
#
# Mechanical properties :
#
#
# Convention : Reuss Voigt Hill
#
# Bulk Modulus (GPa) = 8.61991 53.17271 30.89631
# Shear Modulus (GPa) = 11.53595 26.74741 19.14168
#
# Velocity S-wave (km/s) = 2.51955 3.83652 3.24554
# Velocity P-wave (km/s) = 3.63424 6.99183 5.57196
#
# Compressibility (1/GPa) = 0.11601053
#
# Stress axis : x y z
#
# Youngs Moduli (GPa) = 6.09815 60.48735 108.22235
#
# Poissons Ratio (x) = 0.75607 2.34502
# Poissons Ratio (y) = 0.07622 0.29274
# Poissons Ratio (z) = 0.13214 0.16362
#
# Static dielectric constant tensor:
#      x y z
#    x 1.606640 0.000000 0.000000 
#    y 0.000000 1.612870 0.000000 
#    z 0.000000 0.000000 1.679730 
# 
# From -- ./inp_files/40725.got.cif
#   From: 2010.05.17/outbox.cif.g08.bks.cpg/sg71_21_cif.got.tgz:40725.got - 2010.06.03 16:22:01.
