data_PCOD9520274
_publ_section_title
;
Structure prediction by ZEFSAII (Michael W. Deem and Ramdas Pophale) SiO2 
 PCOD9520274
Probable space group: I M M M
;
_chemical_formula_sum "Si O2"
_cell_formula_units_Z 116
_cell_length_a 29.032555
_cell_length_b 28.056158
_cell_length_c 7.825829
_cell_angle_alpha 90.000000
_cell_angle_beta 90.000000
_cell_angle_gamma 90.000000
_cell_volume 6374.466016
_symmetry_space_group_name_H-M "I M M M"
_symmetry_group_IT_number 71
_symmetry_cell_setting 'orthorhombic'
loop_
_space_group_symop_operation_xyz
x,y,z
-x,-y,z
x,-y,-z
-x,y,-z
-x,-y,-z
x,y,-z
-x,y,z
x,-y,z
1/2+x,1/2+y,1/2+z
1/2-x,1/2-y,1/2+z
1/2+x,1/2-y,1/2-z
1/2-x,1/2+y,1/2-z
1/2-x,1/2-y,1/2-z
1/2+x,1/2+y,1/2-z
1/2-x,1/2+y,1/2+z
1/2+x,1/2-y,1/2+z
loop_
_atom_site_type_symbol
_atom_site_label
_atom_site_fract_x
_atom_site_fract_y
_atom_site_fract_z
Si Si1 0.353571 0.856926 0.201535
Si Si2 0.852694 0.832045 0.291982
Si Si3 0.698026 0.763442 0.794778
Si Si4 0.551774 0.190652 0.295529
Si Si5 0.949258 0.801630 0.705374
Si Si6 0.676989 0.500000 0.000000
Si Si7 0.197126 0.927054 0.808874
Si Si8 0.798726 0.445852 0.200084
O O1 0.321219 0.813905 0.271247
O O2 0.406168 0.840941 0.229259
O O3 0.338697 0.907318 0.278469
O O4 0.345387 0.860927 0.000000
O O5 0.850528 0.834407 0.500000
O O6 0.833232 0.780693 0.237695
O O7 0.906058 0.832760 0.236515
O O8 0.822177 0.874087 0.217783
O O9 0.750000 0.750000 0.750000
O O10 0.694322 0.765759 0.000000
O O11 0.552139 0.187905 0.500000
O O12 0.500000 0.177476 0.235210
O O13 0.559123 0.245874 0.244866
O O14 0.950483 0.805574 0.500000
O O15 0.000000 0.814138 0.773121
O O16 0.679016 0.458989 0.152733
O O17 0.252645 0.928906 0.794739
O O18 0.184306 0.943259 0.000000
O O19 0.810381 0.500000 0.253899
O O20 0.786061 0.448139 0.000000
#
# Coordination Sequence:
#
# PCOD9520274 Si02
#       8
#    16  16  16  16  16   4  16  16
#     4  11  22  36  55  82 109 148 197 236 287 349
#     4  10  19  35  53  79 119 153 189 235 291 346
#     4  10  21  34  48  72 112 153 185 224 274 343
#     4  10  20  34  53  79 111 149 192 237 289 349
#     4   9  17  32  56  81 111 151 190 234 288 346
#     4  12  22  44  60  86 121 150 199 252 294 332
#     4  12  23  38  62  88 115 156 198 243 295 346
#     4  11  22  40  59  82 116 150 191 245 295 340
#
# _framework density 18.197603999999998
#
# number of rings (size 3 to 8) (size 9 to 14) (size 15 to 20)
#    0.000    1.517    3.448    2.276    0.000    6.069 
#    0.000    0.000    0.000    0.414    0.000    3.862 
#    0.000    1.103    0.000    0.000    0.000    0.000 
#
# Total GULP energy -323225.968920 kJ/mol
# GULP energy per Si atom -5572.861533 kJ/mol
# Density = 1.815619 g / cm^3
# Si number density = 18.197604 Si / 1000 Ang^3
#
#
#
# Elastic Constant Matrix: (Units=GPa)
#
#
# Indices 1 2 3 4 5 6 
#
# 1 95.1980 52.8471 6.1129 0.0000 0.0000 0.0000
# 2 52.8471 98.9755 11.2244 0.0000 0.0000 0.0000
# 3 6.1129 11.2244 66.4173 0.0000 0.0000 0.0000
# 4 0.0000 0.0000 0.0000 15.9775 0.0000 0.0000
# 5 0.0000 0.0000 0.0000 0.0000 16.3887 0.0000
# 6 0.0000 0.0000 0.0000 0.0000 0.0000 48.1850
#
#
#
# Elastic Compliance Matrix: (Units=1/GPa)
#
#
# Indices 1 2 3 4 5 6 
#
# 1 0.014930 -0.007968 -0.000027 0.000000 0.000000 0.000000
# 2 -0.007968 0.014554 -0.001726 0.000000 0.000000 0.000000
# 3 -0.000027 -0.001726 0.015351 0.000000 0.000000 0.000000
# 4 0.000000 0.000000 0.000000 0.062588 0.000000 0.000000
# 5 0.000000 0.000000 0.000000 0.000000 0.061018 0.000000
# 6 0.000000 0.000000 0.000000 0.000000 0.000000 0.020753
#
#
# Mechanical properties :
#
#
# Convention : Reuss Voigt Hill
#
# Bulk Modulus (GPa) = 39.38554 44.55106 41.96830
# Shear Modulus (GPa) = 23.03075 28.80398 25.91737
#
# Velocity S-wave (km/s) = 3.56138 3.98281 3.77798
# Velocity P-wave (km/s) = 6.21301 6.75910 6.49180
#
# Compressibility (1/GPa) = 0.02539003
#
# Stress axis : x y z
#
# Youngs Moduli (GPa) = 66.98058 68.70976 65.14416
#
# Poissons Ratio (x) = 0.54751 0.00179
# Poissons Ratio (y) = 0.53373 0.11245
# Poissons Ratio (z) = 0.00184 0.11861
#
# Static dielectric constant tensor:
#      x y z
#    x 1.642540 0.000000 0.000000 
#    y 0.000000 1.607060 0.000000 
#    z 0.000000 0.000000 1.659310 
# 
# From -- ./inp_files/15379.got.cif
#   From: 2010.05.17/outbox.cif.g08.bks.cpg/sg71_8_cif.got.tgz:15379.got - 2010.06.03 16:22:01.
