data_PCOD9520169
_publ_section_title
;
Structure prediction by ZEFSAII (Michael W. Deem and Ramdas Pophale) SiO2 
 PCOD9520169
Probable space group: I M M M
;
_chemical_formula_sum "Si O2"
_cell_formula_units_Z 112
_cell_length_a 16.899295
_cell_length_b 14.232880
_cell_length_c 23.088162
_cell_angle_alpha 90.000000
_cell_angle_beta 90.000000
_cell_angle_gamma 90.000000
_cell_volume 5553.294891
_symmetry_space_group_name_H-M "I M M M"
_symmetry_group_IT_number 71
_symmetry_cell_setting 'orthorhombic'
loop_
_space_group_symop_operation_xyz
x,y,z
-x,-y,z
x,-y,-z
-x,y,-z
-x,-y,-z
x,y,-z
-x,y,z
x,-y,z
1/2+x,1/2+y,1/2+z
1/2-x,1/2-y,1/2+z
1/2+x,1/2-y,1/2-z
1/2-x,1/2+y,1/2-z
1/2-x,1/2-y,1/2-z
1/2+x,1/2+y,1/2-z
1/2-x,1/2+y,1/2+z
1/2+x,1/2-y,1/2+z
loop_
_atom_site_type_symbol
_atom_site_label
_atom_site_fract_x
_atom_site_fract_y
_atom_site_fract_z
Si Si1 0.321349 0.892087 0.430842
Si Si2 0.857271 0.105210 0.618787
Si Si3 0.595979 0.706097 0.229273
Si Si4 0.786186 0.105399 0.067395
Si Si5 0.406107 0.722095 0.365363
Si Si6 0.089870 0.601048 0.321172
Si Si7 0.879306 0.699947 0.433245
O O1 0.319502 0.868293 0.500000
O O2 0.232404 0.892595 0.405137
O O3 0.371736 0.817650 0.393921
O O4 0.351060 0.000000 0.425977
O O5 0.865134 0.129272 0.687065
O O6 0.898101 0.194236 0.587198
O O7 0.888456 0.000000 0.607465
O O8 0.500000 0.699885 0.220424
O O9 0.610791 0.707414 0.297348
O O10 0.627278 0.807043 0.206633
O O11 0.861035 0.138368 0.102806
O O12 0.714404 0.178624 0.074111
O O13 0.759669 0.000000 0.082960
O O14 0.806684 0.105351 0.000000
O O15 0.500000 0.720463 0.373422
O O16 0.127447 0.500000 0.310428
O O17 0.085022 0.625147 0.389014
O O18 0.000000 0.597507 0.298348
O O19 0.899756 0.686044 0.500000
#
# Coordination Sequence:
#
# PCOD9520169 Si02
#       7
#    16  16  16  16  16  16  16
#     4  10  21  38  60  88 121 154 191 239 296 352
#     4  10  20  36  60  86 114 152 194 236 287 343
#     4   9  21  39  58  83 116 153 194 240 285 335
#     4  10  21  37  56  80 112 148 186 232 287 344
#     4  11  23  39  60  84 113 152 195 240 291 346
#     4   9  18  34  55  80 112 149 187 231 283 336
#     4  10  19  34  56  82 114 149 187 232 284 339
#
# _framework density 20.168206999999999
#
# number of rings (size 3 to 8) (size 9 to 14) (size 15 to 20)
#    0.000    2.143    1.429    1.286    0.000    5.714 
#    0.000    5.000    0.000    1.286    0.000    8.000 
#    0.000    0.000    0.000    0.000    0.000    0.000 
#
# Total GULP energy -312257.374693 kJ/mol
# GULP energy per Si atom -5576.024548 kJ/mol
# Density = 2.012230 g / cm^3
# Si number density = 20.168207 Si / 1000 Ang^3
#
#
#
# Elastic Constant Matrix: (Units=GPa)
#
#
# Indices 1 2 3 4 5 6 
#
# 1 38.5523 2.7931 39.8233 0.0000 0.0000 0.0000
# 2 2.7931 109.9948 21.7200 0.0000 0.0000 0.0000
# 3 39.8233 21.7200 85.5547 0.0000 0.0000 0.0000
# 4 0.0000 0.0000 0.0000 13.9216 0.0000 0.0000
# 5 0.0000 0.0000 0.0000 0.0000 29.4815 0.0000
# 6 0.0000 0.0000 0.0000 0.0000 0.0000 14.4109
#
#
#
# Elastic Compliance Matrix: (Units=1/GPa)
#
#
# Indices 1 2 3 4 5 6 
#
# 1 0.051273 0.003591 -0.024778 0.000000 0.000000 0.000000
# 2 0.003591 0.009823 -0.004165 0.000000 0.000000 0.000000
# 3 -0.024778 -0.004165 0.024279 0.000000 0.000000 0.000000
# 4 0.000000 0.000000 0.000000 0.071831 0.000000 0.000000
# 5 0.000000 0.000000 0.000000 0.000000 0.033920 0.000000
# 6 0.000000 0.000000 0.000000 0.000000 0.000000 0.069392
#
#
# Mechanical properties :
#
#
# Convention : Reuss Voigt Hill
#
# Bulk Modulus (GPa) = 28.84272 40.30829 34.57550
# Shear Modulus (GPa) = 15.49047 22.88050 19.18549
#
# Velocity S-wave (km/s) = 2.77440 3.37186 3.08762
# Velocity P-wave (km/s) = 4.95936 5.93201 5.46735
#
# Compressibility (1/GPa) = 0.03467080
#
# Stress axis : x y z
#
# Youngs Moduli (GPa) = 19.50328 101.80586 41.18743
#
# Poissons Ratio (x) = -0.36556 1.02054
# Poissons Ratio (y) = -0.07003 0.17155
# Poissons Ratio (z) = 0.48325 0.42403
#
# Static dielectric constant tensor:
#      x y z
#    x 1.755960 0.000000 0.000000 
#    y 0.000000 1.742560 0.000000 
#    z 0.000000 0.000000 1.712900 
# 
# From -- ./inp_files/59914.got.cif
#   From: 2010.05.17/outbox.cif.g08.bks.cpg/sg71_30_cif.got.tgz:59914.got - 2010.06.03 16:22:01.
