data_PCOD9520256
_publ_section_title
;
Structure prediction by ZEFSAII (Michael W. Deem and Ramdas Pophale) SiO2 
 PCOD9520256
Probable space group: I M M M
;
_chemical_formula_sum "Si O2"
_cell_formula_units_Z 82
_cell_length_a 7.697390
_cell_length_b 23.836138
_cell_length_c 21.208036
_cell_angle_alpha 90.000000
_cell_angle_beta 90.000000
_cell_angle_gamma 90.000000
_cell_volume 3891.166679
_symmetry_space_group_name_H-M "I M M M"
_symmetry_group_IT_number 71
_symmetry_cell_setting 'orthorhombic'
loop_
_space_group_symop_operation_xyz
x,y,z
-x,-y,z
x,-y,-z
-x,y,-z
-x,-y,-z
x,y,-z
-x,y,z
x,-y,z
1/2+x,1/2+y,1/2+z
1/2-x,1/2-y,1/2+z
1/2+x,1/2-y,1/2-z
1/2-x,1/2+y,1/2-z
1/2-x,1/2-y,1/2-z
1/2+x,1/2+y,1/2-z
1/2-x,1/2+y,1/2+z
1/2+x,1/2-y,1/2+z
loop_
_atom_site_type_symbol
_atom_site_label
_atom_site_fract_x
_atom_site_fract_y
_atom_site_fract_z
Si Si1 0.500000 0.000000 0.000000
Si Si2 0.293581 0.815376 0.253318
Si Si3 0.692803 0.500000 0.603666
Si Si4 0.788647 0.381512 0.367844
Si Si5 0.206778 0.121929 0.382645
Si Si6 0.712248 0.826807 0.000000
Si Si7 0.212218 0.000000 0.425556
Si Si8 0.786907 0.803040 0.500000
O O1 0.652336 0.000000 0.053731
O O2 0.500000 0.820377 0.252750
O O3 0.250000 0.750000 0.250000
O O4 0.227378 0.842745 0.188795
O O5 0.234655 0.848738 0.315398
O O6 0.500000 0.500000 0.575788
O O7 0.718230 0.556536 0.642503
O O8 0.733158 0.358571 0.436440
O O9 0.000000 0.382738 0.368809
O O10 0.272357 0.058163 0.392990
O O11 0.271704 0.163107 0.438147
O O12 0.000000 0.118408 0.392032
O O13 0.500000 0.827919 0.000000
O O14 0.767475 0.761937 0.000000
O O15 0.259432 0.000000 0.500000
O O16 0.000000 0.000000 0.423517
O O17 0.000000 0.801901 0.500000
#
# Coordination Sequence:
#
# PCOD9520256 Si02
#       8
#     2  16   8  16  16   8   8   8
#     4  12  22  44  64  94 144 168 214 266 336 392
#     4  11  24  41  62  89 126 170 212 263 332 391
#     4  12  25  40  68  98 127 175 222 272 335 398
#     4  10  21  40  63  88 125 168 214 272 332 395
#     4  10  19  34  60  89 124 163 209 264 314 378
#     4   9  17  30  56  83 106 150 211 263 314 376
#     4   9  16  31  57  93 123 155 205 261 312 366
#     4   9  16  30  55  88 118 157 212 257 309 380
#
# _framework density 21.073371000000002
#
# number of rings (size 3 to 8) (size 9 to 14) (size 15 to 20)
#    0.000    1.854    1.951    2.488    1.366    5.463 
#    0.000    2.927    0.000    1.756    0.000    0.000 
#    0.000    0.000    0.000    0.000    0.000    0.000 
#
# Total GULP energy -228753.378707 kJ/mol
# GULP energy per Si atom -5579.350700 kJ/mol
# Density = 2.102541 g / cm^3
# Si number density = 21.073371 Si / 1000 Ang^3
#
#
#
# Elastic Constant Matrix: (Units=GPa)
#
#
# Indices 1 2 3 4 5 6 
#
# 1 56.6172 2.7206 1.1760 0.0000 0.0000 0.0000
# 2 2.7206 227.5404 107.3239 0.0000 0.0000 0.0000
# 3 1.1760 107.3239 165.9601 0.0001 0.0000 0.0000
# 4 0.0000 0.0000 0.0001 -187.2621 0.0000 0.0000
# 5 0.0000 0.0000 0.0000 0.0000 33.8170 0.0000
# 6 0.0000 0.0000 0.0000 0.0000 0.0000 5.9018
#
#
#
# Elastic Compliance Matrix: (Units=1/GPa)
#
#
# Indices 1 2 3 4 5 6 
#
# 1 0.017673 -0.000219 0.000016 0.000000 0.000000 0.000000
# 2 -0.000219 0.006326 -0.004090 0.000000 0.000000 0.000000
# 3 0.000016 -0.004090 0.008670 0.000000 0.000000 0.000000
# 4 0.000000 0.000000 0.000000 -0.005340 0.000000 0.000000
# 5 0.000000 0.000000 0.000000 0.000000 0.029571 0.000000
# 6 0.000000 0.000000 0.000000 0.000000 0.000000 0.169439
#
#
# Mechanical properties :
#
#
# Convention : Reuss Voigt Hill
#
# Bulk Modulus (GPa) = 41.52016 74.72875 58.12446
# Shear Modulus (GPa) = 20.58018 -6.91549 6.83234
#
# Velocity S-wave (km/s) = 3.12844 -1.81349 1.80256
# Velocity P-wave (km/s) = 5.72669 5.58151 5.65456
#
# Compressibility (1/GPa) = 0.02408468
#
# Stress axis : x y z
#
# Youngs Moduli (GPa) = 56.58457 158.06774 115.33847
#
# Poissons Ratio (x) = 0.03463 -0.00190
# Poissons Ratio (y) = 0.01240 0.47169
# Poissons Ratio (z) = -0.00093 0.64644
#
# Static dielectric constant tensor:
#      x y z
#    x 1.782750 0.000000 0.000000 
#    y 0.000000 1.758110 0.000000 
#    z 0.000000 0.000000 1.714000 
# 
# From -- ./inp_files/50477.got.cif
#   From: 2010.05.17/outbox.cif.g08.bks.cpg/sg71_26_cif.got.tgz:50477.got - 2010.06.03 16:22:01.
