data_PCOD9520988
_publ_section_title
;
Structure prediction by ZEFSAII (Michael W. Deem and Ramdas Pophale) SiO2 
 PCOD9520988
Probable space group: I M M M
;
_chemical_formula_sum "Si O2"
_cell_formula_units_Z 72
_cell_length_a 16.123006
_cell_length_b 22.545515
_cell_length_c 9.348183
_cell_angle_alpha 90.000000
_cell_angle_beta 90.000000
_cell_angle_gamma 90.000000
_cell_volume 3398.078296
_symmetry_space_group_name_H-M "I M M M"
_symmetry_group_IT_number 71
_symmetry_cell_setting 'orthorhombic'
loop_
_space_group_symop_operation_xyz
x,y,z
-x,-y,z
x,-y,-z
-x,y,-z
-x,-y,-z
x,y,-z
-x,y,z
x,-y,z
1/2+x,1/2+y,1/2+z
1/2-x,1/2-y,1/2+z
1/2+x,1/2-y,1/2-z
1/2-x,1/2+y,1/2-z
1/2-x,1/2-y,1/2-z
1/2+x,1/2+y,1/2-z
1/2-x,1/2+y,1/2+z
1/2+x,1/2-y,1/2+z
loop_
_atom_site_type_symbol
_atom_site_label
_atom_site_fract_x
_atom_site_fract_y
_atom_site_fract_z
Si Si1 0.500000 0.402799 0.163645
Si Si2 0.840600 0.098240 0.160676
Si Si3 0.835500 0.759775 0.836210
Si Si4 0.000000 0.242531 0.666029
Si Si5 0.000000 0.568490 0.825643
Si Si6 0.178263 0.428685 0.837346
O O1 0.417699 0.423038 0.245242
O O2 0.500000 0.330161 0.164051
O O3 0.500000 0.422094 0.000000
O O4 0.846915 0.169414 0.153376
O O5 0.753984 0.085349 0.236101
O O6 0.843778 0.074575 0.000000
O O7 0.750000 0.750000 0.750000
O O8 0.916691 0.738401 0.749775
O O9 0.831474 0.736683 0.000000
O O10 0.000000 0.261605 0.500000
O O11 0.088832 0.594935 0.785168
O O12 0.000000 0.500000 0.775392
O O13 0.000000 0.567389 0.000000
O O14 0.170338 0.500000 0.844331
O O15 0.194389 0.407947 0.000000
#
# Coordination Sequence:
#
# PCOD9520988 Si02
#       6
#     8  16  16   8   8  16
#     4   9  17  31  52  73  94 127 168 203 238 291
#     4  10  20  33  50  74 103 131 160 201 251 296
#     4  10  20  34  52  74 100 132 169 206 246 295
#     4   9  17  31  52  75  98 127 163 204 250 299
#     4   7  12  26  48  71  94 123 161 201 236 275
#     4   9  17  31  52  75  98 128 167 206 243 290
#
# _framework density 21.188445999999999
#
# number of rings (size 3 to 8) (size 9 to 14) (size 15 to 20)
#    0.000    2.778    0.000    3.333    0.000    5.778 
#    0.000    2.222    0.000   10.667    0.000    0.000 
#    0.000    0.000    0.000    0.000    0.000    0.000 
#
# Total GULP energy -200918.017595 kJ/mol
# GULP energy per Si atom -5581.056044 kJ/mol
# Density = 2.114022 g / cm^3
# Si number density = 21.188446 Si / 1000 Ang^3
#
#
#
# Elastic Constant Matrix: (Units=GPa)
#
#
# Indices 1 2 3 4 5 6 
#
# 1 251.6032 1.3842 145.5514 0.0000 0.0000 0.0000
# 2 1.3842 49.3262 8.2513 0.0000 0.0000 0.0000
# 3 145.5514 8.2513 200.4793 0.0000 0.0000 0.0000
# 4 0.0000 0.0000 0.0000 11.6672 0.0000 0.0000
# 5 0.0000 0.0000 0.0000 0.0000 -33.5048 0.0000
# 6 0.0000 0.0000 0.0000 0.0000 0.0000 24.6830
#
#
#
# Elastic Compliance Matrix: (Units=1/GPa)
#
#
# Indices 1 2 3 4 5 6 
#
# 1 0.006873 0.000646 -0.005017 0.000000 0.000000 0.000000
# 2 0.000646 0.020475 -0.001312 0.000000 0.000000 0.000000
# 3 -0.005017 -0.001312 0.008684 0.000000 0.000000 0.000000
# 4 0.000000 0.000000 0.000000 0.085710 0.000000 0.000000
# 5 0.000000 0.000000 0.000000 0.000000 -0.029846 0.000000
# 6 0.000000 0.000000 0.000000 0.000000 0.000000 0.040514
#
#
# Mechanical properties :
#
#
# Convention : Reuss Voigt Hill
#
# Bulk Modulus (GPa) = 40.53935 90.19804 65.36870
# Shear Modulus (GPa) = 32.89564 23.65055 28.27310
#
# Velocity S-wave (km/s) = 3.94449 3.34458 3.65686
# Velocity P-wave (km/s) = 6.31820 7.58794 6.98199
#
# Compressibility (1/GPa) = 0.02466739
#
# Stress axis : x y z
#
# Youngs Moduli (GPa) = 145.49728 48.84118 115.15289
#
# Poissons Ratio (x) = -0.03157 0.57766
# Poissons Ratio (y) = -0.09403 0.15107
# Poissons Ratio (z) = 0.72989 0.06408
#
# Static dielectric constant tensor:
#      x y z
#    x 1.750810 0.000000 0.000000 
#    y 0.000000 1.824690 0.000000 
#    z 0.000000 0.000000 1.734930 
# 
# From -- ./inp_files/6143.got.cif
#   From: 2010.05.17/outbox.cif.g08.bks.cpg/sg71_4_cif.got.tgz:6143.got - 2010.06.03 16:22:01.
