data_PCOD9520973
_publ_section_title
;
Structure prediction by ZEFSAII (Michael W. Deem and Ramdas Pophale) SiO2 
 PCOD9520973
Probable space group: I M M M
;
_chemical_formula_sum "Si O2"
_cell_formula_units_Z 104
_cell_length_a 22.759702
_cell_length_b 17.306639
_cell_length_c 15.682533
_cell_angle_alpha 90.000000
_cell_angle_beta 90.000000
_cell_angle_gamma 90.000000
_cell_volume 6177.254811
_symmetry_space_group_name_H-M "I M M M"
_symmetry_group_IT_number 71
_symmetry_cell_setting 'orthorhombic'
loop_
_space_group_symop_operation_xyz
x,y,z
-x,-y,z
x,-y,-z
-x,y,-z
-x,-y,-z
x,y,-z
-x,y,z
x,-y,z
1/2+x,1/2+y,1/2+z
1/2-x,1/2-y,1/2+z
1/2+x,1/2-y,1/2-z
1/2-x,1/2+y,1/2-z
1/2-x,1/2-y,1/2-z
1/2+x,1/2+y,1/2-z
1/2-x,1/2+y,1/2+z
1/2+x,1/2-y,1/2+z
loop_
_atom_site_type_symbol
_atom_site_label
_atom_site_fract_x
_atom_site_fract_y
_atom_site_fract_z
Si Si1 0.724777 0.591419 0.908235
Si Si2 0.819049 0.592150 0.399451
Si Si3 0.408413 0.355627 0.094593
Si Si4 0.435993 0.825233 0.898679
Si Si5 0.395851 0.409285 0.274987
Si Si6 0.000000 0.093778 0.098507
Si Si7 0.733156 0.338774 0.735442
O O1 0.712326 0.500000 0.903438
O O2 0.662162 0.634816 0.909607
O O3 0.754494 0.617517 0.821370
O O4 0.754226 0.606615 0.000000
O O5 0.813238 0.611194 0.500000
O O6 0.819610 0.500000 0.391185
O O7 0.880119 0.628271 0.365959
O O8 0.766705 0.628620 0.346007
O O9 0.425301 0.266484 0.107678
O O10 0.424655 0.400424 0.180714
O O11 0.430036 0.380252 0.000000
O O12 0.500000 0.844594 0.861949
O O13 0.438281 0.842323 0.000000
O O14 0.380596 0.500000 0.286925
O O15 0.442131 0.384564 0.347243
O O16 0.336059 0.359029 0.275299
O O17 0.000000 0.000000 0.097208
O O18 0.000000 0.120177 0.000000
O O19 0.750000 0.250000 0.750000
#
# Coordination Sequence:
#
# PCOD9520973 Si02
#       7
#    16  16  16  16  16   8  16
#     4   9  17  31  51  71  97 135 170 203 247 302
#     4  10  20  33  50  73 101 133 172 217 259 305
#     4   9  16  27  46  72 100 128 158 196 245 304
#     4   9  18  31  46  67  98 136 169 199 247 309
#     4  10  20  34  52  74 100 136 177 215 256 309
#     4   9  20  38  55  71  95 133 181 226 262 298
#     4  11  21  33  51  77 108 135 169 212 271 319
#
# _framework density 16.835958999999999
#
# number of rings (size 3 to 8) (size 9 to 14) (size 15 to 20)
#    0.000    2.385    0.000    4.615    1.077    3.692 
#    0.000    3.077    0.000    1.385    0.000    0.000 
#    0.000    0.000    0.000    3.231    0.000    0.923 
#
# Total GULP energy -289589.777921 kJ/mol
# GULP energy per Si atom -5569.034191 kJ/mol
# Density = 1.679764 g / cm^3
# Si number density = 16.835959 Si / 1000 Ang^3
#
#
#
# Elastic Constant Matrix: (Units=GPa)
#
#
# Indices 1 2 3 4 5 6 
#
# 1 91.3849 46.5879 50.9305 0.0000 0.0000 0.0000
# 2 46.5879 45.4876 39.1811 0.0000 0.0000 0.0000
# 3 50.9305 39.1811 110.7706 0.0000 0.0000 0.0000
# 4 0.0000 0.0000 0.0000 17.9547 0.0000 0.0000
# 5 0.0000 0.0000 0.0000 0.0000 14.2451 0.0000
# 6 0.0000 0.0000 0.0000 0.0000 0.0000 15.1395
#
#
#
# Elastic Compliance Matrix: (Units=1/GPa)
#
#
# Indices 1 2 3 4 5 6 
#
# 1 0.023722 -0.021430 -0.003327 0.000000 0.000000 0.000000
# 2 -0.021430 0.050977 -0.008178 0.000000 0.000000 0.000000
# 3 -0.003327 -0.008178 0.013450 0.000000 0.000000 0.000000
# 4 0.000000 0.000000 0.000000 0.055696 0.000000 0.000000
# 5 0.000000 0.000000 0.000000 0.000000 0.070199 0.000000
# 6 0.000000 0.000000 0.000000 0.000000 0.000000 0.066052
#
#
# Mechanical properties :
#
#
# Convention : Reuss Voigt Hill
#
# Bulk Modulus (GPa) = 44.88587 57.89355 51.38971
# Shear Modulus (GPa) = 14.14860 16.86410 15.50635
#
# Velocity S-wave (km/s) = 2.90208 3.16835 3.03813
# Velocity P-wave (km/s) = 6.16019 6.91709 6.54958
#
# Compressibility (1/GPa) = 0.02227873
#
# Stress axis : x y z
#
# Youngs Moduli (GPa) = 42.15522 19.61686 74.34994
#
# Poissons Ratio (x) = 0.42039 0.24735
# Poissons Ratio (y) = 0.90339 0.60803
# Poissons Ratio (z) = 0.14024 0.16042
#
# Static dielectric constant tensor:
#      x y z
#    x 1.515940 0.000000 0.000000 
#    y 0.000000 1.587070 0.000000 
#    z 0.000000 0.000000 1.604020 
# 
# From -- ./inp_files/34912.got.cif
#   From: 2010.05.17/outbox.cif.g08.bks.cpg/sg71_18_cif.got.tgz:34912.got - 2010.06.03 16:22:01.
