data_PCOD9520016
_publ_section_title
;
Structure prediction by ZEFSAII (Michael W. Deem and Ramdas Pophale) SiO2 
 PCOD9520016
Probable space group: I M M M
;
_chemical_formula_sum "Si O2"
_cell_formula_units_Z 56
_cell_length_a 9.586527
_cell_length_b 25.430353
_cell_length_c 12.560846
_cell_angle_alpha 90.000000
_cell_angle_beta 90.000000
_cell_angle_gamma 90.000000
_cell_volume 3062.193142
_symmetry_space_group_name_H-M "I M M M"
_symmetry_group_IT_number 71
_symmetry_cell_setting 'orthorhombic'
loop_
_space_group_symop_operation_xyz
x,y,z
-x,-y,z
x,-y,-z
-x,y,-z
-x,-y,-z
x,y,-z
-x,y,z
x,-y,z
1/2+x,1/2+y,1/2+z
1/2-x,1/2-y,1/2+z
1/2+x,1/2-y,1/2-z
1/2-x,1/2+y,1/2-z
1/2-x,1/2-y,1/2-z
1/2+x,1/2+y,1/2-z
1/2-x,1/2+y,1/2+z
1/2+x,1/2-y,1/2+z
loop_
_atom_site_type_symbol
_atom_site_label
_atom_site_fract_x
_atom_site_fract_y
_atom_site_fract_z
Si Si1 0.843104 0.418490 0.241611
Si Si2 0.334800 0.201158 0.296425
Si Si3 0.656007 0.327815 0.000000
Si Si4 0.749016 0.940083 0.500000
Si Si5 0.332995 0.500000 0.626417
O O1 0.827398 0.355890 0.260667
O O2 0.828940 0.431543 0.114171
O O3 0.732667 0.450598 0.310639
O O4 0.000000 0.433748 0.272610
O O5 0.500000 0.212706 0.310558
O O6 0.250000 0.250000 0.250000
O O7 0.249791 0.189391 0.402527
O O8 0.500000 0.305569 0.000000
O O9 0.647001 0.391097 0.000000
O O10 0.801710 0.000000 0.500000
O O11 0.500000 0.500000 0.636087
O O12 0.298463 0.500000 0.500000
#
# Coordination Sequence:
#
# PCOD9520016 Si02
#       5
#    16  16   8   8   8
#     4  10  21  38  62  90 117 152 194 238 293 357
#     4  10  21  39  61  87 117 153 194 243 297 352
#     4  10  21  36  56  86 122 156 192 239 287 347
#     4  10  19  33  57  95 124 149 182 236 298 351
#     4  11  25  42  57  80 118 159 200 245 290 341
#
# _framework density 18.287547
#
# number of rings (size 3 to 8) (size 9 to 14) (size 15 to 20)
#    0.000    1.857    1.429    2.143    0.000   11.143 
#    2.571    0.000    0.000    0.000    0.000    0.000 
#    0.000    0.000    0.000    0.000    0.000    0.000 
#
# Total GULP energy -155877.726255 kJ/mol
# GULP energy per Si atom -5567.061652 kJ/mol
# Density = 1.824592 g / cm^3
# Si number density = 18.287547 Si / 1000 Ang^3
#
#
#
# Elastic Constant Matrix: (Units=GPa)
#
#
# Indices 1 2 3 4 5 6 
#
# 1 174.8590 74.6205 65.2751 0.0000 0.0000 0.0000
# 2 74.6205 149.5494 54.5265 0.0000 0.0000 0.0000
# 3 65.2751 54.5265 79.8920 -0.0001 0.0001 0.0000
# 4 0.0000 0.0000 -0.0001 15.1543 0.0001 0.0000
# 5 0.0000 0.0000 0.0001 0.0001 -61.7095 0.0000
# 6 0.0000 0.0000 0.0000 0.0000 0.0000 31.7390
#
#
#
# Elastic Compliance Matrix: (Units=1/GPa)
#
#
# Indices 1 2 3 4 5 6 
#
# 1 0.008812 -0.002359 -0.005590 0.000000 0.000000 0.000000
# 2 -0.002359 0.009533 -0.004579 0.000000 0.000000 0.000000
# 3 -0.005590 -0.004579 0.020210 0.000000 0.000000 0.000000
# 4 0.000000 0.000000 0.000000 0.065988 0.000000 0.000000
# 5 0.000000 0.000000 0.000000 0.000000 -0.016205 0.000000
# 6 0.000000 0.000000 0.000000 0.000000 0.000000 0.031507
#
#
# Mechanical properties :
#
#
# Convention : Reuss Voigt Hill
#
# Bulk Modulus (GPa) = 74.08047 88.12717 81.10382
# Shear Modulus (GPa) = 33.46692 11.02865 22.24778
#
# Velocity S-wave (km/s) = 4.28254 2.45841 3.49170
# Velocity P-wave (km/s) = 8.06537 7.50684 7.79111
#
# Compressibility (1/GPa) = 0.01349884
#
# Stress axis : x y z
#
# Youngs Moduli (GPa) = 113.47734 104.89447 49.48154
#
# Poissons Ratio (x) = 0.24744 0.27661
# Poissons Ratio (y) = 0.26768 0.22659
# Poissons Ratio (z) = 0.63435 0.48034
#
# Static dielectric constant tensor:
#      x y z
#    x 1.602960 0.000000 0.000000 
#    y 0.000000 1.668410 0.000000 
#    z 0.000000 0.000000 1.585310 
# 
# From -- ./inp_files/18287.got.cif
#   From: 2010.05.17/outbox.cif.g08.bks.cpg/sg71_10_cif.got.tgz:18287.got - 2010.06.03 16:22:01.
