data_PCOD9520510
_publ_section_title
;
Structure prediction by ZEFSAII (Michael W. Deem and Ramdas Pophale) SiO2 
 PCOD9520510
Probable space group: I M M M
;
_chemical_formula_sum "Si O2"
_cell_formula_units_Z 42
_cell_length_a 5.213637
_cell_length_b 29.069339
_cell_length_c 13.741587
_cell_angle_alpha 90.000000
_cell_angle_beta 90.000000
_cell_angle_gamma 90.000000
_cell_volume 2082.633445
_symmetry_space_group_name_H-M "I M M M"
_symmetry_group_IT_number 71
_symmetry_cell_setting 'orthorhombic'
loop_
_space_group_symop_operation_xyz
x,y,z
-x,-y,z
x,-y,-z
-x,y,-z
-x,-y,-z
x,y,-z
-x,y,z
x,-y,z
1/2+x,1/2+y,1/2+z
1/2-x,1/2-y,1/2+z
1/2+x,1/2-y,1/2-z
1/2-x,1/2+y,1/2-z
1/2-x,1/2-y,1/2-z
1/2+x,1/2+y,1/2-z
1/2-x,1/2+y,1/2+z
1/2+x,1/2-y,1/2+z
loop_
_atom_site_type_symbol
_atom_site_label
_atom_site_fract_x
_atom_site_fract_y
_atom_site_fract_z
Si Si1 0.500000 0.500000 0.500000
Si Si2 0.000000 0.719106 0.265323
Si Si3 0.000000 0.359028 0.895191
Si Si4 0.500000 0.423442 0.673808
Si Si5 0.500000 0.133502 0.884834
Si Si6 0.500000 0.577022 0.891416
O O1 0.500000 0.460184 0.586612
O O2 0.250000 0.750000 0.250000
O O3 0.000000 0.679098 0.185641
O O4 0.000000 0.688015 0.362642
O O5 0.248586 0.391140 0.890199
O O6 0.000000 0.335304 0.000000
O O7 0.249949 0.391321 0.659974
O O8 0.500000 0.445095 0.783141
O O9 0.500000 0.125233 0.000000
O O10 0.500000 0.553743 0.000000
#
# Coordination Sequence:
#
# PCOD9520510 Si02
#       6
#     2   8   8   8   8   8
#     4  12  28  42  74 110 132 174 236 288 332 418
#     4  12  24  37  60  90 128 167 224 275 325 395
#     4  10  20  36  60  86 117 161 214 263 316 382
#     4  12  23  43  67  99 135 169 226 280 338 407
#     4  12  24  44  66  91 135 184 215 272 353 408
#     4  10  19  37  65  91 119 169 213 254 330 398
#
# _framework density 20.166774
#
# number of rings (size 3 to 8) (size 9 to 14) (size 15 to 20)
#    0.000    0.762    5.714    2.286    0.000    3.048 
#    0.000    0.476    0.000    0.000    0.000    6.667 
#    0.000    0.000    0.000    0.000    0.000    0.000 
#
# Total GULP energy -116910.597593 kJ/mol
# GULP energy per Si atom -5567.171314 kJ/mol
# Density = 2.012087 g / cm^3
# Si number density = 20.166774 Si / 1000 Ang^3
#
#
#
# Elastic Constant Matrix: (Units=GPa)
#
#
# Indices 1 2 3 4 5 6 
#
# 1 183.0424 58.3449 13.3112 0.0000 0.0000 0.0000
# 2 58.3449 108.6252 31.4634 0.0000 0.0000 0.0000
# 3 13.3112 31.4634 204.8016 0.0001 0.0000 0.0000
# 4 0.0000 0.0000 0.0001 41.5466 0.0000 0.0000
# 5 0.0000 0.0000 0.0000 0.0000 18.0012 0.0000
# 6 0.0000 0.0000 0.0000 0.0000 0.0000 -33.5433
#
#
#
# Elastic Compliance Matrix: (Units=1/GPa)
#
#
# Indices 1 2 3 4 5 6 
#
# 1 0.006595 -0.003577 0.000121 0.000000 0.000000 0.000000
# 2 -0.003577 0.011575 -0.001546 0.000000 0.000000 0.000000
# 3 0.000121 -0.001546 0.005112 0.000000 0.000000 0.000000
# 4 0.000000 0.000000 0.000000 0.024069 0.000000 0.000000
# 5 0.000000 0.000000 0.000000 0.000000 0.055552 0.000000
# 6 0.000000 0.000000 0.000000 0.000000 0.000000 -0.029812
#
#
# Mechanical properties :
#
#
# Convention : Reuss Voigt Hill
#
# Bulk Modulus (GPa) = 75.31184 78.07870 76.69527
# Shear Modulus (GPa) = 57.12910 31.42420 44.27665
#
# Velocity S-wave (km/s) = 5.32821 3.95171 4.69073
# Velocity P-wave (km/s) = 8.67633 7.72152 8.21281
#
# Compressibility (1/GPa) = 0.01327813
#
# Stress axis : x y z
#
# Youngs Moduli (GPa) = 151.63824 86.39257 195.60329
#
# Poissons Ratio (x) = 0.30904 -0.02365
# Poissons Ratio (y) = 0.54243 0.30236
# Poissons Ratio (z) = -0.01834 0.13354
#
# Static dielectric constant tensor:
#      x y z
#    x 1.684070 0.000000 0.000000 
#    y 0.000000 1.649880 0.000000 
#    z 0.000000 0.000000 1.808270 
# 
# From -- ./inp_files/30487.got.cif
#   From: 2010.05.17/outbox.cif.g08.bks.cpg/sg71_16_cif.got.tgz:30487.got - 2010.06.03 16:22:01.
