data_PCOD9520990
_publ_section_title
;
Structure prediction by ZEFSAII (Michael W. Deem and Ramdas Pophale) SiO2 
 PCOD9520990
Probable space group: I M M M
;
_chemical_formula_sum "Si O2"
_cell_formula_units_Z 112
_cell_length_a 30.851815
_cell_length_b 13.149764
_cell_length_c 12.919622
_cell_angle_alpha 90.000000
_cell_angle_beta 90.000000
_cell_angle_gamma 90.000000
_cell_volume 5241.414242
_symmetry_space_group_name_H-M "I M M M"
_symmetry_group_IT_number 71
_symmetry_cell_setting 'orthorhombic'
loop_
_space_group_symop_operation_xyz
x,y,z
-x,-y,z
x,-y,-z
-x,y,-z
-x,-y,-z
x,y,-z
-x,y,z
x,-y,z
1/2+x,1/2+y,1/2+z
1/2-x,1/2-y,1/2+z
1/2+x,1/2-y,1/2-z
1/2-x,1/2+y,1/2-z
1/2-x,1/2-y,1/2-z
1/2+x,1/2+y,1/2-z
1/2-x,1/2+y,1/2+z
1/2+x,1/2-y,1/2+z
loop_
_atom_site_type_symbol
_atom_site_label
_atom_site_fract_x
_atom_site_fract_y
_atom_site_fract_z
Si Si1 0.547215 0.666125 0.162094
Si Si2 0.143467 0.108884 0.380710
Si Si3 0.119140 0.385863 0.835049
Si Si4 0.218375 0.383442 0.826821
Si Si5 0.291074 0.224363 0.118916
Si Si6 0.048733 0.219612 0.888201
Si Si7 0.921771 0.386959 0.617320
O O1 0.500000 0.628427 0.127643
O O2 0.591715 0.622684 0.118608
O O3 0.551176 0.651975 0.285787
O O4 0.549321 0.787644 0.138497
O O5 0.157741 0.105358 0.500000
O O6 0.168686 0.206430 0.339321
O O7 0.154096 0.000000 0.331002
O O8 0.107698 0.500000 0.869234
O O9 0.168871 0.366869 0.862215
O O10 0.085493 0.304481 0.877636
O O11 0.112840 0.385541 0.709891
O O12 0.230439 0.500000 0.849027
O O13 0.250944 0.303122 0.876219
O O14 0.218159 0.362225 0.702984
O O15 0.298103 0.191266 0.000000
O O16 0.000000 0.265454 0.883931
O O17 0.053004 0.168177 0.000000
O O18 0.904444 0.376550 0.500000
O O19 0.942664 0.500000 0.622987
#
# Coordination Sequence:
#
# PCOD9520990 Si02
#       7
#    16  16  16  16  16  16  16
#     4  10  20  33  50  74 103 133 171 221 268 309
#     4  10  21  37  57  79 104 137 174 211 259 323
#     4   9  18  31  47  71 102 134 171 216 261 303
#     4  10  21  36  56  84 113 140 176 224 273 318
#     4  10  21  38  59  81 108 145 184 219 262 321
#     4   9  18  32  49  69  97 137 179 215 256 307
#     4   9  17  29  46  70 103 142 176 205 249 314
#
# _framework density 21.368279000000001
#
# number of rings (size 3 to 8) (size 9 to 14) (size 15 to 20)
#    0.000    2.429    0.000    2.571    0.000    5.714 
#    0.000    7.857    0.000    0.429    0.000    2.000 
#    0.000    0.000    0.000    0.000    0.000    0.000 
#
# Total GULP energy -312272.296316 kJ/mol
# GULP energy per Si atom -5576.291006 kJ/mol
# Density = 2.131964 g / cm^3
# Si number density = 21.368279 Si / 1000 Ang^3
#
#
#
# Elastic Constant Matrix: (Units=GPa)
#
#
# Indices 1 2 3 4 5 6 
#
# 1 76.0043 -4.3280 -11.0497 0.0000 0.0000 0.0000
# 2 -4.3280 40.1951 -7.1726 0.0000 0.0000 0.0000
# 3 -11.0497 -7.1726 97.6311 0.0000 0.0000 0.0000
# 4 0.0000 0.0000 0.0000 8.3309 0.0000 0.0000
# 5 0.0000 0.0000 0.0000 0.0000 12.8450 0.0000
# 6 0.0000 0.0000 0.0000 0.0000 0.0000 3.3230
#
#
#
# Elastic Compliance Matrix: (Units=1/GPa)
#
#
# Indices 1 2 3 4 5 6 
#
# 1 0.013498 0.001749 0.001656 0.000000 0.000000 0.000000
# 2 0.001749 0.025436 0.002067 0.000000 0.000000 0.000000
# 3 0.001656 0.002067 0.010582 0.000000 0.000000 0.000000
# 4 0.000000 0.000000 0.000000 0.120035 0.000000 0.000000
# 5 0.000000 0.000000 0.000000 0.000000 0.077851 0.000000
# 6 0.000000 0.000000 0.000000 0.000000 0.000000 0.300930
#
#
# Mechanical properties :
#
#
# Convention : Reuss Voigt Hill
#
# Bulk Modulus (GPa) = 16.54034 18.74777 17.64406
# Shear Modulus (GPa) = 8.96795 20.65852 14.81323
#
# Velocity S-wave (km/s) = 2.05084 3.11269 2.63579
# Velocity P-wave (km/s) = 3.65587 4.65952 4.18787
#
# Compressibility (1/GPa) = 0.06045825
#
# Stress axis : x y z
#
# Youngs Moduli (GPa) = 74.08778 39.31479 94.50102
#
# Poissons Ratio (x) = -0.06876 -0.15650
# Poissons Ratio (y) = -0.12957 -0.19530
# Poissons Ratio (z) = -0.12270 -0.08125
#
# Static dielectric constant tensor:
#      x y z
#    x 1.776100 0.000000 0.000000 
#    y 0.000000 1.806970 0.000000 
#    z 0.000000 0.000000 1.808430 
# 
# From -- ./inp_files/40347.got.cif
#   From: 2010.05.17/outbox.cif.g08.bks.cpg/sg71_21_cif.got.tgz:40347.got - 2010.06.03 16:22:01.
