data_PCOD9520575
_publ_section_title
;
Structure prediction by ZEFSAII (Michael W. Deem and Ramdas Pophale) SiO2 
 PCOD9520575
Probable space group: I M M M
;
_chemical_formula_sum "Si O2"
_cell_formula_units_Z 96
_cell_length_a 19.902481
_cell_length_b 30.691066
_cell_length_c 7.426183
_cell_angle_alpha 90.000000
_cell_angle_beta 90.000000
_cell_angle_gamma 90.000000
_cell_volume 4536.123168
_symmetry_space_group_name_H-M "I M M M"
_symmetry_group_IT_number 71
_symmetry_cell_setting 'orthorhombic'
loop_
_space_group_symop_operation_xyz
x,y,z
-x,-y,z
x,-y,-z
-x,y,-z
-x,-y,-z
x,y,-z
-x,y,z
x,-y,z
1/2+x,1/2+y,1/2+z
1/2-x,1/2-y,1/2+z
1/2+x,1/2-y,1/2-z
1/2-x,1/2+y,1/2-z
1/2-x,1/2-y,1/2-z
1/2+x,1/2+y,1/2-z
1/2-x,1/2+y,1/2+z
1/2+x,1/2-y,1/2+z
loop_
_atom_site_type_symbol
_atom_site_label
_atom_site_fract_x
_atom_site_fract_y
_atom_site_fract_z
Si Si1 0.427225 0.861051 0.713111
Si Si2 0.074340 0.741832 0.282628
Si Si3 0.781276 0.622826 0.778686
Si Si4 0.575848 0.620994 0.288549
Si Si5 0.318226 0.693085 0.202451
Si Si6 0.823272 0.049305 0.283089
O O1 0.428600 0.870151 0.500000
O O2 0.500000 0.874527 0.788209
O O3 0.422154 0.808914 0.736477
O O4 0.357786 0.880434 0.783180
O O5 0.075015 0.746294 0.500000
O O6 0.139274 0.767727 0.212400
O O7 0.000000 0.758051 0.221815
O O8 0.745700 0.667945 0.717049
O O9 0.735665 0.582087 0.722011
O O10 0.780095 0.624211 0.000000
O O11 0.576687 0.631933 0.500000
O O12 0.500000 0.623657 0.221782
O O13 0.625952 0.654658 0.194874
O O14 0.607555 0.573226 0.266638
O O15 0.298927 0.706706 0.000000
O O16 0.819844 0.048191 0.500000
O O17 0.817810 0.000000 0.217016
#
# Coordination Sequence:
#
# PCOD9520575 Si02
#       6
#    16  16  16  16  16  16
#     4   9  17  29  45  64  88 119 148 176 221 277
#     4   9  17  28  42  62  88 117 151 190 224 253
#     4   8  15  29  47  66  87 111 145 186 222 261
#     4  10  20  31  44  66  96 125 150 181 220 257
#     4   9  17  30  47  64  86 121 160 192 220 251
#     4   9  18  33  52  69  85 112 149 185 221 263
#
# _framework density 21.163447000000001
#
# number of rings (size 3 to 8) (size 9 to 14) (size 15 to 20)
#    0.000    3.000    0.000    2.000    0.000    4.000 
#    0.000    6.667    0.000    0.500    0.000    3.500 
#    0.000    0.000    0.000   10.167    0.000   11.000 
#
# Total GULP energy -267718.134405 kJ/mol
# GULP energy per Si atom -5577.461133 kJ/mol
# Density = 2.111528 g / cm^3
# Si number density = 21.163447 Si / 1000 Ang^3
#
#
#
# Elastic Constant Matrix: (Units=GPa)
#
#
# Indices 1 2 3 4 5 6 
#
# 1 121.6364 -2.4763 -2.2751 -0.0002 0.0000 0.0000
# 2 -2.4763 20.8928 -10.5936 -0.0001 0.0000 0.0000
# 3 -2.2751 -10.5936 75.2119 -0.0002 -0.0005 -0.0001
# 4 -0.0002 -0.0001 -0.0002 42.1667 0.0003 0.0004
# 5 0.0000 0.0000 -0.0005 0.0003 8.6825 -0.0002
# 6 0.0000 0.0000 -0.0001 0.0004 -0.0002 2.8235
#
#
#
# Elastic Compliance Matrix: (Units=1/GPa)
#
#
# Indices 1 2 3 4 5 6 
#
# 1 0.008253 0.001190 0.000417 0.000000 0.000000 0.000000
# 2 0.001190 0.051716 0.007320 0.000000 0.000000 0.000000
# 3 0.000417 0.007320 0.014339 0.000000 0.000001 0.000001
# 4 0.000000 0.000000 0.000000 0.023715 -0.000001 -0.000003
# 5 0.000000 0.000000 0.000001 -0.000001 0.115175 0.000008
# 6 0.000000 0.000000 0.000001 -0.000003 0.000008 0.354166
#
#
# Mechanical properties :
#
#
# Convention : Reuss Voigt Hill
#
# Bulk Modulus (GPa) = 10.85033 20.78347 15.81690
# Shear Modulus (GPa) = 8.61725 26.27361 17.44543
#
# Velocity S-wave (km/s) = 2.02005 3.52726 2.87421
# Velocity P-wave (km/s) = 3.25251 5.14106 4.30171
#
# Compressibility (1/GPa) = 0.09216312
#
# Stress axis : x y z
#
# Youngs Moduli (GPa) = 121.16445 19.33636 69.73775
#
# Poissons Ratio (x) = -0.02301 -0.02910
# Poissons Ratio (y) = -0.14416 -0.51050
# Poissons Ratio (z) = -0.05055 -0.14155
#
# Static dielectric constant tensor:
#      x y z
#    x 1.802990 0.000000 0.000000 
#    y 0.000000 1.735000 0.000000 
#    z 0.000000 0.000000 1.837800 
# 
# From -- ./inp_files/10954.got.cif
#   From: 2010.05.17/outbox.cif.g08.bks.cpg/sg71_6_cif.got.tgz:10954.got - 2010.06.03 16:22:01.
