data_PCOD9520615
_publ_section_title
;
Structure prediction by ZEFSAII (Michael W. Deem and Ramdas Pophale) SiO2 
 PCOD9520615
Probable space group: I M M M
;
_chemical_formula_sum "Si O2"
_cell_formula_units_Z 104
_cell_length_a 9.533276
_cell_length_b 31.220317
_cell_length_c 20.057808
_cell_angle_alpha 90.000000
_cell_angle_beta 90.000000
_cell_angle_gamma 90.000000
_cell_volume 5969.843480
_symmetry_space_group_name_H-M "I M M M"
_symmetry_group_IT_number 71
_symmetry_cell_setting 'orthorhombic'
loop_
_space_group_symop_operation_xyz
x,y,z
-x,-y,z
x,-y,-z
-x,y,-z
-x,-y,-z
x,y,-z
-x,y,z
x,-y,z
1/2+x,1/2+y,1/2+z
1/2-x,1/2-y,1/2+z
1/2+x,1/2-y,1/2-z
1/2-x,1/2+y,1/2-z
1/2-x,1/2-y,1/2-z
1/2+x,1/2+y,1/2-z
1/2-x,1/2+y,1/2+z
1/2+x,1/2-y,1/2+z
loop_
_atom_site_type_symbol
_atom_site_label
_atom_site_fract_x
_atom_site_fract_y
_atom_site_fract_z
Si Si1 0.331053 0.763231 0.422744
Si Si2 0.330216 0.680439 0.656206
Si Si3 0.828705 0.000000 0.923262
Si Si4 0.837925 0.191304 0.304908
Si Si5 0.171006 0.917128 0.841203
Si Si6 0.840295 0.088268 0.308459
Si Si7 0.836354 0.448590 0.072797
O O1 0.291746 0.771935 0.500000
O O2 0.500000 0.769065 0.417398
O O3 0.298546 0.714110 0.401697
O O4 0.253297 0.790697 0.365787
O O5 0.500000 0.678242 0.662208
O O6 0.283022 0.698420 0.728876
O O7 0.282037 0.631650 0.643322
O O8 0.782028 0.956221 0.887256
O O9 0.000000 0.000000 0.920810
O O10 0.786530 0.000000 0.000000
O O11 0.841135 0.139730 0.309138
O O12 0.000000 0.206788 0.309887
O O13 0.209917 0.925856 0.764540
O O14 0.000000 0.916295 0.843647
O O15 0.747003 0.071236 0.367288
O O16 0.000000 0.073154 0.316845
O O17 0.827084 0.500000 0.075405
O O18 0.000000 0.437191 0.077086
O O19 0.783316 0.434519 0.000000
#
# Coordination Sequence:
#
# PCOD9520615 Si02
#       7
#    16  16   8  16  16  16  16
#     4  10  20  31  46  71  97 123 158 197 239 285
#     4   8  15  30  48  64  89 125 161 195 232 278
#     4   9  16  24  38  66 102 133 154 178 229 293
#     4   9  18  33  50  68  92 124 160 196 237 282
#     4   8  15  27  43  67  97 125 155 194 236 275
#     4   9  18  31  49  71  93 122 160 199 237 277
#     4   9  19  34  48  65  93 126 157 193 239 285
#
# _framework density 17.420891999999998
#
# number of rings (size 3 to 8) (size 9 to 14) (size 15 to 20)
#    0.000    3.154    0.000    2.769    1.077    2.769 
#    0.000    6.923    0.000    0.923    0.000    0.000 
#    0.000    1.231    0.000    0.000    0.000    0.154 
#
# Total GULP energy -289489.199907 kJ/mol
# GULP energy per Si atom -5567.099998 kJ/mol
# Density = 1.738124 g / cm^3
# Si number density = 17.420892 Si / 1000 Ang^3
#
#
#
# Elastic Constant Matrix: (Units=GPa)
#
#
# Indices 1 2 3 4 5 6 
#
# 1 10.7681 12.1726 23.3593 0.0000 0.0000 0.0012
# 2 12.1726 58.0184 59.5089 0.0000 0.0000 0.0025
# 3 23.3593 59.5089 122.5528 0.0000 -0.0001 0.0026
# 4 0.0000 0.0000 0.0000 19.0762 -0.0001 0.0031
# 5 0.0000 0.0000 -0.0001 -0.0001 8.0662 0.0016
# 6 0.0012 0.0025 0.0026 0.0031 0.0016-2056.7184
#
#
#
# Elastic Compliance Matrix: (Units=1/GPa)
#
#
# Indices 1 2 3 4 5 6 
#
# 1 0.158930 -0.004529 -0.028094 0.000000 0.000000 0.000000
# 2 -0.004529 0.034467 -0.015873 0.000000 0.000000 0.000000
# 3 -0.028094 -0.015873 0.021222 0.000000 0.000000 0.000000
# 4 0.000000 0.000000 0.000000 0.052421 0.000000 0.000000
# 5 0.000000 0.000000 0.000000 0.000000 0.123974 0.000000
# 6 0.000000 0.000000 0.000000 0.000000 0.000000 -0.000486
#
#
# Mechanical properties :
#
#
# Convention : Reuss Voigt Hill
#
# Bulk Modulus (GPa) = 8.50139 42.38011 25.44075
# Shear Modulus (GPa) = 9.49251 -399.49531 -195.00140
#
# Velocity S-wave (km/s) = 2.33683 -15.15973 -10.59143
# Velocity P-wave (km/s) = 3.48878 16.79415 11.61619
#
# Compressibility (1/GPa) = 0.11762784
#
# Stress axis : x y z
#
# Youngs Moduli (GPa) = 6.29206 29.01313 47.12010
#
# Poissons Ratio (x) = 0.13139 1.32380
# Poissons Ratio (y) = 0.02849 0.74795
# Poissons Ratio (z) = 0.17677 0.46053
#
# Static dielectric constant tensor:
#      x y z
#    x 1.577880 0.000000 0.000000 
#    y 0.000000 1.609770 0.000000 
#    z 0.000000 0.000000 1.588240 
# 
# From -- ./inp_files/43995.got.cif
#   From: 2010.05.17/outbox.cif.g08.bks.cpg/sg71_22_cif.got.tgz:43995.got - 2010.06.03 16:22:01.
