data_PCOD9520410
_publ_section_title
;
Structure prediction by ZEFSAII (Michael W. Deem and Ramdas Pophale) SiO2 
 PCOD9520410
Probable space group: I M M M
;
_chemical_formula_sum "Si O2"
_cell_formula_units_Z 52
_cell_length_a 10.532941
_cell_length_b 11.339433
_cell_length_c 22.923805
_cell_angle_alpha 90.000000
_cell_angle_beta 90.000000
_cell_angle_gamma 90.000000
_cell_volume 2737.963765
_symmetry_space_group_name_H-M "I M M M"
_symmetry_group_IT_number 71
_symmetry_cell_setting 'orthorhombic'
loop_
_space_group_symop_operation_xyz
x,y,z
-x,-y,z
x,-y,-z
-x,y,-z
-x,-y,-z
x,y,-z
-x,y,z
x,-y,z
1/2+x,1/2+y,1/2+z
1/2-x,1/2-y,1/2+z
1/2+x,1/2-y,1/2-z
1/2-x,1/2+y,1/2-z
1/2-x,1/2-y,1/2-z
1/2+x,1/2+y,1/2-z
1/2-x,1/2+y,1/2+z
1/2+x,1/2-y,1/2+z
loop_
_atom_site_type_symbol
_atom_site_label
_atom_site_fract_x
_atom_site_fract_y
_atom_site_fract_z
Si Si1 0.500000 0.642518 0.198143
Si Si2 0.853441 0.140197 0.500000
Si Si3 0.000000 0.767854 0.829438
Si Si4 0.272845 0.742958 0.879513
Si Si5 0.218535 0.500000 0.432956
Si Si6 0.000000 0.000000 0.094267
O O1 0.500000 0.500000 0.203763
O O2 0.500000 0.705050 0.261005
O O3 0.621534 0.686408 0.161924
O O4 0.783082 0.183812 0.442658
O O5 0.000000 0.184741 0.500000
O O6 0.859011 0.000000 0.500000
O O7 0.135369 0.717302 0.850746
O O8 0.000000 0.889994 0.863646
O O9 0.304912 0.881145 0.894855
O O10 0.164414 0.500000 0.500000
O O11 0.370418 0.500000 0.440210
#
# Coordination Sequence:
#
# PCOD9520410 Si02
#       6
#     8   8   8  16   8   4
#     4  12  24  44  66  88 126 178 218 251 311 388
#     4  11  22  42  66  93 128 173 213 247 310 390
#     4  10  22  42  64  93 125 162 217 265 313 360
#     4  11  23  40  67  96 126 167 209 265 317 375
#     4  10  19  35  60  95 127 155 201 258 323 370
#     4   8  17  34  60  88 120 161 200 250 314 382
#
# _framework density 18.992217
#
# number of rings (size 3 to 8) (size 9 to 14) (size 15 to 20)
#    0.000    1.385    3.846    2.077    0.000    1.231 
#    0.000    5.385    6.769    0.000    0.000    0.000 
#    0.000    0.000    0.000    0.000    0.000    0.000 
#
# Total GULP energy -144940.176140 kJ/mol
# GULP energy per Si atom -5574.622159 kJ/mol
# Density = 1.894899 g / cm^3
# Si number density = 18.992217 Si / 1000 Ang^3
#
#
#
# Elastic Constant Matrix: (Units=GPa)
#
#
# Indices 1 2 3 4 5 6 
#
# 1 162.8090 39.8392 88.7622 0.0000 0.0000 0.0000
# 2 39.8392 71.8811 37.7228 0.0000 0.0000 0.0000
# 3 88.7622 37.7228 192.3466 0.0000 0.0000 0.0000
# 4 0.0000 0.0000 0.0000 14.2869 0.0000 0.0000
# 5 0.0000 0.0000 0.0000 0.0000 12.6016 0.0000
# 6 0.0000 0.0000 0.0000 0.0000 0.0000 0.0171
#
#
#
# Elastic Compliance Matrix: (Units=1/GPa)
#
#
# Indices 1 2 3 4 5 6 
#
# 1 0.008768 -0.003050 -0.003448 0.000000 0.000000 0.000000
# 2 -0.003050 0.016569 -0.001842 0.000000 0.000000 0.000000
# 3 -0.003448 -0.001842 0.007151 0.000000 0.000000 0.000000
# 4 0.000000 0.000000 0.000000 0.069994 0.000000 -0.000001
# 5 0.000000 0.000000 0.000000 0.000000 0.079355 0.000000
# 6 0.000000 0.000000 0.000000 -0.000001 0.000000 58.631938
#
#
# Mechanical properties :
#
#
# Convention : Reuss Voigt Hill
#
# Bulk Modulus (GPa) = 63.25798 84.40944 73.83371
# Shear Modulus (GPa) = 0.08498 22.76196 11.42347
#
# Velocity S-wave (km/s) = 0.21176 3.46568 2.45517
# Velocity P-wave (km/s) = 5.78268 7.78173 6.85546
#
# Compressibility (1/GPa) = 0.01580828
#
# Stress axis : x y z
#
# Youngs Moduli (GPa) = 114.04494 60.35357 139.83255
#
# Poissons Ratio (x) = 0.18409 0.48217
# Poissons Ratio (y) = 0.34786 0.25756
# Poissons Ratio (z) = 0.39325 0.11117
#
# Static dielectric constant tensor:
#      x y z
#    x 1.702660 0.000000 0.000000 
#    y 0.000000 1.664520 0.000000 
#    z 0.000000 0.000000 1.633370 
# 
# From -- ./inp_files/51435.got.cif
#   From: 2010.05.17/outbox.cif.g08.bks.cpg/sg71_26_cif.got.tgz:51435.got - 2010.06.03 16:22:01.
