data_PCOD9520485
_publ_section_title
;
Structure prediction by ZEFSAII (Michael W. Deem and Ramdas Pophale) SiO2 
 PCOD9520485
Probable space group: I M M M
;
_chemical_formula_sum "Si O2"
_cell_formula_units_Z 104
_cell_length_a 23.524200
_cell_length_b 14.812657
_cell_length_c 15.183021
_cell_angle_alpha 90.000000
_cell_angle_beta 90.000000
_cell_angle_gamma 90.000000
_cell_volume 5290.613335
_symmetry_space_group_name_H-M "I M M M"
_symmetry_group_IT_number 71
_symmetry_cell_setting 'orthorhombic'
loop_
_space_group_symop_operation_xyz
x,y,z
-x,-y,z
x,-y,-z
-x,y,-z
-x,-y,-z
x,y,-z
-x,y,z
x,-y,z
1/2+x,1/2+y,1/2+z
1/2-x,1/2-y,1/2+z
1/2+x,1/2-y,1/2-z
1/2-x,1/2+y,1/2-z
1/2-x,1/2-y,1/2-z
1/2+x,1/2+y,1/2-z
1/2-x,1/2+y,1/2+z
1/2+x,1/2-y,1/2+z
loop_
_atom_site_type_symbol
_atom_site_label
_atom_site_fract_x
_atom_site_fract_y
_atom_site_fract_z
Si Si1 0.265534 0.596042 0.708757
Si Si2 0.243764 0.362755 0.095880
Si Si3 0.564936 0.219177 0.769381
Si Si4 0.388439 0.889731 0.399641
Si Si5 0.329619 0.807648 0.898268
Si Si6 0.436980 0.608404 0.500000
Si Si7 0.889209 0.890637 0.188913
O O1 0.279825 0.500000 0.667462
O O2 0.255141 0.589978 0.812109
O O3 0.209920 0.628178 0.660174
O O4 0.325110 0.646772 0.700976
O O5 0.175719 0.349477 0.098763
O O6 0.287870 0.279633 0.098669
O O7 0.254115 0.405348 0.000000
O O8 0.500000 0.199237 0.794749
O O9 0.580204 0.159981 0.681492
O O10 0.611395 0.202654 0.846027
O O11 0.571271 0.325696 0.746109
O O12 0.411692 0.875501 0.500000
O O13 0.385508 0.000000 0.386654
O O14 0.338206 0.835642 0.000000
O O15 0.442434 0.500000 0.500000
O O16 0.500000 0.648547 0.500000
O O17 0.404750 0.629363 0.411410
O O18 0.894903 0.000000 0.206725
#
# Coordination Sequence:
#
# PCOD9520485 Si02
#       7
#    16  16  16  16  16   8  16
#     4  11  21  36  62  93 124 154 194 250 316 380
#     4  10  19  36  64  91 120 155 188 236 307 374
#     4  12  25  41  63  86 116 168 222 257 300 361
#     4  10  22  40  63  95 130 158 193 250 316 378
#     4  11  24  41  60  87 124 161 205 260 309 358
#     4   9  18  34  54  80 121 163 196 236 291 358
#     4  10  22  38  60  92 126 160 202 253 308 373
#
# _framework density 19.657457000000001
#
# number of rings (size 3 to 8) (size 9 to 14) (size 15 to 20)
#    0.000    1.462    3.077    2.308    2.154    3.077 
#    0.000    0.769    0.000    0.462    0.000    3.231 
#    0.000    0.000    0.000    0.000    0.000    0.000 
#
# Total GULP energy -289482.056072 kJ/mol
# GULP energy per Si atom -5566.962617 kJ/mol
# Density = 1.961272 g / cm^3
# Si number density = 19.657457 Si / 1000 Ang^3
#
#
#
# Elastic Constant Matrix: (Units=GPa)
#
#
# Indices 1 2 3 4 5 6 
#
# 1 115.2183 20.8234 48.6728 0.0000 0.0000 0.0000
# 2 20.8234 58.0477 28.9222 0.0000 0.0000 0.0000
# 3 48.6728 28.9222 136.3827 0.0000 0.0000 0.0000
# 4 0.0000 0.0000 0.0000 -48.8291 0.0000 0.0000
# 5 0.0000 0.0000 0.0000 0.0000 4.3879 0.0000
# 6 0.0000 0.0000 0.0000 0.0000 0.0000 13.2845
#
#
#
# Elastic Compliance Matrix: (Units=1/GPa)
#
#
# Indices 1 2 3 4 5 6 
#
# 1 0.010447 -0.002113 -0.003280 0.000000 0.000000 0.000000
# 2 -0.002113 0.019690 -0.003421 0.000000 0.000000 0.000000
# 3 -0.003280 -0.003421 0.009229 0.000000 0.000000 0.000000
# 4 0.000000 0.000000 0.000000 -0.020480 0.000000 0.000000
# 5 0.000000 0.000000 0.000000 0.000000 0.227900 0.000000
# 6 0.000000 0.000000 0.000000 0.000000 0.000000 0.075275
#
#
# Mechanical properties :
#
#
# Convention : Reuss Voigt Hill
#
# Bulk Modulus (GPa) = 46.00726 56.27618 51.14172
# Shear Modulus (GPa) = 14.41189 7.85069 11.13129
#
# Velocity S-wave (km/s) = 2.71061 2.00060 2.38221
# Velocity P-wave (km/s) = 5.76644 5.83328 5.79996
#
# Compressibility (1/GPa) = 0.02173570
#
# Stress axis : x y z
#
# Youngs Moduli (GPa) = 95.72346 50.78723 108.35995
#
# Poissons Ratio (x) = 0.10733 0.35544
# Poissons Ratio (y) = 0.20229 0.37074
# Poissons Ratio (z) = 0.31399 0.17376
#
# Static dielectric constant tensor:
#      x y z
#    x 1.698740 0.000000 0.000000 
#    y 0.000000 3.416600 0.000000 
#    z 0.000000 0.000000 1.773400 
# 
# From -- ./inp_files/38097.got.cif
#   From: 2010.05.17/outbox.cif.g08.bks.cpg/sg71_20_cif.got.tgz:38097.got - 2010.06.03 16:22:01.
