data_PCOD9520893
_publ_section_title
;
Structure prediction by ZEFSAII (Michael W. Deem and Ramdas Pophale) SiO2 
 PCOD9520893
Probable space group: I M M M
;
_chemical_formula_sum "Si O2"
_cell_formula_units_Z 80
_cell_length_a 20.167805
_cell_length_b 26.613435
_cell_length_c 8.663726
_cell_angle_alpha 90.000000
_cell_angle_beta 90.000000
_cell_angle_gamma 90.000000
_cell_volume 4650.121227
_symmetry_space_group_name_H-M "I M M M"
_symmetry_group_IT_number 71
_symmetry_cell_setting 'orthorhombic'
loop_
_space_group_symop_operation_xyz
x,y,z
-x,-y,z
x,-y,-z
-x,y,-z
-x,-y,-z
x,y,-z
-x,y,z
x,-y,z
1/2+x,1/2+y,1/2+z
1/2-x,1/2-y,1/2+z
1/2+x,1/2-y,1/2-z
1/2-x,1/2+y,1/2-z
1/2-x,1/2-y,1/2-z
1/2+x,1/2+y,1/2-z
1/2-x,1/2+y,1/2+z
1/2+x,1/2-y,1/2+z
loop_
_atom_site_type_symbol
_atom_site_label
_atom_site_fract_x
_atom_site_fract_y
_atom_site_fract_z
Si Si1 0.923642 0.890707 0.810928
Si Si2 0.922892 0.393123 0.315364
Si Si3 0.825429 0.690876 0.815279
Si Si4 0.179291 0.193974 0.186556
Si Si5 0.580397 0.000000 0.678501
Si Si6 0.080667 0.000000 0.177987
O O1 0.875364 0.846238 0.763430
O O2 0.000000 0.882400 0.764650
O O3 0.900766 0.945931 0.754327
O O4 0.923540 0.892564 0.000000
O O5 0.921634 0.392973 0.500000
O O6 0.877088 0.348729 0.252557
O O7 0.898917 0.447850 0.257272
O O8 0.000000 0.386605 0.265284
O O9 0.839794 0.748917 0.770104
O O10 0.750962 0.681356 0.755747
O O11 0.826992 0.687691 0.000000
O O12 0.184328 0.192447 0.000000
O O13 0.500000 0.000000 0.686733
O O14 0.600172 0.000000 0.500000
O O15 0.000000 0.000000 0.174364
O O16 0.103799 0.000000 0.000000
#
# Coordination Sequence:
#
# PCOD9520893 Si02
#       6
#    16  16  16  16   8   8
#     4   8  13  23  42  68  94 119 150 190 236 287
#     4  10  20  34  53  76 101 129 163 204 248 296
#     4  10  20  33  49  68  94 130 167 204 249 298
#     4   9  18  32  49  68  94 129 166 205 248 295
#     4   9  17  31  52  77 104 131 159 195 242 295
#     4   7  10  18  35  62  94 119 139 175 230 281
#
# _framework density 17.203852999999999
#
# number of rings (size 3 to 8) (size 9 to 14) (size 15 to 20)
#    0.000    3.000    0.000    2.700    0.000    4.000 
#    0.000    3.000    0.000    3.000    0.000    0.000 
#    0.000    2.400    0.000    0.000    0.000    0.000 
#
# Total GULP energy -222799.521792 kJ/mol
# GULP energy per Si atom -5569.988045 kJ/mol
# Density = 1.716470 g / cm^3
# Si number density = 17.203853 Si / 1000 Ang^3
#
#
#
# Elastic Constant Matrix: (Units=GPa)
#
#
# Indices 1 2 3 4 5 6 
#
# 1 88.0678 110.2934 26.3950 0.0000 0.0000 0.0000
# 2 110.2934 185.3525 39.0519 0.0000 0.0000 0.0000
# 3 26.3950 39.0519 26.2189 0.0000 0.0000 0.0000
# 4 0.0000 0.0000 0.0000 20.8317 0.0000 0.0000
# 5 0.0000 0.0000 0.0000 0.0000 19.7840 0.0000
# 6 0.0000 0.0000 0.0000 0.0000 0.0000 -20.1636
#
#
#
# Elastic Compliance Matrix: (Units=1/GPa)
#
#
# Indices 1 2 3 4 5 6 
#
# 1 0.045696 -0.025501 -0.008019 0.000000 0.000000 0.000000
# 2 -0.025501 0.022094 -0.007236 0.000000 0.000000 0.000000
# 3 -0.008019 -0.007236 0.056991 0.000000 0.000000 0.000000
# 4 0.000000 0.000000 0.000000 0.048004 0.000000 0.000000
# 5 0.000000 0.000000 0.000000 0.000000 0.050546 0.000000
# 6 0.000000 0.000000 0.000000 0.000000 0.000000 -0.049594
#
#
# Mechanical properties :
#
#
# Convention : Reuss Voigt Hill
#
# Bulk Modulus (GPa) = 23.11182 72.34665 47.72924
# Shear Modulus (GPa) = 18.54113 12.35033 15.44573
#
# Velocity S-wave (km/s) = 3.28644 2.68224 2.99959
# Velocity P-wave (km/s) = 5.27866 7.19280 6.30875
#
# Compressibility (1/GPa) = 0.04326790
#
# Stress axis : x y z
#
# Youngs Moduli (GPa) = 21.88395 45.26088 17.54677
#
# Poissons Ratio (x) = 1.15422 0.14071
# Poissons Ratio (y) = 0.55807 0.12696
# Poissons Ratio (z) = 0.17549 0.32749
#
# Static dielectric constant tensor:
#      x y z
#    x 1.553330 0.000000 0.000000 
#    y 0.000000 1.601350 0.000000 
#    z 0.000000 0.000000 1.579700 
# 
# From -- ./inp_files/10241.got.cif
#   From: 2010.05.17/outbox.cif.g08.bks.cpg/sg71_6_cif.got.tgz:10241.got - 2010.06.03 16:22:01.
