data_PCOD9520598
_publ_section_title
;
Structure prediction by ZEFSAII (Michael W. Deem and Ramdas Pophale) SiO2 
 PCOD9520598
Probable space group: I M M M
;
_chemical_formula_sum "Si O2"
_cell_formula_units_Z 96
_cell_length_a 9.908247
_cell_length_b 32.015039
_cell_length_c 14.805567
_cell_angle_alpha 90.000000
_cell_angle_beta 90.000000
_cell_angle_gamma 90.000000
_cell_volume 4696.517053
_symmetry_space_group_name_H-M "I M M M"
_symmetry_group_IT_number 71
_symmetry_cell_setting 'orthorhombic'
loop_
_space_group_symop_operation_xyz
x,y,z
-x,-y,z
x,-y,-z
-x,y,-z
-x,-y,-z
x,y,-z
-x,y,z
x,-y,z
1/2+x,1/2+y,1/2+z
1/2-x,1/2-y,1/2+z
1/2+x,1/2-y,1/2-z
1/2-x,1/2+y,1/2-z
1/2-x,1/2-y,1/2-z
1/2+x,1/2+y,1/2-z
1/2-x,1/2+y,1/2+z
1/2+x,1/2-y,1/2+z
loop_
_atom_site_type_symbol
_atom_site_label
_atom_site_fract_x
_atom_site_fract_y
_atom_site_fract_z
Si Si1 0.844032 0.045117 0.643220
Si Si2 0.152874 0.136393 0.392771
Si Si3 0.151168 0.623010 0.393268
Si Si4 0.152032 0.952729 0.139724
Si Si5 0.845220 0.195757 0.889582
Si Si6 0.345417 0.209663 0.389596
O O1 0.784897 0.090021 0.618044
O O2 0.848629 0.045066 0.751601
O O3 0.000000 0.045908 0.610353
O O4 0.785528 0.000000 0.614340
O O5 0.141103 0.142987 0.500000
O O6 0.244407 0.173890 0.357383
O O7 0.000000 0.136504 0.354276
O O8 0.137897 0.631125 0.500000
O O9 0.235487 0.580441 0.385421
O O10 0.242285 0.660724 0.356370
O O11 0.000000 0.620340 0.354608
O O12 0.000000 0.940075 0.111032
O O13 0.177007 0.000000 0.107040
O O14 0.807511 0.243043 0.863260
O O15 0.000000 0.187474 0.861674
O O16 0.845618 0.194756 0.000000
O O17 0.345235 0.208962 0.500000
O O18 0.500000 0.201993 0.361327
#
# Coordination Sequence:
#
# PCOD9520598 Si02
#       6
#    16  16  16  16  16  16
#     4   8  15  29  47  66  89 118 153 189 222 259
#     4   9  16  25  42  70  97 119 146 183 226 266
#     4  10  20  31  45  69  97 118 138 177 232 274
#     4   9  18  33  51  66  83 116 158 190 216 256
#     4   8  14  26  44  64  87 118 153 182 211 257
#     4   8  14  25  41  62  90 122 151 180 216 258
#
# _framework density 20.440678999999999
#
# number of rings (size 3 to 8) (size 9 to 14) (size 15 to 20)
#    0.000    3.333    0.000    2.500    0.000    2.667 
#    0.000    7.500    0.000    2.500    0.000    2.333 
#    0.000    0.000    0.000    0.000    0.000    0.000 
#
# Total GULP energy -267480.950259 kJ/mol
# GULP energy per Si atom -5572.519797 kJ/mol
# Density = 2.039416 g / cm^3
# Si number density = 20.440679 Si / 1000 Ang^3
#
#
#
# Elastic Constant Matrix: (Units=GPa)
#
#
# Indices 1 2 3 4 5 6 
#
# 1 123.7206 123.9146 3.7212 0.0000 0.0000 0.0000
# 2 123.9146 190.5586 -0.8401 0.0000 0.0000 0.0000
# 3 3.7212 -0.8401 41.6709 0.0001 0.0000 0.0000
# 4 0.0000 0.0000 0.0001 32.4387 0.0000 0.0000
# 5 0.0000 0.0000 0.0000 0.0000 4.4068 0.0000
# 6 0.0000 0.0000 0.0000 0.0000 0.0000 28.7647
#
#
#
# Elastic Compliance Matrix: (Units=1/GPa)
#
#
# Indices 1 2 3 4 5 6 
#
# 1 0.023416 -0.015237 -0.002398 0.000000 0.000000 0.000000
# 2 -0.015237 0.015164 0.001666 0.000000 0.000000 0.000000
# 3 -0.002398 0.001666 0.024245 0.000000 0.000000 0.000000
# 4 0.000000 0.000000 0.000000 0.030827 0.000000 0.000000
# 5 0.000000 0.000000 0.000000 0.000000 0.226923 0.000000
# 6 0.000000 0.000000 0.000000 0.000000 0.000000 0.034765
#
#
# Mechanical properties :
#
#
# Convention : Reuss Voigt Hill
#
# Bulk Modulus (GPa) = 32.37661 67.72683 50.05172
# Shear Modulus (GPa) = 12.57627 28.39899 20.48763
#
# Velocity S-wave (km/s) = 2.48313 3.73142 3.16934
# Velocity P-wave (km/s) = 4.90866 7.19514 6.15893
#
# Compressibility (1/GPa) = 0.03088649
#
# Stress axis : x y z
#
# Youngs Moduli (GPa) = 42.70550 65.94772 41.24505
#
# Poissons Ratio (x) = 1.00487 0.09892
# Poissons Ratio (y) = 0.65072 -0.06873
# Poissons Ratio (z) = 0.10242 -0.10990
#
# Static dielectric constant tensor:
#      x y z
#    x 1.716680 0.000000 0.000000 
#    y 0.000000 1.745280 0.000000 
#    z 0.000000 0.000000 1.776560 
# 
# From -- ./inp_files/50780.got.cif
#   From: 2010.05.17/outbox.cif.g08.bks.cpg/sg71_26_cif.got.tgz:50780.got - 2010.06.03 16:22:01.
