data_PCOD9520272
_publ_section_title
;
Structure prediction by ZEFSAII (Michael W. Deem and Ramdas Pophale) SiO2 
 PCOD9520272
Probable space group: I M M M
;
_chemical_formula_sum "Si O2"
_cell_formula_units_Z 104
_cell_length_a 18.764116
_cell_length_b 25.534451
_cell_length_c 13.744215
_cell_angle_alpha 90.000000
_cell_angle_beta 90.000000
_cell_angle_gamma 90.000000
_cell_volume 6585.284983
_symmetry_space_group_name_H-M "I M M M"
_symmetry_group_IT_number 71
_symmetry_cell_setting 'orthorhombic'
loop_
_space_group_symop_operation_xyz
x,y,z
-x,-y,z
x,-y,-z
-x,y,-z
-x,-y,-z
x,y,-z
-x,y,z
x,-y,z
1/2+x,1/2+y,1/2+z
1/2-x,1/2-y,1/2+z
1/2+x,1/2-y,1/2-z
1/2-x,1/2+y,1/2-z
1/2-x,1/2-y,1/2-z
1/2+x,1/2+y,1/2-z
1/2-x,1/2+y,1/2+z
1/2+x,1/2-y,1/2+z
loop_
_atom_site_type_symbol
_atom_site_label
_atom_site_fract_x
_atom_site_fract_y
_atom_site_fract_z
Si Si1 0.194886 0.200951 0.889516
Si Si2 0.691216 0.363580 0.198187
Si Si3 0.917224 0.283890 0.806147
Si Si4 0.918865 0.937350 0.387563
Si Si5 0.350998 0.746575 0.889246
Si Si6 0.848027 0.611190 0.117689
Si Si7 0.582457 0.000000 0.382051
O O1 0.194131 0.155945 0.808891
O O2 0.134759 0.243653 0.862507
O O3 0.271755 0.228924 0.881637
O O4 0.185248 0.182938 0.000000
O O5 0.637458 0.410807 0.181861
O O6 0.659722 0.314151 0.138314
O O7 0.768769 0.378463 0.157804
O O8 0.899114 0.273913 0.692546
O O9 0.896607 0.342260 0.839675
O O10 0.000000 0.273544 0.825290
O O11 0.902011 0.923620 0.500000
O O12 0.000000 0.920317 0.367695
O O13 0.916589 0.000000 0.380806
O O14 0.376299 0.752401 0.000000
O O15 0.877595 0.553759 0.145962
O O16 0.847429 0.614646 0.000000
O O17 0.500000 0.000000 0.348992
O O18 0.581198 0.000000 0.500000
#
# Coordination Sequence:
#
# PCOD9520272 Si02
#       7
#    16  16  16  16  16  16   8
#     4  10  20  36  53  71 102 138 171 207 248 295
#     4  11  19  32  53  79  99 131 171 209 250 299
#     4  11  21  33  51  77 105 136 171 203 248 305
#     4   9  19  34  51  75 106 135 163 202 255 307
#     4  10  19  35  53  72 104 137 169 209 250 293
#     4  11  20  32  50  75 104 134 169 204 248 303
#     4   9  20  34  46  68 104 138 164 201 250 298
#
# _framework density 15.792788
#
# number of rings (size 3 to 8) (size 9 to 14) (size 15 to 20)
#    0.000    1.769    3.077    3.692    1.077    4.615 
#    0.000    0.000    0.000    0.462    0.000    2.692 
#    0.000    3.692    0.000    0.000    0.000    0.000 
#
# Total GULP energy -290145.969525 kJ/mol
# GULP energy per Si atom -5579.730183 kJ/mol
# Density = 1.575684 g / cm^3
# Si number density = 15.792788 Si / 1000 Ang^3
#
#
#
# Elastic Constant Matrix: (Units=GPa)
#
#
# Indices 1 2 3 4 5 6 
#
# 1 40.9085 30.8317 7.2789 0.0000 0.0000 0.0000
# 2 30.8317 72.2709 28.6662 0.0000 0.0000 0.0000
# 3 7.2789 28.6662 73.6539 0.0000 0.0000 0.0000
# 4 0.0000 0.0000 0.0000 20.7272 0.0000 0.0000
# 5 0.0000 0.0000 0.0000 0.0000 15.9535 0.0000
# 6 0.0000 0.0000 0.0000 0.0000 0.0000 25.7615
#
#
#
# Elastic Compliance Matrix: (Units=1/GPa)
#
#
# Indices 1 2 3 4 5 6 
#
# 1 0.036547 -0.016744 0.002905 0.000000 0.000000 0.000000
# 2 -0.016744 0.024034 -0.007699 0.000000 0.000000 0.000000
# 3 0.002905 -0.007699 0.016287 0.000000 0.000000 0.000000
# 4 0.000000 0.000000 0.000000 0.048246 0.000000 0.000000
# 5 0.000000 0.000000 0.000000 0.000000 0.062682 0.000000
# 6 0.000000 0.000000 0.000000 0.000000 0.000000 0.038818
#
#
# Mechanical properties :
#
#
# Convention : Reuss Voigt Hill
#
# Bulk Modulus (GPa) = 29.59342 35.59855 32.59598
# Shear Modulus (GPa) = 17.79656 20.49222 19.14439
#
# Velocity S-wave (km/s) = 3.36054 3.60609 3.48548
# Velocity P-wave (km/s) = 5.81695 6.31889 6.07311
#
# Compressibility (1/GPa) = 0.03379130
#
# Stress axis : x y z
#
# Youngs Moduli (GPa) = 27.36181 41.60799 61.40051
#
# Poissons Ratio (x) = 0.69667 -0.17836
# Poissons Ratio (y) = 0.45814 0.47274
# Poissons Ratio (z) = -0.07948 0.32035
#
# Static dielectric constant tensor:
#      x y z
#    x 1.522720 0.000000 0.000000 
#    y 0.000000 1.517500 0.000000 
#    z 0.000000 0.000000 1.528940 
# 
# From -- ./inp_files/36936.got.cif
#   From: 2010.05.17/outbox.cif.g08.bks.cpg/sg71_19_cif.got.tgz:36936.got - 2010.06.03 16:22:01.
