data_PCOD9520894
_publ_section_title
;
Structure prediction by ZEFSAII (Michael W. Deem and Ramdas Pophale) SiO2 
 PCOD9520894
Probable space group: I M M M
;
_chemical_formula_sum "Si O2"
_cell_formula_units_Z 56
_cell_length_a 37.283141
_cell_length_b 7.310991
_cell_length_c 9.273495
_cell_angle_alpha 90.000000
_cell_angle_beta 90.000000
_cell_angle_gamma 90.000000
_cell_volume 2527.738742
_symmetry_space_group_name_H-M "I M M M"
_symmetry_group_IT_number 71
_symmetry_cell_setting 'orthorhombic'
loop_
_space_group_symop_operation_xyz
x,y,z
-x,-y,z
x,-y,-z
-x,y,-z
-x,-y,-z
x,y,-z
-x,y,z
x,-y,z
1/2+x,1/2+y,1/2+z
1/2-x,1/2-y,1/2+z
1/2+x,1/2-y,1/2-z
1/2-x,1/2+y,1/2-z
1/2-x,1/2-y,1/2-z
1/2+x,1/2+y,1/2-z
1/2-x,1/2+y,1/2+z
1/2+x,1/2-y,1/2+z
loop_
_atom_site_type_symbol
_atom_site_label
_atom_site_fract_x
_atom_site_fract_y
_atom_site_fract_z
Si Si1 0.571543 0.723010 0.666333
Si Si2 0.143172 0.776643 0.666341
Si Si3 0.000000 0.223097 0.333604
Si Si4 0.713464 0.281781 0.663597
O O1 0.571506 0.781057 0.500000
O O2 0.571483 0.500000 0.666025
O O3 0.607407 0.780077 0.749545
O O4 0.535797 0.780788 0.750118
O O5 0.142925 0.718996 0.500000
O O6 0.178884 0.714451 0.748891
O O7 0.143339 0.000000 0.665954
O O8 0.000000 0.280849 0.500000
O O9 0.000000 0.000000 0.333739
O O10 0.715353 0.211017 0.500000
O O11 0.709109 0.500000 0.653835
O O12 0.750000 0.250000 0.750000
#
# Coordination Sequence:
#
# PCOD9520894 Si02
#       4
#    16  16   8  16
#     4   9  15  22  32  47  69  98 133 172 212 255
#     4   9  16  26  40  57  78 106 140 177 217 262
#     4   9  15  21  29  43  65  95 132 171 210 253
#     4  10  20  33  49  69  92 119 152 189 229 273
#
# _framework density 22.154188999999999
#
# number of rings (size 3 to 8) (size 9 to 14) (size 15 to 20)
#    0.000    2.714    0.000    3.000    0.000   10.286 
#    0.000    0.000    0.000    0.000    0.000    0.000 
#    0.000    0.000    0.000    1.286    0.000   25.143 
#
# Total GULP energy -156565.327117 kJ/mol
# GULP energy per Si atom -5591.618826 kJ/mol
# Density = 2.210377 g / cm^3
# Si number density = 22.154189 Si / 1000 Ang^3
#
#
#
# Elastic Constant Matrix: (Units=GPa)
#
#
# Indices 1 2 3 4 5 6 
#
# 1 283.8636 3.7589 186.0586 0.0000 0.0000 0.0000
# 2 3.7589 90.7659 8.7142 0.0000 0.0000 0.0000
# 3 186.0586 8.7142 295.6501 0.0000 0.0000 0.0000
# 4 0.0000 0.0000 0.0000 -7.3700 0.0000 0.0000
# 5 0.0000 0.0000 0.0000 0.0000 50.1431 0.0000
# 6 0.0000 0.0000 0.0000 0.0000 0.0000 2.5244
#
#
#
# Elastic Compliance Matrix: (Units=1/GPa)
#
#
# Indices 1 2 3 4 5 6 
#
# 1 0.005997 0.000114 -0.003778 0.000000 0.000000 0.000000
# 2 0.000114 0.011051 -0.000398 0.000000 0.000000 0.000000
# 3 -0.003778 -0.000398 0.005771 0.000000 0.000000 0.000000
# 4 0.000000 0.000000 0.000000 -0.135685 0.000000 0.000000
# 5 0.000000 0.000000 0.000000 0.000000 0.019943 0.000000
# 6 0.000000 0.000000 0.000000 0.000000 0.000000 0.396138
#
#
# Mechanical properties :
#
#
# Convention : Reuss Voigt Hill
#
# Bulk Modulus (GPa) = 68.03811 118.59366 93.31589
# Shear Modulus (GPa) = 15.81096 40.50935 28.16015
#
# Velocity S-wave (km/s) = 2.67437 4.28076 3.56911
# Velocity P-wave (km/s) = 6.34935 8.83631 7.69398
#
# Compressibility (1/GPa) = 0.01469764
#
# Stress axis : x y z
#
# Youngs Moduli (GPa) = 166.74026 90.49117 173.26721
#
# Poissons Ratio (x) = -0.01034 0.65454
# Poissons Ratio (y) = -0.01906 0.06890
# Poissons Ratio (z) = 0.62988 0.03598
#
# Static dielectric constant tensor:
#      x y z
#    x 1.737270 0.000000 0.000000 
#    y 0.000000 2.239190 0.000000 
#    z 0.000000 0.000000 1.733000 
# 
# From -- ./inp_files/3553.got.cif
#   From: 2010.05.17/outbox.cif.g08.bks.cpg/sg71_2_cif.got.tgz:3553.got - 2010.06.03 16:22:01.
