data_PCOD9520921
_publ_section_title
;
Structure prediction by ZEFSAII (Michael W. Deem and Ramdas Pophale) SiO2 
 PCOD9520921
Probable space group: I M M M
;
_chemical_formula_sum "Si O2"
_cell_formula_units_Z 72
_cell_length_a 33.384714
_cell_length_b 9.134633
_cell_length_c 13.843927
_cell_angle_alpha 90.000000
_cell_angle_beta 90.000000
_cell_angle_gamma 90.000000
_cell_volume 4221.803972
_symmetry_space_group_name_H-M "I M M M"
_symmetry_group_IT_number 71
_symmetry_cell_setting 'orthorhombic'
loop_
_space_group_symop_operation_xyz
x,y,z
-x,-y,z
x,-y,-z
-x,y,-z
-x,-y,-z
x,y,-z
-x,y,z
x,-y,z
1/2+x,1/2+y,1/2+z
1/2-x,1/2-y,1/2+z
1/2+x,1/2-y,1/2-z
1/2-x,1/2+y,1/2-z
1/2-x,1/2-y,1/2-z
1/2+x,1/2+y,1/2-z
1/2-x,1/2+y,1/2+z
1/2+x,1/2-y,1/2+z
loop_
_atom_site_type_symbol
_atom_site_label
_atom_site_fract_x
_atom_site_fract_y
_atom_site_fract_z
Si Si1 0.000000 0.821051 0.113354
Si Si2 0.840510 0.162656 0.113749
Si Si3 0.921123 0.170053 0.771494
Si Si4 0.792296 0.671521 0.738045
Si Si5 0.632212 0.176785 0.887678
O O1 0.961045 0.775181 0.175132
O O2 0.000000 0.000000 0.110673
O O3 0.000000 0.774321 0.000000
O O4 0.886087 0.172711 0.148559
O O5 0.816144 0.289663 0.164794
O O6 0.825756 0.000000 0.145489
O O7 0.837566 0.170315 0.000000
O O8 0.902334 0.255633 0.680434
O O9 0.927537 0.000000 0.743274
O O10 0.785794 0.500000 0.724644
O O11 0.750000 0.750000 0.750000
O O12 0.824053 0.721704 0.655255
O O13 0.630335 0.000000 0.880661
O O14 0.628346 0.218065 0.000000
#
# Coordination Sequence:
#
# PCOD9520921 Si02
#       5
#     8  16  16  16  16
#     4   9  16  28  50  79 108 134 159 193 242 297
#     4   9  17  30  48  69  95 127 159 192 235 287
#     4   9  17  30  50  76 101 126 161 202 240 284
#     4  10  20  33  49  71  97 124 159 203 247 292
#     4   9  19  36  54  69  92 131 171 204 244 292
#
# _framework density 17.054321000000002
#
# number of rings (size 3 to 8) (size 9 to 14) (size 15 to 20)
#    0.000    2.778    0.000    1.333    0.000    5.333 
#    0.000    3.333    0.000    6.000    0.000    0.000 
#    0.000    0.000    0.000    0.000    0.000    0.000 
#
# Total GULP energy -200415.270400 kJ/mol
# GULP energy per Si atom -5567.090844 kJ/mol
# Density = 1.701550 g / cm^3
# Si number density = 17.054321 Si / 1000 Ang^3
#
#
#
# Elastic Constant Matrix: (Units=GPa)
#
#
# Indices 1 2 3 4 5 6 
#
# 1 127.5790 33.3727 64.3145 0.0000 0.0000 0.0000
# 2 33.3727 21.7001 25.1413 0.0000 0.0000 0.0000
# 3 64.3145 25.1413 115.3849 0.0000 0.0000 0.0000
# 4 0.0000 0.0000 0.0000 19.7669 0.0000 0.0000
# 5 0.0000 0.0000 0.0000 0.0000 6.4328 0.0000
# 6 0.0000 0.0000 0.0000 0.0000 0.0000 22.1557
#
#
#
# Elastic Compliance Matrix: (Units=1/GPa)
#
#
# Indices 1 2 3 4 5 6 
#
# 1 0.014571 -0.017389 -0.004333 0.000000 0.000000 0.000000
# 2 -0.017389 0.082396 -0.008261 0.000000 0.000000 0.000000
# 3 -0.004333 -0.008261 0.012882 0.000000 0.000000 0.000000
# 4 0.000000 0.000000 0.000000 0.050590 0.000000 0.000000
# 5 0.000000 0.000000 0.000000 0.000000 0.155454 0.000000
# 6 0.000000 0.000000 0.000000 0.000000 0.000000 0.045135
#
#
# Mechanical properties :
#
#
# Convention : Reuss Voigt Hill
#
# Bulk Modulus (GPa) = 20.04672 56.70233 38.37452
# Shear Modulus (GPa) = 11.42539 19.12678 15.27608
#
# Velocity S-wave (km/s) = 2.59113 3.35254 2.99612
# Velocity P-wave (km/s) = 4.55325 6.95028 5.87530
#
# Compressibility (1/GPa) = 0.04988347
#
# Stress axis : x y z
#
# Youngs Moduli (GPa) = 68.62785 12.13646 77.62902
#
# Poissons Ratio (x) = 0.21104 0.33637
# Poissons Ratio (y) = 1.19338 0.64128
# Poissons Ratio (z) = 0.29736 0.10026
#
# Static dielectric constant tensor:
#      x y z
#    x 1.594310 0.000000 0.000000 
#    y 0.000000 1.598920 0.000000 
#    z 0.000000 0.000000 1.562010 
# 
# From -- ./inp_files/6444.got.cif
#   From: 2010.05.17/outbox.cif.g08.bks.cpg/sg71_4_cif.got.tgz:6444.got - 2010.06.03 16:22:01.
