data_PCOD9520989
_publ_section_title
;
Structure prediction by ZEFSAII (Michael W. Deem and Ramdas Pophale) SiO2 
 PCOD9520989
Probable space group: I M M M
;
_chemical_formula_sum "Si O2"
_cell_formula_units_Z 66
_cell_length_a 24.642040
_cell_length_b 7.558848
_cell_length_c 23.364307
_cell_angle_alpha 90.000000
_cell_angle_beta 90.000000
_cell_angle_gamma 90.000000
_cell_volume 4351.962801
_symmetry_space_group_name_H-M "I M M M"
_symmetry_group_IT_number 71
_symmetry_cell_setting 'orthorhombic'
loop_
_space_group_symop_operation_xyz
x,y,z
-x,-y,z
x,-y,-z
-x,y,-z
-x,-y,-z
x,y,-z
-x,y,z
x,-y,z
1/2+x,1/2+y,1/2+z
1/2-x,1/2-y,1/2+z
1/2+x,1/2-y,1/2-z
1/2-x,1/2+y,1/2-z
1/2-x,1/2-y,1/2-z
1/2+x,1/2+y,1/2-z
1/2-x,1/2+y,1/2+z
1/2+x,1/2-y,1/2+z
loop_
_atom_site_type_symbol
_atom_site_label
_atom_site_fract_x
_atom_site_fract_y
_atom_site_fract_z
Si Si1 0.755243 0.797940 0.653375
Si Si2 0.500000 0.000000 0.000000
Si Si3 0.910989 0.500000 0.398160
Si Si4 0.715071 0.000000 0.067520
Si Si5 0.168047 0.212303 0.240596
Si Si6 0.437227 0.289481 0.803724
O O1 0.760303 0.669952 0.599854
O O2 0.797307 0.734983 0.702992
O O3 0.697268 0.790288 0.685289
O O4 0.768709 0.000000 0.638851
O O5 0.547226 0.000000 0.049990
O O6 0.849424 0.500000 0.420074
O O7 0.922090 0.670996 0.358293
O O8 0.724904 0.000000 0.000000
O O9 0.105919 0.256258 0.254199
O O10 0.173167 0.000000 0.235813
O O11 0.500000 0.257241 0.788767
O O12 0.430965 0.500000 0.815955
#
# Coordination Sequence:
#
# PCOD9520989 Si02
#       6
#    16   2   8   8  16  16
#     4  10  20  33  51  75 100 130 170 212 270 317
#     4  12  24  40  50  72  96 154 196 220 238 288
#     4  12  22  36  52  68 100 139 186 220 252 286
#     4  12  24  36  52  72 103 142 182 220 249 305
#     4   9  17  30  52  77 102 128 164 214 267 320
#     4  10  20  33  50  74 103 132 168 214 260 303
#
# _framework density 15.165571
#
# number of rings (size 3 to 8) (size 9 to 14) (size 15 to 20)
#    0.000    1.697    5.455    0.000    3.394    0.485 
#    0.000    1.212    0.000    0.000    0.000    0.000 
#    0.000    1.939    0.000    2.182    0.000    0.000 
#
# Total GULP energy -183815.656583 kJ/mol
# GULP energy per Si atom -5570.171412 kJ/mol
# Density = 1.513105 g / cm^3
# Si number density = 15.165571 Si / 1000 Ang^3
#
#
#
# Elastic Constant Matrix: (Units=GPa)
#
#
# Indices 1 2 3 4 5 6 
#
# 1 94.3256 32.5764 63.6994 0.0000 0.0000 0.0000
# 2 32.5764 68.3950 48.3868 0.0000 0.0000 0.0000
# 3 63.6994 48.3868 98.5814 0.0000 0.0000 0.0000
# 4 0.0000 0.0000 0.0000 14.1192 0.0000 0.0000
# 5 0.0000 0.0000 0.0000 0.0000 27.3109 0.0000
# 6 0.0000 0.0000 0.0000 0.0000 0.0000 9.6483
#
#
#
# Elastic Compliance Matrix: (Units=1/GPa)
#
#
# Indices 1 2 3 4 5 6 
#
# 1 0.018823 -0.000553 -0.011891 0.000000 0.000000 0.000000
# 2 -0.000553 0.022415 -0.010645 0.000000 0.000000 0.000000
# 3 -0.011891 -0.010645 0.023052 0.000000 0.000000 0.000000
# 4 0.000000 0.000000 0.000000 0.070825 0.000000 0.000000
# 5 0.000000 0.000000 0.000000 0.000000 0.036615 0.000000
# 6 0.000000 0.000000 0.000000 0.000000 0.000000 0.103645
#
#
# Mechanical properties :
#
#
# Convention : Reuss Voigt Hill
#
# Bulk Modulus (GPa) = 55.21020 61.18081 58.19551
# Shear Modulus (GPa) = 15.26292 17.99164 16.62728
#
# Velocity S-wave (km/s) = 3.17585 3.44808 3.31476
# Velocity P-wave (km/s) = 7.06626 7.50212 7.28745
#
# Compressibility (1/GPa) = 0.01811259
#
# Stress axis : x y z
#
# Youngs Moduli (GPa) = 53.12704 44.61294 43.37940
#
# Poissons Ratio (x) = 0.02466 0.51584
# Poissons Ratio (y) = 0.02936 0.46177
# Poissons Ratio (z) = 0.63175 0.47490
#
# Static dielectric constant tensor:
#      x y z
#    x 1.527680 0.000000 0.000000 
#    y 0.000000 1.545870 0.000000 
#    z 0.000000 0.000000 1.461390 
# 
# From -- ./inp_files/55389.got.cif
#   From: 2010.05.17/outbox.cif.g08.bks.cpg/sg71_28_cif.got.tgz:55389.got - 2010.06.03 16:22:01.
