data_PCOD9520583
_publ_section_title
;
Structure prediction by ZEFSAII (Michael W. Deem and Ramdas Pophale) SiO2 
 PCOD9520583
Probable space group: I M M M
;
_chemical_formula_sum "Si O2"
_cell_formula_units_Z 104
_cell_length_a 7.649128
_cell_length_b 21.089006
_cell_length_c 33.355310
_cell_angle_alpha 90.000000
_cell_angle_beta 90.000000
_cell_angle_gamma 90.000000
_cell_volume 5380.628654
_symmetry_space_group_name_H-M "I M M M"
_symmetry_group_IT_number 71
_symmetry_cell_setting 'orthorhombic'
loop_
_space_group_symop_operation_xyz
x,y,z
-x,-y,z
x,-y,-z
-x,y,-z
-x,-y,-z
x,y,-z
-x,y,z
x,-y,z
1/2+x,1/2+y,1/2+z
1/2-x,1/2-y,1/2+z
1/2+x,1/2-y,1/2-z
1/2-x,1/2+y,1/2-z
1/2-x,1/2-y,1/2-z
1/2+x,1/2+y,1/2-z
1/2-x,1/2+y,1/2+z
1/2+x,1/2-y,1/2+z
loop_
_atom_site_type_symbol
_atom_site_label
_atom_site_fract_x
_atom_site_fract_y
_atom_site_fract_z
Si Si1 0.796750 0.736891 0.456164
Si Si2 0.705304 0.864560 0.578891
Si Si3 0.786534 0.570964 0.676860
Si Si4 0.786582 0.571798 0.769486
Si Si5 0.709195 0.500000 0.045365
Si Si6 0.710079 0.173643 0.666164
Si Si7 0.210220 0.694351 0.368943
O O1 0.719836 0.720708 0.500000
O O2 0.789951 0.812873 0.450178
O O3 0.722311 0.710183 0.413951
O O4 0.000000 0.717615 0.457242
O O5 0.500000 0.849632 0.578807
O O6 0.730437 0.936173 0.566249
O O7 0.774097 0.854256 0.623780
O O8 0.732279 0.500000 0.664660
O O9 0.734058 0.580766 0.723217
O O10 0.725471 0.628047 0.648879
O O11 0.000000 0.571834 0.676432
O O12 0.734072 0.500000 0.782143
O O13 0.724972 0.629073 0.797843
O O14 0.000000 0.572078 0.770158
O O15 0.500000 0.500000 0.044903
O O16 0.775128 0.500000 0.000000
O O17 0.500000 0.168779 0.667201
O O18 0.751654 0.248053 0.661845
O O19 0.000000 0.691477 0.371966
#
# Coordination Sequence:
#
# PCOD9520583 Si02
#       7
#    16  16  16  16   8  16  16
#     4   9  17  30  46  62  85 118 149 177 220 276
#     4  10  20  31  45  65  87 112 147 192 230 259
#     4   8  14  26  45  69  91 115 148 182 217 261
#     4   8  14  25  43  64  88 119 153 183 214 261
#     4  11  23  35  45  59  83 117 153 187 229 277
#     4   9  18  30  45  66  91 117 148 184 223 265
#     4   9  17  29  46  67  91 115 146 187 224 262
#
# _framework density 19.328595
#
# number of rings (size 3 to 8) (size 9 to 14) (size 15 to 20)
#    0.000    3.000    0.000    2.077    1.077    4.000 
#    0.000    0.000    0.000    0.923    0.000    5.385 
#    0.000    0.000    0.000    7.692    0.000    8.000 
#
# Total GULP energy -289787.250024 kJ/mol
# GULP energy per Si atom -5572.831731 kJ/mol
# Density = 1.928460 g / cm^3
# Si number density = 19.328595 Si / 1000 Ang^3
#
#
#
# Elastic Constant Matrix: (Units=GPa)
#
#
# Indices 1 2 3 4 5 6 
#
# 1 37.3582 -1.8783 5.2482 0.0000 0.0000 0.0000
# 2 -1.8783 163.8054 98.0001 0.0000 0.0000 0.0000
# 3 5.2482 98.0001 108.8209 0.0000 0.0000 0.0000
# 4 0.0000 0.0000 0.0000 16.3993 0.0000 0.0000
# 5 0.0000 0.0000 0.0000 0.0000 7.7353 0.0000
# 6 0.0000 0.0000 0.0000 0.0000 0.0000 17.4339
#
#
#
# Elastic Compliance Matrix: (Units=1/GPa)
#
#
# Indices 1 2 3 4 5 6 
#
# 1 0.027376 0.002393 -0.003476 0.000000 0.000000 0.000000
# 2 0.002393 0.013445 -0.012224 0.000000 0.000000 0.000000
# 3 -0.003476 -0.012224 0.020365 0.000000 0.000000 0.000000
# 4 0.000000 0.000000 0.000000 0.060978 0.000000 0.000000
# 5 0.000000 0.000000 0.000000 0.000000 0.129278 0.000000
# 6 0.000000 0.000000 0.000000 0.000000 0.000000 0.057359
#
#
# Mechanical properties :
#
#
# Convention : Reuss Voigt Hill
#
# Bulk Modulus (GPa) = 28.92273 56.96940 42.94607
# Shear Modulus (GPa) = 14.41172 22.22135 18.31653
#
# Velocity S-wave (km/s) = 2.73356 3.39434 3.08171
# Velocity P-wave (km/s) = 4.99593 6.70076 5.91014
#
# Compressibility (1/GPa) = 0.03457488
#
# Stress axis : x y z
#
# Youngs Moduli (GPa) = 36.52770 74.37452 49.10282
#
# Poissons Ratio (x) = -0.17800 0.17066
# Poissons Ratio (y) = -0.08742 0.60023
# Poissons Ratio (z) = 0.12696 0.90915
#
# Static dielectric constant tensor:
#      x y z
#    x 1.735930 0.000000 0.000000 
#    y 0.000000 1.771780 0.000000 
#    z 0.000000 0.000000 1.690830 
# 
# From -- ./inp_files/68247.got.cif
#   From: 2010.05.17/outbox.cif.g08.bks.cpg/sg71_35_cif.got.tgz:68247.got - 2010.06.03 16:22:01.
