data_PCOD9520003
_publ_section_title
;
Structure prediction by ZEFSAII (Michael W. Deem and Ramdas Pophale) SiO2 
 PCOD9520003
Probable space group: I M M M
;
_chemical_formula_sum "Si O2"
_cell_formula_units_Z 96
_cell_length_a 11.420135
_cell_length_b 29.052160
_cell_length_c 15.964199
_cell_angle_alpha 90.000000
_cell_angle_beta 90.000000
_cell_angle_gamma 90.000000
_cell_volume 5296.595387
_symmetry_space_group_name_H-M "I M M M"
_symmetry_group_IT_number 71
_symmetry_cell_setting 'orthorhombic'
loop_
_space_group_symop_operation_xyz
x,y,z
-x,-y,z
x,-y,-z
-x,y,-z
-x,-y,-z
x,y,-z
-x,y,z
x,-y,z
1/2+x,1/2+y,1/2+z
1/2-x,1/2-y,1/2+z
1/2+x,1/2-y,1/2-z
1/2-x,1/2+y,1/2-z
1/2-x,1/2-y,1/2-z
1/2+x,1/2+y,1/2-z
1/2-x,1/2+y,1/2+z
1/2+x,1/2-y,1/2+z
loop_
_atom_site_type_symbol
_atom_site_label
_atom_site_fract_x
_atom_site_fract_y
_atom_site_fract_z
Si Si1 0.772973 0.290575 0.651992
Si Si2 0.139769 0.615249 0.405729
Si Si3 0.859682 0.552173 0.750985
Si Si4 0.739041 0.890011 0.403063
Si Si5 0.000000 0.130556 0.601099
Si Si6 0.000000 0.766039 0.399902
Si Si7 0.639144 0.202823 0.337597
O O1 0.785387 0.338180 0.603238
O O2 0.666671 0.255439 0.635743
O O3 0.791545 0.302349 0.749769
O O4 0.885994 0.260441 0.628906
O O5 0.151346 0.596535 0.500000
O O6 0.175207 0.580606 0.331956
O O7 0.000000 0.626772 0.394146
O O8 0.813518 0.500000 0.751358
O O9 0.826973 0.579325 0.835139
O O10 0.000000 0.549918 0.747424
O O11 0.725323 0.904513 0.500000
O O12 0.876191 0.891827 0.378225
O O13 0.692150 0.837369 0.395417
O O14 0.000000 0.133785 0.500000
O O15 0.000000 0.182466 0.634869
O O16 0.000000 0.767548 0.500000
O O17 0.500000 0.195875 0.326879
#
# Coordination Sequence:
#
# PCOD9520003 Si02
#       7
#    16  16  16  16   8   8  16
#     4  11  20  32  51  80 113 148 191 228 264 320
#     4  10  19  33  57  85 111 143 184 231 281 327
#     4  10  22  40  59  83 114 143 179 229 284 343
#     4  11  22  38  59  83 112 148 187 229 277 329
#     4   9  20  36  55  82 112 141 186 236 274 320
#     4  11  18  30  52  77 106 146 186 223 266 313
#     4  11  22  34  50  77 118 157 188 223 266 323
#
# _framework density 18.124851
#
# number of rings (size 3 to 8) (size 9 to 14) (size 15 to 20)
#    0.000    1.500    5.000    1.000    0.000    2.667 
#    0.000    2.917    0.000    1.500    0.000    0.000 
#    0.000    1.333    0.000    0.000    0.000    0.000 
#
# Total GULP energy -267739.935644 kJ/mol
# GULP energy per Si atom -5577.915326 kJ/mol
# Density = 1.808360 g / cm^3
# Si number density = 18.124851 Si / 1000 Ang^3
#
#
#
# Elastic Constant Matrix: (Units=GPa)
#
#
# Indices 1 2 3 4 5 6 
#
# 1 42.3838 11.2476 4.1210 -0.0001 0.0000 0.0000
# 2 11.2476 87.9523 47.1188 -0.0002 0.0001 0.0000
# 3 4.1210 47.1188 104.1923 -0.0007 0.0002 0.0001
# 4 -0.0001 -0.0002 -0.0007 3.2157 0.0001 0.0001
# 5 0.0000 0.0001 0.0002 0.0001 8.4925 0.0000
# 6 0.0000 0.0000 0.0001 0.0001 0.0000 13.9702
#
#
#
# Elastic Compliance Matrix: (Units=1/GPa)
#
#
# Indices 1 2 3 4 5 6 
#
# 1 0.024450 -0.003443 0.000590 0.000000 0.000000 0.000000
# 2 -0.003443 0.015490 -0.006869 0.000000 0.000000 0.000000
# 3 0.000590 -0.006869 0.012681 0.000002 0.000000 0.000000
# 4 0.000000 0.000000 0.000002 0.310977 -0.000004 -0.000001
# 5 0.000000 0.000000 0.000000 -0.000004 0.117751 0.000000
# 6 0.000000 0.000000 0.000000 -0.000001 0.000000 0.071581
#
#
# Mechanical properties :
#
#
# Convention : Reuss Voigt Hill
#
# Bulk Modulus (GPa) = 30.14113 39.94478 35.04296
# Shear Modulus (GPa) = 8.56998 16.60508 12.58753
#
# Velocity S-wave (km/s) = 2.17683 3.03008 2.63818
# Velocity P-wave (km/s) = 4.79415 5.85904 5.35314
#
# Compressibility (1/GPa) = 0.03317725
#
# Stress axis : x y z
#
# Youngs Moduli (GPa) = 40.89948 64.55817 78.86067
#
# Poissons Ratio (x) = 0.22226 -0.04652
# Poissons Ratio (y) = 0.14081 0.54168
# Poissons Ratio (z) = -0.02413 0.44344
#
# Static dielectric constant tensor:
#      x y z
#    x 1.629220 0.000000 0.000000 
#    y 0.000000 1.634540 0.000000 
#    z 0.000000 0.000000 1.668660 
# 
# From -- ./inp_files/33202.got.cif
#   From: 2010.05.17/outbox.cif.g08.bks.cpg/sg71_17_cif.got.tgz:33202.got - 2010.06.03 16:22:01.
