data_PCOD9520478
_publ_section_title
;
Structure prediction by ZEFSAII (Michael W. Deem and Ramdas Pophale) SiO2 
 PCOD9520478
Probable space group: I M M M
;
_chemical_formula_sum "Si O2"
_cell_formula_units_Z 96
_cell_length_a 15.687675
_cell_length_b 14.819992
_cell_length_c 19.345818
_cell_angle_alpha 90.000000
_cell_angle_beta 90.000000
_cell_angle_gamma 90.000000
_cell_volume 4497.732790
_symmetry_space_group_name_H-M "I M M M"
_symmetry_group_IT_number 71
_symmetry_cell_setting 'orthorhombic'
loop_
_space_group_symop_operation_xyz
x,y,z
-x,-y,z
x,-y,-z
-x,y,-z
-x,-y,-z
x,y,-z
-x,y,z
x,-y,z
1/2+x,1/2+y,1/2+z
1/2-x,1/2-y,1/2+z
1/2+x,1/2-y,1/2-z
1/2-x,1/2+y,1/2-z
1/2-x,1/2-y,1/2-z
1/2+x,1/2+y,1/2-z
1/2-x,1/2+y,1/2+z
1/2+x,1/2-y,1/2+z
loop_
_atom_site_type_symbol
_atom_site_label
_atom_site_fract_x
_atom_site_fract_y
_atom_site_fract_z
Si Si1 0.907145 0.641727 0.419640
Si Si2 0.598586 0.596200 0.772649
Si Si3 0.167985 0.607704 0.078036
Si Si4 0.869040 0.146342 0.574988
Si Si5 0.601649 0.264664 0.664139
Si Si6 0.221137 0.897488 0.081038
O O1 0.909203 0.610858 0.500000
O O2 0.898076 0.749938 0.421109
O O3 0.817480 0.608773 0.388990
O O4 0.000000 0.617971 0.388845
O O5 0.500000 0.590763 0.751874
O O6 0.640236 0.500000 0.751181
O O7 0.601169 0.601280 0.854962
O O8 0.628257 0.690172 0.737916
O O9 0.162790 0.500000 0.087901
O O10 0.266881 0.637070 0.076432
O O11 0.126705 0.664503 0.139999
O O12 0.133274 0.627852 0.000000
O O13 0.897131 0.110577 0.500000
O O14 0.500000 0.270639 0.656346
O O15 0.654071 0.329825 0.613324
O O16 0.191169 0.000000 0.087093
O O17 0.229298 0.874529 0.000000
#
# Coordination Sequence:
#
# PCOD9520478 Si02
#       6
#    16  16  16  16  16  16
#     4   9  17  31  54  84 118 155 195 245 309 372
#     4  10  22  38  57  87 125 164 206 250 303 369
#     4  10  21  38  62  93 126 158 202 262 320 372
#     4  10  19  36  62  90 121 157 199 252 312 371
#     4  11  23  40  60  83 121 168 209 254 308 363
#     4  10  20  35  56  84 118 159 210 259 303 358
#
# _framework density 21.344086000000001
#
# number of rings (size 3 to 8) (size 9 to 14) (size 15 to 20)
#    0.000    2.000    1.667    2.000    0.000    5.667 
#    0.000    4.167    0.000    0.000    0.000    2.333 
#    0.000    0.000    0.000    0.000    0.000    0.000 
#
# Total GULP energy -267498.524450 kJ/mol
# GULP energy per Si atom -5572.885926 kJ/mol
# Density = 2.129551 g / cm^3
# Si number density = 21.344086 Si / 1000 Ang^3
#
#
#
# Elastic Constant Matrix: (Units=GPa)
#
#
# Indices 1 2 3 4 5 6 
#
# 1 75.5006 23.7627 16.4652 0.0000 0.0000 0.0000
# 2 23.7627 99.8060 39.1114 0.0000 0.0000 0.0000
# 3 16.4652 39.1114 84.9647 0.0000 0.0000 0.0000
# 4 0.0000 0.0000 0.0000 7.5378 0.0000 0.0000
# 5 0.0000 0.0000 0.0000 0.0000 17.8542 0.0000
# 6 0.0000 0.0000 0.0000 0.0000 0.0000 7.1972
#
#
#
# Elastic Compliance Matrix: (Units=1/GPa)
#
#
# Indices 1 2 3 4 5 6 
#
# 1 0.014470 -0.002863 -0.001486 0.000000 0.000000 0.000000
# 2 -0.002863 0.012791 -0.005333 0.000000 0.000000 0.000000
# 3 -0.001486 -0.005333 0.014513 0.000000 0.000000 0.000000
# 4 0.000000 0.000000 0.000000 0.132665 0.000000 0.000000
# 5 0.000000 0.000000 0.000000 0.000000 0.056009 0.000000
# 6 0.000000 0.000000 0.000000 0.000000 0.000000 0.138943
#
#
# Mechanical properties :
#
#
# Convention : Reuss Voigt Hill
#
# Bulk Modulus (GPa) = 44.62478 46.55002 45.58740
# Shear Modulus (GPa) = 12.61908 18.57995 15.59952
#
# Velocity S-wave (km/s) = 2.43414 2.95362 2.70637
# Velocity P-wave (km/s) = 5.37148 5.78692 5.58307
#
# Compressibility (1/GPa) = 0.02240907
#
# Stress axis : x y z
#
# Youngs Moduli (GPa) = 69.10815 78.18009 68.90534
#
# Poissons Ratio (x) = 0.22381 0.10242
# Poissons Ratio (y) = 0.19784 0.36749
# Poissons Ratio (z) = 0.10272 0.41695
#
# Static dielectric constant tensor:
#      x y z
#    x 1.795950 0.000000 0.000000 
#    y 0.000000 1.820410 0.000000 
#    z 0.000000 0.000000 1.799340 
# 
# From -- ./inp_files/52994.got.cif
#   From: 2010.05.17/outbox.cif.g08.bks.cpg/sg71_27_cif.got.tgz:52994.got - 2010.06.03 16:22:01.
