data_PCOD9520621
_publ_section_title
;
Structure prediction by ZEFSAII (Michael W. Deem and Ramdas Pophale) SiO2 
 PCOD9520621
Probable space group: I M M M
;
_chemical_formula_sum "Si O2"
_cell_formula_units_Z 88
_cell_length_a 7.622117
_cell_length_b 15.493654
_cell_length_c 36.036233
_cell_angle_alpha 90.000000
_cell_angle_beta 90.000000
_cell_angle_gamma 90.000000
_cell_volume 4255.678884
_symmetry_space_group_name_H-M "I M M M"
_symmetry_group_IT_number 71
_symmetry_cell_setting 'orthorhombic'
loop_
_space_group_symop_operation_xyz
x,y,z
-x,-y,z
x,-y,-z
-x,y,-z
-x,-y,-z
x,y,-z
-x,y,z
x,-y,z
1/2+x,1/2+y,1/2+z
1/2-x,1/2-y,1/2+z
1/2+x,1/2-y,1/2-z
1/2-x,1/2+y,1/2-z
1/2-x,1/2-y,1/2-z
1/2+x,1/2+y,1/2-z
1/2-x,1/2+y,1/2+z
1/2+x,1/2-y,1/2+z
loop_
_atom_site_type_symbol
_atom_site_label
_atom_site_fract_x
_atom_site_fract_y
_atom_site_fract_z
Si Si1 0.289060 0.312918 0.958131
Si Si2 0.793750 0.097237 0.170990
Si Si3 0.789629 0.756434 0.117268
Si Si4 0.299894 0.500000 0.045125
Si Si5 0.284743 0.099094 0.666173
Si Si6 0.296322 0.895299 0.252358
O O1 0.500000 0.321861 0.960140
O O2 0.248746 0.245108 0.926253
O O3 0.217548 0.407550 0.945761
O O4 0.227425 0.293683 0.000000
O O5 0.719351 0.163363 0.140999
O O6 0.781356 0.132504 0.213125
O O7 0.000000 0.089279 0.163155
O O8 0.717800 0.000000 0.169919
O O9 0.725058 0.667459 0.135836
O O10 0.000000 0.755977 0.121476
O O11 0.500000 0.500000 0.059516
O O12 0.308375 0.500000 0.000000
O O13 0.500000 0.097787 0.667124
O O14 0.225500 0.129794 0.707277
O O15 0.229832 0.000000 0.659488
O O16 0.500000 0.871158 0.251211
O O17 0.283620 0.000000 0.252841
#
# Coordination Sequence:
#
# PCOD9520621 Si02
#       6
#    16  16  16   8  16  16
#     4   9  18  33  51  70  95 125 153 184 226 275
#     4   9  18  32  47  65  93 124 155 197 242 276
#     4  10  20  31  47  71  94 122 158 193 233 277
#     4   7  12  26  47  67  89 121 151 171 207 267
#     4   8  15  28  44  65  96 126 150 185 232 276
#     4   8  14  27  47  66  86 120 161 193 226 273
#
# _framework density 20.678249999999998
#
# number of rings (size 3 to 8) (size 9 to 14) (size 15 to 20)
#    0.000    3.364    0.000    2.182    1.273    1.818 
#    0.000    0.909    0.000    3.273    0.000    3.818 
#    0.000    0.000    0.000    0.000    0.000    0.000 
#
# Total GULP energy -245199.459023 kJ/mol
# GULP energy per Si atom -5572.714978 kJ/mol
# Density = 2.063119 g / cm^3
# Si number density = 20.678250 Si / 1000 Ang^3
#
#
#
# Elastic Constant Matrix: (Units=GPa)
#
#
# Indices 1 2 3 4 5 6 
#
# 1 35.9984 3.0920 0.1985 0.0000 0.0000 0.0000
# 2 3.0920 56.6334 63.2699 0.0000 0.0000 0.0000
# 3 0.1985 63.2699 144.8720 0.0000 0.0000 0.0000
# 4 0.0000 0.0000 0.0000 31.5187 0.0000 0.0000
# 5 0.0000 0.0000 0.0000 0.0000 8.7884 0.0000
# 6 0.0000 0.0000 0.0000 0.0000 0.0000 -6.7204
#
#
#
# Elastic Compliance Matrix: (Units=1/GPa)
#
#
# Indices 1 2 3 4 5 6 
#
# 1 0.028022 -0.002904 0.001230 0.000000 0.000000 0.000000
# 2 -0.002904 0.034782 -0.015186 0.000000 0.000000 0.000000
# 3 0.001230 -0.015186 0.013533 0.000000 0.000000 0.000000
# 4 0.000000 0.000000 0.000000 0.031727 0.000000 0.000000
# 5 0.000000 0.000000 0.000000 0.000000 0.113786 0.000000
# 6 0.000000 0.000000 0.000000 0.000000 0.000000 -0.148801
#
#
# Mechanical properties :
#
#
# Convention : Reuss Voigt Hill
#
# Bulk Modulus (GPa) = 23.46531 41.18054 32.32292
# Shear Modulus (GPa) = 41.33091 18.11358 29.72225
#
# Velocity S-wave (km/s) = 4.47560 2.96289 3.79538
# Velocity P-wave (km/s) = 6.17094 5.62700 5.90524
#
# Compressibility (1/GPa) = 0.04261611
#
# Stress axis : x y z
#
# Youngs Moduli (GPa) = 35.68672 28.75069 73.89212
#
# Poissons Ratio (x) = 0.08349 -0.09087
# Poissons Ratio (y) = 0.10363 1.12214
# Poissons Ratio (z) = -0.04389 0.43662
#
# Static dielectric constant tensor:
#      x y z
#    x 1.772790 0.000000 0.000000 
#    y 0.000000 1.770680 0.000000 
#    z 0.000000 0.000000 1.749330 
# 
# From -- ./inp_files/58741.got.cif
#   From: 2010.05.17/outbox.cif.g08.bks.cpg/sg71_30_cif.got.tgz:58741.got - 2010.06.03 16:22:01.
