data_PCOD9520784
_publ_section_title
;
Structure prediction by ZEFSAII (Michael W. Deem and Ramdas Pophale) SiO2 
 PCOD9520784
Probable space group: I M M M
;
_chemical_formula_sum "Si O2"
_cell_formula_units_Z 88
_cell_length_a 27.647250
_cell_length_b 18.571504
_cell_length_c 10.229205
_cell_angle_alpha 90.000000
_cell_angle_beta 90.000000
_cell_angle_gamma 90.000000
_cell_volume 5252.195679
_symmetry_space_group_name_H-M "I M M M"
_symmetry_group_IT_number 71
_symmetry_cell_setting 'orthorhombic'
loop_
_space_group_symop_operation_xyz
x,y,z
-x,-y,z
x,-y,-z
-x,y,-z
-x,-y,-z
x,y,-z
-x,y,z
x,-y,z
1/2+x,1/2+y,1/2+z
1/2-x,1/2-y,1/2+z
1/2+x,1/2-y,1/2-z
1/2-x,1/2+y,1/2-z
1/2-x,1/2-y,1/2-z
1/2+x,1/2+y,1/2-z
1/2-x,1/2+y,1/2+z
1/2+x,1/2-y,1/2+z
loop_
_atom_site_type_symbol
_atom_site_label
_atom_site_fract_x
_atom_site_fract_y
_atom_site_fract_z
Si Si1 0.713989 0.414661 0.153465
Si Si2 0.000000 0.415496 0.659628
Si Si3 0.399992 0.840768 0.841772
Si Si4 0.057967 0.083265 0.144615
Si Si5 0.616291 0.325473 0.154800
Si Si6 0.199687 0.586290 0.650300
O O1 0.701584 0.500000 0.175168
O O2 0.668602 0.362110 0.176466
O O3 0.757425 0.394534 0.250639
O O4 0.727644 0.408437 0.000000
O O5 0.049077 0.374764 0.703751
O O6 0.000000 0.500000 0.697306
O O7 0.000000 0.414216 0.500000
O O8 0.389939 0.757885 0.806995
O O9 0.352377 0.885262 0.803959
O O10 0.402050 0.843948 0.000000
O O11 0.079246 0.129432 0.259867
O O12 0.000000 0.085439 0.146947
O O13 0.072741 0.000000 0.158814
O O14 0.074031 0.108044 0.000000
O O15 0.606326 0.331196 0.000000
O O16 0.208310 0.611702 0.500000
O O17 0.197634 0.500000 0.646472
#
# Coordination Sequence:
#
# PCOD9520784 Si02
#       6
#    16   8  16  16  16  16
#     4   9  18  32  48  68  97 132 166 202 248 300
#     4   9  16  28  48  72 100 133 164 200 253 307
#     4   9  18  30  46  73 104 130 161 207 257 299
#     4   9  19  35  52  70  96 132 171 209 248 293
#     4  10  20  32  49  74 104 133 164 206 251 298
#     4   9  17  31  51  73  97 128 169 212 250 295
#
# _framework density 16.754898000000001
#
# number of rings (size 3 to 8) (size 9 to 14) (size 15 to 20)
#    0.000    2.818    0.000    1.636    1.273    5.091 
#    0.000    3.636    0.000    0.000    0.000    0.000 
#    0.000    4.364    0.000    0.000    0.000    0.000 
#
# Total GULP energy -245041.349826 kJ/mol
# GULP energy per Si atom -5569.121587 kJ/mol
# Density = 1.671676 g / cm^3
# Si number density = 16.754898 Si / 1000 Ang^3
#
#
#
# Elastic Constant Matrix: (Units=GPa)
#
#
# Indices 1 2 3 4 5 6 
#
# 1 100.5000 69.5930 50.2240 0.0000 0.0000 0.0000
# 2 69.5930 78.0323 40.1217 0.0000 0.0000 0.0000
# 3 50.2240 40.1217 39.8350 0.0000 0.0000 0.0000
# 4 0.0000 0.0000 0.0000 11.8817 0.0000 0.0000
# 5 0.0000 0.0000 0.0000 0.0000 23.9274 0.0000
# 6 0.0000 0.0000 0.0000 0.0000 0.0000 90.1973
#
#
#
# Elastic Compliance Matrix: (Units=1/GPa)
#
#
# Indices 1 2 3 4 5 6 
#
# 1 0.036265 -0.018322 -0.027269 0.000000 0.000000 0.000000
# 2 -0.018322 0.035837 -0.012994 0.000000 0.000000 0.000000
# 3 -0.027269 -0.012994 0.072573 0.000000 0.000000 0.000000
# 4 0.000000 0.000000 0.000000 0.084163 0.000000 0.000000
# 5 0.000000 0.000000 0.000000 0.000000 0.041793 0.000000
# 6 0.000000 0.000000 0.000000 0.000000 0.000000 0.011087
#
#
# Mechanical properties :
#
#
# Convention : Reuss Voigt Hill
#
# Bulk Modulus (GPa) = 36.35930 59.80498 48.08214
# Shear Modulus (GPa) = 12.25316 29.09653 20.67485
#
# Velocity S-wave (km/s) = 2.70722 4.17177 3.51659
# Velocity P-wave (km/s) = 5.61426 7.67961 6.72668
#
# Compressibility (1/GPa) = 0.02750328
#
# Stress axis : x y z
#
# Youngs Moduli (GPa) = 27.57446 27.90398 13.77928
#
# Poissons Ratio (x) = 0.51126 0.37575
# Poissons Ratio (y) = 0.50523 0.17905
# Poissons Ratio (z) = 0.75194 0.36260
#
# Static dielectric constant tensor:
#      x y z
#    x 1.555830 0.000000 0.000000 
#    y 0.000000 1.571770 0.000000 
#    z 0.000000 0.000000 1.557090 
# 
# From -- ./inp_files/16625.got.cif
#   From: 2010.05.17/outbox.cif.g08.bks.cpg/sg71_9_cif.got.tgz:16625.got - 2010.06.03 16:22:01.
