data_PCOD9520872
_publ_section_title
;
Structure prediction by ZEFSAII (Michael W. Deem and Ramdas Pophale) SiO2 
 PCOD9520872
Probable space group: I M M M
;
_chemical_formula_sum "Si O2"
_cell_formula_units_Z 88
_cell_length_a 28.328334
_cell_length_b 7.479931
_cell_length_c 19.382770
_cell_angle_alpha 90.000000
_cell_angle_beta 90.000000
_cell_angle_gamma 90.000000
_cell_volume 4107.092350
_symmetry_space_group_name_H-M "I M M M"
_symmetry_group_IT_number 71
_symmetry_cell_setting 'orthorhombic'
loop_
_space_group_symop_operation_xyz
x,y,z
-x,-y,z
x,-y,-z
-x,y,-z
-x,-y,-z
x,y,-z
-x,y,z
x,-y,z
1/2+x,1/2+y,1/2+z
1/2-x,1/2-y,1/2+z
1/2+x,1/2-y,1/2-z
1/2-x,1/2+y,1/2-z
1/2-x,1/2-y,1/2-z
1/2+x,1/2+y,1/2-z
1/2-x,1/2+y,1/2+z
1/2+x,1/2-y,1/2+z
loop_
_atom_site_type_symbol
_atom_site_label
_atom_site_fract_x
_atom_site_fract_y
_atom_site_fract_z
Si Si1 0.342083 0.284633 0.646747
Si Si2 0.183407 0.217827 0.301248
Si Si3 0.251019 0.710773 0.075918
Si Si4 0.000000 0.287768 0.575920
Si Si5 0.079457 0.210340 0.682500
Si Si6 0.447988 0.281606 0.666110
O O1 0.343576 0.500000 0.649668
O O2 0.320333 0.223377 0.721081
O O3 0.304655 0.230575 0.589474
O O4 0.396634 0.225739 0.636487
O O5 0.222187 0.283514 0.355920
O O6 0.132223 0.274705 0.329708
O O7 0.187677 0.000000 0.298580
O O8 0.262273 0.500000 0.073967
O O9 0.263535 0.784417 0.000000
O O10 0.045518 0.235709 0.619120
O O11 0.000000 0.500000 0.571543
O O12 0.000000 0.209906 0.500000
O O13 0.056716 0.277201 0.753687
O O14 0.084707 0.000000 0.695164
O O15 0.500000 0.223402 0.639951
O O16 0.448745 0.500000 0.662700
#
# Coordination Sequence:
#
# PCOD9520872 Si02
#       6
#    16  16  16   8  16  16
#     4   9  17  30  51  76  98 123 158 201 243 288
#     4   8  16  31  52  76  96 119 159 208 249 281
#     4  10  20  33  48  68 100 136 163 195 243 293
#     4  11  23  33  39  57  97 137 160 189 238 285
#     4   9  16  30  52  71  86 113 160 205 235 277
#     4   8  13  25  49  76  97 114 142 194 250 284
#
# _framework density 21.426351
#
# number of rings (size 3 to 8) (size 9 to 14) (size 15 to 20)
#    0.000    3.000    0.909    3.000    0.000    1.818 
#    0.000    6.364    0.000    0.545    0.000    3.818 
#    0.000    0.000    0.000    0.000    0.000    0.000 
#
# Total GULP energy -245103.557826 kJ/mol
# GULP energy per Si atom -5570.535405 kJ/mol
# Density = 2.137758 g / cm^3
# Si number density = 21.426351 Si / 1000 Ang^3
#
#
#
# Elastic Constant Matrix: (Units=GPa)
#
#
# Indices 1 2 3 4 5 6 
#
# 1 125.6896 -3.9650 23.9412 0.0000 0.0000 0.0000
# 2 -3.9650 52.7037 -2.7942 0.0000 0.0000 0.0000
# 3 23.9412 -2.7942 32.7036 0.0000 0.0000 0.0000
# 4 0.0000 0.0000 0.0000 11.9542 0.0000 0.0000
# 5 0.0000 0.0000 0.0000 0.0000 14.1264 0.0000
# 6 0.0000 0.0000 0.0000 0.0000 0.0000 1.3886
#
#
#
# Elastic Compliance Matrix: (Units=1/GPa)
#
#
# Indices 1 2 3 4 5 6 
#
# 1 0.009251 0.000338 -0.006744 0.000000 0.000000 0.000000
# 2 0.000338 0.019073 0.001382 0.000000 0.000000 0.000000
# 3 -0.006744 0.001382 0.035633 0.000000 0.000000 0.000000
# 4 0.000000 0.000000 0.000000 0.083652 0.000000 0.000000
# 5 0.000000 0.000000 0.000000 0.000000 0.070789 0.000000
# 6 0.000000 0.000000 0.000000 0.000000 0.000000 0.720139
#
#
# Mechanical properties :
#
#
# Convention : Reuss Voigt Hill
#
# Bulk Modulus (GPa) = 18.54951 27.27345 22.91148
# Shear Modulus (GPa) = 5.17302 18.42152 11.79727
#
# Velocity S-wave (km/s) = 1.55550 2.93535 2.34902
# Velocity P-wave (km/s) = 3.44996 4.92391 4.25130
#
# Compressibility (1/GPa) = 0.05390978
#
# Stress axis : x y z
#
# Youngs Moduli (GPa) = 108.09281 52.43093 28.06425
#
# Poissons Ratio (x) = -0.01775 0.18926
# Poissons Ratio (y) = -0.03658 -0.03878
# Poissons Ratio (z) = 0.72894 -0.07245
#
# Static dielectric constant tensor:
#      x y z
#    x 1.792870 0.000000 0.000000 
#    y 0.000000 1.833790 0.000000 
#    z 0.000000 0.000000 1.769380 
# 
# From -- ./inp_files/10959.got.cif
#   From: 2010.05.17/outbox.cif.g08.bks.cpg/sg71_6_cif.got.tgz:10959.got - 2010.06.03 16:22:01.
