data_PCOD9520580
_publ_section_title
;
Structure prediction by ZEFSAII (Michael W. Deem and Ramdas Pophale) SiO2 
 PCOD9520580
Probable space group: I M M M
;
_chemical_formula_sum "Si O2"
_cell_formula_units_Z 96
_cell_length_a 13.889775
_cell_length_b 15.906656
_cell_length_c 24.109208
_cell_angle_alpha 90.000000
_cell_angle_beta 90.000000
_cell_angle_gamma 90.000000
_cell_volume 5326.685350
_symmetry_space_group_name_H-M "I M M M"
_symmetry_group_IT_number 71
_symmetry_cell_setting 'orthorhombic'
loop_
_space_group_symop_operation_xyz
x,y,z
-x,-y,z
x,-y,-z
-x,y,-z
-x,-y,-z
x,y,-z
-x,y,z
x,-y,z
1/2+x,1/2+y,1/2+z
1/2-x,1/2-y,1/2+z
1/2+x,1/2-y,1/2-z
1/2-x,1/2+y,1/2-z
1/2-x,1/2-y,1/2-z
1/2+x,1/2+y,1/2-z
1/2-x,1/2+y,1/2+z
1/2+x,1/2-y,1/2+z
loop_
_atom_site_type_symbol
_atom_site_label
_atom_site_fract_x
_atom_site_fract_y
_atom_site_fract_z
Si Si1 0.610567 0.500000 0.253208
Si Si2 0.611946 0.500000 0.388185
Si Si3 0.297327 0.678157 0.386060
Si Si4 0.116152 0.500000 0.263480
Si Si5 0.116082 0.818847 0.237093
Si Si6 0.385274 0.841633 0.436262
Si Si7 0.117663 0.500000 0.136713
Si Si8 0.614374 0.828656 0.824933
O O1 0.500000 0.500000 0.233562
O O2 0.611490 0.500000 0.320617
O O3 0.650785 0.591435 0.238422
O O4 0.500000 0.500000 0.405842
O O5 0.664499 0.413447 0.404622
O O6 0.339826 0.693401 0.323745
O O7 0.335011 0.753689 0.423324
O O8 0.182774 0.681264 0.377631
O O9 0.149845 0.500000 0.200277
O O10 0.143095 0.417033 0.296912
O O11 0.000000 0.500000 0.260660
O O12 0.134084 0.743695 0.279533
O O13 0.000000 0.824372 0.229452
O O14 0.370673 0.867178 0.500000
O O15 0.500000 0.830141 0.427673
O O16 0.352185 0.915905 0.395458
O O17 0.000000 0.500000 0.136012
O O18 0.500000 0.828655 0.836408
#
# Coordination Sequence:
#
# PCOD9520580 Si02
#       8
#     8   8  16   8  16  16   8  16
#     4   7  12  23  39  58  84 120 157 190 228 279
#     4   9  17  29  47  69  90 118 156 194 237 294
#     4  11  19  31  49  69  97 134 169 206 255 306
#     4   9  17  30  47  69  98 134 173 206 242 295
#     4   9  16  27  43  65  93 125 162 202 247 303
#     4  10  20  34  53  77 103 132 169 213 261 312
#     4   9  17  31  52  76 106 139 165 199 251 311
#     4  10  20  31  44  67 100 135 172 211 248 296
#
# _framework density 18.022465
#
# number of rings (size 3 to 8) (size 9 to 14) (size 15 to 20)
#    0.000    2.500    0.000    4.750    0.000    3.667 
#    0.000    1.250    0.000    2.000    0.000    0.000 
#    0.000    4.667    0.000    0.000    0.000    0.000 
#
# Total GULP energy -267806.066223 kJ/mol
# GULP energy per Si atom -5579.293046 kJ/mol
# Density = 1.798144 g / cm^3
# Si number density = 18.022465 Si / 1000 Ang^3
#
#
#
# Elastic Constant Matrix: (Units=GPa)
#
#
# Indices 1 2 3 4 5 6 
#
# 1 58.5235 -0.5528 2.6653 0.0000 0.0000 0.0000
# 2 -0.5528 90.0762 0.3442 0.0000 0.0000 0.0000
# 3 2.6653 0.3442 19.3517 0.0000 0.0000 0.0000
# 4 0.0000 0.0000 0.0000 14.3652 0.0000 0.0000
# 5 0.0000 0.0000 0.0000 0.0000 17.3535 0.0000
# 6 0.0000 0.0000 0.0000 0.0000 0.0000 6.3465
#
#
#
# Elastic Compliance Matrix: (Units=1/GPa)
#
#
# Indices 1 2 3 4 5 6 
#
# 1 0.017196 0.000115 -0.002371 0.000000 0.000000 0.000000
# 2 0.000115 0.011103 -0.000213 0.000000 0.000000 0.000000
# 3 -0.002371 -0.000213 0.052005 0.000000 0.000000 0.000000
# 4 0.000000 0.000000 0.000000 0.069613 0.000000 0.000000
# 5 0.000000 0.000000 0.000000 0.000000 0.057625 0.000000
# 6 0.000000 0.000000 0.000000 0.000000 0.000000 0.157566
#
#
# Mechanical properties :
#
#
# Convention : Reuss Voigt Hill
#
# Bulk Modulus (GPa) = 13.26852 19.20721 16.23787
# Shear Modulus (GPa) = 12.65279 18.64602 15.64941
#
# Velocity S-wave (km/s) = 2.65251 3.22001 2.94994
# Velocity P-wave (km/s) = 4.09381 4.95026 4.54227
#
# Compressibility (1/GPa) = 0.07536637
#
# Stress axis : x y z
#
# Youngs Moduli (GPa) = 58.15240 90.06385 19.22881
#
# Poissons Ratio (x) = -0.01032 0.04558
# Poissons Ratio (y) = -0.00666 0.00410
# Poissons Ratio (z) = 0.13785 0.01921
#
# Static dielectric constant tensor:
#      x y z
#    x 1.657570 0.000000 0.000000 
#    y 0.000000 1.649150 0.000000 
#    z 0.000000 0.000000 1.567660 
# 
# From -- ./inp_files/59899.got.cif
#   From: 2010.05.17/outbox.cif.g08.bks.cpg/sg71_30_cif.got.tgz:59899.got - 2010.06.03 16:22:01.
