data_PCOD9520386
_publ_section_title
;
Structure prediction by ZEFSAII (Michael W. Deem and Ramdas Pophale) SiO2 
 PCOD9520386
Probable space group: I M M M
;
_chemical_formula_sum "Si O2"
_cell_formula_units_Z 72
_cell_length_a 25.125885
_cell_length_b 16.602015
_cell_length_c 8.458496
_cell_angle_alpha 90.000000
_cell_angle_beta 90.000000
_cell_angle_gamma 90.000000
_cell_volume 3528.379725
_symmetry_space_group_name_H-M "I M M M"
_symmetry_group_IT_number 71
_symmetry_cell_setting 'orthorhombic'
loop_
_space_group_symop_operation_xyz
x,y,z
-x,-y,z
x,-y,-z
-x,y,-z
-x,-y,-z
x,y,-z
-x,y,z
x,-y,z
1/2+x,1/2+y,1/2+z
1/2-x,1/2-y,1/2+z
1/2+x,1/2-y,1/2-z
1/2-x,1/2+y,1/2-z
1/2-x,1/2-y,1/2-z
1/2+x,1/2+y,1/2-z
1/2-x,1/2+y,1/2+z
1/2+x,1/2-y,1/2+z
loop_
_atom_site_type_symbol
_atom_site_label
_atom_site_fract_x
_atom_site_fract_y
_atom_site_fract_z
Si Si1 0.771731 0.163223 0.309972
Si Si2 0.939483 0.656855 0.685763
Si Si3 0.000000 0.094026 0.692396
Si Si4 0.718431 0.000000 0.183420
Si Si5 0.604651 0.000000 0.321544
Si Si6 0.108502 0.178424 0.692114
O O1 0.771072 0.166722 0.500000
O O2 0.750000 0.250000 0.250000
O O3 0.740008 0.083551 0.257144
O O4 0.833200 0.151891 0.255254
O O5 0.931915 0.637333 0.500000
O O6 0.929806 0.578447 0.787084
O O7 0.899773 0.727846 0.730919
O O8 0.000000 0.686987 0.701681
O O9 0.055614 0.132508 0.749423
O O10 0.000000 0.103411 0.500000
O O11 0.000000 0.000000 0.728307
O O12 0.655103 0.000000 0.207098
O O13 0.732465 0.000000 0.000000
O O14 0.624817 0.000000 0.500000
O O15 0.107803 0.172227 0.500000
#
# Coordination Sequence:
#
# PCOD9520386 Si02
#       6
#    16  16   8   8   8  16
#     4  11  23  40  64  95 129 166 209 259 314 377
#     4  10  19  35  59  88 123 162 202 240 289 360
#     4   9  16  28  52  87 120 147 185 238 290 340
#     4  12  26  45  65  87 119 163 215 269 324 379
#     4  12  25  39  58  85 117 153 202 259 315 373
#     4   9  18  33  56  88 122 155 195 242 292 352
#
# _framework density 20.405967
#
# number of rings (size 3 to 8) (size 9 to 14) (size 15 to 20)
#    0.000    1.667    1.111    4.333    1.556    3.556 
#    0.000    1.111    0.000    0.000    0.000    0.778 
#    0.000    0.000    0.000    0.000    0.000    0.000 
#
# Total GULP energy -201017.257723 kJ/mol
# GULP energy per Si atom -5583.812715 kJ/mol
# Density = 2.035952 g / cm^3
# Si number density = 20.405967 Si / 1000 Ang^3
#
#
#
# Elastic Constant Matrix: (Units=GPa)
#
#
# Indices 1 2 3 4 5 6 
#
# 1 80.8823 27.0110 12.4954 0.0000 0.0000 0.0000
# 2 27.0110 82.6433 22.6710 0.0000 0.0000 0.0000
# 3 12.4954 22.6710 42.4815 0.0000 0.0000 0.0000
# 4 0.0000 0.0000 0.0000 15.5967 0.0000 0.0000
# 5 0.0000 0.0000 0.0000 0.0000 20.9109 0.0000
# 6 0.0000 0.0000 0.0000 0.0000 0.0000 38.9021
#
#
#
# Elastic Compliance Matrix: (Units=1/GPa)
#
#
# Indices 1 2 3 4 5 6 
#
# 1 0.014017 -0.004042 -0.001966 0.000000 0.000000 0.000000
# 2 -0.004042 0.015341 -0.006998 0.000000 0.000000 0.000000
# 3 -0.001966 -0.006998 0.027853 0.000000 0.000000 0.000000
# 4 0.000000 0.000000 0.000000 0.064116 0.000000 0.000000
# 5 0.000000 0.000000 0.000000 0.000000 0.047822 0.000000
# 6 0.000000 0.000000 0.000000 0.000000 0.000000 0.025706
#
#
# Mechanical properties :
#
#
# Convention : Reuss Voigt Hill
#
# Bulk Modulus (GPa) = 32.05257 36.70687 34.37972
# Shear Modulus (GPa) = 21.62013 24.67059 23.14536
#
# Velocity S-wave (km/s) = 3.25853 3.48082 3.37151
# Velocity P-wave (km/s) = 5.46799 5.84655 5.66044
#
# Compressibility (1/GPa) = 0.03119874
#
# Stress axis : x y z
#
# Youngs Moduli (GPa) = 71.34087 65.18464 35.90341
#
# Poissons Ratio (x) = 0.26348 0.07058
# Poissons Ratio (y) = 0.28837 0.25125
# Poissons Ratio (z) = 0.14025 0.45617
#
# Static dielectric constant tensor:
#      x y z
#    x 1.709200 0.000000 0.000000 
#    y 0.000000 1.695940 0.000000 
#    z 0.000000 0.000000 1.695840 
# 
# From -- ./inp_files/14387.got.cif
#   From: 2010.05.17/outbox.cif.g08.bks.cpg/sg71_8_cif.got.tgz:14387.got - 2010.06.03 16:22:01.
