data_PCOD9520265
_publ_section_title
;
Structure prediction by ZEFSAII (Michael W. Deem and Ramdas Pophale) SiO2 
 PCOD9520265
Probable space group: I M M M
;
_chemical_formula_sum "Si O2"
_cell_formula_units_Z 76
_cell_length_a 11.825272
_cell_length_b 28.129638
_cell_length_c 11.375037
_cell_angle_alpha 90.000000
_cell_angle_beta 90.000000
_cell_angle_gamma 90.000000
_cell_volume 3783.799367
_symmetry_space_group_name_H-M "I M M M"
_symmetry_group_IT_number 71
_symmetry_cell_setting 'orthorhombic'
loop_
_space_group_symop_operation_xyz
x,y,z
-x,-y,z
x,-y,-z
-x,y,-z
-x,-y,-z
x,y,-z
-x,y,z
x,-y,z
1/2+x,1/2+y,1/2+z
1/2-x,1/2-y,1/2+z
1/2+x,1/2-y,1/2-z
1/2-x,1/2+y,1/2-z
1/2-x,1/2-y,1/2-z
1/2+x,1/2+y,1/2-z
1/2-x,1/2+y,1/2+z
1/2+x,1/2-y,1/2+z
loop_
_atom_site_type_symbol
_atom_site_label
_atom_site_fract_x
_atom_site_fract_y
_atom_site_fract_z
Si Si1 0.134007 0.617868 0.803879
Si Si2 0.000000 0.166807 0.677952
Si Si3 0.760571 0.214865 0.362351
Si Si4 0.257667 0.446461 0.359345
Si Si5 0.500000 0.406039 0.640892
Si Si6 0.746759 0.946700 0.500000
Si Si7 0.500000 0.418977 0.000000
O O1 0.179013 0.670286 0.833516
O O2 0.174589 0.595604 0.680835
O O3 0.000000 0.615799 0.817746
O O4 0.198730 0.582358 0.890892
O O5 0.111641 0.195096 0.644208
O O6 0.000000 0.117115 0.609115
O O7 0.000000 0.147882 0.811227
O O8 0.740485 0.230752 0.500000
O O9 0.750000 0.250000 0.250000
O O10 0.257687 0.448283 0.500000
O O11 0.228855 0.500000 0.316316
O O12 0.385188 0.432612 0.321199
O O13 0.500000 0.405764 0.500000
O O14 0.882395 0.946215 0.500000
O O15 0.703981 0.000000 0.500000
#
# Coordination Sequence:
#
# PCOD9520265 Si02
#       7
#    16   8  16  16   8   8   4
#     4  12  25  44  65  92 136 179 227 278 338 415
#     4  12  20  44  73  94 134 176 212 294 358 408
#     4  12  27  48  74 102 133 178 232 295 361 424
#     4  10  21  38  62  95 135 179 227 279 339 406
#     4  10  19  34  64  98 134 172 222 283 346 409
#     4  12  24  40  69 103 136 178 224 275 339 412
#     4  12  19  42  72  96 142 168 222 272 355 406
#
# _framework density 20.085632
#
# number of rings (size 3 to 8) (size 9 to 14) (size 15 to 20)
#    0.000    0.632    6.316    1.421    1.474    5.474 
#    0.000    4.211    0.000    0.000    0.000    0.000 
#    0.000    0.000    0.000    0.000    0.000    0.000 
#
# Total GULP energy -212155.347692 kJ/mol
# GULP energy per Si atom -5583.035466 kJ/mol
# Density = 2.003992 g / cm^3
# Si number density = 20.085632 Si / 1000 Ang^3
#
#
#
# Elastic Constant Matrix: (Units=GPa)
#
#
# Indices 1 2 3 4 5 6 
#
# 1 142.9399 35.8309 29.5527 0.0000 -0.0001 0.0009
# 2 35.8309 110.1170 61.2385 0.0000 0.0000 -0.0010
# 3 29.5527 61.2385 98.9887 0.0000 0.0002 -0.0006
# 4 0.0000 0.0000 0.0000 31.6721 0.0001 -0.0023
# 5 -0.0001 0.0000 0.0002 0.0001 69.5379 -0.0031
# 6 0.0009 -0.0010 -0.0006 -0.0023 -0.0031 784.3941
#
#
#
# Elastic Compliance Matrix: (Units=1/GPa)
#
#
# Indices 1 2 3 4 5 6 
#
# 1 0.007701 -0.001871 -0.001142 0.000000 0.000000 0.000000
# 2 -0.001871 0.014299 -0.008287 0.000000 0.000000 0.000000
# 3 -0.001142 -0.008287 0.015570 0.000000 0.000000 0.000000
# 4 0.000000 0.000000 0.000000 0.031574 0.000000 0.000000
# 5 0.000000 0.000000 0.000000 0.000000 0.014381 0.000000
# 6 0.000000 0.000000 0.000000 0.000000 0.000000 0.001275
#
#
# Mechanical properties :
#
#
# Convention : Reuss Voigt Hill
#
# Bulk Modulus (GPa) = 66.80071 67.25444 67.02758
# Shear Modulus (GPa) = 44.48866 192.14904 118.31885
#
# Velocity S-wave (km/s) = 4.71143 9.79146 7.68343
# Velocity P-wave (km/s) = 7.93265 12.70381 10.59041
#
# Compressibility (1/GPa) = 0.01496990
#
# Stress axis : x y z
#
# Youngs Moduli (GPa) = 129.85376 69.93620 64.22677
#
# Poissons Ratio (x) = 0.13084 0.07333
# Poissons Ratio (y) = 0.24294 0.53226
# Poissons Ratio (z) = 0.14825 0.57958
#
# Static dielectric constant tensor:
#      x y z
#    x 1.677680 0.000000 0.000000 
#    y 0.000000 1.692350 0.000000 
#    z 0.000000 0.000000 1.882030 
# 
# From -- ./inp_files/20220.got.cif
#   From: 2010.05.17/outbox.cif.g08.bks.cpg/sg71_11_cif.got.tgz:20220.got - 2010.06.03 16:22:01.
