data_PCOD9520081
_publ_section_title
;
Structure prediction by ZEFSAII (Michael W. Deem and Ramdas Pophale) SiO2 
 PCOD9520081
Probable space group: I M M M
;
_chemical_formula_sum "Si O2"
_cell_formula_units_Z 112
_cell_length_a 28.185483
_cell_length_b 13.614756
_cell_length_c 14.425712
_cell_angle_alpha 90.000000
_cell_angle_beta 90.000000
_cell_angle_gamma 90.000000
_cell_volume 5535.700706
_symmetry_space_group_name_H-M "I M M M"
_symmetry_group_IT_number 71
_symmetry_cell_setting 'orthorhombic'
loop_
_space_group_symop_operation_xyz
x,y,z
-x,-y,z
x,-y,-z
-x,y,-z
-x,-y,-z
x,y,-z
-x,y,z
x,-y,z
1/2+x,1/2+y,1/2+z
1/2-x,1/2-y,1/2+z
1/2+x,1/2-y,1/2-z
1/2-x,1/2+y,1/2-z
1/2-x,1/2-y,1/2-z
1/2+x,1/2+y,1/2-z
1/2-x,1/2+y,1/2+z
1/2+x,1/2-y,1/2+z
loop_
_atom_site_type_symbol
_atom_site_label
_atom_site_fract_x
_atom_site_fract_y
_atom_site_fract_z
Si Si1 0.186911 0.697835 0.795959
Si Si2 0.909067 0.681054 0.103860
Si Si3 0.645650 0.610802 0.769848
Si Si4 0.551627 0.117584 0.200482
Si Si5 0.555993 0.613792 0.334446
Si Si6 0.351675 0.119013 0.894155
Si Si7 0.774819 0.116366 0.397335
O O1 0.145178 0.658438 0.864323
O O2 0.173393 0.812180 0.793231
O O3 0.179748 0.656995 0.691695
O O4 0.238325 0.671175 0.831455
O O5 0.938613 0.640288 0.191266
O O6 0.922683 0.797640 0.104535
O O7 0.918134 0.643533 0.000000
O O8 0.656819 0.500000 0.741426
O O9 0.589526 0.623079 0.756704
O O10 0.670256 0.626580 0.868505
O O11 0.500000 0.157028 0.174083
O O12 0.595446 0.152029 0.137640
O O13 0.550832 0.000000 0.190705
O O14 0.500000 0.628978 0.320311
O O15 0.561663 0.500000 0.367934
O O16 0.350182 0.000000 0.892263
O O17 0.340707 0.149034 0.000000
O O18 0.766755 0.152370 0.500000
O O19 0.764067 0.000000 0.392548
#
# Coordination Sequence:
#
# PCOD9520081 Si02
#       7
#    16  16  16  16  16  16  16
#     4  10  19  34  54  77 107 142 176 215 264 318
#     4  10  20  32  48  73 105 138 174 217 260 308
#     4   9  19  35  54  77 105 138 179 225 267 311
#     4   9  18  31  46  67  97 133 172 215 266 321
#     4   9  18  33  53  75 100 135 178 222 270 318
#     4   9  18  32  50  73  99 129 172 223 269 316
#     4  10  20  34  55  82 110 142 180 219 262 319
#
# _framework density 20.232308
#
# number of rings (size 3 to 8) (size 9 to 14) (size 15 to 20)
#    0.000    2.571    0.000    1.714    0.000    3.143 
#    0.000    2.857    0.000    2.571    0.000   11.000 
#    0.000    0.000    0.000    0.000    0.000    0.571 
#
# Total GULP energy -311867.710283 kJ/mol
# GULP energy per Si atom -5569.066255 kJ/mol
# Density = 2.018626 g / cm^3
# Si number density = 20.232308 Si / 1000 Ang^3
#
#
#
# Elastic Constant Matrix: (Units=GPa)
#
#
# Indices 1 2 3 4 5 6 
#
# 1 103.5439 2.0916 54.3522 0.0000 0.0000 0.0000
# 2 2.0916 32.8581 19.4895 0.0000 0.0000 0.0000
# 3 54.3522 19.4895 122.6290 0.0000 0.0000 0.0000
# 4 0.0000 0.0000 0.0000 13.5276 0.0000 0.0000
# 5 0.0000 0.0000 0.0000 0.0000 6.6776 0.0000
# 6 0.0000 0.0000 0.0000 0.0000 0.0000 22.1734
#
#
#
# Elastic Compliance Matrix: (Units=1/GPa)
#
#
# Indices 1 2 3 4 5 6 
#
# 1 0.012818 0.002820 -0.006130 0.000000 0.000000 0.000000
# 2 0.002820 0.034222 -0.006689 0.000000 0.000000 0.000000
# 3 -0.006130 -0.006689 0.011934 0.000000 0.000000 0.000000
# 4 0.000000 0.000000 0.000000 0.073923 0.000000 0.000000
# 5 0.000000 0.000000 0.000000 0.000000 0.149754 0.000000
# 6 0.000000 0.000000 0.000000 0.000000 0.000000 0.045099
#
#
# Mechanical properties :
#
#
# Convention : Reuss Voigt Hill
#
# Bulk Modulus (GPa) = 25.65581 45.65531 35.65556
# Shear Modulus (GPa) = 13.86042 20.68225 17.27133
#
# Velocity S-wave (km/s) = 2.62021 3.20072 2.92490
# Velocity P-wave (km/s) = 4.67570 6.02279 5.39148
#
# Compressibility (1/GPa) = 0.03897753
#
# Stress axis : x y z
#
# Youngs Moduli (GPa) = 78.01361 29.22123 83.79098
#
# Poissons Ratio (x) = -0.08240 0.51360
# Poissons Ratio (y) = -0.21998 0.56045
# Poissons Ratio (z) = 0.47819 0.19545
#
# Static dielectric constant tensor:
#      x y z
#    x 1.741130 0.000000 0.000000 
#    y 0.000000 1.778770 0.000000 
#    z 0.000000 0.000000 1.706410 
# 
# From -- ./inp_files/30022.got.cif
#   From: 2010.05.17/outbox.cif.g08.bks.cpg/sg71_16_cif.got.tgz:30022.got - 2010.06.03 16:22:01.
