data_PCOD9520760
_publ_section_title
;
Structure prediction by ZEFSAII (Michael W. Deem and Ramdas Pophale) SiO2 
 PCOD9520760
Probable space group: I M M M
;
_chemical_formula_sum "Si O2"
_cell_formula_units_Z 104
_cell_length_a 9.015707
_cell_length_b 29.182738
_cell_length_c 24.547855
_cell_angle_alpha 90.000000
_cell_angle_beta 90.000000
_cell_angle_gamma 90.000000
_cell_volume 6458.614669
_symmetry_space_group_name_H-M "I M M M"
_symmetry_group_IT_number 71
_symmetry_cell_setting 'orthorhombic'
loop_
_space_group_symop_operation_xyz
x,y,z
-x,-y,z
x,-y,-z
-x,y,-z
-x,-y,-z
x,y,-z
-x,y,z
x,-y,z
1/2+x,1/2+y,1/2+z
1/2-x,1/2-y,1/2+z
1/2+x,1/2-y,1/2-z
1/2-x,1/2+y,1/2-z
1/2-x,1/2-y,1/2-z
1/2+x,1/2+y,1/2-z
1/2-x,1/2+y,1/2+z
1/2+x,1/2-y,1/2+z
loop_
_atom_site_type_symbol
_atom_site_label
_atom_site_fract_x
_atom_site_fract_y
_atom_site_fract_z
Si Si1 0.677991 0.086335 0.874592
Si Si2 0.824029 0.054587 0.232572
Si Si3 0.671069 0.278518 0.066161
Si Si4 0.823973 0.000000 0.065083
Si Si5 0.319363 0.177823 0.062799
Si Si6 0.678644 0.553093 0.857991
Si Si7 0.176894 0.627225 0.936208
O O1 0.500000 0.082612 0.877635
O O2 0.732608 0.081157 0.812771
O O3 0.724253 0.134777 0.900814
O O4 0.750583 0.044850 0.908451
O O5 0.783123 0.064516 0.295174
O O6 0.000000 0.063170 0.225922
O O7 0.801385 0.000000 0.224110
O O8 0.500000 0.284376 0.083682
O O9 0.727990 0.228232 0.083082
O O10 0.764378 0.322849 0.081882
O O11 0.670555 0.276606 0.000000
O O12 0.000000 0.000000 0.076691
O O13 0.802446 0.000000 0.000000
O O14 0.500000 0.179447 0.061967
O O15 0.271150 0.171136 0.000000
O O16 0.500000 0.555732 0.862365
O O17 0.720868 0.500000 0.867984
O O18 0.752499 0.587707 0.899735
O O19 0.000000 0.625849 0.932631
O O20 0.219032 0.621322 0.000000
#
# Coordination Sequence:
#
# PCOD9520760 Si02
#       7
#    16  16  16   8  16  16  16
#     4  11  20  30  49  74  97 125 163 207 252 299
#     4   9  18  34  52  68  93 127 164 205 245 287
#     4   8  14  28  50  70  91 126 166 197 230 283
#     4  11  23  35  45  63  97 137 170 203 248 297
#     4   8  15  28  46  70  98 125 158 203 248 287
#     4   9  19  35  54  74  95 128 169 202 232 277
#     4  10  20  32  48  75 108 133 152 188 244 292
#
# _framework density 16.102525
#
# number of rings (size 3 to 8) (size 9 to 14) (size 15 to 20)
#    0.000    2.692    0.769    3.462    0.000    3.385 
#    0.000    4.615    0.000    4.615    0.000    0.000 
#    0.000    0.000    0.000    0.000    0.000    0.000 
#
# Total GULP energy -289831.548431 kJ/mol
# GULP energy per Si atom -5573.683624 kJ/mol
# Density = 1.606587 g / cm^3
# Si number density = 16.102525 Si / 1000 Ang^3
#
#
#
# Elastic Constant Matrix: (Units=GPa)
#
#
# Indices 1 2 3 4 5 6 
#
# 1 41.6676 53.3200 45.4223 0.0000 0.0000 0.0000
# 2 53.3200 155.3369 87.1023 0.0000 0.0000 0.0000
# 3 45.4223 87.1023 90.0058 0.0000 0.0000 0.0000
# 4 0.0000 0.0000 0.0000 7.4755 0.0000 0.0000
# 5 0.0000 0.0000 0.0000 0.0000 25.0785 0.0000
# 6 0.0000 0.0000 0.0000 0.0000 0.0000 12.3913
#
#
#
# Elastic Compliance Matrix: (Units=1/GPa)
#
#
# Indices 1 2 3 4 5 6 
#
# 1 0.057107 -0.007526 -0.021536 0.000000 0.000000 0.000000
# 2 -0.007526 0.015068 -0.010783 0.000000 0.000000 0.000000
# 3 -0.021536 -0.010783 0.032414 0.000000 0.000000 0.000000
# 4 0.000000 0.000000 0.000000 0.133770 0.000000 0.000000
# 5 0.000000 0.000000 0.000000 0.000000 0.039875 0.000000
# 6 0.000000 0.000000 0.000000 0.000000 0.000000 0.080702
#
#
# Mechanical properties :
#
#
# Convention : Reuss Voigt Hill
#
# Bulk Modulus (GPa) = 40.16456 73.18883 56.67669
# Shear Modulus (GPa) = 11.18750 15.73344 13.46047
#
# Velocity S-wave (km/s) = 2.63870 3.12922 2.89437
# Velocity P-wave (km/s) = 5.85498 7.65548 6.81496
#
# Compressibility (1/GPa) = 0.02489757
#
# Stress axis : x y z
#
# Youngs Moduli (GPa) = 17.51086 66.36758 30.85054
#
# Poissons Ratio (x) = 0.49950 0.66441
# Poissons Ratio (y) = 0.13179 0.33267
# Poissons Ratio (z) = 0.37712 0.71566
#
# Static dielectric constant tensor:
#      x y z
#    x 1.535760 0.000000 0.000000 
#    y 0.000000 1.537930 0.000000 
#    z 0.000000 0.000000 1.527590 
# 
# From -- ./inp_files/58016.got.cif
#   From: 2010.05.17/outbox.cif.g08.bks.cpg/sg71_30_cif.got.tgz:58016.got - 2010.06.03 16:22:01.
