data_PCOD9520933
_publ_section_title
;
Structure prediction by ZEFSAII (Michael W. Deem and Ramdas Pophale) SiO2 
 PCOD9520933
Probable space group: I M M M
;
_chemical_formula_sum "Si O2"
_cell_formula_units_Z 104
_cell_length_a 9.037715
_cell_length_b 24.332820
_cell_length_c 28.753150
_cell_angle_alpha 90.000000
_cell_angle_beta 90.000000
_cell_angle_gamma 90.000000
_cell_volume 6323.194130
_symmetry_space_group_name_H-M "I M M M"
_symmetry_group_IT_number 71
_symmetry_cell_setting 'orthorhombic'
loop_
_space_group_symop_operation_xyz
x,y,z
-x,-y,z
x,-y,-z
-x,y,-z
-x,-y,-z
x,y,-z
-x,y,z
x,-y,z
1/2+x,1/2+y,1/2+z
1/2-x,1/2-y,1/2+z
1/2+x,1/2-y,1/2-z
1/2-x,1/2+y,1/2-z
1/2-x,1/2-y,1/2-z
1/2+x,1/2+y,1/2-z
1/2-x,1/2+y,1/2+z
1/2+x,1/2-y,1/2+z
loop_
_atom_site_type_symbol
_atom_site_label
_atom_site_fract_x
_atom_site_fract_y
_atom_site_fract_z
Si Si1 0.822369 0.121810 0.589502
Si Si2 0.175834 0.565835 0.821754
Si Si3 0.676327 0.643663 0.445443
Si Si4 0.329660 0.433280 0.725454
Si Si5 0.825105 0.565802 0.000000
Si Si6 0.674748 0.741330 0.054931
Si Si7 0.676261 0.934830 0.870903
O O1 0.755621 0.096951 0.636378
O O2 0.751406 0.090596 0.545636
O O3 0.788572 0.186487 0.583205
O O4 0.000000 0.115451 0.588428
O O5 0.199948 0.500000 0.827124
O O6 0.243381 0.583035 0.772073
O O7 0.000000 0.575234 0.822788
O O8 0.713265 0.634913 0.500000
O O9 0.500000 0.639986 0.440278
O O10 0.732376 0.704804 0.433112
O O11 0.755168 0.599687 0.412770
O O12 0.500000 0.414907 0.726389
O O13 0.329715 0.500000 0.725381
O O14 0.249060 0.416737 0.677915
O O15 0.809914 0.500000 0.000000
O O16 0.000000 0.579045 0.000000
O O17 0.500000 0.753312 0.060790
O O18 0.698300 0.729082 0.000000
O O19 0.500000 0.927600 0.868786
O O20 0.706387 0.000000 0.876980
#
# Coordination Sequence:
#
# PCOD9520933 Si02
#       7
#    16  16  16  16   8  16  16
#     4  11  21  34  52  74  99 133 176 220 264 311
#     4  10  20  33  49  73 105 138 173 214 261 312
#     4  10  21  35  53  79 107 137 173 212 253 299
#     4   9  17  31  52  76 102 134 172 213 254 301
#     4  11  23  35  47  69 103 139 172 213 268 321
#     4   9  18  35  54  72  97 131 174 218 259 305
#     4  10  20  34  54  80 109 141 172 204 250 305
#
# _framework density 16.447384
#
# number of rings (size 3 to 8) (size 9 to 14) (size 15 to 20)
#    0.000    2.077    0.769    3.000    0.000    8.615 
#    0.000    1.538    0.000    0.923    0.000    0.000 
#    0.000    0.000    0.000    0.000    0.000    0.000 
#
# Total GULP energy -290221.631757 kJ/mol
# GULP energy per Si atom -5581.185226 kJ/mol
# Density = 1.640995 g / cm^3
# Si number density = 16.447384 Si / 1000 Ang^3
#
#
#
# Elastic Constant Matrix: (Units=GPa)
#
#
# Indices 1 2 3 4 5 6 
#
# 1 106.8656 70.5696 85.6647 0.0000 0.0000 0.0000
# 2 70.5696 76.7275 76.3047 0.0000 0.0000 0.0000
# 3 85.6647 76.3047 141.5120 0.0000 0.0000 0.0000
# 4 0.0000 0.0000 0.0000 -0.4566 0.0000 0.0000
# 5 0.0000 0.0000 0.0000 0.0000 33.4385 0.0000
# 6 0.0000 0.0000 0.0000 0.0000 0.0000 24.9459
#
#
#
# Elastic Compliance Matrix: (Units=1/GPa)
#
#
# Indices 1 2 3 4 5 6 
#
# 1 0.026105 -0.017885 -0.006159 0.000000 0.000000 0.000000
# 2 -0.017885 0.040356 -0.010934 0.000000 0.000000 0.000000
# 3 -0.006159 -0.010934 0.016691 0.000000 0.000000 0.000000
# 4 0.000000 0.000000 0.000000 -2.190185 0.000000 0.000000
# 5 0.000000 0.000000 0.000000 0.000000 0.029906 0.000000
# 6 0.000000 0.000000 0.000000 0.000000 0.000000 0.040087
#
#
# Mechanical properties :
#
#
# Convention : Reuss Voigt Hill
#
# Bulk Modulus (GPa) = 75.77860 87.79812 81.78836
# Shear Modulus (GPa) = -2.54753 17.75664 7.60456
#
# Velocity S-wave (km/s) = -1.24590 3.28930 2.15258
# Velocity P-wave (km/s) = 6.64106 8.24154 7.48421
#
# Compressibility (1/GPa) = 0.01319634
#
# Stress axis : x y z
#
# Youngs Moduli (GPa) = 38.30650 24.77944 59.91391
#
# Poissons Ratio (x) = 0.44318 0.36902
# Poissons Ratio (y) = 0.68511 0.65508
# Poissons Ratio (z) = 0.23594 0.27093
#
# Static dielectric constant tensor:
#      x y z
#    x 1.546970 0.000000 0.000000 
#    y 0.000000 1.531260 0.000000 
#    z 0.000000 0.000000 1.530260 
# 
# From -- ./inp_files/63285.got.cif
#   From: 2010.05.17/outbox.cif.g08.bks.cpg/sg71_32_cif.got.tgz:63285.got - 2010.06.03 16:22:01.
