data_PCOD9520722
_publ_section_title
;
Structure prediction by ZEFSAII (Michael W. Deem and Ramdas Pophale) SiO2 
 PCOD9520722
Probable space group: I M M M
;
_chemical_formula_sum "Si O2"
_cell_formula_units_Z 96
_cell_length_a 14.626475
_cell_length_b 17.698319
_cell_length_c 15.722788
_cell_angle_alpha 90.000000
_cell_angle_beta 90.000000
_cell_angle_gamma 90.000000
_cell_volume 4070.064114
_symmetry_space_group_name_H-M "I M M M"
_symmetry_group_IT_number 71
_symmetry_cell_setting 'orthorhombic'
loop_
_space_group_symop_operation_xyz
x,y,z
-x,-y,z
x,-y,-z
-x,y,-z
-x,-y,-z
x,y,-z
-x,y,z
x,-y,z
1/2+x,1/2+y,1/2+z
1/2-x,1/2-y,1/2+z
1/2+x,1/2-y,1/2-z
1/2-x,1/2+y,1/2-z
1/2-x,1/2-y,1/2-z
1/2+x,1/2+y,1/2-z
1/2-x,1/2+y,1/2+z
1/2+x,1/2-y,1/2+z
loop_
_atom_site_type_symbol
_atom_site_label
_atom_site_fract_x
_atom_site_fract_y
_atom_site_fract_z
Si Si1 0.609242 0.671721 0.592011
Si Si2 0.392809 0.792931 0.908878
Si Si3 0.640980 0.385795 0.093030
Si Si4 0.823584 0.000000 0.905843
Si Si5 0.604190 0.212880 0.272123
Si Si6 0.641319 0.087459 0.404376
Si Si7 0.600883 0.500000 0.762113
O O1 0.641826 0.702661 0.500000
O O2 0.500000 0.681937 0.593864
O O3 0.628268 0.582416 0.591800
O O4 0.646109 0.718218 0.673061
O O5 0.500000 0.814250 0.911850
O O6 0.383005 0.702261 0.905409
O O7 0.353842 0.815252 0.817124
O O8 0.352664 0.818967 0.000000
O O9 0.749630 0.398741 0.095787
O O10 0.603750 0.428978 0.174441
O O11 0.609533 0.413953 0.000000
O O12 0.812174 0.000000 0.801888
O O13 0.772901 0.000000 0.000000
O O14 0.500000 0.236201 0.250797
O O15 0.601549 0.143730 0.336350
O O16 0.608706 0.103428 0.500000
O O17 0.623289 0.000000 0.385659
O O18 0.500000 0.500000 0.718790
#
# Coordination Sequence:
#
# PCOD9520722 Si02
#       7
#    16  16  16   8  16  16   8
#     4   9  16  27  44  69 103 138 171 212 262 317
#     4   9  18  33  53  78 110 143 177 224 277 327
#     4  10  20  35  53  78 110 143 179 221 273 337
#     4  10  20  32  47  72 110 150 182 219 272 327
#     4  10  20  34  55  83 109 138 184 232 274 327
#     4  10  21  38  57  78 110 148 181 225 284 333
#     4  12  21  29  50  79 106 142 184 223 268 325
#
# _framework density 23.586853000000001
#
# number of rings (size 3 to 8) (size 9 to 14) (size 15 to 20)
#    0.000    2.167    0.833    3.000    0.000    6.500 
#    0.000    0.833    0.000    1.500    0.000    2.333 
#    0.000    0.000    0.000    0.000    0.000    0.000 
#
# Total GULP energy -267561.325549 kJ/mol
# GULP energy per Si atom -5574.194282 kJ/mol
# Density = 2.353317 g / cm^3
# Si number density = 23.586853 Si / 1000 Ang^3
#
#
#
# Elastic Constant Matrix: (Units=GPa)
#
#
# Indices 1 2 3 4 5 6 
#
# 1 70.6397 -2.5294 5.7382 0.0000 0.0000 0.0000
# 2 -2.5294 66.0815 51.1457 0.0000 0.0000 0.0000
# 3 5.7382 51.1457 186.5684 0.0001 0.0000 0.0000
# 4 0.0000 0.0000 0.0001 96.0493 0.0000 0.0000
# 5 0.0000 0.0000 0.0000 0.0000 43.9684 0.0000
# 6 0.0000 0.0000 0.0000 0.0000 0.0000 57.0182
#
#
#
# Elastic Compliance Matrix: (Units=1/GPa)
#
#
# Indices 1 2 3 4 5 6 
#
# 1 0.014257 0.001123 -0.000746 0.000000 0.000000 0.000000
# 2 0.001123 0.019297 -0.005325 0.000000 0.000000 0.000000
# 3 -0.000746 -0.005325 0.006843 0.000000 0.000000 0.000000
# 4 0.000000 0.000000 0.000000 0.010411 0.000000 0.000000
# 5 0.000000 0.000000 0.000000 0.000000 0.022744 0.000000
# 6 0.000000 0.000000 0.000000 0.000000 0.000000 0.017538
#
#
# Mechanical properties :
#
#
# Convention : Reuss Voigt Hill
#
# Bulk Modulus (GPa) = 32.78522 47.99986 40.39254
# Shear Modulus (GPa) = 44.98330 57.33619 51.15975
#
# Velocity S-wave (km/s) = 4.37181 4.93572 4.66230
# Velocity P-wave (km/s) = 6.27803 7.27160 6.79300
#
# Compressibility (1/GPa) = 0.03050155
#
# Stress axis : x y z
#
# Youngs Moduli (GPa) = 70.13995 51.82164 146.14314
#
# Poissons Ratio (x) = -0.05822 0.10910
# Poissons Ratio (y) = -0.07880 0.77815
# Poissons Ratio (z) = 0.05236 0.27593
#
# Static dielectric constant tensor:
#      x y z
#    x 1.944020 0.000000 0.000000 
#    y 0.000000 1.831800 0.000000 
#    z 0.000000 0.000000 2.013160 
# 
# From -- ./inp_files/37846.got.cif
#   From: 2010.05.17/outbox.cif.g08.bks.cpg/sg71_19_cif.got.tgz:37846.got - 2010.06.03 16:22:01.
