data_PCOD9520247
_publ_section_title
;
Structure prediction by ZEFSAII (Michael W. Deem and Ramdas Pophale) SiO2 
 PCOD9520247
Probable space group: I M M M
;
_chemical_formula_sum "Si O2"
_cell_formula_units_Z 100
_cell_length_a 27.224658
_cell_length_b 21.801554
_cell_length_c 9.537991
_cell_angle_alpha 90.000000
_cell_angle_beta 90.000000
_cell_angle_gamma 90.000000
_cell_volume 5661.177762
_symmetry_space_group_name_H-M "I M M M"
_symmetry_group_IT_number 71
_symmetry_cell_setting 'orthorhombic'
loop_
_space_group_symop_operation_xyz
x,y,z
-x,-y,z
x,-y,-z
-x,y,-z
-x,-y,-z
x,y,-z
-x,y,z
x,-y,z
1/2+x,1/2+y,1/2+z
1/2-x,1/2-y,1/2+z
1/2+x,1/2-y,1/2-z
1/2-x,1/2+y,1/2-z
1/2-x,1/2-y,1/2-z
1/2+x,1/2+y,1/2-z
1/2-x,1/2+y,1/2+z
1/2+x,1/2-y,1/2+z
loop_
_atom_site_type_symbol
_atom_site_label
_atom_site_fract_x
_atom_site_fract_y
_atom_site_fract_z
Si Si1 0.390076 0.889631 0.281298
Si Si2 0.082015 0.850889 0.667197
Si Si3 0.798730 0.320978 0.167475
Si Si4 0.556831 0.926236 0.000000
Si Si5 0.500000 0.426331 0.332873
Si Si6 0.596612 0.000000 0.500000
Si Si7 0.057148 0.735953 0.846541
Si Si8 0.186251 0.195752 0.333876
O O1 0.331942 0.876671 0.278699
O O2 0.414799 0.901814 0.133846
O O3 0.412217 0.825798 0.336325
O O4 0.402476 0.946131 0.379783
O O5 0.073827 0.858133 0.500000
O O6 0.067255 0.783348 0.722446
O O7 0.140868 0.849942 0.695015
O O8 0.047664 0.897047 0.755259
O O9 0.815591 0.258290 0.243956
O O10 0.740732 0.330178 0.192998
O O11 0.805547 0.314997 0.000000
O O12 0.500000 0.906172 0.000000
O O13 0.557362 0.000000 0.000000
O O14 0.500000 0.500000 0.318991
O O15 0.500000 0.411281 0.500000
O O16 0.000000 0.719440 0.842052
O O17 0.067086 0.765305 0.000000
O O18 0.183003 0.211336 0.500000
#
# Coordination Sequence:
#
# PCOD9520247 Si02
#       8
#    16  16  16   8   8   4  16  16
#     4  12  23  41  61  84 118 164 214 262 310 368
#     4  11  22  37  61  93 128 160 196 248 310 377
#     4  10  19  34  59  87 120 158 202 250 308 364
#     4  11  26  44  58  79 116 162 204 260 321 369
#     4  11  25  45  69  91 121 167 206 247 304 378
#     4  12  24  42  63  90 112 170 226 263 302 378
#     4  11  22  35  54  86 121 156 201 257 309 355
#     4   9  20  35  55  91 128 155 192 248 314 375
#
# _framework density 17.664169000000001
#
# number of rings (size 3 to 8) (size 9 to 14) (size 15 to 20)
#    0.000    1.280    4.800    1.200    2.240    1.280 
#    0.000    1.600    1.760    0.000    0.000    0.000 
#    0.000    0.000    0.000    0.000    0.000    0.000 
#
# Total GULP energy -278421.896803 kJ/mol
# GULP energy per Si atom -5568.437936 kJ/mol
# Density = 1.762396 g / cm^3
# Si number density = 17.664169 Si / 1000 Ang^3
#
#
#
# Elastic Constant Matrix: (Units=GPa)
#
#
# Indices 1 2 3 4 5 6 
#
# 1 127.1168 40.9986 71.4715 0.0000 0.0000 0.0000
# 2 40.9986 84.2081 46.8451 0.0000 0.0000 0.0000
# 3 71.4715 46.8451 126.7253 0.0000 0.0000 0.0000
# 4 0.0000 0.0000 0.0000 26.3737 0.0000 0.0000
# 5 0.0000 0.0000 0.0000 0.0000 28.0318 0.0000
# 6 0.0000 0.0000 0.0000 0.0000 0.0000 5.2405
#
#
#
# Elastic Compliance Matrix: (Units=1/GPa)
#
#
# Indices 1 2 3 4 5 6 
#
# 1 0.011957 -0.002606 -0.005780 0.000000 0.000000 0.000000
# 2 -0.002606 0.015518 -0.004266 0.000000 0.000000 0.000000
# 3 -0.005780 -0.004266 0.012728 0.000000 0.000000 0.000000
# 4 0.000000 0.000000 0.000000 0.037917 0.000000 0.000000
# 5 0.000000 0.000000 0.000000 0.000000 0.035674 0.000000
# 6 0.000000 0.000000 0.000000 0.000000 0.000000 0.190821
#
#
# Mechanical properties :
#
#
# Convention : Reuss Voigt Hill
#
# Bulk Modulus (GPa) = 67.12580 72.96449 70.04514
# Shear Modulus (GPa) = 14.93042 23.84486 19.38764
#
# Velocity S-wave (km/s) = 2.91045 3.67808 3.31655
# Velocity P-wave (km/s) = 7.02694 7.70934 7.37604
#
# Compressibility (1/GPa) = 0.01489740
#
# Stress axis : x y z
#
# Youngs Moduli (GPa) = 83.63041 64.44311 78.56491
#
# Poissons Ratio (x) = 0.16794 0.45414
# Poissons Ratio (y) = 0.21794 0.33519
# Poissons Ratio (z) = 0.48342 0.27494
#
# Static dielectric constant tensor:
#      x y z
#    x 1.665120 0.000000 0.000000 
#    y 0.000000 1.561560 0.000000 
#    z 0.000000 0.000000 1.673260 
# 
# From -- ./inp_files/15065.got.cif
#   From: 2010.05.17/outbox.cif.g08.bks.cpg/sg71_8_cif.got.tgz:15065.got - 2010.06.03 16:22:01.
