data_PCOD9520312
_publ_section_title
;
Structure prediction by ZEFSAII (Michael W. Deem and Ramdas Pophale) SiO2 
 PCOD9520312
Probable space group: I M M M
;
_chemical_formula_sum "Si O2"
_cell_formula_units_Z 72
_cell_length_a 26.191697
_cell_length_b 17.847849
_cell_length_c 8.401641
_cell_angle_alpha 90.000000
_cell_angle_beta 90.000000
_cell_angle_gamma 90.000000
_cell_volume 3927.476917
_symmetry_space_group_name_H-M "I M M M"
_symmetry_group_IT_number 71
_symmetry_cell_setting 'orthorhombic'
loop_
_space_group_symop_operation_xyz
x,y,z
-x,-y,z
x,-y,-z
-x,y,-z
-x,-y,-z
x,y,-z
-x,y,z
x,-y,z
1/2+x,1/2+y,1/2+z
1/2-x,1/2-y,1/2+z
1/2+x,1/2-y,1/2-z
1/2-x,1/2+y,1/2-z
1/2-x,1/2-y,1/2-z
1/2+x,1/2+y,1/2-z
1/2-x,1/2+y,1/2+z
1/2+x,1/2-y,1/2+z
loop_
_atom_site_type_symbol
_atom_site_label
_atom_site_fract_x
_atom_site_fract_y
_atom_site_fract_z
Si Si1 0.557581 0.634061 0.190183
Si Si2 0.000000 0.587257 0.809334
Si Si3 0.158503 0.079091 0.188025
Si Si4 0.410776 0.803783 0.190027
Si Si5 0.307512 0.740514 0.691705
O O1 0.500000 0.612452 0.224456
O O2 0.598340 0.585736 0.283544
O O3 0.565689 0.721958 0.231075
O O4 0.566435 0.626675 0.000000
O O5 0.050816 0.632622 0.754344
O O6 0.000000 0.500000 0.754181
O O7 0.000000 0.586851 0.000000
O O8 0.178453 0.157298 0.254746
O O9 0.177617 0.000000 0.255425
O O10 0.169487 0.079356 0.000000
O O11 0.351993 0.797353 0.249890
O O12 0.409984 0.810530 0.000000
O O13 0.309161 0.741491 0.500000
O O14 0.250000 0.750000 0.750000
#
# Coordination Sequence:
#
# PCOD9520312 Si02
#       5
#    16   8  16  16  16
#     4   9  17  30  48  73 103 136 172 208 248 301
#     4  11  23  37  55  83 118 151 186 235 291 344
#     4   9  19  34  50  72 102 134 170 212 259 312
#     4  10  19  35  57  80 108 144 185 228 273 331
#     4  10  20  36  58  82 106 141 186 233 281 335
#
# _framework density 18.332380000000001
#
# number of rings (size 3 to 8) (size 9 to 14) (size 15 to 20)
#    0.000    2.333    1.111    1.667    0.000    4.000 
#    0.000    3.333    0.000    4.000    0.000    0.000 
#    0.000    0.000    0.000    0.000    0.000    0.000 
#
# Total GULP energy -200539.830265 kJ/mol
# GULP energy per Si atom -5570.550841 kJ/mol
# Density = 1.829065 g / cm^3
# Si number density = 18.332380 Si / 1000 Ang^3
#
#
#
# Elastic Constant Matrix: (Units=GPa)
#
#
# Indices 1 2 3 4 5 6 
#
# 1 127.4401 56.6808 24.0025 0.0000 0.0000 0.0000
# 2 56.6808 119.7469 24.6261 0.0000 0.0000 0.0000
# 3 24.0025 24.6261 28.5073 0.0000 0.0000 0.0000
# 4 0.0000 0.0000 0.0000 12.2195 0.0000 0.0000
# 5 0.0000 0.0000 0.0000 0.0000 32.1235 0.0000
# 6 0.0000 0.0000 0.0000 0.0000 0.0000 2.2716
#
#
#
# Elastic Compliance Matrix: (Units=1/GPa)
#
#
# Indices 1 2 3 4 5 6 
#
# 1 0.010626 -0.003879 -0.005596 0.000000 0.000000 0.000000
# 2 -0.003879 0.011571 -0.006730 0.000000 0.000000 0.000000
# 3 -0.005596 -0.006730 0.045604 0.000000 0.000000 0.000000
# 4 0.000000 0.000000 0.000000 0.081836 0.000000 0.000000
# 5 0.000000 0.000000 0.000000 0.000000 0.031130 0.000000
# 6 0.000000 0.000000 0.000000 0.000000 0.000000 0.440210
#
#
# Mechanical properties :
#
#
# Convention : Reuss Voigt Hill
#
# Bulk Modulus (GPa) = 28.25526 54.03480 41.14503
# Shear Modulus (GPa) = 7.51672 20.68193 14.09932
#
# Velocity S-wave (km/s) = 2.02710 3.36246 2.77626
# Velocity P-wave (km/s) = 4.57439 6.67936 5.72446
#
# Compressibility (1/GPa) = 0.03539164
#
# Stress axis : x y z
#
# Youngs Moduli (GPa) = 94.10900 86.42355 21.92792
#
# Poissons Ratio (x) = 0.33522 0.12271
# Poissons Ratio (y) = 0.36503 0.14757
# Poissons Ratio (z) = 0.52664 0.58160
#
# Static dielectric constant tensor:
#      x y z
#    x 1.637410 0.000000 0.000000 
#    y 0.000000 1.678080 0.000000 
#    z 0.000000 0.000000 1.635510 
# 
# From -- ./inp_files/6073.got.cif
#   From: 2010.05.17/outbox.cif.g08.bks.cpg/sg71_4_cif.got.tgz:6073.got - 2010.06.03 16:22:01.
