data_PCOD9520671
_publ_section_title
;
Structure prediction by ZEFSAII (Michael W. Deem and Ramdas Pophale) SiO2 
 PCOD9520671
Probable space group: I M M M
;
_chemical_formula_sum "Si O2"
_cell_formula_units_Z 80
_cell_length_a 14.218132
_cell_length_b 17.334688
_cell_length_c 19.569806
_cell_angle_alpha 90.000000
_cell_angle_beta 90.000000
_cell_angle_gamma 90.000000
_cell_volume 4823.309069
_symmetry_space_group_name_H-M "I M M M"
_symmetry_group_IT_number 71
_symmetry_cell_setting 'orthorhombic'
loop_
_space_group_symop_operation_xyz
x,y,z
-x,-y,z
x,-y,-z
-x,y,-z
-x,-y,-z
x,y,-z
-x,y,z
x,-y,z
1/2+x,1/2+y,1/2+z
1/2-x,1/2-y,1/2+z
1/2+x,1/2-y,1/2-z
1/2-x,1/2+y,1/2-z
1/2-x,1/2-y,1/2-z
1/2+x,1/2+y,1/2-z
1/2-x,1/2+y,1/2+z
1/2+x,1/2-y,1/2+z
loop_
_atom_site_type_symbol
_atom_site_label
_atom_site_fract_x
_atom_site_fract_y
_atom_site_fract_z
Si Si1 0.729941 0.282607 0.173997
Si Si2 0.108733 0.189291 0.128537
Si Si3 0.391402 0.000000 0.917274
Si Si4 0.885291 0.087700 0.000000
Si Si5 0.608734 0.409035 0.231557
Si Si6 0.386011 0.168878 0.919801
O O1 0.750000 0.250000 0.250000
O O2 0.828057 0.265182 0.136442
O O3 0.683857 0.366259 0.183337
O O4 0.656449 0.230435 0.131846
O O5 0.114192 0.135608 0.196005
O O6 0.000000 0.209362 0.117940
O O7 0.141920 0.136290 0.066105
O O8 0.351569 0.916935 0.897844
O O9 0.500000 0.000000 0.893811
O O10 0.393674 0.000000 0.000000
O O11 0.000000 0.082830 0.000000
O O12 0.848849 0.000000 0.000000
O O13 0.500000 0.399350 0.207501
O O14 0.626035 0.500000 0.239653
O O15 0.500000 0.169155 0.916780
O O16 0.361505 0.181807 0.000000
#
# Coordination Sequence:
#
# PCOD9520671 Si02
#       6
#    16  16   8   8  16  16
#     4  10  20  32  46  73  99 131 169 209 244 293
#     4   9  18  31  47  70 101 136 163 192 240 296
#     4   7  12  26  46  70 101 131 154 181 231 301
#     4   9  16  28  46  70 100 129 162 200 234 285
#     4   9  17  32  53  72  95 129 165 205 255 300
#     4   9  17  31  51  74 102 133 163 200 248 305
#
# _framework density 16.586123000000001
#
# number of rings (size 3 to 8) (size 9 to 14) (size 15 to 20)
#    0.000    3.000    0.000    2.400    1.400    3.200 
#    9.000    0.000    0.000    1.200    0.000    2.800 
#    0.000    2.400    0.000    0.000    0.000    0.000 
#
# Total GULP energy -222709.371856 kJ/mol
# GULP energy per Si atom -5567.734296 kJ/mol
# Density = 1.654837 g / cm^3
# Si number density = 16.586123 Si / 1000 Ang^3
#
#
#
# Elastic Constant Matrix: (Units=GPa)
#
#
# Indices 1 2 3 4 5 6 
#
# 1 86.9999 44.2266 25.5627 0.0000 0.0000 0.0000
# 2 44.2266 71.4194 20.8417 0.0000 0.0000 0.0000
# 3 25.5627 20.8417 50.9080 0.0000 0.0000 0.0000
# 4 0.0000 0.0000 0.0000 21.1655 0.0000 0.0000
# 5 0.0000 0.0000 0.0000 0.0000 23.5728 0.0000
# 6 0.0000 0.0000 0.0000 0.0000 0.0000 21.6518
#
#
#
# Elastic Compliance Matrix: (Units=1/GPa)
#
#
# Indices 1 2 3 4 5 6 
#
# 1 0.017845 -0.009580 -0.005038 0.000000 0.000000 0.000000
# 2 -0.009580 0.021045 -0.003805 0.000000 0.000000 0.000000
# 3 -0.005038 -0.003805 0.023731 0.000000 0.000000 0.000000
# 4 0.000000 0.000000 0.000000 0.047247 0.000000 0.000000
# 5 0.000000 0.000000 0.000000 0.000000 0.042422 0.000000
# 6 0.000000 0.000000 0.000000 0.000000 0.000000 0.046185
#
#
# Mechanical properties :
#
#
# Convention : Reuss Voigt Hill
#
# Bulk Modulus (GPa) = 38.80003 43.39883 41.09943
# Shear Modulus (GPa) = 20.49912 21.19110 20.84511
#
# Velocity S-wave (km/s) = 3.51938 3.57829 3.54896
# Velocity P-wave (km/s) = 6.32128 6.57987 6.45187
#
# Compressibility (1/GPa) = 0.02577317
#
# Stress axis : x y z
#
# Youngs Moduli (GPa) = 56.03897 47.51787 42.13883
#
# Poissons Ratio (x) = 0.45522 0.21231
# Poissons Ratio (y) = 0.53686 0.16035
# Poissons Ratio (z) = 0.28235 0.18082
#
# Static dielectric constant tensor:
#      x y z
#    x 1.628120 0.000000 0.000000 
#    y 0.000000 1.548460 0.000000 
#    z 0.000000 0.000000 1.546150 
# 
# From -- ./inp_files/53088.got.cif
#   From: 2010.05.17/outbox.cif.g08.bks.cpg/sg71_27_cif.got.tgz:53088.got - 2010.06.03 16:22:01.
