data_PCOD9520716
_publ_section_title
;
Structure prediction by ZEFSAII (Michael W. Deem and Ramdas Pophale) SiO2 
 PCOD9520716
Probable space group: I M M M
;
_chemical_formula_sum "Si O2"
_cell_formula_units_Z 80
_cell_length_a 14.562120
_cell_length_b 21.521385
_cell_length_c 13.178811
_cell_angle_alpha 90.000000
_cell_angle_beta 90.000000
_cell_angle_gamma 90.000000
_cell_volume 4130.199712
_symmetry_space_group_name_H-M "I M M M"
_symmetry_group_IT_number 71
_symmetry_cell_setting 'orthorhombic'
loop_
_space_group_symop_operation_xyz
x,y,z
-x,-y,z
x,-y,-z
-x,y,-z
-x,-y,-z
x,y,-z
-x,y,z
x,-y,z
1/2+x,1/2+y,1/2+z
1/2-x,1/2-y,1/2+z
1/2+x,1/2-y,1/2-z
1/2-x,1/2+y,1/2-z
1/2-x,1/2-y,1/2-z
1/2+x,1/2+y,1/2-z
1/2-x,1/2+y,1/2+z
1/2+x,1/2-y,1/2+z
loop_
_atom_site_type_symbol
_atom_site_label
_atom_site_fract_x
_atom_site_fract_y
_atom_site_fract_z
Si Si1 0.781164 0.306887 0.385099
Si Si2 0.893720 0.265068 0.191496
Si Si3 0.894185 0.594974 0.113555
Si Si4 0.106758 0.924423 0.612503
Si Si5 0.248269 0.930331 0.220478
O O1 0.807639 0.293285 0.500000
O O2 0.852876 0.278977 0.303681
O O3 0.680471 0.279083 0.361343
O O4 0.773357 0.380507 0.364045
O O5 0.891102 0.330842 0.132113
O O6 0.000000 0.244117 0.193900
O O7 0.832130 0.566662 0.200448
O O8 0.000000 0.575948 0.122331
O O9 0.861908 0.579831 0.000000
O O10 0.137158 0.902970 0.500000
O O11 0.167016 0.903687 0.707328
O O12 0.000000 0.908178 0.624252
O O13 0.112973 0.000000 0.612041
O O14 0.226079 0.000000 0.184785
#
# Coordination Sequence:
#
# PCOD9520716 Si02
#       5
#    16  16  16  16  16
#     4  10  21  36  56  81 106 136 176 217 260 315
#     4   9  19  37  59  81 105 132 168 220 275 319
#     4   9  17  30  51  78 104 131 167 214 267 317
#     4   8  14  26  44  64  89 127 173 215 253 292
#     4  10  20  32  47  71 107 146 179 211 248 297
#
# _framework density 19.369523000000001
#
# number of rings (size 3 to 8) (size 9 to 14) (size 15 to 20)
#    0.000    2.800    0.000    1.800    0.000    4.400 
#    0.000    2.000    0.000    0.000    0.000    9.800 
#    0.000    0.000    0.000    0.000    0.000    0.000 
#
# Total GULP energy -223145.085230 kJ/mol
# GULP energy per Si atom -5578.627131 kJ/mol
# Density = 1.932544 g / cm^3
# Si number density = 19.369523 Si / 1000 Ang^3
#
#
#
# Elastic Constant Matrix: (Units=GPa)
#
#
# Indices 1 2 3 4 5 6 
#
# 1 68.3232 -0.3544 -3.3831 0.0000 0.0000 0.0000
# 2 -0.3544 45.9182 5.0088 0.0000 0.0000 0.0000
# 3 -3.3831 5.0088 72.6532 0.0001 0.0000 0.0000
# 4 0.0000 0.0000 0.0001 2.0242 0.0000 0.0000
# 5 0.0000 0.0000 0.0000 0.0000 14.1689 0.0000
# 6 0.0000 0.0000 0.0000 0.0000 0.0000 18.0425
#
#
#
# Elastic Compliance Matrix: (Units=1/GPa)
#
#
# Indices 1 2 3 4 5 6 
#
# 1 0.014670 0.000039 0.000680 0.000000 0.000000 0.000000
# 2 0.000039 0.021943 -0.001511 0.000000 0.000000 0.000000
# 3 0.000680 -0.001511 0.013900 0.000000 0.000000 0.000000
# 4 0.000000 0.000000 0.000000 0.494033 0.000000 0.000000
# 5 0.000000 0.000000 0.000000 0.000000 0.070577 0.000000
# 6 0.000000 0.000000 0.000000 0.000000 0.000000 0.055425
#
#
# Mechanical properties :
#
#
# Convention : Reuss Voigt Hill
#
# Bulk Modulus (GPa) = 20.43736 21.04858 20.74297
# Shear Modulus (GPa) = 7.26278 19.22198 13.24238
#
# Velocity S-wave (km/s) = 1.93849 3.15363 2.61755
# Velocity P-wave (km/s) = 3.94772 4.91436 4.45732
#
# Compressibility (1/GPa) = 0.04893001
#
# Stress axis : x y z
#
# Youngs Moduli (GPa) = 68.16535 45.57262 71.94313
#
# Poissons Ratio (x) = -0.00178 -0.04895
# Poissons Ratio (y) = -0.00266 0.10870
# Poissons Ratio (z) = -0.04638 0.06886
#
# Static dielectric constant tensor:
#      x y z
#    x 1.675830 0.000000 0.000000 
#    y 0.000000 1.703920 0.000000 
#    z 0.000000 0.000000 1.651940 
# 
# From -- ./inp_files/21861.got.cif
#   From: 2010.05.17/outbox.cif.g08.bks.cpg/sg71_11_cif.got.tgz:21861.got - 2010.06.03 16:22:01.
