data_PCOD9520640
_publ_section_title
;
Structure prediction by ZEFSAII (Michael W. Deem and Ramdas Pophale) SiO2 
 PCOD9520640
Probable space group: I M M M
;
_chemical_formula_sum "Si O2"
_cell_formula_units_Z 68
_cell_length_a 26.205056
_cell_length_b 8.768240
_cell_length_c 17.080490
_cell_angle_alpha 90.000000
_cell_angle_beta 90.000000
_cell_angle_gamma 90.000000
_cell_volume 3924.622110
_symmetry_space_group_name_H-M "I M M M"
_symmetry_group_IT_number 71
_symmetry_cell_setting 'orthorhombic'
loop_
_space_group_symop_operation_xyz
x,y,z
-x,-y,z
x,-y,-z
-x,y,-z
-x,-y,-z
x,y,-z
-x,y,z
x,-y,z
1/2+x,1/2+y,1/2+z
1/2-x,1/2-y,1/2+z
1/2+x,1/2-y,1/2-z
1/2-x,1/2+y,1/2-z
1/2-x,1/2-y,1/2-z
1/2+x,1/2+y,1/2-z
1/2-x,1/2+y,1/2+z
1/2+x,1/2-y,1/2+z
loop_
_atom_site_type_symbol
_atom_site_label
_atom_site_fract_x
_atom_site_fract_y
_atom_site_fract_z
Si Si1 0.357114 0.670686 0.500000
Si Si2 0.641001 0.829227 0.231622
Si Si3 0.085648 0.500000 0.000000
Si Si4 0.783030 0.826034 0.850639
Si Si5 0.441713 0.000000 0.320681
Si Si6 0.822360 0.181339 0.589205
O O1 0.383545 0.500000 0.500000
O O2 0.321195 0.672466 0.575808
O O3 0.385787 0.834255 0.500000
O O4 0.687163 0.765841 0.283870
O O5 0.591120 0.857262 0.285912
O O6 0.636160 0.729166 0.154034
O O7 0.653865 0.000000 0.204502
O O8 0.059127 0.500000 0.914863
O O9 0.730705 0.752761 0.880412
O O10 0.775237 0.000000 0.824327
O O11 0.500000 0.000000 0.293642
O O12 0.832561 0.232453 0.500000
O O13 0.817036 0.000000 0.588757
#
# Coordination Sequence:
#
# PCOD9520640 Si02
#       6
#     8  16   4  16   8  16
#     4  10  20  31  53  87 122 170 194 235 293 351
#     4  10  21  37  57  79 112 148 193 243 291 353
#     4  12  19  40  68  86 132 152 206 248 303 350
#     4  11  20  33  53  81 122 161 198 230 279 350
#     4  10  23  40  65  90 109 151 200 249 308 357
#     4  11  23  35  54  82 118 157 198 239 290 352
#
# _framework density 17.326508
#
# number of rings (size 3 to 8) (size 9 to 14) (size 15 to 20)
#    0.706    0.706    3.529    3.000    1.647    1.412 
#    0.000    0.000    0.000    8.471    0.000    1.647 
#    0.000    0.000    0.000    0.000    0.000    0.000 
#
# Total GULP energy -189346.932334 kJ/mol
# GULP energy per Si atom -5569.027422 kJ/mol
# Density = 1.728707 g / cm^3
# Si number density = 17.326508 Si / 1000 Ang^3
#
#
#
# Elastic Constant Matrix: (Units=GPa)
#
#
# Indices 1 2 3 4 5 6 
#
# 1 67.0723 21.7620 31.9884 0.0000 0.0000 0.0000
# 2 21.7620 88.3594 19.2538 0.0000 0.0000 0.0000
# 3 31.9884 19.2538 115.5448 0.0000 0.0000 0.0000
# 4 0.0000 0.0000 0.0000 36.0214 0.0000 0.0000
# 5 0.0000 0.0000 0.0000 0.0000 10.8151 0.0000
# 6 0.0000 0.0000 0.0000 0.0000 0.0000 4.0163
#
#
#
# Elastic Compliance Matrix: (Units=1/GPa)
#
#
# Indices 1 2 3 4 5 6 
#
# 1 0.018167 -0.003506 -0.004445 0.000000 0.000000 0.000000
# 2 -0.003506 0.012420 -0.001099 0.000000 0.000000 0.000000
# 3 -0.004445 -0.001099 0.010068 0.000000 0.000000 0.000000
# 4 0.000000 0.000000 0.000000 0.027761 0.000000 0.000000
# 5 0.000000 0.000000 0.000000 0.000000 0.092464 0.000000
# 6 0.000000 0.000000 0.000000 0.000000 0.000000 0.248983
#
#
# Mechanical properties :
#
#
# Convention : Reuss Voigt Hill
#
# Bulk Modulus (GPa) = 44.33517 46.33166 45.33341
# Shear Modulus (GPa) = 11.48154 23.36871 17.42512
#
# Velocity S-wave (km/s) = 2.57701 3.67648 3.17470
# Velocity P-wave (km/s) = 5.87352 6.69481 6.29757
#
# Compressibility (1/GPa) = 0.02255546
#
# Stress axis : x y z
#
# Youngs Moduli (GPa) = 55.04557 80.51317 99.31988
#
# Poissons Ratio (x) = 0.28225 0.44150
# Poissons Ratio (y) = 0.19297 0.10917
# Poissons Ratio (z) = 0.24469 0.08849
#
# Static dielectric constant tensor:
#      x y z
#    x 1.563240 0.000000 0.000000 
#    y 0.000000 1.615070 0.000000 
#    z 0.000000 0.000000 1.630620 
# 
# From -- ./inp_files/48573.got.cif
#   From: 2010.05.17/outbox.cif.g08.bks.cpg/sg71_25_cif.got.tgz:48573.got - 2010.06.03 16:22:01.
