data_PCOD9520743
_publ_section_title
;
Structure prediction by ZEFSAII (Michael W. Deem and Ramdas Pophale) SiO2 
 PCOD9520743
Probable space group: I M M M
;
_chemical_formula_sum "Si O2"
_cell_formula_units_Z 80
_cell_length_a 18.976301
_cell_length_b 9.192888
_cell_length_c 27.081330
_cell_angle_alpha 90.000000
_cell_angle_beta 90.000000
_cell_angle_gamma 90.000000
_cell_volume 4724.257038
_symmetry_space_group_name_H-M "I M M M"
_symmetry_group_IT_number 71
_symmetry_cell_setting 'orthorhombic'
loop_
_space_group_symop_operation_xyz
x,y,z
-x,-y,z
x,-y,-z
-x,y,-z
-x,-y,-z
x,y,-z
-x,y,z
x,-y,z
1/2+x,1/2+y,1/2+z
1/2-x,1/2-y,1/2+z
1/2+x,1/2-y,1/2-z
1/2-x,1/2+y,1/2-z
1/2-x,1/2-y,1/2-z
1/2+x,1/2+y,1/2-z
1/2-x,1/2+y,1/2+z
1/2+x,1/2-y,1/2+z
loop_
_atom_site_type_symbol
_atom_site_label
_atom_site_fract_x
_atom_site_fract_y
_atom_site_fract_z
Si Si1 0.919551 0.673364 0.558705
Si Si2 0.080831 0.174840 0.842264
Si Si3 0.784744 0.171339 0.598565
Si Si4 0.650962 0.674263 0.554840
Si Si5 0.212784 0.327840 0.795654
O O1 0.911034 0.700374 0.500000
O O2 0.911336 0.500000 0.566180
O O3 0.860134 0.759096 0.587807
O O4 0.000000 0.712592 0.572042
O O5 0.100140 0.210857 0.899364
O O6 0.137506 0.256158 0.808475
O O7 0.000000 0.213008 0.831814
O O8 0.088807 0.000000 0.836665
O O9 0.725367 0.249269 0.565432
O O10 0.759831 0.192339 0.655004
O O11 0.785593 0.000000 0.588028
O O12 0.624789 0.712623 0.500000
O O13 0.661301 0.500000 0.556218
O O14 0.205357 0.500000 0.786835
O O15 0.250000 0.250000 0.750000
#
# Coordination Sequence:
#
# PCOD9520743 Si02
#       5
#    16  16  16  16  16
#     4   9  18  32  49  70  98 132 167 201 239 287
#     4   9  18  33  53  77 105 135 166 203 246 289
#     4  10  20  32  48  72  99 126 161 206 250 293
#     4   9  17  29  47  72 102 137 172 201 233 280
#     4  10  21  37  56  76  98 127 165 208 253 300
#
# _framework density 16.933881
#
# number of rings (size 3 to 8) (size 9 to 14) (size 15 to 20)
#    0.000    2.600    0.000    2.400    0.000    6.800 
#    0.000    4.000    0.000    1.200    0.000    5.600 
#    0.000    0.000    0.000    0.000    0.000    0.000 
#
# Total GULP energy -223093.307270 kJ/mol
# GULP energy per Si atom -5577.332682 kJ/mol
# Density = 1.689534 g / cm^3
# Si number density = 16.933881 Si / 1000 Ang^3
#
#
#
# Elastic Constant Matrix: (Units=GPa)
#
#
# Indices 1 2 3 4 5 6 
#
# 1 150.0135 64.6801 58.4116 0.0000 0.0000 0.0000
# 2 64.6801 48.6969 48.3094 0.0000 0.0000 0.0000
# 3 58.4116 48.3094 83.2888 0.0000 0.0000 0.0000
# 4 0.0000 0.0000 0.0000 25.6214 0.0000 0.0000
# 5 0.0000 0.0000 0.0000 0.0000 10.2156 0.0000
# 6 0.0000 0.0000 0.0000 0.0000 0.0000 23.0081
#
#
#
# Elastic Compliance Matrix: (Units=1/GPa)
#
#
# Indices 1 2 3 4 5 6 
#
# 1 0.015831 -0.023582 0.002576 0.000000 0.000000 0.000000
# 2 -0.023582 0.083493 -0.031890 0.000000 0.000000 0.000000
# 3 0.002576 -0.031890 0.028697 0.000000 0.000000 0.000000
# 4 0.000000 0.000000 0.000000 0.039030 0.000000 0.000000
# 5 0.000000 0.000000 0.000000 0.000000 0.097889 0.000000
# 6 0.000000 0.000000 0.000000 0.000000 0.000000 0.043463
#
#
# Mechanical properties :
#
#
# Convention : Reuss Voigt Hill
#
# Bulk Modulus (GPa) = 44.98636 69.42237 57.20437
# Shear Modulus (GPa) = 11.85948 19.14224 15.50086
#
# Velocity S-wave (km/s) = 2.64927 3.36581 3.02880
# Velocity P-wave (km/s) = 5.99848 7.49600 6.78866
#
# Compressibility (1/GPa) = 0.02222896
#
# Stress axis : x y z
#
# Youngs Moduli (GPa) = 63.16809 11.97706 34.84724
#
# Poissons Ratio (x) = 0.28244 -0.08976
# Poissons Ratio (y) = 1.48963 1.11126
# Poissons Ratio (z) = -0.16270 0.38194
#
# Static dielectric constant tensor:
#      x y z
#    x 1.550230 0.000000 0.000000 
#    y 0.000000 1.561760 0.000000 
#    z 0.000000 0.000000 1.568890 
# 
# From -- ./inp_files/8257.got.cif
#   From: 2010.05.17/outbox.cif.g08.bks.cpg/sg71_5_cif.got.tgz:8257.got - 2010.06.03 16:22:01.
