data_PCOD9520554
_publ_section_title
;
Structure prediction by ZEFSAII (Michael W. Deem and Ramdas Pophale) SiO2 
 PCOD9520554
Probable space group: I M M M
;
_chemical_formula_sum "Si O2"
_cell_formula_units_Z 96
_cell_length_a 9.028989
_cell_length_b 25.588748
_cell_length_c 25.766007
_cell_angle_alpha 90.000000
_cell_angle_beta 90.000000
_cell_angle_gamma 90.000000
_cell_volume 5952.991764
_symmetry_space_group_name_H-M "I M M M"
_symmetry_group_IT_number 71
_symmetry_cell_setting 'orthorhombic'
loop_
_space_group_symop_operation_xyz
x,y,z
-x,-y,z
x,-y,-z
-x,y,-z
-x,-y,-z
x,y,-z
-x,y,z
x,-y,z
1/2+x,1/2+y,1/2+z
1/2-x,1/2-y,1/2+z
1/2+x,1/2-y,1/2-z
1/2-x,1/2+y,1/2-z
1/2-x,1/2-y,1/2-z
1/2+x,1/2+y,1/2-z
1/2-x,1/2+y,1/2+z
1/2+x,1/2-y,1/2+z
loop_
_atom_site_type_symbol
_atom_site_label
_atom_site_fract_x
_atom_site_fract_y
_atom_site_fract_z
Si Si1 0.665622 0.113518 0.941766
Si Si2 0.664842 0.559503 0.644758
Si Si3 0.675487 0.059064 0.251552
Si Si4 0.177276 0.832027 0.741615
Si Si5 0.829658 0.261104 0.441994
Si Si6 0.177284 0.755411 0.168420
O O1 0.500000 0.096164 0.925607
O O2 0.787555 0.095654 0.901790
O O3 0.664552 0.175996 0.943907
O O4 0.692717 0.093832 0.000000
O O5 0.500000 0.572402 0.665167
O O6 0.661898 0.500000 0.625609
O O7 0.782237 0.561233 0.690859
O O8 0.500000 0.063993 0.259456
O O9 0.758896 0.110712 0.271317
O O10 0.720690 0.000000 0.269308
O O11 0.213452 0.809594 0.799998
O O12 0.248946 0.790083 0.702738
O O13 0.000000 0.831838 0.736748
O O14 0.777521 0.243856 0.500000
O O15 0.736502 0.250209 0.390229
O O16 0.000000 0.242597 0.435526
O O17 0.000000 0.750659 0.168941
#
# Coordination Sequence:
#
# PCOD9520554 Si02
#       6
#    16  16  16  16  16  16
#     4   9  18  31  45  60  79 108 147 189 232 276
#     4  10  20  31  42  58  81 110 146 188 232 276
#     4  10  20  33  49  68  91 120 153 190 232 278
#     4  10  20  33  50  72  98 128 160 196 239 285
#     4   9  18  32  48  66  90 120 153 190 233 280
#     4  10  20  32  48  72  99 127 160 197 238 284
#
# _framework density 16.126346000000002
#
# number of rings (size 3 to 8) (size 9 to 14) (size 15 to 20)
#    0.000    2.333    0.000    4.000    0.000    8.333 
#    0.000    3.333    0.000    0.000    0.000    0.000 
#    0.000    0.667    0.000    7.000    0.000    3.000 
#
# Total GULP energy -267312.674856 kJ/mol
# GULP energy per Si atom -5569.014060 kJ/mol
# Density = 1.608964 g / cm^3
# Si number density = 16.126346 Si / 1000 Ang^3
#
#
#
# Elastic Constant Matrix: (Units=GPa)
#
#
# Indices 1 2 3 4 5 6 
#
# 1 57.8658 30.5840 32.4482 0.0000 0.0000 0.0000
# 2 30.5840 74.8205 21.6733 0.0000 0.0000 0.0000
# 3 32.4482 21.6733 74.6451 0.0000 0.0000 0.0000
# 4 0.0000 0.0000 0.0000 17.1529 0.0000 0.0000
# 5 0.0000 0.0000 0.0000 0.0000 23.5808 0.0000
# 6 0.0000 0.0000 0.0000 0.0000 0.0000 25.9522
#
#
#
# Elastic Compliance Matrix: (Units=1/GPa)
#
#
# Indices 1 2 3 4 5 6 
#
# 1 0.026864 -0.008296 -0.009269 0.000000 0.000000 0.000000
# 2 -0.008296 0.017155 -0.001375 0.000000 0.000000 0.000000
# 3 -0.009269 -0.001375 0.017825 0.000000 0.000000 0.000000
# 4 0.000000 0.000000 0.000000 0.058299 0.000000 0.000000
# 5 0.000000 0.000000 0.000000 0.000000 0.042407 0.000000
# 6 0.000000 0.000000 0.000000 0.000000 0.000000 0.038532
#
#
# Mechanical properties :
#
#
# Convention : Reuss Voigt Hill
#
# Bulk Modulus (GPa) = 41.72865 41.86026 41.79445
# Shear Modulus (GPa) = 20.24709 21.51223 20.87966
#
# Velocity S-wave (km/s) = 3.54719 3.65633 3.60217
# Velocity P-wave (km/s) = 6.53521 6.62111 6.57830
#
# Compressibility (1/GPa) = 0.02396435
#
# Stress axis : x y z
#
# Youngs Moduli (GPa) = 37.22520 58.29341 56.10097
#
# Poissons Ratio (x) = 0.48360 0.51999
# Poissons Ratio (y) = 0.30882 0.07712
# Poissons Ratio (z) = 0.34503 0.08013
#
# Static dielectric constant tensor:
#      x y z
#    x 1.561080 0.000000 0.000000 
#    y 0.000000 1.564290 0.000000 
#    z 0.000000 0.000000 1.538730 
# 
# From -- ./inp_files/12825.got.cif
#   From: 2010.05.17/outbox.cif.g08.bks.cpg/sg71_7_cif.got.tgz:12825.got - 2010.06.03 16:22:01.
