data_PCOD9520193
_publ_section_title
;
Structure prediction by ZEFSAII (Michael W. Deem and Ramdas Pophale) SiO2 
 PCOD9520193
Probable space group: I M M M
;
_chemical_formula_sum "Si O2"
_cell_formula_units_Z 56
_cell_length_a 7.418343
_cell_length_b 29.840445
_cell_length_c 10.220110
_cell_angle_alpha 90.000000
_cell_angle_beta 90.000000
_cell_angle_gamma 90.000000
_cell_volume 2262.391578
_symmetry_space_group_name_H-M "I M M M"
_symmetry_group_IT_number 71
_symmetry_cell_setting 'orthorhombic'
loop_
_space_group_symop_operation_xyz
x,y,z
-x,-y,z
x,-y,-z
-x,y,-z
-x,-y,-z
x,y,-z
-x,y,z
x,-y,z
1/2+x,1/2+y,1/2+z
1/2-x,1/2-y,1/2+z
1/2+x,1/2-y,1/2-z
1/2-x,1/2+y,1/2-z
1/2-x,1/2-y,1/2-z
1/2+x,1/2+y,1/2-z
1/2-x,1/2+y,1/2+z
1/2+x,1/2-y,1/2+z
loop_
_atom_site_type_symbol
_atom_site_label
_atom_site_fract_x
_atom_site_fract_y
_atom_site_fract_z
Si Si1 0.801877 0.052909 0.000000
Si Si2 0.286147 0.354383 0.219508
Si Si3 0.779162 0.180835 0.000000
Si Si4 0.212811 0.282691 0.000000
Si Si5 0.720696 0.449713 0.792962
O O1 0.720711 0.058679 0.857868
O O2 0.000000 0.075555 0.000000
O O3 0.829550 0.000000 0.000000
O O4 0.500000 0.360290 0.233514
O O5 0.219025 0.343117 0.365908
O O6 0.223399 0.401224 0.152395
O O7 0.260291 0.311985 0.126481
O O8 0.714581 0.232291 0.000000
O O9 0.000000 0.181349 0.000000
O O10 0.000000 0.278084 0.000000
O O11 0.500000 0.452475 0.798663
O O12 0.781050 0.500000 0.834585
#
# Coordination Sequence:
#
# PCOD9520193 Si02
#       5
#     8  16   8   8  16
#     4   7   9  15  31  60  97 127 148 183 244 304
#     4  10  19  34  57  82 106 135 174 216 261 314
#     4   9  19  35  57  83 106 131 170 223 272 312
#     4  11  23  38  52  72 108 146 179 217 261 307
#     4   8  13  22  41  72 105 131 158 201 256 309
#
# _framework density 24.752566000000002
#
# number of rings (size 3 to 8) (size 9 to 14) (size 15 to 20)
#    0.000    3.000    0.000    3.857    0.000    3.429 
#    0.000    2.857    0.000    5.143    0.000    0.000 
#    0.000    5.714    0.000    0.000    0.000    0.000 
#
# Total GULP energy -155975.700526 kJ/mol
# GULP energy per Si atom -5570.560733 kJ/mol
# Density = 2.469623 g / cm^3
# Si number density = 24.752566 Si / 1000 Ang^3
#
#
#
# Elastic Constant Matrix: (Units=GPa)
#
#
# Indices 1 2 3 4 5 6 
#
# 1 71.9797 9.9504 -1.7351 0.0001 0.0000 0.0000
# 2 9.9504 294.7334 61.1606 0.0004 0.0000 0.0000
# 3 -1.7351 61.1606 128.7244 0.0008 0.0000 0.0000
# 4 0.0001 0.0004 0.0008 80.4537 0.0000 0.0000
# 5 0.0000 0.0000 0.0000 0.0000 18.0765 0.0000
# 6 0.0000 0.0000 0.0000 0.0000 0.0000 6.4039
#
#
#
# Elastic Compliance Matrix: (Units=1/GPa)
#
#
# Indices 1 2 3 4 5 6 
#
# 1 0.013982 -0.000567 0.000458 0.000000 0.000000 0.000000
# 2 -0.000567 0.003787 -0.001807 0.000000 0.000000 0.000000
# 3 0.000458 -0.001807 0.008633 0.000000 0.000000 0.000000
# 4 0.000000 0.000000 0.000000 0.012430 0.000000 0.000000
# 5 0.000000 0.000000 0.000000 0.000000 0.055320 0.000000
# 6 0.000000 0.000000 0.000000 0.000000 0.000000 0.156154
#
#
# Mechanical properties :
#
#
# Convention : Reuss Voigt Hill
#
# Bulk Modulus (GPa) = 44.30618 70.46549 57.38583
# Shear Modulus (GPa) = 19.10861 49.39095 34.24978
#
# Velocity S-wave (km/s) = 2.78148 4.47182 3.72383
# Velocity P-wave (km/s) = 5.31545 7.42918 6.45936
#
# Compressibility (1/GPa) = 0.02257022
#
# Stress axis : x y z
#
# Youngs Moduli (GPa) = 71.51935 264.06079 115.83134
#
# Poissons Ratio (x) = 0.14974 -0.05304
# Poissons Ratio (y) = 0.04056 0.20930
# Poissons Ratio (z) = -0.03275 0.47715
#
# Static dielectric constant tensor:
#      x y z
#    x 2.162770 0.000000 0.000000 
#    y 0.000000 2.009590 0.000000 
#    z 0.000000 0.000000 4.894130 
# 
# From -- ./inp_files/18422.got.cif
#   From: 2010.05.17/outbox.cif.g08.bks.cpg/sg71_10_cif.got.tgz:18422.got - 2010.06.03 16:22:01.
