data_PCOD9520618
_publ_section_title
;
Structure prediction by ZEFSAII (Michael W. Deem and Ramdas Pophale) SiO2 
 PCOD9520618
Probable space group: I M M M
;
_chemical_formula_sum "Si O2"
_cell_formula_units_Z 104
_cell_length_a 33.300526
_cell_length_b 7.717930
_cell_length_c 21.295684
_cell_angle_alpha 90.000000
_cell_angle_beta 90.000000
_cell_angle_gamma 90.000000
_cell_volume 5473.227780
_symmetry_space_group_name_H-M "I M M M"
_symmetry_group_IT_number 71
_symmetry_cell_setting 'orthorhombic'
loop_
_space_group_symop_operation_xyz
x,y,z
-x,-y,z
x,-y,-z
-x,y,-z
-x,-y,-z
x,y,-z
-x,y,z
x,-y,z
1/2+x,1/2+y,1/2+z
1/2-x,1/2-y,1/2+z
1/2+x,1/2-y,1/2-z
1/2-x,1/2+y,1/2-z
1/2-x,1/2-y,1/2-z
1/2+x,1/2+y,1/2-z
1/2-x,1/2+y,1/2+z
1/2+x,1/2-y,1/2+z
loop_
_atom_site_type_symbol
_atom_site_label
_atom_site_fract_x
_atom_site_fract_y
_atom_site_fract_z
Si Si1 0.500000 0.788179 0.070352
Si Si2 0.192069 0.708936 0.929958
Si Si3 0.930148 0.289455 0.338906
Si Si4 0.658369 0.700989 0.182461
Si Si5 0.867083 0.797243 0.182180
Si Si6 0.543969 0.792964 0.699827
Si Si7 0.215149 0.788081 0.571285
O O1 0.539446 0.734976 0.107574
O O2 0.500000 0.000000 0.070515
O O3 0.500000 0.726195 0.000000
O O4 0.191990 0.500000 0.930311
O O5 0.162300 0.765722 0.875553
O O6 0.238302 0.762583 0.919492
O O7 0.180064 0.767968 0.000000
O O8 0.927008 0.500000 0.338421
O O9 0.886170 0.212832 0.345920
O O10 0.948547 0.236039 0.271739
O O11 0.670614 0.500000 0.190743
O O12 0.651536 0.779738 0.252633
O O13 0.688578 0.775101 0.130049
O O14 0.913033 0.743232 0.167948
O O15 0.869988 0.000000 0.194601
O O16 0.500000 0.726693 0.677731
O O17 0.540971 0.000000 0.700378
O O18 0.203043 0.734242 0.500000
O O19 0.213397 0.000000 0.571115
#
# Coordination Sequence:
#
# PCOD9520618 Si02
#       7
#     8  16  16  16  16  16  16
#     4   9  16  26  41  61  87 121 160 201 244 285
#     4   9  18  34  55  74  92 122 165 203 233 279
#     4   9  16  28  44  63  88 121 160 200 240 280
#     4   9  18  31  46  69  99 127 158 199 243 287
#     4  10  20  31  46  74 106 130 153 190 247 299
#     4   9  16  29  50  70  90 122 164 202 231 272
#     4   8  15  30  51  70  91 127 170 204 237 279
#
# _framework density 19.001583
#
# number of rings (size 3 to 8) (size 9 to 14) (size 15 to 20)
#    0.000    3.000    0.769    1.385    0.000    2.462 
#    0.000    1.154    0.000    1.846    0.000    3.231 
#    0.000    0.000    0.000    0.000    0.000    0.000 
#
# Total GULP energy -289564.888702 kJ/mol
# GULP energy per Si atom -5568.555552 kJ/mol
# Density = 1.895833 g / cm^3
# Si number density = 19.001583 Si / 1000 Ang^3
#
#
#
# Elastic Constant Matrix: (Units=GPa)
#
#
# Indices 1 2 3 4 5 6 
#
# 1 133.4135 2.5348 89.4375 0.0000 0.0000 0.0000
# 2 2.5348 27.1476 -0.7288 0.0000 0.0000 0.0000
# 3 89.4375 -0.7288 108.3245 0.0000 0.0000 0.0000
# 4 0.0000 0.0000 0.0000 7.6687 0.0000 0.0000
# 5 0.0000 0.0000 0.0000 0.0000 14.4427 0.0000
# 6 0.0000 0.0000 0.0000 0.0000 0.0000 12.9544
#
#
#
# Elastic Compliance Matrix: (Units=1/GPa)
#
#
# Indices 1 2 3 4 5 6 
#
# 1 0.016890 -0.001952 -0.013958 0.000000 0.000000 0.000000
# 2 -0.001952 0.037068 0.001861 0.000000 0.000000 0.000000
# 3 -0.013958 0.001861 0.020768 0.000000 0.000000 0.000000
# 4 0.000000 0.000000 0.000000 0.130401 0.000000 0.000000
# 5 0.000000 0.000000 0.000000 0.000000 0.069239 0.000000
# 6 0.000000 0.000000 0.000000 0.000000 0.000000 0.077194
#
#
# Mechanical properties :
#
#
# Convention : Reuss Voigt Hill
#
# Bulk Modulus (GPa) = 21.44628 50.15251 35.79940
# Shear Modulus (GPa) = 12.65180 18.85595 15.75388
#
# Velocity S-wave (km/s) = 2.58317 3.15355 2.88250
# Velocity P-wave (km/s) = 4.49534 6.30167 5.47353
#
# Compressibility (1/GPa) = 0.04662813
#
# Stress axis : x y z
#
# Youngs Moduli (GPa) = 59.20740 26.97756 48.14992
#
# Poissons Ratio (x) = 0.05265 0.67208
# Poissons Ratio (y) = 0.11556 -0.08960
# Poissons Ratio (z) = 0.82642 -0.05020
#
# Static dielectric constant tensor:
#      x y z
#    x 1.664490 0.000000 0.000000 
#    y 0.000000 1.701990 0.000000 
#    z 0.000000 0.000000 1.664460 
# 
# From -- ./inp_files/56667.got.cif
#   From: 2010.05.17/outbox.cif.g08.bks.cpg/sg71_29_cif.got.tgz:56667.got - 2010.06.03 16:22:01.
