data_PCOD9520940
_publ_section_title
;
Structure prediction by ZEFSAII (Michael W. Deem and Ramdas Pophale) SiO2 
 PCOD9520940
Probable space group: I M M M
;
_chemical_formula_sum "Si O2"
_cell_formula_units_Z 120
_cell_length_a 19.993574
_cell_length_b 23.510665
_cell_length_c 13.345580
_cell_angle_alpha 90.000000
_cell_angle_beta 90.000000
_cell_angle_gamma 90.000000
_cell_volume 6273.252968
_symmetry_space_group_name_H-M "I M M M"
_symmetry_group_IT_number 71
_symmetry_cell_setting 'orthorhombic'
loop_
_space_group_symop_operation_xyz
x,y,z
-x,-y,z
x,-y,-z
-x,y,-z
-x,-y,-z
x,y,-z
-x,y,z
x,-y,z
1/2+x,1/2+y,1/2+z
1/2-x,1/2-y,1/2+z
1/2+x,1/2-y,1/2-z
1/2-x,1/2+y,1/2-z
1/2-x,1/2-y,1/2-z
1/2+x,1/2+y,1/2-z
1/2-x,1/2+y,1/2+z
1/2+x,1/2-y,1/2+z
loop_
_atom_site_type_symbol
_atom_site_label
_atom_site_fract_x
_atom_site_fract_y
_atom_site_fract_z
Si Si1 0.800182 0.565852 0.255386
Si Si2 0.681602 0.755478 0.612403
Si Si3 0.926138 0.568658 0.113874
Si Si4 0.646653 0.566566 0.790494
Si Si5 0.809496 0.682955 0.676391
Si Si6 0.576223 0.260679 0.891592
Si Si7 0.421536 0.332246 0.690738
Si Si8 0.076142 0.931052 0.500000
O O1 0.806246 0.500000 0.288096
O O2 0.862500 0.579409 0.182611
O O3 0.727012 0.571891 0.205084
O O4 0.802529 0.615823 0.336238
O O5 0.683966 0.779744 0.500000
O O6 0.745896 0.715755 0.632360
O O7 0.684301 0.799809 0.705022
O O8 0.617917 0.713337 0.623323
O O9 0.929616 0.500000 0.108858
O O10 0.000000 0.588723 0.149334
O O11 0.916752 0.589620 0.000000
O O12 0.631246 0.500000 0.770949
O O13 0.615937 0.607693 0.705566
O O14 0.614514 0.582574 0.897520
O O15 0.874274 0.708863 0.625039
O O16 0.500000 0.240876 0.889228
O O17 0.584364 0.303872 0.800847
O O18 0.589586 0.287566 0.000000
O O19 0.500000 0.338510 0.665768
O O20 0.000000 0.908405 0.500000
O O21 0.071840 0.000000 0.500000
#
# Coordination Sequence:
#
# PCOD9520940 Si02
#       8
#    16  16  16  16  16  16  16   8
#     4  10  20  33  52  78 111 146 182 222 271 326
#     4  10  21  38  58  80 107 141 185 237 283 326
#     4   8  15  28  45  67  99 140 181 216 256 314
#     4  10  20  33  49  75 114 154 188 230 280 333
#     4  10  20  37  57  83 109 141 185 225 275 337
#     4   9  19  35  57  84 111 141 178 228 284 332
#     4  10  20  35  56  82 111 146 188 231 277 338
#     4   9  18  30  44  68 103 147 191 225 271 331
#
# _framework density 19.128831000000002
#
# number of rings (size 3 to 8) (size 9 to 14) (size 15 to 20)
#    0.000    2.467    1.333    1.200    1.867    2.133 
#    0.000    0.000    0.000    2.800    0.000    1.867 
#    0.000    0.000    0.000    0.000    0.000    0.000 
#
# Total GULP energy -334427.203742 kJ/mol
# GULP energy per Si atom -5573.786729 kJ/mol
# Density = 1.908529 g / cm^3
# Si number density = 19.128831 Si / 1000 Ang^3
#
#
#
# Elastic Constant Matrix: (Units=GPa)
#
#
# Indices 1 2 3 4 5 6 
#
# 1 79.9462 39.8175 11.7415 0.0000 0.0000 0.0000
# 2 39.8175 74.3873 -3.0201 0.0000 0.0000 0.0000
# 3 11.7415 -3.0201 46.1740 0.0000 0.0000 0.0000
# 4 0.0000 0.0000 0.0000 11.2333 0.0000 0.0000
# 5 0.0000 0.0000 0.0000 0.0000 16.0913 0.0000
# 6 0.0000 0.0000 0.0000 0.0000 0.0000 23.6547
#
#
#
# Elastic Compliance Matrix: (Units=1/GPa)
#
#
# Indices 1 2 3 4 5 6 
#
# 1 0.018262 -0.009990 -0.005297 0.000000 0.000000 0.000000
# 2 -0.009990 0.018944 0.003779 0.000000 0.000000 0.000000
# 3 -0.005297 0.003779 0.023251 0.000000 0.000000 0.000000
# 4 0.000000 0.000000 0.000000 0.089021 0.000000 0.000000
# 5 0.000000 0.000000 0.000000 0.000000 0.062146 0.000000
# 6 0.000000 0.000000 0.000000 0.000000 0.000000 0.042275
#
#
# Mechanical properties :
#
#
# Convention : Reuss Voigt Hill
#
# Bulk Modulus (GPa) = 26.70831 33.06505 29.88668
# Shear Modulus (GPa) = 17.27738 20.32709 18.80223
#
# Velocity S-wave (km/s) = 3.00861 3.26335 3.13857
# Velocity P-wave (km/s) = 5.10506 5.61447 5.36581
#
# Compressibility (1/GPa) = 0.03744153
#
# Stress axis : x y z
#
# Youngs Moduli (GPa) = 54.75817 52.78683 43.00808
#
# Poissons Ratio (x) = 0.52736 0.22783
# Poissons Ratio (y) = 0.54705 -0.16255
# Poissons Ratio (z) = 0.29007 -0.19951
#
# Static dielectric constant tensor:
#      x y z
#    x 1.673030 0.000000 0.000000 
#    y 0.000000 1.675250 0.000000 
#    z 0.000000 0.000000 1.689650 
# 
# From -- ./inp_files/26309.got.cif
#   From: 2010.05.17/outbox.cif.g08.bks.cpg/sg71_14_cif.got.tgz:26309.got - 2010.06.03 16:22:01.
