data_PCOD9520214
_publ_section_title
;
Structure prediction by ZEFSAII (Michael W. Deem and Ramdas Pophale) SiO2 
 PCOD9520214
Probable space group: I M M M
;
_chemical_formula_sum "Si O2"
_cell_formula_units_Z 72
_cell_length_a 7.582119
_cell_length_b 13.972440
_cell_length_c 29.205171
_cell_angle_alpha 90.000000
_cell_angle_beta 90.000000
_cell_angle_gamma 90.000000
_cell_volume 3094.016341
_symmetry_space_group_name_H-M "I M M M"
_symmetry_group_IT_number 71
_symmetry_cell_setting 'orthorhombic'
loop_
_space_group_symop_operation_xyz
x,y,z
-x,-y,z
x,-y,-z
-x,y,-z
-x,-y,-z
x,y,-z
-x,y,z
x,-y,z
1/2+x,1/2+y,1/2+z
1/2-x,1/2-y,1/2+z
1/2+x,1/2-y,1/2-z
1/2-x,1/2+y,1/2-z
1/2-x,1/2-y,1/2-z
1/2+x,1/2+y,1/2-z
1/2-x,1/2+y,1/2+z
1/2+x,1/2-y,1/2+z
loop_
_atom_site_type_symbol
_atom_site_label
_atom_site_fract_x
_atom_site_fract_y
_atom_site_fract_z
Si Si1 0.289898 0.500000 0.948594
Si Si2 0.200341 0.614039 0.298902
Si Si3 0.284125 0.111245 0.700817
Si Si4 0.210639 0.693148 0.894322
Si Si5 0.201142 0.106190 0.901927
O O1 0.500000 0.500000 0.950658
O O2 0.238240 0.596671 0.922568
O O3 0.217440 0.500000 0.000000
O O4 0.186748 0.500000 0.291068
O O5 0.279957 0.646364 0.250503
O O6 0.300229 0.620957 0.346694
O O7 0.000000 0.649242 0.305036
O O8 0.500000 0.114158 0.702544
O O9 0.224421 0.171977 0.657290
O O10 0.234919 0.000000 0.692991
O O11 0.282082 0.791794 0.916524
O O12 0.000000 0.706447 0.891093
O O13 0.000000 0.101023 0.918914
O O14 0.281256 0.000000 0.910290
#
# Coordination Sequence:
#
# PCOD9520214 Si02
#       5
#     8  16  16  16  16
#     4  11  25  43  61  85 113 129 151 213 291 343
#     4   8  14  25  42  64  96 144 190 224 261 302
#     4   8  13  24  44  69  97 133 181 228 262 299
#     4  10  19  34  58  80 102 141 183 214 258 323
#     4   9  18  31  47  74 112 147 182 224 260 292
#
# _framework density 23.270723
#
# number of rings (size 3 to 8) (size 9 to 14) (size 15 to 20)
#    0.000    3.000    1.111    1.667    0.000    2.667 
#    0.000    1.111    0.000    0.667    0.000    4.667 
#    0.000    0.000    0.000    0.000    0.000    0.000 
#
# Total GULP energy -200686.650734 kJ/mol
# GULP energy per Si atom -5574.629187 kJ/mol
# Density = 2.321776 g / cm^3
# Si number density = 23.270723 Si / 1000 Ang^3
#
#
#
# Elastic Constant Matrix: (Units=GPa)
#
#
# Indices 1 2 3 4 5 6 
#
# 1 62.4925 4.3541 -3.0281 0.0000 0.0000 0.0000
# 2 4.3541 202.1625 4.1513 0.0000 0.0000 0.0000
# 3 -3.0281 4.1513 18.7922 0.0000 0.0000 0.0000
# 4 0.0000 0.0000 0.0000 -3.9613 0.0000 0.0000
# 5 0.0000 0.0000 0.0000 0.0000 14.7226 0.0000
# 6 0.0000 0.0000 0.0000 0.0000 0.0000 4.6090
#
#
#
# Elastic Compliance Matrix: (Units=1/GPa)
#
#
# Indices 1 2 3 4 5 6 
#
# 1 0.016161 -0.000403 0.002693 0.000000 0.000000 0.000000
# 2 -0.000403 0.004979 -0.001165 0.000000 0.000000 0.000000
# 3 0.002693 -0.001165 0.053905 0.000000 0.000000 0.000000
# 4 0.000000 0.000000 0.000000 -0.252446 0.000000 0.000000
# 5 0.000000 0.000000 0.000000 0.000000 0.067923 0.000000
# 6 0.000000 0.000000 0.000000 0.000000 0.000000 0.216965
#
#
# Mechanical properties :
#
#
# Convention : Reuss Voigt Hill
#
# Bulk Modulus (GPa) = 12.93758 32.71132 22.82445
# Shear Modulus (GPa) = 38.16748 21.60541 29.88644
#
# Velocity S-wave (km/s) = 4.05427 3.05033 3.58759
# Velocity P-wave (km/s) = 5.24288 5.14718 5.19525
#
# Compressibility (1/GPa) = 0.07729420
#
# Stress axis : x y z
#
# Youngs Moduli (GPa) = 61.87921 200.83857 18.55124
#
# Poissons Ratio (x) = 0.08101 -0.04996
# Poissons Ratio (y) = 0.02496 0.02161
# Poissons Ratio (z) = -0.16665 0.23396
#
# Static dielectric constant tensor:
#      x y z
#    x 1.853360 0.000000 0.000000 
#    y 0.000000 2.020880 0.000000 
#    z 0.000000 0.000000 1.871340 
# 
# From -- ./inp_files/14313.got.cif
#   From: 2010.05.17/outbox.cif.g08.bks.cpg/sg71_8_cif.got.tgz:14313.got - 2010.06.03 16:22:01.
