data_PCOD9520794
_publ_section_title
;
Structure prediction by ZEFSAII (Michael W. Deem and Ramdas Pophale) SiO2 
 PCOD9520794
Probable space group: I M M M
;
_chemical_formula_sum "Si O2"
_cell_formula_units_Z 56
_cell_length_a 24.737450
_cell_length_b 8.733414
_cell_length_c 14.058744
_cell_angle_alpha 90.000000
_cell_angle_beta 90.000000
_cell_angle_gamma 90.000000
_cell_volume 3037.284684
_symmetry_space_group_name_H-M "I M M M"
_symmetry_group_IT_number 71
_symmetry_cell_setting 'orthorhombic'
loop_
_space_group_symop_operation_xyz
x,y,z
-x,-y,z
x,-y,-z
-x,y,-z
-x,-y,-z
x,y,-z
-x,y,z
x,-y,z
1/2+x,1/2+y,1/2+z
1/2-x,1/2-y,1/2+z
1/2+x,1/2-y,1/2-z
1/2-x,1/2+y,1/2-z
1/2-x,1/2-y,1/2-z
1/2+x,1/2+y,1/2-z
1/2-x,1/2+y,1/2+z
1/2+x,1/2-y,1/2+z
loop_
_atom_site_type_symbol
_atom_site_label
_atom_site_fract_x
_atom_site_fract_y
_atom_site_fract_z
Si Si1 0.769614 0.684331 0.107531
Si Si2 0.561913 0.814972 0.709463
Si Si3 0.434427 0.173842 0.500000
Si Si4 0.835315 0.181596 0.716155
O O1 0.776112 0.500000 0.116596
O O2 0.805578 0.763576 0.187457
O O3 0.707113 0.720647 0.132804
O O4 0.783455 0.728159 0.000000
O O5 0.500000 0.768015 0.728560
O O6 0.578309 0.757046 0.602923
O O7 0.606252 0.759063 0.783436
O O8 0.562478 0.000000 0.704492
O O9 0.500000 0.162678 0.500000
O O10 0.411990 0.000000 0.500000
O O11 0.841953 0.000000 0.717365
#
# Coordination Sequence:
#
# PCOD9520794 Si02
#       4
#    16  16   8  16
#     4   9  19  36  54  69  92 131 169 196 233 293
#     4   9  17  30  48  69  96 132 167 193 228 288
#     4   7  12  24  41  61  85 119 161 189 208 259
#     4  10  20  32  49  76 102 122 156 206 250 281
#
# _framework density 18.437522000000001
#
# number of rings (size 3 to 8) (size 9 to 14) (size 15 to 20)
#    0.000    3.000    0.000    2.571    2.000    2.286 
#    0.000    0.000    0.000    3.429    0.000    6.000 
#    0.000    0.000    0.000    0.000    0.000    0.000 
#
# Total GULP energy -156013.747747 kJ/mol
# GULP energy per Si atom -5571.919562 kJ/mol
# Density = 1.839556 g / cm^3
# Si number density = 18.437522 Si / 1000 Ang^3
#
#
#
# Elastic Constant Matrix: (Units=GPa)
#
#
# Indices 1 2 3 4 5 6 
#
# 1 83.9057 14.6625 -9.1113 0.0000 0.0000 0.0000
# 2 14.6625 7.4734 2.2562 0.0000 0.0000 0.0000
# 3 -9.1113 2.2562 22.7034 0.0000 0.0000 0.0000
# 4 0.0000 0.0000 0.0000 16.0388 0.0000 0.0000
# 5 0.0000 0.0000 0.0000 0.0000 24.7945 0.0000
# 6 0.0000 0.0000 0.0000 0.0000 0.0000 29.8181
#
#
#
# Elastic Compliance Matrix: (Units=1/GPa)
#
#
# Indices 1 2 3 4 5 6 
#
# 1 0.021360 -0.045872 0.013131 0.000000 0.000000 0.000000
# 2 -0.045872 0.236458 -0.041907 0.000000 0.000000 0.000000
# 3 0.013131 -0.041907 0.053480 0.000000 0.000000 0.000000
# 4 0.000000 0.000000 0.000000 0.062349 0.000000 0.000000
# 5 0.000000 0.000000 0.000000 0.000000 0.040332 0.000000
# 6 0.000000 0.000000 0.000000 0.000000 0.000000 0.033537
#
#
# Mechanical properties :
#
#
# Convention : Reuss Voigt Hill
#
# Bulk Modulus (GPa) = 6.17276 14.41080 10.29178
# Shear Modulus (GPa) = 7.68269 21.21529 14.44899
#
# Velocity S-wave (km/s) = 2.04351 3.39582 2.80245
# Velocity P-wave (km/s) = 2.98716 4.81751 4.00821
#
# Compressibility (1/GPa) = 0.16200203
#
# Stress axis : x y z
#
# Youngs Moduli (GPa) = 46.81623 4.22907 18.69842
#
# Poissons Ratio (x) = 0.19400 -0.24552
# Poissons Ratio (y) = 2.14755 0.78360
# Poissons Ratio (z) = -0.61473 0.17723
#
# Static dielectric constant tensor:
#      x y z
#    x 1.677090 0.000000 0.000000 
#    y 0.000000 1.629000 0.000000 
#    z 0.000000 0.000000 1.639110 
# 
# From -- ./inp_files/5301.got.cif
#   From: 2010.05.17/outbox.cif.g08.bks.cpg/sg71_3_cif.got.tgz:5301.got - 2010.06.03 16:22:01.
