data_PCOD9520388
_publ_section_title
;
Structure prediction by ZEFSAII (Michael W. Deem and Ramdas Pophale) SiO2 
 PCOD9520388
Probable space group: I M M M
;
_chemical_formula_sum "Si O2"
_cell_formula_units_Z 92
_cell_length_a 22.292070
_cell_length_b 7.800864
_cell_length_c 28.519556
_cell_angle_alpha 90.000000
_cell_angle_beta 90.000000
_cell_angle_gamma 90.000000
_cell_volume 4959.476819
_symmetry_space_group_name_H-M "I M M M"
_symmetry_group_IT_number 71
_symmetry_cell_setting 'orthorhombic'
loop_
_space_group_symop_operation_xyz
x,y,z
-x,-y,z
x,-y,-z
-x,y,-z
-x,-y,-z
x,y,-z
-x,y,z
x,-y,z
1/2+x,1/2+y,1/2+z
1/2-x,1/2-y,1/2+z
1/2+x,1/2-y,1/2-z
1/2-x,1/2+y,1/2-z
1/2-x,1/2-y,1/2-z
1/2+x,1/2+y,1/2-z
1/2-x,1/2+y,1/2+z
1/2+x,1/2-y,1/2+z
loop_
_atom_site_type_symbol
_atom_site_label
_atom_site_fract_x
_atom_site_fract_y
_atom_site_fract_z
Si Si1 0.400939 0.192371 0.217018
Si Si2 0.323427 0.294440 0.695318
Si Si3 0.127338 0.797441 0.095229
Si Si4 0.500000 0.500000 0.221138
Si Si5 0.248743 0.298540 0.948621
Si Si6 0.199136 0.794434 0.350443
Si Si7 0.500000 0.204984 0.553371
O O1 0.353911 0.211432 0.259896
O O2 0.447870 0.347186 0.221082
O O3 0.361074 0.215993 0.170254
O O4 0.426539 0.000000 0.218243
O O5 0.326808 0.500000 0.700485
O O6 0.359956 0.241225 0.648464
O O7 0.255081 0.245392 0.683870
O O8 0.177801 0.715902 0.062104
O O9 0.060321 0.761713 0.079091
O O10 0.138269 0.000000 0.093586
O O11 0.263437 0.500000 0.950315
O O12 0.281902 0.229103 0.902258
O O13 0.262053 0.223663 0.000000
O O14 0.192654 0.000000 0.352053
O O15 0.500000 0.271121 0.500000
O O16 0.500000 0.000000 0.551917
#
# Coordination Sequence:
#
# PCOD9520388 Si02
#       7
#    16  16  16   4  16  16   8
#     4  12  24  41  64  89 119 160 203 243 298 361
#     4  10  20  37  57  84 120 152 195 252 304 351
#     4  10  21  34  51  74 106 147 191 243 296 342
#     4  12  26  46  60  86 125 160 199 246 292 354
#     4   9  18  33  55  83 116 151 186 234 297 355
#     4  10  19  35  59  89 123 155 197 249 298 354
#     4  11  23  36  49  65  95 144 199 247 287 342
#
# _framework density 18.550343999999999
#
# number of rings (size 3 to 8) (size 9 to 14) (size 15 to 20)
#    0.000    1.652    1.739    3.130    0.000    6.609 
#    0.000    0.000    0.000    0.000    0.000    1.217 
#    0.000    1.391    0.000    0.000    0.000    0.000 
#
# Total GULP energy -256330.295756 kJ/mol
# GULP energy per Si atom -5572.397734 kJ/mol
# Density = 1.850812 g / cm^3
# Si number density = 18.550344 Si / 1000 Ang^3
#
#
#
# Elastic Constant Matrix: (Units=GPa)
#
#
# Indices 1 2 3 4 5 6 
#
# 1 59.3053 27.7453 40.7594 0.0000 0.0000 0.0000
# 2 27.7453 100.3163 24.4081 0.0000 0.0000 0.0000
# 3 40.7594 24.4081 94.9018 0.0000 0.0000 0.0000
# 4 0.0000 0.0000 0.0000 15.0811 0.0000 0.0000
# 5 0.0000 0.0000 0.0000 0.0000 7.5229 0.0000
# 6 0.0000 0.0000 0.0000 0.0000 0.0000 -1.2904
#
#
#
# Elastic Compliance Matrix: (Units=1/GPa)
#
#
# Indices 1 2 3 4 5 6 
#
# 1 0.025886 -0.004752 -0.009896 0.000000 0.000000 0.000000
# 2 -0.004752 0.011506 -0.000918 0.000000 0.000000 0.000000
# 3 -0.009896 -0.000918 0.015024 0.000000 0.000000 0.000000
# 4 0.000000 0.000000 0.000000 0.066308 0.000000 0.000000
# 5 0.000000 0.000000 0.000000 0.000000 0.132927 0.000000
# 6 0.000000 0.000000 0.000000 0.000000 0.000000 -0.774946
#
#
# Mechanical properties :
#
#
# Convention : Reuss Voigt Hill
#
# Bulk Modulus (GPa) = 46.98385 48.92766 47.95575
# Shear Modulus (GPa) = -10.30783 15.03675 2.36446
#
# Velocity S-wave (km/s) = -2.35982 2.85018 1.13021
# Velocity P-wave (km/s) = 4.23766 6.10444 5.25462
#
# Compressibility (1/GPa) = 0.02128391
#
# Stress axis : x y z
#
# Youngs Moduli (GPa) = 38.63075 86.90974 66.56219
#
# Poissons Ratio (x) = 0.41298 0.65868
# Poissons Ratio (y) = 0.18357 0.06113
# Poissons Ratio (z) = 0.38228 0.07982
#
# Static dielectric constant tensor:
#      x y z
#    x 1.625990 0.000000 0.000000 
#    y 0.000000 1.669660 0.000000 
#    z 0.000000 0.000000 1.678360 
# 
# From -- ./inp_files/66368.got.cif
#   From: 2010.05.17/outbox.cif.g08.bks.cpg/sg71_34_cif.got.tgz:66368.got - 2010.06.03 16:22:01.
