data_PCOD9520691
_publ_section_title
;
Structure prediction by ZEFSAII (Michael W. Deem and Ramdas Pophale) SiO2 
 PCOD9520691
Probable space group: I M M M
;
_chemical_formula_sum "Si O2"
_cell_formula_units_Z 88
_cell_length_a 31.353702
_cell_length_b 20.235514
_cell_length_c 8.650574
_cell_angle_alpha 90.000000
_cell_angle_beta 90.000000
_cell_angle_gamma 90.000000
_cell_volume 5488.428264
_symmetry_space_group_name_H-M "I M M M"
_symmetry_group_IT_number 71
_symmetry_cell_setting 'orthorhombic'
loop_
_space_group_symop_operation_xyz
x,y,z
-x,-y,z
x,-y,-z
-x,y,-z
-x,-y,-z
x,y,-z
-x,y,z
x,-y,z
1/2+x,1/2+y,1/2+z
1/2-x,1/2-y,1/2+z
1/2+x,1/2-y,1/2-z
1/2-x,1/2+y,1/2-z
1/2-x,1/2-y,1/2-z
1/2+x,1/2+y,1/2-z
1/2-x,1/2+y,1/2+z
1/2+x,1/2-y,1/2+z
loop_
_atom_site_type_symbol
_atom_site_label
_atom_site_fract_x
_atom_site_fract_y
_atom_site_fract_z
Si Si1 0.451313 0.642070 0.684169
Si Si2 0.208301 0.710804 0.686775
Si Si3 0.265993 0.073902 0.684402
Si Si4 0.448186 0.500000 0.824325
Si Si5 0.128467 0.798944 0.681476
Si Si6 0.671019 0.425662 0.317221
O O1 0.451339 0.640192 0.500000
O O2 0.500000 0.653747 0.738535
O O3 0.437548 0.569004 0.742010
O O4 0.417632 0.696476 0.739883
O O5 0.210738 0.711045 0.500000
O O6 0.250000 0.750000 0.750000
O O7 0.208744 0.636520 0.751487
O O8 0.164670 0.747576 0.735318
O O9 0.258901 0.081591 0.500000
O O10 0.220751 0.075727 0.772210
O O11 0.284309 0.000000 0.709448
O O12 0.500000 0.500000 0.828330
O O13 0.432111 0.500000 0.000000
O O14 0.122534 0.789471 0.500000
O O15 0.148927 0.870160 0.716845
O O16 0.665622 0.411926 0.500000
O O17 0.655386 0.500000 0.286173
#
# Coordination Sequence:
#
# PCOD9520691 Si02
#       6
#    16  16  16   8  16  16
#     4  10  21  36  52  70  94 125 164 209 254 300
#     4  11  22  35  52  74 102 134 168 207 251 297
#     4  10  20  34  52  73  99 132 169 208 249 294
#     4   9  17  31  51  71  93 125 163 207 257 299
#     4  11  23  35  50  72  97 130 168 208 254 301
#     4  10  20  32  47  68  95 130 171 211 252 295
#
# _framework density 16.033735
#
# number of rings (size 3 to 8) (size 9 to 14) (size 15 to 20)
#    0.000    1.727    1.818    3.000    1.273    6.545 
#    0.000    0.000    0.000    0.000    0.000    0.000 
#    0.000    0.727    0.000    8.000    0.000    5.818 
#
# Total GULP energy -245569.857153 kJ/mol
# GULP energy per Si atom -5581.133117 kJ/mol
# Density = 1.599724 g / cm^3
# Si number density = 16.033735 Si / 1000 Ang^3
#
#
#
# Elastic Constant Matrix: (Units=GPa)
#
#
# Indices 1 2 3 4 5 6 
#
# 1 94.9050 51.4099 16.9287 0.0000 0.0000 0.0000
# 2 51.4099 82.2981 15.4350 0.0000 0.0000 0.0000
# 3 16.9287 15.4350 31.3563 0.0000 0.0000 0.0000
# 4 0.0000 0.0000 0.0000 24.4616 0.0000 0.0000
# 5 0.0000 0.0000 0.0000 0.0000 23.0369 0.0000
# 6 0.0000 0.0000 0.0000 0.0000 0.0000 30.2185
#
#
#
# Elastic Compliance Matrix: (Units=1/GPa)
#
#
# Indices 1 2 3 4 5 6 
#
# 1 0.016414 -0.009465 -0.004202 0.000000 0.000000 0.000000
# 2 -0.009465 0.018845 -0.004166 0.000000 0.000000 0.000000
# 3 -0.004202 -0.004166 0.036211 0.000000 0.000000 0.000000
# 4 0.000000 0.000000 0.000000 0.040880 0.000000 0.000000
# 5 0.000000 0.000000 0.000000 0.000000 0.043409 0.000000
# 6 0.000000 0.000000 0.000000 0.000000 0.000000 0.033092
#
#
# Mechanical properties :
#
#
# Convention : Reuss Voigt Hill
#
# Bulk Modulus (GPa) = 27.93118 41.78964 34.86041
# Shear Modulus (GPa) = 21.14588 23.86245 22.50416
#
# Velocity S-wave (km/s) = 3.63552 3.86199 3.75046
# Velocity P-wave (km/s) = 5.92290 6.78283 6.36740
#
# Compressibility (1/GPa) = 0.03580229
#
# Stress axis : x y z
#
# Youngs Moduli (GPa) = 60.92474 53.06445 27.61588
#
# Poissons Ratio (x) = 0.50226 0.11605
# Poissons Ratio (y) = 0.57666 0.11506
# Poissons Ratio (z) = 0.25602 0.22108
#
# Static dielectric constant tensor:
#      x y z
#    x 1.575490 0.000000 0.000000 
#    y 0.000000 1.534590 0.000000 
#    z 0.000000 0.000000 1.544850 
# 
# From -- ./inp_files/11334.got.cif
#   From: 2010.05.17/outbox.cif.g08.bks.cpg/sg71_6_cif.got.tgz:11334.got - 2010.06.03 16:22:01.
