data_PCOD9520970
_publ_section_title
;
Structure prediction by ZEFSAII (Michael W. Deem and Ramdas Pophale) SiO2 
 PCOD9520970
Probable space group: I M M M
;
_chemical_formula_sum "Si O2"
_cell_formula_units_Z 104
_cell_length_a 33.267077
_cell_length_b 20.784450
_cell_length_c 8.638384
_cell_angle_alpha 90.000000
_cell_angle_beta 90.000000
_cell_angle_gamma 90.000000
_cell_volume 5972.906080
_symmetry_space_group_name_H-M "I M M M"
_symmetry_group_IT_number 71
_symmetry_cell_setting 'orthorhombic'
loop_
_space_group_symop_operation_xyz
x,y,z
-x,-y,z
x,-y,-z
-x,y,-z
-x,-y,-z
x,y,-z
-x,y,z
x,-y,z
1/2+x,1/2+y,1/2+z
1/2-x,1/2-y,1/2+z
1/2+x,1/2-y,1/2-z
1/2-x,1/2+y,1/2-z
1/2-x,1/2-y,1/2-z
1/2+x,1/2+y,1/2-z
1/2-x,1/2+y,1/2+z
1/2+x,1/2-y,1/2+z
loop_
_atom_site_type_symbol
_atom_site_label
_atom_site_fract_x
_atom_site_fract_y
_atom_site_fract_z
Si Si1 0.131939 0.308881 0.314308
Si Si2 0.771007 0.073308 0.187194
Si Si3 0.047866 0.000000 0.823168
Si Si4 0.163225 0.177105 0.184206
Si Si5 0.080406 0.869974 0.683888
Si Si6 0.181347 0.573327 0.185320
Si Si7 0.955842 0.734320 0.687137
O O1 0.131591 0.308487 0.500000
O O2 0.158179 0.247503 0.259113
O O3 0.151548 0.373842 0.253065
O O4 0.085539 0.299417 0.259328
O O5 0.800941 0.130098 0.238412
O O6 0.726355 0.084048 0.251182
O O7 0.783602 0.000000 0.232597
O O8 0.769873 0.074537 0.000000
O O9 0.062144 0.936822 0.735138
O O10 0.000000 0.000000 0.828202
O O11 0.063338 0.000000 0.000000
O O12 0.121773 0.141882 0.226807
O O13 0.166883 0.185107 0.000000
O O14 0.088145 0.868098 0.500000
O O15 0.051272 0.809891 0.719933
O O16 0.169939 0.500000 0.228054
O O17 0.182022 0.578075 0.000000
O O18 0.956504 0.727366 0.500000
O O19 0.000000 0.713781 0.745335
#
# Coordination Sequence:
#
# PCOD9520970 Si02
#       7
#    16  16   8  16  16  16  16
#     4  10  20  34  55  81 108 138 175 216 261 316
#     4   9  19  35  54  76 103 140 182 220 262 312
#     4  11  23  35  47  67  97 135 181 231 281 327
#     4  10  20  34  53  77 108 142 176 220 268 313
#     4  10  20  33  50  73 100 136 178 222 270 320
#     4  10  21  37  57  80 105 135 171 214 265 320
#     4   8  15  30  52  76 101 129 166 212 257 303
#
# _framework density 17.411960000000001
#
# number of rings (size 3 to 8) (size 9 to 14) (size 15 to 20)
#    0.000    2.385    0.000    3.462    1.077    4.000 
#    0.000    0.000    0.000    9.692    0.000    3.231 
#    0.000    0.000    0.000    0.000    0.000    0.000 
#
# Total GULP energy -289971.897742 kJ/mol
# GULP energy per Si atom -5576.382649 kJ/mol
# Density = 1.737233 g / cm^3
# Si number density = 17.411960 Si / 1000 Ang^3
#
#
#
# Elastic Constant Matrix: (Units=GPa)
#
#
# Indices 1 2 3 4 5 6 
#
# 1 112.2201 93.1627 23.8838 0.0000 0.0000 0.0000
# 2 93.1627 129.6777 27.2049 0.0000 0.0000 0.0000
# 3 23.8838 27.2049 21.0913 0.0000 0.0000 0.0000
# 4 0.0000 0.0000 0.0000 27.9663 0.0000 0.0000
# 5 0.0000 0.0000 0.0000 0.0000 20.8538 0.0000
# 6 0.0000 0.0000 0.0000 0.0000 0.0000 5.8417
#
#
#
# Elastic Compliance Matrix: (Units=1/GPa)
#
#
# Indices 1 2 3 4 5 6 
#
# 1 0.022693 -0.014960 -0.006401 0.000000 0.000000 0.000000
# 2 -0.014960 0.020435 -0.009417 0.000000 0.000000 0.000000
# 3 -0.006401 -0.009417 0.066808 0.000000 0.000000 0.000000
# 4 0.000000 0.000000 0.000000 0.035757 0.000000 0.000000
# 5 0.000000 0.000000 0.000000 0.000000 0.047953 0.000000
# 6 0.000000 0.000000 0.000000 0.000000 0.000000 0.171184
#
#
# Mechanical properties :
#
#
# Convention : Reuss Voigt Hill
#
# Bulk Modulus (GPa) = 20.66994 61.27686 40.97340
# Shear Modulus (GPa) = 11.29910 18.84818 15.07364
#
# Velocity S-wave (km/s) = 2.55017 3.29368 2.94548
# Velocity P-wave (km/s) = 4.53520 7.05218 5.92880
#
# Compressibility (1/GPa) = 0.04837944
#
# Stress axis : x y z
#
# Youngs Moduli (GPa) = 44.06643 48.93649 14.96824
#
# Poissons Ratio (x) = 0.73210 0.09581
# Poissons Ratio (y) = 0.65924 0.14096
# Poissons Ratio (z) = 0.28207 0.46083
#
# Static dielectric constant tensor:
#      x y z
#    x 1.589800 0.000000 0.000000 
#    y 0.000000 1.579900 0.000000 
#    z 0.000000 0.000000 1.594060 
# 
# From -- ./inp_files/16991.got.cif
#   From: 2010.05.17/outbox.cif.g08.bks.cpg/sg71_9_cif.got.tgz:16991.got - 2010.06.03 16:22:01.
