data_PCOD9520123
_publ_section_title
;
Structure prediction by ZEFSAII (Michael W. Deem and Ramdas Pophale) SiO2 
 PCOD9520123
Probable space group: I M M M
;
_chemical_formula_sum "Si O2"
_cell_formula_units_Z 88
_cell_length_a 29.020573
_cell_length_b 17.546004
_cell_length_c 9.425167
_cell_angle_alpha 90.000000
_cell_angle_beta 90.000000
_cell_angle_gamma 90.000000
_cell_volume 4799.248758
_symmetry_space_group_name_H-M "I M M M"
_symmetry_group_IT_number 71
_symmetry_cell_setting 'orthorhombic'
loop_
_space_group_symop_operation_xyz
x,y,z
-x,-y,z
x,-y,-z
-x,y,-z
-x,-y,-z
x,y,-z
-x,y,z
x,-y,z
1/2+x,1/2+y,1/2+z
1/2-x,1/2-y,1/2+z
1/2+x,1/2-y,1/2-z
1/2-x,1/2+y,1/2-z
1/2-x,1/2-y,1/2-z
1/2+x,1/2+y,1/2-z
1/2-x,1/2+y,1/2+z
1/2+x,1/2-y,1/2+z
loop_
_atom_site_type_symbol
_atom_site_label
_atom_site_fract_x
_atom_site_fract_y
_atom_site_fract_z
Si Si1 0.597179 0.590611 0.168863
Si Si2 0.791154 0.590066 0.669347
Si Si3 0.109599 0.651167 0.671388
Si Si4 0.201461 0.907290 0.662468
Si Si5 0.947398 0.500000 0.328128
Si Si6 0.053124 0.221042 0.831752
O O1 0.592592 0.500000 0.189908
O O2 0.649802 0.614185 0.207616
O O3 0.562545 0.639012 0.262308
O O4 0.591423 0.605168 0.000000
O O5 0.785829 0.594287 0.500000
O O6 0.798258 0.500000 0.704298
O O7 0.837128 0.635756 0.708320
O O8 0.744462 0.617430 0.743611
O O9 0.106664 0.661129 0.500000
O O10 0.080610 0.575564 0.711008
O O11 0.086882 0.721168 0.751726
O O12 0.207869 0.882464 0.500000
O O13 0.201513 0.000000 0.663271
O O14 0.949056 0.500000 0.500000
O O15 0.000000 0.500000 0.275527
O O16 0.000000 0.243784 0.807475
O O17 0.061458 0.219878 0.000000
#
# Coordination Sequence:
#
# PCOD9520123 Si02
#       6
#    16  16  16  16   8  16
#     4   9  19  38  63  87 108 135 178 226 268 323
#     4   9  16  28  49  80 114 144 179 223 266 312
#     4  10  19  34  55  80 109 144 188 230 268 315
#     4   8  15  29  51  80 111 140 172 213 264 321
#     4   9  16  28  51  79 103 135 185 237 274 307
#     4  11  25  41  55  77 111 145 178 223 279 332
#
# _framework density 18.336203999999999
#
# number of rings (size 3 to 8) (size 9 to 14) (size 15 to 20)
#    0.000    2.636    0.909    2.182    0.000    4.364 
#    0.000    5.000    0.000    1.636    0.000    0.000 
#    0.000    0.000    0.000    0.000    0.000    0.000 
#
# Total GULP energy -245398.244130 kJ/mol
# GULP energy per Si atom -5577.232821 kJ/mol
# Density = 1.829447 g / cm^3
# Si number density = 18.336204 Si / 1000 Ang^3
#
#
#
# Elastic Constant Matrix: (Units=GPa)
#
#
# Indices 1 2 3 4 5 6 
#
# 1 43.7269 12.3171 25.7674 0.0000 0.0000 0.0000
# 2 12.3171 44.3164 25.7885 0.0000 0.0000 0.0000
# 3 25.7674 25.7885 32.5179 0.0000 0.0000 0.0000
# 4 0.0000 0.0000 0.0000 17.2178 0.0000 0.0000
# 5 0.0000 0.0000 0.0000 0.0000 32.2734 0.0000
# 6 0.0000 0.0000 0.0000 0.0000 0.0000 -7.3375
#
#
#
# Elastic Compliance Matrix: (Units=1/GPa)
#
#
# Indices 1 2 3 4 5 6 
#
# 1 0.048668 0.016555 -0.051694 0.000000 0.000000 0.000000
# 2 0.016555 0.047534 -0.050816 0.000000 0.000000 0.000000
# 3 -0.051694 -0.050816 0.112014 0.000000 0.000000 0.000000
# 4 0.000000 0.000000 0.000000 0.058080 0.000000 0.000000
# 5 0.000000 0.000000 0.000000 0.000000 0.030985 0.000000
# 6 0.000000 0.000000 0.000000 0.000000 0.000000 -0.136286
#
#
# Mechanical properties :
#
#
# Convention : Reuss Voigt Hill
#
# Bulk Modulus (GPa) = 27.54229 27.58968 27.56599
# Shear Modulus (GPa) = 14.49244 12.20994 13.35119
#
# Velocity S-wave (km/s) = 2.81441 2.58329 2.70132
# Velocity P-wave (km/s) = 5.06108 4.89664 4.97954
#
# Compressibility (1/GPa) = 0.03630780
#
# Stress axis : x y z
#
# Youngs Moduli (GPa) = 20.54732 21.03739 8.92742
#
# Poissons Ratio (x) = -0.34828 0.46149
# Poissons Ratio (y) = -0.34016 0.45365
# Poissons Ratio (z) = 1.06217 1.06903
#
# Static dielectric constant tensor:
#      x y z
#    x 1.629620 0.000000 0.000000 
#    y 0.000000 1.640450 0.000000 
#    z 0.000000 0.000000 1.604410 
# 
# From -- ./inp_files/16643.got.cif
#   From: 2010.05.17/outbox.cif.g08.bks.cpg/sg71_9_cif.got.tgz:16643.got - 2010.06.03 16:22:01.
