data_PCOD9520067
_publ_section_title
;
Structure prediction by ZEFSAII (Michael W. Deem and Ramdas Pophale) SiO2 
 PCOD9520067
Probable space group: I M M M
;
_chemical_formula_sum "Si O2"
_cell_formula_units_Z 104
_cell_length_a 8.743841
_cell_length_b 30.523321
_cell_length_c 22.506781
_cell_angle_alpha 90.000000
_cell_angle_beta 90.000000
_cell_angle_gamma 90.000000
_cell_volume 6006.858765
_symmetry_space_group_name_H-M "I M M M"
_symmetry_group_IT_number 71
_symmetry_cell_setting 'orthorhombic'
loop_
_space_group_symop_operation_xyz
x,y,z
-x,-y,z
x,-y,-z
-x,y,-z
-x,-y,-z
x,y,-z
-x,y,z
x,-y,z
1/2+x,1/2+y,1/2+z
1/2-x,1/2-y,1/2+z
1/2+x,1/2-y,1/2-z
1/2-x,1/2+y,1/2-z
1/2-x,1/2-y,1/2-z
1/2+x,1/2+y,1/2-z
1/2-x,1/2+y,1/2+z
1/2+x,1/2-y,1/2+z
loop_
_atom_site_type_symbol
_atom_site_label
_atom_site_fract_x
_atom_site_fract_y
_atom_site_fract_z
Si Si1 0.820793 0.894389 0.398191
Si Si2 0.824515 0.448168 0.000000
Si Si3 0.176181 0.552980 0.565437
Si Si4 0.819282 0.051121 0.188683
Si Si5 0.182231 0.206307 0.566376
Si Si6 0.316262 0.283109 0.798834
Si Si7 0.321400 0.122036 0.723639
O O1 0.767364 0.930384 0.443994
O O2 0.800202 0.846250 0.427168
O O3 0.715628 0.897431 0.340810
O O4 0.000000 0.898182 0.382259
O O5 0.829585 0.500000 0.000000
O O6 0.000000 0.431318 0.000000
O O7 0.224299 0.568757 0.500000
O O8 0.174651 0.500000 0.562892
O O9 0.281661 0.563881 0.620716
O O10 0.000000 0.566789 0.575901
O O11 0.736205 0.086335 0.229584
O O12 0.000000 0.052660 0.199417
O O13 0.769306 0.000000 0.197555
O O14 0.242383 0.219364 0.500000
O O15 0.237589 0.223548 0.631672
O O16 0.000000 0.215442 0.565186
O O17 0.500000 0.280305 0.799693
O O18 0.250000 0.250000 0.750000
O O19 0.267684 0.331767 0.777945
O O20 0.500000 0.130712 0.731893
#
# Coordination Sequence:
#
# PCOD9520067 Si02
#       7
#    16   8  16  16  16  16  16
#     4  10  19  34  54  73  97 131 175 222 267 319
#     4  11  23  35  47  69 103 141 181 227 277 323
#     4   8  14  26  45  69  97 129 166 209 257 309
#     4  10  20  33  50  74 104 138 178 221 265 318
#     4   8  14  28  53  81 102 128 168 214 260 309
#     4  10  20  35  57  83 113 143 177 222 272 331
#     4  11  22  36  55  78 106 140 179 223 275 328
#
# _framework density 17.313541000000001
#
# number of rings (size 3 to 8) (size 9 to 14) (size 15 to 20)
#    0.000    2.385    0.769    4.385    0.000    2.462 
#    0.000    1.538    0.000    0.923    0.000    2.154 
#    0.000    0.000    0.000    0.000    0.000    0.000 
#
# Total GULP energy -289571.122622 kJ/mol
# GULP energy per Si atom -5568.675435 kJ/mol
# Density = 1.727414 g / cm^3
# Si number density = 17.313541 Si / 1000 Ang^3
#
#
#
# Elastic Constant Matrix: (Units=GPa)
#
#
# Indices 1 2 3 4 5 6 
#
# 1 48.1489 15.3095 26.8886 0.0000 0.0000 0.0000
# 2 15.3095 49.4895 49.6584 0.0000 0.0000 0.0000
# 3 26.8886 49.6584 127.4137 0.0000 0.0000 0.0000
# 4 0.0000 0.0000 0.0000 41.6519 0.0000 0.0000
# 5 0.0000 0.0000 0.0000 0.0000 28.1996 0.0000
# 6 0.0000 0.0000 0.0000 0.0000 0.0000 24.1285
#
#
#
# Elastic Compliance Matrix: (Units=1/GPa)
#
#
# Indices 1 2 3 4 5 6 
#
# 1 0.023981 -0.003843 -0.003563 0.000000 0.000000 0.000000
# 2 -0.003843 0.033799 -0.012362 0.000000 0.000000 0.000000
# 3 -0.003563 -0.012362 0.013418 0.000000 0.000000 0.000000
# 4 0.000000 0.000000 0.000000 0.024009 0.000000 0.000000
# 5 0.000000 0.000000 0.000000 0.000000 0.035462 0.000000
# 6 0.000000 0.000000 0.000000 0.000000 0.000000 0.041445
#
#
# Mechanical properties :
#
#
# Convention : Reuss Voigt Hill
#
# Bulk Modulus (GPa) = 31.58365 45.41836 38.50100
# Shear Modulus (GPa) = 22.50192 27.67571 25.08881
#
# Velocity S-wave (km/s) = 3.60901 4.00246 3.81082
# Velocity P-wave (km/s) = 5.97062 6.90286 6.45359
#
# Compressibility (1/GPa) = 0.03166195
#
# Stress axis : x y z
#
# Youngs Moduli (GPa) = 41.70044 29.58631 74.52529
#
# Poissons Ratio (x) = 0.11371 0.26551
# Poissons Ratio (y) = 0.16027 0.92128
# Poissons Ratio (z) = 0.14857 0.36574
#
# Static dielectric constant tensor:
#      x y z
#    x 1.589400 0.000000 0.000000 
#    y 0.000000 1.566340 0.000000 
#    z 0.000000 0.000000 1.623530 
# 
# From -- ./inp_files/51152.got.cif
#   From: 2010.05.17/outbox.cif.g08.bks.cpg/sg71_26_cif.got.tgz:51152.got - 2010.06.03 16:22:01.
