data_PCOD9520907
_publ_section_title
;
Structure prediction by ZEFSAII (Michael W. Deem and Ramdas Pophale) SiO2 
 PCOD9520907
Probable space group: I M M M
;
_chemical_formula_sum "Si O2"
_cell_formula_units_Z 104
_cell_length_a 22.423766
_cell_length_b 7.592333
_cell_length_c 26.916064
_cell_angle_alpha 90.000000
_cell_angle_beta 90.000000
_cell_angle_gamma 90.000000
_cell_volume 4582.424867
_symmetry_space_group_name_H-M "I M M M"
_symmetry_group_IT_number 71
_symmetry_cell_setting 'orthorhombic'
loop_
_space_group_symop_operation_xyz
x,y,z
-x,-y,z
x,-y,-z
-x,y,-z
-x,-y,-z
x,y,-z
-x,y,z
x,-y,z
1/2+x,1/2+y,1/2+z
1/2-x,1/2-y,1/2+z
1/2+x,1/2-y,1/2-z
1/2-x,1/2+y,1/2-z
1/2-x,1/2-y,1/2-z
1/2+x,1/2+y,1/2-z
1/2-x,1/2+y,1/2+z
1/2+x,1/2-y,1/2+z
loop_
_atom_site_type_symbol
_atom_site_label
_atom_site_fract_x
_atom_site_fract_y
_atom_site_fract_z
Si Si1 0.619642 0.284399 0.394454
Si Si2 0.748776 0.215873 0.137827
Si Si3 0.569279 0.284628 0.500000
Si Si4 0.836483 0.303792 0.281589
Si Si5 0.651667 0.787019 0.056349
Si Si6 0.935903 0.790704 0.204635
Si Si7 0.067380 0.206305 0.360957
O O1 0.619496 0.500000 0.395322
O O2 0.685071 0.229162 0.376303
O O3 0.601434 0.226570 0.449395
O O4 0.574534 0.226546 0.351345
O O5 0.720500 0.279492 0.190231
O O6 0.704958 0.269642 0.092957
O O7 0.748066 0.000000 0.140055
O O8 0.570355 0.500000 0.500000
O O9 0.500000 0.232358 0.500000
O O10 0.818803 0.500000 0.267997
O O11 0.875726 0.235635 0.236153
O O12 0.885839 0.303362 0.325803
O O13 0.591354 0.726412 0.083240
O O14 0.651974 0.000000 0.055856
O O15 0.658079 0.725429 0.000000
O O16 0.000000 0.723222 0.224908
O O17 0.941120 0.000000 0.202530
O O18 0.000000 0.268843 0.355693
O O19 0.069432 0.000000 0.346674
#
# Coordination Sequence:
#
# PCOD9520907 Si02
#       7
#    16  16   8  16  16  16  16
#     4   9  17  29  48  74 105 139 170 209 258 305
#     4   8  16  30  47  70  98 129 170 212 254 301
#     4   9  16  26  44  74 109 141 172 207 252 306
#     4  10  20  34  52  74 100 131 171 217 257 304
#     4   9  18  31  48  70  98 131 169 215 258 302
#     4  10  20  33  50  75 107 139 171 209 257 311
#     4  10  20  33  49  70  97 130 169 211 260 315
#
# _framework density 22.695406999999999
#
# number of rings (size 3 to 8) (size 9 to 14) (size 15 to 20)
#    0.000    2.692    0.000    2.769    1.077    6.462 
#    0.000    1.538    0.000    3.692    0.000    0.538 
#    0.000    1.846    0.000    0.000    0.000    0.000 
#
# Total GULP energy -290192.606061 kJ/mol
# GULP energy per Si atom -5580.627040 kJ/mol
# Density = 2.264375 g / cm^3
# Si number density = 22.695407 Si / 1000 Ang^3
#
#
#
# Elastic Constant Matrix: (Units=GPa)
#
#
# Indices 1 2 3 4 5 6 
#
# 1 141.0634 5.6871 58.8089 0.0000 0.0000 0.0000
# 2 5.6871 49.1557 7.5473 0.0000 0.0000 0.0000
# 3 58.8089 7.5473 155.4632 0.0000 0.0000 0.0000
# 4 0.0000 0.0000 0.0000 14.0350 0.0000 0.0000
# 5 0.0000 0.0000 0.0000 0.0000 15.5545 0.0000
# 6 0.0000 0.0000 0.0000 0.0000 0.0000 1.3595
#
#
#
# Elastic Compliance Matrix: (Units=1/GPa)
#
#
# Indices 1 2 3 4 5 6 
#
# 1 0.008428 -0.000489 -0.003164 0.000000 0.000000 0.000000
# 2 -0.000489 0.020525 -0.000811 0.000000 0.000000 0.000000
# 3 -0.003164 -0.000811 0.007669 0.000000 0.000000 0.000000
# 4 0.000000 0.000000 0.000000 0.071251 0.000000 0.000000
# 5 0.000000 0.000000 0.000000 0.000000 0.064290 0.000000
# 6 0.000000 0.000000 0.000000 0.000000 0.000000 0.735575
#
#
# Mechanical properties :
#
#
# Convention : Reuss Voigt Hill
#
# Bulk Modulus (GPa) = 36.11212 54.41877 45.26545
# Shear Modulus (GPa) = 5.40017 24.43238 14.91627
#
# Velocity S-wave (km/s) = 1.54421 3.28462 2.56645
# Velocity P-wave (km/s) = 4.37328 6.19797 5.36379
#
# Compressibility (1/GPa) = 0.02769153
#
# Stress axis : x y z
#
# Youngs Moduli (GPa) = 118.65270 48.72178 130.39828
#
# Poissons Ratio (x) = 0.02384 0.41263
# Poissons Ratio (y) = 0.05805 0.10580
# Poissons Ratio (z) = 0.37546 0.03953
#
# Static dielectric constant tensor:
#      x y z
#    x 1.851950 0.000000 0.000000 
#    y 0.000000 1.885700 0.000000 
#    z 0.000000 0.000000 1.846570 
# 
# From -- ./inp_files/13345.got.cif
#   From: 2010.05.17/outbox.cif.g08.bks.cpg/sg71_7_cif.got.tgz:13345.got - 2010.06.03 16:22:01.
