data_PCOD9520697
_publ_section_title
;
Structure prediction by ZEFSAII (Michael W. Deem and Ramdas Pophale) SiO2 
 PCOD9520697
Probable space group: I M M M
;
_chemical_formula_sum "Si O2"
_cell_formula_units_Z 104
_cell_length_a 32.167406
_cell_length_b 7.412629
_cell_length_c 20.112348
_cell_angle_alpha 90.000000
_cell_angle_beta 90.000000
_cell_angle_gamma 90.000000
_cell_volume 4795.689755
_symmetry_space_group_name_H-M "I M M M"
_symmetry_group_IT_number 71
_symmetry_cell_setting 'orthorhombic'
loop_
_space_group_symop_operation_xyz
x,y,z
-x,-y,z
x,-y,-z
-x,y,-z
-x,-y,-z
x,y,-z
-x,y,z
x,-y,z
1/2+x,1/2+y,1/2+z
1/2-x,1/2-y,1/2+z
1/2+x,1/2-y,1/2-z
1/2-x,1/2+y,1/2-z
1/2-x,1/2-y,1/2-z
1/2+x,1/2+y,1/2-z
1/2-x,1/2+y,1/2+z
1/2+x,1/2-y,1/2+z
loop_
_atom_site_type_symbol
_atom_site_label
_atom_site_fract_x
_atom_site_fract_y
_atom_site_fract_z
Si Si1 0.757559 0.289039 0.573829
Si Si2 0.000000 0.720587 0.923131
Si Si3 0.582007 0.780211 0.344019
Si Si4 0.598995 0.209571 0.799465
Si Si5 0.192384 0.720197 0.702177
Si Si6 0.952300 0.782747 0.428516
Si Si7 0.678033 0.782729 0.351263
O O1 0.766566 0.213565 0.500000
O O2 0.769039 0.500000 0.571125
O O3 0.780238 0.213758 0.640036
O O4 0.708780 0.275355 0.590686
O O5 0.042728 0.780809 0.887292
O O6 0.000000 0.500000 0.920812
O O7 0.000000 0.773910 0.000000
O O8 0.577053 0.721080 0.267040
O O9 0.629851 0.725156 0.359825
O O10 0.581304 0.000000 0.348923
O O11 0.645065 0.281004 0.811093
O O12 0.572520 0.223736 0.865006
O O13 0.606163 0.000000 0.784406
O O14 0.195989 0.500000 0.702568
O O15 0.197649 0.777084 0.779606
O O16 0.935108 0.722647 0.500000
O O17 0.000000 0.723034 0.424172
O O18 0.952407 0.000000 0.428532
O O19 0.677360 0.000000 0.349511
#
# Coordination Sequence:
#
# PCOD9520697 Si02
#       7
#    16   8  16  16  16  16  16
#     4  10  20  32  47  69  97 129 161 193 238 295
#     4   9  16  26  42  66  98 133 158 178 227 301
#     4   8  16  29  45  71 101 124 152 197 247 284
#     4   9  17  30  51  75  95 119 158 207 247 279
#     4   8  16  32  50  70  97 126 156 195 246 294
#     4   9  19  34  47  63  95 134 164 194 238 290
#     4   9  17  32  52  71  94 124 161 203 240 278
#
# _framework density 21.686140999999999
#
# number of rings (size 3 to 8) (size 9 to 14) (size 15 to 20)
#    0.000    3.154    0.000    2.769    1.077    2.154 
#    0.000    7.692    0.000    0.000    0.000    0.000 
#    0.000    2.462    0.000    0.000    0.000    0.000 
#
# Total GULP energy -289815.932180 kJ/mol
# GULP energy per Si atom -5573.383311 kJ/mol
# Density = 2.163678 g / cm^3
# Si number density = 21.686141 Si / 1000 Ang^3
#
#
#
# Elastic Constant Matrix: (Units=GPa)
#
#
# Indices 1 2 3 4 5 6 
#
# 1 103.0077 -1.5034 97.9519 0.0000 0.0000 0.0000
# 2 -1.5034 65.1672 -1.5156 0.0000 0.0000 0.0000
# 3 97.9519 -1.5156 152.0019 0.0000 0.0000 0.0000
# 4 0.0000 0.0000 0.0000 25.3870 0.0000 0.0000
# 5 0.0000 0.0000 0.0000 0.0000 19.7438 0.0000
# 6 0.0000 0.0000 0.0000 0.0000 0.0000 10.6596
#
#
#
# Elastic Compliance Matrix: (Units=1/GPa)
#
#
# Indices 1 2 3 4 5 6 
#
# 1 0.025074 0.000203 -0.016156 0.000000 0.000000 0.000000
# 2 0.000203 0.015350 0.000022 0.000000 0.000000 0.000000
# 3 -0.016156 0.000022 0.016990 0.000000 0.000000 0.000000
# 4 0.000000 0.000000 0.000000 0.039390 0.000000 0.000000
# 5 0.000000 0.000000 0.000000 0.000000 0.050649 0.000000
# 6 0.000000 0.000000 0.000000 0.000000 0.000000 0.093812
#
#
# Mechanical properties :
#
#
# Convention : Reuss Voigt Hill
#
# Bulk Modulus (GPa) = 39.13454 56.67140 47.90297
# Shear Modulus (GPa) = 17.75284 26.17434 21.96359
#
# Velocity S-wave (km/s) = 2.86427 3.47790 3.18589
# Velocity P-wave (km/s) = 5.38737 6.50515 5.97247
#
# Compressibility (1/GPa) = 0.02555287
#
# Stress axis : x y z
#
# Youngs Moduli (GPa) = 39.88206 65.14509 58.85758
#
# Poissons Ratio (x) = -0.01321 0.95090
# Poissons Ratio (y) = -0.00808 -0.00132
# Poissons Ratio (z) = 0.64433 -0.00146
#
# Static dielectric constant tensor:
#      x y z
#    x 1.775600 0.000000 0.000000 
#    y 0.000000 1.887890 0.000000 
#    z 0.000000 0.000000 1.788160 
# 
# From -- ./inp_files/56709.got.cif
#   From: 2010.05.17/outbox.cif.g08.bks.cpg/sg71_29_cif.got.tgz:56709.got - 2010.06.03 16:22:01.
