data_PCOD9520850
_publ_section_title
;
Structure prediction by ZEFSAII (Michael W. Deem and Ramdas Pophale) SiO2 
 PCOD9520850
Probable space group: I M M M
;
_chemical_formula_sum "Si O2"
_cell_formula_units_Z 62
_cell_length_a 14.222897
_cell_length_b 13.480710
_cell_length_c 18.142890
_cell_angle_alpha 90.000000
_cell_angle_beta 90.000000
_cell_angle_gamma 90.000000
_cell_volume 3478.622475
_symmetry_space_group_name_H-M "I M M M"
_symmetry_group_IT_number 71
_symmetry_cell_setting 'orthorhombic'
loop_
_space_group_symop_operation_xyz
x,y,z
-x,-y,z
x,-y,-z
-x,y,-z
-x,-y,-z
x,y,-z
-x,y,z
x,-y,z
1/2+x,1/2+y,1/2+z
1/2-x,1/2-y,1/2+z
1/2+x,1/2-y,1/2-z
1/2-x,1/2+y,1/2-z
1/2-x,1/2-y,1/2-z
1/2+x,1/2+y,1/2-z
1/2-x,1/2+y,1/2+z
1/2+x,1/2-y,1/2+z
loop_
_atom_site_type_symbol
_atom_site_label
_atom_site_fract_x
_atom_site_fract_y
_atom_site_fract_z
Si Si1 0.000000 0.000000 0.500000
Si Si2 0.303802 0.298055 0.359587
Si Si3 0.301400 0.382434 0.198241
Si Si4 0.500000 0.833750 0.000000
Si Si5 0.792561 0.390291 0.500000
Si Si6 0.500000 0.329775 0.125705
Si Si7 0.000000 0.116782 0.088745
O O1 0.000000 0.084870 0.564500
O O2 0.285481 0.358087 0.284181
O O3 0.275671 0.184081 0.344376
O O4 0.240981 0.334882 0.427132
O O5 0.409272 0.325398 0.382134
O O6 0.296244 0.500000 0.184064
O O7 0.404991 0.342988 0.173768
O O8 0.595909 0.893146 0.000000
O O9 0.500000 0.768416 0.075275
O O10 0.749413 0.500000 0.500000
O O11 0.000000 0.000000 0.112387
O O12 0.000000 0.117251 0.000000
#
# Coordination Sequence:
#
# PCOD9520850 Si02
#       7
#     2  16  16   4   8   8   8
#     4  10  20  32  62  96 114 164 198 232 294 376
#     4  11  24  39  63  90 123 154 212 254 302 364
#     4  11  22  40  62  91 123 165 198 253 310 364
#     4  11  23  37  57  92 126 158 194 246 308 364
#     4  12  22  40  62  90 122 162 200 255 306 371
#     4  11  20  37  61  90 127 155 205 247 298 363
#     4  11  21  38  63  88 114 157 204 259 302 346
#
# _framework density 17.823146999999999
#
# number of rings (size 3 to 8) (size 9 to 14) (size 15 to 20)
#    0.000    0.903    5.161    3.290    0.000    0.000 
#    0.000    0.645    0.000    0.774    0.000    0.000 
#    0.000    0.000    0.000    0.000    0.000    0.000 
#
# Total GULP energy -172776.426023 kJ/mol
# GULP energy per Si atom -5573.433098 kJ/mol
# Density = 1.778258 g / cm^3
# Si number density = 17.823147 Si / 1000 Ang^3
#
#
#
# Elastic Constant Matrix: (Units=GPa)
#
#
# Indices 1 2 3 4 5 6 
#
# 1 132.7593 56.6025 39.2108 0.0000 0.0000 0.0000
# 2 56.6025 132.8820 46.7385 0.0000 0.0000 0.0000
# 3 39.2108 46.7385 122.8862 0.0000 0.0000 0.0000
# 4 0.0000 0.0000 0.0000 22.3304 0.0000 0.0000
# 5 0.0000 0.0000 0.0000 0.0000 -153.4797 0.0000
# 6 0.0000 0.0000 0.0000 0.0000 0.0000 8.5011
#
#
#
# Elastic Compliance Matrix: (Units=1/GPa)
#
#
# Indices 1 2 3 4 5 6 
#
# 1 0.009510 -0.003444 -0.001725 0.000000 0.000000 0.000000
# 2 -0.003444 0.009935 -0.002680 0.000000 0.000000 0.000000
# 3 -0.001725 -0.002680 0.009707 0.000000 0.000000 0.000000
# 4 0.000000 0.000000 0.000000 0.044782 0.000000 0.000000
# 5 0.000000 0.000000 0.000000 0.000000 -0.006516 0.000000
# 6 0.000000 0.000000 0.000000 0.000000 0.000000 0.117632
#
#
# Mechanical properties :
#
#
# Convention : Reuss Voigt Hill
#
# Bulk Modulus (GPa) = 74.32029 74.84789 74.58409
# Shear Modulus (GPa) = 24.36248 -8.13127 8.11560
#
# Velocity S-wave (km/s) = 3.70117 -2.13825 2.13619
# Velocity P-wave (km/s) = 7.74946 5.99915 6.92979
#
# Compressibility (1/GPa) = 0.01345528
#
# Stress axis : x y z
#
# Youngs Moduli (GPa) = 105.14882 100.65216 103.01781
#
# Poissons Ratio (x) = 0.34669 0.17766
# Poissons Ratio (y) = 0.36218 0.27606
# Poissons Ratio (z) = 0.18133 0.26972
#
# Static dielectric constant tensor:
#      x y z
#    x 1.363090 0.000000 0.000000 
#    y 0.000000 1.584800 0.000000 
#    z 0.000000 0.000000 1.598820 
# 
# From -- ./inp_files/42945.got.cif
#   From: 2010.05.17/outbox.cif.g08.bks.cpg/sg71_22_cif.got.tgz:42945.got - 2010.06.03 16:22:01.
