data_PCOD9520342
_publ_section_title
;
Structure prediction by ZEFSAII (Michael W. Deem and Ramdas Pophale) SiO2 
 PCOD9520342
Probable space group: I M M M
;
_chemical_formula_sum "Si O2"
_cell_formula_units_Z 64
_cell_length_a 22.896650
_cell_length_b 8.112335
_cell_length_c 17.220240
_cell_angle_alpha 90.000000
_cell_angle_beta 90.000000
_cell_angle_gamma 90.000000
_cell_volume 3198.578562
_symmetry_space_group_name_H-M "I M M M"
_symmetry_group_IT_number 71
_symmetry_cell_setting 'orthorhombic'
loop_
_space_group_symop_operation_xyz
x,y,z
-x,-y,z
x,-y,-z
-x,y,-z
-x,-y,-z
x,y,-z
-x,y,z
x,-y,z
1/2+x,1/2+y,1/2+z
1/2-x,1/2-y,1/2+z
1/2+x,1/2-y,1/2-z
1/2-x,1/2+y,1/2-z
1/2-x,1/2-y,1/2-z
1/2+x,1/2+y,1/2-z
1/2-x,1/2+y,1/2+z
1/2+x,1/2-y,1/2+z
loop_
_atom_site_type_symbol
_atom_site_label
_atom_site_fract_x
_atom_site_fract_y
_atom_site_fract_z
Si Si1 0.142412 0.201741 0.351285
Si Si2 0.384690 0.303508 0.320959
Si Si3 0.268346 0.199164 0.589614
Si Si4 0.000000 0.696088 0.088040
Si Si5 0.067125 0.798484 0.500000
O O1 0.120142 0.259300 0.267576
O O2 0.208963 0.254187 0.368035
O O3 0.101669 0.253767 0.422842
O O4 0.142186 0.000000 0.350981
O O5 0.387166 0.500000 0.317095
O O6 0.326391 0.254408 0.366869
O O7 0.442062 0.245908 0.365820
O O8 0.267980 0.255158 0.500000
O O9 0.267672 0.000000 0.588720
O O10 0.000000 0.500000 0.082308
O O11 0.000000 0.764915 0.000000
O O12 0.000000 0.744797 0.500000
O O13 0.067349 0.000000 0.500000
#
# Coordination Sequence:
#
# PCOD9520342 Si02
#       5
#    16  16  16   8   8
#     4   9  18  33  53  84 117 149 189 232 278 331
#     4  11  23  36  57  88 118 144 182 239 294 335
#     4  10  19  35  58  82 113 154 197 232 271 332
#     4  11  25  45  63  80 107 150 196 229 273 341
#     4   9  16  28  52  82 114 149 188 233 274 322
#
# _framework density 20.008887999999999
#
# number of rings (size 3 to 8) (size 9 to 14) (size 15 to 20)
#    0.000    2.000    1.250    2.625    1.750    4.500 
#    0.000    1.250    0.000    0.000    0.000    0.875 
#    0.000    0.000    0.000    0.000    0.000    0.000 
#
# Total GULP energy -178793.064522 kJ/mol
# GULP energy per Si atom -5587.283266 kJ/mol
# Density = 1.996335 g / cm^3
# Si number density = 20.008888 Si / 1000 Ang^3
#
#
#
# Elastic Constant Matrix: (Units=GPa)
#
#
# Indices 1 2 3 4 5 6 
#
# 1 228.1412 17.0790 136.5465 0.0000 0.0000 0.0000
# 2 17.0790 17.1648 21.4601 0.0000 0.0000 0.0000
# 3 136.5465 21.4601 227.1450 0.0000 0.0000 0.0000
# 4 0.0000 0.0000 0.0000 15.9940 0.0000 0.0000
# 5 0.0000 0.0000 0.0000 0.0000 26.4199 0.0000
# 6 0.0000 0.0000 0.0000 0.0000 0.0000 1.7530
#
#
#
# Elastic Compliance Matrix: (Units=1/GPa)
#
#
# Indices 1 2 3 4 5 6 
#
# 1 0.006901 -0.001905 -0.003969 0.000000 0.000000 0.000000
# 2 -0.001905 0.066588 -0.005146 0.000000 0.000000 0.000000
# 3 -0.003969 -0.005146 0.007274 0.000000 0.000000 0.000000
# 4 0.000000 0.000000 0.000000 0.062524 0.000000 0.000000
# 5 0.000000 0.000000 0.000000 0.000000 0.037850 0.000000
# 6 0.000000 0.000000 0.000000 0.000000 0.000000 0.570439
#
#
# Mechanical properties :
#
#
# Convention : Reuss Voigt Hill
#
# Bulk Modulus (GPa) = 17.02868 91.40248 54.21558
# Shear Modulus (GPa) = 6.30366 28.65774 17.48070
#
# Velocity S-wave (km/s) = 1.77687 3.78861 2.95896
# Velocity P-wave (km/s) = 3.56914 8.05719 6.23125
#
# Compressibility (1/GPa) = 0.05872445
#
# Stress axis : x y z
#
# Youngs Moduli (GPa) = 144.90394 15.01774 137.46966
#
# Poissons Ratio (x) = 0.02861 0.54556
# Poissons Ratio (y) = 0.27604 0.70741
# Poissons Ratio (z) = 0.57506 0.07728
#
# Static dielectric constant tensor:
#      x y z
#    x 1.621810 0.000000 0.000000 
#    y 0.000000 1.716540 0.000000 
#    z 0.000000 0.000000 1.704660 
# 
# From -- ./inp_files/5510.got.cif
#   From: 2010.05.17/outbox.cif.g08.bks.cpg/sg71_3_cif.got.tgz:5510.got - 2010.06.03 16:22:01.
