data_PCOD9520051
_publ_section_title
;
Structure prediction by ZEFSAII (Michael W. Deem and Ramdas Pophale) SiO2 
 PCOD9520051
Probable space group: I M M M
;
_chemical_formula_sum "Si O2"
_cell_formula_units_Z 88
_cell_length_a 19.698966
_cell_length_b 29.076503
_cell_length_c 7.526301
_cell_angle_alpha 90.000000
_cell_angle_beta 90.000000
_cell_angle_gamma 90.000000
_cell_volume 4310.892439
_symmetry_space_group_name_H-M "I M M M"
_symmetry_group_IT_number 71
_symmetry_cell_setting 'orthorhombic'
loop_
_space_group_symop_operation_xyz
x,y,z
-x,-y,z
x,-y,-z
-x,y,-z
-x,-y,-z
x,y,-z
-x,y,z
x,-y,z
1/2+x,1/2+y,1/2+z
1/2-x,1/2-y,1/2+z
1/2+x,1/2-y,1/2-z
1/2-x,1/2+y,1/2-z
1/2-x,1/2-y,1/2-z
1/2+x,1/2+y,1/2-z
1/2-x,1/2+y,1/2+z
1/2+x,1/2-y,1/2+z
loop_
_atom_site_type_symbol
_atom_site_label
_atom_site_fract_x
_atom_site_fract_y
_atom_site_fract_z
Si Si1 0.664412 0.090327 0.209272
Si Si2 0.577680 0.000000 0.713210
Si Si3 0.578733 0.176451 0.218278
Si Si4 0.417403 0.722927 0.205662
Si Si5 0.922773 0.123214 0.285934
Si Si6 0.194539 0.052162 0.212528
O O1 0.626005 0.135055 0.281429
O O2 0.738078 0.077293 0.284259
O O3 0.617171 0.045513 0.227227
O O4 0.673524 0.099549 0.000000
O O5 0.500000 0.000000 0.776970
O O6 0.577113 0.000000 0.500000
O O7 0.500000 0.168917 0.269566
O O8 0.601539 0.227249 0.280685
O O9 0.578829 0.177287 0.000000
O O10 0.500000 0.722574 0.206183
O O11 0.397924 0.673305 0.282786
O O12 0.394965 0.723251 0.000000
O O13 0.925980 0.127223 0.500000
O O14 0.871646 0.082561 0.244096
O O15 0.000000 0.114914 0.223403
O O16 0.189186 0.000000 0.281252
O O17 0.203280 0.048736 0.000000
#
# Coordination Sequence:
#
# PCOD9520051 Si02
#       6
#    16   8  16  16  16  16
#     4  10  19  34  53  73  98 132 175 210 239 288
#     4  11  23  35  49  73 104 135 168 209 255 292
#     4   8  13  23  46  77 100 123 161 207 246 278
#     4   7  11  23  44  72 102 124 150 197 250 291
#     4   9  18  33  54  77  98 124 162 205 247 301
#     4  10  21  36  50  68  99 134 165 204 257 301
#
# _framework density 20.413406999999999
#
# number of rings (size 3 to 8) (size 9 to 14) (size 15 to 20)
#    0.000    3.000    0.909    3.000    0.000    3.273 
#    0.000    2.727    0.000    1.091    0.000    2.545 
#    0.000    0.000    0.000    0.000    0.000    0.000 
#
# Total GULP energy -245296.454409 kJ/mol
# GULP energy per Si atom -5574.919418 kJ/mol
# Density = 2.036695 g / cm^3
# Si number density = 20.413407 Si / 1000 Ang^3
#
#
#
# Elastic Constant Matrix: (Units=GPa)
#
#
# Indices 1 2 3 4 5 6 
#
# 1 122.3363 104.6622 0.3973 0.0000 0.0000 0.0000
# 2 104.6622 201.9466 5.4446 0.0000 0.0000 0.0000
# 3 0.3973 5.4446 51.3983 0.0000 0.0000 0.0000
# 4 0.0000 0.0000 0.0000 -16.0676 0.0000 0.0000
# 5 0.0000 0.0000 0.0000 0.0000 12.9233 0.0000
# 6 0.0000 0.0000 0.0000 0.0000 0.0000 -23.6557
#
#
#
# Elastic Compliance Matrix: (Units=1/GPa)
#
#
# Indices 1 2 3 4 5 6 
#
# 1 0.014711 -0.007643 0.000696 0.000000 0.000000 0.000000
# 2 -0.007643 0.008937 -0.000888 0.000000 0.000000 0.000000
# 3 0.000696 -0.000888 0.019545 0.000000 0.000000 0.000000
# 4 0.000000 0.000000 0.000000 -0.062237 0.000000 0.000000
# 5 0.000000 0.000000 0.000000 0.000000 0.077380 0.000000
# 6 0.000000 0.000000 0.000000 0.000000 0.000000 -0.042273
#
#
# Mechanical properties :
#
#
# Convention : Reuss Voigt Hill
#
# Bulk Modulus (GPa) = 36.33339 66.29881 51.31610
# Shear Modulus (GPa) = 122.23708 12.31849 67.27778
#
# Velocity S-wave (km/s) = 7.74666 2.45919 5.74710
# Velocity P-wave (km/s) = 9.89201 6.37276 8.32057
#
# Compressibility (1/GPa) = 0.02752289
#
# Stress axis : x y z
#
# Youngs Moduli (GPa) = 67.97864 111.89809 51.16521
#
# Poissons Ratio (x) = 0.85521 -0.03561
# Poissons Ratio (y) = 0.51954 0.04541
# Poissons Ratio (z) = -0.04731 0.09932
#
# Static dielectric constant tensor:
#      x y z
#    x 1.692880 0.000000 0.000000 
#    y 0.000000 1.742840 0.000000 
#    z 0.000000 0.000000 1.822850 
# 
# From -- ./inp_files/8880.got.cif
#   From: 2010.05.17/outbox.cif.g08.bks.cpg/sg71_5_cif.got.tgz:8880.got - 2010.06.03 16:22:01.
