data_PCOD9520094
_publ_section_title
;
Structure prediction by ZEFSAII (Michael W. Deem and Ramdas Pophale) SiO2 
 PCOD9520094
Probable space group: I M M M
;
_chemical_formula_sum "Si O2"
_cell_formula_units_Z 104
_cell_length_a 20.169605
_cell_length_b 8.793605
_cell_length_c 32.588195
_cell_angle_alpha 90.000000
_cell_angle_beta 90.000000
_cell_angle_gamma 90.000000
_cell_volume 5779.957607
_symmetry_space_group_name_H-M "I M M M"
_symmetry_group_IT_number 71
_symmetry_cell_setting 'orthorhombic'
loop_
_space_group_symop_operation_xyz
x,y,z
-x,-y,z
x,-y,-z
-x,y,-z
-x,-y,-z
x,y,-z
-x,y,z
x,-y,z
1/2+x,1/2+y,1/2+z
1/2-x,1/2-y,1/2+z
1/2+x,1/2-y,1/2-z
1/2-x,1/2+y,1/2-z
1/2-x,1/2-y,1/2-z
1/2+x,1/2+y,1/2-z
1/2-x,1/2+y,1/2+z
1/2+x,1/2-y,1/2+z
loop_
_atom_site_type_symbol
_atom_site_label
_atom_site_fract_x
_atom_site_fract_y
_atom_site_fract_z
Si Si1 0.574267 0.814652 0.845560
Si Si2 0.076561 0.685168 0.500000
Si Si3 0.196164 0.319493 0.098915
Si Si4 0.204978 0.179360 0.188772
Si Si5 0.835814 0.315784 0.421522
Si Si6 0.575826 0.317004 0.451901
Si Si7 0.847638 0.318836 0.268252
O O1 0.500000 0.765505 0.855861
O O2 0.626963 0.766978 0.879796
O O3 0.595965 0.768467 0.799982
O O4 0.575210 0.000000 0.845909
O O5 0.074083 0.500000 0.500000
O O6 0.118084 0.729675 0.459767
O O7 0.000000 0.737672 0.500000
O O8 0.199048 0.500000 0.097106
O O9 0.195791 0.265146 0.146166
O O10 0.262296 0.250595 0.078175
O O11 0.131097 0.259520 0.075892
O O12 0.156732 0.234636 0.225048
O O13 0.278705 0.206295 0.207083
O O14 0.198190 0.000000 0.181445
O O15 0.831058 0.500000 0.421406
O O16 0.586126 0.279740 0.500000
O O17 0.500000 0.274158 0.441160
O O18 0.580897 0.500000 0.448091
O O19 0.853074 0.500000 0.260953
#
# Coordination Sequence:
#
# PCOD9520094 Si02
#       7
#    16   8  16  16  16  16  16
#     4   9  16  29  52  79 109 145 187 237 286 330
#     4   9  18  32  55  85 112 145 194 247 289 328
#     4  12  24  36  55  85 119 152 187 228 276 330
#     4  10  19  34  55  78 105 142 185 229 278 330
#     4  10  19  34  54  81 113 149 194 239 282 327
#     4   9  20  41  67  90 112 142 180 224 279 340
#     4   9  17  31  51  78 107 138 180 230 286 338
#
# _framework density 17.993212
#
# number of rings (size 3 to 8) (size 9 to 14) (size 15 to 20)
#    0.000    2.231    1.538    2.769    1.077    3.077 
#    0.000    1.538    0.000    6.462    0.000    0.000 
#    0.000    0.000    0.000    0.000    0.000    0.000 
#
# Total GULP energy -290156.571812 kJ/mol
# GULP energy per Si atom -5579.934073 kJ/mol
# Density = 1.795226 g / cm^3
# Si number density = 17.993212 Si / 1000 Ang^3
#
#
#
# Elastic Constant Matrix: (Units=GPa)
#
#
# Indices 1 2 3 4 5 6 
#
# 1 122.6036 44.8276 66.7138 0.0000 0.0000 0.0000
# 2 44.8276 38.7446 39.1742 0.0000 0.0000 0.0000
# 3 66.7138 39.1742 100.5590 0.0000 0.0000 0.0000
# 4 0.0000 0.0000 0.0000 19.5159 0.0000 0.0000
# 5 0.0000 0.0000 0.0000 0.0000 23.6107 0.0000
# 6 0.0000 0.0000 0.0000 0.0000 0.0000 8.4140
#
#
#
# Elastic Compliance Matrix: (Units=1/GPa)
#
#
# Indices 1 2 3 4 5 6 
#
# 1 0.015815 -0.012686 -0.005550 0.000000 0.000000 0.000000
# 2 -0.012686 0.052760 -0.012137 0.000000 0.000000 0.000000
# 3 -0.005550 -0.012137 0.018354 0.000000 0.000000 0.000000
# 4 0.000000 0.000000 0.000000 0.051240 0.000000 0.000000
# 5 0.000000 0.000000 0.000000 0.000000 0.042354 0.000000
# 6 0.000000 0.000000 0.000000 0.000000 0.000000 0.118849
#
#
# Mechanical properties :
#
#
# Convention : Reuss Voigt Hill
#
# Bulk Modulus (GPa) = 38.19295 62.59315 50.39305
# Shear Modulus (GPa) = 13.55581 17.72089 15.63835
#
# Velocity S-wave (km/s) = 2.74776 3.14166 2.95129
# Velocity P-wave (km/s) = 5.59815 6.92984 6.29928
#
# Compressibility (1/GPa) = 0.02618284
#
# Stress axis : x y z
#
# Youngs Moduli (GPa) = 63.23197 18.95387 54.48286
#
# Poissons Ratio (x) = 0.24046 0.30237
# Poissons Ratio (y) = 0.80219 0.66125
# Poissons Ratio (z) = 0.35093 0.23004
#
# Static dielectric constant tensor:
#      x y z
#    x 1.610760 0.000000 0.000000 
#    y 0.000000 1.606260 0.000000 
#    z 0.000000 0.000000 1.609790 
# 
# From -- ./inp_files/70758.got.cif
#   From: 2010.05.17/outbox.cif.g08.bks.cpg/sg71_36_cif.got.tgz:70758.got - 2010.06.03 16:22:01.
