data_PCOD9520326
_publ_section_title
;
Structure prediction by ZEFSAII (Michael W. Deem and Ramdas Pophale) SiO2 
 PCOD9520326
Probable space group: I M M M
;
_chemical_formula_sum "Si O2"
_cell_formula_units_Z 66
_cell_length_a 7.329396
_cell_length_b 22.512718
_cell_length_c 18.346855
_cell_angle_alpha 90.000000
_cell_angle_beta 90.000000
_cell_angle_gamma 90.000000
_cell_volume 3027.315934
_symmetry_space_group_name_H-M "I M M M"
_symmetry_group_IT_number 71
_symmetry_cell_setting 'orthorhombic'
loop_
_space_group_symop_operation_xyz
x,y,z
-x,-y,z
x,-y,-z
-x,y,-z
-x,-y,-z
x,y,-z
-x,y,z
x,-y,z
1/2+x,1/2+y,1/2+z
1/2-x,1/2-y,1/2+z
1/2+x,1/2-y,1/2-z
1/2-x,1/2+y,1/2-z
1/2-x,1/2-y,1/2-z
1/2+x,1/2+y,1/2-z
1/2-x,1/2+y,1/2+z
1/2+x,1/2-y,1/2+z
loop_
_atom_site_type_symbol
_atom_site_label
_atom_site_fract_x
_atom_site_fract_y
_atom_site_fract_z
Si Si1 0.278755 0.374350 0.207520
Si Si2 0.276985 0.431788 0.500000
Si Si3 0.280355 0.500000 0.136256
Si Si4 0.780756 0.152920 0.129915
Si Si5 0.000000 0.500000 0.000000
Si Si6 0.784206 0.212448 0.418861
O O1 0.500000 0.369239 0.209722
O O2 0.238266 0.441038 0.182700
O O3 0.213169 0.358176 0.288256
O O4 0.211327 0.329188 0.145320
O O5 0.219036 0.500000 0.500000
O O6 0.500000 0.431611 0.500000
O O7 0.217272 0.395520 0.428650
O O8 0.500000 0.500000 0.120690
O O9 0.159904 0.500000 0.063977
O O10 0.737972 0.218828 0.101955
O O11 0.000000 0.148390 0.131860
O O12 0.709141 0.201169 0.500000
O O13 0.000000 0.200344 0.422711
#
# Coordination Sequence:
#
# PCOD9520326 Si02
#       6
#    16   8   8  16   2  16
#     4   9  20  37  61  84 112 159 204 244 305 368
#     4   9  18  30  52  83 115 145 182 246 297 347
#     4  10  23  45  67  91 127 167 205 263 310 365
#     4  10  19  35  57  85 114 147 200 247 301 364
#     4  12  26  44  64  98 128 150 222 248 314 382
#     4  10  20  35  54  80 113 153 199 244 306 373
#
# _framework density 21.801490999999999
#
# number of rings (size 3 to 8) (size 9 to 14) (size 15 to 20)
#    0.000    2.303    1.212    0.909    3.394    0.000 
#    4.364    0.000    0.000    1.455    0.000    0.000 
#    0.000    0.000    0.000    0.000    0.000    0.000 
#
# Total GULP energy -184188.305268 kJ/mol
# GULP energy per Si atom -5581.463796 kJ/mol
# Density = 2.175187 g / cm^3
# Si number density = 21.801491 Si / 1000 Ang^3
#
#
#
# Elastic Constant Matrix: (Units=GPa)
#
#
# Indices 1 2 3 4 5 6 
#
# 1 94.4285 -4.7771 17.9795 0.0000 0.0000 0.0000
# 2 -4.7771 160.9990 102.8654 0.0000 0.0000 0.0000
# 3 17.9795 102.8654 248.8502 0.0000 0.0000 0.0000
# 4 0.0000 0.0000 0.0000 -4.3352 0.0000 0.0000
# 5 0.0000 0.0000 0.0000 0.0000 -40.9219 0.0000
# 6 0.0000 0.0000 0.0000 0.0000 0.0000 15.3274
#
#
#
# Elastic Compliance Matrix: (Units=1/GPa)
#
#
# Indices 1 2 3 4 5 6 
#
# 1 0.010885 0.001122 -0.001250 0.000000 0.000000 0.000000
# 2 0.001122 0.008556 -0.003618 0.000000 0.000000 0.000000
# 3 -0.001250 -0.003618 0.005604 0.000000 0.000000 0.000000
# 4 0.000000 0.000000 0.000000 -0.230669 0.000000 0.000000
# 5 0.000000 0.000000 0.000000 0.000000 -0.024437 0.000000
# 6 0.000000 0.000000 0.000000 0.000000 0.000000 0.065243
#
#
# Mechanical properties :
#
#
# Convention : Reuss Voigt Hill
#
# Bulk Modulus (GPa) = 56.97144 81.82369 69.39756
# Shear Modulus (GPa) = -33.00873 19.89472 -6.55700
#
# Velocity S-wave (km/s) = -3.89531 3.02410 -1.73612
# Velocity P-wave (km/s) = 2.44077 7.05736 5.28033
#
# Compressibility (1/GPa) = 0.01755266
#
# Stress axis : x y z
#
# Youngs Moduli (GPa) = 91.87135 116.87769 178.43615
#
# Poissons Ratio (x) = -0.13110 0.22306
# Poissons Ratio (y) = -0.10305 0.64554
# Poissons Ratio (z) = 0.11485 0.42283
#
# Static dielectric constant tensor:
#      x y z
#    x 1.862650 0.000000 0.000000 
#    y 0.000000 1.730710 0.000000 
#    z 0.000000 0.000000 1.767200 
# 
# From -- ./inp_files/41959.got.cif
#   From: 2010.05.17/outbox.cif.g08.bks.cpg/sg71_21_cif.got.tgz:41959.got - 2010.06.03 16:22:01.
