data_PCOD9520163
_publ_section_title
;
Structure prediction by ZEFSAII (Michael W. Deem and Ramdas Pophale) SiO2 
 PCOD9520163
Probable space group: I M M M
;
_chemical_formula_sum "Si O2"
_cell_formula_units_Z 96
_cell_length_a 25.286734
_cell_length_b 7.596479
_cell_length_c 23.357512
_cell_angle_alpha 90.000000
_cell_angle_beta 90.000000
_cell_angle_gamma 90.000000
_cell_volume 4486.747839
_symmetry_space_group_name_H-M "I M M M"
_symmetry_group_IT_number 71
_symmetry_cell_setting 'orthorhombic'
loop_
_space_group_symop_operation_xyz
x,y,z
-x,-y,z
x,-y,-z
-x,y,-z
-x,-y,-z
x,y,-z
-x,y,z
x,-y,z
1/2+x,1/2+y,1/2+z
1/2-x,1/2-y,1/2+z
1/2+x,1/2-y,1/2-z
1/2-x,1/2+y,1/2-z
1/2-x,1/2-y,1/2-z
1/2+x,1/2+y,1/2-z
1/2-x,1/2+y,1/2+z
1/2+x,1/2-y,1/2+z
loop_
_atom_site_type_symbol
_atom_site_label
_atom_site_fract_x
_atom_site_fract_y
_atom_site_fract_z
Si Si1 0.383297 0.789947 0.000000
Si Si2 0.687696 0.199038 0.796345
Si Si3 0.761049 0.285585 0.500000
Si Si4 0.500000 0.802618 0.678970
Si Si5 0.720209 0.287006 0.374932
Si Si6 0.617425 0.791527 0.689494
Si Si7 0.898077 0.796582 0.376009
Si Si8 0.500000 0.713792 0.193012
O O1 0.322243 0.731409 0.000000
O O2 0.408933 0.723215 0.942378
O O3 0.384180 0.000000 0.000000
O O4 0.742055 0.278117 0.822045
O O5 0.648518 0.277438 0.747137
O O6 0.652649 0.194058 0.854075
O O7 0.699421 0.000000 0.777419
O O8 0.758650 0.500000 0.500000
O O9 0.736535 0.227730 0.438889
O O10 0.559239 0.720846 0.670847
O O11 0.500000 0.807536 0.747279
O O12 0.500000 0.000000 0.653103
O O13 0.724698 0.500000 0.373976
O O14 0.660632 0.235771 0.359631
O O15 0.608733 0.000000 0.699808
O O16 0.948291 0.735992 0.341122
O O17 0.887492 0.000000 0.362916
O O18 0.500000 0.500000 0.200549
#
# Coordination Sequence:
#
# PCOD9520163 Si02
#       8
#     8  16   8   8  16  16  16   8
#     4  11  21  38  58  75 105 147 190 232 274 324
#     4  10  19  34  56  81 110 146 182 219 271 329
#     4   9  18  35  58  79 104 140 181 222 266 323
#     4  10  20  36  59  80 107 144 184 225 266 325
#     4  10  20  35  56  82 111 144 179 221 273 326
#     4  10  21  35  54  84 114 142 180 225 270 324
#     4  11  22  35  53  79 109 143 187 235 277 319
#     4  10  22  37  53  76 110 147 184 231 279 319
#
# _framework density 21.396343000000002
#
# number of rings (size 3 to 8) (size 9 to 14) (size 15 to 20)
#    0.000    1.833    3.333    1.250    0.000    3.000 
#    0.000    2.083    0.000    0.500    0.000    3.500 
#    0.000    0.000    0.000    0.000    0.000    0.000 
#
# Total GULP energy -267706.768783 kJ/mol
# GULP energy per Si atom -5577.224350 kJ/mol
# Density = 2.134764 g / cm^3
# Si number density = 21.396343 Si / 1000 Ang^3
#
#
#
# Elastic Constant Matrix: (Units=GPa)
#
#
# Indices 1 2 3 4 5 6 
#
# 1 130.4879 16.3713 -0.0018 0.0000 0.0000 0.0000
# 2 16.3713 45.9099 7.8044 0.0000 0.0000 0.0000
# 3 -0.0018 7.8044 38.9234 0.0000 0.0000 0.0000
# 4 0.0000 0.0000 0.0000 16.3062 0.0000 0.0000
# 5 0.0000 0.0000 0.0000 0.0000 53.1115 0.0000
# 6 0.0000 0.0000 0.0000 0.0000 0.0000 9.1957
#
#
#
# Elastic Compliance Matrix: (Units=1/GPa)
#
#
# Indices 1 2 3 4 5 6 
#
# 1 0.008036 -0.002967 0.000595 0.000000 0.000000 0.000000
# 2 -0.002967 0.023646 -0.004741 0.000000 0.000000 0.000000
# 3 0.000595 -0.004741 0.026642 0.000000 0.000000 0.000000
# 4 0.000000 0.000000 0.000000 0.061327 0.000000 0.000000
# 5 0.000000 0.000000 0.000000 0.000000 0.018828 0.000000
# 6 0.000000 0.000000 0.000000 0.000000 0.000000 0.108747
#
#
# Mechanical properties :
#
#
# Convention : Reuss Voigt Hill
#
# Bulk Modulus (GPa) = 22.67668 29.29655 25.98662
# Shear Modulus (GPa) = 18.10608 28.46581 23.28595
#
# Velocity S-wave (km/s) = 2.91215 3.65143 3.30254
# Velocity P-wave (km/s) = 4.68283 5.61242 5.16857
#
# Compressibility (1/GPa) = 0.04409816
#
# Stress axis : x y z
#
# Youngs Moduli (GPa) = 124.44362 42.29103 37.53449
#
# Poissons Ratio (x) = 0.12547 -0.02234
# Poissons Ratio (y) = 0.36919 0.17796
# Poissons Ratio (z) = -0.07407 0.20051
#
# Static dielectric constant tensor:
#      x y z
#    x 1.833880 0.000000 0.000000 
#    y 0.000000 1.832790 0.000000 
#    z 0.000000 0.000000 1.760570 
# 
# From -- ./inp_files/57831.got.cif
#   From: 2010.05.17/outbox.cif.g08.bks.cpg/sg71_29_cif.got.tgz:57831.got - 2010.06.03 16:22:01.
