data_PCOD9520839
_publ_section_title
;
Structure prediction by ZEFSAII (Michael W. Deem and Ramdas Pophale) SiO2 
 PCOD9520839
Probable space group: I M M M
;
_chemical_formula_sum "Si O2"
_cell_formula_units_Z 120
_cell_length_a 17.629662
_cell_length_b 22.074308
_cell_length_c 17.863051
_cell_angle_alpha 90.000000
_cell_angle_beta 90.000000
_cell_angle_gamma 90.000000
_cell_volume 6951.631173
_symmetry_space_group_name_H-M "I M M M"
_symmetry_group_IT_number 71
_symmetry_cell_setting 'orthorhombic'
loop_
_space_group_symop_operation_xyz
x,y,z
-x,-y,z
x,-y,-z
-x,y,-z
-x,-y,-z
x,y,-z
-x,y,z
x,-y,z
1/2+x,1/2+y,1/2+z
1/2-x,1/2-y,1/2+z
1/2+x,1/2-y,1/2-z
1/2-x,1/2+y,1/2-z
1/2-x,1/2-y,1/2-z
1/2+x,1/2+y,1/2-z
1/2-x,1/2+y,1/2+z
1/2+x,1/2-y,1/2+z
loop_
_atom_site_type_symbol
_atom_site_label
_atom_site_fract_x
_atom_site_fract_y
_atom_site_fract_z
Si Si1 0.667483 0.930385 0.914811
Si Si2 0.585357 0.362912 0.237301
Si Si3 0.590773 0.073002 0.500000
Si Si4 0.856206 0.182698 0.418407
Si Si5 0.190498 0.639514 0.874821
Si Si6 0.414065 0.772094 0.295330
Si Si7 0.412841 0.190752 0.875993
Si Si8 0.261047 0.570686 0.734458
O O1 0.608049 0.876039 0.903568
O O2 0.727904 0.920044 0.848654
O O3 0.638395 0.000000 0.905625
O O4 0.697218 0.926271 0.000000
O O5 0.500000 0.385195 0.249707
O O6 0.597209 0.345690 0.150113
O O7 0.595352 0.299104 0.280418
O O8 0.652873 0.406597 0.260445
O O9 0.500000 0.087954 0.500000
O O10 0.636038 0.100400 0.428582
O O11 0.596705 0.000000 0.500000
O O12 0.886551 0.166716 0.500000
O O13 0.770442 0.158345 0.411219
O O14 0.861091 0.255468 0.408538
O O15 0.145726 0.699701 0.851209
O O16 0.212730 0.605160 0.797957
O O17 0.500000 0.783300 0.321312
O O18 0.405849 0.803804 0.213950
O O19 0.500000 0.205207 0.895230
O O20 0.257034 0.500000 0.751567
#
# Coordination Sequence:
#
# PCOD9520839 Si02
#       8
#    16  16   8  16  16  16  16  16
#     4  10  21  36  53  76 108 144 181 221 269 325
#     4   9  20  35  56  81 107 143 181 225 280 328
#     4  11  24  40  58  82 113 151 192 231 269 319
#     4  10  20  32  52  83 112 142 178 223 273 328
#     4  11  20  36  58  79 111 146 183 229 274 321
#     4   9  18  33  54  79 108 138 174 221 273 325
#     4  10  20  34  53  79 109 142 180 222 269 326
#     4  10  21  36  57  81 107 143 186 228 271 327
#
# _framework density 17.262136000000002
#
# number of rings (size 3 to 8) (size 9 to 14) (size 15 to 20)
#    0.000    2.067    2.000    2.400    1.867    4.000 
#    0.000    0.667    0.000    0.400    0.000    3.733 
#    0.000    0.000    0.000    0.000    0.000    0.000 
#
# Total GULP energy -334500.869995 kJ/mol
# GULP energy per Si atom -5575.014500 kJ/mol
# Density = 1.722285 g / cm^3
# Si number density = 17.262136 Si / 1000 Ang^3
#
#
#
# Elastic Constant Matrix: (Units=GPa)
#
#
# Indices 1 2 3 4 5 6 
#
# 1 84.8888 29.5113 20.2485 0.0000 0.0000 0.0000
# 2 29.5113 44.0295 12.9056 0.0000 0.0000 0.0000
# 3 20.2485 12.9056 52.0660 0.0000 0.0000 0.0000
# 4 0.0000 0.0000 0.0000 17.0853 0.0000 0.0000
# 5 0.0000 0.0000 0.0000 0.0000 10.3544 0.0000
# 6 0.0000 0.0000 0.0000 0.0000 0.0000 25.2813
#
#
#
# Elastic Compliance Matrix: (Units=1/GPa)
#
#
# Indices 1 2 3 4 5 6 
#
# 1 0.016046 -0.009625 -0.003854 0.000000 0.000000 0.000000
# 2 -0.009625 0.030265 -0.003759 0.000000 0.000000 0.000000
# 3 -0.003854 -0.003759 0.021637 0.000000 0.000000 0.000000
# 4 0.000000 0.000000 0.000000 0.058530 0.000000 0.000000
# 5 0.000000 0.000000 0.000000 0.000000 0.096577 0.000000
# 6 0.000000 0.000000 0.000000 0.000000 0.000000 0.039555
#
#
# Mechanical properties :
#
#
# Convention : Reuss Voigt Hill
#
# Bulk Modulus (GPa) = 29.87605 34.03499 31.95552
# Shear Modulus (GPa) = 16.22098 18.43214 17.32656
#
# Velocity S-wave (km/s) = 3.06875 3.27123 3.17161
# Velocity P-wave (km/s) = 5.46820 5.83329 5.65369
#
# Compressibility (1/GPa) = 0.03347162
#
# Stress axis : x y z
#
# Youngs Moduli (GPa) = 62.32245 33.04153 46.21708
#
# Poissons Ratio (x) = 0.31802 0.17814
# Poissons Ratio (y) = 0.59985 0.17371
# Poissons Ratio (z) = 0.24022 0.12419
#
# Static dielectric constant tensor:
#      x y z
#    x 1.570930 0.000000 0.000000 
#    y 0.000000 1.578130 0.000000 
#    z 0.000000 0.000000 1.592690 
# 
# From -- ./inp_files/46464.got.cif
#   From: 2010.05.17/outbox.cif.g08.bks.cpg/sg71_24_cif.got.tgz:46464.got - 2010.06.03 16:22:01.
