data_PCOD9520489
_publ_section_title
;
Structure prediction by ZEFSAII (Michael W. Deem and Ramdas Pophale) SiO2 
 PCOD9520489
Probable space group: I M M M
;
_chemical_formula_sum "Si O2"
_cell_formula_units_Z 52
_cell_length_a 10.273837
_cell_length_b 20.645903
_cell_length_c 11.323905
_cell_angle_alpha 90.000000
_cell_angle_beta 90.000000
_cell_angle_gamma 90.000000
_cell_volume 2401.943409
_symmetry_space_group_name_H-M "I M M M"
_symmetry_group_IT_number 71
_symmetry_cell_setting 'orthorhombic'
loop_
_space_group_symop_operation_xyz
x,y,z
-x,-y,z
x,-y,-z
-x,y,-z
-x,-y,-z
x,y,-z
-x,y,z
x,-y,z
1/2+x,1/2+y,1/2+z
1/2-x,1/2-y,1/2+z
1/2+x,1/2-y,1/2-z
1/2-x,1/2+y,1/2-z
1/2-x,1/2-y,1/2-z
1/2+x,1/2+y,1/2-z
1/2-x,1/2+y,1/2+z
1/2+x,1/2-y,1/2+z
loop_
_atom_site_type_symbol
_atom_site_label
_atom_site_fract_x
_atom_site_fract_y
_atom_site_fract_z
Si Si1 0.500000 0.859474 0.291763
Si Si2 0.657161 0.423996 0.000000
Si Si3 0.000000 0.217025 0.865708
Si Si4 0.238403 0.000000 0.862089
Si Si5 0.000000 0.500000 0.794900
Si Si6 0.213995 0.130755 0.244089
O O1 0.500000 0.794473 0.366364
O O2 0.500000 0.929868 0.356051
O O3 0.633865 0.857673 0.218025
O O4 0.702256 0.386854 0.882518
O O5 0.701010 0.500000 0.000000
O O6 0.500000 0.424902 0.000000
O O7 0.875215 0.189343 0.796846
O O8 0.000000 0.193063 0.000000
O O9 0.372219 0.000000 0.787123
O O10 0.168446 0.065764 0.823119
O O11 0.264057 0.000000 0.000000
#
# Coordination Sequence:
#
# PCOD9520489 Si02
#       6
#     8   8   8   8   4  16
#     4  10  24  45  69  95 134 170 219 279 332 395
#     4  11  22  41  69 101 137 175 223 278 328 391
#     4  12  26  44  64  96 136 179 220 273 330 403
#     4  10  19  36  64  98 131 168 209 271 322 387
#     4   8  19  40  67  92 126 169 216 267 324 400
#     4  11  23  43  67  99 131 175 224 267 335 393
#
# _framework density 21.649135999999999
#
# number of rings (size 3 to 8) (size 9 to 14) (size 15 to 20)
#    0.000    1.385    3.077    2.077    2.154    0.615 
#    0.000    5.000   16.923    0.000    0.000    0.000 
#    0.000    0.000    0.000    0.000    0.000    0.000 
#
# Total GULP energy -145234.731551 kJ/mol
# GULP energy per Si atom -5585.951213 kJ/mol
# Density = 2.159986 g / cm^3
# Si number density = 21.649136 Si / 1000 Ang^3
#
#
#
# Elastic Constant Matrix: (Units=GPa)
#
#
# Indices 1 2 3 4 5 6 
#
# 1 119.8525 40.7772 16.2621 0.0000 0.0000 0.0000
# 2 40.7772 159.7878 52.8781 0.0000 0.0000 0.0000
# 3 16.2621 52.8781 120.0641 0.0000 0.0000 0.0000
# 4 0.0000 0.0000 0.0000 10.0808 0.0000 0.0000
# 5 0.0000 0.0000 0.0000 0.0000 0.7458 0.0000
# 6 0.0000 0.0000 0.0000 0.0000 0.0000 20.5968
#
#
#
# Elastic Compliance Matrix: (Units=1/GPa)
#
#
# Indices 1 2 3 4 5 6 
#
# 1 0.009143 -0.002252 -0.000247 0.000000 0.000000 0.000000
# 2 -0.002252 0.007881 -0.003166 0.000000 0.000000 0.000000
# 3 -0.000247 -0.003166 0.009757 0.000000 0.000000 0.000000
# 4 0.000000 0.000000 0.000000 0.099199 -0.000002 0.000000
# 5 0.000000 0.000000 0.000000 -0.000002 1.340753 0.000000
# 6 0.000000 0.000000 0.000000 0.000000 0.000000 0.048551
#
#
# Mechanical properties :
#
#
# Convention : Reuss Voigt Hill
#
# Bulk Modulus (GPa) = 64.71658 68.83769 66.77713
# Shear Modulus (GPa) = 3.26422 25.60381 14.43401
#
# Velocity S-wave (km/s) = 1.22925 3.44273 2.58490
# Velocity P-wave (km/s) = 5.65447 6.90429 6.31040
#
# Compressibility (1/GPa) = 0.01545199
#
# Stress axis : x y z
#
# Youngs Moduli (GPa) = 109.37163 126.89487 102.49529
#
# Poissons Ratio (x) = 0.28572 0.02529
# Poissons Ratio (y) = 0.24627 0.32447
# Poissons Ratio (z) = 0.02699 0.40172
#
# Static dielectric constant tensor:
#      x y z
#    x 1.806390 0.000000 0.000000 
#    y 0.000000 1.820800 0.000000 
#    z 0.000000 0.000000 1.719810 
# 
# From -- ./inp_files/19321.got.cif
#   From: 2010.05.17/outbox.cif.g08.bks.cpg/sg71_10_cif.got.tgz:19321.got - 2010.06.03 16:22:01.
