data_PCOD9520883
_publ_section_title
;
Structure prediction by ZEFSAII (Michael W. Deem and Ramdas Pophale) SiO2 
 PCOD9520883
Probable space group: I M M M
;
_chemical_formula_sum "Si O2"
_cell_formula_units_Z 56
_cell_length_a 8.013460
_cell_length_b 7.383914
_cell_length_c 43.814530
_cell_angle_alpha 90.000000
_cell_angle_beta 90.000000
_cell_angle_gamma 90.000000
_cell_volume 2592.536388
_symmetry_space_group_name_H-M "I M M M"
_symmetry_group_IT_number 71
_symmetry_cell_setting 'orthorhombic'
loop_
_space_group_symop_operation_xyz
x,y,z
-x,-y,z
x,-y,-z
-x,y,-z
-x,-y,-z
x,y,-z
-x,y,z
x,-y,z
1/2+x,1/2+y,1/2+z
1/2-x,1/2-y,1/2+z
1/2+x,1/2-y,1/2-z
1/2-x,1/2+y,1/2-z
1/2-x,1/2-y,1/2-z
1/2+x,1/2+y,1/2-z
1/2-x,1/2+y,1/2+z
1/2+x,1/2-y,1/2+z
loop_
_atom_site_type_symbol
_atom_site_label
_atom_site_fract_x
_atom_site_fract_y
_atom_site_fract_z
Si Si1 0.500000 0.217254 0.894795
Si Si2 0.000000 0.784729 0.323091
Si Si3 0.815327 0.778831 0.933744
Si Si4 0.306262 0.779569 0.000000
Si Si5 0.311584 0.216623 0.284444
O O1 0.500000 0.257717 0.859146
O O2 0.334012 0.283015 0.912003
O O3 0.500000 0.000000 0.898099
O O4 0.831595 0.712977 0.307162
O O5 0.000000 0.000000 0.317236
O O6 0.000000 0.721733 0.924118
O O7 0.813255 0.000000 0.933644
O O8 0.779338 0.722355 0.968588
O O9 0.500000 0.725321 0.000000
O O10 0.303370 0.000000 0.000000
O O11 0.500000 0.287407 0.288715
O O12 0.250000 0.250000 0.250000
O O13 0.320714 0.000000 0.288551
#
# Coordination Sequence:
#
# PCOD9520883 Si02
#       5
#     8   8  16   8  16
#     4  10  20  33  48  70 100 134 172 210 244 292
#     4  10  22  38  53  75 107 138 168 204 250 303
#     4   9  16  26  42  66  98 131 165 208 257 301
#     4   9  13  21  39  64  95 130 162 202 258 308
#     4  10  20  35  57  82 105 130 163 205 252 302
#
# _framework density 21.600467999999999
#
# number of rings (size 3 to 8) (size 9 to 14) (size 15 to 20)
#    0.000    2.429    2.857    0.429    0.000    4.000 
#    0.000    0.000    0.000    0.000    0.000    2.000 
#    0.000    2.286    0.000    0.000    0.000    0.000 
#
# Total GULP energy -156426.532345 kJ/mol
# GULP energy per Si atom -5586.661869 kJ/mol
# Density = 2.155130 g / cm^3
# Si number density = 21.600468 Si / 1000 Ang^3
#
#
#
# Elastic Constant Matrix: (Units=GPa)
#
#
# Indices 1 2 3 4 5 6 
#
# 1 271.4190 12.0651 130.0121 0.0000 0.0000 0.0000
# 2 12.0651 76.2444 -7.0984 0.0000 0.0000 0.0000
# 3 130.0121 -7.0984 180.6222 0.0000 0.0000 0.0000
# 4 0.0000 0.0000 0.0000 -24.0290 0.0000 0.0000
# 5 0.0000 0.0000 0.0000 0.0000 6.3155 0.0000
# 6 0.0000 0.0000 0.0000 0.0000 0.0000 -5.0917
#
#
#
# Elastic Compliance Matrix: (Units=1/GPa)
#
#
# Indices 1 2 3 4 5 6 
#
# 1 0.005749 -0.001300 -0.004189 0.000000 0.000000 0.000000
# 2 -0.001300 0.013458 0.001464 0.000000 0.000000 0.000000
# 3 -0.004189 0.001464 0.008609 0.000000 0.000000 0.000000
# 4 0.000000 0.000000 0.000000 -0.041616 0.000000 0.000000
# 5 0.000000 0.000000 0.000000 0.000000 0.158341 0.000000
# 6 0.000000 0.000000 0.000000 0.000000 0.000000 -0.196399
#
#
# Mechanical properties :
#
#
# Convention : Reuss Voigt Hill
#
# Bulk Modulus (GPa) = 50.58921 88.69367 69.64144
# Shear Modulus (GPa) = -134.33221 21.65941 -56.33640
#
# Velocity S-wave (km/s) = -7.89459 3.17002 -5.11251
# Velocity P-wave (km/s) = 7.72192 7.38572 1.59361
#
# Compressibility (1/GPa) = 0.01976706
#
# Stress axis : x y z
#
# Youngs Moduli (GPa) = 173.95322 74.30684 116.15478
#
# Poissons Ratio (x) = 0.09657 0.48657
# Poissons Ratio (y) = 0.22608 -0.17010
# Poissons Ratio (z) = 0.72869 -0.10881
#
# Static dielectric constant tensor:
#      x y z
#    x 1.784660 0.000000 0.000000 
#    y 0.000000 1.736050 0.000000 
#    z 0.000000 0.000000 1.711210 
# 
# From -- ./inp_files/67665.got.cif
#   From: 2010.05.17/outbox.cif.g08.bks.cpg/sg71_34_cif.got.tgz:67665.got - 2010.06.03 16:22:01.
