data_PCOD9520687
_publ_section_title
;
Structure prediction by ZEFSAII (Michael W. Deem and Ramdas Pophale) SiO2 
 PCOD9520687
Probable space group: I M M M
;
_chemical_formula_sum "Si O2"
_cell_formula_units_Z 96
_cell_length_a 18.132660
_cell_length_b 9.201034
_cell_length_c 26.264991
_cell_angle_alpha 90.000000
_cell_angle_beta 90.000000
_cell_angle_gamma 90.000000
_cell_volume 4382.030642
_symmetry_space_group_name_H-M "I M M M"
_symmetry_group_IT_number 71
_symmetry_cell_setting 'orthorhombic'
loop_
_space_group_symop_operation_xyz
x,y,z
-x,-y,z
x,-y,-z
-x,y,-z
-x,-y,-z
x,y,-z
-x,y,z
x,-y,z
1/2+x,1/2+y,1/2+z
1/2-x,1/2-y,1/2+z
1/2+x,1/2-y,1/2-z
1/2-x,1/2+y,1/2-z
1/2-x,1/2-y,1/2-z
1/2+x,1/2+y,1/2-z
1/2-x,1/2+y,1/2+z
1/2+x,1/2-y,1/2+z
loop_
_atom_site_type_symbol
_atom_site_label
_atom_site_fract_x
_atom_site_fract_y
_atom_site_fract_z
Si Si1 0.417626 0.832076 0.437743
Si Si2 0.121217 0.327488 0.656803
Si Si3 0.224869 0.836104 0.059731
Si Si4 0.620493 0.326482 0.943102
Si Si5 0.083969 0.328123 0.226935
Si Si6 0.777690 0.827697 0.198866
O O1 0.416516 0.833801 0.500000
O O2 0.500000 0.782798 0.422858
O O3 0.349282 0.736333 0.419271
O O4 0.408428 0.000000 0.421384
O O5 0.109265 0.500000 0.650943
O O6 0.088525 0.245861 0.607997
O O7 0.091217 0.286653 0.712854
O O8 0.210048 0.299607 0.660453
O O9 0.295274 0.730571 0.058917
O O10 0.239243 0.000000 0.079632
O O11 0.208987 0.854468 0.000000
O O12 0.616336 0.500000 0.939542
O O13 0.592256 0.284647 0.000000
O O14 0.102069 0.500000 0.224660
O O15 0.141772 0.239849 0.193487
O O16 0.000000 0.307536 0.211017
O O17 0.750000 0.750000 0.250000
O O18 0.782312 0.000000 0.205840
#
# Coordination Sequence:
#
# PCOD9520687 Si02
#       6
#    16  16  16  16  16  16
#     4   8  13  21  33  49  70  96 126 165 218 279
#     4   9  18  32  51  76 106 140 177 218 262 310
#     4   9  16  25  38  56  78 106 144 193 247 298
#     4  10  20  32  47  68  94 127 171 222 269 310
#     4   9  18  33  54  82 115 146 175 211 258 315
#     4   9  17  30  50  78 110 142 176 214 260 316
#
# _framework density 21.90765
#
# number of rings (size 3 to 8) (size 9 to 14) (size 15 to 20)
#    0.000    3.000    0.000    3.000    0.000    7.000 
#    0.000    1.667    0.000    1.500    0.000    8.167 
#    0.000    0.000    0.000    0.000    0.000    0.000 
#
# Total GULP energy -267689.578709 kJ/mol
# GULP energy per Si atom -5576.866223 kJ/mol
# Density = 2.185779 g / cm^3
# Si number density = 21.907650 Si / 1000 Ang^3
#
#
#
# Elastic Constant Matrix: (Units=GPa)
#
#
# Indices 1 2 3 4 5 6 
#
# 1 88.9071 23.7421 6.4087 0.0000 0.0000 0.0000
# 2 23.7421 50.6013 36.9857 0.0000 0.0000 0.0000
# 3 6.4087 36.9857 129.4188 0.0000 0.0000 0.0000
# 4 0.0000 0.0000 0.0000 23.8706 0.0000 0.0000
# 5 0.0000 0.0000 0.0000 0.0000 2.7916 0.0000
# 6 0.0000 0.0000 0.0000 0.0000 0.0000 14.9477
#
#
#
# Elastic Compliance Matrix: (Units=1/GPa)
#
#
# Indices 1 2 3 4 5 6 
#
# 1 0.013055 -0.007146 0.001396 0.000000 0.000000 0.000000
# 2 -0.007146 0.028891 -0.007903 0.000000 0.000000 0.000000
# 3 0.001396 -0.007903 0.009916 0.000000 0.000000 0.000000
# 4 0.000000 0.000000 0.000000 0.041893 0.000000 0.000000
# 5 0.000000 0.000000 0.000000 0.000000 0.358212 0.000000
# 6 0.000000 0.000000 0.000000 0.000000 0.000000 0.066900
#
#
# Mechanical properties :
#
#
# Convention : Reuss Voigt Hill
#
# Bulk Modulus (GPa) = 40.72115 44.80004 42.76059
# Shear Modulus (GPa) = 9.01942 21.77470 15.39706
#
# Velocity S-wave (km/s) = 2.03125 3.15609 2.65395
# Velocity P-wave (km/s) = 4.91216 5.81163 5.38072
#
# Compressibility (1/GPa) = 0.02455726
#
# Stress axis : x y z
#
# Youngs Moduli (GPa) = 76.59729 34.61229 100.84461
#
# Poissons Ratio (x) = 0.24733 -0.14074
# Poissons Ratio (y) = 0.54734 0.79696
# Poissons Ratio (z) = -0.10690 0.27354
#
# Static dielectric constant tensor:
#      x y z
#    x 1.826970 0.000000 0.000000 
#    y 0.000000 1.749420 0.000000 
#    z 0.000000 0.000000 1.904550 
# 
# From -- ./inp_files/66335.got.cif
#   From: 2010.05.17/outbox.cif.g08.bks.cpg/sg71_34_cif.got.tgz:66335.got - 2010.06.03 16:22:01.
