data_PCOD9520841
_publ_section_title
;
Structure prediction by ZEFSAII (Michael W. Deem and Ramdas Pophale) SiO2 
 PCOD9520841
Probable space group: I M M M
;
_chemical_formula_sum "Si O2"
_cell_formula_units_Z 96
_cell_length_a 25.900850
_cell_length_b 16.890803
_cell_length_c 13.511423
_cell_angle_alpha 90.000000
_cell_angle_beta 90.000000
_cell_angle_gamma 90.000000
_cell_volume 5911.060495
_symmetry_space_group_name_H-M "I M M M"
_symmetry_group_IT_number 71
_symmetry_cell_setting 'orthorhombic'
loop_
_space_group_symop_operation_xyz
x,y,z
-x,-y,z
x,-y,-z
-x,y,-z
-x,-y,-z
x,y,-z
-x,y,z
x,-y,z
1/2+x,1/2+y,1/2+z
1/2-x,1/2-y,1/2+z
1/2+x,1/2-y,1/2-z
1/2-x,1/2+y,1/2-z
1/2-x,1/2-y,1/2-z
1/2+x,1/2+y,1/2-z
1/2-x,1/2+y,1/2+z
1/2+x,1/2-y,1/2+z
loop_
_atom_site_type_symbol
_atom_site_label
_atom_site_fract_x
_atom_site_fract_y
_atom_site_fract_z
Si Si1 0.352266 0.760304 0.883719
Si Si2 0.096540 0.140024 0.248164
Si Si3 0.500000 0.404004 0.618166
Si Si4 0.761991 0.313134 0.112464
Si Si5 0.807231 0.136995 0.112250
Si Si6 0.201253 0.410168 0.699628
Si Si7 0.062161 0.000000 0.386432
O O1 0.392226 0.720859 0.807655
O O2 0.297978 0.711561 0.872726
O O3 0.338222 0.849404 0.851648
O O4 0.366693 0.756220 0.000000
O O5 0.147936 0.117333 0.188257
O O6 0.083686 0.076063 0.331270
O O7 0.049719 0.134891 0.170427
O O8 0.500000 0.500000 0.636893
O O9 0.500000 0.393065 0.500000
O O10 0.793260 0.230527 0.121430
O O11 0.782133 0.373026 0.194709
O O12 0.767662 0.342389 0.000000
O O13 0.753947 0.093464 0.136100
O O14 0.823593 0.121045 0.000000
O O15 0.183027 0.500000 0.707709
O O16 0.077777 0.000000 0.500000
O O17 0.000000 0.000000 0.380610
#
# Coordination Sequence:
#
# PCOD9520841 Si02
#       7
#    16  16   8  16  16  16   8
#     4  10  20  34  54  75 103 142 180 222 265 307
#     4  12  19  38  55  76 106 137 176 218 258 314
#     4  11  24  40  56  80 113 140 167 215 270 316
#     4   9  17  34  51  71 104 140 179 221 263 304
#     4  10  20  32  53  75 101 142 179 212 255 311
#     4  11  20  33  49  75 112 144 180 219 258 307
#     4  11  24  40  54  74 104 138 172 222 274 313
#
# _framework density 16.240741
#
# number of rings (size 3 to 8) (size 9 to 14) (size 15 to 20)
#    0.000    1.500    5.000    3.500    1.167    1.667 
#    0.000    0.000    0.000    0.000    0.000    0.583 
#    0.000    2.000    0.000    0.000    0.000    0.000 
#
# Total GULP energy -267907.041133 kJ/mol
# GULP energy per Si atom -5581.396690 kJ/mol
# Density = 1.620378 g / cm^3
# Si number density = 16.240741 Si / 1000 Ang^3
#
#
#
# Elastic Constant Matrix: (Units=GPa)
#
#
# Indices 1 2 3 4 5 6 
#
# 1 58.6055 27.9225 33.5449 0.0000 0.0000 0.0000
# 2 27.9225 88.7913 44.4549 0.0000 0.0000 0.0000
# 3 33.5449 44.4549 136.1436 0.0000 0.0000 0.0000
# 4 0.0000 0.0000 0.0000 -8.9441 0.0000 0.0000
# 5 0.0000 0.0000 0.0000 0.0000 15.4807 0.0000
# 6 0.0000 0.0000 0.0000 0.0000 0.0000 11.3399
#
#
#
# Elastic Compliance Matrix: (Units=1/GPa)
#
#
# Indices 1 2 3 4 5 6 
#
# 1 0.021522 -0.004917 -0.003697 0.000000 0.000000 0.000000
# 2 -0.004917 0.014587 -0.003551 0.000000 0.000000 0.000000
# 3 -0.003697 -0.003551 0.009416 0.000000 0.000000 0.000000
# 4 0.000000 0.000000 0.000000 -0.111806 0.000000 0.000000
# 5 0.000000 0.000000 0.000000 0.000000 0.064597 0.000000
# 6 0.000000 0.000000 0.000000 0.000000 0.000000 0.088184
#
#
# Mechanical properties :
#
#
# Convention : Reuss Voigt Hill
#
# Bulk Modulus (GPa) = 47.18519 55.04278 51.11398
# Shear Modulus (GPa) = 42.41018 15.41650 28.91334
#
# Velocity S-wave (km/s) = 5.11568 3.08433 4.22393
# Velocity P-wave (km/s) = 8.00064 6.83004 7.43840
#
# Compressibility (1/GPa) = 0.02119309
#
# Stress axis : x y z
#
# Youngs Moduli (GPa) = 46.46345 68.55535 106.20373
#
# Poissons Ratio (x) = 0.33709 0.39268
# Poissons Ratio (y) = 0.22846 0.37718
# Poissons Ratio (z) = 0.17179 0.24347
#
# Static dielectric constant tensor:
#      x y z
#    x 1.532560 0.000000 0.000000 
#    y 0.000000 1.549320 0.000000 
#    z 0.000000 0.000000 1.573420 
# 
# From -- ./inp_files/40307.got.cif
#   From: 2010.05.17/outbox.cif.g08.bks.cpg/sg71_21_cif.got.tgz:40307.got - 2010.06.03 16:22:01.
