data_PCOD9520491
_publ_section_title
;
Structure prediction by ZEFSAII (Michael W. Deem and Ramdas Pophale) SiO2 
 PCOD9520491
Probable space group: I M M M
;
_chemical_formula_sum "Si O2"
_cell_formula_units_Z 42
_cell_length_a 9.803998
_cell_length_b 15.101234
_cell_length_c 14.758202
_cell_angle_alpha 90.000000
_cell_angle_beta 90.000000
_cell_angle_gamma 90.000000
_cell_volume 2184.988228
_symmetry_space_group_name_H-M "I M M M"
_symmetry_group_IT_number 71
_symmetry_cell_setting 'orthorhombic'
loop_
_space_group_symop_operation_xyz
x,y,z
-x,-y,z
x,-y,-z
-x,y,-z
-x,-y,-z
x,y,-z
-x,y,z
x,-y,z
1/2+x,1/2+y,1/2+z
1/2-x,1/2-y,1/2+z
1/2+x,1/2-y,1/2-z
1/2-x,1/2+y,1/2-z
1/2-x,1/2-y,1/2-z
1/2+x,1/2+y,1/2-z
1/2-x,1/2+y,1/2+z
1/2+x,1/2-y,1/2+z
loop_
_atom_site_type_symbol
_atom_site_label
_atom_site_fract_x
_atom_site_fract_y
_atom_site_fract_z
Si Si1 0.000000 0.000000 0.000000
Si Si2 0.500000 0.741448 0.900254
Si Si3 0.795858 0.900880 0.330935
Si Si4 0.000000 0.869406 0.170158
Si Si5 0.500000 0.832177 0.707980
O O1 0.000000 0.923466 0.079331
O O2 0.629506 0.675916 0.887644
O O3 0.500000 0.808595 0.815692
O O4 0.500000 0.782007 0.000000
O O5 0.870110 0.893329 0.233133
O O6 0.636972 0.882462 0.318655
O O7 0.820347 0.000000 0.366459
O O8 0.000000 0.763784 0.160031
#
# Coordination Sequence:
#
# PCOD9520491 Si02
#       5
#     2   8  16   8   8
#     4  12  20  36  64  86 112 140 208 234 264 336
#     4  10  20  37  60  83 106 150 196 236 263 340
#     4  10  19  38  59  81 114 150 189 225 289 335
#     4  10  19  37  56  85 107 154 185 230 272 337
#     4  10  21  39  57  84 119 149 181 231 302 336
#
# _framework density 19.222071
#
# number of rings (size 3 to 8) (size 9 to 14) (size 15 to 20)
#    0.000    2.286    1.905    6.857    0.000    1.524 
#   13.714    0.000    0.000    4.571    0.000    0.000 
#    0.000    0.000    0.000    0.000    0.000    0.000 
#
# Total GULP energy -116937.708395 kJ/mol
# GULP energy per Si atom -5568.462305 kJ/mol
# Density = 1.917832 g / cm^3
# Si number density = 19.222071 Si / 1000 Ang^3
#
#
#
# Elastic Constant Matrix: (Units=GPa)
#
#
# Indices 1 2 3 4 5 6 
#
# 1 140.4255 -4.2965 -7.4060 0.0000 0.0000 0.0000
# 2 -4.2965 41.4979 -8.1711 0.0000 0.0000 0.0000
# 3 -7.4060 -8.1711 89.3918 0.0000 0.0000 0.0000
# 4 0.0000 0.0000 0.0000 4.8908 0.0000 0.0000
# 5 0.0000 0.0000 0.0000 0.0000 -5.0698 0.0000
# 6 0.0000 0.0000 0.0000 0.0000 0.0000 -140.6628
#
#
#
# Elastic Compliance Matrix: (Units=1/GPa)
#
#
# Indices 1 2 3 4 5 6 
#
# 1 0.007184 0.000877 0.000675 0.000000 0.000000 0.000000
# 2 0.000877 0.024646 0.002326 0.000000 0.000000 0.000000
# 3 0.000675 0.002326 0.011455 0.000000 0.000000 0.000000
# 4 0.000000 0.000000 0.000000 0.204467 0.000000 0.000000
# 5 0.000000 0.000000 0.000000 0.000000 -0.197246 0.000000
# 6 0.000000 0.000000 0.000000 0.000000 0.000000 -0.007109
#
#
# Mechanical properties :
#
#
# Convention : Reuss Voigt Hill
#
# Bulk Modulus (GPa) = 19.59240 25.72978 22.66109
# Shear Modulus (GPa) = 94.95798 -8.75578 43.10110
#
# Velocity S-wave (km/s) = 7.03617 -2.13658 4.74040
# Velocity P-wave (km/s) = 8.73070 2.70703 6.46348
#
# Compressibility (1/GPa) = 0.05104021
#
# Stress axis : x y z
#
# Youngs Moduli (GPa) = 139.20492 40.57408 87.29643
#
# Poissons Ratio (x) = -0.03557 -0.05895
# Poissons Ratio (y) = -0.12205 -0.20301
# Poissons Ratio (z) = -0.09400 -0.09436
#
# Static dielectric constant tensor:
#      x y z
#    x 1.670890 0.000000 0.000000 
#    y 0.000000 1.677690 0.000000 
#    z 0.000000 0.000000 1.652510 
# 
# From -- ./inp_files/4553.got.cif
#   From: 2010.05.17/outbox.cif.g08.bks.cpg/sg71_3_cif.got.tgz:4553.got - 2010.06.03 16:22:01.
