data_PCOD9520438
_publ_section_title
;
Structure prediction by ZEFSAII (Michael W. Deem and Ramdas Pophale) SiO2 
 PCOD9520438
Probable space group: I M M M
;
_chemical_formula_sum "Si O2"
_cell_formula_units_Z 76
_cell_length_a 7.312126
_cell_length_b 25.997640
_cell_length_c 18.530802
_cell_angle_alpha 90.000000
_cell_angle_beta 90.000000
_cell_angle_gamma 90.000000
_cell_volume 3522.668758
_symmetry_space_group_name_H-M "I M M M"
_symmetry_group_IT_number 71
_symmetry_cell_setting 'orthorhombic'
loop_
_space_group_symop_operation_xyz
x,y,z
-x,-y,z
x,-y,-z
-x,y,-z
-x,-y,-z
x,y,-z
-x,y,z
x,-y,z
1/2+x,1/2+y,1/2+z
1/2-x,1/2-y,1/2+z
1/2+x,1/2-y,1/2-z
1/2-x,1/2+y,1/2-z
1/2-x,1/2-y,1/2-z
1/2+x,1/2+y,1/2-z
1/2-x,1/2+y,1/2+z
1/2+x,1/2-y,1/2+z
loop_
_atom_site_type_symbol
_atom_site_label
_atom_site_fract_x
_atom_site_fract_y
_atom_site_fract_z
Si Si1 0.778571 0.941011 0.157494
Si Si2 0.215982 0.323982 0.888056
Si Si3 0.500000 0.635074 0.000000
Si Si4 0.714713 0.562553 0.500000
Si Si5 0.209693 0.660531 0.727138
Si Si6 0.280381 0.205578 0.921785
O O1 0.710892 0.922214 0.078211
O O2 0.716794 0.900837 0.216970
O O3 0.000000 0.940967 0.155389
O O4 0.721388 0.000000 0.168520
O O5 0.282571 0.323896 0.804827
O O6 0.240902 0.266241 0.917845
O O7 0.000000 0.337177 0.889739
O O8 0.340043 0.360032 0.937059
O O9 0.727829 0.500000 0.500000
O O10 0.500000 0.574703 0.500000
O O11 0.293171 0.682037 0.652785
O O12 0.000000 0.678605 0.727676
O O13 0.500000 0.198881 0.922232
O O14 0.213595 0.185688 0.000000
#
# Coordination Sequence:
#
# PCOD9520438 Si02
#       6
#    16  16   4   8  16  16
#     4   9  18  33  53  76 108 152 198 242 288 340
#     4  11  22  39  60  87 116 153 196 238 294 349
#     4  12  22  40  66  82 115 154 191 244 288 356
#     4   7  12  26  46  69  99 139 188 233 269 316
#     4  10  23  35  53  85 119 151 191 242 291 342
#     4  10  19  36  56  80 118 160 196 235 284 338
#
# _framework density 21.574552000000001
#
# number of rings (size 3 to 8) (size 9 to 14) (size 15 to 20)
#    0.000    2.211    2.105    2.211    2.947    1.263 
#    0.000    0.000    0.000    1.895    0.000    1.474 
#    0.000    3.368    0.000    0.000    0.000    0.000 
#
# Total GULP energy -211661.700961 kJ/mol
# GULP energy per Si atom -5570.044762 kJ/mol
# Density = 2.152545 g / cm^3
# Si number density = 21.574552 Si / 1000 Ang^3
#
#
#
# Elastic Constant Matrix: (Units=GPa)
#
#
# Indices 1 2 3 4 5 6 
#
# 1 120.7472 -11.8438 28.3788 0.0000 0.0000 0.0000
# 2 -11.8438 36.0394 25.4979 0.0000 0.0000 0.0000
# 3 28.3788 25.4979 200.1615 0.0001 0.0001 0.0000
# 4 0.0000 0.0000 0.0001 -55.2764 0.0001 0.0000
# 5 0.0000 0.0000 0.0001 0.0001 111.5210 0.0000
# 6 0.0000 0.0000 0.0000 0.0000 0.0000 17.0031
#
#
#
# Elastic Compliance Matrix: (Units=1/GPa)
#
#
# Indices 1 2 3 4 5 6 
#
# 1 0.009138 0.004308 -0.001844 0.000000 0.000000 0.000000
# 2 0.004308 0.032527 -0.004754 0.000000 0.000000 0.000000
# 3 -0.001844 -0.004754 0.005863 0.000000 0.000000 0.000000
# 4 0.000000 0.000000 0.000000 -0.018091 0.000000 0.000000
# 5 0.000000 0.000000 0.000000 0.000000 0.008967 0.000000
# 6 0.000000 0.000000 0.000000 0.000000 0.000000 0.058813
#
#
# Mechanical properties :
#
#
# Convention : Reuss Voigt Hill
#
# Bulk Modulus (GPa) = 23.28497 49.00155 36.14326
# Shear Modulus (GPa) = 43.06141 35.64388 39.35265
#
# Velocity S-wave (km/s) = 4.47244 4.06904 4.27550
# Velocity P-wave (km/s) = 6.12262 6.69613 6.41579
#
# Compressibility (1/GPa) = 0.04294615
#
# Stress axis : x y z
#
# Youngs Moduli (GPa) = 109.43587 30.74394 170.55898
#
# Poissons Ratio (x) = -0.13244 0.31456
# Poissons Ratio (y) = -0.47143 0.81088
# Poissons Ratio (z) = 0.20183 0.14616
#
# Static dielectric constant tensor:
#      x y z
#    x 1.818420 0.000000 0.000000 
#    y 0.000000 1.775850 0.000000 
#    z 0.000000 0.000000 1.814840 
# 
# From -- ./inp_files/42399.got.cif
#   From: 2010.05.17/outbox.cif.g08.bks.cpg/sg71_22_cif.got.tgz:42399.got - 2010.06.03 16:22:01.
