data_PCOD9520314
_publ_section_title
;
Structure prediction by ZEFSAII (Michael W. Deem and Ramdas Pophale) SiO2 
 PCOD9520314
Probable space group: I M M M
;
_chemical_formula_sum "Si O2"
_cell_formula_units_Z 96
_cell_length_a 16.954858
_cell_length_b 11.935345
_cell_length_c 27.931222
_cell_angle_alpha 90.000000
_cell_angle_beta 90.000000
_cell_angle_gamma 90.000000
_cell_volume 5652.220171
_symmetry_space_group_name_H-M "I M M M"
_symmetry_group_IT_number 71
_symmetry_cell_setting 'orthorhombic'
loop_
_space_group_symop_operation_xyz
x,y,z
-x,-y,z
x,-y,-z
-x,y,-z
-x,-y,-z
x,y,-z
-x,y,z
x,-y,z
1/2+x,1/2+y,1/2+z
1/2-x,1/2-y,1/2+z
1/2+x,1/2-y,1/2-z
1/2-x,1/2+y,1/2-z
1/2-x,1/2-y,1/2-z
1/2+x,1/2+y,1/2-z
1/2-x,1/2+y,1/2+z
1/2+x,1/2-y,1/2+z
loop_
_atom_site_type_symbol
_atom_site_label
_atom_site_fract_x
_atom_site_fract_y
_atom_site_fract_z
Si Si1 0.410834 0.230690 0.000000
Si Si2 0.721160 0.279756 0.828244
Si Si3 0.323053 0.631244 0.399852
Si Si4 0.500000 0.870667 0.309842
Si Si5 0.089526 0.132723 0.598801
Si Si6 0.743648 0.369048 0.500000
Si Si7 0.163390 0.621780 0.754726
Si Si8 0.500000 0.368833 0.366917
O O1 0.402682 0.305069 0.047904
O O2 0.337580 0.146703 0.000000
O O3 0.500000 0.182660 0.000000
O O4 0.780330 0.200594 0.858235
O O5 0.656416 0.329025 0.864220
O O6 0.775347 0.365174 0.798522
O O7 0.678420 0.211347 0.786230
O O8 0.300247 0.500000 0.395599
O O9 0.293041 0.676876 0.450954
O O10 0.417610 0.636209 0.395429
O O11 0.422371 0.867806 0.277473
O O12 0.500000 0.750464 0.337897
O O13 0.500000 0.000000 0.332736
O O14 0.000000 0.156432 0.616671
O O15 0.095885 0.000000 0.591191
O O16 0.723480 0.500000 0.500000
O O17 0.173431 0.500000 0.732404
O O18 0.500000 0.500000 0.345285
#
# Coordination Sequence:
#
# PCOD9520314 Si02
#       8
#     8  16  16   8  16   8  16   8
#     4  10  19  35  57  80 112 147 178 224 271 331
#     4  11  20  35  58  77 110 142 187 229 280 329
#     4  10  20  35  57  83 113 142 182 231 278 331
#     4  10  20  38  57  81 115 151 187 234 291 347
#     4  10  21  36  55  81 110 144 186 232 277 328
#     4  10  20  35  55  84 115 144 178 224 275 331
#     4  10  22  36  54  80 110 145 184 229 285 339
#     4  10  20  37  60  88 112 148 193 235 288 341
#
# _framework density 16.984476000000001
#
# number of rings (size 3 to 8) (size 9 to 14) (size 15 to 20)
#    0.000    1.833    3.333    1.250    1.167    1.500 
#    0.000    2.500    0.000    0.000    0.000    0.583 
#    0.000    0.000    0.000    0.000    0.000    0.000 
#
# Total GULP energy -267232.728412 kJ/mol
# GULP energy per Si atom -5567.348509 kJ/mol
# Density = 1.694582 g / cm^3
# Si number density = 16.984476 Si / 1000 Ang^3
#
#
#
# Elastic Constant Matrix: (Units=GPa)
#
#
# Indices 1 2 3 4 5 6 
#
# 1 82.6510 7.7397 19.8878 0.0000 0.0000 0.0000
# 2 7.7397 51.9499 8.3944 0.0000 0.0000 0.0000
# 3 19.8878 8.3944 61.3275 0.0000 0.0000 0.0000
# 4 0.0000 0.0000 0.0000 15.1847 0.0000 0.0000
# 5 0.0000 0.0000 0.0000 0.0000 24.2516 0.0000
# 6 0.0000 0.0000 0.0000 0.0000 0.0000 42.3364
#
#
#
# Elastic Compliance Matrix: (Units=1/GPa)
#
#
# Indices 1 2 3 4 5 6 
#
# 1 0.013209 -0.001305 -0.004105 0.000000 0.000000 0.000000
# 2 -0.001305 0.019814 -0.002289 0.000000 0.000000 0.000000
# 3 -0.004105 -0.002289 0.017950 0.000000 0.000000 0.000000
# 4 0.000000 0.000000 0.000000 0.065856 0.000000 0.000000
# 5 0.000000 0.000000 0.000000 0.000000 0.041234 0.000000
# 6 0.000000 0.000000 0.000000 0.000000 0.000000 0.023620
#
#
# Mechanical properties :
#
#
# Convention : Reuss Voigt Hill
#
# Bulk Modulus (GPa) = 28.10897 29.77470 28.94184
# Shear Modulus (GPa) = 23.93042 27.01498 25.47270
#
# Velocity S-wave (km/s) = 3.75768 3.99252 3.87688
# Velocity P-wave (km/s) = 5.95085 6.23075 6.09241
#
# Compressibility (1/GPa) = 0.03557583
#
# Stress axis : x y z
#
# Youngs Moduli (GPa) = 75.70603 50.47052 55.70909
#
# Poissons Ratio (x) = 0.06584 0.22868
# Poissons Ratio (y) = 0.09877 0.12752
# Poissons Ratio (z) = 0.31077 0.11553
#
# Static dielectric constant tensor:
#      x y z
#    x 1.561940 0.000000 0.000000 
#    y 0.000000 1.584820 0.000000 
#    z 0.000000 0.000000 1.558010 
# 
# From -- ./inp_files/69929.got.cif
#   From: 2010.05.17/outbox.cif.g08.bks.cpg/sg71_35_cif.got.tgz:69929.got - 2010.06.03 16:22:01.
