data_PCOD9520762
_publ_section_title
;
Structure prediction by ZEFSAII (Michael W. Deem and Ramdas Pophale) SiO2 
 PCOD9520762
Probable space group: I M M M
;
_chemical_formula_sum "Si O2"
_cell_formula_units_Z 80
_cell_length_a 21.732827
_cell_length_b 14.039496
_cell_length_c 13.477752
_cell_angle_alpha 90.000000
_cell_angle_beta 90.000000
_cell_angle_gamma 90.000000
_cell_volume 4112.303896
_symmetry_space_group_name_H-M "I M M M"
_symmetry_group_IT_number 71
_symmetry_cell_setting 'orthorhombic'
loop_
_space_group_symop_operation_xyz
x,y,z
-x,-y,z
x,-y,-z
-x,y,-z
-x,-y,-z
x,y,-z
-x,y,z
x,-y,z
1/2+x,1/2+y,1/2+z
1/2-x,1/2-y,1/2+z
1/2+x,1/2-y,1/2-z
1/2-x,1/2+y,1/2-z
1/2-x,1/2-y,1/2-z
1/2+x,1/2+y,1/2-z
1/2-x,1/2+y,1/2+z
1/2+x,1/2-y,1/2+z
loop_
_atom_site_type_symbol
_atom_site_label
_atom_site_fract_x
_atom_site_fract_y
_atom_site_fract_z
Si Si1 0.251687 0.611273 0.814719
Si Si2 0.573698 0.895552 0.611310
Si Si3 0.931054 0.800758 0.190214
Si Si4 0.199842 0.807363 0.886573
Si Si5 0.891272 0.887615 0.609870
O O1 0.234382 0.500000 0.826644
O O2 0.209993 0.694366 0.862441
O O3 0.261704 0.637822 0.698584
O O4 0.318740 0.622769 0.865891
O O5 0.595601 0.868406 0.500000
O O6 0.500000 0.903578 0.602937
O O7 0.581254 0.812211 0.689053
O O8 0.597701 0.000000 0.636505
O O9 0.871681 0.837500 0.129957
O O10 0.926841 0.839324 0.300747
O O11 0.000000 0.818196 0.149153
O O12 0.217793 0.825454 0.000000
O O13 0.904737 0.850580 0.500000
O O14 0.904850 0.000000 0.611626
#
# Coordination Sequence:
#
# PCOD9520762 Si02
#       5
#    16  16  16  16  16
#     4   9  19  36  56  79 106 133 168 219 269 308
#     4   8  14  26  44  64  89 126 167 200 234 283
#     4  10  20  32  48  75 111 143 172 211 255 302
#     4  10  20  33  53  81 108 137 174 211 254 313
#     4   9  18  34  56  78 100 132 176 223 267 308
#
# _framework density 19.453816
#
# number of rings (size 3 to 8) (size 9 to 14) (size 15 to 20)
#    0.000    2.800    0.000    1.800    0.000    4.400 
#    0.000    1.000    0.000    2.400    0.000   14.000 
#    0.000    0.000    0.000    0.000    0.000    0.000 
#
# Total GULP energy -222829.596483 kJ/mol
# GULP energy per Si atom -5570.739912 kJ/mol
# Density = 1.940954 g / cm^3
# Si number density = 19.453816 Si / 1000 Ang^3
#
#
#
# Elastic Constant Matrix: (Units=GPa)
#
#
# Indices 1 2 3 4 5 6 
#
# 1 67.7863 3.0239 -7.1769 0.0000 0.0000 0.0000
# 2 3.0239 42.0532 15.5959 0.0000 0.0000 0.0000
# 3 -7.1769 15.5959 87.7910 0.0000 0.0000 0.0000
# 4 0.0000 0.0000 0.0000 27.6191 0.0000 0.0000
# 5 0.0000 0.0000 0.0000 0.0000 9.5786 0.0000
# 6 0.0000 0.0000 0.0000 0.0000 0.0000 19.6071
#
#
#
# Elastic Compliance Matrix: (Units=1/GPa)
#
#
# Indices 1 2 3 4 5 6 
#
# 1 0.014986 -0.001640 0.001516 0.000000 0.000000 0.000000
# 2 -0.001640 0.025636 -0.004688 0.000000 0.000000 0.000000
# 3 0.001516 -0.004688 0.012348 0.000000 0.000000 0.000000
# 4 0.000000 0.000000 0.000000 0.036207 0.000000 0.000000
# 5 0.000000 0.000000 0.000000 0.000000 0.104400 0.000000
# 6 0.000000 0.000000 0.000000 0.000000 0.000000 0.051002
#
#
# Mechanical properties :
#
#
# Convention : Reuss Voigt Hill
#
# Bulk Modulus (GPa) = 23.07022 24.50181 23.78601
# Shear Modulus (GPa) = 18.61156 23.77347 21.19251
#
# Velocity S-wave (km/s) = 3.09642 3.49957 3.30415
# Velocity P-wave (km/s) = 4.96674 5.38066 5.17784
#
# Compressibility (1/GPa) = 0.04334592
#
# Stress axis : x y z
#
# Youngs Moduli (GPa) = 66.72913 39.00764 80.98801
#
# Poissons Ratio (x) = 0.06397 -0.12281
# Poissons Ratio (y) = 0.10943 0.37969
# Poissons Ratio (z) = -0.10119 0.18288
#
# Static dielectric constant tensor:
#      x y z
#    x 1.768090 0.000000 0.000000 
#    y 0.000000 1.699140 0.000000 
#    z 0.000000 0.000000 1.669100 
# 
# From -- ./inp_files/27090.got.cif
#   From: 2010.05.17/outbox.cif.g08.bks.cpg/sg71_14_cif.got.tgz:27090.got - 2010.06.03 16:22:01.
