data_PCOD9520034
_publ_section_title
;
Structure prediction by ZEFSAII (Michael W. Deem and Ramdas Pophale) SiO2 
 PCOD9520034
Probable space group: I M M M
;
_chemical_formula_sum "Si O2"
_cell_formula_units_Z 88
_cell_length_a 30.331929
_cell_length_b 8.608310
_cell_length_c 19.342765
_cell_angle_alpha 90.000000
_cell_angle_beta 90.000000
_cell_angle_gamma 90.000000
_cell_volume 5050.524527
_symmetry_space_group_name_H-M "I M M M"
_symmetry_group_IT_number 71
_symmetry_cell_setting 'orthorhombic'
loop_
_space_group_symop_operation_xyz
x,y,z
-x,-y,z
x,-y,-z
-x,y,-z
-x,-y,-z
x,y,-z
-x,y,z
x,-y,z
1/2+x,1/2+y,1/2+z
1/2-x,1/2-y,1/2+z
1/2+x,1/2-y,1/2-z
1/2-x,1/2+y,1/2-z
1/2-x,1/2-y,1/2-z
1/2+x,1/2+y,1/2-z
1/2-x,1/2+y,1/2+z
1/2+x,1/2-y,1/2+z
loop_
_atom_site_type_symbol
_atom_site_label
_atom_site_fract_x
_atom_site_fract_y
_atom_site_fract_z
Si Si1 0.759081 0.184348 0.854265
Si Si2 0.153029 0.179127 0.500000
Si Si3 0.760352 0.679552 0.000000
Si Si4 0.094659 0.313013 0.079327
Si Si5 0.340161 0.312887 0.149819
Si Si6 0.154946 0.313973 0.793105
Si Si7 0.500000 0.323894 0.583383
O O1 0.774479 0.233086 0.931219
O O2 0.710501 0.255784 0.847451
O O3 0.795051 0.257000 0.803838
O O4 0.756961 0.000000 0.846153
O O5 0.206745 0.177782 0.500000
O O6 0.141052 0.245304 0.575510
O O7 0.138106 0.000000 0.500000
O O8 0.775485 0.500000 0.000000
O O9 0.096801 0.500000 0.077248
O O10 0.127600 0.259797 0.139656
O O11 0.045360 0.262320 0.100401
O O12 0.103709 0.258039 0.000000
O O13 0.340325 0.500000 0.148811
O O14 0.361911 0.251767 0.220015
O O15 0.154277 0.500000 0.790783
O O16 0.500000 0.500000 0.610202
O O17 0.500000 0.330790 0.500000
#
# Coordination Sequence:
#
# PCOD9520034 Si02
#       7
#    16   8   8  16  16  16   8
#     4  11  21  32  46  66  91 125 166 207 249 293
#     4   7  14  29  49  65  79 110 153 194 237 287
#     4   9  17  31  47  63  85 116 157 200 243 289
#     4   9  19  35  53  72  96 132 168 197 236 291
#     4  10  19  34  51  67  90 124 164 207 253 296
#     4  11  22  33  47  69  97 127 162 204 247 290
#     4   9  17  31  53  77  99 124 155 198 243 285
#
# _framework density 17.423932000000001
#
# number of rings (size 3 to 8) (size 9 to 14) (size 15 to 20)
#    0.000    2.273    0.000    4.909    1.273    2.545 
#    0.000    1.364    0.000    0.000    0.000    0.000 
#    0.000    0.727    0.000    8.182    0.000    3.636 
#
# Total GULP energy -245281.991354 kJ/mol
# GULP energy per Si atom -5574.590713 kJ/mol
# Density = 1.738427 g / cm^3
# Si number density = 17.423932 Si / 1000 Ang^3
#
#
#
# Elastic Constant Matrix: (Units=GPa)
#
#
# Indices 1 2 3 4 5 6 
#
# 1 38.1232 5.8550 25.6365 0.0000 0.0000 0.0000
# 2 5.8550 50.9125 25.9728 0.0000 0.0000 0.0000
# 3 25.6365 25.9728 147.1442 0.0000 0.0000 0.0000
# 4 0.0000 0.0000 0.0000 28.0302 0.0000 0.0000
# 5 0.0000 0.0000 0.0000 0.0000 13.4951 0.0000
# 6 0.0000 0.0000 0.0000 0.0000 0.0000 10.6121
#
#
#
# Elastic Compliance Matrix: (Units=1/GPa)
#
#
# Indices 1 2 3 4 5 6 
#
# 1 0.029746 -0.000854 -0.005032 0.000000 0.000000 0.000000
# 2 -0.000854 0.021610 -0.003666 0.000000 0.000000 0.000000
# 3 -0.005032 -0.003666 0.008320 0.000000 0.000000 0.000000
# 4 0.000000 0.000000 0.000000 0.035676 0.000000 0.000000
# 5 0.000000 0.000000 0.000000 0.000000 0.074101 0.000000
# 6 0.000000 0.000000 0.000000 0.000000 0.000000 0.094232
#
#
# Mechanical properties :
#
#
# Convention : Reuss Voigt Hill
#
# Bulk Modulus (GPa) = 24.64718 39.01205 31.82962
# Shear Modulus (GPa) = 16.87422 22.34188 19.60805
#
# Velocity S-wave (km/s) = 3.11537 3.58474 3.35827
# Velocity P-wave (km/s) = 5.20740 6.29066 5.77449
#
# Compressibility (1/GPa) = 0.04057259
#
# Stress axis : x y z
#
# Youngs Moduli (GPa) = 33.61850 46.27547 120.19589
#
# Poissons Ratio (x) = 0.03951 0.60480
# Poissons Ratio (y) = 0.02870 0.44059
# Poissons Ratio (z) = 0.16916 0.16963
#
# Static dielectric constant tensor:
#      x y z
#    x 1.570360 0.000000 0.000000 
#    y 0.000000 1.589450 0.000000 
#    z 0.000000 0.000000 2.377930 
# 
# From -- ./inp_files/16733.got.cif
#   From: 2010.05.17/outbox.cif.g08.bks.cpg/sg71_9_cif.got.tgz:16733.got - 2010.06.03 16:22:01.
