data_PCOD9520791
_publ_section_title
;
Structure prediction by ZEFSAII (Michael W. Deem and Ramdas Pophale) SiO2 
 PCOD9520791
Probable space group: I M M M
;
_chemical_formula_sum "Si O2"
_cell_formula_units_Z 104
_cell_length_a 8.412443
_cell_length_b 32.953573
_cell_length_c 21.412257
_cell_angle_alpha 90.000000
_cell_angle_beta 90.000000
_cell_angle_gamma 90.000000
_cell_volume 5935.907053
_symmetry_space_group_name_H-M "I M M M"
_symmetry_group_IT_number 71
_symmetry_cell_setting 'orthorhombic'
loop_
_space_group_symop_operation_xyz
x,y,z
-x,-y,z
x,-y,-z
-x,y,-z
-x,-y,-z
x,y,-z
-x,y,z
x,-y,z
1/2+x,1/2+y,1/2+z
1/2-x,1/2-y,1/2+z
1/2+x,1/2-y,1/2-z
1/2-x,1/2+y,1/2-z
1/2-x,1/2-y,1/2-z
1/2+x,1/2+y,1/2-z
1/2-x,1/2+y,1/2+z
1/2+x,1/2-y,1/2+z
loop_
_atom_site_type_symbol
_atom_site_label
_atom_site_fract_x
_atom_site_fract_y
_atom_site_fract_z
Si Si1 0.306425 0.000000 0.931135
Si Si2 0.191919 0.691056 0.070449
Si Si3 0.189149 0.955427 0.301956
Si Si4 0.191124 0.564974 0.332705
Si Si5 0.189779 0.135838 0.682450
Si Si6 0.688831 0.157725 0.818212
Si Si7 0.808402 0.214732 0.929356
O O1 0.260738 0.960705 0.892202
O O2 0.500000 0.000000 0.933899
O O3 0.241616 0.000000 0.000000
O O4 0.260415 0.662418 0.123539
O O5 0.239719 0.738154 0.079025
O O6 0.000000 0.689749 0.073721
O O7 0.238942 0.678863 0.000000
O O8 0.223178 0.952258 0.228184
O O9 0.251155 0.911046 0.324304
O O10 0.000000 0.955820 0.313522
O O11 0.251527 0.000000 0.323587
O O12 0.226797 0.612120 0.340695
O O13 0.000000 0.560721 0.323001
O O14 0.248466 0.156961 0.746790
O O15 0.000000 0.133508 0.686710
O O16 0.500000 0.162800 0.814929
O O17 0.752539 0.188631 0.870204
O O18 0.000000 0.213566 0.930137
O O19 0.755056 0.201917 0.000000
#
# Coordination Sequence:
#
# PCOD9520791 Si02
#       7
#     8  16  16  16  16  16  16
#     4   9  16  26  41  61  87 121 160 201 244 287
#     4   9  19  37  58  77 100 131 166 206 253 306
#     4   9  17  30  49  71  97 128 159 197 243 291
#     4   9  17  29  45  65  90 124 164 204 245 289
#     4  10  20  33  52  79 106 133 168 208 253 302
#     4  10  20  32  49  75 104 133 170 215 256 297
#     4   9  19  36  55  73  97 134 174 209 254 308
#
# _framework density 17.520489000000001
#
# number of rings (size 3 to 8) (size 9 to 14) (size 15 to 20)
#    0.000    2.692    0.769    1.846    0.000    3.692 
#    0.000    3.077    0.000    1.385    0.000    3.231 
#    0.000    0.000    0.000    0.000    0.000    0.000 
#
# Total GULP energy -289556.327885 kJ/mol
# GULP energy per Si atom -5568.390921 kJ/mol
# Density = 1.748061 g / cm^3
# Si number density = 17.520489 Si / 1000 Ang^3
#
#
#
# Elastic Constant Matrix: (Units=GPa)
#
#
# Indices 1 2 3 4 5 6 
#
# 1 11.5140 27.8295 26.5950 0.0000 0.0000 0.0000
# 2 27.8295 118.7876 94.2442 0.0000 0.0000 0.0000
# 3 26.5950 94.2442 135.7412 0.0000 0.0000 0.0000
# 4 0.0000 0.0000 0.0000 29.0533 0.0000 0.0000
# 5 0.0000 0.0000 0.0000 0.0000 26.1327 0.0000
# 6 0.0000 0.0000 0.0000 0.0000 0.0000 14.8031
#
#
#
# Elastic Compliance Matrix: (Units=1/GPa)
#
#
# Indices 1 2 3 4 5 6 
#
# 1 0.214607 -0.037668 -0.015894 0.000000 0.000000 0.000000
# 2 -0.037668 0.025354 -0.010223 0.000000 0.000000 0.000000
# 3 -0.015894 -0.010223 0.017579 0.000000 0.000000 0.000000
# 4 0.000000 0.000000 0.000000 0.034420 0.000000 0.000000
# 5 0.000000 0.000000 0.000000 0.000000 0.038266 0.000000
# 6 0.000000 0.000000 0.000000 0.000000 0.000000 0.067553
#
#
# Mechanical properties :
#
#
# Convention : Reuss Voigt Hill
#
# Bulk Modulus (GPa) = 7.69410 62.59782 35.14596
# Shear Modulus (GPa) = 8.79241 21.82275 15.30758
#
# Velocity S-wave (km/s) = 2.24260 3.53307 2.95904
# Velocity P-wave (km/s) = 3.33267 7.24219 5.63720
#
# Compressibility (1/GPa) = 0.12996968
#
# Stress axis : x y z
#
# Youngs Moduli (GPa) = 4.65968 39.44155 56.88652
#
# Poissons Ratio (x) = 1.48567 0.90418
# Poissons Ratio (y) = 0.17552 0.58155
# Poissons Ratio (z) = 0.07406 0.40321
#
# Static dielectric constant tensor:
#      x y z
#    x 1.605900 0.000000 0.000000 
#    y 0.000000 1.648670 0.000000 
#    z 0.000000 0.000000 1.572450 
# 
# From -- ./inp_files/15314.got.cif
#   From: 2010.05.17/outbox.cif.g08.bks.cpg/sg71_8_cif.got.tgz:15314.got - 2010.06.03 16:22:01.
