data_PCOD9520044
_publ_section_title
;
Structure prediction by ZEFSAII (Michael W. Deem and Ramdas Pophale) SiO2 
 PCOD9520044
Probable space group: I M M M
;
_chemical_formula_sum "Si O2"
_cell_formula_units_Z 72
_cell_length_a 18.048831
_cell_length_b 12.294709
_cell_length_c 18.315914
_cell_angle_alpha 90.000000
_cell_angle_beta 90.000000
_cell_angle_gamma 90.000000
_cell_volume 4064.395184
_symmetry_space_group_name_H-M "I M M M"
_symmetry_group_IT_number 71
_symmetry_cell_setting 'orthorhombic'
loop_
_space_group_symop_operation_xyz
x,y,z
-x,-y,z
x,-y,-z
-x,y,-z
-x,-y,-z
x,y,-z
-x,y,z
x,-y,z
1/2+x,1/2+y,1/2+z
1/2-x,1/2-y,1/2+z
1/2+x,1/2-y,1/2-z
1/2-x,1/2+y,1/2-z
1/2-x,1/2-y,1/2-z
1/2+x,1/2+y,1/2-z
1/2-x,1/2+y,1/2+z
1/2+x,1/2-y,1/2+z
loop_
_atom_site_type_symbol
_atom_site_label
_atom_site_fract_x
_atom_site_fract_y
_atom_site_fract_z
Si Si1 0.500000 0.366581 0.584464
Si Si2 0.414003 0.000000 0.911693
Si Si3 0.500000 0.369912 0.918178
Si Si4 0.846391 0.130157 0.660627
Si Si5 0.712184 0.170985 0.913161
Si Si6 0.641393 0.374997 0.325359
O O1 0.500000 0.500000 0.582615
O O2 0.500000 0.331702 0.500000
O O3 0.426963 0.329042 0.628131
O O4 0.362225 0.103721 0.891630
O O5 0.500000 0.000000 0.885345
O O6 0.418386 0.000000 0.000000
O O7 0.500000 0.500000 0.926895
O O8 0.427210 0.346104 0.872543
O O9 0.500000 0.320304 0.000000
O O10 0.793945 0.204025 0.611337
O O11 0.844215 0.169801 0.744425
O O12 0.832012 0.000000 0.656170
O O13 0.784280 0.126374 0.872550
O O14 0.720159 0.160086 0.000000
O O15 0.619687 0.500000 0.310429
#
# Coordination Sequence:
#
# PCOD9520044 Si02
#       6
#     8   8   8  16  16  16
#     4   9  17  29  51  77 103 132 169 216 268 318
#     4   9  20  36  52  75 105 139 176 214 258 310
#     4   9  17  31  49  72 103 134 172 212 253 306
#     4  10  21  34  51  76 106 142 175 217 267 320
#     4  11  21  34  55  77 105 140 179 223 264 312
#     4  10  19  34  52  76 107 138 173 219 270 320
#
# _framework density 17.714812999999999
#
# number of rings (size 3 to 8) (size 9 to 14) (size 15 to 20)
#    0.000    2.111    1.111    2.667    1.556    4.889 
#    0.000    0.000    0.000    0.000    0.000    0.778 
#    0.000    2.667    0.000    0.000    0.000    0.000 
#
# Total GULP energy -200550.118642 kJ/mol
# GULP energy per Si atom -5570.836629 kJ/mol
# Density = 1.767449 g / cm^3
# Si number density = 17.714813 Si / 1000 Ang^3
#
#
#
# Elastic Constant Matrix: (Units=GPa)
#
#
# Indices 1 2 3 4 5 6 
#
# 1 97.1453 11.7189 36.3410 0.0000 0.0000 0.0000
# 2 11.7189 50.2538 13.3283 0.0000 0.0000 0.0000
# 3 36.3410 13.3283 108.7487 0.0000 0.0000 0.0000
# 4 0.0000 0.0000 0.0000 17.3048 0.0000 0.0000
# 5 0.0000 0.0000 0.0000 0.0000 -65.0313 0.0000
# 6 0.0000 0.0000 0.0000 0.0000 0.0000 0.1135
#
#
#
# Elastic Compliance Matrix: (Units=1/GPa)
#
#
# Indices 1 2 3 4 5 6 
#
# 1 0.011917 -0.001781 -0.003764 0.000000 0.000000 0.000000
# 2 -0.001781 0.020834 -0.001958 0.000000 0.000000 0.000000
# 3 -0.003764 -0.001958 0.010693 0.000000 0.000000 0.000000
# 4 0.000000 0.000000 0.000000 0.057787 0.000000 0.000000
# 5 0.000000 0.000000 0.000000 0.000000 -0.015377 0.000000
# 6 0.000000 0.000000 0.000000 0.000000 0.000000 8.811472
#
#
# Mechanical properties :
#
#
# Convention : Reuss Voigt Hill
#
# Bulk Modulus (GPa) = 35.16451 42.10268 38.63359
# Shear Modulus (GPa) = 0.56042 3.46137 2.01090
#
# Velocity S-wave (km/s) = 0.56307 1.39935 1.06659
# Velocity P-wave (km/s) = 4.50735 5.14096 4.83454
#
# Compressibility (1/GPa) = 0.02843776
#
# Stress axis : x y z
#
# Youngs Moduli (GPa) = 83.91557 47.99932 93.51590
#
# Poissons Ratio (x) = 0.08547 0.35200
# Poissons Ratio (y) = 0.14942 0.18314
# Poissons Ratio (z) = 0.31586 0.09400
#
# Static dielectric constant tensor:
#      x y z
#    x 1.618640 0.000000 0.000000 
#    y 0.000000 1.649510 0.000000 
#    z 0.000000 0.000000 1.612390 
# 
# From -- ./inp_files/23543.got.cif
#   From: 2010.05.17/outbox.cif.g08.bks.cpg/sg71_12_cif.got.tgz:23543.got - 2010.06.03 16:22:01.
