data_PCOD9520540
_publ_section_title
;
Structure prediction by ZEFSAII (Michael W. Deem and Ramdas Pophale) SiO2 
 PCOD9520540
Probable space group: I M M M
;
_chemical_formula_sum "Si O2"
_cell_formula_units_Z 88
_cell_length_a 17.113316
_cell_length_b 13.175895
_cell_length_c 26.104167
_cell_angle_alpha 90.000000
_cell_angle_beta 90.000000
_cell_angle_gamma 90.000000
_cell_volume 5886.052537
_symmetry_space_group_name_H-M "I M M M"
_symmetry_group_IT_number 71
_symmetry_cell_setting 'orthorhombic'
loop_
_space_group_symop_operation_xyz
x,y,z
-x,-y,z
x,-y,-z
-x,y,-z
-x,-y,-z
x,y,-z
-x,y,z
x,-y,z
1/2+x,1/2+y,1/2+z
1/2-x,1/2-y,1/2+z
1/2+x,1/2-y,1/2-z
1/2-x,1/2+y,1/2-z
1/2-x,1/2-y,1/2-z
1/2+x,1/2+y,1/2-z
1/2-x,1/2+y,1/2+z
1/2+x,1/2-y,1/2+z
loop_
_atom_site_type_symbol
_atom_site_label
_atom_site_fract_x
_atom_site_fract_y
_atom_site_fract_z
Si Si1 0.146307 0.248263 0.404740
Si Si2 0.588744 0.877090 0.694203
Si Si3 0.094053 0.380541 0.688739
Si Si4 0.588764 0.122550 0.500000
Si Si5 0.694308 0.876910 0.597990
Si Si6 0.000000 0.880577 0.561655
Si Si7 0.905387 0.620055 0.500000
O O1 0.135960 0.309274 0.351989
O O2 0.226241 0.185695 0.407407
O O3 0.133064 0.328486 0.450506
O O4 0.075645 0.169832 0.413399
O O5 0.500000 0.841610 0.683086
O O6 0.609944 0.849347 0.752440
O O7 0.649800 0.848888 0.650518
O O8 0.585537 0.000000 0.693830
O O9 0.114226 0.500000 0.682234
O O10 0.000000 0.373218 0.681033
O O11 0.500000 0.161977 0.500000
O O12 0.637192 0.148783 0.449283
O O13 0.583639 0.000000 0.500000
O O14 0.707793 0.000000 0.597317
O O15 0.000000 0.863298 0.500000
O O16 0.000000 0.000000 0.569774
O O17 0.893489 0.500000 0.500000
O O18 0.000000 0.636626 0.500000
#
# Coordination Sequence:
#
# PCOD9520540 Si02
#       7
#    16  16  16   8  16   8   8
#     4  12  19  32  46  69  97 126 162 193 233 280
#     4   8  15  30  49  69  94 124 155 195 247 288
#     4   9  17  30  50  70  91 122 162 205 243 280
#     4   9  17  30  48  67  89 121 152 186 232 279
#     4  10  20  30  45  70 101 128 154 189 231 285
#     4  11  22  34  46  62  94 140 170 185 216 281
#     4  11  21  34  50  68  90 118 157 204 244 273
#
# _framework density 14.950596000000001
#
# number of rings (size 3 to 8) (size 9 to 14) (size 15 to 20)
#    0.000    2.091    2.727    3.273    0.000    4.364 
#    0.000    0.000    0.000    0.000    0.000    0.000 
#    0.000   26.909    0.000    0.000    0.000    0.000 
#
# Total GULP energy -245256.612941 kJ/mol
# GULP energy per Si atom -5574.013930 kJ/mol
# Density = 1.491657 g / cm^3
# Si number density = 14.950596 Si / 1000 Ang^3
#
#
#
# Elastic Constant Matrix: (Units=GPa)
#
#
# Indices 1 2 3 4 5 6 
#
# 1 134.2452 55.2002 84.4071 0.0000 0.0000 0.0000
# 2 55.2002 79.8002 50.8210 0.0000 0.0000 0.0000
# 3 84.4071 50.8210 120.6957 0.0000 0.0000 0.0000
# 4 0.0000 0.0000 0.0000 6.3621 0.0000 0.0000
# 5 0.0000 0.0000 0.0000 0.0000 100.5698 0.0000
# 6 0.0000 0.0000 0.0000 0.0000 0.0000 5.4877
#
#
#
# Elastic Compliance Matrix: (Units=1/GPa)
#
#
# Indices 1 2 3 4 5 6 
#
# 1 0.014578 -0.004907 -0.008128 0.000000 0.000000 0.000000
# 2 -0.004907 0.018775 -0.004474 0.000000 0.000000 0.000000
# 3 -0.008128 -0.004474 0.015854 0.000000 0.000000 0.000000
# 4 0.000000 0.000000 0.000000 0.157180 0.000000 0.000000
# 5 0.000000 0.000000 0.000000 0.000000 0.009943 0.000000
# 6 0.000000 0.000000 0.000000 0.000000 0.000000 0.182226
#
#
# Mechanical properties :
#
#
# Convention : Reuss Voigt Hill
#
# Bulk Modulus (GPa) = 70.48506 79.51084 74.99795
# Shear Modulus (GPa) = 11.40763 32.10477 21.75620
#
# Velocity S-wave (km/s) = 2.76528 4.63902 3.81885
# Velocity P-wave (km/s) = 7.57914 9.05494 8.34971
#
# Compressibility (1/GPa) = 0.01418740
#
# Stress axis : x y z
#
# Youngs Moduli (GPa) = 68.59845 53.26286 63.07736
#
# Poissons Ratio (x) = 0.26137 0.51272
# Poissons Ratio (y) = 0.33662 0.28219
# Poissons Ratio (z) = 0.55760 0.23828
#
# Static dielectric constant tensor:
#      x y z
#    x 1.482140 0.000000 0.000000 
#    y 0.000000 1.471200 0.000000 
#    z 0.000000 0.000000 1.509570 
# 
# From -- ./inp_files/59799.got.cif
#   From: 2010.05.17/outbox.cif.g08.bks.cpg/sg71_30_cif.got.tgz:59799.got - 2010.06.03 16:22:01.
