data_PCOD9520591
_publ_section_title
;
Structure prediction by ZEFSAII (Michael W. Deem and Ramdas Pophale) SiO2 
 PCOD9520591
Probable space group: I M M M
;
_chemical_formula_sum "Si O2"
_cell_formula_units_Z 88
_cell_length_a 26.339150
_cell_length_b 21.496106
_cell_length_c 7.582512
_cell_angle_alpha 90.000000
_cell_angle_beta 90.000000
_cell_angle_gamma 90.000000
_cell_volume 4293.136103
_symmetry_space_group_name_H-M "I M M M"
_symmetry_group_IT_number 71
_symmetry_cell_setting 'orthorhombic'
loop_
_space_group_symop_operation_xyz
x,y,z
-x,-y,z
x,-y,-z
-x,y,-z
-x,-y,-z
x,y,-z
-x,y,z
x,-y,z
1/2+x,1/2+y,1/2+z
1/2-x,1/2-y,1/2+z
1/2+x,1/2-y,1/2-z
1/2-x,1/2+y,1/2-z
1/2-x,1/2-y,1/2-z
1/2+x,1/2+y,1/2-z
1/2-x,1/2+y,1/2+z
1/2+x,1/2-y,1/2+z
loop_
_atom_site_type_symbol
_atom_site_label
_atom_site_fract_x
_atom_site_fract_y
_atom_site_fract_z
Si Si1 0.786856 0.000000 0.298163
Si Si2 0.723945 0.634625 0.216054
Si Si3 0.842987 0.365643 0.294637
Si Si4 0.057944 0.135821 0.792211
Si Si5 0.942264 0.000000 0.709586
Si Si6 0.168007 0.500000 0.716940
Si Si7 0.857242 0.767769 0.293954
O O1 0.798725 0.067967 0.222448
O O2 0.805727 0.000000 0.500000
O O3 0.725258 0.000000 0.291581
O O4 0.781752 0.639854 0.278956
O O5 0.689415 0.691541 0.279018
O O6 0.724471 0.633174 0.000000
O O7 0.857820 0.367972 0.500000
O O8 0.856019 0.434506 0.224686
O O9 0.863638 0.301178 0.216352
O O10 0.093615 0.188849 0.716193
O O11 0.000000 0.136830 0.721156
O O12 0.079784 0.066392 0.762548
O O13 0.055597 0.146043 0.000000
O O14 0.944456 0.000000 0.500000
O O15 0.000000 0.000000 0.783761
O O16 0.171956 0.500000 0.500000
O O17 0.844863 0.758442 0.500000
#
# Coordination Sequence:
#
# PCOD9520591 Si02
#       7
#     8  16  16  16   8   8  16
#     4   8  14  25  39  56  82 117 152 184 218 259
#     4   9  17  28  42  62  90 122 155 191 230 275
#     4   9  17  29  45  66  92 122 157 194 233 281
#     4  10  21  36  52  71  95 122 155 195 235 276
#     4   9  17  32  55  76  94 122 157 192 231 272
#     4   8  14  26  43  61  85 118 152 189 230 270
#     4  10  20  31  45  68  94 122 157 194 236 285
#
# _framework density 20.497838000000002
#
# number of rings (size 3 to 8) (size 9 to 14) (size 15 to 20)
#    0.000    2.818    0.000    1.364    0.000    4.364 
#    0.000    1.818    0.000    2.182    0.000    0.636 
#    0.000    5.091    0.000    0.000    0.000    0.000 
#
# Total GULP energy -245236.435123 kJ/mol
# GULP energy per Si atom -5573.555344 kJ/mol
# Density = 2.045118 g / cm^3
# Si number density = 20.497838 Si / 1000 Ang^3
#
#
#
# Elastic Constant Matrix: (Units=GPa)
#
#
# Indices 1 2 3 4 5 6 
#
# 1 34.5783 29.7119 -14.3975 0.0000 0.0000 0.0000
# 2 29.7119 225.8304 -3.6035 0.0000 0.0000 0.0000
# 3 -14.3975 -3.6035 50.9085 0.0000 0.0000 0.0000
# 4 0.0000 0.0000 0.0000 5.8216 0.0000 0.0000
# 5 0.0000 0.0000 0.0000 0.0000 13.9734 0.0000
# 6 0.0000 0.0000 0.0000 0.0000 0.0000 38.0665
#
#
#
# Elastic Compliance Matrix: (Units=1/GPa)
#
#
# Indices 1 2 3 4 5 6 
#
# 1 0.037234 -0.004736 0.010195 0.000000 0.000000 0.000000
# 2 -0.004736 0.005036 -0.000983 0.000000 0.000000 0.000000
# 3 0.010195 -0.000983 0.022457 0.000000 0.000000 0.000000
# 4 0.000000 0.000000 0.000000 0.171774 0.000000 0.000000
# 5 0.000000 0.000000 0.000000 0.000000 0.071565 0.000000
# 6 0.000000 0.000000 0.000000 0.000000 0.000000 0.026270
#
#
# Mechanical properties :
#
#
# Convention : Reuss Voigt Hill
#
# Bulk Modulus (GPa) = 13.57245 37.19321 25.38283
# Shear Modulus (GPa) = 14.28803 31.54603 22.91703
#
# Velocity S-wave (km/s) = 2.64304 3.92726 3.34731
# Velocity P-wave (km/s) = 3.99374 6.22485 5.22966
#
# Compressibility (1/GPa) = 0.07367865
#
# Stress axis : x y z
#
# Youngs Moduli (GPa) = 26.85683 198.58843 44.52995
#
# Poissons Ratio (x) = 0.94055 -0.45399
# Poissons Ratio (y) = 0.12720 0.04377
# Poissons Ratio (z) = -0.27381 0.19521
#
# Static dielectric constant tensor:
#      x y z
#    x 1.707480 0.000000 0.000000 
#    y 0.000000 1.824700 0.000000 
#    z 0.000000 0.000000 1.790480 
# 
# From -- ./inp_files/16894.got.cif
#   From: 2010.05.17/outbox.cif.g08.bks.cpg/sg71_9_cif.got.tgz:16894.got - 2010.06.03 16:22:01.
