data_PCOD9520390
_publ_section_title
;
Structure prediction by ZEFSAII (Michael W. Deem and Ramdas Pophale) SiO2 
 PCOD9520390
Probable space group: I M M M
;
_chemical_formula_sum "Si O2"
_cell_formula_units_Z 62
_cell_length_a 18.394113
_cell_length_b 13.845364
_cell_length_c 13.567539
_cell_angle_alpha 90.000000
_cell_angle_beta 90.000000
_cell_angle_gamma 90.000000
_cell_volume 3455.288437
_symmetry_space_group_name_H-M "I M M M"
_symmetry_group_IT_number 71
_symmetry_cell_setting 'orthorhombic'
loop_
_space_group_symop_operation_xyz
x,y,z
-x,-y,z
x,-y,-z
-x,y,-z
-x,-y,-z
x,y,-z
-x,y,z
x,-y,z
1/2+x,1/2+y,1/2+z
1/2-x,1/2-y,1/2+z
1/2+x,1/2-y,1/2-z
1/2-x,1/2+y,1/2-z
1/2-x,1/2-y,1/2-z
1/2+x,1/2+y,1/2-z
1/2-x,1/2+y,1/2+z
1/2+x,1/2-y,1/2+z
loop_
_atom_site_type_symbol
_atom_site_label
_atom_site_fract_x
_atom_site_fract_y
_atom_site_fract_z
Si Si1 0.361656 0.295737 0.303699
Si Si2 0.204494 0.287170 0.383435
Si Si3 0.500000 0.000000 0.500000
Si Si4 0.500000 0.000000 0.163091
Si Si5 0.500000 0.160792 0.672087
Si Si6 0.164364 0.500000 0.610641
Si Si7 0.587522 0.500000 0.616289
O O1 0.289083 0.266590 0.363344
O O2 0.342300 0.280549 0.188435
O O3 0.429063 0.227804 0.330470
O O4 0.381425 0.404433 0.332915
O O5 0.187295 0.280584 0.500000
O O6 0.189991 0.397768 0.346524
O O7 0.500000 0.084265 0.585071
O O8 0.500000 0.903562 0.229160
O O9 0.576960 0.000000 0.108475
O O10 0.194624 0.500000 0.500000
O O11 0.500000 0.500000 0.623436
O O12 0.606767 0.500000 0.500000
#
# Coordination Sequence:
#
# PCOD9520390 Si02
#       7
#    16  16   2   4   8   8   8
#     4  11  22  40  64  87 124 158 205 256 301 365
#     4  10  22  38  62  90 122 164 202 249 310 363
#     4  10  28  36  58  98 130 152 194 250 324 360
#     4  11  19  37  57  90 120 154 193 241 297 363
#     4  11  23  40  61  89 123 156 199 249 309 370
#     4  10  19  35  59  91 121 151 201 246 295 365
#     4  11  23  37  62  92 113 154 209 255 301 355
#
# _framework density 17.943508999999999
#
# number of rings (size 3 to 8) (size 9 to 14) (size 15 to 20)
#    0.000    1.419    3.871    1.742    3.613    1.032 
#    0.000    1.290    0.000    0.774    0.000    0.000 
#    0.000    0.000    0.000    0.000    0.000    0.000 
#
# Total GULP energy -172731.628919 kJ/mol
# GULP energy per Si atom -5571.988030 kJ/mol
# Density = 1.790267 g / cm^3
# Si number density = 17.943509 Si / 1000 Ang^3
#
#
#
# Elastic Constant Matrix: (Units=GPa)
#
#
# Indices 1 2 3 4 5 6 
#
# 1 123.5940 59.4035 37.4672 0.0000 0.0000 0.0000
# 2 59.4035 149.2015 72.8022 0.0000 0.0000 0.0000
# 3 37.4672 72.8022 120.2108 0.0000 0.0000 0.0000
# 4 0.0000 0.0000 0.0000 38.1999 0.0000 0.0000
# 5 0.0000 0.0000 0.0000 0.0000 14.0387 0.0000
# 6 0.0000 0.0000 0.0000 0.0000 0.0000 29.9604
#
#
#
# Elastic Compliance Matrix: (Units=1/GPa)
#
#
# Indices 1 2 3 4 5 6 
#
# 1 0.010091 -0.003525 -0.001011 0.000000 0.000000 0.000000
# 2 -0.003525 0.010745 -0.005409 0.000000 0.000000 0.000000
# 3 -0.001011 -0.005409 0.011909 0.000000 0.000000 0.000000
# 4 0.000000 0.000000 0.000000 0.026178 0.000000 0.000000
# 5 0.000000 0.000000 0.000000 0.000000 0.071232 0.000000
# 6 0.000000 0.000000 0.000000 0.000000 0.000000 0.033377
#
#
# Mechanical properties :
#
#
# Convention : Reuss Voigt Hill
#
# Bulk Modulus (GPa) = 77.77566 81.37246 79.57406
# Shear Modulus (GPa) = 26.63729 31.32870 28.98300
#
# Velocity S-wave (km/s) = 3.85711 4.18301 4.02336
# Velocity P-wave (km/s) = 7.95457 8.29323 8.12567
#
# Compressibility (1/GPa) = 0.01285749
#
# Stress axis : x y z
#
# Youngs Moduli (GPa) = 99.09346 93.06792 83.96753
#
# Poissons Ratio (x) = 0.32804 0.08486
# Poissons Ratio (y) = 0.34927 0.45416
# Poissons Ratio (z) = 0.10015 0.50338
#
# Static dielectric constant tensor:
#      x y z
#    x 1.628540 0.000000 0.000000 
#    y 0.000000 1.604050 0.000000 
#    z 0.000000 0.000000 1.618650 
# 
# From -- ./inp_files/32324.got.cif
#   From: 2010.05.17/outbox.cif.g08.bks.cpg/sg71_17_cif.got.tgz:32324.got - 2010.06.03 16:22:01.
