data_PCOD9520065
_publ_section_title
;
Structure prediction by ZEFSAII (Michael W. Deem and Ramdas Pophale) SiO2 
 PCOD9520065
Probable space group: I M M M
;
_chemical_formula_sum "Si O2"
_cell_formula_units_Z 66
_cell_length_a 15.471104
_cell_length_b 9.398255
_cell_length_c 24.430684
_cell_angle_alpha 90.000000
_cell_angle_beta 90.000000
_cell_angle_gamma 90.000000
_cell_volume 3552.255181
_symmetry_space_group_name_H-M "I M M M"
_symmetry_group_IT_number 71
_symmetry_cell_setting 'orthorhombic'
loop_
_space_group_symop_operation_xyz
x,y,z
-x,-y,z
x,-y,-z
-x,y,-z
-x,-y,-z
x,y,-z
-x,y,z
x,-y,z
1/2+x,1/2+y,1/2+z
1/2-x,1/2-y,1/2+z
1/2+x,1/2-y,1/2-z
1/2-x,1/2+y,1/2-z
1/2-x,1/2-y,1/2-z
1/2+x,1/2+y,1/2-z
1/2-x,1/2+y,1/2+z
1/2+x,1/2-y,1/2+z
loop_
_atom_site_type_symbol
_atom_site_label
_atom_site_fract_x
_atom_site_fract_y
_atom_site_fract_z
Si Si1 0.000000 0.172106 0.305796
Si Si2 0.500000 0.500000 0.500000
Si Si3 0.355591 0.254569 0.500000
Si Si4 0.351232 0.328797 0.111101
Si Si5 0.650768 0.838883 0.379134
Si Si6 0.654429 0.165847 0.000000
Si Si7 0.000000 0.171116 0.820458
O O1 0.915950 0.213774 0.340594
O O2 0.000000 0.217774 0.242957
O O3 0.000000 0.000000 0.304202
O O4 0.425271 0.377305 0.500000
O O5 0.365002 0.167190 0.444244
O O6 0.258857 0.319020 0.500000
O O7 0.357656 0.500000 0.101800
O O8 0.251741 0.299737 0.127483
O O9 0.373882 0.247036 0.055143
O O10 0.584542 0.733412 0.350091
O O11 0.637191 0.000000 0.359269
O O12 0.630083 0.000000 0.000000
O O13 0.000000 0.000000 0.824477
#
# Coordination Sequence:
#
# PCOD9520065 Si02
#       7
#     8   2   8  16  16   8   8
#     4   9  20  41  60  81 106 144 195 241 273 330
#     4  12  20  28  46  80 104 150 178 216 252 314
#     4  10  21  32  54  78 116 147 184 213 272 333
#     4   9  19  37  62  82 109 148 190 226 276 333
#     4  10  21  37  57  83 112 148 185 231 276 334
#     4  10  19  34  53  86 121 143 173 227 281 335
#     4  11  24  37  56  80 112 147 190 236 281 327
#
# _framework density 18.579747000000001
#
# number of rings (size 3 to 8) (size 9 to 14) (size 15 to 20)
#    0.000    2.182    0.606    1.818    3.394    5.333 
#    0.000    7.273    0.000    0.000    0.000    0.000 
#    0.000    0.000    0.000    0.000    0.000    0.000 
#
# Total GULP energy -183920.738790 kJ/mol
# GULP energy per Si atom -5573.355721 kJ/mol
# Density = 1.853746 g / cm^3
# Si number density = 18.579747 Si / 1000 Ang^3
#
#
#
# Elastic Constant Matrix: (Units=GPa)
#
#
# Indices 1 2 3 4 5 6 
#
# 1 101.6964 46.4888 80.5163 0.0000 0.0000 0.0000
# 2 46.4888 74.8632 45.0981 0.0000 0.0000 0.0000
# 3 80.5163 45.0981 151.7744 0.0000 0.0000 0.0000
# 4 0.0000 0.0000 0.0000 239.2016 0.0000 0.0000
# 5 0.0000 0.0000 0.0000 0.0000 24.6244 0.0000
# 6 0.0000 0.0000 0.0000 0.0000 0.0000 21.1223
#
#
#
# Elastic Compliance Matrix: (Units=1/GPa)
#
#
# Indices 1 2 3 4 5 6 
#
# 1 0.019724 -0.007241 -0.008312 0.000000 0.000000 0.000000
# 2 -0.007241 0.018928 -0.001783 0.000000 0.000000 0.000000
# 3 -0.008312 -0.001783 0.011528 0.000000 0.000000 0.000000
# 4 0.000000 0.000000 0.000000 0.004181 0.000000 0.000000
# 5 0.000000 0.000000 0.000000 0.000000 0.040610 0.000000
# 6 0.000000 0.000000 0.000000 0.000000 0.000000 0.047343
#
#
# Mechanical properties :
#
#
# Convention : Reuss Voigt Hill
#
# Bulk Modulus (GPa) = 64.48134 74.72668 69.60401
# Shear Modulus (GPa) = 27.44887 67.40503 47.42695
#
# Velocity S-wave (km/s) = 3.84781 6.02972 5.05782
# Velocity P-wave (km/s) = 7.38386 9.42250 8.46477
#
# Compressibility (1/GPa) = 0.01550836
#
# Stress axis : x y z
#
# Youngs Moduli (GPa) = 50.69866 52.83062 86.74468
#
# Poissons Ratio (x) = 0.38256 0.72103
# Poissons Ratio (y) = 0.36712 0.15466
# Poissons Ratio (z) = 0.42141 0.09419
#
# Static dielectric constant tensor:
#      x y z
#    x 1.640060 0.000000 0.000000 
#    y 0.000000 1.618250 0.000000 
#    z 0.000000 0.000000 1.630780 
# 
# From -- ./inp_files/59524.got.cif
#   From: 2010.05.17/outbox.cif.g08.bks.cpg/sg71_30_cif.got.tgz:59524.got - 2010.06.03 16:22:01.
