data_PCOD9520494
_publ_section_title
;
Structure prediction by ZEFSAII (Michael W. Deem and Ramdas Pophale) SiO2 
 PCOD9520494
Probable space group: I M M M
;
_chemical_formula_sum "Si O2"
_cell_formula_units_Z 96
_cell_length_a 11.722204
_cell_length_b 37.969959
_cell_length_c 13.104828
_cell_angle_alpha 90.000000
_cell_angle_beta 90.000000
_cell_angle_gamma 90.000000
_cell_volume 5832.848931
_symmetry_space_group_name_H-M "I M M M"
_symmetry_group_IT_number 71
_symmetry_cell_setting 'orthorhombic'
loop_
_space_group_symop_operation_xyz
x,y,z
-x,-y,z
x,-y,-z
-x,y,-z
-x,-y,-z
x,y,-z
-x,y,z
x,-y,z
1/2+x,1/2+y,1/2+z
1/2-x,1/2-y,1/2+z
1/2+x,1/2-y,1/2-z
1/2-x,1/2+y,1/2-z
1/2-x,1/2-y,1/2-z
1/2+x,1/2+y,1/2-z
1/2-x,1/2+y,1/2+z
1/2+x,1/2-y,1/2+z
loop_
_atom_site_type_symbol
_atom_site_label
_atom_site_fract_x
_atom_site_fract_y
_atom_site_fract_z
Si Si1 0.000000 0.385504 0.622662
Si Si2 0.290105 0.153868 0.234933
Si Si3 0.636417 0.784157 0.384863
Si Si4 0.500000 0.958573 0.232069
Si Si5 0.365803 0.606375 0.880524
Si Si6 0.287641 0.040483 0.383713
Si Si7 0.370631 0.293746 0.622117
O O1 0.889619 0.367354 0.676458
O O2 0.000000 0.380201 0.500000
O O3 0.000000 0.427321 0.649374
O O4 0.337993 0.184131 0.309647
O O5 0.211663 0.129191 0.305367
O O6 0.209589 0.175047 0.157686
O O7 0.680557 0.791000 0.500000
O O8 0.500000 0.780942 0.391861
O O9 0.674643 0.745246 0.349729
O O10 0.610977 0.953364 0.303785
O O11 0.500000 0.000000 0.197995
O O12 0.500000 0.608746 0.857329
O O13 0.316898 0.566907 0.870157
O O14 0.350151 0.616669 0.000000
O O15 0.331673 0.045531 0.500000
O O16 0.251389 0.000000 0.374097
O O17 0.376511 0.293378 0.500000
O O18 0.500000 0.298258 0.662504
#
# Coordination Sequence:
#
# PCOD9520494 Si02
#       7
#     8  16  16   8  16  16  16
#     4  12  26  38  53  82 110 139 187 237 275 324
#     4  12  20  36  53  77 107 147 173 220 279 317
#     4   9  18  33  53  79 104 132 177 218 261 327
#     4  10  19  37  58  81 107 142 185 221 274 331
#     4  10  21  34  51  80 113 143 178 215 257 323
#     4   9  17  31  54  83 112 140 173 215 261 322
#     4   9  19  35  55  76  99 135 183 226 261 313
#
# _framework density 16.458511000000001
#
# number of rings (size 3 to 8) (size 9 to 14) (size 15 to 20)
#    0.000    2.000    2.500    3.250    0.000    1.500 
#    0.000    1.667    0.000    0.000    0.000    0.000 
#    0.000    2.667    0.000    0.000    0.000    0.000 
#
# Total GULP energy -267461.660647 kJ/mol
# GULP energy per Si atom -5572.117930 kJ/mol
# Density = 1.642105 g / cm^3
# Si number density = 16.458511 Si / 1000 Ang^3
#
#
#
# Elastic Constant Matrix: (Units=GPa)
#
#
# Indices 1 2 3 4 5 6 
#
# 1 95.2204 60.2233 58.8362 -0.0001 0.0000 0.0000
# 2 60.2233 112.1204 58.0202 -0.0003 0.0000 0.0000
# 3 58.8362 58.0202 82.4355 -0.0010 0.0001 0.0001
# 4 -0.0001 -0.0003 -0.0010 31.3770 0.0000 0.0000
# 5 0.0000 0.0000 0.0001 0.0000 24.9350 -0.0003
# 6 0.0000 0.0000 0.0001 0.0000 -0.0003 26.3499
#
#
#
# Elastic Compliance Matrix: (Units=1/GPa)
#
#
# Indices 1 2 3 4 5 6 
#
# 1 0.020720 -0.005468 -0.010940 0.000000 0.000000 0.000000
# 2 -0.005468 0.015471 -0.006986 0.000000 0.000000 0.000000
# 3 -0.010940 -0.006986 0.024856 0.000001 0.000000 0.000000
# 4 0.000000 0.000000 0.000001 0.031871 0.000000 0.000000
# 5 0.000000 0.000000 0.000000 0.000000 0.040104 0.000001
# 6 0.000000 0.000000 0.000000 0.000000 0.000001 0.037951
#
#
# Mechanical properties :
#
#
# Convention : Reuss Voigt Hill
#
# Bulk Modulus (GPa) = 70.13288 71.54839 70.84063
# Shear Modulus (GPa) = 22.47048 24.04549 23.25799
#
# Velocity S-wave (km/s) = 3.69898 3.82642 3.76324
# Velocity P-wave (km/s) = 7.80690 7.94282 7.87515
#
# Compressibility (1/GPa) = 0.01425865
#
# Stress axis : x y z
#
# Youngs Moduli (GPa) = 48.26263 64.63508 40.23213
#
# Poissons Ratio (x) = 0.35344 0.44012
# Poissons Ratio (y) = 0.26391 0.28108
# Poissons Ratio (z) = 0.52798 0.45156
#
# Static dielectric constant tensor:
#      x y z
#    x 1.536820 0.000000 0.000000 
#    y 0.000000 1.562200 0.000000 
#    z 0.000000 0.000000 1.552660 
# 
# From -- ./inp_files/33222.got.cif
#   From: 2010.05.17/outbox.cif.g08.bks.cpg/sg71_17_cif.got.tgz:33222.got - 2010.06.03 16:22:01.
