data_PCOD9520079
_publ_section_title
;
Structure prediction by ZEFSAII (Michael W. Deem and Ramdas Pophale) SiO2 
 PCOD9520079
Probable space group: I M M M
;
_chemical_formula_sum "Si O2"
_cell_formula_units_Z 72
_cell_length_a 27.158938
_cell_length_b 16.254194
_cell_length_c 8.802523
_cell_angle_alpha 90.000000
_cell_angle_beta 90.000000
_cell_angle_gamma 90.000000
_cell_volume 3885.844264
_symmetry_space_group_name_H-M "I M M M"
_symmetry_group_IT_number 71
_symmetry_cell_setting 'orthorhombic'
loop_
_space_group_symop_operation_xyz
x,y,z
-x,-y,z
x,-y,-z
-x,y,-z
-x,-y,-z
x,y,-z
-x,y,z
x,-y,z
1/2+x,1/2+y,1/2+z
1/2-x,1/2-y,1/2+z
1/2+x,1/2-y,1/2-z
1/2-x,1/2+y,1/2-z
1/2-x,1/2-y,1/2-z
1/2+x,1/2+y,1/2-z
1/2-x,1/2+y,1/2+z
1/2+x,1/2-y,1/2+z
loop_
_atom_site_type_symbol
_atom_site_label
_atom_site_fract_x
_atom_site_fract_y
_atom_site_fract_z
Si Si1 0.397653 0.500000 0.823670
Si Si2 0.282402 0.677379 0.184035
Si Si3 0.559323 0.828488 0.825474
Si Si4 0.277666 0.500000 0.176356
Si Si5 0.608315 0.328403 0.319280
Si Si6 0.060037 0.500000 0.175709
O O1 0.337560 0.500000 0.818694
O O2 0.412825 0.414946 0.744044
O O3 0.412264 0.500000 0.000000
O O4 0.250000 0.750000 0.250000
O O5 0.262329 0.588155 0.239550
O O6 0.338020 0.683540 0.244136
O O7 0.282776 0.678164 0.000000
O O8 0.500000 0.829853 0.824558
O O9 0.577074 0.750625 0.729704
O O10 0.576248 0.915943 0.757046
O O11 0.575887 0.819946 0.000000
O O12 0.262873 0.500000 0.000000
O O13 0.612886 0.333696 0.500000
O O14 0.000000 0.500000 0.179347
O O15 0.075191 0.500000 0.000000
#
# Coordination Sequence:
#
# PCOD9520079 Si02
#       6
#     8  16  16   8  16   8
#     4   9  17  33  54  75 102 137 174 212 257 312
#     4  10  19  34  54  77 104 136 174 215 259 307
#     4  10  20  35  55  78 105 139 177 216 260 311
#     4   7  14  29  50  71  96 131 166 202 248 303
#     4  11  21  34  54  80 107 137 175 218 262 309
#     4   9  17  31  52  77 104 135 172 214 259 310
#
# _framework density 18.528790999999998
#
# number of rings (size 3 to 8) (size 9 to 14) (size 15 to 20)
#    0.000    2.333    0.000    5.333    0.000    2.667 
#    0.000    3.333    0.000    4.667    0.000    0.000 
#    0.000    0.000    0.000    0.000    0.000    0.000 
#
# Total GULP energy -200744.616412 kJ/mol
# GULP energy per Si atom -5576.239345 kJ/mol
# Density = 1.848662 g / cm^3
# Si number density = 18.528791 Si / 1000 Ang^3
#
#
#
# Elastic Constant Matrix: (Units=GPa)
#
#
# Indices 1 2 3 4 5 6 
#
# 1 8.6432 26.3577 14.8365 0.0000 0.0000 0.0000
# 2 26.3577 186.4585 64.3392 0.0000 0.0000 0.0000
# 3 14.8365 64.3392 127.8642 0.0000 0.0000 0.0000
# 4 0.0000 0.0000 0.0000 38.3275 0.0000 0.0000
# 5 0.0000 0.0000 0.0000 0.0000 22.0860 0.0000
# 6 0.0000 0.0000 0.0000 0.0000 0.0000 25.1908
#
#
#
# Elastic Compliance Matrix: (Units=1/GPa)
#
#
# Indices 1 2 3 4 5 6 
#
# 1 0.217143 -0.026624 -0.011799 0.000000 0.000000 0.000000
# 2 -0.026624 0.009754 -0.001819 0.000000 0.000000 0.000000
# 3 -0.011799 -0.001819 0.010105 0.000000 0.000000 0.000000
# 4 0.000000 0.000000 0.000000 0.026091 0.000000 0.000000
# 5 0.000000 0.000000 0.000000 0.000000 0.045278 0.000000
# 6 0.000000 0.000000 0.000000 0.000000 0.000000 0.039697
#
#
# Mechanical properties :
#
#
# Convention : Reuss Voigt Hill
#
# Bulk Modulus (GPa) = 6.38902 59.33697 32.86299
# Shear Modulus (GPa) = 10.40096 31.61635 21.00865
#
# Velocity S-wave (km/s) = 2.37183 4.13526 3.37090
# Velocity P-wave (km/s) = 3.31005 7.40907 5.73806
#
# Compressibility (1/GPa) = 0.15651859
#
# Stress axis : x y z
#
# Youngs Moduli (GPa) = 4.60526 102.51886 98.95930
#
# Poissons Ratio (x) = 2.72945 1.16764
# Poissons Ratio (y) = 0.12261 0.18000
# Poissons Ratio (z) = 0.05434 0.18648
#
# Static dielectric constant tensor:
#      x y z
#    x 1.627040 0.000000 0.000000 
#    y 0.000000 1.662010 0.000000 
#    z 0.000000 0.000000 1.630850 
# 
# From -- ./inp_files/6547.got.cif
#   From: 2010.05.17/outbox.cif.g08.bks.cpg/sg71_4_cif.got.tgz:6547.got - 2010.06.03 16:22:01.
