data_PCOD9520350
_publ_section_title
;
Structure prediction by ZEFSAII (Michael W. Deem and Ramdas Pophale) SiO2 
 PCOD9520350
Probable space group: I M M M
;
_chemical_formula_sum "Si O2"
_cell_formula_units_Z 88
_cell_length_a 14.350599
_cell_length_b 14.945868
_cell_length_c 22.690406
_cell_angle_alpha 90.000000
_cell_angle_beta 90.000000
_cell_angle_gamma 90.000000
_cell_volume 4866.687253
_symmetry_space_group_name_H-M "I M M M"
_symmetry_group_IT_number 71
_symmetry_cell_setting 'orthorhombic'
loop_
_space_group_symop_operation_xyz
x,y,z
-x,-y,z
x,-y,-z
-x,y,-z
-x,-y,-z
x,y,-z
-x,y,z
x,-y,z
1/2+x,1/2+y,1/2+z
1/2-x,1/2-y,1/2+z
1/2+x,1/2-y,1/2-z
1/2-x,1/2+y,1/2-z
1/2-x,1/2-y,1/2-z
1/2+x,1/2+y,1/2-z
1/2-x,1/2+y,1/2+z
1/2+x,1/2-y,1/2+z
loop_
_atom_site_type_symbol
_atom_site_label
_atom_site_fract_x
_atom_site_fract_y
_atom_site_fract_z
Si Si1 0.390974 0.651031 0.732764
Si Si2 0.764734 0.398224 0.638417
Si Si3 0.893593 0.364850 0.748899
Si Si4 0.742253 0.404883 0.839471
Si Si5 0.000000 0.105655 0.570941
Si Si6 0.815775 0.224305 0.430182
O O1 0.500000 0.624348 0.729355
O O2 0.330389 0.626563 0.674634
O O3 0.386771 0.757570 0.743167
O O4 0.337665 0.611670 0.789968
O O5 0.757058 0.500000 0.616524
O O6 0.842685 0.392192 0.689225
O O7 0.799876 0.326217 0.590497
O O8 0.835838 0.405360 0.801963
O O9 0.000000 0.390983 0.748253
O O10 0.723574 0.500000 0.868663
O O11 0.753500 0.329988 0.888467
O O12 0.911362 0.169430 0.585807
O O13 0.000000 0.098140 0.500000
O O14 0.000000 0.000000 0.592433
O O15 0.803579 0.216790 0.500000
#
# Coordination Sequence:
#
# PCOD9520350 Si02
#       6
#    16  16  16  16   8  16
#     4  10  19  35  60  86 116 148 183 238 298 344
#     4  11  22  37  58  85 116 153 195 233 284 344
#     4  10  19  35  58  83 114 148 182 230 288 346
#     4  11  21  34  56  85 113 144 184 229 289 351
#     4   9  20  38  59  81 107 147 194 236 282 329
#     4  11  23  40  56  79 116 152 193 239 275 326
#
# _framework density 18.082115999999999
#
# number of rings (size 3 to 8) (size 9 to 14) (size 15 to 20)
#    0.000    1.545    3.636    3.818    2.545    4.364 
#    0.000    0.000    0.000    3.818    0.000    2.545 
#    0.000    0.000    0.000    0.000    0.000    0.000 
#
# Total GULP energy -245232.294330 kJ/mol
# GULP energy per Si atom -5573.461235 kJ/mol
# Density = 1.804096 g / cm^3
# Si number density = 18.082116 Si / 1000 Ang^3
#
#
#
# Elastic Constant Matrix: (Units=GPa)
#
#
# Indices 1 2 3 4 5 6 
#
# 1 114.0543 22.1221 23.5484 0.0000 0.0000 0.0000
# 2 22.1221 131.3558 18.7120 0.0000 0.0000 0.0000
# 3 23.5484 18.7120 71.7243 0.0000 0.0000 0.0000
# 4 0.0000 0.0000 0.0000 -6.0637 0.0000 0.0000
# 5 0.0000 0.0000 0.0000 0.0000 12.8193 0.0000
# 6 0.0000 0.0000 0.0000 0.0000 0.0000 14.2134
#
#
#
# Elastic Compliance Matrix: (Units=1/GPa)
#
#
# Indices 1 2 3 4 5 6 
#
# 1 0.009587 -0.001211 -0.002832 0.000000 0.000000 0.000000
# 2 -0.001211 0.008060 -0.001705 0.000000 0.000000 0.000000
# 3 -0.002832 -0.001705 0.015317 0.000000 0.000000 0.000000
# 4 0.000000 0.000000 0.000000 -0.164915 0.000000 0.000000
# 5 0.000000 0.000000 0.000000 0.000000 0.078007 0.000000
# 6 0.000000 0.000000 0.000000 0.000000 0.000000 0.070356
#
#
# Mechanical properties :
#
#
# Convention : Reuss Voigt Hill
#
# Bulk Modulus (GPa) = 46.58100 49.54436 48.06268
# Shear Modulus (GPa) = 142.59398 21.04393 81.81895
#
# Velocity S-wave (km/s) = 8.88990 3.41515 6.73400
# Velocity P-wave (km/s) = 11.45384 6.55821 9.33275
#
# Compressibility (1/GPa) = 0.02146798
#
# Stress axis : x y z
#
# Youngs Moduli (GPa) = 104.30425 124.07274 65.28779
#
# Poissons Ratio (x) = 0.15028 0.18487
# Poissons Ratio (y) = 0.12634 0.11132
# Poissons Ratio (z) = 0.29536 0.21155
#
# Static dielectric constant tensor:
#      x y z
#    x 1.647280 0.000000 0.000000 
#    y 0.000000 1.737030 0.000000 
#    z 0.000000 0.000000 1.585120 
# 
# From -- ./inp_files/34374.got.cif
#   From: 2010.05.17/outbox.cif.g08.bks.cpg/sg71_18_cif.got.tgz:34374.got - 2010.06.03 16:22:01.
