data_PCOD9520891
_publ_section_title
;
Structure prediction by ZEFSAII (Michael W. Deem and Ramdas Pophale) SiO2 
 PCOD9520891
Probable space group: I M M M
;
_chemical_formula_sum "Si O2"
_cell_formula_units_Z 88
_cell_length_a 35.477492
_cell_length_b 8.953578
_cell_length_c 16.233183
_cell_angle_alpha 90.000000
_cell_angle_beta 90.000000
_cell_angle_gamma 90.000000
_cell_volume 5156.478565
_symmetry_space_group_name_H-M "I M M M"
_symmetry_group_IT_number 71
_symmetry_cell_setting 'orthorhombic'
loop_
_space_group_symop_operation_xyz
x,y,z
-x,-y,z
x,-y,-z
-x,y,-z
-x,-y,-z
x,y,-z
-x,y,z
x,-y,z
1/2+x,1/2+y,1/2+z
1/2-x,1/2-y,1/2+z
1/2+x,1/2-y,1/2-z
1/2-x,1/2+y,1/2-z
1/2-x,1/2-y,1/2-z
1/2+x,1/2+y,1/2-z
1/2-x,1/2+y,1/2+z
1/2+x,1/2-y,1/2+z
loop_
_atom_site_type_symbol
_atom_site_label
_atom_site_fract_x
_atom_site_fract_y
_atom_site_fract_z
Si Si1 0.579517 0.820589 0.096971
Si Si2 0.148613 0.322082 0.096410
Si Si3 0.780650 0.175694 0.311790
Si Si4 0.773614 0.164446 0.095488
Si Si5 0.500000 0.670206 0.099233
Si Si6 0.632327 0.322597 0.236248
O O1 0.538186 0.757482 0.119933
O O2 0.608208 0.752775 0.163615
O O3 0.579812 0.000000 0.101265
O O4 0.587193 0.779537 0.000000
O O5 0.144768 0.500000 0.101535
O O6 0.191896 0.274548 0.115221
O O7 0.126246 0.245078 0.171878
O O8 0.140182 0.278731 0.000000
O O9 0.750000 0.250000 0.250000
O O10 0.767282 0.265414 0.391425
O O11 0.823595 0.199511 0.287108
O O12 0.773959 0.000000 0.321989
O O13 0.778257 0.000000 0.136271
O O14 0.778405 0.143135 0.000000
O O15 0.500000 0.500000 0.131345
O O16 0.500000 0.661580 0.000000
O O17 0.625185 0.500000 0.238396
#
# Coordination Sequence:
#
# PCOD9520891 Si02
#       6
#    16  16  16  16   8  16
#     4  10  21  37  58  85 117 151 186 224 269 325
#     4  10  20  34  53  75  99 132 177 228 277 324
#     4  11  22  34  49  68  95 133 176 223 276 328
#     4  10  20  33  49  68  91 124 170 221 271 324
#     4   9  17  33  59  87 116 149 182 219 265 323
#     4  11  23  36  53  78 108 143 182 229 281 330
#
# _framework density 17.065909999999999
#
# number of rings (size 3 to 8) (size 9 to 14) (size 15 to 20)
#    0.000    1.727    1.818    3.000    0.000    7.273 
#    0.000    3.636    0.000    0.000    0.000    0.636 
#    0.000    5.091    0.000    0.000    0.000    0.000 
#
# Total GULP energy -244976.900389 kJ/mol
# GULP energy per Si atom -5567.656827 kJ/mol
# Density = 1.702707 g / cm^3
# Si number density = 17.065910 Si / 1000 Ang^3
#
#
#
# Elastic Constant Matrix: (Units=GPa)
#
#
# Indices 1 2 3 4 5 6 
#
# 1 84.6574 55.1033 51.3786 0.0000 0.0000 0.0000
# 2 55.1033 102.2135 59.1744 0.0000 0.0000 0.0000
# 3 51.3786 59.1744 105.8938 0.0000 0.0000 0.0000
# 4 0.0000 0.0000 0.0000 27.7458 0.0000 0.0000
# 5 0.0000 0.0000 0.0000 0.0000 24.7534 0.0000
# 6 0.0000 0.0000 0.0000 0.0000 0.0000 24.1709
#
#
#
# Elastic Compliance Matrix: (Units=1/GPa)
#
#
# Indices 1 2 3 4 5 6 
#
# 1 0.020139 -0.007687 -0.005476 0.000000 0.000000 0.000000
# 2 -0.007687 0.017396 -0.005992 0.000000 0.000000 0.000000
# 3 -0.005476 -0.005992 0.015448 0.000000 0.000000 0.000000
# 4 0.000000 0.000000 0.000000 0.036042 0.000000 0.000000
# 5 0.000000 0.000000 0.000000 0.000000 0.040398 0.000000
# 6 0.000000 0.000000 0.000000 0.000000 0.000000 0.041372
#
#
# Mechanical properties :
#
#
# Convention : Reuss Voigt Hill
#
# Bulk Modulus (GPa) = 68.14240 69.34190 68.74215
# Shear Modulus (GPa) = 23.36504 23.80792 23.58648
#
# Velocity S-wave (km/s) = 3.70416 3.73910 3.72167
# Velocity P-wave (km/s) = 7.63610 7.70462 7.67044
#
# Compressibility (1/GPa) = 0.01467515
#
# Stress axis : x y z
#
# Youngs Moduli (GPa) = 49.65528 57.48422 64.73208
#
# Poissons Ratio (x) = 0.44187 0.35445
# Poissons Ratio (y) = 0.38169 0.38784
# Poissons Ratio (z) = 0.27190 0.34442
#
# Static dielectric constant tensor:
#      x y z
#    x 1.559540 0.000000 0.000000 
#    y 0.000000 1.607500 0.000000 
#    z 0.000000 0.000000 1.798700 
# 
# From -- ./inp_files/49227.got.cif
#   From: 2010.05.17/outbox.cif.g08.bks.cpg/sg71_25_cif.got.tgz:49227.got - 2010.06.03 16:22:01.
