data_PCOD9520309
_publ_section_title
;
Structure prediction by ZEFSAII (Michael W. Deem and Ramdas Pophale) SiO2 
 PCOD9520309
Probable space group: I M M M
;
_chemical_formula_sum "Si O2"
_cell_formula_units_Z 120
_cell_length_a 28.603462
_cell_length_b 27.262674
_cell_length_c 8.732419
_cell_angle_alpha 90.000000
_cell_angle_beta 90.000000
_cell_angle_gamma 90.000000
_cell_volume 6809.600239
_symmetry_space_group_name_H-M "I M M M"
_symmetry_group_IT_number 71
_symmetry_cell_setting 'orthorhombic'
loop_
_space_group_symop_operation_xyz
x,y,z
-x,-y,z
x,-y,-z
-x,y,-z
-x,-y,-z
x,y,-z
-x,y,z
x,-y,z
1/2+x,1/2+y,1/2+z
1/2-x,1/2-y,1/2+z
1/2+x,1/2-y,1/2-z
1/2-x,1/2+y,1/2-z
1/2-x,1/2-y,1/2-z
1/2+x,1/2+y,1/2-z
1/2-x,1/2+y,1/2+z
1/2+x,1/2-y,1/2+z
loop_
_atom_site_type_symbol
_atom_site_label
_atom_site_fract_x
_atom_site_fract_y
_atom_site_fract_z
Si Si1 0.312201 0.943020 0.818588
Si Si2 0.358786 0.850768 0.681596
Si Si3 0.610709 0.408195 0.185440
Si Si4 0.608474 0.701326 0.814354
Si Si5 0.286665 0.558674 0.177867
Si Si6 0.054299 0.000000 0.183432
Si Si7 0.053636 0.702460 0.314684
Si Si8 0.699107 0.761300 0.184047
O O1 0.345240 0.905246 0.732281
O O2 0.258691 0.929733 0.776800
O O3 0.318841 0.000000 0.772866
O O4 0.319208 0.939095 0.000000
O O5 0.356670 0.845639 0.500000
O O6 0.409576 0.835028 0.742846
O O7 0.321948 0.812661 0.756616
O O8 0.597239 0.353530 0.237374
O O9 0.665209 0.416249 0.225462
O O10 0.580113 0.451682 0.254203
O O11 0.607616 0.411354 0.000000
O O12 0.571822 0.743291 0.768908
O O13 0.660097 0.720631 0.769798
O O14 0.608453 0.699807 0.000000
O O15 0.294458 0.500000 0.185105
O O16 0.276952 0.571414 0.000000
O O17 0.000000 0.000000 0.230569
O O18 0.056728 0.000000 0.000000
O O19 0.057006 0.699496 0.500000
O O20 0.000000 0.694678 0.270701
O O21 0.750000 0.750000 0.250000
O O22 0.701112 0.762356 0.000000
#
# Coordination Sequence:
#
# PCOD9520309 Si02
#       8
#    16  16  16  16  16   8  16  16
#     4  10  21  36  55  82 114 149 188 227 271 327
#     4  11  22  36  56  82 114 151 189 229 273 325
#     4  10  19  35  57  79 102 136 181 229 276 331
#     4   8  17  32  53  81 109 136 175 225 274 324
#     4   9  17  30  49  75 107 141 178 221 269 321
#     4  11  25  41  53  71 103 141 181 233 292 337
#     4   9  18  36  60  83 110 143 180 228 284 337
#     4  10  20  35  53  79 114 150 186 226 277 337
#
# _framework density 17.62218
#
# number of rings (size 3 to 8) (size 9 to 14) (size 15 to 20)
#    0.000    2.333    0.667    3.000    1.867    2.667 
#    0.000    4.667    0.000    0.400    0.000    2.800 
#    0.000    0.000    0.000    0.000    0.000    0.000 
#
# Total GULP energy -334817.181887 kJ/mol
# GULP energy per Si atom -5580.286365 kJ/mol
# Density = 1.758207 g / cm^3
# Si number density = 17.622180 Si / 1000 Ang^3
#
#
#
# Elastic Constant Matrix: (Units=GPa)
#
#
# Indices 1 2 3 4 5 6 
#
# 1 132.0027 68.6673 45.6794 0.0000 0.0000 0.0000
# 2 68.6673 108.5197 36.9507 0.0000 0.0000 0.0000
# 3 45.6794 36.9507 48.5966 0.0000 0.0000 0.0000
# 4 0.0000 0.0000 0.0000 14.8735 0.0000 0.0000
# 5 0.0000 0.0000 0.0000 0.0000 27.6789 0.0000
# 6 0.0000 0.0000 0.0000 0.0000 0.0000 11.4948
#
#
#
# Elastic Compliance Matrix: (Units=1/GPa)
#
#
# Indices 1 2 3 4 5 6 
#
# 1 0.013379 -0.005645 -0.008283 0.000000 0.000000 0.000000
# 2 -0.005645 0.014816 -0.005959 0.000000 0.000000 0.000000
# 3 -0.008283 -0.005959 0.032895 0.000000 0.000000 0.000000
# 4 0.000000 0.000000 0.000000 0.067234 0.000000 0.000000
# 5 0.000000 0.000000 0.000000 0.000000 0.036129 0.000000
# 6 0.000000 0.000000 0.000000 0.000000 0.000000 0.086996
#
#
# Mechanical properties :
#
#
# Convention : Reuss Voigt Hill
#
# Bulk Modulus (GPa) = 46.91700 65.74598 56.33149
# Shear Modulus (GPa) = 16.76015 19.99756 18.37885
#
# Velocity S-wave (km/s) = 3.08731 3.37233 3.23296
# Velocity P-wave (km/s) = 6.27617 7.24935 6.78024
#
# Compressibility (1/GPa) = 0.02131424
#
# Stress axis : x y z
#
# Youngs Moduli (GPa) = 74.74672 67.49471 30.40005
#
# Poissons Ratio (x) = 0.38101 0.25181
# Poissons Ratio (y) = 0.42195 0.18116
# Poissons Ratio (z) = 0.61914 0.40222
#
# Static dielectric constant tensor:
#      x y z
#    x 1.579670 0.000000 0.000000 
#    y 0.000000 1.603730 0.000000 
#    z 0.000000 0.000000 1.596090 
# 
# From -- ./inp_files/15662.got.cif
#   From: 2010.05.17/outbox.cif.g08.bks.cpg/sg71_8_cif.got.tgz:15662.got - 2010.06.03 16:22:01.
