data_PCOD9520449
_publ_section_title
;
Structure prediction by ZEFSAII (Michael W. Deem and Ramdas Pophale) SiO2 
 PCOD9520449
Probable space group: I M M M
;
_chemical_formula_sum "Si O2"
_cell_formula_units_Z 72
_cell_length_a 11.635172
_cell_length_b 22.079918
_cell_length_c 16.900166
_cell_angle_alpha 90.000000
_cell_angle_beta 90.000000
_cell_angle_gamma 90.000000
_cell_volume 4341.714224
_symmetry_space_group_name_H-M "I M M M"
_symmetry_group_IT_number 71
_symmetry_cell_setting 'orthorhombic'
loop_
_space_group_symop_operation_xyz
x,y,z
-x,-y,z
x,-y,-z
-x,y,-z
-x,-y,-z
x,y,-z
-x,y,z
x,-y,z
1/2+x,1/2+y,1/2+z
1/2-x,1/2-y,1/2+z
1/2+x,1/2-y,1/2-z
1/2-x,1/2+y,1/2-z
1/2-x,1/2-y,1/2-z
1/2+x,1/2+y,1/2-z
1/2-x,1/2+y,1/2+z
1/2+x,1/2-y,1/2+z
loop_
_atom_site_type_symbol
_atom_site_label
_atom_site_fract_x
_atom_site_fract_y
_atom_site_fract_z
Si Si1 0.764963 0.868216 0.354818
Si Si2 0.362765 0.929864 0.500000
Si Si3 0.363921 0.757192 0.093740
Si Si4 0.000000 0.072534 0.406880
Si Si5 0.139459 0.500000 0.409469
Si Si6 0.862300 0.619085 0.311107
O O1 0.685133 0.896165 0.423129
O O2 0.790008 0.797658 0.371485
O O3 0.886716 0.901815 0.365414
O O4 0.706589 0.878053 0.270432
O O5 0.500000 0.929634 0.500000
O O6 0.322347 0.000000 0.500000
O O7 0.500000 0.742795 0.103401
O O8 0.342240 0.820172 0.138206
O O9 0.342584 0.763047 0.000000
O O10 0.000000 0.091986 0.500000
O O11 0.000000 0.000000 0.405409
O O12 0.181105 0.500000 0.500000
O O13 0.172138 0.439651 0.362068
O O14 0.000000 0.500000 0.412823
O O15 0.000000 0.615143 0.295582
#
# Coordination Sequence:
#
# PCOD9520449 Si02
#       6
#    16   8  16   8   8  16
#     4  12  21  37  56  83 114 149 188 234 277 333
#     4  11  24  37  55  81 117 157 183 218 286 349
#     4  10  19  36  58  82 110 148 191 233 281 331
#     4  11  22  36  56  82 110 151 195 233 270 326
#     4   9  18  36  58  84 111 144 184 228 283 331
#     4  10  22  35  56  85 116 144 183 238 287 338
#
# _framework density 16.583311999999999
#
# number of rings (size 3 to 8) (size 9 to 14) (size 15 to 20)
#    0.000    1.444    3.333    2.667    3.111    2.667 
#    0.000    0.000    0.000    0.000    0.000    3.111 
#    0.000    0.000    0.000    0.000    0.000    0.000 
#
# Total GULP energy -201069.993748 kJ/mol
# GULP energy per Si atom -5585.277604 kJ/mol
# Density = 1.654557 g / cm^3
# Si number density = 16.583312 Si / 1000 Ang^3
#
#
#
# Elastic Constant Matrix: (Units=GPa)
#
#
# Indices 1 2 3 4 5 6 
#
# 1 69.4680 56.3239 63.3943 0.0000 0.0000 0.0000
# 2 56.3239 163.3482 100.2092 0.0000 0.0000 0.0000
# 3 63.3943 100.2092 182.5056 0.0000 0.0000 0.0000
# 4 0.0000 0.0000 0.0000 22.1896 0.0000 0.0000
# 5 0.0000 0.0000 0.0000 0.0000 24.4199 0.0000
# 6 0.0000 0.0000 0.0000 0.0000 0.0000 9.5541
#
#
#
# Elastic Compliance Matrix: (Units=1/GPa)
#
#
# Indices 1 2 3 4 5 6 
#
# 1 0.023162 -0.004600 -0.005519 0.000000 0.000000 0.000000
# 2 -0.004600 0.010145 -0.003972 0.000000 0.000000 0.000000
# 3 -0.005519 -0.003972 0.009578 0.000000 0.000000 0.000000
# 4 0.000000 0.000000 0.000000 0.045066 0.000000 0.000000
# 5 0.000000 0.000000 0.000000 0.000000 0.040950 0.000000
# 6 0.000000 0.000000 0.000000 0.000000 0.000000 0.104667
#
#
# Mechanical properties :
#
#
# Convention : Reuss Voigt Hill
#
# Bulk Modulus (GPa) = 68.02672 95.01961 81.52317
# Shear Modulus (GPa) = 18.75098 24.25903 21.50501
#
# Velocity S-wave (km/s) = 3.36626 3.82888 3.60500
# Velocity P-wave (km/s) = 7.49794 8.77325 8.16055
#
# Compressibility (1/GPa) = 0.01470011
#
# Stress axis : x y z
#
# Youngs Moduli (GPa) = 43.17419 98.56940 104.40955
#
# Poissons Ratio (x) = 0.45346 0.57628
# Poissons Ratio (y) = 0.19862 0.41476
# Poissons Ratio (z) = 0.23830 0.39156
#
# Static dielectric constant tensor:
#      x y z
#    x 1.539700 0.000000 0.000000 
#    y 0.000000 1.558200 0.000000 
#    z 0.000000 0.000000 1.527160 
# 
# From -- ./inp_files/21813.got.cif
#   From: 2010.05.17/outbox.cif.g08.bks.cpg/sg71_11_cif.got.tgz:21813.got - 2010.06.03 16:22:01.
