data_PCOD9520569
_publ_section_title
;
Structure prediction by ZEFSAII (Michael W. Deem and Ramdas Pophale) SiO2 
 PCOD9520569
Probable space group: I M M M
;
_chemical_formula_sum "Si O2"
_cell_formula_units_Z 104
_cell_length_a 7.266598
_cell_length_b 31.502927
_cell_length_c 20.370946
_cell_angle_alpha 90.000000
_cell_angle_beta 90.000000
_cell_angle_gamma 90.000000
_cell_volume 4663.298753
_symmetry_space_group_name_H-M "I M M M"
_symmetry_group_IT_number 71
_symmetry_cell_setting 'orthorhombic'
loop_
_space_group_symop_operation_xyz
x,y,z
-x,-y,z
x,-y,-z
-x,y,-z
-x,-y,-z
x,y,-z
-x,y,z
x,-y,z
1/2+x,1/2+y,1/2+z
1/2-x,1/2-y,1/2+z
1/2+x,1/2-y,1/2-z
1/2-x,1/2+y,1/2-z
1/2-x,1/2-y,1/2-z
1/2+x,1/2+y,1/2-z
1/2-x,1/2+y,1/2+z
1/2+x,1/2-y,1/2+z
loop_
_atom_site_type_symbol
_atom_site_label
_atom_site_fract_x
_atom_site_fract_y
_atom_site_fract_z
Si Si1 0.276184 0.950753 0.070365
Si Si2 0.221837 0.680680 0.149273
Si Si3 0.222344 0.306118 0.294753
Si Si4 0.224451 0.500000 0.924309
Si Si5 0.277265 0.905157 0.800769
Si Si6 0.786270 0.738875 0.573220
Si Si7 0.224054 0.582728 0.156215
O O1 0.500000 0.949279 0.071338
O O2 0.208541 0.927492 0.134386
O O3 0.225213 0.000000 0.072669
O O4 0.218291 0.932630 0.000000
O O5 0.284650 0.701708 0.219189
O O6 0.277187 0.711238 0.090303
O O7 0.281380 0.631563 0.141632
O O8 0.000000 0.679682 0.152287
O O9 0.266792 0.355693 0.302508
O O10 0.291900 0.282747 0.360336
O O11 0.000000 0.300925 0.293823
O O12 0.283838 0.456382 0.888810
O O13 0.000000 0.500000 0.922076
O O14 0.279493 0.500000 0.000000
O O15 0.500000 0.907716 0.801033
O O16 0.219540 0.924809 0.731655
O O17 0.710331 0.730394 0.500000
O O18 0.000000 0.725743 0.570750
O O19 0.000000 0.583245 0.153573
#
# Coordination Sequence:
#
# PCOD9520569 Si02
#       7
#    16  16  16   8  16  16  16
#     4   8  13  18  24  40  67  99 135 169 200 240
#     4   9  17  31  49  66  86 114 148 183 218 258
#     4   8  15  28  43  60  82 109 144 182 216 255
#     4   9  16  24  34  52  80 108 130 160 207 254
#     4   8  13  21  34  50  70 100 135 170 207 245
#     4  10  20  31  44  65  90 115 145 181 220 261
#     4   8  15  25  38  58  79 103 137 172 208 252
#
# _framework density 22.301811000000001
#
# number of rings (size 3 to 8) (size 9 to 14) (size 15 to 20)
#    0.000    3.462    0.000    2.769    1.077    1.538 
#    0.000    4.615    0.000    0.000    0.000    0.538 
#    0.000    1.846    0.000    0.000    0.000    0.000 
#
# Total GULP energy -289955.524794 kJ/mol
# GULP energy per Si atom -5576.067784 kJ/mol
# Density = 2.225105 g / cm^3
# Si number density = 22.301811 Si / 1000 Ang^3
#
#
#
# Elastic Constant Matrix: (Units=GPa)
#
#
# Indices 1 2 3 4 5 6 
#
# 1 97.5363 0.0542 3.4706 0.0000 0.0000 0.0000
# 2 0.0542 81.2253 90.2637 0.0000 0.0000 0.0000
# 3 3.4706 90.2637 181.2841 0.0000 0.0000 0.0000
# 4 0.0000 0.0000 0.0000 25.3334 0.0000 0.0000
# 5 0.0000 0.0000 0.0000 0.0000 -8.8399 0.0000
# 6 0.0000 0.0000 0.0000 0.0000 0.0000 -20.8424
#
#
#
# Elastic Compliance Matrix: (Units=1/GPa)
#
#
# Indices 1 2 3 4 5 6 
#
# 1 0.010268 0.000474 -0.000432 0.000000 0.000000 0.000000
# 2 0.000474 0.027584 -0.013743 0.000000 0.000000 0.000000
# 3 -0.000432 -0.013743 0.012367 0.000000 0.000000 0.000000
# 4 0.000000 0.000000 0.000000 0.039474 0.000000 0.000000
# 5 0.000000 0.000000 0.000000 0.000000 -0.113124 0.000000
# 6 0.000000 0.000000 0.000000 0.000000 0.000000 -0.047979
#
#
# Mechanical properties :
#
#
# Convention : Reuss Voigt Hill
#
# Bulk Modulus (GPa) = 43.83129 60.84698 52.33913
# Shear Modulus (GPa) = -137.35909 16.88071 -60.23919
#
# Velocity S-wave (km/s) = -7.85651 2.75420 -5.20284
# Velocity P-wave (km/s) = 7.91222 6.12020 3.54587
#
# Compressibility (1/GPa) = 0.02281475
#
# Stress axis : x y z
#
# Youngs Moduli (GPa) = 97.39268 36.25315 80.85710
#
# Poissons Ratio (x) = -0.01717 0.03496
# Poissons Ratio (y) = -0.04613 1.11125
# Poissons Ratio (z) = 0.04212 0.49824
#
# Static dielectric constant tensor:
#      x y z
#    x 1.189840 0.000000 0.000000 
#    y 0.000000 1.785250 0.000000 
#    z 0.000000 0.000000 1.816230 
# 
# From -- ./inp_files/43970.got.cif
#   From: 2010.05.17/outbox.cif.g08.bks.cpg/sg71_22_cif.got.tgz:43970.got - 2010.06.03 16:22:01.
