data_PCOD9520982
_publ_section_title
;
Structure prediction by ZEFSAII (Michael W. Deem and Ramdas Pophale) SiO2 
 PCOD9520982
Probable space group: I M M M
;
_chemical_formula_sum "Si O2"
_cell_formula_units_Z 96
_cell_length_a 22.985407
_cell_length_b 28.671350
_cell_length_c 8.144639
_cell_angle_alpha 90.000000
_cell_angle_beta 90.000000
_cell_angle_gamma 90.000000
_cell_volume 5367.501569
_symmetry_space_group_name_H-M "I M M M"
_symmetry_group_IT_number 71
_symmetry_cell_setting 'orthorhombic'
loop_
_space_group_symop_operation_xyz
x,y,z
-x,-y,z
x,-y,-z
-x,y,-z
-x,-y,-z
x,y,-z
-x,y,z
x,-y,z
1/2+x,1/2+y,1/2+z
1/2-x,1/2-y,1/2+z
1/2+x,1/2-y,1/2-z
1/2-x,1/2+y,1/2-z
1/2-x,1/2-y,1/2-z
1/2+x,1/2+y,1/2-z
1/2-x,1/2+y,1/2+z
1/2+x,1/2-y,1/2+z
loop_
_atom_site_type_symbol
_atom_site_label
_atom_site_fract_x
_atom_site_fract_y
_atom_site_fract_z
Si Si1 0.805494 0.142658 0.304462
Si Si2 0.808866 0.694671 0.802265
Si Si3 0.626229 0.103915 0.198343
Si Si4 0.500000 0.878183 0.200851
Si Si5 0.381588 0.279864 0.304088
Si Si6 0.742368 0.052393 0.197963
Si Si7 0.500000 0.230429 0.195992
O O1 0.802508 0.142607 0.500000
O O2 0.752073 0.174671 0.237407
O O3 0.864281 0.168492 0.252681
O O4 0.790205 0.090697 0.246728
O O5 0.855678 0.655587 0.754121
O O6 0.832310 0.743799 0.738342
O O7 0.805025 0.697215 0.000000
O O8 0.559843 0.097009 0.253298
O O9 0.678678 0.070573 0.256430
O O10 0.626791 0.102251 0.000000
O O11 0.500000 0.823651 0.255216
O O12 0.500000 0.877627 0.000000
O O13 0.379716 0.279192 0.500000
O O14 0.442962 0.258606 0.250805
O O15 0.753686 0.000000 0.257034
O O16 0.740300 0.051535 0.000000
O O17 0.500000 0.228010 0.000000
#
# Coordination Sequence:
#
# PCOD9520982 Si02
#       7
#    16  16  16   8  16  16   8
#     4  10  20  33  50  73  98 128 164 205 252 302
#     4   9  18  30  45  68  98 129 164 203 246 292
#     4   9  16  28  46  67  94 130 171 209 249 295
#     4   9  16  27  44  67  94 130 174 211 243 282
#     4  11  21  33  48  71 102 134 167 204 245 293
#     4   9  18  33  52  73  97 126 162 209 263 310
#     4  11  21  33  49  70 100 140 176 208 240 284
#
# _framework density 17.885415999999999
#
# number of rings (size 3 to 8) (size 9 to 14) (size 15 to 20)
#    0.000    2.333    1.667    1.750    0.000    1.667 
#    0.000    0.833    0.000    2.500    0.000    0.583 
#    0.000   10.000    0.000    0.000    0.000    0.000 
#
# Total GULP energy -267583.119176 kJ/mol
# GULP energy per Si atom -5574.648316 kJ/mol
# Density = 1.784471 g / cm^3
# Si number density = 17.885416 Si / 1000 Ang^3
#
#
#
# Elastic Constant Matrix: (Units=GPa)
#
#
# Indices 1 2 3 4 5 6 
#
# 1 29.8995 34.2084 5.4145 0.0000 0.0000 0.0000
# 2 34.2084 117.0505 18.0733 0.0000 0.0000 0.0000
# 3 5.4145 18.0733 17.6338 0.0000 0.0000 0.0000
# 4 0.0000 0.0000 0.0000 18.3572 0.0000 0.0000
# 5 0.0000 0.0000 0.0000 0.0000 16.8080 0.0000
# 6 0.0000 0.0000 0.0000 0.0000 0.0000 18.9585
#
#
#
# Elastic Compliance Matrix: (Units=1/GPa)
#
#
# Indices 1 2 3 4 5 6 
#
# 1 0.050249 -0.014616 -0.000449 0.000000 0.000000 0.000000
# 2 -0.014616 0.014401 -0.010272 0.000000 0.000000 0.000000
# 3 -0.000449 -0.010272 0.067375 0.000000 0.000000 0.000000
# 4 0.000000 0.000000 0.000000 0.054475 0.000000 0.000000
# 5 0.000000 0.000000 0.000000 0.000000 0.059495 0.000000
# 6 0.000000 0.000000 0.000000 0.000000 0.000000 0.052747
#
#
# Mechanical properties :
#
#
# Convention : Reuss Voigt Hill
#
# Bulk Modulus (GPa) = 12.29234 31.10846 21.70040
# Shear Modulus (GPa) = 13.27906 17.95059 15.61482
#
# Velocity S-wave (km/s) = 2.72775 3.17147 2.95794
# Velocity P-wave (km/s) = 4.09983 5.55355 4.88111
#
# Compressibility (1/GPa) = 0.08135150
#
# Stress axis : x y z
#
# Youngs Moduli (GPa) = 19.90077 69.43953 14.84232
#
# Poissons Ratio (x) = 1.01495 0.00666
# Poissons Ratio (y) = 0.29087 0.15246
# Poissons Ratio (z) = 0.00893 0.71328
#
# Static dielectric constant tensor:
#      x y z
#    x 1.628030 0.000000 0.000000 
#    y 0.000000 1.617270 0.000000 
#    z 0.000000 0.000000 1.617350 
# 
# From -- ./inp_files/13178.got.cif
#   From: 2010.05.17/outbox.cif.g08.bks.cpg/sg71_7_cif.got.tgz:13178.got - 2010.06.03 16:22:01.
