data_PCOD9520718
_publ_section_title
;
Structure prediction by ZEFSAII (Michael W. Deem and Ramdas Pophale) SiO2 
 PCOD9520718
Probable space group: I M M M
;
_chemical_formula_sum "Si O2"
_cell_formula_units_Z 104
_cell_length_a 28.880954
_cell_length_b 8.894184
_cell_length_c 24.691301
_cell_angle_alpha 90.000000
_cell_angle_beta 90.000000
_cell_angle_gamma 90.000000
_cell_volume 6342.516685
_symmetry_space_group_name_H-M "I M M M"
_symmetry_group_IT_number 71
_symmetry_cell_setting 'orthorhombic'
loop_
_space_group_symop_operation_xyz
x,y,z
-x,-y,z
x,-y,-z
-x,y,-z
-x,-y,-z
x,y,-z
-x,y,z
x,-y,z
1/2+x,1/2+y,1/2+z
1/2-x,1/2-y,1/2+z
1/2+x,1/2-y,1/2-z
1/2-x,1/2+y,1/2-z
1/2-x,1/2-y,1/2-z
1/2+x,1/2+y,1/2-z
1/2-x,1/2+y,1/2+z
1/2+x,1/2-y,1/2+z
loop_
_atom_site_type_symbol
_atom_site_label
_atom_site_fract_x
_atom_site_fract_y
_atom_site_fract_z
Si Si1 0.908983 0.180589 0.371007
Si Si2 0.000000 0.182760 0.438031
Si Si3 0.271065 0.827136 0.434339
Si Si4 0.675254 0.178778 0.936118
Si Si5 0.125639 0.681910 0.063298
Si Si6 0.445426 0.179571 0.763356
Si Si7 0.554081 0.679792 0.646818
O O1 0.953792 0.228861 0.406412
O O2 0.863351 0.239090 0.400823
O O3 0.916032 0.248885 0.311590
O O4 0.908595 0.000000 0.368169
O O5 0.000000 0.235903 0.500000
O O6 0.000000 0.000000 0.439075
O O7 0.272647 0.828982 0.500000
O O8 0.226838 0.729182 0.419054
O O9 0.322326 0.774326 0.417987
O O10 0.264363 0.000000 0.416612
O O11 0.670381 0.000000 0.931234
O O12 0.669568 0.218842 0.000000
O O13 0.123474 0.500000 0.066174
O O14 0.086969 0.754365 0.100718
O O15 0.119859 0.723621 0.000000
O O16 0.500000 0.213973 0.773540
O O17 0.433877 0.248449 0.704930
O O18 0.440089 0.000000 0.762305
O O19 0.500000 0.716304 0.635942
O O20 0.558377 0.500000 0.649692
#
# Coordination Sequence:
#
# PCOD9520718 Si02
#       7
#    16   8  16  16  16  16  16
#     4  11  20  32  51  72  99 133 172 215 256 305
#     4   9  18  30  45  69  99 131 166 205 252 303
#     4   8  15  30  51  73  98 131 170 208 247 298
#     4  10  20  32  47  72 104 135 170 212 257 303
#     4   9  18  33  54  80 108 137 169 205 250 302
#     4  10  20  35  54  73  97 130 172 216 258 302
#     4  10  21  35  52  76 106 138 173 209 246 295
#
# _framework density 16.397276000000002
#
# number of rings (size 3 to 8) (size 9 to 14) (size 15 to 20)
#    0.000    2.385    0.769    3.231    0.000    4.308 
#    0.000    3.077    0.000    2.769    0.000    0.000 
#    0.000    0.000    0.000    0.000    0.000    0.000 
#
# Total GULP energy -290032.300663 kJ/mol
# GULP energy per Si atom -5577.544244 kJ/mol
# Density = 1.635996 g / cm^3
# Si number density = 16.397276 Si / 1000 Ang^3
#
#
#
# Elastic Constant Matrix: (Units=GPa)
#
#
# Indices 1 2 3 4 5 6 
#
# 1 126.6775 51.2990 80.9384 0.0000 0.0000 0.0000
# 2 51.2990 51.1424 47.0532 0.0000 0.0000 0.0000
# 3 80.9384 47.0532 104.8230 0.0000 0.0000 0.0000
# 4 0.0000 0.0000 0.0000 27.2641 0.0000 0.0000
# 5 0.0000 0.0000 0.0000 0.0000 4.9182 0.0000
# 6 0.0000 0.0000 0.0000 0.0000 0.0000 26.2454
#
#
#
# Elastic Compliance Matrix: (Units=1/GPa)
#
#
# Indices 1 2 3 4 5 6 
#
# 1 0.017631 -0.008790 -0.009668 0.000000 0.000000 0.000000
# 2 -0.008790 0.037692 -0.010132 0.000000 0.000000 0.000000
# 3 -0.009668 -0.010132 0.021553 0.000000 0.000000 0.000000
# 4 0.000000 0.000000 0.000000 0.036678 0.000000 0.000000
# 5 0.000000 0.000000 0.000000 0.000000 0.203324 0.000000
# 6 0.000000 0.000000 0.000000 0.000000 0.000000 0.038102
#
#
# Mechanical properties :
#
#
# Convention : Reuss Voigt Hill
#
# Bulk Modulus (GPa) = 50.77190 71.24710 61.00950
# Shear Modulus (GPa) = 11.94100 18.57571 15.25836
#
# Velocity S-wave (km/s) = 2.70150 3.36944 3.05379
# Velocity P-wave (km/s) = 6.38449 7.66044 7.05138
#
# Compressibility (1/GPa) = 0.01969593
#
# Stress axis : x y z
#
# Youngs Moduli (GPa) = 56.71955 26.53072 46.39723
#
# Poissons Ratio (x) = 0.23320 0.44856
# Poissons Ratio (y) = 0.49856 0.47011
# Poissons Ratio (z) = 0.54835 0.26882
#
# Static dielectric constant tensor:
#      x y z
#    x 1.546540 0.000000 0.000000 
#    y 0.000000 1.544960 0.000000 
#    z 0.000000 0.000000 1.525800 
# 
# From -- ./inp_files/62282.got.cif
#   From: 2010.05.17/outbox.cif.g08.bks.cpg/sg71_32_cif.got.tgz:62282.got - 2010.06.03 16:22:01.
