data_PCOD9520994
_publ_section_title
;
Structure prediction by ZEFSAII (Michael W. Deem and Ramdas Pophale) SiO2 
 PCOD9520994
Probable space group: I M M M
;
_chemical_formula_sum "Si O2"
_cell_formula_units_Z 104
_cell_length_a 9.177473
_cell_length_b 22.165678
_cell_length_c 27.875198
_cell_angle_alpha 90.000000
_cell_angle_beta 90.000000
_cell_angle_gamma 90.000000
_cell_volume 5670.509683
_symmetry_space_group_name_H-M "I M M M"
_symmetry_group_IT_number 71
_symmetry_cell_setting 'orthorhombic'
loop_
_space_group_symop_operation_xyz
x,y,z
-x,-y,z
x,-y,-z
-x,y,-z
-x,-y,-z
x,y,-z
-x,y,z
x,-y,z
1/2+x,1/2+y,1/2+z
1/2-x,1/2-y,1/2+z
1/2+x,1/2-y,1/2-z
1/2-x,1/2+y,1/2-z
1/2-x,1/2-y,1/2-z
1/2+x,1/2+y,1/2-z
1/2-x,1/2+y,1/2+z
1/2+x,1/2-y,1/2+z
loop_
_atom_site_type_symbol
_atom_site_label
_atom_site_fract_x
_atom_site_fract_y
_atom_site_fract_z
Si Si1 0.176808 0.367720 0.053635
Si Si2 0.667249 0.214515 0.184757
Si Si3 0.325957 0.267178 0.414793
Si Si4 0.674873 0.928437 0.653635
Si Si5 0.667671 0.346682 0.766692
Si Si6 0.833573 0.000000 0.941062
Si Si7 0.337749 0.884410 0.055993
O O1 0.216252 0.298014 0.064069
O O2 0.221709 0.406272 0.100228
O O3 0.000000 0.370801 0.052644
O O4 0.227688 0.385607 0.000000
O O5 0.500000 0.199971 0.172068
O O6 0.769287 0.225783 0.139235
O O7 0.663472 0.279272 0.211102
O O8 0.736403 0.163571 0.219017
O O9 0.500000 0.271830 0.417521
O O10 0.249605 0.322567 0.440836
O O11 0.500000 0.916902 0.657720
O O12 0.757977 0.890795 0.694572
O O13 0.698690 0.000000 0.658319
O O14 0.500000 0.364568 0.756799
O O15 0.751776 0.940312 0.923328
O O16 0.000000 0.000000 0.925568
O O17 0.835575 0.000000 0.000000
O O18 0.500000 0.879056 0.076491
O O19 0.352745 0.898603 0.000000
#
# Coordination Sequence:
#
# PCOD9520994 Si02
#       7
#    16  16  16  16  16   8  16
#     4   9  18  32  51  79 115 152 193 243 289 330
#     4  10  20  34  56  83 110 138 174 220 276 338
#     4  11  20  32  53  80 113 148 186 231 283 339
#     4  10  20  35  57  83 113 152 197 242 289 342
#     4  10  20  35  57  83 110 139 176 223 277 335
#     4   9  17  31  51  73  97 131 179 225 263 313
#     4  10  20  33  50  74 106 143 182 224 273 329
#
# _framework density 18.340502999999998
#
# number of rings (size 3 to 8) (size 9 to 14) (size 15 to 20)
#    0.000    2.077    1.538    2.538    0.000    4.308 
#    0.000    1.538    1.692    1.385    0.000    1.077 
#    0.000    0.000    0.000    0.000    0.000    0.000 
#
# Total GULP energy -289865.889205 kJ/mol
# GULP energy per Si atom -5574.344023 kJ/mol
# Density = 1.829876 g / cm^3
# Si number density = 18.340503 Si / 1000 Ang^3
#
#
#
# Elastic Constant Matrix: (Units=GPa)
#
#
# Indices 1 2 3 4 5 6 
#
# 1 94.2755 40.5702 9.7399 0.0000 0.0000 0.0000
# 2 40.5702 74.6632 10.0073 0.0000 0.0000 0.0000
# 3 9.7399 10.0073 39.7539 0.0000 0.0000 0.0000
# 4 0.0000 0.0000 0.0000 20.9525 0.0000 0.0000
# 5 0.0000 0.0000 0.0000 0.0000 22.4583 0.0000
# 6 0.0000 0.0000 0.0000 0.0000 0.0000 21.6015
#
#
#
# Elastic Compliance Matrix: (Units=1/GPa)
#
#
# Indices 1 2 3 4 5 6 
#
# 1 0.013938 -0.007364 -0.001561 0.000000 0.000000 0.000000
# 2 -0.007364 0.017752 -0.002665 0.000000 0.000000 0.000000
# 3 -0.001561 -0.002665 0.026208 0.000000 0.000000 0.000000
# 4 0.000000 0.000000 0.000000 0.047727 0.000000 0.000000
# 5 0.000000 0.000000 0.000000 0.000000 0.044527 0.000000
# 6 0.000000 0.000000 0.000000 0.000000 0.000000 0.046293
#
#
# Mechanical properties :
#
#
# Convention : Reuss Voigt Hill
#
# Bulk Modulus (GPa) = 28.80318 36.59194 32.69756
# Shear Modulus (GPa) = 21.62661 22.89414 22.26038
#
# Velocity S-wave (km/s) = 3.43763 3.53694 3.48764
# Velocity P-wave (km/s) = 5.61206 6.05596 5.83823
#
# Compressibility (1/GPa) = 0.03471839
#
# Stress axis : x y z
#
# Youngs Moduli (GPa) = 71.74878 56.33143 38.15631
#
# Poissons Ratio (x) = 0.41483 0.05956
# Poissons Ratio (y) = 0.52836 0.10167
# Poissons Ratio (z) = 0.11200 0.15010
#
# Static dielectric constant tensor:
#      x y z
#    x 1.637370 0.000000 0.000000 
#    y 0.000000 1.608030 0.000000 
#    z 0.000000 0.000000 1.696440 
# 
# From -- ./inp_files/11085.got.cif
#   From: 2010.05.17/outbox.cif.g08.bks.cpg/sg71_6_cif.got.tgz:11085.got - 2010.06.03 16:22:01.
