data_PCOD9520381
_publ_section_title
;
Structure prediction by ZEFSAII (Michael W. Deem and Ramdas Pophale) SiO2 
 PCOD9520381
Probable space group: I M M M
;
_chemical_formula_sum "Si O2"
_cell_formula_units_Z 104
_cell_length_a 10.821595
_cell_length_b 28.438665
_cell_length_c 18.545155
_cell_angle_alpha 90.000000
_cell_angle_beta 90.000000
_cell_angle_gamma 90.000000
_cell_volume 5707.303256
_symmetry_space_group_name_H-M "I M M M"
_symmetry_group_IT_number 71
_symmetry_cell_setting 'orthorhombic'
loop_
_space_group_symop_operation_xyz
x,y,z
-x,-y,z
x,-y,-z
-x,y,-z
-x,-y,-z
x,y,-z
-x,y,z
x,-y,z
1/2+x,1/2+y,1/2+z
1/2-x,1/2-y,1/2+z
1/2+x,1/2-y,1/2-z
1/2-x,1/2+y,1/2-z
1/2-x,1/2-y,1/2-z
1/2+x,1/2+y,1/2-z
1/2-x,1/2+y,1/2+z
1/2+x,1/2-y,1/2+z
loop_
_atom_site_type_symbol
_atom_site_label
_atom_site_fract_x
_atom_site_fract_y
_atom_site_fract_z
Si Si1 0.855355 0.206378 0.341998
Si Si2 0.867113 0.553920 0.853095
Si Si3 0.712618 0.054128 0.191144
Si Si4 0.355762 0.650311 0.700062
Si Si5 0.000000 0.443404 0.580313
Si Si6 0.645595 0.727955 0.413440
Si Si7 0.633633 0.606787 0.914711
O O1 0.811047 0.184662 0.264952
O O2 0.751165 0.240424 0.375200
O O3 0.861549 0.161365 0.394330
O O4 0.000000 0.224313 0.335702
O O5 0.859514 0.500000 0.878360
O O6 0.860528 0.552913 0.766548
O O7 0.749698 0.581633 0.880248
O O8 0.000000 0.573842 0.876029
O O9 0.804487 0.097727 0.199246
O O10 0.620831 0.067547 0.126549
O O11 0.759493 0.000000 0.180127
O O12 0.500000 0.646494 0.715379
O O13 0.339045 0.677155 0.624473
O O14 0.000000 0.500000 0.575338
O O15 0.000000 0.423377 0.500000
O O16 0.662043 0.727399 0.500000
O O17 0.500000 0.742092 0.399470
O O18 0.500000 0.588350 0.888197
O O19 0.638466 0.600779 0.000000
#
# Coordination Sequence:
#
# PCOD9520381 Si02
#       7
#    16  16  16  16   8  16  16
#     4  10  20  38  61  85 115 151 195 244 291 348
#     4  10  20  35  55  79 112 152 195 244 293 343
#     4  10  19  35  59  86 118 155 194 237 287 347
#     4  10  21  38  60  88 118 151 192 238 292 350
#     4   9  18  34  56  82 115 155 195 239 292 342
#     4  10  22  40  60  84 118 155 190 238 299 354
#     4  10  21  36  55  81 114 152 193 242 297 349
#
# _framework density 18.222266999999999
#
# number of rings (size 3 to 8) (size 9 to 14) (size 15 to 20)
#    0.000    2.077    2.308    0.923    0.000    3.385 
#    2.769    3.077    0.000    0.000    0.000    4.308 
#    0.000    0.000    0.000    0.000    0.000    0.000 
#
# Total GULP energy -289573.074209 kJ/mol
# GULP energy per Si atom -5568.712966 kJ/mol
# Density = 1.818079 g / cm^3
# Si number density = 18.222267 Si / 1000 Ang^3
#
#
#
# Elastic Constant Matrix: (Units=GPa)
#
#
# Indices 1 2 3 4 5 6 
#
# 1 109.3817 62.5111 40.6754 0.0000 0.0000 0.0000
# 2 62.5111 78.3007 31.7966 0.0000 0.0000 0.0000
# 3 40.6754 31.7966 88.3326 0.0000 0.0000 0.0000
# 4 0.0000 0.0000 0.0000 17.8370 0.0000 0.0000
# 5 0.0000 0.0000 0.0000 0.0000 20.5417 0.0000
# 6 0.0000 0.0000 0.0000 0.0000 0.0000 61.9228
#
#
#
# Elastic Compliance Matrix: (Units=1/GPa)
#
#
# Indices 1 2 3 4 5 6 
#
# 1 0.017738 -0.012701 -0.003596 0.000000 0.000000 0.000000
# 2 -0.012701 0.024052 -0.002809 0.000000 0.000000 0.000000
# 3 -0.003596 -0.002809 0.013988 0.000000 0.000000 0.000000
# 4 0.000000 0.000000 0.000000 0.056063 0.000000 0.000000
# 5 0.000000 0.000000 0.000000 0.000000 0.048681 0.000000
# 6 0.000000 0.000000 0.000000 0.000000 0.000000 0.016149
#
#
# Mechanical properties :
#
#
# Convention : Reuss Voigt Hill
#
# Bulk Modulus (GPa) = 56.93045 60.66458 58.79751
# Shear Modulus (GPa) = 22.65117 29.46244 26.05680
#
# Velocity S-wave (km/s) = 3.52952 4.02535 3.78556
# Velocity P-wave (km/s) = 6.92243 7.41406 7.17246
#
# Compressibility (1/GPa) = 0.01756529
#
# Stress axis : x y z
#
# Youngs Moduli (GPa) = 56.37618 41.57718 71.48953
#
# Poissons Ratio (x) = 0.52806 0.25709
# Poissons Ratio (y) = 0.71602 0.20084
# Poissons Ratio (z) = 0.20274 0.11680
#
# Static dielectric constant tensor:
#      x y z
#    x 1.656120 0.000000 0.000000 
#    y 0.000000 1.612330 0.000000 
#    z 0.000000 0.000000 1.658290 
# 
# From -- ./inp_files/43799.got.cif
#   From: 2010.05.17/outbox.cif.g08.bks.cpg/sg71_22_cif.got.tgz:43799.got - 2010.06.03 16:22:01.
