data_PCOD9520308
_publ_section_title
;
Structure prediction by ZEFSAII (Michael W. Deem and Ramdas Pophale) SiO2 
 PCOD9520308
Probable space group: I M M M
;
_chemical_formula_sum "Si O2"
_cell_formula_units_Z 128
_cell_length_a 17.188103
_cell_length_b 24.774878
_cell_length_c 15.858451
_cell_angle_alpha 90.000000
_cell_angle_beta 90.000000
_cell_angle_gamma 90.000000
_cell_volume 6753.054221
_symmetry_space_group_name_H-M "I M M M"
_symmetry_group_IT_number 71
_symmetry_cell_setting 'orthorhombic'
loop_
_space_group_symop_operation_xyz
x,y,z
-x,-y,z
x,-y,-z
-x,y,-z
-x,-y,-z
x,y,-z
-x,y,z
x,-y,z
1/2+x,1/2+y,1/2+z
1/2-x,1/2-y,1/2+z
1/2+x,1/2-y,1/2-z
1/2-x,1/2+y,1/2-z
1/2-x,1/2-y,1/2-z
1/2+x,1/2+y,1/2-z
1/2-x,1/2+y,1/2+z
1/2+x,1/2-y,1/2+z
loop_
_atom_site_type_symbol
_atom_site_label
_atom_site_fract_x
_atom_site_fract_y
_atom_site_fract_z
Si Si1 0.585674 0.638795 0.636956
Si Si2 0.170240 0.562576 0.759966
Si Si3 0.588807 0.170385 0.754055
Si Si4 0.089839 0.152529 0.338564
Si Si5 0.798443 0.063179 0.596403
Si Si6 0.226640 0.062145 0.906927
Si Si7 0.202314 0.254601 0.662097
Si Si8 0.134315 0.258249 0.092075
O O1 0.500000 0.618740 0.613179
O O2 0.591368 0.640434 0.738496
O O3 0.654763 0.602287 0.603098
O O4 0.595529 0.700102 0.606405
O O5 0.145887 0.500000 0.768264
O O6 0.104104 0.607486 0.761123
O O7 0.231362 0.574943 0.835236
O O8 0.215502 0.568866 0.671318
O O9 0.500000 0.181795 0.777115
O O10 0.648563 0.193155 0.824337
O O11 0.608746 0.202816 0.667976
O O12 0.129608 0.102357 0.385269
O O13 0.144271 0.204664 0.351057
O O14 0.000000 0.161450 0.363038
O O15 0.771573 0.071009 0.500000
O O16 0.819612 0.000000 0.606780
O O17 0.198817 0.000000 0.902215
O O18 0.262427 0.069971 0.000000
O O19 0.250000 0.250000 0.750000
O O20 0.272823 0.252783 0.596962
O O21 0.113823 0.279907 0.000000
#
# Coordination Sequence:
#
# PCOD9520308 Si02
#       8
#    16  16  16  16  16  16  16  16
#     4  11  21  34  54  83 117 152 186 230 288 346
#     4  10  21  39  62  86 114 148 192 244 292 342
#     4  11  22  37  59  85 116 152 189 236 295 356
#     4  11  21  34  55  81 113 147 186 239 293 341
#     4  10  21  38  60  84 113 155 204 244 281 335
#     4  10  21  37  58  84 114 151 192 233 284 346
#     4  10  19  35  57  78 105 146 191 230 278 334
#     4  11  23  37  58  87 116 151 197 241 286 346
#
# _framework density 18.954386
#
# number of rings (size 3 to 8) (size 9 to 14) (size 15 to 20)
#    0.000    1.500    3.750    3.375    0.000    4.750 
#    0.000    2.500    0.000    2.250    0.000    4.375 
#    0.000    0.000    0.000    0.000    0.000    0.000 
#
# Total GULP energy -357295.238390 kJ/mol
# GULP energy per Si atom -5582.738100 kJ/mol
# Density = 1.891125 g / cm^3
# Si number density = 18.954386 Si / 1000 Ang^3
#
#
#
# Elastic Constant Matrix: (Units=GPa)
#
#
# Indices 1 2 3 4 5 6 
#
# 1 73.6740 27.4783 0.1377 0.0000 0.0000 0.0000
# 2 27.4783 69.1601 5.4698 0.0000 0.0000 0.0000
# 3 0.1377 5.4698 67.6322 0.0000 0.0000 0.0000
# 4 0.0000 0.0000 0.0000 13.6404 0.0000 0.0000
# 5 0.0000 0.0000 0.0000 0.0000 -0.4898 0.0000
# 6 0.0000 0.0000 0.0000 0.0000 0.0000 4.9024
#
#
#
# Elastic Compliance Matrix: (Units=1/GPa)
#
#
# Indices 1 2 3 4 5 6 
#
# 1 0.015950 -0.006375 0.000483 0.000000 0.000000 0.000000
# 2 -0.006375 0.017101 -0.001370 0.000000 0.000000 0.000000
# 3 0.000483 -0.001370 0.014896 0.000000 0.000000 0.000000
# 4 0.000000 0.000000 0.000000 0.073312 -0.000001 0.000000
# 5 0.000000 0.000000 0.000000 -0.000001 -2.041635 -0.000002
# 6 0.000000 0.000000 0.000000 0.000000 -0.000002 0.203980
#
#
# Mechanical properties :
#
#
# Convention : Reuss Voigt Hill
#
# Bulk Modulus (GPa) = 29.92055 30.73752 30.32904
# Shear Modulus (GPa) = -2.95730 15.43598 6.23934
#
# Velocity S-wave (km/s) = -1.25044 2.85682 1.81629
# Velocity P-wave (km/s) = 3.70608 5.20900 4.52044
#
# Compressibility (1/GPa) = 0.03342184
#
# Stress axis : x y z
#
# Youngs Moduli (GPa) = 62.69487 58.47741 67.13356
#
# Poissons Ratio (x) = 0.37282 -0.03244
# Poissons Ratio (y) = 0.39971 0.09198
# Poissons Ratio (z) = -0.03029 0.08012
#
# Static dielectric constant tensor:
#      x y z
#    x 1.646170 0.000000 0.000000 
#    y 0.000000 1.656960 0.000000 
#    z 0.000000 0.000000 1.669970 
# 
# From -- ./inp_files/46666.got.cif
#   From: 2010.05.17/outbox.cif.g08.bks.cpg/sg71_24_cif.got.tgz:46666.got - 2010.06.03 16:22:01.
