data_PCOD9520322
_publ_section_title
;
Structure prediction by ZEFSAII (Michael W. Deem and Ramdas Pophale) SiO2 
 PCOD9520322
Probable space group: I M M M
;
_chemical_formula_sum "Si O2"
_cell_formula_units_Z 92
_cell_length_a 22.132244
_cell_length_b 26.610113
_cell_length_c 7.636962
_cell_angle_alpha 90.000000
_cell_angle_beta 90.000000
_cell_angle_gamma 90.000000
_cell_volume 4497.723961
_symmetry_space_group_name_H-M "I M M M"
_symmetry_group_IT_number 71
_symmetry_cell_setting 'orthorhombic'
loop_
_space_group_symop_operation_xyz
x,y,z
-x,-y,z
x,-y,-z
-x,y,-z
-x,-y,-z
x,y,-z
-x,y,z
x,-y,z
1/2+x,1/2+y,1/2+z
1/2-x,1/2-y,1/2+z
1/2+x,1/2-y,1/2-z
1/2-x,1/2+y,1/2-z
1/2-x,1/2-y,1/2-z
1/2+x,1/2+y,1/2-z
1/2-x,1/2+y,1/2+z
1/2+x,1/2-y,1/2+z
loop_
_atom_site_type_symbol
_atom_site_label
_atom_site_fract_x
_atom_site_fract_y
_atom_site_fract_z
Si Si1 0.852856 0.905540 0.294457
Si Si2 0.500000 0.064107 0.500000
Si Si3 0.430548 0.500000 0.215075
Si Si4 0.271073 0.941992 0.292565
Si Si5 0.068928 0.811229 0.204811
Si Si6 0.402589 0.911021 0.202236
Si Si7 0.069055 0.700018 0.290471
O O1 0.845713 0.916852 0.500000
O O2 0.784736 0.908802 0.223356
O O3 0.886520 0.852716 0.279452
O O4 0.895501 0.950095 0.224928
O O5 0.552654 0.065192 0.344506
O O6 0.500000 0.500000 0.271944
O O7 0.431532 0.500000 0.000000
O O8 0.280387 0.932617 0.500000
O O9 0.335846 0.933464 0.207875
O O10 0.252097 0.000000 0.271732
O O11 0.091154 0.753965 0.226636
O O12 0.000000 0.813853 0.278522
O O13 0.064799 0.821741 0.000000
O O14 0.398191 0.851692 0.253456
O O15 0.425146 0.913689 0.000000
O O16 0.067371 0.703405 0.500000
O O17 0.000000 0.693905 0.224240
#
# Coordination Sequence:
#
# PCOD9520322 Si02
#       7
#    16   4   8  16  16  16  16
#     4  10  19  35  57  83 115 155 204 253 303 366
#     4  12  22  40  69  96 132 162 190 261 312 358
#     4   9  16  28  53  85 113 149 200 257 308 360
#     4  10  21  40  63  87 118 161 208 252 310 377
#     4  10  21  33  52  83 120 158 201 250 308 368
#     4  11  23  39  65  98 125 161 209 248 305 376
#     4   9  18  34  57  85 117 151 194 247 300 363
#
# _framework density 20.454789999999999
#
# number of rings (size 3 to 8) (size 9 to 14) (size 15 to 20)
#    0.000    2.000    2.609    1.304    1.217    2.783 
#    0.000    2.174    0.000    2.609    0.000    0.000 
#    0.000    0.000    0.000    0.000    0.000    0.000 
#
# Total GULP energy -256192.911717 kJ/mol
# GULP energy per Si atom -5569.411124 kJ/mol
# Density = 2.040823 g / cm^3
# Si number density = 20.454790 Si / 1000 Ang^3
#
#
#
# Elastic Constant Matrix: (Units=GPa)
#
#
# Indices 1 2 3 4 5 6 
#
# 1 106.9721 18.4090 31.7703 0.0000 0.0000 0.0000
# 2 18.4090 58.2868 7.8829 0.0000 0.0000 0.0000
# 3 31.7703 7.8829 79.8180 0.0000 0.0000 0.0000
# 4 0.0000 0.0000 0.0000 -3.2757 0.0000 0.0000
# 5 0.0000 0.0000 0.0000 0.0000 8.5218 0.0000
# 6 0.0000 0.0000 0.0000 0.0000 0.0000 -142.3098
#
#
#
# Elastic Compliance Matrix: (Units=1/GPa)
#
#
# Indices 1 2 3 4 5 6 
#
# 1 0.011078 -0.002942 -0.004119 0.000000 0.000000 0.000000
# 2 -0.002942 0.018170 -0.000624 0.000000 0.000000 0.000000
# 3 -0.004119 -0.000624 0.014230 0.000000 0.000000 0.000000
# 4 0.000000 0.000000 0.000000 -0.305280 0.000000 0.000000
# 5 0.000000 0.000000 0.000000 0.000000 0.117346 0.000000
# 6 0.000000 0.000000 0.000000 0.000000 0.000000 -0.007027
#
#
# Mechanical properties :
#
#
# Convention : Reuss Voigt Hill
#
# Bulk Modulus (GPa) = 35.57570 40.13346 37.85458
# Shear Modulus (GPa) = -39.44902 -14.94509 -27.19705
#
# Velocity S-wave (km/s) = -4.39634 -2.70597 -3.65035
# Velocity P-wave (km/s) = 2.88796 3.14645 0.88313
#
# Compressibility (1/GPa) = 0.02810907
#
# Stress axis : x y z
#
# Youngs Moduli (GPa) = 90.27107 55.03591 70.27645
#
# Poissons Ratio (x) = 0.16190 0.28945
# Poissons Ratio (y) = 0.26555 0.04382
# Poissons Ratio (z) = 0.37181 0.03432
#
# Static dielectric constant tensor:
#      x y z
#    x 1.735000 0.000000 0.000000 
#    y 0.000000 1.732310 0.000000 
#    z 0.000000 0.000000 1.749740 
# 
# From -- ./inp_files/11022.got.cif
#   From: 2010.05.17/outbox.cif.g08.bks.cpg/sg71_6_cif.got.tgz:11022.got - 2010.06.03 16:22:01.
