data_PCOD9520209
_publ_section_title
;
Structure prediction by ZEFSAII (Michael W. Deem and Ramdas Pophale) SiO2 
 PCOD9520209
Probable space group: I M M M
;
_chemical_formula_sum "Si O2"
_cell_formula_units_Z 104
_cell_length_a 11.028996
_cell_length_b 17.742955
_cell_length_c 27.869613
_cell_angle_alpha 90.000000
_cell_angle_beta 90.000000
_cell_angle_gamma 90.000000
_cell_volume 5453.720394
_symmetry_space_group_name_H-M "I M M M"
_symmetry_group_IT_number 71
_symmetry_cell_setting 'orthorhombic'
loop_
_space_group_symop_operation_xyz
x,y,z
-x,-y,z
x,-y,-z
-x,y,-z
-x,-y,-z
x,y,-z
-x,y,z
x,-y,z
1/2+x,1/2+y,1/2+z
1/2-x,1/2-y,1/2+z
1/2+x,1/2-y,1/2-z
1/2-x,1/2+y,1/2-z
1/2-x,1/2-y,1/2-z
1/2+x,1/2+y,1/2-z
1/2-x,1/2+y,1/2+z
1/2+x,1/2-y,1/2+z
loop_
_atom_site_type_symbol
_atom_site_label
_atom_site_fract_x
_atom_site_fract_y
_atom_site_fract_z
Si Si1 0.866676 0.089981 0.294203
Si Si2 0.645605 0.152813 0.947033
Si Si3 0.854994 0.582525 0.348417
Si Si4 0.133847 0.336322 0.153110
Si Si5 0.742711 0.322434 0.944187
Si Si6 0.698383 0.693666 0.710405
Si Si7 0.000000 0.914548 0.558184
O O1 0.748853 0.121873 0.322244
O O2 0.868046 0.130677 0.242238
O O3 0.000000 0.106981 0.316846
O O4 0.855917 0.000000 0.290112
O O5 0.500000 0.164481 0.944778
O O6 0.679476 0.099056 0.903450
O O7 0.706284 0.234469 0.941792
O O8 0.674009 0.122597 0.000000
O O9 0.811150 0.500000 0.333105
O O10 0.803045 0.649200 0.316900
O O11 0.000000 0.582940 0.345485
O O12 0.157617 0.337916 0.096141
O O13 0.136196 0.249966 0.172627
O O14 0.000000 0.367698 0.165020
O O15 0.622506 0.369812 0.930155
O O16 0.773719 0.339537 0.000000
O O17 0.750000 0.750000 0.750000
O O18 0.000000 0.918306 0.500000
O O19 0.000000 0.000000 0.577174
#
# Coordination Sequence:
#
# PCOD9520209 Si02
#       7
#    16  16  16  16  16  16   8
#     4  10  23  42  64  88 115 151 196 248 303 358
#     4   9  16  29  52  84 121 160 199 241 292 349
#     4  10  20  33  55  89 125 160 197 244 303 360
#     4  11  24  39  60  90 121 157 197 241 298 358
#     4  10  19  34  57  85 120 160 199 244 294 349
#     4  10  21  38  58  82 112 152 197 245 294 352
#     4   9  18  32  54  86 117 151 201 253 298 346
#
# _framework density 19.069551000000001
#
# number of rings (size 3 to 8) (size 9 to 14) (size 15 to 20)
#    0.000    2.077    2.308    0.923    1.077    6.462 
#    0.000    1.538    0.000    0.000    0.000    3.231 
#    0.000    2.462    0.000    0.000    0.000    0.000 
#
# Total GULP energy -289815.660384 kJ/mol
# GULP energy per Si atom -5573.378084 kJ/mol
# Density = 1.902615 g / cm^3
# Si number density = 19.069551 Si / 1000 Ang^3
#
#
#
# Elastic Constant Matrix: (Units=GPa)
#
#
# Indices 1 2 3 4 5 6 
#
# 1 99.4347 42.1872 43.6089 0.0000 0.0000 0.0000
# 2 42.1872 87.9732 31.5720 0.0000 0.0000 0.0000
# 3 43.6089 31.5720 91.2197 0.0000 0.0000 0.0000
# 4 0.0000 0.0000 0.0000 13.8850 0.0000 0.0000
# 5 0.0000 0.0000 0.0000 0.0000 20.6441 0.0000
# 6 0.0000 0.0000 0.0000 0.0000 0.0000 20.1520
#
#
#
# Elastic Compliance Matrix: (Units=1/GPa)
#
#
# Indices 1 2 3 4 5 6 
#
# 1 0.014480 -0.005092 -0.005160 0.000000 0.000000 0.000000
# 2 -0.005092 0.014770 -0.002678 0.000000 0.000000 0.000000
# 3 -0.005160 -0.002678 0.014356 0.000000 0.000000 0.000000
# 4 0.000000 0.000000 0.000000 0.072020 0.000000 0.000000
# 5 0.000000 0.000000 0.000000 0.000000 0.048440 0.000000
# 6 0.000000 0.000000 0.000000 0.000000 0.000000 0.049623
#
#
# Mechanical properties :
#
#
# Convention : Reuss Voigt Hill
#
# Bulk Modulus (GPa) = 56.34849 57.04041 56.69445
# Shear Modulus (GPa) = 20.36954 21.68688 21.02821
#
# Velocity S-wave (km/s) = 3.27183 3.37597 3.32431
# Velocity P-wave (km/s) = 6.62467 6.72109 6.67305
#
# Compressibility (1/GPa) = 0.01774670
#
# Stress axis : x y z
#
# Youngs Moduli (GPa) = 69.05913 67.70496 69.65648
#
# Poissons Ratio (x) = 0.34476 0.35943
# Poissons Ratio (y) = 0.35166 0.18652
# Poissons Ratio (z) = 0.35635 0.18129
#
# Static dielectric constant tensor:
#      x y z
#    x 1.665500 0.000000 0.000000 
#    y 0.000000 1.646920 0.000000 
#    z 0.000000 0.000000 1.699950 
# 
# From -- ./inp_files/64665.got.cif
#   From: 2010.05.17/outbox.cif.g08.bks.cpg/sg71_33_cif.got.tgz:64665.got - 2010.06.03 16:22:01.
