data_PCOD9520479
_publ_section_title
;
Structure prediction by ZEFSAII (Michael W. Deem and Ramdas Pophale) SiO2 
 PCOD9520479
Probable space group: I M M M
;
_chemical_formula_sum "Si O2"
_cell_formula_units_Z 66
_cell_length_a 7.808987
_cell_length_b 24.218550
_cell_length_c 16.738275
_cell_angle_alpha 90.000000
_cell_angle_beta 90.000000
_cell_angle_gamma 90.000000
_cell_volume 3165.581771
_symmetry_space_group_name_H-M "I M M M"
_symmetry_group_IT_number 71
_symmetry_cell_setting 'orthorhombic'
loop_
_space_group_symop_operation_xyz
x,y,z
-x,-y,z
x,-y,-z
-x,y,-z
-x,-y,-z
x,y,-z
-x,y,z
x,-y,z
1/2+x,1/2+y,1/2+z
1/2-x,1/2-y,1/2+z
1/2+x,1/2-y,1/2-z
1/2-x,1/2+y,1/2-z
1/2-x,1/2-y,1/2-z
1/2+x,1/2+y,1/2-z
1/2-x,1/2+y,1/2+z
1/2+x,1/2-y,1/2+z
loop_
_atom_site_type_symbol
_atom_site_label
_atom_site_fract_x
_atom_site_fract_y
_atom_site_fract_z
Si Si1 0.500000 0.500000 0.000000
Si Si2 0.705793 0.164619 0.339122
Si Si3 0.707515 0.723159 0.591482
Si Si4 0.701035 0.500000 0.589591
Si Si5 0.296608 0.094309 0.500000
Si Si6 0.200440 0.387956 0.322054
O O1 0.653338 0.547511 0.000000
O O2 0.500000 0.169756 0.327545
O O3 0.771040 0.226906 0.352518
O O4 0.728892 0.131184 0.420850
O O5 0.776935 0.131424 0.263172
O O6 0.758525 0.733952 0.500000
O O7 0.500000 0.722857 0.593628
O O8 0.769165 0.663684 0.619750
O O9 0.500000 0.500000 0.579051
O O10 0.780956 0.500000 0.500000
O O11 0.740085 0.444737 0.638903
O O12 0.500000 0.076561 0.500000
O O13 0.000000 0.395869 0.309374
#
# Coordination Sequence:
#
# PCOD9520479 Si02
#       6
#     2  16  16   8   8  16
#     4  12  26  40  60 106 120 160 240 258 312 386
#     4   9  19  39  65  88 122 171 210 246 316 380
#     4  10  19  36  62  90 122 165 211 247 303 387
#     4  11  25  46  65  82 114 163 210 247 300 383
#     4  10  21  45  67  88 133 182 215 270 319 377
#     4  11  23  38  60  94 124 155 204 260 321 375
#
# _framework density 20.849249
#
# number of rings (size 3 to 8) (size 9 to 14) (size 15 to 20)
#    0.000    1.818    1.212    2.727    0.000    5.333 
#    8.727    3.636    0.000    0.000    0.000    0.000 
#    0.000    0.000    0.000    0.000    0.000    0.000 
#
# Total GULP energy -183992.959502 kJ/mol
# GULP energy per Si atom -5575.544227 kJ/mol
# Density = 2.080180 g / cm^3
# Si number density = 20.849249 Si / 1000 Ang^3
#
#
#
# Elastic Constant Matrix: (Units=GPa)
#
#
# Indices 1 2 3 4 5 6 
#
# 1 53.0267 35.4407 9.0463 0.0000 0.0000 0.0000
# 2 35.4407 210.4595 83.9905 -0.0001 0.0000 0.0000
# 3 9.0463 83.9905 138.5396 -0.0007 -0.0003 0.0001
# 4 0.0000 -0.0001 -0.0007 49.6888 -0.0002 0.0001
# 5 0.0000 0.0000 -0.0003 -0.0002 6.3414 0.0000
# 6 0.0000 0.0000 0.0001 0.0001 0.0000 -10.4039
#
#
#
# Elastic Compliance Matrix: (Units=1/GPa)
#
#
# Indices 1 2 3 4 5 6 
#
# 1 0.021362 -0.004011 0.001037 0.000000 0.000000 0.000000
# 2 -0.004011 0.007021 -0.003995 0.000000 0.000000 0.000000
# 3 0.001037 -0.003995 0.009572 0.000000 0.000000 0.000000
# 4 0.000000 0.000000 0.000000 0.020125 0.000001 0.000000
# 5 0.000000 0.000000 0.000000 0.000001 0.157695 0.000001
# 6 0.000000 0.000000 0.000000 0.000000 0.000001 -0.096118
#
#
# Mechanical properties :
#
#
# Convention : Reuss Voigt Hill
#
# Bulk Modulus (GPa) = 41.63565 73.22008 57.42787
# Shear Modulus (GPa) = 35.31019 27.36182 31.33600
#
# Velocity S-wave (km/s) = 4.11980 3.62659 3.88103
# Velocity P-wave (km/s) = 6.53020 7.26163 6.90560
#
# Compressibility (1/GPa) = 0.02401788
#
# Stress axis : x y z
#
# Youngs Moduli (GPa) = 46.81117 142.42584 104.46841
#
# Poissons Ratio (x) = 0.57129 -0.10832
# Poissons Ratio (y) = 0.18777 0.41732
# Poissons Ratio (z) = -0.04854 0.56895
#
# Static dielectric constant tensor:
#      x y z
#    x 1.757290 0.000000 0.000000 
#    y 0.000000 1.559540 0.000000 
#    z 0.000000 0.000000 1.791670 
# 
# From -- ./inp_files/41943.got.cif
#   From: 2010.05.17/outbox.cif.g08.bks.cpg/sg71_21_cif.got.tgz:41943.got - 2010.06.03 16:22:01.
