data_PCOD9520626
_publ_section_title
;
Structure prediction by ZEFSAII (Michael W. Deem and Ramdas Pophale) SiO2 
 PCOD9520626
Probable space group: I M M M
;
_chemical_formula_sum "Si O2"
_cell_formula_units_Z 88
_cell_length_a 14.312885
_cell_length_b 11.304953
_cell_length_c 20.836737
_cell_angle_alpha 90.000000
_cell_angle_beta 90.000000
_cell_angle_gamma 90.000000
_cell_volume 3371.519323
_symmetry_space_group_name_H-M "I M M M"
_symmetry_group_IT_number 71
_symmetry_cell_setting 'orthorhombic'
loop_
_space_group_symop_operation_xyz
x,y,z
-x,-y,z
x,-y,-z
-x,y,-z
-x,-y,-z
x,y,-z
-x,y,z
x,-y,z
1/2+x,1/2+y,1/2+z
1/2-x,1/2-y,1/2+z
1/2+x,1/2-y,1/2-z
1/2-x,1/2+y,1/2-z
1/2-x,1/2-y,1/2-z
1/2+x,1/2+y,1/2-z
1/2-x,1/2+y,1/2+z
1/2+x,1/2-y,1/2+z
loop_
_atom_site_type_symbol
_atom_site_label
_atom_site_fract_x
_atom_site_fract_y
_atom_site_fract_z
Si Si1 0.890359 0.737394 0.078556
Si Si2 0.852920 0.126056 0.751061
Si Si3 0.106374 0.629607 0.412026
Si Si4 0.387022 0.500000 0.425685
Si Si5 0.800592 0.869636 0.602272
Si Si6 0.868390 0.625595 0.738426
O O1 0.861584 0.871022 0.101034
O O2 0.811241 0.649879 0.105117
O O3 0.000000 0.715087 0.092595
O O4 0.883817 0.735169 0.000000
O O5 0.846703 0.127585 0.673148
O O6 0.896104 0.251009 0.770553
O O7 0.743810 0.127120 0.768286
O O8 0.894046 0.000000 0.771389
O O9 0.146857 0.500000 0.429891
O O10 0.160381 0.749530 0.429222
O O11 0.100102 0.626937 0.334842
O O12 0.000000 0.636085 0.434390
O O13 0.500000 0.500000 0.426310
O O14 0.357103 0.500000 0.500000
O O15 0.819209 0.000000 0.574107
O O16 0.894995 0.500000 0.768289
#
# Coordination Sequence:
#
# PCOD9520626 Si02
#       6
#    16  16  16   8  16  16
#     4   9  18  33  53  76 102 130 160 196 240 295
#     4   8  14  25  40  62  93 123 154 193 236 283
#     4   9  18  32  50  72  96 127 172 217 251 287
#     4   7  12  26  48  72  93 117 153 191 228 276
#     4  10  20  31  47  74 104 134 166 200 246 298
#     4   8  13  24  43  63  86 119 158 199 240 279
#
# _framework density 26.100992000000002
#
# number of rings (size 3 to 8) (size 9 to 14) (size 15 to 20)
#    0.000    3.364    0.000    1.091    1.273    1.091 
#    0.000    1.818    0.000    3.818    0.000    2.545 
#    0.000    0.000    0.000    0.000    0.000    0.000 
#
# Total GULP energy -245786.272555 kJ/mol
# GULP energy per Si atom -5586.051649 kJ/mol
# Density = 2.604159 g / cm^3
# Si number density = 26.100992 Si / 1000 Ang^3
#
#
#
# Elastic Constant Matrix: (Units=GPa)
#
#
# Indices 1 2 3 4 5 6 
#
# 1 95.5459 71.4579 -1.7054 0.0000 0.0000 0.0000
# 2 71.4579 321.2394 28.6547 0.0000 0.0000 0.0000
# 3 -1.7054 28.6547 79.0243 0.0000 0.0000 0.0000
# 4 0.0000 0.0000 0.0000 -519.9559 0.0000 0.0000
# 5 0.0000 0.0000 0.0000 0.0000 -55.6301 0.0000
# 6 0.0000 0.0000 0.0000 0.0000 0.0000 14.8610
#
#
#
# Elastic Compliance Matrix: (Units=1/GPa)
#
#
# Indices 1 2 3 4 5 6 
#
# 1 0.012691 -0.002943 0.001341 0.000000 0.000000 0.000000
# 2 -0.002943 0.003899 -0.001477 0.000000 0.000000 0.000000
# 3 0.001341 -0.001477 0.013219 0.000000 0.000000 0.000000
# 4 0.000000 0.000000 0.000000 -0.001923 0.000000 0.000000
# 5 0.000000 0.000000 0.000000 0.000000 -0.017976 0.000000
# 6 0.000000 0.000000 0.000000 0.000000 0.000000 0.067290
#
#
# Mechanical properties :
#
#
# Convention : Reuss Voigt Hill
#
# Bulk Modulus (GPa) = 42.28175 76.95822 59.61999
# Shear Modulus (GPa) = 54.79933 -85.65150 -15.42609
#
# Velocity S-wave (km/s) = 4.58701 -5.73469 -2.43372
# Velocity P-wave (km/s) = 6.65498 3.78154 3.87225
#
# Compressibility (1/GPa) = 0.02365086
#
# Stress axis : x y z
#
# Youngs Moduli (GPa) = 78.79688 256.45640 75.64875
#
# Poissons Ratio (x) = 0.75465 -0.10144
# Poissons Ratio (y) = 0.23187 0.11176
# Poissons Ratio (z) = -0.10566 0.37889
#
# Static dielectric constant tensor:
#      x y z
#    x 1.961430 0.000000 0.000000 
#    y 0.000000 2.108470 0.000000 
#    z 0.000000 0.000000 2.052670 
# 
# From -- ./inp_files/59684.got.cif
#   From: 2010.05.17/outbox.cif.g08.bks.cpg/sg71_30_cif.got.tgz:59684.got - 2010.06.03 16:22:01.
