data_PCOD9520926
_publ_section_title
;
Structure prediction by ZEFSAII (Michael W. Deem and Ramdas Pophale) SiO2 
 PCOD9520926
Probable space group: I M M M
;
_chemical_formula_sum "Si O2"
_cell_formula_units_Z 72
_cell_length_a 23.883732
_cell_length_b 9.467355
_cell_length_c 14.840490
_cell_angle_alpha 90.000000
_cell_angle_beta 90.000000
_cell_angle_gamma 90.000000
_cell_volume 3355.668817
_symmetry_space_group_name_H-M "I M M M"
_symmetry_group_IT_number 71
_symmetry_cell_setting 'orthorhombic'
loop_
_space_group_symop_operation_xyz
x,y,z
-x,-y,z
x,-y,-z
-x,y,-z
-x,-y,-z
x,y,-z
-x,y,z
x,-y,z
1/2+x,1/2+y,1/2+z
1/2-x,1/2-y,1/2+z
1/2+x,1/2-y,1/2-z
1/2-x,1/2+y,1/2-z
1/2-x,1/2-y,1/2-z
1/2+x,1/2+y,1/2-z
1/2-x,1/2+y,1/2+z
1/2+x,1/2-y,1/2+z
loop_
_atom_site_type_symbol
_atom_site_label
_atom_site_fract_x
_atom_site_fract_y
_atom_site_fract_z
Si Si1 0.788014 0.839620 0.134399
Si Si2 0.315948 0.338399 0.154084
Si Si3 0.500000 0.339213 0.389099
Si Si4 0.060992 0.169051 0.608207
Si Si5 0.103412 0.657397 0.895188
O O1 0.729158 0.766761 0.111154
O O2 0.796820 0.847616 0.242269
O O3 0.838035 0.737705 0.105492
O O4 0.792870 0.000000 0.100956
O O5 0.313895 0.500000 0.117236
O O6 0.379607 0.282851 0.148019
O O7 0.500000 0.500000 0.357318
O O8 0.500000 0.345180 0.500000
O O9 0.554920 0.256787 0.356663
O O10 0.063991 0.189301 0.500000
O O11 0.000000 0.225574 0.638612
O O12 0.059863 0.000000 0.624435
O O13 0.106755 0.500000 0.855200
O O14 0.087742 0.641253 0.000000
#
# Coordination Sequence:
#
# PCOD9520926 Si02
#       5
#    16  16   8  16  16
#     4  10  20  33  49  72 102 138 174 214 260 302
#     4   9  18  33  51  73 102 136 171 208 255 311
#     4   9  17  31  51  73  99 129 160 201 252 301
#     4   8  14  27  50  78 103 126 159 207 257 306
#     4  10  20  34  52  73  99 133 173 215 257 304
#
# _framework density 21.456227999999999
#
# number of rings (size 3 to 8) (size 9 to 14) (size 15 to 20)
#    0.000    2.778    0.000    2.333    0.000    4.444 
#    2.000    2.222    0.000    0.667    0.000    1.556 
#    0.000    0.000    0.000    0.000    0.000    0.000 
#
# Total GULP energy -200758.052199 kJ/mol
# GULP energy per Si atom -5576.612561 kJ/mol
# Density = 2.140739 g / cm^3
# Si number density = 21.456228 Si / 1000 Ang^3
#
#
#
# Elastic Constant Matrix: (Units=GPa)
#
#
# Indices 1 2 3 4 5 6 
#
# 1 230.3982 92.8298 9.9094 0.0000 0.0000 0.0000
# 2 92.8298 160.2565 7.2105 0.0000 0.0000 0.0000
# 3 9.9094 7.2105 34.5514 0.0000 0.0000 0.0000
# 4 0.0000 0.0000 0.0000 -0.5281 0.0000 0.0000
# 5 0.0000 0.0000 0.0000 0.0000 27.0611 0.0000
# 6 0.0000 0.0000 0.0000 0.0000 0.0000 25.3898
#
#
#
# Elastic Compliance Matrix: (Units=1/GPa)
#
#
# Indices 1 2 3 4 5 6 
#
# 1 0.005693 -0.003255 -0.000953 0.000000 0.000000 0.000000
# 2 -0.003255 0.008160 -0.000769 0.000000 0.000000 0.000000
# 3 -0.000953 -0.000769 0.029376 0.000000 0.000000 0.000000
# 4 0.000000 0.000000 0.000000 -1.893481 0.000000 0.000000
# 5 0.000000 0.000000 0.000000 0.000000 0.036953 0.000000
# 6 0.000000 0.000000 0.000000 0.000000 0.000000 0.039386
#
#
# Mechanical properties :
#
#
# Convention : Reuss Voigt Hill
#
# Bulk Modulus (GPa) = 30.05361 71.67841 50.86601
# Shear Modulus (GPa) = -2.85247 31.40163 14.27458
#
# Velocity S-wave (km/s) = -1.15426 3.82975 2.58212
# Velocity P-wave (km/s) = 3.50156 7.28253 5.71385
#
# Compressibility (1/GPa) = 0.03327387
#
# Stress axis : x y z
#
# Youngs Moduli (GPa) = 175.66565 122.55096 34.04095
#
# Poissons Ratio (x) = 0.39885 0.03246
# Poissons Ratio (y) = 0.57172 0.02619
# Poissons Ratio (z) = 0.16749 0.09430
#
# Static dielectric constant tensor:
#      x y z
#    x 1.791890 0.000000 0.000000 
#    y 0.000000 1.762820 0.000000 
#    z 0.000000 0.000000 1.857200 
# 
# From -- ./inp_files/7995.got.cif
#   From: 2010.05.17/outbox.cif.g08.bks.cpg/sg71_4_cif.got.tgz:7995.got - 2010.06.03 16:22:01.
