data_PCOD9520543
_publ_section_title
;
Structure prediction by ZEFSAII (Michael W. Deem and Ramdas Pophale) SiO2 
 PCOD9520543
Probable space group: I M M M
;
_chemical_formula_sum "Si O2"
_cell_formula_units_Z 96
_cell_length_a 13.588690
_cell_length_b 12.265872
_cell_length_c 34.080914
_cell_angle_alpha 90.000000
_cell_angle_beta 90.000000
_cell_angle_gamma 90.000000
_cell_volume 5680.509008
_symmetry_space_group_name_H-M "I M M M"
_symmetry_group_IT_number 71
_symmetry_cell_setting 'orthorhombic'
loop_
_space_group_symop_operation_xyz
x,y,z
-x,-y,z
x,-y,-z
-x,y,-z
-x,-y,-z
x,y,-z
-x,y,z
x,-y,z
1/2+x,1/2+y,1/2+z
1/2-x,1/2-y,1/2+z
1/2+x,1/2-y,1/2-z
1/2-x,1/2+y,1/2-z
1/2-x,1/2-y,1/2-z
1/2+x,1/2+y,1/2-z
1/2-x,1/2+y,1/2+z
1/2+x,1/2-y,1/2+z
loop_
_atom_site_type_symbol
_atom_site_label
_atom_site_fract_x
_atom_site_fract_y
_atom_site_fract_z
Si Si1 0.617238 0.123136 0.702195
Si Si2 0.759107 0.235323 0.850667
Si Si3 0.214020 0.000000 0.160199
Si Si4 0.881095 0.125266 0.500000
Si Si5 0.111891 0.500000 0.601044
Si Si6 0.116996 0.000000 0.244932
Si Si7 0.616043 0.737300 0.779268
Si Si8 0.616739 0.241240 0.921995
O O1 0.500000 0.125329 0.697662
O O2 0.667901 0.172154 0.664041
O O3 0.640439 0.198045 0.739582
O O4 0.648859 0.000000 0.709900
O O5 0.682365 0.221056 0.814645
O O6 0.691870 0.269021 0.887161
O O7 0.817622 0.120455 0.855016
O O8 0.322673 0.000000 0.140324
O O9 0.184823 0.000000 0.206054
O O10 0.855692 0.193392 0.461057
O O11 0.000000 0.119778 0.500000
O O12 0.844736 0.000000 0.500000
O O13 0.127141 0.390356 0.575989
O O14 0.000000 0.500000 0.614433
O O15 0.131937 0.109476 0.270064
O O16 0.000000 0.000000 0.232709
O O17 0.500000 0.753454 0.787822
O O18 0.500000 0.262869 0.913261
#
# Coordination Sequence:
#
# PCOD9520543 Si02
#       8
#    16  16   8   8   8   8  16  16
#     4  10  22  36  49  68  94 129 170 205 245 289
#     4  11  21  32  52  70  98 127 163 204 247 285
#     4  10  20  30  49  70  92 125 164 204 241 286
#     4   9  18  33  51  71 100 131 159 188 229 290
#     4   8  16  31  48  74 102 124 160 199 235 280
#     4  10  20  34  48  65  91 125 169 212 246 286
#     4  10  21  34  48  68  95 129 167 207 245 287
#     4   9  18  33  51  75 101 127 158 195 238 287
#
# _framework density 16.899894
#
# number of rings (size 3 to 8) (size 9 to 14) (size 15 to 20)
#    0.000    2.250    1.667    1.000    2.333    1.667 
#    0.000    1.667    0.000    0.000    0.000    0.583 
#    0.000    2.000    0.000   10.333    0.000    1.583 
#
# Total GULP energy -267478.534451 kJ/mol
# GULP energy per Si atom -5572.469468 kJ/mol
# Density = 1.686143 g / cm^3
# Si number density = 16.899894 Si / 1000 Ang^3
#
#
#
# Elastic Constant Matrix: (Units=GPa)
#
#
# Indices 1 2 3 4 5 6 
#
# 1 37.6074 28.8282 27.9826 0.0000 0.0000 0.0000
# 2 28.8282 112.6686 42.3103 0.0000 0.0000 0.0000
# 3 27.9826 42.3103 93.5228 0.0000 0.0000 0.0000
# 4 0.0000 0.0000 0.0000 21.4335 0.0000 0.0000
# 5 0.0000 0.0000 0.0000 0.0000 25.0240 0.0000
# 6 0.0000 0.0000 0.0000 0.0000 0.0000 23.8473
#
#
#
# Elastic Compliance Matrix: (Units=1/GPa)
#
#
# Indices 1 2 3 4 5 6 
#
# 1 0.037822 -0.006539 -0.008358 0.000000 0.000000 0.000000
# 2 -0.006539 0.011822 -0.003392 0.000000 0.000000 0.000000
# 3 -0.008358 -0.003392 0.014728 0.000000 0.000000 0.000000
# 4 0.000000 0.000000 0.000000 0.046656 0.000000 0.000000
# 5 0.000000 0.000000 0.000000 0.000000 0.039962 0.000000
# 6 0.000000 0.000000 0.000000 0.000000 0.000000 0.041934
#
#
# Mechanical properties :
#
#
# Convention : Reuss Voigt Hill
#
# Bulk Modulus (GPa) = 35.97879 49.11567 42.54723
# Shear Modulus (GPa) = 20.94093 23.70614 22.32354
#
# Velocity S-wave (km/s) = 3.52393 3.74938 3.63840
# Velocity P-wave (km/s) = 6.15573 6.91879 6.54838
#
# Compressibility (1/GPa) = 0.02779415
#
# Stress axis : x y z
#
# Youngs Moduli (GPa) = 26.43961 84.58484 67.89729
#
# Poissons Ratio (x) = 0.55306 0.56752
# Poissons Ratio (y) = 0.17288 0.23032
# Poissons Ratio (z) = 0.22100 0.28693
#
# Static dielectric constant tensor:
#      x y z
#    x 1.597160 0.000000 0.000000 
#    y 0.000000 1.621310 0.000000 
#    z 0.000000 0.000000 1.533500 
# 
# From -- ./inp_files/22650.got.cif
#   From: 2010.05.17/outbox.cif.g08.bks.cpg/sg71_12_cif.got.tgz:22650.got - 2010.06.03 16:22:01.
