data_PCOD9520912
_publ_section_title
;
Structure prediction by ZEFSAII (Michael W. Deem and Ramdas Pophale) SiO2 
 PCOD9520912
Probable space group: I M M M
;
_chemical_formula_sum "Si O2"
_cell_formula_units_Z 72
_cell_length_a 8.703479
_cell_length_b 14.884115
_cell_length_c 34.272518
_cell_angle_alpha 90.000000
_cell_angle_beta 90.000000
_cell_angle_gamma 90.000000
_cell_volume 4439.784757
_symmetry_space_group_name_H-M "I M M M"
_symmetry_group_IT_number 71
_symmetry_cell_setting 'orthorhombic'
loop_
_space_group_symop_operation_xyz
x,y,z
-x,-y,z
x,-y,-z
-x,y,-z
-x,-y,-z
x,y,-z
-x,y,z
x,-y,z
1/2+x,1/2+y,1/2+z
1/2-x,1/2-y,1/2+z
1/2+x,1/2-y,1/2-z
1/2-x,1/2+y,1/2-z
1/2-x,1/2-y,1/2-z
1/2+x,1/2+y,1/2-z
1/2-x,1/2+y,1/2+z
1/2+x,1/2-y,1/2+z
loop_
_atom_site_type_symbol
_atom_site_label
_atom_site_fract_x
_atom_site_fract_y
_atom_site_fract_z
Si Si1 0.315803 0.721103 0.846749
Si Si2 0.686719 0.397289 0.773865
Si Si3 0.683850 0.895153 0.417152
Si Si4 0.323560 0.608871 0.000000
Si Si5 0.185313 0.103761 0.184840
O O1 0.500000 0.719333 0.847375
O O2 0.260529 0.669584 0.807457
O O3 0.253268 0.667005 0.883684
O O4 0.257201 0.822682 0.843313
O O5 0.500000 0.395703 0.773580
O O6 0.732777 0.500000 0.782862
O O7 0.735984 0.376391 0.729642
O O8 0.500000 0.892131 0.415824
O O9 0.740707 0.865134 0.459921
O O10 0.731493 0.000000 0.411350
O O11 0.322497 0.500000 0.000000
O O12 0.500000 0.639072 0.000000
O O13 0.000000 0.110136 0.183644
O O14 0.226045 0.000000 0.176524
#
# Coordination Sequence:
#
# PCOD9520912 Si02
#       5
#    16  16  16   8  16
#     4  11  20  29  46  71  97 124 157 200 243 282
#     4   8  15  28  45  65  91 124 159 195 238 286
#     4  10  20  33  49  71 100 131 160 189 225 276
#     4   9  17  31  51  73  98 127 156 187 227 275
#     4   9  18  33  49  63  86 124 166 205 245 287
#
# _framework density 16.217002000000001
#
# number of rings (size 3 to 8) (size 9 to 14) (size 15 to 20)
#    0.000    2.556    0.000    4.333    0.000    4.000 
#    0.000    1.111    0.000    2.667    0.000    0.778 
#    0.000    6.222    0.000    0.000    0.000    0.000 
#
# Total GULP energy -200765.168613 kJ/mol
# GULP energy per Si atom -5576.810239 kJ/mol
# Density = 1.618009 g / cm^3
# Si number density = 16.217002 Si / 1000 Ang^3
#
#
#
# Elastic Constant Matrix: (Units=GPa)
#
#
# Indices 1 2 3 4 5 6 
#
# 1 39.6735 37.5063 37.9909 0.0000 0.0000 0.0000
# 2 37.5063 99.8402 83.5040 0.0000 0.0000 0.0000
# 3 37.9909 83.5040 107.0363 0.0000 0.0000 0.0000
# 4 0.0000 0.0000 0.0000 20.1725 0.0000 0.0000
# 5 0.0000 0.0000 0.0000 0.0000 20.8796 0.0000
# 6 0.0000 0.0000 0.0000 0.0000 0.0000 19.9666
#
#
#
# Elastic Compliance Matrix: (Units=1/GPa)
#
#
# Indices 1 2 3 4 5 6 
#
# 1 0.040975 -0.009292 -0.007294 0.000000 0.000000 0.000000
# 2 -0.009292 0.030930 -0.020832 0.000000 0.000000 0.000000
# 3 -0.007294 -0.020832 0.028184 0.000000 0.000000 0.000000
# 4 0.000000 0.000000 0.000000 0.049572 0.000000 0.000000
# 5 0.000000 0.000000 0.000000 0.000000 0.047894 0.000000
# 6 0.000000 0.000000 0.000000 0.000000 0.000000 0.050084
#
#
# Mechanical properties :
#
#
# Convention : Reuss Voigt Hill
#
# Bulk Modulus (GPa) = 39.60047 62.72806 51.16426
# Shear Modulus (GPa) = 15.11065 18.04032 16.57549
#
# Velocity S-wave (km/s) = 3.05582 3.33893 3.20051
# Velocity P-wave (km/s) = 6.07641 7.32318 6.72874
#
# Compressibility (1/GPa) = 0.02525223
#
# Stress axis : x y z
#
# Youngs Moduli (GPa) = 24.40493 32.33113 35.48171
#
# Poissons Ratio (x) = 0.30042 0.25882
# Poissons Ratio (y) = 0.22677 0.73915
# Poissons Ratio (z) = 0.17802 0.67352
#
# Static dielectric constant tensor:
#      x y z
#    x 1.543500 0.000000 0.000000 
#    y 0.000000 1.536120 0.000000 
#    z 0.000000 0.000000 1.531590 
# 
# From -- ./inp_files/6032.got.cif
#   From: 2010.05.17/outbox.cif.g08.bks.cpg/sg71_4_cif.got.tgz:6032.got - 2010.06.03 16:22:01.
