data_PCOD9520520
_publ_section_title
;
Structure prediction by ZEFSAII (Michael W. Deem and Ramdas Pophale) SiO2 
 PCOD9520520
Probable space group: I M M M
;
_chemical_formula_sum "Si O2"
_cell_formula_units_Z 64
_cell_length_a 25.337576
_cell_length_b 17.500667
_cell_length_c 7.580562
_cell_angle_alpha 90.000000
_cell_angle_beta 90.000000
_cell_angle_gamma 90.000000
_cell_volume 3361.406764
_symmetry_space_group_name_H-M "I M M M"
_symmetry_group_IT_number 71
_symmetry_cell_setting 'orthorhombic'
loop_
_space_group_symop_operation_xyz
x,y,z
-x,-y,z
x,-y,-z
-x,y,-z
-x,-y,-z
x,y,-z
-x,y,z
x,-y,z
1/2+x,1/2+y,1/2+z
1/2-x,1/2-y,1/2+z
1/2+x,1/2-y,1/2-z
1/2-x,1/2+y,1/2-z
1/2-x,1/2-y,1/2-z
1/2+x,1/2+y,1/2-z
1/2-x,1/2+y,1/2+z
1/2+x,1/2-y,1/2+z
loop_
_atom_site_type_symbol
_atom_site_label
_atom_site_fract_x
_atom_site_fract_y
_atom_site_fract_z
Si Si1 0.000000 0.332580 0.287660
Si Si2 0.500000 0.655344 0.214141
Si Si3 0.692575 0.591246 0.500000
Si Si4 0.884595 0.847553 0.293357
Si Si5 0.686084 0.908570 0.000000
Si Si6 0.115674 0.667386 0.204304
O O1 0.055895 0.364564 0.224287
O O2 0.000000 0.333969 0.500000
O O3 0.000000 0.243817 0.227077
O O4 0.442976 0.622912 0.265290
O O5 0.500000 0.656083 0.000000
O O6 0.692684 0.500000 0.500000
O O7 0.660776 0.620208 0.670224
O O8 0.753151 0.618022 0.500000
O O9 0.877221 0.865103 0.500000
O O10 0.885671 0.755523 0.270169
O O11 0.655306 0.877441 0.829644
O O12 0.685234 0.000000 0.000000
O O13 0.130969 0.666107 0.000000
#
# Coordination Sequence:
#
# PCOD9520520 Si02
#       6
#     8   8   8  16   8  16
#     4   9  15  31  59  91 127 152 185 241 307 358
#     4   7  14  28  56  89 121 148 184 234 298 358
#     4  11  26  43  59  85 120 163 209 254 305 354
#     4  10  19  38  63  92 120 156 198 247 299 360
#     4  11  26  45  59  81 124 165 203 256 309 350
#     4  11  20  37  64  95 119 155 202 248 296 361
#
# _framework density 19.039648
#
# number of rings (size 3 to 8) (size 9 to 14) (size 15 to 20)
#    0.000    2.000    3.750    1.875    0.000    3.500 
#    0.000    5.000    0.000    3.750    0.000    0.000 
#    0.000    0.000    0.000    0.000    0.000    0.000 
#
# Total GULP energy -178534.853751 kJ/mol
# GULP energy per Si atom -5579.214180 kJ/mol
# Density = 1.899631 g / cm^3
# Si number density = 19.039648 Si / 1000 Ang^3
#
#
#
# Elastic Constant Matrix: (Units=GPa)
#
#
# Indices 1 2 3 4 5 6 
#
# 1 200.8395 36.6212 73.3044 0.0000 0.0000 0.0000
# 2 36.6212 25.0901 11.4574 0.0000 0.0000 0.0000
# 3 73.3044 11.4574 136.8979 0.0000 0.0000 0.0000
# 4 0.0000 0.0000 0.0000 16.2663 0.0000 0.0000
# 5 0.0000 0.0000 0.0000 0.0000 33.1388 0.0000
# 6 0.0000 0.0000 0.0000 0.0000 0.0000 62.3199
#
#
#
# Elastic Compliance Matrix: (Units=1/GPa)
#
#
# Indices 1 2 3 4 5 6 
#
# 1 0.008125 -0.010265 -0.003492 0.000000 0.000000 0.000000
# 2 -0.010265 0.054408 0.000943 0.000000 0.000000 0.000000
# 3 -0.003492 0.000943 0.009095 0.000000 0.000000 0.000000
# 4 0.000000 0.000000 0.000000 0.061477 0.000000 0.000000
# 5 0.000000 0.000000 0.000000 0.000000 0.030176 0.000000
# 6 0.000000 0.000000 0.000000 0.000000 0.000000 0.016046
#
#
# Mechanical properties :
#
#
# Convention : Reuss Voigt Hill
#
# Bulk Modulus (GPa) = 21.73835 67.28818 44.51326
# Shear Modulus (GPa) = 22.69739 38.44131 30.56935
#
# Velocity S-wave (km/s) = 3.45644 4.49822 4.01129
# Velocity P-wave (km/s) = 5.23178 7.89914 6.69955
#
# Compressibility (1/GPa) = 0.04600166
#
# Stress axis : x y z
#
# Youngs Moduli (GPa) = 123.07288 18.37951 109.94467
#
# Poissons Ratio (x) = 0.18867 0.38389
# Poissons Ratio (y) = 1.26335 -0.10368
# Poissons Ratio (z) = 0.42973 -0.01733
#
# Static dielectric constant tensor:
#      x y z
#    x 1.689990 0.000000 0.000000 
#    y 0.000000 1.642630 0.000000 
#    z 0.000000 0.000000 1.643790 
# 
# From -- ./inp_files/9575.got.cif
#   From: 2010.05.17/outbox.cif.g08.bks.cpg/sg71_5_cif.got.tgz:9575.got - 2010.06.03 16:22:01.
