data_PCOD9520931
_publ_section_title
;
Structure prediction by ZEFSAII (Michael W. Deem and Ramdas Pophale) SiO2 
 PCOD9520931
Probable space group: I M M M
;
_chemical_formula_sum "Si O2"
_cell_formula_units_Z 96
_cell_length_a 13.895585
_cell_length_b 11.856754
_cell_length_c 34.096304
_cell_angle_alpha 90.000000
_cell_angle_beta 90.000000
_cell_angle_gamma 90.000000
_cell_volume 5617.588836
_symmetry_space_group_name_H-M "I M M M"
_symmetry_group_IT_number 71
_symmetry_cell_setting 'orthorhombic'
loop_
_space_group_symop_operation_xyz
x,y,z
-x,-y,z
x,-y,-z
-x,y,-z
-x,-y,-z
x,y,-z
-x,y,z
x,-y,z
1/2+x,1/2+y,1/2+z
1/2-x,1/2-y,1/2+z
1/2+x,1/2-y,1/2-z
1/2-x,1/2+y,1/2-z
1/2-x,1/2-y,1/2-z
1/2+x,1/2+y,1/2-z
1/2-x,1/2+y,1/2+z
1/2+x,1/2-y,1/2+z
loop_
_atom_site_type_symbol
_atom_site_label
_atom_site_fract_x
_atom_site_fract_y
_atom_site_fract_z
Si Si1 0.883127 0.247636 0.265750
Si Si2 0.704692 0.279937 0.620679
Si Si3 0.383537 0.500000 0.245932
Si Si4 0.613278 0.866185 0.845555
Si Si5 0.115106 0.867814 0.954338
Si Si6 0.115274 0.000000 0.162047
Si Si7 0.115375 0.367722 0.185197
O O1 0.850786 0.118661 0.271737
O O2 0.856454 0.327042 0.301882
O O3 0.854526 0.295340 0.223365
O O4 0.000000 0.247369 0.264919
O O5 0.818268 0.299440 0.625002
O O6 0.668585 0.288091 0.576292
O O7 0.656428 0.388656 0.641917
O O8 0.668856 0.175171 0.646405
O O9 0.500000 0.500000 0.243247
O O10 0.360126 0.500000 0.292024
O O11 0.500000 0.842279 0.850401
O O12 0.627258 0.000000 0.849601
O O13 0.000000 0.858231 0.948656
O O14 0.139991 0.000000 0.946791
O O15 0.135755 0.844687 0.000000
O O16 0.000000 0.000000 0.158358
O O17 0.130446 0.500000 0.192798
O O18 0.000000 0.349912 0.179906
#
# Coordination Sequence:
#
# PCOD9520931 Si02
#       7
#    16  16   8  16  16   8  16
#     4   9  17  31  48  66  96 134 169 212 256 293
#     4  12  20  32  52  75  98 133 168 204 246 300
#     4   9  16  28  46  70  99 128 161 208 261 297
#     4  10  21  36  50  67  96 134 177 216 249 287
#     4   9  17  29  49  80 111 130 148 187 247 311
#     4  11  18  28  48  77 100 120 155 202 251 302
#     4  10  20  33  49  72 103 136 167 206 254 302
#
# _framework density 17.089182000000001
#
# number of rings (size 3 to 8) (size 9 to 14) (size 15 to 20)
#    0.000    2.000    3.333    2.500    0.000    2.667 
#    1.500    0.000    0.000    1.000    0.000    4.667 
#    0.000    0.000    0.000    1.500    0.000    0.333 
#
# Total GULP energy -268084.473441 kJ/mol
# GULP energy per Si atom -5585.093197 kJ/mol
# Density = 1.705029 g / cm^3
# Si number density = 17.089182 Si / 1000 Ang^3
#
#
#
# Elastic Constant Matrix: (Units=GPa)
#
#
# Indices 1 2 3 4 5 6 
#
# 1 64.2922 17.2085 24.7486 0.0000 0.0000 0.0000
# 2 17.2085 58.4084 13.9703 0.0000 0.0000 0.0000
# 3 24.7486 13.9703 79.5939 0.0000 0.0000 0.0000
# 4 0.0000 0.0000 0.0000 19.0658 0.0000 0.0000
# 5 0.0000 0.0000 0.0000 0.0000 -1.6406 0.0000
# 6 0.0000 0.0000 0.0000 0.0000 0.0000 18.4247
#
#
#
# Elastic Compliance Matrix: (Units=1/GPa)
#
#
# Indices 1 2 3 4 5 6 
#
# 1 0.018643 -0.004286 -0.005044 0.000000 0.000000 0.000000
# 2 -0.004286 0.018856 -0.001977 0.000000 0.000000 0.000000
# 3 -0.005044 -0.001977 0.014479 0.000000 0.000000 0.000000
# 4 0.000000 0.000000 0.000000 0.052450 0.000000 0.000000
# 5 0.000000 0.000000 0.000000 0.000000 -0.609519 0.000000
# 6 0.000000 0.000000 0.000000 0.000000 0.000000 0.054275
#
#
# Mechanical properties :
#
#
# Convention : Reuss Voigt Hill
#
# Bulk Modulus (GPa) = 34.05574 34.90547 34.48061
# Shear Modulus (GPa) = -11.94995 16.92779 2.48892
#
# Velocity S-wave (km/s) = -2.64724 3.15072 1.20814
# Velocity P-wave (km/s) = 3.26001 5.80568 4.70816
#
# Compressibility (1/GPa) = 0.02936363
#
# Stress axis : x y z
#
# Youngs Moduli (GPa) = 53.63931 53.03218 69.06423
#
# Poissons Ratio (x) = 0.22730 0.34839
# Poissons Ratio (y) = 0.22991 0.13654
# Poissons Ratio (z) = 0.27058 0.10484
#
# Static dielectric constant tensor:
#      x y z
#    x 1.630960 0.000000 0.000000 
#    y 0.000000 1.577750 0.000000 
#    z 0.000000 0.000000 1.558930 
# 
# From -- ./inp_files/69901.got.cif
#   From: 2010.05.17/outbox.cif.g08.bks.cpg/sg71_35_cif.got.tgz:69901.got - 2010.06.03 16:22:01.
