data_PCOD9520959
_publ_section_title
;
Structure prediction by ZEFSAII (Michael W. Deem and Ramdas Pophale) SiO2 
 PCOD9520959
Probable space group: I M M M
;
_chemical_formula_sum "Si O2"
_cell_formula_units_Z 104
_cell_length_a 7.884918
_cell_length_b 20.914717
_cell_length_c 33.194069
_cell_angle_alpha 90.000000
_cell_angle_beta 90.000000
_cell_angle_gamma 90.000000
_cell_volume 5474.061421
_symmetry_space_group_name_H-M "I M M M"
_symmetry_group_IT_number 71
_symmetry_cell_setting 'orthorhombic'
loop_
_space_group_symop_operation_xyz
x,y,z
-x,-y,z
x,-y,-z
-x,y,-z
-x,-y,-z
x,y,-z
-x,y,z
x,-y,z
1/2+x,1/2+y,1/2+z
1/2-x,1/2-y,1/2+z
1/2+x,1/2-y,1/2-z
1/2-x,1/2+y,1/2-z
1/2-x,1/2-y,1/2-z
1/2+x,1/2+y,1/2-z
1/2-x,1/2+y,1/2+z
1/2+x,1/2-y,1/2+z
loop_
_atom_site_type_symbol
_atom_site_label
_atom_site_fract_x
_atom_site_fract_y
_atom_site_fract_z
Si Si1 0.707617 0.772683 0.456081
Si Si2 0.300460 0.829745 0.843051
Si Si3 0.701324 0.428333 0.182020
Si Si4 0.800586 0.305615 0.867250
Si Si5 0.695405 0.500000 0.452098
Si Si6 0.196277 0.135248 0.930753
Si Si7 0.295130 0.072569 0.225313
O O1 0.761478 0.798027 0.500000
O O2 0.500000 0.773556 0.455956
O O3 0.762108 0.804752 0.413853
O O4 0.765228 0.698771 0.451894
O O5 0.500000 0.843278 0.848484
O O6 0.279284 0.753084 0.842086
O O7 0.205777 0.851270 0.883408
O O8 0.239706 0.871902 0.805325
O O9 0.500000 0.428891 0.176151
O O10 0.768002 0.500000 0.173331
O O11 0.773888 0.372779 0.154308
O O12 0.736752 0.415517 0.229114
O O13 0.000000 0.291431 0.868732
O O14 0.500000 0.500000 0.435755
O O15 0.687029 0.500000 0.500000
O O16 0.777083 0.566702 0.439123
O O17 0.000000 0.131030 0.944306
O O18 0.500000 0.072707 0.225562
O O19 0.240295 0.000000 0.213727
#
# Coordination Sequence:
#
# PCOD9520959 Si02
#       7
#    16  16  16  16   8  16  16
#     4   8  14  27  48  72  97 126 164 208 248 288
#     4  10  20  33  50  72 102 137 172 214 260 303
#     4  10  21  37  57  80 104 131 163 202 252 306
#     4  10  20  34  55  80 105 133 168 208 252 302
#     4   9  16  26  43  67  93 127 175 225 267 305
#     4   9  17  28  44  68  96 130 171 216 261 303
#     4   9  19  35  53  73  99 136 180 216 251 298
#
# _framework density 18.99869
#
# number of rings (size 3 to 8) (size 9 to 14) (size 15 to 20)
#    0.000    2.692    0.000    2.769    1.077    4.615 
#    0.000    0.000    0.000   16.615    0.000    3.231 
#    0.000    0.000    0.000    0.000    0.000    0.000 
#
# Total GULP energy -289782.629813 kJ/mol
# GULP energy per Si atom -5572.742881 kJ/mol
# Density = 1.895545 g / cm^3
# Si number density = 18.998690 Si / 1000 Ang^3
#
#
#
# Elastic Constant Matrix: (Units=GPa)
#
#
# Indices 1 2 3 4 5 6 
#
# 1 27.7705 -0.6337 1.2706 0.0000 0.0000 0.0000
# 2 -0.6337 108.0296 77.6544 0.0000 0.0000 0.0000
# 3 1.2706 77.6544 106.7779 0.0000 0.0000 0.0000
# 4 0.0000 0.0000 0.0000 17.8749 0.0000 0.0000
# 5 0.0000 0.0000 0.0000 0.0000 -14.6451 0.0000
# 6 0.0000 0.0000 0.0000 0.0000 0.0000 32.6274
#
#
#
# Elastic Compliance Matrix: (Units=1/GPa)
#
#
# Indices 1 2 3 4 5 6 
#
# 1 0.036090 0.001090 -0.001222 0.000000 0.000000 0.000000
# 2 0.001090 0.019430 -0.014143 0.000000 0.000000 0.000000
# 3 -0.001222 -0.014143 0.019665 0.000000 0.000000 0.000000
# 4 0.000000 0.000000 0.000000 0.055944 0.000000 0.000000
# 5 0.000000 0.000000 0.000000 0.000000 -0.068282 0.000000
# 6 0.000000 0.000000 0.000000 0.000000 0.000000 0.030649
#
#
# Mechanical properties :
#
#
# Convention : Reuss Voigt Hill
#
# Bulk Modulus (GPa) = 21.44318 44.35115 32.89717
# Shear Modulus (GPa) = 36.33933 18.12388 27.23161
#
# Velocity S-wave (km/s) = 4.37822 3.09197 3.79006
# Velocity P-wave (km/s) = 6.07203 6.01182 6.04200
#
# Compressibility (1/GPa) = 0.04663488
#
# Stress axis : x y z
#
# Youngs Moduli (GPa) = 27.70831 51.46790 50.85069
#
# Poissons Ratio (x) = -0.05612 0.06216
# Poissons Ratio (y) = -0.03021 0.71919
# Poissons Ratio (z) = 0.03387 0.72792
#
# Static dielectric constant tensor:
#      x y z
#    x 1.704740 0.000000 0.000000 
#    y 0.000000 1.678400 0.000000 
#    z 0.000000 0.000000 1.650120 
# 
# From -- ./inp_files/68283.got.cif
#   From: 2010.05.17/outbox.cif.g08.bks.cpg/sg71_35_cif.got.tgz:68283.got - 2010.06.03 16:22:01.
