data_PCOD9520172
_publ_section_title
;
Structure prediction by ZEFSAII (Michael W. Deem and Ramdas Pophale) SiO2 
 PCOD9520172
Probable space group: I M M M
;
_chemical_formula_sum "Si O2"
_cell_formula_units_Z 104
_cell_length_a 26.521730
_cell_length_b 8.251350
_cell_length_c 22.433028
_cell_angle_alpha 90.000000
_cell_angle_beta 90.000000
_cell_angle_gamma 90.000000
_cell_volume 4909.245571
_symmetry_space_group_name_H-M "I M M M"
_symmetry_group_IT_number 71
_symmetry_cell_setting 'orthorhombic'
loop_
_space_group_symop_operation_xyz
x,y,z
-x,-y,z
x,-y,-z
-x,y,-z
-x,-y,-z
x,y,-z
-x,y,z
x,-y,z
1/2+x,1/2+y,1/2+z
1/2-x,1/2-y,1/2+z
1/2+x,1/2-y,1/2-z
1/2-x,1/2+y,1/2-z
1/2-x,1/2-y,1/2-z
1/2+x,1/2+y,1/2-z
1/2-x,1/2+y,1/2+z
1/2+x,1/2-y,1/2+z
loop_
_atom_site_type_symbol
_atom_site_label
_atom_site_fract_x
_atom_site_fract_y
_atom_site_fract_z
Si Si1 0.253840 0.307549 0.067025
Si Si2 0.390043 0.310445 0.434071
Si Si3 0.000000 0.184664 0.107411
Si Si4 0.889490 0.809882 0.272964
Si Si5 0.557115 0.802560 0.000000
Si Si6 0.500000 0.185311 0.265473
Si Si7 0.636548 0.190305 0.097946
Si Si8 0.323406 0.185227 0.335457
O O1 0.242904 0.500000 0.065797
O O2 0.312632 0.280133 0.078956
O O3 0.222705 0.243073 0.124688
O O4 0.242348 0.242713 0.000000
O O5 0.372361 0.269359 0.500000
O O6 0.377120 0.500000 0.421304
O O7 0.449955 0.298885 0.430467
O O8 0.367258 0.195576 0.384711
O O9 0.000000 0.302965 0.163084
O O10 0.000000 0.000000 0.132826
O O11 0.946802 0.764037 0.254283
O O12 0.875212 0.717025 0.333027
O O13 0.848215 0.770759 0.221618
O O14 0.887821 0.000000 0.284876
O O15 0.589436 0.754350 0.942253
O O16 0.500000 0.741658 0.000000
O O17 0.554661 0.000000 0.000000
O O18 0.500000 0.000000 0.244613
O O19 0.644568 0.000000 0.085945
O O20 0.311489 0.000000 0.318654
#
# Coordination Sequence:
#
# PCOD9520172 Si02
#       8
#    16  16   8  16   8   8  16  16
#     4  10  22  42  67  94 131 174 214 268 330 384
#     4  10  20  34  54  83 120 163 211 267 327 386
#     4  10  19  34  56  82 118 164 207 260 325 387
#     4  12  26  44  65  94 131 173 215 267 328 390
#     4   9  20  40  67 103 139 167 202 257 320 379
#     4  12  24  41  65  92 126 171 217 268 322 386
#     4  11  23  42  70 102 132 169 213 262 317 388
#     4  11  23  40  62  90 124 169 222 274 325 380
#
# _framework density 21.184518000000001
#
# number of rings (size 3 to 8) (size 9 to 14) (size 15 to 20)
#    0.000    1.308    2.308    3.692    1.077    3.692 
#    0.000    0.000    0.000    3.231    0.000    0.000 
#    0.000    0.000    0.000    0.000    0.000    0.000 
#
# Total GULP energy -290378.130474 kJ/mol
# GULP energy per Si atom -5584.194817 kJ/mol
# Density = 2.113630 g / cm^3
# Si number density = 21.184518 Si / 1000 Ang^3
#
#
#
# Elastic Constant Matrix: (Units=GPa)
#
#
# Indices 1 2 3 4 5 6 
#
# 1 134.3340 -5.8187 42.3779 0.0000 0.0000 0.0000
# 2 -5.8187 19.1218 -9.0452 0.0000 0.0000 0.0000
# 3 42.3779 -9.0452 111.0972 0.0000 0.0000 0.0000
# 4 0.0000 0.0000 0.0000 3.1650 0.0000 0.0000
# 5 0.0000 0.0000 0.0000 0.0000 31.5165 0.0000
# 6 0.0000 0.0000 0.0000 0.0000 0.0000 25.0930
#
#
#
# Elastic Compliance Matrix: (Units=1/GPa)
#
#
# Indices 1 2 3 4 5 6 
#
# 1 0.008484 0.001093 -0.003147 0.000000 0.000000 0.000000
# 2 0.001093 0.054532 0.004023 0.000000 0.000000 0.000000
# 3 -0.003147 0.004023 0.010529 0.000000 0.000000 0.000000
# 4 0.000000 0.000000 0.000000 0.315959 0.000000 0.000000
# 5 0.000000 0.000000 0.000000 0.000000 0.031729 0.000000
# 6 0.000000 0.000000 0.000000 0.000000 0.000000 0.039852
#
#
# Mechanical properties :
#
#
# Convention : Reuss Voigt Hill
#
# Bulk Modulus (GPa) = 12.90615 35.50902 24.20759
# Shear Modulus (GPa) = 10.35248 27.75749 19.05498
#
# Velocity S-wave (km/s) = 2.21301 3.62370 3.00238
# Velocity P-wave (km/s) = 3.55463 5.85717 4.84468
#
# Compressibility (1/GPa) = 0.07748242
#
# Stress axis : x y z
#
# Youngs Moduli (GPa) = 117.86392 18.33790 94.97383
#
# Poissons Ratio (x) = -0.02004 0.29892
# Poissons Ratio (y) = -0.12882 -0.38207
# Poissons Ratio (z) = 0.37096 -0.07377
#
# Static dielectric constant tensor:
#      x y z
#    x 1.771500 0.000000 0.000000 
#    y 0.000000 1.774080 0.000000 
#    z 0.000000 0.000000 1.743380 
# 
# From -- ./inp_files/56315.got.cif
#   From: 2010.05.17/outbox.cif.g08.bks.cpg/sg71_29_cif.got.tgz:56315.got - 2010.06.03 16:22:01.
