data_PCOD9520655
_publ_section_title
;
Structure prediction by ZEFSAII (Michael W. Deem and Ramdas Pophale) SiO2 
 PCOD9520655
Probable space group: I M M M
;
_chemical_formula_sum "Si O2"
_cell_formula_units_Z 128
_cell_length_a 21.018521
_cell_length_b 18.275777
_cell_length_c 20.813767
_cell_angle_alpha 90.000000
_cell_angle_beta 90.000000
_cell_angle_gamma 90.000000
_cell_volume 7995.188210
_symmetry_space_group_name_H-M "I M M M"
_symmetry_group_IT_number 71
_symmetry_cell_setting 'orthorhombic'
loop_
_space_group_symop_operation_xyz
x,y,z
-x,-y,z
x,-y,-z
-x,y,-z
-x,-y,-z
x,y,-z
-x,y,z
x,-y,z
1/2+x,1/2+y,1/2+z
1/2-x,1/2-y,1/2+z
1/2+x,1/2-y,1/2-z
1/2-x,1/2+y,1/2-z
1/2-x,1/2-y,1/2-z
1/2+x,1/2+y,1/2-z
1/2-x,1/2+y,1/2+z
1/2+x,1/2-y,1/2+z
loop_
_atom_site_type_symbol
_atom_site_label
_atom_site_fract_x
_atom_site_fract_y
_atom_site_fract_z
Si Si1 0.667112 0.582010 0.181776
Si Si2 0.740376 0.153782 0.072526
Si Si3 0.070618 0.725874 0.651729
Si Si4 0.880537 0.088197 0.929151
Si Si5 0.105444 0.583366 0.424943
Si Si6 0.209131 0.236713 0.686671
Si Si7 0.069148 0.088414 0.793779
Si Si8 0.426827 0.626287 0.074065
O O1 0.693203 0.500000 0.189735
O O2 0.713036 0.650355 0.171296
O O3 0.625938 0.603230 0.244842
O O4 0.618226 0.583553 0.122462
O O5 0.807610 0.113290 0.077666
O O6 0.681488 0.097784 0.079222
O O7 0.733222 0.214680 0.127123
O O8 0.735375 0.184955 0.000000
O O9 0.075769 0.646733 0.618507
O O10 0.134134 0.740492 0.693461
O O11 0.075556 0.788970 0.596982
O O12 0.000000 0.733419 0.681328
O O13 0.917630 0.114537 0.866124
O O14 0.882986 0.000000 0.928617
O O15 0.903710 0.112168 0.000000
O O16 0.087421 0.593015 0.500000
O O17 0.090302 0.500000 0.406424
O O18 0.250000 0.250000 0.750000
O O19 0.000000 0.114165 0.770339
O O20 0.066713 0.000000 0.796084
O O21 0.500000 0.602071 0.080711
O O22 0.408075 0.619547 0.000000
#
# Coordination Sequence:
#
# PCOD9520655 Si02
#       8
#    16  16  16  16  16  16  16  16
#     4  10  20  32  46  64  87 113 144 185 227 261
#     4   9  17  30  46  63  86 115 148 187 228 266
#     4   9  18  31  45  63  90 120 150 187 230 269
#     4   9  16  26  43  66  89 114 146 183 219 257
#     4   9  16  25  40  63  90 121 155 188 220 257
#     4  10  20  34  51  68  86 114 153 188 218 265
#     4   9  17  28  41  59  86 117 144 173 214 261
#     4   9  17  29  45  64  88 121 157 188 219 259
#
# _framework density 16.009630000000001
#
# number of rings (size 3 to 8) (size 9 to 14) (size 15 to 20)
#    0.000    2.750    0.000    1.875    0.000    7.250 
#    0.000    5.000    0.000    0.000    0.000    0.000 
#    0.000    0.000    0.000    0.000    0.000    0.000 
#
# Total GULP energy -356469.895973 kJ/mol
# GULP energy per Si atom -5569.842125 kJ/mol
# Density = 1.597319 g / cm^3
# Si number density = 16.009630 Si / 1000 Ang^3
#
#
#
# Elastic Constant Matrix: (Units=GPa)
#
#
# Indices 1 2 3 4 5 6 
#
# 1 26.3223 1.1803 12.4074 0.0000 0.0000 0.0000
# 2 1.1803 80.2894 17.4256 0.0000 0.0000 0.0000
# 3 12.4074 17.4256 71.0237 0.0000 0.0000 0.0000
# 4 0.0000 0.0000 0.0000 18.2536 0.0000 0.0000
# 5 0.0000 0.0000 0.0000 0.0000 16.7251 0.0000
# 6 0.0000 0.0000 0.0000 0.0000 0.0000 8.8336
#
#
#
# Elastic Compliance Matrix: (Units=1/GPa)
#
#
# Indices 1 2 3 4 5 6 
#
# 1 0.041478 0.001017 -0.007496 0.000000 0.000000 0.000000
# 2 0.001017 0.013180 -0.003411 0.000000 0.000000 0.000000
# 3 -0.007496 -0.003411 0.016226 0.000000 0.000000 0.000000
# 4 0.000000 0.000000 0.000000 0.054784 0.000000 0.000000
# 5 0.000000 0.000000 0.000000 0.000000 0.059790 0.000000
# 6 0.000000 0.000000 0.000000 0.000000 0.000000 0.113204
#
#
# Mechanical properties :
#
#
# Convention : Reuss Voigt Hill
#
# Bulk Modulus (GPa) = 19.56759 26.62911 23.09835
# Shear Modulus (GPa) = 14.90412 18.53727 16.72069
#
# Velocity S-wave (km/s) = 3.05445 3.40646 3.23525
# Velocity P-wave (km/s) = 4.96875 5.66932 5.33056
#
# Compressibility (1/GPa) = 0.05110492
#
# Stress axis : x y z
#
# Youngs Moduli (GPa) = 24.10908 75.87018 61.62866
#
# Poissons Ratio (x) = -0.07716 0.46194
# Poissons Ratio (y) = -0.02452 0.21024
# Poissons Ratio (z) = 0.18071 0.25883
#
# Static dielectric constant tensor:
#      x y z
#    x 1.565250 0.000000 0.000000 
#    y 0.000000 1.538800 0.000000 
#    z 0.000000 0.000000 1.545400 
# 
# From -- ./inp_files/48413.got.cif
#   From: 2010.05.17/outbox.cif.g08.bks.cpg/sg71_25_cif.got.tgz:48413.got - 2010.06.03 16:22:01.
