data_PCOD9520589
_publ_section_title
;
Structure prediction by ZEFSAII (Michael W. Deem and Ramdas Pophale) SiO2 
 PCOD9520589
Probable space group: I M M M
;
_chemical_formula_sum "Si O2"
_cell_formula_units_Z 96
_cell_length_a 19.493804
_cell_length_b 26.608138
_cell_length_c 10.683051
_cell_angle_alpha 90.000000
_cell_angle_beta 90.000000
_cell_angle_gamma 90.000000
_cell_volume 5541.232607
_symmetry_space_group_name_H-M "I M M M"
_symmetry_group_IT_number 71
_symmetry_cell_setting 'orthorhombic'
loop_
_space_group_symop_operation_xyz
x,y,z
-x,-y,z
x,-y,-z
-x,y,-z
-x,-y,-z
x,y,-z
-x,y,z
x,-y,z
1/2+x,1/2+y,1/2+z
1/2-x,1/2-y,1/2+z
1/2+x,1/2-y,1/2-z
1/2-x,1/2+y,1/2-z
1/2-x,1/2-y,1/2-z
1/2+x,1/2+y,1/2-z
1/2-x,1/2+y,1/2+z
1/2+x,1/2-y,1/2+z
loop_
_atom_site_type_symbol
_atom_site_label
_atom_site_fract_x
_atom_site_fract_y
_atom_site_fract_z
Si Si1 0.578513 0.754353 0.764841
Si Si2 0.420199 0.355188 0.350460
Si Si3 0.419540 0.860731 0.357619
Si Si4 0.815927 0.391920 0.645000
Si Si5 0.678201 0.444271 0.651742
Si Si6 0.718371 0.221965 0.866959
O O1 0.500000 0.755419 0.811399
O O2 0.592235 0.699740 0.706854
O O3 0.585004 0.800474 0.666712
O O4 0.637433 0.765978 0.863657
O O5 0.411230 0.350747 0.500000
O O6 0.500000 0.368176 0.327143
O O7 0.370588 0.399251 0.302887
O O8 0.397234 0.871862 0.500000
O O9 0.500000 0.873872 0.345554
O O10 0.374925 0.886863 0.248890
O O11 0.839605 0.399341 0.500000
O O12 0.757714 0.432160 0.677874
O O13 0.776973 0.337964 0.645347
O O14 0.672296 0.444152 0.500000
O O15 0.659075 0.500000 0.696176
O O16 0.750000 0.250000 0.750000
O O17 0.748971 0.237635 0.000000
#
# Coordination Sequence:
#
# PCOD9520589 Si02
#       6
#    16  16  16  16  16  16
#     4   9  17  29  45  66  95 128 158 186 221 271
#     4   9  16  26  42  65  94 126 157 191 233 277
#     4   9  17  29  47  72  99 125 153 185 223 272
#     4   9  18  31  46  66  92 123 157 191 231 277
#     4   9  17  29  45  64  87 118 158 202 241 276
#     4  10  20  31  45  67  95 126 157 191 230 274
#
# _framework density 17.324665
#
# number of rings (size 3 to 8) (size 9 to 14) (size 15 to 20)
#    0.000    2.833    0.000    1.500    0.000    7.667 
#    0.000    5.000    0.000    1.000    0.000    3.500 
#    0.000    0.000    0.000   10.167    0.000    3.167 
#
# Total GULP energy -267342.188033 kJ/mol
# GULP energy per Si atom -5569.628917 kJ/mol
# Density = 1.728523 g / cm^3
# Si number density = 17.324665 Si / 1000 Ang^3
#
#
#
# Elastic Constant Matrix: (Units=GPa)
#
#
# Indices 1 2 3 4 5 6 
#
# 1 45.1418 26.6368 20.6175 0.0000 0.0000 0.0000
# 2 26.6368 51.4639 -3.5158 0.0000 0.0000 0.0000
# 3 20.6175 -3.5158 70.7183 0.0000 0.0000 0.0000
# 4 0.0000 0.0000 0.0000 -0.0238 0.0000 0.0000
# 5 0.0000 0.0000 0.0000 0.0000 20.1520 0.0000
# 6 0.0000 0.0000 0.0000 0.0000 0.0000 21.7206
#
#
#
# Elastic Compliance Matrix: (Units=1/GPa)
#
#
# Indices 1 2 3 4 5 6 
#
# 1 0.041302 -0.022275 -0.013149 0.000000 0.000000 0.000000
# 2 -0.022275 0.031511 0.008061 0.000000 0.000000 0.000000
# 3 -0.013149 0.008061 0.018375 0.000000 0.000000 0.000000
# 4 0.000000 0.000000 0.000000-42.003285 0.000000 0.000000
# 5 0.000000 0.000000 0.000000 0.000000 0.049623 0.000000
# 6 0.000000 0.000000 0.000000 0.000000 0.000000 0.046039
#
#
# Mechanical properties :
#
#
# Convention : Reuss Voigt Hill
#
# Bulk Modulus (GPa) = 27.42640 28.31123 27.86881
# Shear Modulus (GPa) = -0.11976 16.60879 8.24451
#
# Velocity S-wave (km/s) = -0.26321 3.09961 2.18384
# Velocity P-wave (km/s) = 3.97150 5.40252 4.74131
#
# Compressibility (1/GPa) = 0.03646122
#
# Stress axis : x y z
#
# Youngs Moduli (GPa) = 24.21192 31.73478 54.42227
#
# Poissons Ratio (x) = 0.70691 0.71559
# Poissons Ratio (y) = 0.53933 -0.43869
# Poissons Ratio (z) = 0.31836 -0.25581
#
# Static dielectric constant tensor:
#      x y z
#    x 1.625820 0.000000 0.000000 
#    y 0.000000 1.587140 0.000000 
#    z 0.000000 0.000000 1.584790 
# 
# From -- ./inp_files/24424.got.cif
#   From: 2010.05.17/outbox.cif.g08.bks.cpg/sg71_13_cif.got.tgz:24424.got - 2010.06.03 16:22:01.
