data_PCOD9520946
_publ_section_title
;
Structure prediction by ZEFSAII (Michael W. Deem and Ramdas Pophale) SiO2 
 PCOD9520946
Probable space group: I M M M
;
_chemical_formula_sum "Si O2"
_cell_formula_units_Z 104
_cell_length_a 26.758045
_cell_length_b 7.466950
_cell_length_c 20.496726
_cell_angle_alpha 90.000000
_cell_angle_beta 90.000000
_cell_angle_gamma 90.000000
_cell_volume 4095.266026
_symmetry_space_group_name_H-M "I M M M"
_symmetry_group_IT_number 71
_symmetry_cell_setting 'orthorhombic'
loop_
_space_group_symop_operation_xyz
x,y,z
-x,-y,z
x,-y,-z
-x,y,-z
-x,-y,-z
x,y,-z
-x,y,z
x,-y,z
1/2+x,1/2+y,1/2+z
1/2-x,1/2-y,1/2+z
1/2+x,1/2-y,1/2-z
1/2-x,1/2+y,1/2-z
1/2-x,1/2-y,1/2-z
1/2+x,1/2+y,1/2-z
1/2-x,1/2+y,1/2+z
1/2+x,1/2-y,1/2+z
loop_
_atom_site_type_symbol
_atom_site_label
_atom_site_fract_x
_atom_site_fract_y
_atom_site_fract_z
Si Si1 0.500000 0.219275 0.423162
Si Si2 0.394061 0.793553 0.421804
Si Si3 0.185902 0.704909 0.403348
Si Si4 0.212315 0.206335 0.872777
Si Si5 0.664141 0.281860 0.245129
Si Si6 0.945571 0.218369 0.716749
Si Si7 0.575487 0.705173 0.069977
O O1 0.500000 0.269212 0.500000
O O2 0.553205 0.281179 0.395299
O O3 0.500000 0.000000 0.421230
O O4 0.398785 0.791577 0.500000
O O5 0.341910 0.705461 0.405208
O O6 0.389826 0.000000 0.401182
O O7 0.182219 0.500000 0.425925
O O8 0.241506 0.782030 0.414217
O O9 0.181081 0.716610 0.325045
O O10 0.135916 0.796890 0.428229
O O11 0.200100 0.286365 0.802046
O O12 0.227110 0.000000 0.863222
O O13 0.665243 0.500000 0.245642
O O14 0.605728 0.227475 0.252471
O O15 0.940644 0.279365 0.640535
O O16 0.000000 0.276043 0.742070
O O17 0.944962 0.000000 0.716034
O O18 0.558077 0.500000 0.069932
O O19 0.560429 0.786187 0.000000
#
# Coordination Sequence:
#
# PCOD9520946 Si02
#       7
#     8  16  16  16  16  16  16
#     4   7  12  28  51  69  89 121 159 195 230 273
#     4   9  18  33  53  74  96 127 166 203 240 288
#     4  10  20  33  50  70  97 132 166 203 250 295
#     4  10  21  34  48  73 103 129 161 204 251 297
#     4   9  18  34  52  71  97 127 164 204 242 291
#     4   8  14  27  49  74  98 125 157 197 244 289
#     4   9  18  32  50  73 100 131 168 205 241 291
#
# _framework density 25.395174000000001
#
# number of rings (size 3 to 8) (size 9 to 14) (size 15 to 20)
#    0.000    3.000    0.000    2.769    0.000    3.385 
#    1.385    5.000    0.000    8.769    0.000    4.308 
#    0.000    0.000    0.000    0.000    0.000    0.000 
#
# Total GULP energy -290260.099623 kJ/mol
# GULP energy per Si atom -5581.924993 kJ/mol
# Density = 2.533737 g / cm^3
# Si number density = 25.395174 Si / 1000 Ang^3
#
#
#
# Elastic Constant Matrix: (Units=GPa)
#
#
# Indices 1 2 3 4 5 6 
#
# 1 207.6223 11.9262 10.3962 0.0000 0.0000 0.0000
# 2 11.9262 81.1424 5.5609 0.0000 0.0000 0.0000
# 3 10.3962 5.5609 49.8320 0.0000 0.0000 0.0000
# 4 0.0000 0.0000 0.0000 -3.7527 0.0000 0.0000
# 5 0.0000 0.0000 0.0000 0.0000 -27.8782 0.0000
# 6 0.0000 0.0000 0.0000 0.0000 0.0000 780.0298
#
#
#
# Elastic Compliance Matrix: (Units=1/GPa)
#
#
# Indices 1 2 3 4 5 6 
#
# 1 0.004902 -0.000655 -0.000949 0.000000 0.000000 0.000000
# 2 -0.000655 0.012507 -0.001259 0.000000 0.000000 0.000000
# 3 -0.000949 -0.001259 0.020406 0.000000 0.000000 0.000000
# 4 0.000000 0.000000 0.000000 -0.266473 0.000000 0.000000
# 5 0.000000 0.000000 0.000000 0.000000 -0.035870 0.000000
# 6 0.000000 0.000000 0.000000 0.000000 0.000000 0.001282
#
#
# Mechanical properties :
#
#
# Convention : Reuss Voigt Hill
#
# Bulk Modulus (GPa) = 31.16552 43.81813 37.49182
# Shear Modulus (GPa) = -20.25736 170.39401 75.06833
#
# Velocity S-wave (km/s) = -2.82740 8.20016 5.44282
# Velocity P-wave (km/s) = 1.28061 10.34161 7.36847
#
# Compressibility (1/GPa) = 0.03208675
#
# Stress axis : x y z
#
# Youngs Moduli (GPa) = 204.01397 79.95769 49.00518
#
# Poissons Ratio (x) = 0.05240 0.04653
# Poissons Ratio (y) = 0.13370 0.06169
# Poissons Ratio (z) = 0.19370 0.10066
#
# Static dielectric constant tensor:
#      x y z
#    x 2.064690 0.000000 0.000000 
#    y 0.000000 1.993120 0.000000 
#    z 0.000000 0.000000 2.019350 
# 
# From -- ./inp_files/61937.got.cif
#   From: 2010.05.17/outbox.cif.g08.bks.cpg/sg71_31_cif.got.tgz:61937.got - 2010.06.03 16:22:01.
