data_PCOD9520008
_publ_section_title
;
Structure prediction by ZEFSAII (Michael W. Deem and Ramdas Pophale) SiO2 
 PCOD9520008
Probable space group: I M M M
;
_chemical_formula_sum "Si O2"
_cell_formula_units_Z 72
_cell_length_a 24.249509
_cell_length_b 19.407170
_cell_length_c 7.638754
_cell_angle_alpha 90.000000
_cell_angle_beta 90.000000
_cell_angle_gamma 90.000000
_cell_volume 3594.907199
_symmetry_space_group_name_H-M "I M M M"
_symmetry_group_IT_number 71
_symmetry_cell_setting 'orthorhombic'
loop_
_space_group_symop_operation_xyz
x,y,z
-x,-y,z
x,-y,-z
-x,y,-z
-x,-y,-z
x,y,-z
-x,y,z
x,-y,z
1/2+x,1/2+y,1/2+z
1/2-x,1/2-y,1/2+z
1/2+x,1/2-y,1/2-z
1/2-x,1/2+y,1/2-z
1/2-x,1/2-y,1/2-z
1/2+x,1/2+y,1/2-z
1/2-x,1/2+y,1/2+z
1/2+x,1/2-y,1/2+z
loop_
_atom_site_type_symbol
_atom_site_label
_atom_site_fract_x
_atom_site_fract_y
_atom_site_fract_z
Si Si1 0.153674 0.579541 0.285874
Si Si2 0.064940 0.075776 0.500000
Si Si3 0.742313 0.330274 0.709496
Si Si4 0.064115 0.309941 0.287579
Si Si5 0.617549 0.663793 0.296295
O O1 0.154667 0.579233 0.500000
O O2 0.153510 0.500000 0.229083
O O3 0.207903 0.621792 0.225045
O O4 0.099424 0.622986 0.234830
O O5 0.081177 0.117551 0.671513
O O6 0.000000 0.069757 0.500000
O O7 0.090791 0.000000 0.500000
O O8 0.742660 0.337376 0.500000
O O9 0.750000 0.250000 0.750000
O O10 0.680380 0.346459 0.767493
O O11 0.064144 0.306968 0.500000
O O12 0.096946 0.242513 0.223632
O O13 0.000000 0.310229 0.230989
O O14 0.613882 0.645025 0.500000
#
# Coordination Sequence:
#
# PCOD9520008 Si02
#       5
#    16   8  16  16  16
#     4   9  18  33  54  83 120 159 200 251 309 365
#     4  11  26  46  66  92 125 161 206 260 317 378
#     4  10  20  34  59  87 117 157 203 256 308 364
#     4  10  19  33  57  87 119 157 204 252 297 357
#     4  11  23  39  64  94 124 161 206 258 313 372
#
# _framework density 20.028334000000001
#
# number of rings (size 3 to 8) (size 9 to 14) (size 15 to 20)
#    0.000    1.889    3.333    0.667    1.556    3.556 
#    0.000    5.556    0.000    2.000    0.000    1.556 
#    0.000    0.000    0.000    0.000    0.000    0.000 
#
# Total GULP energy -201022.420535 kJ/mol
# GULP energy per Si atom -5583.956126 kJ/mol
# Density = 1.998275 g / cm^3
# Si number density = 20.028334 Si / 1000 Ang^3
#
#
#
# Elastic Constant Matrix: (Units=GPa)
#
#
# Indices 1 2 3 4 5 6 
#
# 1 144.0216 51.6291 23.9201 0.0000 0.0000 0.0000
# 2 51.6291 140.3717 22.5250 0.0000 0.0000 0.0000
# 3 23.9201 22.5250 56.4939 0.0000 0.0000 0.0000
# 4 0.0000 0.0000 0.0000 -38.9458 0.0000 0.0000
# 5 0.0000 0.0000 0.0000 0.0000 14.6702 0.0000
# 6 0.0000 0.0000 0.0000 0.0000 0.0000 31.8506
#
#
#
# Elastic Compliance Matrix: (Units=1/GPa)
#
#
# Indices 1 2 3 4 5 6 
#
# 1 0.008305 -0.002661 -0.002456 0.000000 0.000000 0.000000
# 2 -0.002661 0.008463 -0.002248 0.000000 0.000000 0.000000
# 3 -0.002456 -0.002248 0.019637 0.000000 0.000000 0.000000
# 4 0.000000 0.000000 0.000000 -0.025677 0.000000 0.000000
# 5 0.000000 0.000000 0.000000 0.000000 0.068165 0.000000
# 6 0.000000 0.000000 0.000000 0.000000 0.000000 0.031397
#
#
# Mechanical properties :
#
#
# Convention : Reuss Voigt Hill
#
# Bulk Modulus (GPa) = 46.13166 59.67063 52.90114
# Shear Modulus (GPa) = 37.80883 17.70256 27.75569
#
# Velocity S-wave (km/s) = 4.34956 2.97623 3.72670
# Velocity P-wave (km/s) = 6.95040 6.45510 6.70733
#
# Compressibility (1/GPa) = 0.02167709
#
# Stress axis : x y z
#
# Youngs Moduli (GPa) = 120.40919 118.15841 50.92418
#
# Poissons Ratio (x) = 0.31437 0.12505
# Poissons Ratio (y) = 0.32036 0.11447
# Poissons Ratio (z) = 0.29568 0.26561
#
# Static dielectric constant tensor:
#      x y z
#    x 1.721170 0.000000 0.000000 
#    y 0.000000 1.681700 0.000000 
#    z 0.000000 0.000000 1.725910 
# 
# From -- ./inp_files/12309.got.cif
#   From: 2010.05.17/outbox.cif.g08.bks.cpg/sg71_7_cif.got.tgz:12309.got - 2010.06.03 16:22:01.
