data_PCOD9520154
_publ_section_title
;
Structure prediction by ZEFSAII (Michael W. Deem and Ramdas Pophale) SiO2 
 PCOD9520154
Probable space group: I M M M
;
_chemical_formula_sum "Si O2"
_cell_formula_units_Z 80
_cell_length_a 31.756689
_cell_length_b 11.971224
_cell_length_c 10.733096
_cell_angle_alpha 90.000000
_cell_angle_beta 90.000000
_cell_angle_gamma 90.000000
_cell_volume 4080.362870
_symmetry_space_group_name_H-M "I M M M"
_symmetry_group_IT_number 71
_symmetry_cell_setting 'orthorhombic'
loop_
_space_group_symop_operation_xyz
x,y,z
-x,-y,z
x,-y,-z
-x,y,-z
-x,-y,-z
x,y,-z
-x,y,z
x,-y,z
1/2+x,1/2+y,1/2+z
1/2-x,1/2-y,1/2+z
1/2+x,1/2-y,1/2-z
1/2-x,1/2+y,1/2-z
1/2-x,1/2-y,1/2-z
1/2+x,1/2+y,1/2-z
1/2-x,1/2+y,1/2+z
1/2+x,1/2-y,1/2+z
loop_
_atom_site_type_symbol
_atom_site_label
_atom_site_fract_x
_atom_site_fract_y
_atom_site_fract_z
Si Si1 0.608381 0.790580 0.639457
Si Si2 0.047135 0.132487 0.240466
Si Si3 0.743999 0.627078 0.500000
Si Si4 0.906683 0.133544 0.500000
Si Si5 0.050332 0.500000 0.847974
Si Si6 0.312474 0.313850 0.000000
Si Si7 0.179380 0.873505 0.226612
O O1 0.622861 0.820447 0.500000
O O2 0.575156 0.690073 0.637965
O O3 0.579596 0.893192 0.689373
O O4 0.647054 0.730449 0.710840
O O5 0.067080 0.156389 0.375913
O O6 0.000000 0.175986 0.235486
O O7 0.046674 0.000000 0.226281
O O8 0.758364 0.500000 0.500000
O O9 0.783938 0.705514 0.500000
O O10 0.714844 0.642816 0.378037
O O11 0.863013 0.198675 0.500000
O O12 0.896305 0.000000 0.500000
O O13 0.000000 0.500000 0.808994
O O14 0.048806 0.500000 0.000000
O O15 0.303767 0.372566 0.867658
O O16 0.160725 0.000000 0.206008
#
# Coordination Sequence:
#
# PCOD9520154 Si02
#       7
#    16  16   8   8   8   8  16
#     4  11  21  36  60  86 117 159 208 252 310 372
#     4  10  20  33  53  85 119 154 196 247 301 355
#     4  10  24  44  65  91 128 164 199 260 323 373
#     4  10  19  34  56  80 115 156 193 237 293 357
#     4   9  20  38  58  81 119 169 215 261 309 361
#     4  12  22  39  64  92 126 164 212 244 306 390
#     4  11  22  40  67  95 127 162 203 258 322 374
#
# _framework density 19.606099
#
# number of rings (size 3 to 8) (size 9 to 14) (size 15 to 20)
#    0.000    1.500    3.000    3.000    0.000    3.600 
#    1.800    1.000    6.600    0.000    0.000    4.200 
#    0.000    0.000    0.000    0.000    0.000    0.000 
#
# Total GULP energy -222812.837775 kJ/mol
# GULP energy per Si atom -5570.320944 kJ/mol
# Density = 1.956147 g / cm^3
# Si number density = 19.606099 Si / 1000 Ang^3
#
#
#
# Elastic Constant Matrix: (Units=GPa)
#
#
# Indices 1 2 3 4 5 6 
#
# 1 66.7452 41.5467 12.5646 0.0000 0.0000 0.0000
# 2 41.5467 74.6224 15.8445 0.0000 0.0000 0.0000
# 3 12.5646 15.8445 87.3732 0.0000 0.0000 0.0000
# 4 0.0000 0.0000 0.0000 8.5850 0.0000 0.0000
# 5 0.0000 0.0000 0.0000 0.0000 7.7145 0.0000
# 6 0.0000 0.0000 0.0000 0.0000 0.0000 33.8420
#
#
#
# Elastic Compliance Matrix: (Units=1/GPa)
#
#
# Indices 1 2 3 4 5 6 
#
# 1 0.023017 -0.012597 -0.001026 0.000000 0.000000 0.000000
# 2 -0.012597 0.020832 -0.001966 0.000000 0.000000 0.000000
# 3 -0.001026 -0.001966 0.011949 0.000000 0.000000 0.000000
# 4 0.000000 0.000000 0.000000 0.116483 0.000000 0.000000
# 5 0.000000 0.000000 0.000000 0.000000 0.129627 0.000000
# 6 0.000000 0.000000 0.000000 0.000000 0.000000 0.029549
#
#
# Mechanical properties :
#
#
# Convention : Reuss Voigt Hill
#
# Bulk Modulus (GPa) = 40.61702 40.96136 40.78919
# Shear Modulus (GPa) = 13.48290 20.61395 17.04842
#
# Velocity S-wave (km/s) = 2.62523 3.24606 2.95201
# Velocity P-wave (km/s) = 5.47271 5.91495 5.69813
#
# Compressibility (1/GPa) = 0.02462022
#
# Stress axis : x y z
#
# Youngs Moduli (GPa) = 43.44691 48.00364 83.68772
#
# Poissons Ratio (x) = 0.60470 0.08582
# Poissons Ratio (y) = 0.54730 0.16455
# Poissons Ratio (z) = 0.04456 0.09438
#
# Static dielectric constant tensor:
#      x y z
#    x 1.682700 0.000000 0.000000 
#    y 0.000000 1.708450 0.000000 
#    z 0.000000 0.000000 1.719670 
# 
# From -- ./inp_files/29746.got.cif
#   From: 2010.05.17/outbox.cif.g08.bks.cpg/sg71_15_cif.got.tgz:29746.got - 2010.06.03 16:22:01.
