data_PCOD9520737
_publ_section_title
;
Structure prediction by ZEFSAII (Michael W. Deem and Ramdas Pophale) SiO2 
 PCOD9520737
Probable space group: I M M M
;
_chemical_formula_sum "Si O2"
_cell_formula_units_Z 96
_cell_length_a 25.760591
_cell_length_b 25.548057
_cell_length_c 9.032198
_cell_angle_alpha 90.000000
_cell_angle_beta 90.000000
_cell_angle_gamma 90.000000
_cell_volume 5944.387993
_symmetry_space_group_name_H-M "I M M M"
_symmetry_group_IT_number 71
_symmetry_cell_setting 'orthorhombic'
loop_
_space_group_symop_operation_xyz
x,y,z
-x,-y,z
x,-y,-z
-x,y,-z
-x,-y,-z
x,y,-z
-x,y,z
x,-y,z
1/2+x,1/2+y,1/2+z
1/2-x,1/2-y,1/2+z
1/2+x,1/2-y,1/2-z
1/2-x,1/2+y,1/2-z
1/2-x,1/2-y,1/2-z
1/2+x,1/2+y,1/2-z
1/2-x,1/2+y,1/2+z
1/2+x,1/2-y,1/2+z
loop_
_atom_site_type_symbol
_atom_site_label
_atom_site_fract_x
_atom_site_fract_y
_atom_site_fract_z
Si Si1 0.753399 0.192601 0.322660
Si Si2 0.936964 0.500000 0.170000
Si Si3 0.358812 0.687190 0.677305
Si Si4 0.137298 0.688614 0.823963
Si Si5 0.937025 0.000000 0.829595
Si Si6 0.438156 0.608836 0.823710
Si Si7 0.439203 0.108065 0.176560
O O1 0.759526 0.196711 0.500000
O O2 0.750000 0.250000 0.250000
O O3 0.804552 0.168318 0.249839
O O4 0.696291 0.169288 0.293393
O O5 0.921370 0.446731 0.251538
O O6 0.000000 0.500000 0.171608
O O7 0.919676 0.500000 0.000000
O O8 0.356440 0.681905 0.500000
O O9 0.365239 0.749269 0.710876
O O10 0.405563 0.654100 0.745130
O O11 0.095653 0.655043 0.736420
O O12 0.128301 0.683339 0.000000
O O13 0.921926 0.947114 0.744853
O O14 0.000000 0.000000 0.831528
O O15 0.919175 0.000000 0.000000
O O16 0.500000 0.615381 0.797774
O O17 0.429630 0.609229 0.000000
O O18 0.500000 0.116123 0.216022
O O19 0.435877 0.104321 0.000000
#
# Coordination Sequence:
#
# PCOD9520737 Si02
#       7
#    16   8  16  16   8  16  16
#     4   9  17  31  50  71  95 125 164 205 243 287
#     4   9  17  31  51  70  91 124 163 199 236 282
#     4  10  20  33  50  73 100 131 166 203 244 290
#     4   9  19  33  49  71  98 129 163 198 239 288
#     4   9  17  31  51  72  95 126 165 205 242 286
#     4  10  20  33  50  73 101 132 165 202 245 292
#     4  10  20  32  48  72 100 128 160 199 240 283
#
# _framework density 16.149685000000002
#
# number of rings (size 3 to 8) (size 9 to 14) (size 15 to 20)
#    0.000    2.500    0.000    3.500    0.000    8.667 
#    0.000    3.333    0.000    1.000    0.000    1.167 
#    0.000    0.000    0.000    0.000    0.000    0.000 
#
# Total GULP energy -267496.894150 kJ/mol
# GULP energy per Si atom -5572.851961 kJ/mol
# Density = 1.611293 g / cm^3
# Si number density = 16.149685 Si / 1000 Ang^3
#
#
#
# Elastic Constant Matrix: (Units=GPa)
#
#
# Indices 1 2 3 4 5 6 
#
# 1 87.6004 60.4247 65.4894 0.0000 0.0000 0.0000
# 2 60.4247 91.0448 60.9375 0.0000 0.0000 0.0000
# 3 65.4894 60.9375 91.0955 0.0000 0.0000 0.0000
# 4 0.0000 0.0000 0.0000 30.9126 0.0000 0.0000
# 5 0.0000 0.0000 0.0000 0.0000 29.7945 0.0000
# 6 0.0000 0.0000 0.0000 0.0000 0.0000 -4.5093
#
#
#
# Elastic Compliance Matrix: (Units=1/GPa)
#
#
# Indices 1 2 3 4 5 6 
#
# 1 0.028548 -0.009434 -0.014213 0.000000 0.000000 0.000000
# 2 -0.009434 0.023006 -0.008607 0.000000 0.000000 0.000000
# 3 -0.014213 -0.008607 0.026953 0.000000 0.000000 0.000000
# 4 0.000000 0.000000 0.000000 0.032349 0.000000 0.000000
# 5 0.000000 0.000000 0.000000 0.000000 0.033563 0.000000
# 6 0.000000 0.000000 0.000000 0.000000 0.000000 -0.221764
#
#
# Mechanical properties :
#
#
# Convention : Reuss Voigt Hill
#
# Bulk Modulus (GPa) = 71.43501 71.49377 71.46439
# Shear Modulus (GPa) = -611.95790 16.76550 -297.59620
#
# Velocity S-wave (km/s) = -19.48721 3.22550 -13.58947
# Velocity P-wave (km/s) = 21.49432 7.63134 14.20860
#
# Compressibility (1/GPa) = 0.01399874
#
# Stress axis : x y z
#
# Youngs Moduli (GPa) = 35.02842 43.46731 37.10184
#
# Poissons Ratio (x) = 0.41008 0.52732
# Poissons Ratio (y) = 0.33046 0.31934
# Poissons Ratio (z) = 0.49785 0.37413
#
# Static dielectric constant tensor:
#      x y z
#    x 1.555170 0.000000 0.000000 
#    y 0.000000 1.524590 0.000000 
#    z 0.000000 0.000000 1.536470 
# 
# From -- ./inp_files/12881.got.cif
#   From: 2010.05.17/outbox.cif.g08.bks.cpg/sg71_7_cif.got.tgz:12881.got - 2010.06.03 16:22:01.
