data_PCOD9520622
_publ_section_title
;
Structure prediction by ZEFSAII (Michael W. Deem and Ramdas Pophale) SiO2 
 PCOD9520622
Probable space group: I M M M
;
_chemical_formula_sum "Si O2"
_cell_formula_units_Z 88
_cell_length_a 7.572032
_cell_length_b 15.470035
_cell_length_c 35.717007
_cell_angle_alpha 90.000000
_cell_angle_beta 90.000000
_cell_angle_gamma 90.000000
_cell_volume 4183.875915
_symmetry_space_group_name_H-M "I M M M"
_symmetry_group_IT_number 71
_symmetry_cell_setting 'orthorhombic'
loop_
_space_group_symop_operation_xyz
x,y,z
-x,-y,z
x,-y,-z
-x,y,-z
-x,-y,-z
x,y,-z
-x,y,z
x,-y,z
1/2+x,1/2+y,1/2+z
1/2-x,1/2-y,1/2+z
1/2+x,1/2-y,1/2-z
1/2-x,1/2+y,1/2-z
1/2-x,1/2-y,1/2-z
1/2+x,1/2+y,1/2-z
1/2-x,1/2+y,1/2+z
1/2+x,1/2-y,1/2+z
loop_
_atom_site_type_symbol
_atom_site_label
_atom_site_fract_x
_atom_site_fract_y
_atom_site_fract_z
Si Si1 0.712333 0.312136 0.957672
Si Si2 0.796402 0.895007 0.257742
Si Si3 0.795074 0.596729 0.159293
Si Si4 0.783392 0.900354 0.176597
Si Si5 0.202113 0.000000 0.454433
Si Si6 0.288532 0.261542 0.382568
O O1 0.500000 0.320768 0.959547
O O2 0.782955 0.407034 0.944822
O O3 0.753823 0.241404 0.926631
O O4 0.774542 0.294546 0.000000
O O5 0.708995 0.874430 0.297191
O O6 0.724952 0.865442 0.217494
O O7 0.000000 0.868079 0.260781
O O8 0.791846 0.000000 0.255118
O O9 0.716583 0.500000 0.156217
O O10 0.714150 0.672324 0.134588
O O11 0.000000 0.589241 0.148693
O O12 0.724149 0.841007 0.142412
O O13 0.000000 0.900647 0.178021
O O14 0.728583 0.000000 0.172167
O O15 0.195955 0.000000 0.500000
O O16 0.000000 0.000000 0.440358
O O17 0.500000 0.260744 0.377608
#
# Coordination Sequence:
#
# PCOD9520622 Si02
#       6
#    16  16  16  16   8  16
#     4   9  18  33  51  70  94 123 154 189 228 271
#     4   8  14  27  47  66  85 118 163 199 225 261
#     4   9  18  30  41  61  99 133 150 177 228 282
#     4   8  15  30  50  69  90 118 157 204 241 267
#     4   7  12  26  47  67  87 117 153 181 211 257
#     4  10  20  31  47  71  95 123 156 190 234 281
#
# _framework density 21.03313
#
# number of rings (size 3 to 8) (size 9 to 14) (size 15 to 20)
#    0.000    3.364    0.000    2.182    1.273    1.818 
#    0.000    0.909    0.000    3.818    0.000    3.818 
#    0.000    0.000    0.000    0.000    0.000    0.000 
#
# Total GULP energy -245269.233593 kJ/mol
# GULP energy per Si atom -5574.300763 kJ/mol
# Density = 2.098526 g / cm^3
# Si number density = 21.033130 Si / 1000 Ang^3
#
#
#
# Elastic Constant Matrix: (Units=GPa)
#
#
# Indices 1 2 3 4 5 6 
#
# 1 47.4946 3.1266 -2.4093 0.0000 0.0000 0.0000
# 2 3.1266 53.7947 51.4877 0.0000 0.0000 0.0000
# 3 -2.4093 51.4877 121.4797 0.0000 0.0000 0.0000
# 4 0.0000 0.0000 0.0000 34.7360 0.0000 0.0000
# 5 0.0000 0.0000 0.0000 0.0000 16.3769 0.0000
# 6 0.0000 0.0000 0.0000 0.0000 0.0000 -3.3167
#
#
#
# Elastic Compliance Matrix: (Units=1/GPa)
#
#
# Indices 1 2 3 4 5 6 
#
# 1 0.021318 -0.002766 0.001595 0.000000 0.000000 0.000000
# 2 -0.002766 0.031636 -0.013463 0.000000 0.000000 0.000000
# 3 0.001595 -0.013463 0.013970 0.000000 0.000000 0.000000
# 4 0.000000 0.000000 0.000000 0.028789 0.000000 0.000000
# 5 0.000000 0.000000 0.000000 0.000000 0.061062 0.000000
# 6 0.000000 0.000000 0.000000 0.000000 0.000000 -0.301508
#
#
# Mechanical properties :
#
#
# Convention : Reuss Voigt Hill
#
# Bulk Modulus (GPa) = 26.55643 36.35324 31.45483
# Shear Modulus (GPa) = -48.58420 20.93018 -13.82701
#
# Velocity S-wave (km/s) = -4.81134 3.15795 -2.56675
# Velocity P-wave (km/s) = 4.26755 5.53337 2.49060
#
# Compressibility (1/GPa) = 0.03765567
#
# Stress axis : x y z
#
# Youngs Moduli (GPa) = 46.90872 31.60968 71.58336
#
# Poissons Ratio (x) = 0.08742 -0.11417
# Poissons Ratio (y) = 0.12973 0.96375
# Poissons Ratio (z) = -0.07482 0.42557
#
# Static dielectric constant tensor:
#      x y z
#    x 1.796920 0.000000 0.000000 
#    y 0.000000 1.774890 0.000000 
#    z 0.000000 0.000000 1.780260 
# 
# From -- ./inp_files/22288.got.cif
#   From: 2010.05.17/outbox.cif.g08.bks.cpg/sg71_12_cif.got.tgz:22288.got - 2010.06.03 16:22:01.
