data_PCOD9520245
_publ_section_title
;
Structure prediction by ZEFSAII (Michael W. Deem and Ramdas Pophale) SiO2 
 PCOD9520245
Probable space group: I M M M
;
_chemical_formula_sum "Si O2"
_cell_formula_units_Z 116
_cell_length_a 28.694892
_cell_length_b 19.140666
_cell_length_c 10.954368
_cell_angle_alpha 90.000000
_cell_angle_beta 90.000000
_cell_angle_gamma 90.000000
_cell_volume 6016.569891
_symmetry_space_group_name_H-M "I M M M"
_symmetry_group_IT_number 71
_symmetry_cell_setting 'orthorhombic'
loop_
_space_group_symop_operation_xyz
x,y,z
-x,-y,z
x,-y,-z
-x,y,-z
-x,-y,-z
x,y,-z
-x,y,z
x,-y,z
1/2+x,1/2+y,1/2+z
1/2-x,1/2-y,1/2+z
1/2+x,1/2-y,1/2-z
1/2-x,1/2+y,1/2-z
1/2-x,1/2-y,1/2-z
1/2+x,1/2+y,1/2-z
1/2-x,1/2+y,1/2+z
1/2+x,1/2-y,1/2+z
loop_
_atom_site_type_symbol
_atom_site_label
_atom_site_fract_x
_atom_site_fract_y
_atom_site_fract_z
Si Si1 0.930155 0.715340 0.731863
Si Si2 0.097644 0.420707 0.856592
Si Si3 0.284854 0.369213 0.858175
Si Si4 0.303822 0.922123 0.222700
Si Si5 0.446615 0.351963 0.637354
Si Si6 0.673281 0.771512 0.140080
Si Si7 0.000000 0.726217 0.500000
Si Si8 0.608820 0.417361 0.863437
O O1 0.930482 0.635991 0.779177
O O2 0.946447 0.769381 0.834684
O O3 0.875791 0.732214 0.708196
O O4 0.959624 0.724936 0.609001
O O5 0.081338 0.500000 0.835037
O O6 0.151963 0.418601 0.814853
O O7 0.094695 0.405260 0.000000
O O8 0.245587 0.411680 0.788000
O O9 0.292091 0.289101 0.814075
O O10 0.336177 0.402606 0.850072
O O11 0.270700 0.367983 0.000000
O O12 0.309527 0.851270 0.145326
O O13 0.305937 0.000000 0.165520
O O14 0.428660 0.366026 0.500000
O O15 0.500000 0.377051 0.643343
O O16 0.418283 0.384422 0.749972
O O17 0.664318 0.752670 0.000000
O O18 0.600945 0.500000 0.861947
O O19 0.594446 0.391313 0.000000
#
# Coordination Sequence:
#
# PCOD9520245 Si02
#       8
#    16  16  16  16  16  16   4  16
#     4  11  21  38  61  90 118 152 203 250 307 367
#     4   9  19  37  59  83 117 160 203 250 306 365
#     4  10  19  34  59  86 116 152 201 255 297 349
#     4  10  20  33  54  85 119 156 199 246 300 362
#     4  11  24  40  62  89 119 156 200 251 307 368
#     4  10  20  35  57  83 116 155 199 246 302 362
#     4  12  24  36  67  94 117 162 202 264 310 372
#     4  10  22  39  62  91 121 158 202 248 303 363
#
# _framework density 19.280087999999999
#
# number of rings (size 3 to 8) (size 9 to 14) (size 15 to 20)
#    0.000    1.793    2.759    1.655    0.966    2.483 
#    0.000    3.103    0.000    2.483    0.000    0.000 
#    0.000    0.000    0.000    0.000    0.000    0.000 
#
# Total GULP energy -322872.219210 kJ/mol
# GULP energy per Si atom -5566.762400 kJ/mol
# Density = 1.923621 g / cm^3
# Si number density = 19.280088 Si / 1000 Ang^3
#
#
#
# Elastic Constant Matrix: (Units=GPa)
#
#
# Indices 1 2 3 4 5 6 
#
# 1 56.2646 16.9713 29.2560 0.0000 0.0000 0.0000
# 2 16.9713 98.7587 30.4956 0.0000 0.0000 0.0000
# 3 29.2560 30.4956 100.4205 0.0000 0.0000 0.0000
# 4 0.0000 0.0000 0.0000 19.7745 0.0000 0.0000
# 5 0.0000 0.0000 0.0000 0.0000 24.9595 0.0000
# 6 0.0000 0.0000 0.0000 0.0000 0.0000 3.7852
#
#
#
# Elastic Compliance Matrix: (Units=1/GPa)
#
#
# Indices 1 2 3 4 5 6 
#
# 1 0.021272 -0.001922 -0.005614 0.000000 0.000000 0.000000
# 2 -0.001922 0.011347 -0.002886 0.000000 0.000000 0.000000
# 3 -0.005614 -0.002886 0.012470 0.000000 0.000000 0.000000
# 4 0.000000 0.000000 0.000000 0.050570 0.000000 0.000000
# 5 0.000000 0.000000 0.000000 0.000000 0.040065 0.000000
# 6 0.000000 0.000000 0.000000 0.000000 0.000000 0.264188
#
#
# Mechanical properties :
#
#
# Convention : Reuss Voigt Hill
#
# Bulk Modulus (GPa) = 41.24422 45.43217 43.33820
# Shear Modulus (GPa) = 11.65944 21.61856 16.63900
#
# Velocity S-wave (km/s) = 2.46181 3.35220 2.94090
# Velocity P-wave (km/s) = 5.43316 6.21276 5.83600
#
# Compressibility (1/GPa) = 0.02424582
#
# Stress axis : x y z
#
# Youngs Moduli (GPa) = 47.01060 88.12802 80.19290
#
# Poissons Ratio (x) = 0.16939 0.45016
# Poissons Ratio (y) = 0.09036 0.23143
# Poissons Ratio (z) = 0.26389 0.25433
#
# Static dielectric constant tensor:
#      x y z
#    x 1.665010 0.000000 0.000000 
#    y 0.000000 1.723970 0.000000 
#    z 0.000000 0.000000 1.649340 
# 
# From -- ./inp_files/28975.got.cif
#   From: 2010.05.17/outbox.cif.g08.bks.cpg/sg71_15_cif.got.tgz:28975.got - 2010.06.03 16:22:01.
