data_PCOD9520778
_publ_section_title
;
Structure prediction by ZEFSAII (Michael W. Deem and Ramdas Pophale) SiO2 
 PCOD9520778
Probable space group: I M M M
;
_chemical_formula_sum "Si O2"
_cell_formula_units_Z 104
_cell_length_a 26.933828
_cell_length_b 19.952021
_cell_length_c 8.172315
_cell_angle_alpha 90.000000
_cell_angle_beta 90.000000
_cell_angle_gamma 90.000000
_cell_volume 4391.673791
_symmetry_space_group_name_H-M "I M M M"
_symmetry_group_IT_number 71
_symmetry_cell_setting 'orthorhombic'
loop_
_space_group_symop_operation_xyz
x,y,z
-x,-y,z
x,-y,-z
-x,y,-z
-x,-y,-z
x,y,-z
-x,y,z
x,-y,z
1/2+x,1/2+y,1/2+z
1/2-x,1/2-y,1/2+z
1/2+x,1/2-y,1/2-z
1/2-x,1/2+y,1/2-z
1/2-x,1/2-y,1/2-z
1/2+x,1/2+y,1/2-z
1/2-x,1/2+y,1/2+z
1/2+x,1/2-y,1/2+z
loop_
_atom_site_type_symbol
_atom_site_label
_atom_site_fract_x
_atom_site_fract_y
_atom_site_fract_z
Si Si1 0.441593 0.922903 0.500000
Si Si2 0.187232 0.103773 0.309026
Si Si3 0.202877 0.395582 0.803639
Si Si4 0.835627 0.751901 0.803974
Si Si5 0.446104 0.278919 0.300025
Si Si6 0.920467 0.072108 0.807112
Si Si7 0.599158 0.923430 0.825941
O O1 0.500000 0.924847 0.500000
O O2 0.422852 0.889897 0.335204
O O3 0.422049 0.000000 0.500000
O O4 0.181544 0.086719 0.500000
O O5 0.242144 0.082195 0.255541
O O6 0.186354 0.184115 0.286965
O O7 0.139134 0.077442 0.215456
O O8 0.194064 0.316223 0.776440
O O9 0.157766 0.427145 0.705132
O O10 0.196654 0.407956 0.000000
O O11 0.893405 0.747335 0.750241
O O12 0.834988 0.765337 0.000000
O O13 0.446174 0.277405 0.500000
O O14 0.500000 0.252024 0.246643
O O15 0.441932 0.357347 0.245759
O O16 0.936656 0.000000 0.737273
O O17 0.931856 0.071229 0.000000
O O18 0.579236 0.000000 0.830326
O O19 0.587888 0.891826 0.000000
#
# Coordination Sequence:
#
# PCOD9520778 Si02
#       7
#     8  16  16  16  16  16  16
#     4   9  18  36  60  80 106 142 176 220 268 314
#     4  10  20  32  49  73 101 140 179 219 268 323
#     4  10  20  34  52  74 107 143 180 221 274 329
#     4   9  18  33  52  73 102 134 175 224 267 321
#     4   8  14  27  49  75 100 128 165 212 266 318
#     4   9  18  32  49  71 101 134 172 219 263 314
#     4  10  21  36  56  83 112 143 182 226 274 331
#
# _framework density 23.681177000000002
#
# number of rings (size 3 to 8) (size 9 to 14) (size 15 to 20)
#    0.000    2.692    0.769    1.846    0.000    3.385 
#    0.000    6.923    0.000    7.385    0.000    4.308 
#    0.000    0.000    0.000    0.000    0.000    0.000 
#
# Total GULP energy -290356.791694 kJ/mol
# GULP energy per Si atom -5583.784456 kJ/mol
# Density = 2.362728 g / cm^3
# Si number density = 23.681177 Si / 1000 Ang^3
#
#
#
# Elastic Constant Matrix: (Units=GPa)
#
#
# Indices 1 2 3 4 5 6 
#
# 1 113.0742 -6.6582 16.3885 0.0000 0.0000 0.0000
# 2 -6.6582 72.8898 4.8708 0.0000 0.0000 0.0000
# 3 16.3885 4.8708 72.5669 0.0000 0.0000 0.0000
# 4 0.0000 0.0000 0.0000 16.3670 0.0000 0.0000
# 5 0.0000 0.0000 0.0000 0.0000 -2.8190 0.0000
# 6 0.0000 0.0000 0.0000 0.0000 0.0000 14.1824
#
#
#
# Elastic Compliance Matrix: (Units=1/GPa)
#
#
# Indices 1 2 3 4 5 6 
#
# 1 0.009213 0.000985 -0.002147 0.000000 0.000000 0.000000
# 2 0.000985 0.013886 -0.001155 0.000000 0.000000 0.000000
# 3 -0.002147 -0.001155 0.014343 0.000000 0.000000 0.000000
# 4 0.000000 0.000000 0.000000 0.061099 0.000000 0.000000
# 5 0.000000 0.000000 0.000000 0.000000 -0.354732 0.000000
# 6 0.000000 0.000000 0.000000 0.000000 0.000000 0.070510
#
#
# Mechanical properties :
#
#
# Convention : Reuss Voigt Hill
#
# Bulk Modulus (GPa) = 30.47896 31.97035 31.22466
# Shear Modulus (GPa) = -29.39228 21.80805 -3.79211
#
# Velocity S-wave (km/s) = -3.52684 3.03793 -1.26681
# Velocity P-wave (km/s) = 1.91998 5.08281 3.32781
#
# Compressibility (1/GPa) = 0.03280952
#
# Stress axis : x y z
#
# Youngs Moduli (GPa) = 108.54357 72.01250 69.72183
#
# Poissons Ratio (x) = -0.07093 0.14968
# Poissons Ratio (y) = -0.10692 0.08050
# Poissons Ratio (z) = 0.23302 0.08314
#
# Static dielectric constant tensor:
#      x y z
#    x 1.870540 0.000000 0.000000 
#    y 0.000000 1.961690 0.000000 
#    z 0.000000 0.000000 1.934290 
# 
# From -- ./inp_files/15564.got.cif
#   From: 2010.05.17/outbox.cif.g08.bks.cpg/sg71_8_cif.got.tgz:15564.got - 2010.06.03 16:22:01.
