data_PCOD9520113
_publ_section_title
;
Structure prediction by ZEFSAII (Michael W. Deem and Ramdas Pophale) SiO2 
 PCOD9520113
Probable space group: I M M M
;
_chemical_formula_sum "Si O2"
_cell_formula_units_Z 90
_cell_length_a 23.052780
_cell_length_b 23.326464
_cell_length_c 7.305332
_cell_angle_alpha 90.000000
_cell_angle_beta 90.000000
_cell_angle_gamma 90.000000
_cell_volume 3928.368081
_symmetry_space_group_name_H-M "I M M M"
_symmetry_group_IT_number 71
_symmetry_cell_setting 'orthorhombic'
loop_
_space_group_symop_operation_xyz
x,y,z
-x,-y,z
x,-y,-z
-x,y,-z
-x,-y,-z
x,y,-z
-x,y,z
x,-y,z
1/2+x,1/2+y,1/2+z
1/2-x,1/2-y,1/2+z
1/2+x,1/2-y,1/2-z
1/2-x,1/2+y,1/2-z
1/2-x,1/2-y,1/2-z
1/2+x,1/2+y,1/2-z
1/2-x,1/2+y,1/2+z
1/2+x,1/2-y,1/2+z
loop_
_atom_site_type_symbol
_atom_site_label
_atom_site_fract_x
_atom_site_fract_y
_atom_site_fract_z
Si Si1 0.122184 0.268566 0.721855
Si Si2 0.500000 0.582912 0.709982
Si Si3 0.888765 0.500000 0.225461
Si Si4 0.322132 0.885448 0.290175
Si Si5 0.500000 0.716366 0.221470
Si Si6 0.293644 0.330143 0.209002
Si Si7 0.372066 0.562074 0.721989
Si Si8 0.000000 0.500000 0.500000
O O1 0.122989 0.267059 0.500000
O O2 0.132861 0.333164 0.782374
O O3 0.059413 0.246132 0.781067
O O4 0.173072 0.225241 0.786640
O O5 0.500000 0.563345 0.500000
O O6 0.500000 0.651321 0.714914
O O7 0.438570 0.563788 0.787400
O O8 0.851509 0.556581 0.278013
O O9 0.948428 0.500000 0.338633
O O10 0.897236 0.500000 0.000000
O O11 0.306189 0.898888 0.500000
O O12 0.264234 0.857169 0.204728
O O13 0.500000 0.715850 0.000000
O O14 0.338947 0.382512 0.208380
O O15 0.278766 0.314057 0.000000
O O16 0.372071 0.566105 0.500000
O O17 0.346164 0.500000 0.771187
#
# Coordination Sequence:
#
# PCOD9520113 Si02
#       8
#    16   8   8  16   8  16  16   2
#     4  10  21  37  60  91 125 161 210 264 318 382
#     4  10  19  34  55  77 115 159 204 252 305 361
#     4  10  25  49  73 106 141 174 221 282 338 412
#     4  10  23  42  64  92 129 165 208 259 327 391
#     4  10  20  36  56  83 119 152 194 258 308 358
#     4  10  21  38  61  89 124 167 208 258 319 382
#     4  10  21  35  53  83 117 161 209 258 306 362
#     4  12  26  48  84 106 132 180 226 278 358 414
#
# _framework density 22.910277000000001
#
# number of rings (size 3 to 8) (size 9 to 14) (size 15 to 20)
#    0.000    1.956    1.778    0.933    2.489    4.267 
#    1.600    0.889    0.000    1.600    0.000    0.000 
#    0.000    0.000    0.000    0.000    0.000    0.000 
#
# Total GULP energy -251128.578916 kJ/mol
# GULP energy per Si atom -5580.635087 kJ/mol
# Density = 2.285813 g / cm^3
# Si number density = 22.910277 Si / 1000 Ang^3
#
#
#
# Elastic Constant Matrix: (Units=GPa)
#
#
# Indices 1 2 3 4 5 6 
#
# 1 135.2330 73.4191 18.2324 0.0000 0.0000 0.0000
# 2 73.4191 198.9368 1.5694 0.0000 0.0000 0.0000
# 3 18.2324 1.5694 110.2740 0.0000 0.0000 0.0000
# 4 0.0000 0.0000 0.0000 9.8227 0.0000 0.0000
# 5 0.0000 0.0000 0.0000 0.0000 -18.9034 0.0000
# 6 0.0000 0.0000 0.0000 0.0000 0.0000 28.8409
#
#
#
# Elastic Compliance Matrix: (Units=1/GPa)
#
#
# Indices 1 2 3 4 5 6 
#
# 1 0.009496 -0.003492 -0.001520 0.000000 0.000000 0.000000
# 2 -0.003492 0.006312 0.000488 0.000000 0.000000 0.000000
# 3 -0.001520 0.000488 0.009313 0.000000 0.000000 0.000000
# 4 0.000000 0.000000 0.000000 0.101805 0.000000 0.000000
# 5 0.000000 0.000000 0.000000 0.000000 -0.052901 0.000000
# 6 0.000000 0.000000 0.000000 0.000000 0.000000 0.034673
#
#
# Mechanical properties :
#
#
# Convention : Reuss Voigt Hill
#
# Bulk Modulus (GPa) = 62.22797 70.09839 66.16318
# Shear Modulus (GPa) = 40.61581 27.36690 33.99135
#
# Velocity S-wave (km/s) = 4.21506 3.45994 3.85603
# Velocity P-wave (km/s) = 7.13509 6.82824 6.98335
#
# Compressibility (1/GPa) = 0.01606994
#
# Stress axis : x y z
#
# Youngs Moduli (GPa) = 105.31086 158.43358 107.37972
#
# Poissons Ratio (x) = 0.55332 0.16325
# Poissons Ratio (y) = 0.36779 -0.05236
# Poissons Ratio (z) = 0.16010 -0.07725
#
# Static dielectric constant tensor:
#      x y z
#    x 1.849620 0.000000 0.000000 
#    y 0.000000 1.805460 0.000000 
#    z 0.000000 0.000000 1.881930 
# 
# From -- ./inp_files/10584.got.cif
#   From: 2010.05.17/outbox.cif.g08.bks.cpg/sg71_6_cif.got.tgz:10584.got - 2010.06.03 16:22:01.
