data_PCOD9520856
_publ_section_title
;
Structure prediction by ZEFSAII (Michael W. Deem and Ramdas Pophale) SiO2 
 PCOD9520856
Probable space group: I M M M
;
_chemical_formula_sum "Si O2"
_cell_formula_units_Z 80
_cell_length_a 8.492652
_cell_length_b 20.179677
_cell_length_c 25.919764
_cell_angle_alpha 90.000000
_cell_angle_beta 90.000000
_cell_angle_gamma 90.000000
_cell_volume 4442.102567
_symmetry_space_group_name_H-M "I M M M"
_symmetry_group_IT_number 71
_symmetry_cell_setting 'orthorhombic'
loop_
_space_group_symop_operation_xyz
x,y,z
-x,-y,z
x,-y,-z
-x,y,-z
-x,-y,-z
x,y,-z
-x,y,z
x,-y,z
1/2+x,1/2+y,1/2+z
1/2-x,1/2-y,1/2+z
1/2+x,1/2-y,1/2-z
1/2-x,1/2+y,1/2-z
1/2-x,1/2-y,1/2-z
1/2+x,1/2+y,1/2-z
1/2-x,1/2+y,1/2+z
1/2+x,1/2-y,1/2+z
loop_
_atom_site_type_symbol
_atom_site_label
_atom_site_fract_x
_atom_site_fract_y
_atom_site_fract_z
Si Si1 0.314823 0.500000 0.727211
Si Si2 0.679366 0.618173 0.557313
Si Si3 0.312926 0.247967 0.330881
Si Si4 0.683545 0.739951 0.057423
Si Si5 0.680523 0.000000 0.118006
Si Si6 0.311556 0.141966 0.757946
O O1 0.500000 0.500000 0.713375
O O2 0.198858 0.500000 0.678553
O O3 0.274197 0.571732 0.751362
O O4 0.683716 0.588167 0.500000
O O5 0.500000 0.641349 0.566608
O O6 0.792704 0.680780 0.557393
O O7 0.731290 0.563952 0.597129
O O8 0.500000 0.257522 0.329876
O O9 0.263536 0.223322 0.387904
O O10 0.271275 0.191864 0.288898
O O11 0.237572 0.317040 0.309843
O O12 0.500000 0.722640 0.059831
O O13 0.744262 0.717951 0.000000
O O14 0.500000 0.000000 0.101114
O O15 0.500000 0.132085 0.759289
#
# Coordination Sequence:
#
# PCOD9520856 Si02
#       6
#     8  16  16  16   8  16
#     4  12  24  37  53  74 101 132 170 212 255 305
#     4  10  20  33  47  64  90 125 166 209 249 291
#     4  10  20  35  56  80 106 138 174 213 258 308
#     4  10  20  33  50  73 101 132 166 206 251 299
#     4  12  23  33  46  63  90 127 165 206 249 296
#     4  10  21  37  56  78 106 138 173 214 260 310
#
# _framework density 18.009488999999999
#
# number of rings (size 3 to 8) (size 9 to 14) (size 15 to 20)
#    0.000    1.600    0.000    5.700    0.000    6.000 
#    0.000    0.000    0.000    0.000    0.000    0.700 
#    0.000    5.600    0.000    0.000    0.000    0.000 
#
# Total GULP energy -223011.970004 kJ/mol
# GULP energy per Si atom -5575.299250 kJ/mol
# Density = 1.796850 g / cm^3
# Si number density = 18.009489 Si / 1000 Ang^3
#
#
#
# Elastic Constant Matrix: (Units=GPa)
#
#
# Indices 1 2 3 4 5 6 
#
# 1 42.5148 15.0502 6.6110 0.0000 0.0000 0.0000
# 2 15.0502 70.7702 22.9465 0.0000 0.0000 0.0000
# 3 6.6110 22.9465 101.7298 0.0000 0.0000 0.0000
# 4 0.0000 0.0000 0.0000 28.6768 0.0000 0.0000
# 5 0.0000 0.0000 0.0000 0.0000 26.5933 0.0000
# 6 0.0000 0.0000 0.0000 0.0000 0.0000 20.8849
#
#
#
# Elastic Compliance Matrix: (Units=1/GPa)
#
#
# Indices 1 2 3 4 5 6 
#
# 1 0.025457 -0.005262 -0.000467 0.000000 0.000000 0.000000
# 2 -0.005262 0.016333 -0.003342 0.000000 0.000000 0.000000
# 3 -0.000467 -0.003342 0.010614 0.000000 0.000000 0.000000
# 4 0.000000 0.000000 0.000000 0.034871 0.000000 0.000000
# 5 0.000000 0.000000 0.000000 0.000000 0.037603 0.000000
# 6 0.000000 0.000000 0.000000 0.000000 0.000000 0.047882
#
#
# Mechanical properties :
#
#
# Convention : Reuss Voigt Hill
#
# Bulk Modulus (GPa) = 29.18817 33.80339 31.49578
# Shear Modulus (GPa) = 24.71285 26.59145 25.65215
#
# Velocity S-wave (km/s) = 3.70836 3.84673 3.77818
# Velocity P-wave (km/s) = 5.88032 6.20808 6.04642
#
# Compressibility (1/GPa) = 0.03426045
#
# Stress axis : x y z
#
# Youngs Moduli (GPa) = 39.28241 61.22588 94.21340
#
# Poissons Ratio (x) = 0.32218 0.04403
# Poissons Ratio (y) = 0.20671 0.31488
# Poissons Ratio (z) = 0.01836 0.20463
#
# Static dielectric constant tensor:
#      x y z
#    x 1.607460 0.000000 0.000000 
#    y 0.000000 1.598360 0.000000 
#    z 0.000000 0.000000 1.686120 
# 
# From -- ./inp_files/57465.got.cif
#   From: 2010.05.17/outbox.cif.g08.bks.cpg/sg71_29_cif.got.tgz:57465.got - 2010.06.03 16:22:01.
