data_PCOD9520552
_publ_section_title
;
Structure prediction by ZEFSAII (Michael W. Deem and Ramdas Pophale) SiO2 
 PCOD9520552
Probable space group: I M M M
;
_chemical_formula_sum "Si O2"
_cell_formula_units_Z 88
_cell_length_a 33.643117
_cell_length_b 9.077147
_cell_length_c 19.106107
_cell_angle_alpha 90.000000
_cell_angle_beta 90.000000
_cell_angle_gamma 90.000000
_cell_volume 5834.690181
_symmetry_space_group_name_H-M "I M M M"
_symmetry_group_IT_number 71
_symmetry_cell_setting 'orthorhombic'
loop_
_space_group_symop_operation_xyz
x,y,z
-x,-y,z
x,-y,-z
-x,y,-z
-x,-y,-z
x,y,-z
-x,y,z
x,-y,z
1/2+x,1/2+y,1/2+z
1/2-x,1/2-y,1/2+z
1/2+x,1/2-y,1/2-z
1/2-x,1/2+y,1/2-z
1/2-x,1/2-y,1/2-z
1/2+x,1/2+y,1/2-z
1/2-x,1/2+y,1/2+z
1/2+x,1/2-y,1/2+z
loop_
_atom_site_type_symbol
_atom_site_label
_atom_site_fract_x
_atom_site_fract_y
_atom_site_fract_z
Si Si1 0.618545 0.676794 0.705001
Si Si2 0.451896 0.667661 0.500000
Si Si3 0.738801 0.668344 0.641738
Si Si4 0.307862 0.669288 0.791211
Si Si5 0.333108 0.174944 0.579793
Si Si6 0.953047 0.324971 0.853965
O O1 0.616388 0.500000 0.701478
O O2 0.647676 0.715924 0.769550
O O3 0.640505 0.738546 0.635838
O O4 0.575282 0.749150 0.702825
O O5 0.436234 0.500000 0.500000
O O6 0.500000 0.658625 0.500000
O O7 0.442029 0.754687 0.429317
O O8 0.739071 0.500000 0.616973
O O9 0.716095 0.669869 0.717112
O O10 0.782614 0.729948 0.656933
O O11 0.711997 0.771051 0.592835
O O12 0.308266 0.500000 0.815679
O O13 0.344961 0.205828 0.500000
O O14 0.336166 0.000000 0.592290
O O15 0.946466 0.500000 0.856345
O O16 0.000000 0.298467 0.842313
#
# Coordination Sequence:
#
# PCOD9520552 Si02
#       6
#    16   8  16  16  16  16
#     4  10  20  31  44  60  77 100 130 167 203 236
#     4   9  17  29  43  55  67  89 123 159 193 233
#     4   9  16  26  42  60  77  99 125 156 192 230
#     4   8  15  27  41  58  77  97 124 156 193 233
#     4  10  20  31  42  57  79 106 132 161 199 238
#     4  10  20  32  44  57  75  99 127 161 202 245
#
# _framework density 15.082205999999999
#
# number of rings (size 3 to 8) (size 9 to 14) (size 15 to 20)
#    0.000    2.636    0.000    3.545    1.273    8.727 
#    0.000    0.000    0.000    0.000    0.000    0.000 
#    0.000    0.000    0.000    0.000    0.000    0.909 
#
# Total GULP energy -245212.193088 kJ/mol
# GULP energy per Si atom -5573.004388 kJ/mol
# Density = 1.504788 g / cm^3
# Si number density = 15.082206 Si / 1000 Ang^3
#
#
#
# Elastic Constant Matrix: (Units=GPa)
#
#
# Indices 1 2 3 4 5 6 
#
# 1 85.0088 33.2465 11.1514 0.0000 0.0000 0.0000
# 2 33.2465 53.3906 6.1182 0.0000 0.0000 0.0000
# 3 11.1514 6.1182 5.7373 0.0000 0.0000 0.0000
# 4 0.0000 0.0000 0.0000 13.8669 0.0000 0.0000
# 5 0.0000 0.0000 0.0000 0.0000 20.9766 0.0000
# 6 0.0000 0.0000 0.0000 0.0000 0.0000 26.1569
#
#
#
# Elastic Compliance Matrix: (Units=1/GPa)
#
#
# Indices 1 2 3 4 5 6 
#
# 1 0.018655 -0.008500 -0.027195 0.000000 0.000000 0.000000
# 2 -0.008500 0.025211 -0.010362 0.000000 0.000000 0.000000
# 3 -0.027195 -0.010362 0.238208 0.000000 0.000000 0.000000
# 4 0.000000 0.000000 0.000000 0.072114 0.000000 0.000000
# 5 0.000000 0.000000 0.000000 0.000000 0.047672 0.000000
# 6 0.000000 0.000000 0.000000 0.000000 0.000000 0.038231
#
#
# Mechanical properties :
#
#
# Convention : Reuss Voigt Hill
#
# Bulk Modulus (GPa) = 5.26432 27.24100 16.25266
# Shear Modulus (GPa) = 8.39593 18.44145 13.41869
#
# Velocity S-wave (km/s) = 2.36196 3.50055 2.98603
# Velocity P-wave (km/s) = 3.30703 5.86850 4.76318
#
# Compressibility (1/GPa) = 0.18995804
#
# Stress axis : x y z
#
# Youngs Moduli (GPa) = 53.60360 39.66589 4.19801
#
# Poissons Ratio (x) = 0.33718 0.11417
# Poissons Ratio (y) = 0.45565 0.04350
# Poissons Ratio (z) = 1.45778 0.41103
#
# Static dielectric constant tensor:
#      x y z
#    x 1.554110 0.000000 0.000000 
#    y 0.000000 1.504790 0.000000 
#    z 0.000000 0.000000 1.475100 
# 
# From -- ./inp_files/13533.got.cif
#   From: 2010.05.17/outbox.cif.g08.bks.cpg/sg71_7_cif.got.tgz:13533.got - 2010.06.03 16:22:01.
