data_PCOD9520035
_publ_section_title
;
Structure prediction by ZEFSAII (Michael W. Deem and Ramdas Pophale) SiO2 
 PCOD9520035
Probable space group: I M M M
;
_chemical_formula_sum "Si O2"
_cell_formula_units_Z 112
_cell_length_a 25.179450
_cell_length_b 28.083904
_cell_length_c 9.564580
_cell_angle_alpha 90.000000
_cell_angle_beta 90.000000
_cell_angle_gamma 90.000000
_cell_volume 6763.470861
_symmetry_space_group_name_H-M "I M M M"
_symmetry_group_IT_number 71
_symmetry_cell_setting 'orthorhombic'
loop_
_space_group_symop_operation_xyz
x,y,z
-x,-y,z
x,-y,-z
-x,y,-z
-x,-y,-z
x,y,-z
-x,y,z
x,-y,z
1/2+x,1/2+y,1/2+z
1/2-x,1/2-y,1/2+z
1/2+x,1/2-y,1/2-z
1/2-x,1/2+y,1/2-z
1/2-x,1/2-y,1/2-z
1/2+x,1/2+y,1/2-z
1/2-x,1/2+y,1/2+z
1/2+x,1/2-y,1/2+z
loop_
_atom_site_type_symbol
_atom_site_label
_atom_site_fract_x
_atom_site_fract_y
_atom_site_fract_z
Si Si1 0.844477 0.944563 0.666642
Si Si2 0.243586 0.132301 0.669277
Si Si3 0.662141 0.171560 0.830741
Si Si4 0.059779 0.899883 0.160875
Si Si5 0.439213 0.813768 0.658216
Si Si6 0.324746 0.721849 0.158313
Si Si7 0.058656 0.206946 0.254740
O O1 0.853218 0.940201 0.500000
O O2 0.792093 0.913848 0.699011
O O3 0.894786 0.922377 0.745106
O O4 0.838306 0.000000 0.701531
O O5 0.251956 0.134557 0.500000
O O6 0.297810 0.135723 0.755295
O O7 0.208096 0.177892 0.718056
O O8 0.602699 0.167240 0.770475
O O9 0.679823 0.225142 0.781252
O O10 0.663153 0.169259 0.000000
O O11 0.061862 0.842362 0.171184
O O12 0.000000 0.913852 0.205678
O O13 0.066978 0.913950 0.000000
O O14 0.424231 0.827282 0.500000
O O15 0.500000 0.828672 0.685143
O O16 0.439203 0.755967 0.667997
O O17 0.387312 0.709069 0.157283
O O18 0.305826 0.726406 0.000000
O O19 0.000000 0.207015 0.324951
#
# Coordination Sequence:
#
# PCOD9520035 Si02
#       7
#    16  16  16  16  16  16  16
#     4  10  22  39  56  72  91 120 161 209 257 301
#     4  10  19  34  51  67  92 124 159 199 244 293
#     4  10  20  31  46  72 101 127 160 196 234 281
#     4  10  20  33  50  72  96 123 159 206 258 305
#     4   9  17  30  48  70  99 135 168 195 228 273
#     4   9  17  29  44  67  95 126 161 199 242 286
#     4   9  16  27  44  68  95 126 166 206 243 287
#
# _framework density 16.559545
#
# number of rings (size 3 to 8) (size 9 to 14) (size 15 to 20)
#    0.000    2.429    1.429    1.286    0.000    3.714 
#    0.000    6.429    0.000    0.000    0.000    0.000 
#    0.000    0.571    0.000    6.571    0.000    2.000 
#
# Total GULP energy -311799.569249 kJ/mol
# GULP energy per Si atom -5567.849451 kJ/mol
# Density = 1.652185 g / cm^3
# Si number density = 16.559545 Si / 1000 Ang^3
#
#
#
# Elastic Constant Matrix: (Units=GPa)
#
#
# Indices 1 2 3 4 5 6 
#
# 1 114.9217 53.4771 54.6630 0.0000 0.0000 0.0000
# 2 53.4771 55.3227 32.7604 0.0000 0.0000 0.0000
# 3 54.6630 32.7604 56.8366 0.0000 0.0000 0.0000
# 4 0.0000 0.0000 0.0000 6.7982 0.0000 0.0000
# 5 0.0000 0.0000 0.0000 0.0000 26.6741 0.0000
# 6 0.0000 0.0000 0.0000 0.0000 0.0000 14.8769
#
#
#
# Elastic Compliance Matrix: (Units=1/GPa)
#
#
# Indices 1 2 3 4 5 6 
#
# 1 0.020365 -0.012278 -0.012509 0.000000 0.000000 0.000000
# 2 -0.012278 0.034845 -0.008276 0.000000 0.000000 0.000000
# 3 -0.012509 -0.008276 0.034395 0.000000 0.000000 0.000000
# 4 0.000000 0.000000 0.000000 0.147098 0.000000 0.000000
# 5 0.000000 0.000000 0.000000 0.000000 0.037490 0.000000
# 6 0.000000 0.000000 0.000000 0.000000 0.000000 0.067218
#
#
# Mechanical properties :
#
#
# Convention : Reuss Voigt Hill
#
# Bulk Modulus (GPa) = 42.59145 56.54244 49.56695
# Shear Modulus (GPa) = 12.03761 15.41519 13.72640
#
# Velocity S-wave (km/s) = 2.69909 3.05437 2.88221
# Velocity P-wave (km/s) = 5.95730 6.83066 6.40888
#
# Compressibility (1/GPa) = 0.02347889
#
# Stress axis : x y z
#
# Youngs Moduli (GPa) = 49.10362 28.69846 29.07368
#
# Poissons Ratio (x) = 0.35236 0.36369
# Poissons Ratio (y) = 0.60290 0.24061
# Poissons Ratio (z) = 0.61425 0.23751
#
# Static dielectric constant tensor:
#      x y z
#    x 1.576800 0.000000 0.000000 
#    y 0.000000 1.552910 0.000000 
#    z 0.000000 0.000000 1.566970 
# 
# From -- ./inp_files/26264.got.cif
#   From: 2010.05.17/outbox.cif.g08.bks.cpg/sg71_14_cif.got.tgz:26264.got - 2010.06.03 16:22:01.
