data_PCOD9520549
_publ_section_title
;
Structure prediction by ZEFSAII (Michael W. Deem and Ramdas Pophale) SiO2 
 PCOD9520549
Probable space group: I M M M
;
_chemical_formula_sum "Si O2"
_cell_formula_units_Z 80
_cell_length_a 24.511759
_cell_length_b 25.274128
_cell_length_c 7.432273
_cell_angle_alpha 90.000000
_cell_angle_beta 90.000000
_cell_angle_gamma 90.000000
_cell_volume 4604.392229
_symmetry_space_group_name_H-M "I M M M"
_symmetry_group_IT_number 71
_symmetry_cell_setting 'orthorhombic'
loop_
_space_group_symop_operation_xyz
x,y,z
-x,-y,z
x,-y,-z
-x,y,-z
-x,-y,-z
x,y,-z
-x,y,z
x,-y,z
1/2+x,1/2+y,1/2+z
1/2-x,1/2-y,1/2+z
1/2+x,1/2-y,1/2-z
1/2-x,1/2+y,1/2-z
1/2-x,1/2-y,1/2-z
1/2+x,1/2+y,1/2-z
1/2-x,1/2+y,1/2+z
1/2+x,1/2-y,1/2+z
loop_
_atom_site_type_symbol
_atom_site_label
_atom_site_fract_x
_atom_site_fract_y
_atom_site_fract_z
Si Si1 0.263397 0.940869 0.719855
Si Si2 0.110070 0.558916 0.782909
Si Si3 0.167934 0.728111 0.280517
Si Si4 0.720633 0.333225 0.209088
Si Si5 0.559934 0.170356 0.789110
O O1 0.263371 0.939592 0.500000
O O2 0.326776 0.933273 0.773855
O O3 0.227083 0.892047 0.785594
O O4 0.246651 0.000000 0.774013
O O5 0.092712 0.500000 0.724111
O O6 0.074396 0.608282 0.723643
O O7 0.109633 0.558995 0.000000
O O8 0.169083 0.727575 0.500000
O O9 0.218904 0.692344 0.220310
O O10 0.180739 0.787865 0.217545
O O11 0.111319 0.703179 0.216019
O O12 0.705857 0.339293 0.000000
O O13 0.500000 0.180383 0.711213
O O14 0.557613 0.183734 0.000000
#
# Coordination Sequence:
#
# PCOD9520549 Si02
#       5
#    16  16  16  16  16
#     4   8  13  22  38  59  79  96 116 148 190 228
#     4   9  17  29  43  57  74  98 131 168 198 223
#     4   9  17  27  39  57  76  96 126 157 188 225
#     4   9  15  25  43  60  75  95 120 154 192 230
#     4  10  20  31  40  52  76 106 133 162 192 224
#
# _framework density 17.374714999999998
#
# number of rings (size 3 to 8) (size 9 to 14) (size 15 to 20)
#    0.000    3.000    2.000    1.200    0.000    1.200 
#    0.000    2.000    0.000    0.600    0.000    0.000 
#    0.000    0.800    0.000   11.200    0.000    0.000 
#
# Total GULP energy -222919.097051 kJ/mol
# GULP energy per Si atom -5572.977426 kJ/mol
# Density = 1.733517 g / cm^3
# Si number density = 17.374715 Si / 1000 Ang^3
#
#
#
# Elastic Constant Matrix: (Units=GPa)
#
#
# Indices 1 2 3 4 5 6 
#
# 1 88.0842 57.7386 -3.5030 0.0000 0.0000 0.0000
# 2 57.7386 120.1552 -8.6080 0.0000 0.0000 0.0000
# 3 -3.5030 -8.6080 53.2748 0.0000 0.0000 0.0000
# 4 0.0000 0.0000 0.0000 7.6522 0.0000 0.0000
# 5 0.0000 0.0000 0.0000 0.0000 5.3447 0.0000
# 6 0.0000 0.0000 0.0000 0.0000 0.0000 14.9688
#
#
#
# Elastic Compliance Matrix: (Units=1/GPa)
#
#
# Indices 1 2 3 4 5 6 
#
# 1 0.016575 -0.007979 -0.000199 0.000000 0.000000 0.000000
# 2 -0.007979 0.012261 0.001456 0.000000 0.000000 0.000000
# 3 -0.000199 0.001456 0.018993 0.000000 0.000000 0.000000
# 4 0.000000 0.000000 0.000000 0.130682 0.000000 0.000000
# 5 0.000000 0.000000 0.000000 0.000000 0.187102 0.000000
# 6 0.000000 0.000000 0.000000 0.000000 0.000000 0.066806
#
#
# Mechanical properties :
#
#
# Convention : Reuss Voigt Hill
#
# Bulk Modulus (GPa) = 29.08251 39.19659 34.13955
# Shear Modulus (GPa) = 10.93318 19.98559 15.45938
#
# Velocity S-wave (km/s) = 2.51122 3.39524 2.98613
# Velocity P-wave (km/s) = 5.01827 6.16269 5.61969
#
# Compressibility (1/GPa) = 0.03438493
#
# Stress axis : x y z
#
# Youngs Moduli (GPa) = 60.33127 81.55819 52.65151
#
# Poissons Ratio (x) = 0.65077 0.01050
# Poissons Ratio (y) = 0.48140 -0.07668
# Poissons Ratio (z) = 0.01203 -0.11879
#
# Static dielectric constant tensor:
#      x y z
#    x 1.572690 0.000000 0.000000 
#    y 0.000000 1.625420 0.000000 
#    z 0.000000 0.000000 1.711370 
# 
# From -- ./inp_files/11261.got.cif
#   From: 2010.05.17/outbox.cif.g08.bks.cpg/sg71_6_cif.got.tgz:11261.got - 2010.06.03 16:22:01.
