data_PCOD9520559
_publ_section_title
;
Structure prediction by ZEFSAII (Michael W. Deem and Ramdas Pophale) SiO2 
 PCOD9520559
Probable space group: I M M M
;
_chemical_formula_sum "Si O2"
_cell_formula_units_Z 80
_cell_length_a 13.357113
_cell_length_b 19.854094
_cell_length_c 19.434359
_cell_angle_alpha 90.000000
_cell_angle_beta 90.000000
_cell_angle_gamma 90.000000
_cell_volume 5153.863294
_symmetry_space_group_name_H-M "I M M M"
_symmetry_group_IT_number 71
_symmetry_cell_setting 'orthorhombic'
loop_
_space_group_symop_operation_xyz
x,y,z
-x,-y,z
x,-y,-z
-x,y,-z
-x,-y,-z
x,y,-z
-x,y,z
x,-y,z
1/2+x,1/2+y,1/2+z
1/2-x,1/2-y,1/2+z
1/2+x,1/2-y,1/2-z
1/2-x,1/2+y,1/2-z
1/2-x,1/2-y,1/2-z
1/2+x,1/2+y,1/2-z
1/2-x,1/2+y,1/2+z
1/2+x,1/2-y,1/2+z
loop_
_atom_site_type_symbol
_atom_site_label
_atom_site_fract_x
_atom_site_fract_y
_atom_site_fract_z
Si Si1 0.679182 0.348972 0.284482
Si Si2 0.387609 0.785803 0.793942
Si Si3 0.881160 0.077013 0.346846
Si Si4 0.615505 0.296602 0.421193
Si Si5 0.693090 0.292643 0.079934
O O1 0.632891 0.278845 0.254824
O O2 0.798726 0.338442 0.281120
O O3 0.642481 0.405972 0.232795
O O4 0.644068 0.350994 0.363189
O O5 0.500000 0.810373 0.784202
O O6 0.371760 0.755662 0.870594
O O7 0.822660 0.132378 0.391462
O O8 0.000000 0.087067 0.357994
O O9 0.856230 0.000000 0.363191
O O10 0.627864 0.320482 0.500000
O O11 0.500000 0.276481 0.412089
O O12 0.693666 0.235174 0.411950
O O13 0.665634 0.288584 0.000000
#
# Coordination Sequence:
#
# PCOD9520559 Si02
#       5
#    16  16  16  16  16
#     4   9  16  27  42  59  82 107 134 171 207 244
#     4   9  16  25  41  63  82 105 134 165 209 253
#     4  10  20  31  43  59  80 112 148 174 201 238
#     4   9  16  26  44  68  88 107 132 166 213 259
#     4   9  17  28  42  63  90 113 135 168 205 244
#
# _framework density 15.522337
#
# number of rings (size 3 to 8) (size 9 to 14) (size 15 to 20)
#    0.000    2.800    0.000    4.800    0.000    2.000 
#    0.000    1.000    0.000    3.000    0.000    5.600 
#    0.000    0.000    0.000   10.000    0.000    0.400 
#
# Total GULP energy -222742.237340 kJ/mol
# GULP energy per Si atom -5568.555934 kJ/mol
# Density = 1.548701 g / cm^3
# Si number density = 15.522337 Si / 1000 Ang^3
#
#
#
# Elastic Constant Matrix: (Units=GPa)
#
#
# Indices 1 2 3 4 5 6 
#
# 1 77.2486 -11.0542 7.6298 0.0000 0.0000 0.0000
# 2 -11.0542 5.7674 -6.8480 0.0000 0.0000 0.0000
# 3 7.6298 -6.8480 76.3798 0.0000 0.0000 0.0000
# 4 0.0000 0.0000 0.0000 10.0223 0.0000 0.0000
# 5 0.0000 0.0000 0.0000 0.0000 19.7518 0.0000
# 6 0.0000 0.0000 0.0000 0.0000 0.0000 12.1306
#
#
#
# Elastic Compliance Matrix: (Units=1/GPa)
#
#
# Indices 1 2 3 4 5 6 
#
# 1 0.017980 0.036180 0.001448 0.000000 0.000000 0.000000
# 2 0.036180 0.266848 0.020311 0.000000 0.000000 0.000000
# 3 0.001448 0.020311 0.014769 0.000000 0.000000 0.000000
# 4 0.000000 0.000000 0.000000 0.099777 0.000000 0.000000
# 5 0.000000 0.000000 0.000000 0.000000 0.050628 0.000000
# 6 0.000000 0.000000 0.000000 0.000000 0.000000 0.082436
#
#
# Mechanical properties :
#
#
# Convention : Reuss Voigt Hill
#
# Bulk Modulus (GPa) = 2.40689 15.42789 8.91739
# Shear Modulus (GPa) = 9.00815 19.69216 14.35016
#
# Velocity S-wave (km/s) = 2.41163 3.56565 3.04383
# Velocity P-wave (km/s) = 3.05099 5.18773 4.25565
#
# Compressibility (1/GPa) = 0.41547363
#
# Stress axis : x y z
#
# Youngs Moduli (GPa) = 55.61872 3.74745 67.71005
#
# Poissons Ratio (x) = -0.13558 -0.09803
# Poissons Ratio (y) = -2.01228 -1.37525
# Poissons Ratio (z) = -0.08052 -0.07611
#
# Static dielectric constant tensor:
#      x y z
#    x 1.531800 0.000000 0.000000 
#    y 0.000000 1.482680 0.000000 
#    z 0.000000 0.000000 1.567910 
# 
# From -- ./inp_files/34287.got.cif
#   From: 2010.05.17/outbox.cif.g08.bks.cpg/sg71_18_cif.got.tgz:34287.got - 2010.06.03 16:22:01.
