data_PCOD9520294
_publ_section_title
;
Structure prediction by ZEFSAII (Michael W. Deem and Ramdas Pophale) SiO2 
 PCOD9520294
Probable space group: I M M M
;
_chemical_formula_sum "Si O2"
_cell_formula_units_Z 104
_cell_length_a 23.005492
_cell_length_b 9.315695
_cell_length_c 28.685785
_cell_angle_alpha 90.000000
_cell_angle_beta 90.000000
_cell_angle_gamma 90.000000
_cell_volume 6147.712166
_symmetry_space_group_name_H-M "I M M M"
_symmetry_group_IT_number 71
_symmetry_cell_setting 'orthorhombic'
loop_
_space_group_symop_operation_xyz
x,y,z
-x,-y,z
x,-y,-z
-x,y,-z
-x,-y,-z
x,y,-z
-x,y,z
x,-y,z
1/2+x,1/2+y,1/2+z
1/2-x,1/2-y,1/2+z
1/2+x,1/2-y,1/2-z
1/2-x,1/2+y,1/2-z
1/2-x,1/2-y,1/2-z
1/2+x,1/2+y,1/2-z
1/2-x,1/2+y,1/2+z
1/2+x,1/2-y,1/2+z
loop_
_atom_site_type_symbol
_atom_site_label
_atom_site_fract_x
_atom_site_fract_y
_atom_site_fract_z
Si Si1 0.270680 0.330711 0.555154
Si Si2 0.676492 0.171613 0.700866
Si Si3 0.335559 0.331107 0.103322
Si Si4 0.813472 0.830181 0.293466
Si Si5 0.500000 0.825931 0.554524
Si Si6 0.567111 0.839489 0.944059
Si Si7 0.877510 0.673874 0.898568
O O1 0.259862 0.314842 0.500000
O O2 0.274800 0.500000 0.565691
O O3 0.218309 0.258237 0.583261
O O4 0.329517 0.249908 0.569488
O O5 0.745456 0.207036 0.696372
O O6 0.661036 0.246560 0.749492
O O7 0.639780 0.212799 0.654938
O O8 0.671942 0.000000 0.705303
O O9 0.322840 0.500000 0.098262
O O10 0.344637 0.301243 0.157909
O O11 0.392188 0.281666 0.076129
O O12 0.814920 0.000000 0.283416
O O13 0.500000 0.777142 0.500000
O O14 0.441500 0.785049 0.582688
O O15 0.500000 0.000000 0.552888
O O16 0.500000 0.823374 0.930258
O O17 0.587204 0.000000 0.929684
O O18 0.569480 0.835636 0.000000
O O19 0.872215 0.500000 0.902057
#
# Coordination Sequence:
#
# PCOD9520294 Si02
#       7
#    16  16  16  16   8  16  16
#     4  11  23  35  49  75 109 142 175 213 262 316
#     4   9  17  31  51  75 102 134 169 210 259 313
#     4  11  21  34  53  79 107 137 173 217 265 311
#     4   9  18  32  49  75 106 133 166 209 261 315
#     4   9  18  32  55  83 107 139 179 221 272 323
#     4   9  19  36  55  75 104 141 177 213 255 308
#     4  10  19  35  56  79 106 137 178 223 268 320
#
# _framework density 16.916862999999999
#
# number of rings (size 3 to 8) (size 9 to 14) (size 15 to 20)
#    0.000    2.231    1.538    2.308    0.000    6.154 
#    0.000    1.154    1.692    1.385    0.000    0.000 
#    0.000    0.000    0.000    0.000    0.000    0.000 
#
# Total GULP energy -289900.865961 kJ/mol
# GULP energy per Si atom -5575.016653 kJ/mol
# Density = 1.687836 g / cm^3
# Si number density = 16.916863 Si / 1000 Ang^3
#
#
#
# Elastic Constant Matrix: (Units=GPa)
#
#
# Indices 1 2 3 4 5 6 
#
# 1 46.1231 16.9379 37.2179 0.0000 0.0000 0.0000
# 2 16.9379 36.4350 40.0194 0.0000 0.0000 0.0000
# 3 37.2179 40.0194 98.7746 0.0000 0.0000 0.0000
# 4 0.0000 0.0000 0.0000 31.4441 0.0000 0.0000
# 5 0.0000 0.0000 0.0000 0.0000 17.1720 0.0000
# 6 0.0000 0.0000 0.0000 0.0000 0.0000 20.1381
#
#
#
# Elastic Compliance Matrix: (Units=1/GPa)
#
#
# Indices 1 2 3 4 5 6 
#
# 1 0.031320 -0.002879 -0.010635 0.000000 0.000000 0.000000
# 2 -0.002879 0.049719 -0.019059 0.000000 0.000000 0.000000
# 3 -0.010635 -0.019059 0.021853 0.000000 0.000000 0.000000
# 4 0.000000 0.000000 0.000000 0.031802 0.000000 0.000000
# 5 0.000000 0.000000 0.000000 0.000000 0.058234 0.000000
# 6 0.000000 0.000000 0.000000 0.000000 0.000000 0.049657
#
#
# Mechanical properties :
#
#
# Convention : Reuss Voigt Hill
#
# Bulk Modulus (GPa) = 26.49296 41.07589 33.78442
# Shear Modulus (GPa) = 15.60972 19.56135 17.58553
#
# Velocity S-wave (km/s) = 3.04095 3.40416 3.22767
# Velocity P-wave (km/s) = 5.29381 6.30752 5.82277
#
# Compressibility (1/GPa) = 0.03774588
#
# Stress axis : x y z
#
# Youngs Moduli (GPa) = 31.92870 20.11319 45.75995
#
# Poissons Ratio (x) = 0.05791 0.48665
# Poissons Ratio (y) = 0.09192 0.87215
# Poissons Ratio (z) = 0.33955 0.38334
#
# Static dielectric constant tensor:
#      x y z
#    x 1.562960 0.000000 0.000000 
#    y 0.000000 1.567880 0.000000 
#    z 0.000000 0.000000 1.580530 
# 
# From -- ./inp_files/66852.got.cif
#   From: 2010.05.17/outbox.cif.g08.bks.cpg/sg71_34_cif.got.tgz:66852.got - 2010.06.03 16:22:01.
