data_PCOD9520194
_publ_section_title
;
Structure prediction by ZEFSAII (Michael W. Deem and Ramdas Pophale) SiO2 
 PCOD9520194
Probable space group: I M M M
;
_chemical_formula_sum "Si O2"
_cell_formula_units_Z 88
_cell_length_a 23.272499
_cell_length_b 22.658446
_cell_length_c 7.420492
_cell_angle_alpha 90.000000
_cell_angle_beta 90.000000
_cell_angle_gamma 90.000000
_cell_volume 3912.963912
_symmetry_space_group_name_H-M "I M M M"
_symmetry_group_IT_number 71
_symmetry_cell_setting 'orthorhombic'
loop_
_space_group_symop_operation_xyz
x,y,z
-x,-y,z
x,-y,-z
-x,y,-z
-x,-y,-z
x,y,-z
-x,y,z
x,-y,z
1/2+x,1/2+y,1/2+z
1/2-x,1/2-y,1/2+z
1/2+x,1/2-y,1/2-z
1/2-x,1/2+y,1/2-z
1/2-x,1/2-y,1/2-z
1/2+x,1/2+y,1/2-z
1/2-x,1/2+y,1/2+z
1/2+x,1/2-y,1/2+z
loop_
_atom_site_type_symbol
_atom_site_label
_atom_site_fract_x
_atom_site_fract_y
_atom_site_fract_z
Si Si1 0.256313 0.069867 0.279875
Si Si2 0.935201 0.000000 0.720051
Si Si3 0.933079 0.237538 0.211639
Si Si4 0.852579 0.661704 0.800445
Si Si5 0.067595 0.563032 0.284878
Si Si6 0.869073 0.884471 0.717509
O O1 0.259292 0.067735 0.500000
O O2 0.304835 0.117147 0.219276
O O3 0.196190 0.100776 0.227560
O O4 0.260203 0.000000 0.222859
O O5 0.904106 0.941268 0.779043
O O6 0.933733 0.000000 0.500000
O O7 0.000000 0.000000 0.778975
O O8 0.884296 0.282291 0.288900
O O9 0.903651 0.173524 0.225301
O O10 0.000000 0.239473 0.280579
O O11 0.937187 0.252782 0.000000
O O12 0.905261 0.616913 0.813466
O O13 0.830868 0.679809 0.000000
O O14 0.076284 0.568880 0.500000
O O15 0.092852 0.500000 0.227733
O O16 0.000000 0.561755 0.254708
O O17 0.868266 0.882654 0.500000
#
# Coordination Sequence:
#
# PCOD9520194 Si02
#       6
#    16   8  16  16  16  16
#     4   9  17  32  55  83 111 136 171 225 275 312
#     4   9  16  28  51  81 105 127 166 219 266 312
#     4  10  22  38  52  73 110 147 179 222 270 313
#     4  10  20  34  54  77 104 144 186 217 256 315
#     4   9  18  32  49  72 104 138 175 226 281 320
#     4  10  19  34  57  82 106 136 176 221 270 323
#
# _framework density 22.489346000000001
#
# number of rings (size 3 to 8) (size 9 to 14) (size 15 to 20)
#    0.000    2.455    0.909    2.182    0.000    4.727 
#    0.000    2.273    0.000    2.727    0.000    0.000 
#    0.000    0.000    0.000    0.000    0.000    0.000 
#
# Total GULP energy -245197.702173 kJ/mol
# GULP energy per Si atom -5572.675049 kJ/mol
# Density = 2.243816 g / cm^3
# Si number density = 22.489346 Si / 1000 Ang^3
#
#
#
# Elastic Constant Matrix: (Units=GPa)
#
#
# Indices 1 2 3 4 5 6 
#
# 1 164.4258 95.8039 12.7455 0.0000 0.0000 0.0000
# 2 95.8039 184.8451 2.0756 0.0000 0.0000 0.0000
# 3 12.7455 2.0756 60.2568 0.0000 0.0000 0.0000
# 4 0.0000 0.0000 0.0000 -2.9628 0.0000 0.0000
# 5 0.0000 0.0000 0.0000 0.0000 2.5370 0.0000
# 6 0.0000 0.0000 0.0000 0.0000 0.0000 40.1691
#
#
#
# Elastic Compliance Matrix: (Units=1/GPa)
#
#
# Indices 1 2 3 4 5 6 
#
# 1 0.008888 -0.004587 -0.001722 0.000000 0.000000 0.000000
# 2 -0.004587 0.007780 0.000702 0.000000 0.000000 0.000000
# 3 -0.001722 0.000702 0.016936 0.000000 0.000000 0.000000
# 4 0.000000 0.000000 0.000000 -0.337524 0.000000 0.000000
# 5 0.000000 0.000000 0.000000 0.000000 0.394166 0.000000
# 6 0.000000 0.000000 0.000000 0.000000 0.000000 0.024895
#
#
# Mechanical properties :
#
#
# Convention : Reuss Voigt Hill
#
# Bulk Modulus (GPa) = 44.66385 70.08641 57.37513
# Shear Modulus (GPa) = 37.36424 27.87551 32.61987
#
# Velocity S-wave (km/s) = 4.08047 3.52447 3.81262
# Velocity P-wave (km/s) = 6.48872 6.91335 6.70440
#
# Compressibility (1/GPa) = 0.02238947
#
# Stress axis : x y z
#
# Youngs Moduli (GPa) = 112.51033 128.54117 59.04689
#
# Poissons Ratio (x) = 0.58966 0.10168
# Poissons Ratio (y) = 0.51612 -0.04147
# Poissons Ratio (z) = 0.19374 -0.09028
#
# Static dielectric constant tensor:
#      x y z
#    x 1.860500 0.000000 0.000000 
#    y 0.000000 1.837630 0.000000 
#    z 0.000000 0.000000 1.923830 
# 
# From -- ./inp_files/10423.got.cif
#   From: 2010.05.17/outbox.cif.g08.bks.cpg/sg71_6_cif.got.tgz:10423.got - 2010.06.03 16:22:01.
