data_PCOD9520603
_publ_section_title
;
Structure prediction by ZEFSAII (Michael W. Deem and Ramdas Pophale) SiO2 
 PCOD9520603
Probable space group: I M M M
;
_chemical_formula_sum "Si O2"
_cell_formula_units_Z 96
_cell_length_a 17.261581
_cell_length_b 10.914528
_cell_length_c 27.901844
_cell_angle_alpha 90.000000
_cell_angle_beta 90.000000
_cell_angle_gamma 90.000000
_cell_volume 5256.763469
_symmetry_space_group_name_H-M "I M M M"
_symmetry_group_IT_number 71
_symmetry_cell_setting 'orthorhombic'
loop_
_space_group_symop_operation_xyz
x,y,z
-x,-y,z
x,-y,-z
-x,y,-z
-x,-y,-z
x,y,-z
-x,y,z
x,-y,z
1/2+x,1/2+y,1/2+z
1/2-x,1/2-y,1/2+z
1/2+x,1/2-y,1/2-z
1/2-x,1/2+y,1/2-z
1/2-x,1/2-y,1/2-z
1/2+x,1/2+y,1/2-z
1/2-x,1/2+y,1/2+z
1/2+x,1/2-y,1/2+z
loop_
_atom_site_type_symbol
_atom_site_label
_atom_site_fract_x
_atom_site_fract_y
_atom_site_fract_z
Si Si1 0.588994 0.136772 0.200189
Si Si2 0.086204 0.776075 0.946572
Si Si3 0.251696 0.146146 0.447321
Si Si4 0.835555 0.857737 0.650005
Si Si5 0.409853 0.631428 0.656364
Si Si6 0.826228 0.635382 0.799918
O O1 0.500000 0.144109 0.217873
O O2 0.605873 0.252988 0.166823
O O3 0.647830 0.141351 0.244875
O O4 0.598059 0.000000 0.177943
O O5 0.159168 0.686580 0.942066
O O6 0.092217 0.864529 0.901341
O O7 0.000000 0.717951 0.943092
O O8 0.090797 0.831892 0.000000
O O9 0.224871 0.191142 0.500000
O O10 0.201378 0.181068 0.401177
O O11 0.249495 0.000000 0.447877
O O12 0.764432 0.858322 0.687964
O O13 0.863672 0.000000 0.647090
O O14 0.500000 0.639615 0.670769
O O15 0.378517 0.500000 0.673505
O O16 0.365872 0.749739 0.674834
O O17 0.852214 0.500000 0.818106
#
# Coordination Sequence:
#
# PCOD9520603 Si02
#       6
#    16  16  16  16  16  16
#     4  10  22  39  58  80 108 143 179 219 271 325
#     4   9  17  29  45  67 100 143 186 224 262 309
#     4   9  17  31  51  77 110 143 177 220 268 318
#     4  10  20  35  57  85 111 139 177 219 266 317
#     4  10  20  31  45  70 104 141 181 223 264 306
#     4  10  20  36  56  79 106 139 178 217 262 317
#
# _framework density 18.262187000000001
#
# number of rings (size 3 to 8) (size 9 to 14) (size 15 to 20)
#    0.000    2.333    1.667    1.000    0.000    3.333 
#    0.000    5.000    0.000    1.000    0.000    3.500 
#    0.000    0.000    0.000    0.000    0.000    0.000 
#
# Total GULP energy -267230.882950 kJ/mol
# GULP energy per Si atom -5567.310061 kJ/mol
# Density = 1.822062 g / cm^3
# Si number density = 18.262187 Si / 1000 Ang^3
#
#
#
# Elastic Constant Matrix: (Units=GPa)
#
#
# Indices 1 2 3 4 5 6 
#
# 1 21.3462 24.0643 14.9402 0.0000 0.0000 0.0000
# 2 24.0643 108.5120 30.0193 0.0000 0.0000 0.0000
# 3 14.9402 30.0193 49.9135 0.0000 0.0000 0.0000
# 4 0.0000 0.0000 0.0000 6.1972 0.0000 0.0000
# 5 0.0000 0.0000 0.0000 0.0000 12.6343 0.0000
# 6 0.0000 0.0000 0.0000 0.0000 0.0000 18.1908
#
#
#
# Elastic Compliance Matrix: (Units=1/GPa)
#
#
# Indices 1 2 3 4 5 6 
#
# 1 0.069635 -0.011608 -0.013862 0.000000 0.000000 0.000000
# 2 -0.011608 0.012990 -0.004338 0.000000 0.000000 0.000000
# 3 -0.013862 -0.004338 0.026793 0.000000 0.000000 0.000000
# 4 0.000000 0.000000 0.000000 0.161362 0.000000 0.000000
# 5 0.000000 0.000000 0.000000 0.000000 0.079149 0.000000
# 6 0.000000 0.000000 0.000000 0.000000 0.000000 0.054973
#
#
# Mechanical properties :
#
#
# Convention : Reuss Voigt Hill
#
# Bulk Modulus (GPa) = 20.07955 35.31324 27.69639
# Shear Modulus (GPa) = 10.39247 14.78766 12.59006
#
# Velocity S-wave (km/s) = 2.38811 2.84868 2.62850
# Velocity P-wave (km/s) = 4.31545 5.49534 4.94074
#
# Compressibility (1/GPa) = 0.04980192
#
# Stress axis : x y z
#
# Youngs Moduli (GPa) = 14.36068 76.98312 37.32340
#
# Poissons Ratio (x) = 0.89360 0.51737
# Poissons Ratio (y) = 0.16670 0.16191
# Poissons Ratio (z) = 0.19907 0.33395
#
# Static dielectric constant tensor:
#      x y z
#    x 1.610690 0.000000 0.000000 
#    y 0.000000 1.646510 0.000000 
#    z 0.000000 0.000000 1.673810 
# 
# From -- ./inp_files/65956.got.cif
#   From: 2010.05.17/outbox.cif.g08.bks.cpg/sg71_33_cif.got.tgz:65956.got - 2010.06.03 16:22:01.
