data_PCOD9520115
_publ_section_title
;
Structure prediction by ZEFSAII (Michael W. Deem and Ramdas Pophale) SiO2 
 PCOD9520115
Probable space group: I M M M
;
_chemical_formula_sum "Si O2"
_cell_formula_units_Z 72
_cell_length_a 27.331429
_cell_length_b 8.802430
_cell_length_c 16.252050
_cell_angle_alpha 90.000000
_cell_angle_beta 90.000000
_cell_angle_gamma 90.000000
_cell_volume 3909.966792
_symmetry_space_group_name_H-M "I M M M"
_symmetry_group_IT_number 71
_symmetry_cell_setting 'orthorhombic'
loop_
_space_group_symop_operation_xyz
x,y,z
-x,-y,z
x,-y,-z
-x,y,-z
-x,-y,-z
x,y,-z
-x,y,z
x,-y,z
1/2+x,1/2+y,1/2+z
1/2-x,1/2-y,1/2+z
1/2+x,1/2-y,1/2-z
1/2-x,1/2+y,1/2-z
1/2-x,1/2-y,1/2-z
1/2+x,1/2+y,1/2-z
1/2-x,1/2+y,1/2+z
1/2+x,1/2-y,1/2+z
loop_
_atom_site_type_symbol
_atom_site_label
_atom_site_fract_x
_atom_site_fract_y
_atom_site_fract_z
Si Si1 0.058954 0.675172 0.170887
Si Si2 0.059625 0.175231 0.000000
Si Si3 0.102356 0.175169 0.500000
Si Si4 0.221779 0.823525 0.500000
Si Si5 0.780120 0.681730 0.325902
Si Si6 0.611392 0.317126 0.823736
O O1 0.074199 0.500000 0.179363
O O2 0.079590 0.772085 0.245832
O O3 0.000000 0.680606 0.171943
O O4 0.075539 0.741356 0.083110
O O5 0.000000 0.177557 0.000000
O O6 0.075032 0.000000 0.000000
O O7 0.161978 0.179274 0.500000
O O8 0.088327 0.238531 0.589154
O O9 0.086084 0.000000 0.500000
O O10 0.237354 0.743236 0.584744
O O11 0.236376 0.000000 0.500000
O O12 0.778137 0.500000 0.325044
O O13 0.750000 0.750000 0.250000
O O14 0.835700 0.740152 0.316162
O O15 0.617552 0.500000 0.828624
#
# Coordination Sequence:
#
# PCOD9520115 Si02
#       6
#    16   8   8   8  16  16
#     4  10  20  34  52  76 106 138 172 213 261 311
#     4   9  17  31  52  75  98 131 174 213 253 309
#     4   7  14  29  50  73  98 130 168 208 249 297
#     4   9  17  33  54  77 104 137 176 215 256 308
#     4  11  21  35  55  80 108 140 176 215 261 311
#     4  10  19  34  55  78 104 136 175 218 261 306
#
# _framework density 18.414477999999999
#
# number of rings (size 3 to 8) (size 9 to 14) (size 15 to 20)
#    0.000    2.333    0.000    5.333    0.000    2.667 
#    0.000    3.333    0.000    3.333    0.000    0.000 
#    0.000    0.000    0.000    0.000    0.000    0.000 
#
# Total GULP energy -200740.934597 kJ/mol
# GULP energy per Si atom -5576.137072 kJ/mol
# Density = 1.837257 g / cm^3
# Si number density = 18.414478 Si / 1000 Ang^3
#
#
#
# Elastic Constant Matrix: (Units=GPa)
#
#
# Indices 1 2 3 4 5 6 
#
# 1 7.4531 18.0930 27.9882 0.0000 0.0000 0.0000
# 2 18.0930 136.9302 66.4446 0.0000 0.0000 0.0000
# 3 27.9882 66.4446 190.1162 0.0000 0.0000 0.0000
# 4 0.0000 0.0000 0.0000 33.4013 0.0000 0.0000
# 5 0.0000 0.0000 0.0000 0.0000 23.1384 0.0000
# 6 0.0000 0.0000 0.0000 0.0000 0.0000 22.7687
#
#
#
# Elastic Compliance Matrix: (Units=1/GPa)
#
#
# Indices 1 2 3 4 5 6 
#
# 1 0.366929 -0.026820 -0.044645 0.000000 0.000000 0.000000
# 2 -0.026820 0.010755 0.000190 0.000000 0.000000 0.000000
# 3 -0.044645 0.000190 0.011766 0.000000 0.000000 0.000000
# 4 0.000000 0.000000 0.000000 0.029939 0.000000 0.000000
# 5 0.000000 0.000000 0.000000 0.000000 0.043218 0.000000
# 6 0.000000 0.000000 0.000000 0.000000 0.000000 0.043920
#
#
# Mechanical properties :
#
#
# Convention : Reuss Voigt Hill
#
# Bulk Modulus (GPa) = 4.05021 62.17233 33.11127
# Shear Modulus (GPa) = 6.83642 30.65993 18.74817
#
# Velocity S-wave (km/s) = 1.92888 4.08486 3.19426
# Velocity P-wave (km/s) = 2.67676 7.48893 5.62357
#
# Compressibility (1/GPa) = 0.24690050
#
# Stress axis : x y z
#
# Youngs Moduli (GPa) = 2.72532 92.98190 84.98988
#
# Poissons Ratio (x) = 2.49376 3.79434
# Poissons Ratio (y) = 0.07309 -0.01611
# Poissons Ratio (z) = 0.12167 -0.01763
#
# Static dielectric constant tensor:
#      x y z
#    x 1.622890 0.000000 0.000000 
#    y 0.000000 1.624160 0.000000 
#    z 0.000000 0.000000 1.655930 
# 
# From -- ./inp_files/6201.got.cif
#   From: 2010.05.17/outbox.cif.g08.bks.cpg/sg71_4_cif.got.tgz:6201.got - 2010.06.03 16:22:01.
