data_PCOD9520188
_publ_section_title
;
Structure prediction by ZEFSAII (Michael W. Deem and Ramdas Pophale) SiO2 
 PCOD9520188
Probable space group: I M M M
;
_chemical_formula_sum "Si O2"
_cell_formula_units_Z 72
_cell_length_a 9.419157
_cell_length_b 30.121328
_cell_length_c 13.621709
_cell_angle_alpha 90.000000
_cell_angle_beta 90.000000
_cell_angle_gamma 90.000000
_cell_volume 3864.717461
_symmetry_space_group_name_H-M "I M M M"
_symmetry_group_IT_number 71
_symmetry_cell_setting 'orthorhombic'
loop_
_space_group_symop_operation_xyz
x,y,z
-x,-y,z
x,-y,-z
-x,y,-z
-x,-y,-z
x,y,-z
-x,y,z
x,-y,z
1/2+x,1/2+y,1/2+z
1/2-x,1/2-y,1/2+z
1/2+x,1/2-y,1/2-z
1/2-x,1/2+y,1/2-z
1/2-x,1/2-y,1/2-z
1/2+x,1/2+y,1/2-z
1/2-x,1/2+y,1/2+z
1/2+x,1/2-y,1/2+z
loop_
_atom_site_type_symbol
_atom_site_label
_atom_site_fract_x
_atom_site_fract_y
_atom_site_fract_z
Si Si1 0.664707 0.946811 0.500000
Si Si2 0.173461 0.121935 0.111909
Si Si3 0.335672 0.693516 0.887022
Si Si4 0.339059 0.722129 0.381323
Si Si5 0.666753 0.406604 0.816305
O O1 0.500000 0.932047 0.500000
O O2 0.743393 0.929825 0.598509
O O3 0.668284 0.000000 0.500000
O O4 0.222072 0.172677 0.133701
O O5 0.213327 0.089764 0.202102
O O6 0.000000 0.123913 0.112545
O O7 0.215599 0.110120 0.000000
O O8 0.500000 0.706926 0.886100
O O9 0.244813 0.734419 0.848531
O O10 0.324428 0.646193 0.836077
O O11 0.293963 0.685449 0.000000
O O12 0.346052 0.725363 0.500000
O O13 0.500000 0.722979 0.342629
O O14 0.500000 0.419384 0.825447
#
# Coordination Sequence:
#
# PCOD9520188 Si02
#       5
#     8  16  16  16  16
#     4  11  25  43  61  83 109 131 161 215 281 341
#     4   8  15  29  50  77 109 144 183 222 256 297
#     4   9  16  26  40  65 102 138 176 222 263 299
#     4   8  14  25  41  64  98 143 185 216 251 296
#     4  10  19  34  57  81 105 138 177 216 265 321
#
# _framework density 18.630082000000002
#
# number of rings (size 3 to 8) (size 9 to 14) (size 15 to 20)
#    0.000    3.000    1.111    1.667    0.000    2.667 
#    0.000    1.111    0.000    2.667    0.000    4.667 
#    0.000    0.000    0.000    0.000    0.000    0.000 
#
# Total GULP energy -200485.490856 kJ/mol
# GULP energy per Si atom -5569.041413 kJ/mol
# Density = 1.858768 g / cm^3
# Si number density = 18.630082 Si / 1000 Ang^3
#
#
#
# Elastic Constant Matrix: (Units=GPa)
#
#
# Indices 1 2 3 4 5 6 
#
# 1 48.4231 28.0345 37.5856 0.0000 0.0000 0.0000
# 2 28.0345 31.7318 36.1165 0.0000 0.0000 0.0000
# 3 37.5856 36.1165 116.2241 0.0000 0.0000 0.0000
# 4 0.0000 0.0000 0.0000 9.8825 0.0000 0.0000
# 5 0.0000 0.0000 0.0000 0.0000 2.7525 0.0000
# 6 0.0000 0.0000 0.0000 0.0000 0.0000 40.9451
#
#
#
# Elastic Compliance Matrix: (Units=1/GPa)
#
#
# Indices 1 2 3 4 5 6 
#
# 1 0.043055 -0.034335 -0.003254 0.000000 0.000000 0.000000
# 2 -0.034335 0.076141 -0.012557 0.000000 0.000000 0.000000
# 3 -0.003254 -0.012557 0.013559 0.000000 0.000000 0.000000
# 4 0.000000 0.000000 0.000000 0.101189 -0.000001 0.000000
# 5 0.000000 0.000000 0.000000 -0.000001 0.363309 0.000000
# 6 0.000000 0.000000 0.000000 0.000000 0.000000 0.024423
#
#
# Mechanical properties :
#
#
# Convention : Reuss Voigt Hill
#
# Bulk Modulus (GPa) = 30.80491 44.42801 37.61646
# Shear Modulus (GPa) = 6.82326 17.02552 11.92439
#
# Velocity S-wave (km/s) = 1.91584 3.02631 2.53269
# Velocity P-wave (km/s) = 4.63302 6.00921 5.36542
#
# Compressibility (1/GPa) = 0.03246236
#
# Stress axis : x y z
#
# Youngs Moduli (GPa) = 23.22607 13.13360 73.75437
#
# Poissons Ratio (x) = 0.45094 0.24000
# Poissons Ratio (y) = 0.79746 0.92615
# Poissons Ratio (z) = 0.07558 0.16492
#
# Static dielectric constant tensor:
#      x y z
#    x 1.633680 0.000000 0.000000 
#    y 0.000000 1.612280 0.000000 
#    z 0.000000 0.000000 1.759650 
# 
# From -- ./inp_files/31453.got.cif
#   From: 2010.05.17/outbox.cif.g08.bks.cpg/sg71_16_cif.got.tgz:31453.got - 2010.06.03 16:22:01.
