data_PCOD9520496
_publ_section_title
;
Structure prediction by ZEFSAII (Michael W. Deem and Ramdas Pophale) SiO2 
 PCOD9520496
Probable space group: I M M M
;
_chemical_formula_sum "Si O2"
_cell_formula_units_Z 64
_cell_length_a 11.014478
_cell_length_b 34.069759
_cell_length_c 8.718767
_cell_angle_alpha 90.000000
_cell_angle_beta 90.000000
_cell_angle_gamma 90.000000
_cell_volume 3271.809831
_symmetry_space_group_name_H-M "I M M M"
_symmetry_group_IT_number 71
_symmetry_cell_setting 'orthorhombic'
loop_
_space_group_symop_operation_xyz
x,y,z
-x,-y,z
x,-y,-z
-x,y,-z
-x,-y,-z
x,y,-z
-x,y,z
x,-y,z
1/2+x,1/2+y,1/2+z
1/2-x,1/2-y,1/2+z
1/2+x,1/2-y,1/2-z
1/2-x,1/2+y,1/2-z
1/2-x,1/2-y,1/2-z
1/2+x,1/2+y,1/2-z
1/2-x,1/2+y,1/2+z
1/2+x,1/2-y,1/2+z
loop_
_atom_site_type_symbol
_atom_site_label
_atom_site_fract_x
_atom_site_fract_y
_atom_site_fract_z
Si Si1 0.000000 0.697185 0.685764
Si Si2 0.764426 0.164490 0.186599
Si Si3 0.500000 0.714959 0.686346
Si Si4 0.748672 0.076267 0.183355
Si Si5 0.500000 0.046435 0.683260
Si Si6 0.857823 0.000000 0.668884
O O1 0.871829 0.677369 0.735803
O O2 0.000000 0.741622 0.745283
O O3 0.000000 0.696530 0.500000
O O4 0.876332 0.192272 0.234351
O O5 0.789222 0.119568 0.234035
O O6 0.763244 0.165354 0.000000
O O7 0.500000 0.716840 0.500000
O O8 0.615522 0.067680 0.246557
O O9 0.823787 0.039571 0.244449
O O10 0.748409 0.075690 0.000000
O O11 0.500000 0.049027 0.500000
O O12 0.500000 0.000000 0.725023
O O13 0.796800 0.000000 0.500000
O O14 0.000000 0.000000 0.651491
#
# Coordination Sequence:
#
# PCOD9520496 Si02
#       6
#     8  16   8  16   8   8
#     4  10  19  37  59  84 116 151 185 230 290 353
#     4   9  20  36  58  85 117 149 188 243 296 336
#     4  10  20  37  59  85 115 150 187 235 292 350
#     4  11  22  38  63  89 112 150 205 249 284 342
#     4  11  22  37  57  82 119 155 184 233 304 355
#     4  11  25  42  57  80 121 163 193 239 304 355
#
# _framework density 19.561039000000001
#
# number of rings (size 3 to 8) (size 9 to 14) (size 15 to 20)
#    0.000    1.750    1.250    3.000    1.750    3.500 
#    0.000    6.250    0.000    0.000    0.000    0.000 
#    0.000    0.000    0.000    0.000    0.000    0.000 
#
# Total GULP energy -178638.333279 kJ/mol
# GULP energy per Si atom -5582.447915 kJ/mol
# Density = 1.951652 g / cm^3
# Si number density = 19.561039 Si / 1000 Ang^3
#
#
#
# Elastic Constant Matrix: (Units=GPa)
#
#
# Indices 1 2 3 4 5 6 
#
# 1 121.3673 57.7996 14.9617 0.0003 -0.0003 0.0034
# 2 57.7996 163.8245 28.5175 0.0005 0.0003 0.0000
# 3 14.9617 28.5175 35.3268 0.0051 -0.0020 0.0338
# 4 0.0003 0.0005 0.0051 27.1119 -0.0003 0.0016
# 5 -0.0003 0.0003 -0.0020 -0.0003 17.1700 -0.0056
# 6 0.0034 0.0000 0.0338 0.0016 -0.0056 474.9260
#
#
#
# Elastic Compliance Matrix: (Units=1/GPa)
#
#
# Indices 1 2 3 4 5 6 
#
# 1 0.009982 -0.003241 -0.001611 0.000000 0.000000 0.000000
# 2 -0.003241 0.008155 -0.005210 0.000001 -0.000001 0.000000
# 3 -0.001611 -0.005210 0.033195 -0.000006 0.000004 -0.000002
# 4 0.000000 0.000001 -0.000006 0.036884 0.000001 0.000000
# 5 0.000000 -0.000001 0.000004 0.000001 0.058241 0.000001
# 6 0.000000 0.000000 -0.000002 0.000000 0.000001 0.002106
#
#
# Mechanical properties :
#
#
# Convention : Reuss Voigt Hill
#
# Bulk Modulus (GPa) = 32.04416 58.11958 45.08187
# Shear Modulus (GPa) = 27.91907 118.45756 73.18832
#
# Velocity S-wave (km/s) = 3.78203 7.79034 6.12344
# Velocity P-wave (km/s) = 5.95726 10.52120 8.54940
#
# Compressibility (1/GPa) = 0.03120693
#
# Stress axis : x y z
#
# Youngs Moduli (GPa) = 100.18387 122.63063 30.12485
#
# Poissons Ratio (x) = 0.39747 0.04853
# Poissons Ratio (y) = 0.32472 0.15695
# Poissons Ratio (z) = 0.16139 0.63891
#
# Static dielectric constant tensor:
#      x y z
#    x 1.608170 0.000000 0.000000 
#    y 0.000000 1.704480 0.000000 
#    z 0.000000 0.000000 1.666710 
# 
# From -- ./inp_files/3865.got.cif
#   From: 2010.05.17/outbox.cif.g08.bks.cpg/sg71_2_cif.got.tgz:3865.got - 2010.06.03 16:22:01.
