data_PCOD9520503
_publ_section_title
;
Structure prediction by ZEFSAII (Michael W. Deem and Ramdas Pophale) SiO2 
 PCOD9520503
Probable space group: I M M M
;
_chemical_formula_sum "Si O2"
_cell_formula_units_Z 82
_cell_length_a 7.557305
_cell_length_b 20.784579
_cell_length_c 25.597149
_cell_angle_alpha 90.000000
_cell_angle_beta 90.000000
_cell_angle_gamma 90.000000
_cell_volume 4020.682490
_symmetry_space_group_name_H-M "I M M M"
_symmetry_group_IT_number 71
_symmetry_cell_setting 'orthorhombic'
loop_
_space_group_symop_operation_xyz
x,y,z
-x,-y,z
x,-y,-z
-x,y,-z
-x,-y,-z
x,y,-z
-x,y,z
x,-y,z
1/2+x,1/2+y,1/2+z
1/2-x,1/2-y,1/2+z
1/2+x,1/2-y,1/2-z
1/2-x,1/2+y,1/2-z
1/2-x,1/2-y,1/2-z
1/2+x,1/2+y,1/2-z
1/2-x,1/2+y,1/2+z
1/2+x,1/2-y,1/2+z
loop_
_atom_site_type_symbol
_atom_site_label
_atom_site_fract_x
_atom_site_fract_y
_atom_site_fract_z
Si Si1 0.717141 0.618213 0.500000
Si Si2 0.215654 0.794944 0.899338
Si Si3 0.709933 0.927378 0.297553
Si Si4 0.787576 0.073155 0.500000
Si Si5 0.789970 0.184094 0.781840
Si Si6 0.207668 0.350109 0.103530
Si Si7 0.500000 0.000000 0.000000
O O1 0.500000 0.606197 0.500000
O O2 0.761141 0.659975 0.551960
O O3 0.842160 0.556194 0.500000
O O4 0.277400 0.815277 0.841408
O O5 0.278889 0.721412 0.905494
O O6 0.000000 0.794881 0.899023
O O7 0.500000 0.934113 0.306207
O O8 0.731159 0.878851 0.249466
O O9 0.785483 0.890058 0.348049
O O10 0.780535 0.000000 0.290663
O O11 0.724643 0.109205 0.448596
O O12 0.000000 0.073306 0.500000
O O13 0.724579 0.000000 0.500000
O O14 0.750000 0.250000 0.750000
O O15 0.000000 0.181436 0.784989
O O16 0.000000 0.340892 0.115821
#
# Coordination Sequence:
#
# PCOD9520503 Si02
#       7
#     8  16  16   8  16  16   2
#     4  10  22  46  70  95 136 172 209 280 339 385
#     4   9  19  39  67  91 117 157 208 259 320 376
#     4  10  21  38  58  87 124 163 201 250 308 368
#     4  11  24  37  48  78 122 156 192 244 305 356
#     4  11  21  38  62  91 123 162 210 258 314 379
#     4  10  19  37  63  84 112 156 208 250 296 367
#     4  12  26  48  68 106 128 172 232 260 332 444
#
# _framework density 20.394548
#
# number of rings (size 3 to 8) (size 9 to 14) (size 15 to 20)
#    0.000    1.854    1.951    2.195    0.000    4.293 
#    8.780    0.000    0.000    0.000    0.000    0.000 
#    0.000    0.000    0.000    0.000    0.000    0.000 
#
# Total GULP energy -228599.766216 kJ/mol
# GULP energy per Si atom -5575.604054 kJ/mol
# Density = 2.034813 g / cm^3
# Si number density = 20.394548 Si / 1000 Ang^3
#
#
#
# Elastic Constant Matrix: (Units=GPa)
#
#
# Indices 1 2 3 4 5 6 
#
# 1 65.3741 28.5989 4.3987 0.0000 0.0000 0.0000
# 2 28.5989 238.2938 124.0087 0.0000 0.0000 0.0000
# 3 4.3987 124.0087 183.4254 0.0000 0.0000 0.0000
# 4 0.0000 0.0000 0.0000 -27.5393 0.0000 0.0000
# 5 0.0000 0.0000 0.0000 0.0000 19.7702 0.0000
# 6 0.0000 0.0000 0.0000 0.0000 0.0000 14.1870
#
#
#
# Elastic Compliance Matrix: (Units=1/GPa)
#
#
# Indices 1 2 3 4 5 6 
#
# 1 0.016389 -0.002719 0.001445 0.000000 0.000000 0.000000
# 2 -0.002719 0.006925 -0.004617 0.000000 0.000000 0.000000
# 3 0.001445 -0.004617 0.008539 0.000000 0.000000 0.000000
# 4 0.000000 0.000000 0.000000 -0.036312 0.000000 0.000000
# 5 0.000000 0.000000 0.000000 0.000000 0.050581 0.000000
# 6 0.000000 0.000000 0.000000 0.000000 0.000000 0.070487
#
#
# Mechanical properties :
#
#
# Convention : Reuss Voigt Hill
#
# Bulk Modulus (GPa) = 49.82212 89.01177 69.41695
# Shear Modulus (GPa) = 37.01481 23.28938 30.15209
#
# Velocity S-wave (km/s) = 4.26483 3.38293 3.84922
# Velocity P-wave (km/s) = 6.98096 7.68105 7.33936
#
# Compressibility (1/GPa) = 0.02007141
#
# Stress axis : x y z
#
# Youngs Moduli (GPa) = 61.01727 144.39439 117.11637
#
# Poissons Ratio (x) = 0.39261 -0.16926
# Poissons Ratio (y) = 0.16591 0.54072
# Poissons Ratio (z) = -0.08818 0.66666
#
# Static dielectric constant tensor:
#      x y z
#    x 1.777560 0.000000 0.000000 
#    y 0.000000 1.691210 0.000000 
#    z 0.000000 0.000000 1.672970 
# 
# From -- ./inp_files/57489.got.cif
#   From: 2010.05.17/outbox.cif.g08.bks.cpg/sg71_29_cif.got.tgz:57489.got - 2010.06.03 16:22:01.
