data_PCOD9520012
_publ_section_title
;
Structure prediction by ZEFSAII (Michael W. Deem and Ramdas Pophale) SiO2 
 PCOD9520012
Probable space group: I M M M
;
_chemical_formula_sum "Si O2"
_cell_formula_units_Z 92
_cell_length_a 20.432957
_cell_length_b 7.701056
_cell_length_c 29.150643
_cell_angle_alpha 90.000000
_cell_angle_beta 90.000000
_cell_angle_gamma 90.000000
_cell_volume 4587.009518
_symmetry_space_group_name_H-M "I M M M"
_symmetry_group_IT_number 71
_symmetry_cell_setting 'orthorhombic'
loop_
_space_group_symop_operation_xyz
x,y,z
-x,-y,z
x,-y,-z
-x,y,-z
-x,-y,-z
x,y,-z
-x,y,z
x,-y,z
1/2+x,1/2+y,1/2+z
1/2-x,1/2-y,1/2+z
1/2+x,1/2-y,1/2-z
1/2-x,1/2+y,1/2-z
1/2-x,1/2-y,1/2-z
1/2+x,1/2+y,1/2-z
1/2-x,1/2+y,1/2+z
1/2+x,1/2-y,1/2+z
loop_
_atom_site_type_symbol
_atom_site_label
_atom_site_fract_x
_atom_site_fract_y
_atom_site_fract_z
Si Si1 0.736753 0.710614 0.553479
Si Si2 0.165783 0.798479 0.800716
Si Si3 0.000000 0.000000 0.093176
Si Si4 0.369033 0.209381 0.103967
Si Si5 0.314451 0.294109 0.801014
Si Si6 0.894441 0.692114 0.893652
Si Si7 0.500000 0.212807 0.053016
O O1 0.737274 0.757634 0.500000
O O2 0.734416 0.500000 0.556542
O O3 0.803511 0.769703 0.577974
O O4 0.673233 0.782115 0.578827
O O5 0.243486 0.787490 0.811394
O O6 0.160431 0.731071 0.748555
O O7 0.125018 0.705280 0.839906
O O8 0.145760 0.000000 0.801753
O O9 0.056847 0.846880 0.094246
O O10 0.362332 0.260500 0.156952
O O11 0.434649 0.270677 0.079137
O O12 0.369172 0.000000 0.101717
O O13 0.303156 0.500000 0.796255
O O14 0.920360 0.500000 0.903497
O O15 0.500000 0.000000 0.053221
O O16 0.500000 0.266571 0.000000
#
# Coordination Sequence:
#
# PCOD9520012 Si02
#       7
#    16  16   4  16  16  16   8
#     4  10  20  37  62  92 125 163 210 266 323 378
#     4  10  19  36  59  88 126 163 207 262 315 370
#     4  12  26  48  67  92 132 166 202 258 319 394
#     4  10  19  33  57  88 124 164 211 267 317 372
#     4  10  20  32  56  91 124 162 207 260 316 371
#     4  12  24  42  68  95 126 167 214 262 319 385
#     4   9  18  34  56  85 121 166 216 260 310 372
#
# _framework density 20.056639000000001
#
# number of rings (size 3 to 8) (size 9 to 14) (size 15 to 20)
#    0.000    1.652    3.478    1.826    0.000    4.522 
#    0.000    2.174    0.000    5.217    0.000    0.000 
#    0.000    0.000    0.000    0.000    0.000    0.000 
#
# Total GULP energy -256505.101133 kJ/mol
# GULP energy per Si atom -5576.197851 kJ/mol
# Density = 2.001099 g / cm^3
# Si number density = 20.056639 Si / 1000 Ang^3
#
#
#
# Elastic Constant Matrix: (Units=GPa)
#
#
# Indices 1 2 3 4 5 6 
#
# 1 131.9222 34.1069 60.4032 0.0000 0.0000 0.0000
# 2 34.1069 97.0625 12.8065 0.0000 0.0000 0.0000
# 3 60.4032 12.8065 118.6870 0.0000 0.0000 0.0000
# 4 0.0000 0.0000 0.0000 12.8781 0.0000 0.0000
# 5 0.0000 0.0000 0.0000 0.0000 18.4075 0.0000
# 6 0.0000 0.0000 0.0000 0.0000 0.0000 2.0353
#
#
#
# Elastic Compliance Matrix: (Units=1/GPa)
#
#
# Indices 1 2 3 4 5 6 
#
# 1 0.010727 -0.003093 -0.005125 0.000000 0.000000 0.000000
# 2 -0.003093 0.011343 0.000350 0.000000 0.000000 0.000000
# 3 -0.005125 0.000350 0.010996 0.000000 0.000000 0.000000
# 4 0.000000 0.000000 0.000000 0.077651 0.000000 0.000000
# 5 0.000000 0.000000 0.000000 0.000000 0.054326 0.000000
# 6 0.000000 0.000000 0.000000 0.000000 0.000000 0.491338
#
#
# Mechanical properties :
#
#
# Convention : Reuss Voigt Hill
#
# Bulk Modulus (GPa) = 57.70433 62.47832 60.09133
# Shear Modulus (GPa) = 7.37579 22.68785 15.03182
#
# Velocity S-wave (km/s) = 1.91976 3.36696 2.74061
# Velocity P-wave (km/s) = 5.80923 6.80690 6.32775
#
# Compressibility (1/GPa) = 0.01732972
#
# Stress axis : x y z
#
# Youngs Moduli (GPa) = 93.22590 88.15778 90.94067
#
# Poissons Ratio (x) = 0.27267 0.46610
# Poissons Ratio (y) = 0.28835 -0.03184
# Poissons Ratio (z) = 0.47782 -0.03087
#
# Static dielectric constant tensor:
#      x y z
#    x 1.660350 0.000000 0.000000 
#    y 0.000000 1.739680 0.000000 
#    z 0.000000 0.000000 1.711540 
# 
# From -- ./inp_files/66354.got.cif
#   From: 2010.05.17/outbox.cif.g08.bks.cpg/sg71_34_cif.got.tgz:66354.got - 2010.06.03 16:22:01.
