data_PCOD9520715
_publ_section_title
;
Structure prediction by ZEFSAII (Michael W. Deem and Ramdas Pophale) SiO2 
 PCOD9520715
Probable space group: I M M M
;
_chemical_formula_sum "Si O2"
_cell_formula_units_Z 120
_cell_length_a 31.270034
_cell_length_b 14.723420
_cell_length_c 14.169020
_cell_angle_alpha 90.000000
_cell_angle_beta 90.000000
_cell_angle_gamma 90.000000
_cell_volume 6523.442936
_symmetry_space_group_name_H-M "I M M M"
_symmetry_group_IT_number 71
_symmetry_cell_setting 'orthorhombic'
loop_
_space_group_symop_operation_xyz
x,y,z
-x,-y,z
x,-y,-z
-x,y,-z
-x,-y,-z
x,y,-z
-x,y,z
x,-y,z
1/2+x,1/2+y,1/2+z
1/2-x,1/2-y,1/2+z
1/2+x,1/2-y,1/2-z
1/2-x,1/2+y,1/2-z
1/2-x,1/2-y,1/2-z
1/2+x,1/2+y,1/2-z
1/2-x,1/2+y,1/2+z
1/2+x,1/2-y,1/2+z
loop_
_atom_site_type_symbol
_atom_site_label
_atom_site_fract_x
_atom_site_fract_y
_atom_site_fract_z
Si Si1 0.500000 0.605683 0.114013
Si Si2 0.839879 0.645568 0.108067
Si Si3 0.622013 0.893899 0.200818
Si Si4 0.254592 0.607182 0.895043
Si Si5 0.213944 0.393412 0.612175
Si Si6 0.915820 0.221804 0.385993
Si Si7 0.809298 0.849667 0.893592
Si Si8 0.159890 0.897248 0.301276
O O1 0.500000 0.500000 0.148261
O O2 0.541614 0.665113 0.139494
O O3 0.500000 0.599910 0.000000
O O4 0.874059 0.617609 0.185992
O O5 0.793123 0.613137 0.143157
O O6 0.832669 0.753004 0.104262
O O7 0.846763 0.612893 0.000000
O O8 0.669429 0.868127 0.161250
O O9 0.588731 0.823587 0.155207
O O10 0.614603 0.000000 0.177690
O O11 0.262620 0.500000 0.902732
O O12 0.295004 0.642201 0.838965
O O13 0.253524 0.648596 0.000000
O O14 0.206553 0.386343 0.500000
O O15 0.222664 0.500000 0.635161
O O16 0.258676 0.342496 0.632128
O O17 0.911972 0.224115 0.500000
O O18 0.877070 0.166223 0.339348
O O19 0.833521 0.900879 0.810743
O O20 0.810381 0.888318 0.000000
O O21 0.152292 0.000000 0.336186
#
# Coordination Sequence:
#
# PCOD9520715 Si02
#       8
#     8  16  16  16  16  16  16  16
#     4   9  20  42  69  93 118 145 169 201 261 342
#     4  10  20  33  49  72 107 153 201 241 279 318
#     4  11  22  36  55  81 112 149 192 235 278 325
#     4   9  18  30  44  68 103 143 188 236 283 327
#     4   9  18  31  46  68 104 152 197 234 278 332
#     4  11  23  39  61  88 115 142 175 217 268 331
#     4  10  20  32  47  71 106 150 200 242 279 322
#     4  11  21  33  52  79 108 142 184 234 286 328
#
# _framework density 18.395194
#
# number of rings (size 3 to 8) (size 9 to 14) (size 15 to 20)
#    0.000    1.933    1.333    2.800    1.867    6.933 
#    0.000    0.333    0.000    1.200    0.000    1.867 
#    0.000    4.267    0.000    0.000    0.000    0.000 
#
# Total GULP energy -334691.590323 kJ/mol
# GULP energy per Si atom -5578.193172 kJ/mol
# Density = 1.835333 g / cm^3
# Si number density = 18.395194 Si / 1000 Ang^3
#
#
#
# Elastic Constant Matrix: (Units=GPa)
#
#
# Indices 1 2 3 4 5 6 
#
# 1 70.4997 40.6180 49.5793 0.0000 0.0000 0.0000
# 2 40.6180 104.2116 29.2482 0.0000 0.0000 0.0000
# 3 49.5793 29.2482 69.8679 0.0000 0.0000 0.0000
# 4 0.0000 0.0000 0.0000 20.5751 0.0000 0.0000
# 5 0.0000 0.0000 0.0000 0.0000 16.2298 0.0000
# 6 0.0000 0.0000 0.0000 0.0000 0.0000 14.7674
#
#
#
# Elastic Compliance Matrix: (Units=1/GPa)
#
#
# Indices 1 2 3 4 5 6 
#
# 1 0.032230 -0.006961 -0.019957 0.000000 0.000000 0.000000
# 2 -0.006961 0.012377 -0.000242 0.000000 0.000000 0.000000
# 3 -0.019957 -0.000242 0.028575 0.000000 0.000000 0.000000
# 4 0.000000 0.000000 0.000000 0.048602 0.000000 0.000000
# 5 0.000000 0.000000 0.000000 0.000000 0.061615 0.000000
# 6 0.000000 0.000000 0.000000 0.000000 0.000000 0.067717
#
#
# Mechanical properties :
#
#
# Convention : Reuss Voigt Hill
#
# Bulk Modulus (GPa) = 53.01251 53.71891 53.36571
# Shear Modulus (GPa) = 16.03995 18.65672 17.34833
#
# Velocity S-wave (km/s) = 2.95611 3.18813 3.07431
# Velocity P-wave (km/s) = 6.36653 6.54357 6.45566
#
# Compressibility (1/GPa) = 0.01886347
#
# Stress axis : x y z
#
# Youngs Moduli (GPa) = 31.02747 80.79642 34.99516
#
# Poissons Ratio (x) = 0.56241 0.69838
# Poissons Ratio (y) = 0.21598 0.00846
# Poissons Ratio (z) = 0.61920 0.01952
#
# Static dielectric constant tensor:
#      x y z
#    x 1.599330 0.000000 0.000000 
#    y 0.000000 1.703750 0.000000 
#    z 0.000000 0.000000 1.686460 
# 
# From -- ./inp_files/41140.got.cif
#   From: 2010.05.17/outbox.cif.g08.bks.cpg/sg71_21_cif.got.tgz:41140.got - 2010.06.03 16:22:01.
