data_PCOD9520954
_publ_section_title
;
Structure prediction by ZEFSAII (Michael W. Deem and Ramdas Pophale) SiO2 
 PCOD9520954
Probable space group: I M M M
;
_chemical_formula_sum "Si O2"
_cell_formula_units_Z 96
_cell_length_a 26.299070
_cell_length_b 12.108367
_cell_length_c 18.546621
_cell_angle_alpha 90.000000
_cell_angle_beta 90.000000
_cell_angle_gamma 90.000000
_cell_volume 5905.963574
_symmetry_space_group_name_H-M "I M M M"
_symmetry_group_IT_number 71
_symmetry_cell_setting 'orthorhombic'
loop_
_space_group_symop_operation_xyz
x,y,z
-x,-y,z
x,-y,-z
-x,y,-z
-x,-y,-z
x,y,-z
-x,y,z
x,-y,z
1/2+x,1/2+y,1/2+z
1/2-x,1/2-y,1/2+z
1/2+x,1/2-y,1/2-z
1/2-x,1/2+y,1/2-z
1/2-x,1/2-y,1/2-z
1/2+x,1/2+y,1/2-z
1/2-x,1/2+y,1/2+z
1/2+x,1/2-y,1/2+z
loop_
_atom_site_type_symbol
_atom_site_label
_atom_site_fract_x
_atom_site_fract_y
_atom_site_fract_z
Si Si1 0.057821 0.869041 0.313622
Si Si2 0.593617 0.500000 0.413662
Si Si3 0.558153 0.726472 0.656349
Si Si4 0.152710 0.130240 0.414314
Si Si5 0.252430 0.739043 0.587740
Si Si6 0.854495 0.369356 0.913767
Si Si7 0.787327 0.000000 0.087727
O O1 0.064976 0.799859 0.240868
O O2 0.101269 0.844433 0.371417
O O3 0.000000 0.851086 0.340253
O O4 0.061758 0.000000 0.295420
O O5 0.591589 0.500000 0.500000
O O6 0.567908 0.389814 0.383776
O O7 0.653228 0.500000 0.391533
O O8 0.500000 0.761761 0.643958
O O9 0.598750 0.812999 0.626815
O O10 0.145493 0.147221 0.500000
O O11 0.200255 0.203535 0.388884
O O12 0.164659 0.000000 0.404136
O O13 0.251306 0.739045 0.500000
O O14 0.301949 0.810012 0.608144
O O15 0.260755 0.613043 0.611874
O O16 0.851642 0.500000 0.901436
O O17 0.860788 0.350886 0.000000
O O18 0.786594 0.000000 0.000000
#
# Coordination Sequence:
#
# PCOD9520954 Si02
#       7
#    16   8  16  16  16  16   8
#     4   9  18  33  51  73 102 133 161 197 252 298
#     4  11  19  30  49  74  97 125 168 210 244 282
#     4  11  21  33  49  69  98 133 167 206 249 293
#     4   9  17  30  52  79 102 127 161 198 238 296
#     4   9  16  29  49  74 101 128 160 199 246 292
#     4  10  20  33  50  71  99 134 168 204 243 286
#     4   9  16  27  48  73  99 129 159 199 247 288
#
# _framework density 16.254757000000001
#
# number of rings (size 3 to 8) (size 9 to 14) (size 15 to 20)
#    0.000    2.333    2.500    1.250    0.000    4.333 
#    0.000    3.333    1.833    0.000    0.000    0.000 
#    0.000    3.333    0.000    0.000    0.000    0.000 
#
# Total GULP energy -267655.817357 kJ/mol
# GULP energy per Si atom -5576.162862 kJ/mol
# Density = 1.621776 g / cm^3
# Si number density = 16.254757 Si / 1000 Ang^3
#
#
#
# Elastic Constant Matrix: (Units=GPa)
#
#
# Indices 1 2 3 4 5 6 
#
# 1 163.9098 83.1144 55.0095 0.0000 0.0000 0.0000
# 2 83.1144 95.8782 35.5444 0.0000 0.0000 0.0000
# 3 55.0095 35.5444 32.7574 0.0000 0.0000 0.0000
# 4 0.0000 0.0000 0.0000 15.5390 0.0000 0.0000
# 5 0.0000 0.0000 0.0000 0.0000 -160.8358 0.0000
# 6 0.0000 0.0000 0.0000 0.0000 0.0000 28.1617
#
#
#
# Elastic Compliance Matrix: (Units=1/GPa)
#
#
# Indices 1 2 3 4 5 6 
#
# 1 0.016140 -0.006597 -0.019946 0.000000 0.000000 0.000000
# 2 -0.006597 0.020145 -0.010781 0.000000 0.000000 0.000000
# 3 -0.019946 -0.010781 0.075720 0.000000 0.000000 0.000000
# 4 0.000000 0.000000 0.000000 0.064354 0.000000 0.000000
# 5 0.000000 0.000000 0.000000 0.000000 -0.006218 0.000000
# 6 0.000000 0.000000 0.000000 0.000000 0.000000 0.035509
#
#
# Mechanical properties :
#
#
# Convention : Reuss Voigt Hill
#
# Bulk Modulus (GPa) = 26.76769 71.09801 48.93285
# Shear Modulus (GPa) = 17.07931 -15.50187 0.78872
#
# Velocity S-wave (km/s) = 3.24501 -3.09152 0.69734
# Velocity P-wave (km/s) = 5.52661 5.57597 5.55135
#
# Compressibility (1/GPa) = 0.03735847
#
# Stress axis : x y z
#
# Youngs Moduli (GPa) = 61.95779 49.63889 13.20650
#
# Poissons Ratio (x) = 0.32747 0.26341
# Poissons Ratio (y) = 0.40874 0.14238
# Poissons Ratio (z) = 1.23579 0.53516
#
# Static dielectric constant tensor:
#      x y z
#    x 1.537620 0.000000 0.000000 
#    y 0.000000 1.534300 0.000000 
#    z 0.000000 0.000000 1.532670 
# 
# From -- ./inp_files/24269.got.cif
#   From: 2010.05.17/outbox.cif.g08.bks.cpg/sg71_13_cif.got.tgz:24269.got - 2010.06.03 16:22:01.
