data_PCOD9520678
_publ_section_title
;
Structure prediction by ZEFSAII (Michael W. Deem and Ramdas Pophale) SiO2 
 PCOD9520678
Probable space group: I M M M
;
_chemical_formula_sum "Si O2"
_cell_formula_units_Z 88
_cell_length_a 12.081699
_cell_length_b 35.040951
_cell_length_c 13.672462
_cell_angle_alpha 90.000000
_cell_angle_beta 90.000000
_cell_angle_gamma 90.000000
_cell_volume 5788.294522
_symmetry_space_group_name_H-M "I M M M"
_symmetry_group_IT_number 71
_symmetry_cell_setting 'orthorhombic'
loop_
_space_group_symop_operation_xyz
x,y,z
-x,-y,z
x,-y,-z
-x,y,-z
-x,-y,-z
x,y,-z
-x,y,z
x,-y,z
1/2+x,1/2+y,1/2+z
1/2-x,1/2-y,1/2+z
1/2+x,1/2-y,1/2-z
1/2-x,1/2+y,1/2-z
1/2-x,1/2-y,1/2-z
1/2+x,1/2+y,1/2-z
1/2-x,1/2+y,1/2+z
1/2+x,1/2-y,1/2+z
loop_
_atom_site_type_symbol
_atom_site_label
_atom_site_fract_x
_atom_site_fract_y
_atom_site_fract_z
Si Si1 0.500000 0.736739 0.881829
Si Si2 0.134152 0.000000 0.113197
Si Si3 0.131680 0.084223 0.881657
Si Si4 0.766164 0.654556 0.297895
Si Si5 0.000000 0.325402 0.618226
Si Si6 0.764842 0.199451 0.616729
Si Si7 0.372847 0.274676 0.617870
O O1 0.500000 0.780765 0.849768
O O2 0.612515 0.714777 0.856623
O O3 0.500000 0.738745 0.000000
O O4 0.165766 0.041549 0.152988
O O5 0.000000 0.000000 0.112580
O O6 0.169933 0.000000 0.000000
O O7 0.201347 0.116945 0.830065
O O8 0.000000 0.089353 0.863801
O O9 0.145986 0.086388 0.000000
O O10 0.764041 0.663171 0.182357
O O11 0.701614 0.690931 0.343571
O O12 0.889427 0.655541 0.340414
O O13 0.000000 0.326709 0.500000
O O14 0.760327 0.192935 0.500000
O O15 0.681397 0.233984 0.642205
O O16 0.372126 0.277285 0.500000
O O17 0.500000 0.277197 0.650966
#
# Coordination Sequence:
#
# PCOD9520678 Si02
#       7
#     8   8  16  16   8  16  16
#     4   9  18  34  48  59  86 126 163 195 230 277
#     4   7  12  26  48  71  96 122 141 169 223 287
#     4   9  17  30  49  74  99 119 145 183 229 283
#     4  12  22  30  49  67  92 123 158 195 238 274
#     4  11  22  34  47  66  93 124 158 192 236 287
#     4  10  22  35  46  63  89 126 167 201 233 270
#     4  10  20  32  47  67  90 117 156 205 245 276
#
# _framework density 15.203096
#
# number of rings (size 3 to 8) (size 9 to 14) (size 15 to 20)
#    0.000    2.091    1.818    3.818    3.818    1.455 
#    0.000    0.000    0.000    0.545    0.000    3.182 
#    0.000    2.182    0.000    1.636    0.000    0.182 
#
# Total GULP energy -245499.411772 kJ/mol
# GULP energy per Si atom -5579.532086 kJ/mol
# Density = 1.516849 g / cm^3
# Si number density = 15.203096 Si / 1000 Ang^3
#
#
#
# Elastic Constant Matrix: (Units=GPa)
#
#
# Indices 1 2 3 4 5 6 
#
# 1 103.5570 48.9640 36.7827 0.0001 -0.0001 0.0000
# 2 48.9640 116.2022 47.2771 0.0000 -0.0001 0.0000
# 3 36.7827 47.2771 61.6603 0.0001 -0.0006 -0.0001
# 4 0.0001 0.0000 0.0001 18.5705 -0.0001 0.0000
# 5 -0.0001 -0.0001 -0.0006 -0.0001 20.5054 0.0000
# 6 0.0000 0.0000 -0.0001 0.0000 0.0000 19.3361
#
#
#
# Elastic Compliance Matrix: (Units=1/GPa)
#
#
# Indices 1 2 3 4 5 6 
#
# 1 0.013119 -0.003407 -0.005214 0.000000 0.000000 0.000000
# 2 -0.003407 0.013392 -0.008236 0.000000 0.000000 0.000000
# 3 -0.005214 -0.008236 0.025643 0.000000 0.000001 0.000000
# 4 0.000000 0.000000 0.000000 0.053849 0.000000 0.000000
# 5 0.000000 0.000000 0.000001 0.000000 0.048768 0.000000
# 6 0.000000 0.000000 0.000000 0.000000 0.000000 0.051717
#
#
# Mechanical properties :
#
#
# Convention : Reuss Voigt Hill
#
# Bulk Modulus (GPa) = 54.22721 60.82967 57.52844
# Shear Modulus (GPa) = 20.29652 21.57545 20.93598
#
# Velocity S-wave (km/s) = 3.65776 3.77125 3.71494
# Velocity P-wave (km/s) = 7.32017 7.68513 7.50487
#
# Compressibility (1/GPa) = 0.01844093
#
# Stress axis : x y z
#
# Youngs Moduli (GPa) = 76.22362 74.67188 38.99701
#
# Poissons Ratio (x) = 0.25438 0.20334
# Poissons Ratio (y) = 0.25967 0.32117
# Poissons Ratio (z) = 0.39744 0.61498
#
# Static dielectric constant tensor:
#      x y z
#    x 1.507580 0.000000 0.000000 
#    y 0.000000 1.487650 0.000000 
#    z 0.000000 0.000000 1.544310 
# 
# From -- ./inp_files/29933.got.cif
#   From: 2010.05.17/outbox.cif.g08.bks.cpg/sg71_15_cif.got.tgz:29933.got - 2010.06.03 16:22:01.
