data_PCOD9520587
_publ_section_title
;
Structure prediction by ZEFSAII (Michael W. Deem and Ramdas Pophale) SiO2 
 PCOD9520587
Probable space group: I M M M
;
_chemical_formula_sum "Si O2"
_cell_formula_units_Z 88
_cell_length_a 7.969932
_cell_length_b 20.312703
_cell_length_c 32.556346
_cell_angle_alpha 90.000000
_cell_angle_beta 90.000000
_cell_angle_gamma 90.000000
_cell_volume 5270.574906
_symmetry_space_group_name_H-M "I M M M"
_symmetry_group_IT_number 71
_symmetry_cell_setting 'orthorhombic'
loop_
_space_group_symop_operation_xyz
x,y,z
-x,-y,z
x,-y,-z
-x,y,-z
-x,-y,-z
x,y,-z
-x,y,z
x,-y,z
1/2+x,1/2+y,1/2+z
1/2-x,1/2-y,1/2+z
1/2+x,1/2-y,1/2-z
1/2-x,1/2+y,1/2-z
1/2-x,1/2-y,1/2-z
1/2+x,1/2+y,1/2-z
1/2-x,1/2+y,1/2+z
1/2+x,1/2-y,1/2+z
loop_
_atom_site_type_symbol
_atom_site_label
_atom_site_fract_x
_atom_site_fract_y
_atom_site_fract_z
Si Si1 0.304354 0.714898 0.868670
Si Si2 0.303861 0.074113 0.661498
Si Si3 0.700745 0.791426 0.790329
Si Si4 0.500000 0.927698 0.549051
Si Si5 0.698937 0.426960 0.744989
Si Si6 0.700807 0.329113 0.952216
O O1 0.500000 0.731158 0.868674
O O2 0.285135 0.637674 0.857305
O O3 0.227665 0.757176 0.831547
O O4 0.250912 0.722039 0.916138
O O5 0.500000 0.078334 0.650513
O O6 0.286856 0.080541 0.710833
O O7 0.241376 0.000000 0.651120
O O8 0.500000 0.789902 0.791870
O O9 0.750000 0.750000 0.750000
O O10 0.756328 0.866328 0.783850
O O11 0.500000 0.933837 0.500000
O O12 0.672283 0.889018 0.557243
O O13 0.500000 0.000000 0.567687
O O14 0.500000 0.424653 0.753164
O O15 0.740797 0.500000 0.728852
O O16 0.500000 0.344287 0.948315
O O17 0.727771 0.309749 0.000000
#
# Coordination Sequence:
#
# PCOD9520587 Si02
#       6
#    16  16  16   8  16  16
#     4  10  21  34  49  70  94 123 160 203 249 294
#     4  10  20  31  45  66  91 125 167 205 243 287
#     4  11  21  33  50  72  99 127 160 200 241 287
#     4   9  18  32  50  72  96 124 163 209 253 297
#     4  10  20  34  50  68  95 130 165 201 241 284
#     4   9  19  36  53  68  92 126 162 205 255 299
#
# _framework density 16.696470999999999
#
# number of rings (size 3 to 8) (size 9 to 14) (size 15 to 20)
#    0.000    2.091    1.818    1.636    1.273    4.000 
#    0.000    3.636    0.000    0.000    0.000    0.000 
#    0.000    0.727    0.000    9.091    0.000    1.455 
#
# Total GULP energy -245154.571319 kJ/mol
# GULP energy per Si atom -5571.694803 kJ/mol
# Density = 1.665847 g / cm^3
# Si number density = 16.696471 Si / 1000 Ang^3
#
#
#
# Elastic Constant Matrix: (Units=GPa)
#
#
# Indices 1 2 3 4 5 6 
#
# 1 42.5027 6.4909 18.0183 0.0000 0.0000 0.0000
# 2 6.4909 79.1539 57.5852 0.0000 0.0000 0.0000
# 3 18.0183 57.5852 122.7604 0.0000 0.0000 0.0000
# 4 0.0000 0.0000 0.0000 17.6211 0.0000 0.0000
# 5 0.0000 0.0000 0.0000 0.0000 17.4820 0.0000
# 6 0.0000 0.0000 0.0000 0.0000 0.0000 19.6496
#
#
#
# Elastic Compliance Matrix: (Units=1/GPa)
#
#
# Indices 1 2 3 4 5 6 
#
# 1 0.025136 0.000945 -0.004133 0.000000 0.000000 0.000000
# 2 0.000945 0.019214 -0.009152 0.000000 0.000000 0.000000
# 3 -0.004133 -0.009152 0.013046 0.000000 0.000000 0.000000
# 4 0.000000 0.000000 0.000000 0.056750 0.000000 0.000000
# 5 0.000000 0.000000 0.000000 0.000000 0.057202 0.000000
# 6 0.000000 0.000000 0.000000 0.000000 0.000000 0.050892
#
#
# Mechanical properties :
#
#
# Convention : Reuss Voigt Hill
#
# Bulk Modulus (GPa) = 30.56528 45.40065 37.98297
# Shear Modulus (GPa) = 19.39316 21.77204 20.58260
#
# Velocity S-wave (km/s) = 3.41179 3.61500 3.51487
# Velocity P-wave (km/s) = 5.81950 6.68394 6.26665
#
# Compressibility (1/GPa) = 0.03271686
#
# Stress axis : x y z
#
# Youngs Moduli (GPa) = 39.78424 52.04502 76.65446
#
# Poissons Ratio (x) = -0.04921 0.31680
# Poissons Ratio (y) = -0.03761 0.70153
# Poissons Ratio (z) = 0.16442 0.47631
#
# Static dielectric constant tensor:
#      x y z
#    x 1.603770 0.000000 0.000000 
#    y 0.000000 1.561750 0.000000 
#    z 0.000000 0.000000 1.606720 
# 
# From -- ./inp_files/16860.got.cif
#   From: 2010.05.17/outbox.cif.g08.bks.cpg/sg71_9_cif.got.tgz:16860.got - 2010.06.03 16:22:01.
