data_PCOD9520766
_publ_section_title
;
Structure prediction by ZEFSAII (Michael W. Deem and Ramdas Pophale) SiO2 
 PCOD9520766
Probable space group: I M M M
;
_chemical_formula_sum "Si O2"
_cell_formula_units_Z 96
_cell_length_a 24.038706
_cell_length_b 22.479005
_cell_length_c 7.575049
_cell_angle_alpha 90.000000
_cell_angle_beta 90.000000
_cell_angle_gamma 90.000000
_cell_volume 4093.300385
_symmetry_space_group_name_H-M "I M M M"
_symmetry_group_IT_number 71
_symmetry_cell_setting 'orthorhombic'
loop_
_space_group_symop_operation_xyz
x,y,z
-x,-y,z
x,-y,-z
-x,y,-z
-x,-y,-z
x,y,-z
-x,y,z
x,-y,z
1/2+x,1/2+y,1/2+z
1/2-x,1/2-y,1/2+z
1/2+x,1/2-y,1/2-z
1/2-x,1/2+y,1/2-z
1/2-x,1/2-y,1/2-z
1/2+x,1/2+y,1/2-z
1/2-x,1/2+y,1/2+z
1/2+x,1/2-y,1/2+z
loop_
_atom_site_type_symbol
_atom_site_label
_atom_site_fract_x
_atom_site_fract_y
_atom_site_fract_z
Si Si1 0.380089 0.908647 0.203974
Si Si2 0.500000 0.910660 0.791959
Si Si3 0.437107 0.431513 0.213067
Si Si4 0.241375 0.564801 0.716125
Si Si5 0.333618 0.346651 0.290251
Si Si6 0.378436 0.227211 0.296559
Si Si7 0.000000 0.266671 0.704637
O O1 0.439702 0.927616 0.283418
O O2 0.321987 0.930336 0.280160
O O3 0.376954 0.836662 0.205129
O O4 0.381534 0.928102 0.000000
O O5 0.500000 0.838725 0.785612
O O6 0.500000 0.926926 0.000000
O O7 0.500000 0.414887 0.270854
O O8 0.426551 0.500000 0.270664
O O9 0.388606 0.386943 0.268233
O O10 0.437555 0.431629 0.000000
O O11 0.239904 0.568082 0.500000
O O12 0.264517 0.500000 0.762735
O O13 0.281161 0.616949 0.780310
O O14 0.325736 0.339066 0.500000
O O15 0.341992 0.280291 0.217994
O O16 0.363945 0.215958 0.500000
O O17 0.441910 0.251299 0.288705
O O18 0.000000 0.248606 0.500000
#
# Coordination Sequence:
#
# PCOD9520766 Si02
#       7
#    16   8  16  16  16  16   8
#     4   9  17  32  54  77 103 138 178 215 260 322
#     4   7  12  25  46  73  99 121 153 198 245 298
#     4   9  19  35  52  72 100 134 175 224 273 316
#     4   9  18  34  55  76 100 135 180 228 271 312
#     4  10  21  34  50  74 104 139 180 221 264 316
#     4  10  20  32  48  76 111 141 171 217 267 314
#     4   9  17  31  51  74 103 140 178 209 249 313
#
# _framework density 23.452957999999999
#
# number of rings (size 3 to 8) (size 9 to 14) (size 15 to 20)
#    0.000    2.833    0.000    2.750    1.167    3.333 
#    0.000    2.083    0.000    4.000    0.000    0.000 
#    0.000    4.000    0.000    0.000    0.000    0.000 
#
# Total GULP energy -267959.208947 kJ/mol
# GULP energy per Si atom -5582.483520 kJ/mol
# Density = 2.339958 g / cm^3
# Si number density = 23.452958 Si / 1000 Ang^3
#
#
#
# Elastic Constant Matrix: (Units=GPa)
#
#
# Indices 1 2 3 4 5 6 
#
# 1 106.1943 52.0913 -1.5286 0.0000 0.0000 0.0000
# 2 52.0913 104.5949 -0.5003 0.0000 0.0000 0.0000
# 3 -1.5286 -0.5003 58.2169 0.0000 0.0000 0.0000
# 4 0.0000 0.0000 0.0000-2027.9392 0.0000 0.0000
# 5 0.0000 0.0000 0.0000 0.0000 -13.3183 0.0000
# 6 0.0000 0.0000 0.0000 0.0000 0.0000 23.4815
#
#
#
# Elastic Compliance Matrix: (Units=1/GPa)
#
#
# Indices 1 2 3 4 5 6 
#
# 1 0.012465 -0.006207 0.000274 0.000000 0.000000 0.000000
# 2 -0.006207 0.012652 -0.000054 0.000000 0.000000 0.000000
# 3 0.000274 -0.000054 0.017184 0.000000 0.000000 0.000000
# 4 0.000000 0.000000 0.000000 -0.000493 0.000000 0.000000
# 5 0.000000 0.000000 0.000000 0.000000 -0.075084 0.000000
# 6 0.000000 0.000000 0.000000 0.000000 0.000000 0.042587
#
#
# Mechanical properties :
#
#
# Convention : Reuss Voigt Hill
#
# Bulk Modulus (GPa) = 32.97432 41.01453 36.99443
# Shear Modulus (GPa) = 159.27233 -388.95896 -114.84331
#
# Velocity S-wave (km/s) = 8.24978 -12.89211 -7.00527
# Velocity P-wave (km/s) = 10.23892 14.28575 7.04440
#
# Compressibility (1/GPa) = 0.03032663
#
# Stress axis : x y z
#
# Youngs Moduli (GPa) = 80.22324 79.04160 58.19410
#
# Poissons Ratio (x) = 0.49059 -0.01594
# Poissons Ratio (y) = 0.49792 0.00316
# Poissons Ratio (z) = -0.02198 0.00429
#
# Static dielectric constant tensor:
#      x y z
#    x 1.899820 0.000000 0.000000 
#    y 0.000000 1.892660 0.000000 
#    z 0.000000 0.000000 1.884110 
# 
# From -- ./inp_files/12875.got.cif
#   From: 2010.05.17/outbox.cif.g08.bks.cpg/sg71_7_cif.got.tgz:12875.got - 2010.06.03 16:22:01.
