data_PCOD9520882
_publ_section_title
;
Structure prediction by ZEFSAII (Michael W. Deem and Ramdas Pophale) SiO2 
 PCOD9520882
Probable space group: I M M M
;
_chemical_formula_sum "Si O2"
_cell_formula_units_Z 104
_cell_length_a 9.452172
_cell_length_b 34.413725
_cell_length_c 17.800611
_cell_angle_alpha 90.000000
_cell_angle_beta 90.000000
_cell_angle_gamma 90.000000
_cell_volume 5790.261921
_symmetry_space_group_name_H-M "I M M M"
_symmetry_group_IT_number 71
_symmetry_cell_setting 'orthorhombic'
loop_
_space_group_symop_operation_xyz
x,y,z
-x,-y,z
x,-y,-z
-x,y,-z
-x,-y,-z
x,y,-z
-x,y,z
x,-y,z
1/2+x,1/2+y,1/2+z
1/2-x,1/2-y,1/2+z
1/2+x,1/2-y,1/2-z
1/2-x,1/2+y,1/2-z
1/2-x,1/2-y,1/2-z
1/2+x,1/2+y,1/2-z
1/2-x,1/2+y,1/2+z
1/2+x,1/2-y,1/2+z
loop_
_atom_site_type_symbol
_atom_site_label
_atom_site_fract_x
_atom_site_fract_y
_atom_site_fract_z
Si Si1 0.172164 0.543743 0.087845
Si Si2 0.840235 0.926214 0.089342
Si Si3 0.671365 0.879422 0.672464
Si Si4 0.165431 0.301772 0.090077
Si Si5 0.662300 0.000000 0.092021
Si Si6 0.168285 0.275292 0.588648
Si Si7 0.830804 0.642016 0.656106
O O1 0.218619 0.500000 0.109389
O O2 0.222675 0.579537 0.139026
O O3 0.000000 0.543542 0.091001
O O4 0.209030 0.550239 0.000000
O O5 0.745678 0.961903 0.118227
O O6 0.758687 0.886519 0.104403
O O7 0.000000 0.926187 0.119776
O O8 0.850196 0.931814 0.000000
O O9 0.500000 0.880358 0.665656
O O10 0.719454 0.841851 0.625506
O O11 0.702548 0.870890 0.759114
O O12 0.250110 0.263368 0.112956
O O13 0.000000 0.297175 0.110669
O O14 0.173970 0.304866 0.000000
O O15 0.500000 0.000000 0.117319
O O16 0.659848 0.000000 0.000000
O O17 0.200514 0.282691 0.500000
O O18 0.203557 0.313409 0.636826
O O19 0.000000 0.268857 0.594100
O O20 0.000000 0.637146 0.643464
#
# Coordination Sequence:
#
# PCOD9520882 Si02
#       7
#    16  16  16  16   8  16  16
#     4   8  13  23  42  67  95 128 162 197 242 294
#     4  10  20  34  52  73  98 129 167 212 256 297
#     4   9  17  29  44  67 100 131 162 203 250 302
#     4   9  17  30  50  73  96 125 162 207 257 303
#     4   9  17  31  53  77  97 121 160 207 252 299
#     4   9  18  32  48  66  91 125 166 209 252 301
#     4  10  20  33  48  69  99 135 169 204 249 300
#
# _framework density 17.961190999999999
#
# number of rings (size 3 to 8) (size 9 to 14) (size 15 to 20)
#    0.000    2.846    0.000    2.077    0.000    5.538 
#    1.385    2.308    0.000    0.000    0.000    0.000 
#    0.000    0.000    0.000    7.385    0.000    7.077 
#
# Total GULP energy -289742.505124 kJ/mol
# GULP energy per Si atom -5571.971252 kJ/mol
# Density = 1.792031 g / cm^3
# Si number density = 17.961191 Si / 1000 Ang^3
#
#
#
# Elastic Constant Matrix: (Units=GPa)
#
#
# Indices 1 2 3 4 5 6 
#
# 1 42.2835 46.3304 20.8432 0.0001 0.0000 0.0000
# 2 46.3304 155.3746 48.3550 0.0018 0.0000 0.0000
# 3 20.8432 48.3550 33.2862 0.0128 -0.0001 0.0000
# 4 0.0001 0.0018 0.0128 -544.4560 0.0011 -0.0006
# 5 0.0000 0.0000 -0.0001 0.0011 9.2990 0.0000
# 6 0.0000 0.0000 0.0000 -0.0006 0.0000 21.4751
#
#
#
# Elastic Compliance Matrix: (Units=1/GPa)
#
#
# Indices 1 2 3 4 5 6 
#
# 1 0.038160 -0.007195 -0.013443 0.000000 0.000000 0.000000
# 2 -0.007195 0.013104 -0.014530 0.000000 0.000000 0.000000
# 3 -0.013443 -0.014530 0.059568 0.000001 0.000001 0.000000
# 4 0.000000 0.000000 0.000001 -0.001837 0.000000 0.000000
# 5 0.000000 0.000000 0.000001 0.000000 0.107538 0.000000
# 6 0.000000 0.000000 0.000000 0.000000 0.000000 0.046566
#
#
# Mechanical properties :
#
#
# Convention : Reuss Voigt Hill
#
# Bulk Modulus (GPa) = 24.69393 51.33349 38.01371
# Shear Modulus (GPa) = 14.41196 -95.04201 -40.31502
#
# Velocity S-wave (km/s) = 2.83573 -7.28218 -4.74282
# Velocity P-wave (km/s) = 4.94976 6.48571 2.96347
#
# Compressibility (1/GPa) = 0.04049577
#
# Stress axis : x y z
#
# Youngs Moduli (GPa) = 26.20528 76.31508 16.78751
#
# Poissons Ratio (x) = 0.54910 0.22567
# Poissons Ratio (y) = 0.18855 0.24392
# Poissons Ratio (z) = 0.35227 1.10887
#
# Static dielectric constant tensor:
#      x y z
#    x 1.603210 0.000000 0.000000 
#    y 0.000000 1.611570 0.000000 
#    z 0.000000 0.000000 1.629410 
# 
# From -- ./inp_files/51208.got.cif
#   From: 2010.05.17/outbox.cif.g08.bks.cpg/sg71_26_cif.got.tgz:51208.got - 2010.06.03 16:22:01.
