data_PCOD9520202
_publ_section_title
;
Structure prediction by ZEFSAII (Michael W. Deem and Ramdas Pophale) SiO2 
 PCOD9520202
Probable space group: I M M M
;
_chemical_formula_sum "Si O2"
_cell_formula_units_Z 104
_cell_length_a 22.192753
_cell_length_b 9.404555
_cell_length_c 27.473959
_cell_angle_alpha 90.000000
_cell_angle_beta 90.000000
_cell_angle_gamma 90.000000
_cell_volume 5734.171476
_symmetry_space_group_name_H-M "I M M M"
_symmetry_group_IT_number 71
_symmetry_cell_setting 'orthorhombic'
loop_
_space_group_symop_operation_xyz
x,y,z
-x,-y,z
x,-y,-z
-x,y,-z
-x,-y,-z
x,y,-z
-x,y,z
x,-y,z
1/2+x,1/2+y,1/2+z
1/2-x,1/2-y,1/2+z
1/2+x,1/2-y,1/2-z
1/2-x,1/2+y,1/2-z
1/2-x,1/2-y,1/2-z
1/2+x,1/2+y,1/2-z
1/2-x,1/2+y,1/2+z
1/2+x,1/2-y,1/2+z
loop_
_atom_site_type_symbol
_atom_site_label
_atom_site_fract_x
_atom_site_fract_y
_atom_site_fract_z
Si Si1 0.226098 0.164645 0.422943
Si Si2 0.290468 0.662030 0.191960
Si Si3 0.150870 0.831198 0.943887
Si Si4 0.111280 0.342415 0.556068
Si Si5 0.654216 0.831071 0.272536
Si Si6 0.500000 0.338093 0.059791
Si Si7 0.070952 0.830085 0.150534
O O1 0.209756 0.167140 0.365892
O O2 0.290321 0.236444 0.433375
O O3 0.173996 0.260585 0.445167
O O4 0.225528 0.000000 0.439016
O O5 0.302090 0.500000 0.208509
O O6 0.337418 0.764165 0.218958
O O7 0.221063 0.696003 0.205390
O O8 0.101835 0.800012 0.901998
O O9 0.166080 0.000000 0.939875
O O10 0.131024 0.807138 0.000000
O O11 0.092731 0.360002 0.500000
O O12 0.116472 0.500000 0.578007
O O13 0.059019 0.244706 0.577708
O O14 0.606289 0.754107 0.307277
O O15 0.643869 0.000000 0.271286
O O16 0.500000 0.500000 0.076468
O O17 0.500000 0.343905 0.000000
O O18 0.000000 0.795715 0.149829
O O19 0.077198 0.000000 0.158888
#
# Coordination Sequence:
#
# PCOD9520202 Si02
#       7
#    16  16  16  16  16   8  16
#     4  11  21  34  53  80 112 145 182 226 279 336
#     4   9  19  34  54  81 110 138 171 215 271 331
#     4  10  21  36  54  79 113 151 193 241 287 333
#     4  10  20  33  50  74 105 141 180 221 267 321
#     4  10  19  34  57  84 109 136 174 222 273 327
#     4   9  17  31  51  73  97 131 177 221 261 311
#     4  10  21  37  58  82 111 151 194 236 286 342
#
# _framework density 18.136883000000001
#
# number of rings (size 3 to 8) (size 9 to 14) (size 15 to 20)
#    0.000    2.077    1.538    2.077    0.000    6.462 
#    0.000    1.538    1.692    0.000    0.000    2.154 
#    0.000    0.000    0.000    0.000    0.000    0.000 
#
# Total GULP energy -289854.851409 kJ/mol
# GULP energy per Si atom -5574.131758 kJ/mol
# Density = 1.809560 g / cm^3
# Si number density = 18.136883 Si / 1000 Ang^3
#
#
#
# Elastic Constant Matrix: (Units=GPa)
#
#
# Indices 1 2 3 4 5 6 
#
# 1 119.0750 80.6114 37.1721 0.0000 0.0000 0.0000
# 2 80.6114 115.5888 38.1964 0.0000 0.0000 0.0000
# 3 37.1721 38.1964 72.6919 0.0000 0.0000 0.0000
# 4 0.0000 0.0000 0.0000 21.2753 0.0000 0.0000
# 5 0.0000 0.0000 0.0000 0.0000 22.4427 0.0000
# 6 0.0000 0.0000 0.0000 0.0000 0.0000 24.5008
#
#
#
# Elastic Compliance Matrix: (Units=1/GPa)
#
#
# Indices 1 2 3 4 5 6 
#
# 1 0.016391 -0.010481 -0.002874 0.000000 0.000000 0.000000
# 2 -0.010481 0.017171 -0.003663 0.000000 0.000000 0.000000
# 3 -0.002874 -0.003663 0.017151 0.000000 0.000000 0.000000
# 4 0.000000 0.000000 0.000000 0.047003 0.000000 0.000000
# 5 0.000000 0.000000 0.000000 0.000000 0.044558 0.000000
# 6 0.000000 0.000000 0.000000 0.000000 0.000000 0.040815
#
#
# Mechanical properties :
#
#
# Convention : Reuss Voigt Hill
#
# Bulk Modulus (GPa) = 59.96501 68.81282 64.38891
# Shear Modulus (GPa) = 22.45319 23.73547 23.09433
#
# Velocity S-wave (km/s) = 3.52232 3.62150 3.57225
# Velocity P-wave (km/s) = 7.04816 7.45052 7.25213
#
# Compressibility (1/GPa) = 0.01667639
#
# Stress axis : x y z
#
# Youngs Moduli (GPa) = 61.00951 58.23651 58.30452
#
# Poissons Ratio (x) = 0.61039 0.16759
# Poissons Ratio (y) = 0.63945 0.21358
# Poissons Ratio (z) = 0.17536 0.21333
#
# Static dielectric constant tensor:
#      x y z
#    x 1.590690 0.000000 0.000000 
#    y 0.000000 1.639030 0.000000 
#    z 0.000000 0.000000 1.671960 
# 
# From -- ./inp_files/66405.got.cif
#   From: 2010.05.17/outbox.cif.g08.bks.cpg/sg71_34_cif.got.tgz:66405.got - 2010.06.03 16:22:01.
