data_PCOD9520852
_publ_section_title
;
Structure prediction by ZEFSAII (Michael W. Deem and Ramdas Pophale) SiO2 
 PCOD9520852
Probable space group: I M M M
;
_chemical_formula_sum "Si O2"
_cell_formula_units_Z 88
_cell_length_a 19.762050
_cell_length_b 29.044678
_cell_length_c 7.385806
_cell_angle_alpha 90.000000
_cell_angle_beta 90.000000
_cell_angle_gamma 90.000000
_cell_volume 4239.322498
_symmetry_space_group_name_H-M "I M M M"
_symmetry_group_IT_number 71
_symmetry_cell_setting 'orthorhombic'
loop_
_space_group_symop_operation_xyz
x,y,z
-x,-y,z
x,-y,-z
-x,y,-z
-x,-y,-z
x,y,-z
-x,y,z
x,-y,z
1/2+x,1/2+y,1/2+z
1/2-x,1/2-y,1/2+z
1/2+x,1/2-y,1/2-z
1/2-x,1/2+y,1/2-z
1/2-x,1/2-y,1/2-z
1/2+x,1/2+y,1/2-z
1/2-x,1/2+y,1/2+z
1/2+x,1/2-y,1/2+z
loop_
_atom_site_type_symbol
_atom_site_label
_atom_site_fract_x
_atom_site_fract_y
_atom_site_fract_z
Si Si1 0.582333 0.220330 0.209278
Si Si2 0.661094 0.590112 0.778930
Si Si3 0.576736 0.879458 0.782618
Si Si4 0.422523 0.500000 0.779430
Si Si5 0.697307 0.947755 0.715540
Si Si6 0.078555 0.178924 0.278337
O O1 0.500000 0.219941 0.210064
O O2 0.601617 0.170610 0.287565
O O3 0.601021 0.270234 0.285712
O O4 0.604894 0.220725 0.000000
O O5 0.616621 0.545999 0.724029
O O6 0.737556 0.580534 0.717465
O O7 0.626320 0.637401 0.719433
O O8 0.660581 0.591346 0.000000
O O9 0.500000 0.888195 0.717886
O O10 0.628654 0.919936 0.744880
O O11 0.572780 0.874868 0.000000
O O12 0.500000 0.500000 0.719860
O O13 0.422580 0.500000 0.000000
O O14 0.706526 0.951443 0.500000
O O15 0.695743 0.000000 0.786942
O O16 0.078704 0.180081 0.500000
O O17 0.000000 0.171109 0.226368
#
# Coordination Sequence:
#
# PCOD9520852 Si02
#       6
#    16  16  16   8  16  16
#     4   7  11  22  40  62  86 109 136 178 229 267
#     4   9  15  24  36  56  89 125 153 177 213 260
#     4   9  18  33  52  70  86 108 145 192 232 266
#     4   9  14  20  34  56  84 119 156 188 213 243
#     4  10  20  33  46  62  92 128 150 173 221 276
#     4   8  12  19  36  62  89 117 149 182 216 257
#
# _framework density 20.758033000000001
#
# number of rings (size 3 to 8) (size 9 to 14) (size 15 to 20)
#    0.000    3.364    0.909    2.727    0.000    3.273 
#    0.000    2.727    0.000    0.000    0.000    0.000 
#    0.000    5.091    0.000    0.000    0.000    0.000 
#
# Total GULP energy -245290.215466 kJ/mol
# GULP energy per Si atom -5574.777624 kJ/mol
# Density = 2.071079 g / cm^3
# Si number density = 20.758033 Si / 1000 Ang^3
#
#
#
# Elastic Constant Matrix: (Units=GPa)
#
#
# Indices 1 2 3 4 5 6 
#
# 1 120.3448 90.6571 0.9218 0.0000 0.0000 0.0000
# 2 90.6571 174.4411 5.0173 0.0000 0.0000 0.0000
# 3 0.9218 5.0173 71.0285 0.0001 0.0000 0.0000
# 4 0.0000 0.0000 0.0001 -73.4964 0.0000 0.0000
# 5 0.0000 0.0000 0.0000 0.0000 -9.5222 0.0000
# 6 0.0000 0.0000 0.0000 0.0000 0.0000 -26.2906
#
#
#
# Elastic Compliance Matrix: (Units=1/GPa)
#
#
# Indices 1 2 3 4 5 6 
#
# 1 0.013663 -0.007110 0.000325 0.000000 0.000000 0.000000
# 2 -0.007110 0.009444 -0.000575 0.000000 0.000000 0.000000
# 3 0.000325 -0.000575 0.014115 0.000000 0.000000 0.000000
# 4 0.000000 0.000000 0.000000 -0.013606 0.000000 0.000000
# 5 0.000000 0.000000 0.000000 0.000000 -0.105017 0.000000
# 6 0.000000 0.000000 0.000000 0.000000 0.000000 -0.038036
#
#
# Mechanical properties :
#
#
# Convention : Reuss Voigt Hill
#
# Bulk Modulus (GPa) = 44.43933 62.11185 53.27559
# Shear Modulus (GPa) = -51.43147 -3.91397 -27.67272
#
# Velocity S-wave (km/s) = -4.98302 -1.37463 -3.65514
# Velocity P-wave (km/s) = 3.41358 5.24093 2.81201
#
# Compressibility (1/GPa) = 0.02250259
#
# Stress axis : x y z
#
# Youngs Moduli (GPa) = 73.19022 105.88502 70.84540
#
# Poissons Ratio (x) = 0.75284 -0.02302
# Poissons Ratio (y) = 0.52038 0.04073
# Poissons Ratio (z) = -0.02378 0.06087
#
# Static dielectric constant tensor:
#      x y z
#    x 1.699100 0.000000 0.000000 
#    y 0.000000 1.754220 0.000000 
#    z 0.000000 0.000000 1.887290 
# 
# From -- ./inp_files/8726.got.cif
#   From: 2010.05.17/outbox.cif.g08.bks.cpg/sg71_5_cif.got.tgz:8726.got - 2010.06.03 16:22:01.
