data_PCOD9520332
_publ_section_title
;
Structure prediction by ZEFSAII (Michael W. Deem and Ramdas Pophale) SiO2 
 PCOD9520332
Probable space group: I M M M
;
_chemical_formula_sum "Si O2"
_cell_formula_units_Z 88
_cell_length_a 11.868313
_cell_length_b 14.262495
_cell_length_c 31.272842
_cell_angle_alpha 90.000000
_cell_angle_beta 90.000000
_cell_angle_gamma 90.000000
_cell_volume 5293.608844
_symmetry_space_group_name_H-M "I M M M"
_symmetry_group_IT_number 71
_symmetry_cell_setting 'orthorhombic'
loop_
_space_group_symop_operation_xyz
x,y,z
-x,-y,z
x,-y,-z
-x,y,-z
-x,-y,-z
x,y,-z
-x,y,z
x,-y,z
1/2+x,1/2+y,1/2+z
1/2-x,1/2-y,1/2+z
1/2+x,1/2-y,1/2-z
1/2-x,1/2+y,1/2-z
1/2-x,1/2-y,1/2-z
1/2+x,1/2+y,1/2-z
1/2-x,1/2+y,1/2+z
1/2+x,1/2-y,1/2+z
loop_
_atom_site_type_symbol
_atom_site_label
_atom_site_fract_x
_atom_site_fract_y
_atom_site_fract_z
Si Si1 0.727482 0.109216 0.836865
Si Si2 0.867224 0.607879 0.756824
Si Si3 0.500000 0.288194 0.948191
Si Si4 0.272654 0.387564 0.081912
Si Si5 0.000000 0.390246 0.607967
Si Si6 0.126165 0.613481 0.000000
Si Si7 0.133918 0.711117 0.844633
O O1 0.699762 0.124123 0.786750
O O2 0.612130 0.126003 0.863450
O O3 0.822733 0.182816 0.849811
O O4 0.758236 0.000000 0.842797
O O5 0.846970 0.500000 0.770655
O O6 0.844340 0.676004 0.796239
O O7 0.000000 0.615246 0.746258
O O8 0.608709 0.339199 0.928080
O O9 0.500000 0.181399 0.931406
O O10 0.500000 0.295540 0.000000
O O11 0.285591 0.500000 0.082841
O O12 0.209617 0.351744 0.124033
O O13 0.192895 0.360066 0.042264
O O14 0.000000 0.500000 0.595560
O O15 0.120989 0.500000 0.000000
O O16 0.000000 0.650703 0.000000
O O17 0.000000 0.700794 0.852949
#
# Coordination Sequence:
#
# PCOD9520332 Si02
#       7
#    16  16   8  16   8   8  16
#     4  10  19  35  58  79 105 143 189 235 278 330
#     4   9  17  31  53  80 108 144 187 229 276 332
#     4  12  23  39  62  87 113 142 181 239 299 340
#     4  11  22  36  55  81 112 145 183 225 274 337
#     4  10  20  38  63  86 106 141 189 234 281 334
#     4   9  18  33  53  75 103 143 182 212 253 321
#     4  11  22  34  52  81 114 150 187 230 278 330
#
# _framework density 16.623819000000001
#
# number of rings (size 3 to 8) (size 9 to 14) (size 15 to 20)
#    0.000    1.727    3.636    1.909    0.000    2.727 
#    0.000    0.000    0.000    0.000    0.000    0.000 
#    0.000    5.818    0.000    0.000    0.000    0.000 
#
# Total GULP energy -245420.804134 kJ/mol
# GULP energy per Si atom -5577.745548 kJ/mol
# Density = 1.658598 g / cm^3
# Si number density = 16.623819 Si / 1000 Ang^3
#
#
#
# Elastic Constant Matrix: (Units=GPa)
#
#
# Indices 1 2 3 4 5 6 
#
# 1 97.3599 46.7969 29.7831 0.0000 0.0000 0.0000
# 2 46.7969 88.6446 34.5927 0.0000 0.0000 0.0000
# 3 29.7831 34.5927 59.9468 0.0000 0.0000 0.0000
# 4 0.0000 0.0000 0.0000 22.9860 0.0000 0.0000
# 5 0.0000 0.0000 0.0000 0.0000 24.6836 0.0000
# 6 0.0000 0.0000 0.0000 0.0000 0.0000 23.4309
#
#
#
# Elastic Compliance Matrix: (Units=1/GPa)
#
#
# Indices 1 2 3 4 5 6 
#
# 1 0.014327 -0.006177 -0.003554 0.000000 0.000000 0.000000
# 2 -0.006177 0.017223 -0.006870 0.000000 0.000000 0.000000
# 3 -0.003554 -0.006870 0.022411 0.000000 0.000000 0.000000
# 4 0.000000 0.000000 0.000000 0.043505 0.000000 0.000000
# 5 0.000000 0.000000 0.000000 0.000000 0.040513 0.000000
# 6 0.000000 0.000000 0.000000 0.000000 0.000000 0.042679
#
#
# Mechanical properties :
#
#
# Convention : Reuss Voigt Hill
#
# Bulk Modulus (GPa) = 48.16796 52.03297 50.10047
# Shear Modulus (GPa) = 22.64720 23.20533 22.92627
#
# Velocity S-wave (km/s) = 3.69499 3.74024 3.71768
# Velocity P-wave (km/s) = 6.87329 7.07253 6.97362
#
# Compressibility (1/GPa) = 0.02076069
#
# Stress axis : x y z
#
# Youngs Moduli (GPa) = 69.79728 58.06324 44.62047
#
# Poissons Ratio (x) = 0.35864 0.15857
# Poissons Ratio (y) = 0.43112 0.30653
# Poissons Ratio (z) = 0.24805 0.39887
#
# Static dielectric constant tensor:
#      x y z
#    x 1.550680 0.000000 0.000000 
#    y 0.000000 1.554810 0.000000 
#    z 0.000000 0.000000 1.547950 
# 
# From -- ./inp_files/40848.got.cif
#   From: 2010.05.17/outbox.cif.g08.bks.cpg/sg71_21_cif.got.tgz:40848.got - 2010.06.03 16:22:01.
