data_PCOD9520421
_publ_section_title
;
Structure prediction by ZEFSAII (Michael W. Deem and Ramdas Pophale) SiO2 
 PCOD9520421
Probable space group: I M M M
;
_chemical_formula_sum "Si O2"
_cell_formula_units_Z 72
_cell_length_a 13.975544
_cell_length_b 7.612108
_cell_length_c 32.740927
_cell_angle_alpha 90.000000
_cell_angle_beta 90.000000
_cell_angle_gamma 90.000000
_cell_volume 3483.089506
_symmetry_space_group_name_H-M "I M M M"
_symmetry_group_IT_number 71
_symmetry_cell_setting 'orthorhombic'
loop_
_space_group_symop_operation_xyz
x,y,z
-x,-y,z
x,-y,-z
-x,y,-z
-x,-y,-z
x,y,-z
-x,y,z
x,-y,z
1/2+x,1/2+y,1/2+z
1/2-x,1/2-y,1/2+z
1/2+x,1/2-y,1/2-z
1/2-x,1/2+y,1/2-z
1/2-x,1/2-y,1/2-z
1/2+x,1/2+y,1/2-z
1/2-x,1/2+y,1/2+z
1/2+x,1/2-y,1/2+z
loop_
_atom_site_type_symbol
_atom_site_label
_atom_site_fract_x
_atom_site_fract_y
_atom_site_fract_z
Si Si1 0.325850 0.306767 0.216900
Si Si2 0.000000 0.713285 0.228778
Si Si3 0.500000 0.786031 0.633300
Si Si4 0.610811 0.715720 0.128631
Si Si5 0.807348 0.707434 0.912161
Si Si6 0.110684 0.210342 0.000000
O O1 0.294163 0.500000 0.203902
O O2 0.250000 0.250000 0.250000
O O3 0.415078 0.296309 0.246231
O O4 0.356480 0.222101 0.174004
O O5 0.000000 0.756529 0.181082
O O6 0.000000 0.500000 0.232259
O O7 0.400749 0.722152 0.612563
O O8 0.500000 0.000000 0.629424
O O9 0.500000 0.771987 0.120249
O O10 0.606266 0.500000 0.128022
O O11 0.700652 0.771623 0.100041
O O12 0.804779 0.500000 0.903099
O O13 0.834211 0.732291 0.959365
O O14 0.000000 0.275936 0.000000
O O15 0.106474 0.000000 0.000000
#
# Coordination Sequence:
#
# PCOD9520421 Si02
#       6
#    16   8   8  16  16   8
#     4  11  21  36  56  80 113 154 198 247 295 338
#     4  11  21  35  54  82 117 153 195 240 290 344
#     4   9  18  32  52  83 116 146 189 243 286 328
#     4   9  18  35  58  83 113 151 195 241 287 334
#     4  10  19  35  62  86 107 145 194 236 276 339
#     4  11  23  39  58  85 122 148 169 224 303 362
#
# _framework density 20.671303999999999
#
# number of rings (size 3 to 8) (size 9 to 14) (size 15 to 20)
#    0.000    1.889    2.222    2.667    0.000    4.000 
#    0.000    7.222    0.000    3.333    0.000    0.000 
#    0.000    0.000    0.000    0.000    0.000    0.000 
#
# Total GULP energy -200456.052325 kJ/mol
# GULP energy per Si atom -5568.223676 kJ/mol
# Density = 2.062426 g / cm^3
# Si number density = 20.671304 Si / 1000 Ang^3
#
#
#
# Elastic Constant Matrix: (Units=GPa)
#
#
# Indices 1 2 3 4 5 6 
#
# 1 223.3379 -2.4827 88.9481 0.0000 0.0000 0.0000
# 2 -2.4827 39.3951 -11.6713 0.0000 0.0000 0.0000
# 3 88.9481 -11.6713 147.7542 0.0000 0.0000 0.0000
# 4 0.0000 0.0000 0.0000 18.3888 0.0000 0.0000
# 5 0.0000 0.0000 0.0000 0.0000 56.9097 0.0000
# 6 0.0000 0.0000 0.0000 0.0000 0.0000 12.8891
#
#
#
# Elastic Compliance Matrix: (Units=1/GPa)
#
#
# Indices 1 2 3 4 5 6 
#
# 1 0.005908 -0.000698 -0.003612 0.000000 0.000000 0.000000
# 2 -0.000698 0.026075 0.002480 0.000000 0.000000 0.000000
# 3 -0.003612 0.002480 0.009138 0.000000 0.000000 0.000000
# 4 0.000000 0.000000 0.000000 0.054381 0.000000 0.000000
# 5 0.000000 0.000000 0.000000 0.000000 0.017572 0.000000
# 6 0.000000 0.000000 0.000000 0.000000 0.000000 0.077585
#
#
# Mechanical properties :
#
#
# Convention : Reuss Voigt Hill
#
# Bulk Modulus (GPa) = 26.69430 62.23061 44.46245
# Shear Modulus (GPa) = 24.17728 40.01705 32.09717
#
# Velocity S-wave (km/s) = 3.42366 4.40463 3.94476
# Velocity P-wave (km/s) = 5.34512 7.48585 6.50416
#
# Compressibility (1/GPa) = 0.03746118
#
# Stress axis : x y z
#
# Youngs Moduli (GPa) = 169.25453 38.35158 109.43037
#
# Poissons Ratio (x) = 0.02676 0.39525
# Poissons Ratio (y) = 0.11809 -0.27135
# Poissons Ratio (z) = 0.61133 -0.09510
#
# Static dielectric constant tensor:
#      x y z
#    x 1.720280 0.000000 0.000000 
#    y 0.000000 1.854530 0.000000 
#    z 0.000000 0.000000 1.737310 
# 
# From -- ./inp_files/16431.got.cif
#   From: 2010.05.17/outbox.cif.g08.bks.cpg/sg71_9_cif.got.tgz:16431.got - 2010.06.03 16:22:01.
