data_PCOD9520619
_publ_section_title
;
Structure prediction by ZEFSAII (Michael W. Deem and Ramdas Pophale) SiO2 
 PCOD9520619
Probable space group: I M M M
;
_chemical_formula_sum "Si O2"
_cell_formula_units_Z 88
_cell_length_a 13.626458
_cell_length_b 29.547586
_cell_length_c 12.838672
_cell_angle_alpha 90.000000
_cell_angle_beta 90.000000
_cell_angle_gamma 90.000000
_cell_volume 5169.220894
_symmetry_space_group_name_H-M "I M M M"
_symmetry_group_IT_number 71
_symmetry_cell_setting 'orthorhombic'
loop_
_space_group_symop_operation_xyz
x,y,z
-x,-y,z
x,-y,-z
-x,y,-z
-x,-y,-z
x,y,-z
-x,y,z
x,-y,z
1/2+x,1/2+y,1/2+z
1/2-x,1/2-y,1/2+z
1/2+x,1/2-y,1/2-z
1/2-x,1/2+y,1/2-z
1/2-x,1/2-y,1/2-z
1/2+x,1/2+y,1/2-z
1/2-x,1/2+y,1/2+z
1/2+x,1/2-y,1/2+z
loop_
_atom_site_type_symbol
_atom_site_label
_atom_site_fract_x
_atom_site_fract_y
_atom_site_fract_z
Si Si1 0.000000 0.945073 0.619568
Si Si2 0.113228 0.191468 0.125205
Si Si3 0.677878 0.445877 0.270097
Si Si4 0.617866 0.203931 0.381424
Si Si5 0.387159 0.884992 0.000000
Si Si6 0.204244 0.638362 0.289627
Si Si7 0.304637 0.447101 0.500000
O O1 0.096103 0.932574 0.686040
O O2 0.000000 0.928785 0.500000
O O3 0.000000 0.000000 0.616351
O O4 0.139612 0.243896 0.147584
O O5 0.190762 0.159251 0.179125
O O6 0.000000 0.183610 0.155509
O O7 0.119511 0.185493 0.000000
O O8 0.696991 0.500000 0.260076
O O9 0.772779 0.413739 0.259486
O O10 0.642849 0.437621 0.390198
O O11 0.652332 0.196618 0.500000
O O12 0.500000 0.200487 0.381426
O O13 0.661153 0.167784 0.302936
O O14 0.364225 0.858944 0.892304
O O15 0.500000 0.900569 0.000000
O O16 0.300044 0.922094 0.000000
O O17 0.284553 0.500000 0.500000
#
# Coordination Sequence:
#
# PCOD9520619 Si02
#       7
#     8  16  16  16   8  16   8
#     4   9  18  33  49  67  97 136 173 209 257 309
#     4   9  18  33  52  76 105 133 169 208 251 312
#     4   9  19  32  48  72 101 134 171 214 260 304
#     4   9  19  35  54  75  99 133 172 211 255 306
#     4  10  20  31  46  76 104 128 166 208 255 303
#     4  11  19  32  54  76 101 135 170 214 251 308
#     4   8  16  32  48  68  98 130 168 209 254 304
#
# _framework density 17.023841000000001
#
# number of rings (size 3 to 8) (size 9 to 14) (size 15 to 20)
#    0.000    2.636    0.909    2.182    1.273    1.273 
#    0.000    1.818    0.000    1.636    0.000    1.273 
#    0.000    0.000    0.000    0.000    0.000    0.000 
#
# Total GULP energy -245062.160344 kJ/mol
# GULP energy per Si atom -5569.594553 kJ/mol
# Density = 1.698509 g / cm^3
# Si number density = 17.023841 Si / 1000 Ang^3
#
#
#
# Elastic Constant Matrix: (Units=GPa)
#
#
# Indices 1 2 3 4 5 6 
#
# 1 48.2170 21.1791 36.7900 0.0000 0.0000 0.0000
# 2 21.1791 64.4416 40.4229 0.0000 0.0000 0.0000
# 3 36.7900 40.4229 92.5861 -0.0003 0.0003 0.0000
# 4 0.0000 0.0000 -0.0003 23.5181 0.0001 0.0000
# 5 0.0000 0.0000 0.0003 0.0001 23.8679 0.0000
# 6 0.0000 0.0000 0.0000 0.0000 0.0000 15.4739
#
#
#
# Elastic Compliance Matrix: (Units=1/GPa)
#
#
# Indices 1 2 3 4 5 6 
#
# 1 0.030268 -0.003310 -0.010582 0.000000 0.000000 0.000000
# 2 -0.003310 0.021733 -0.008173 0.000000 0.000000 0.000000
# 3 -0.010582 -0.008173 0.018574 0.000000 0.000000 0.000000
# 4 0.000000 0.000000 0.000000 0.042520 0.000000 0.000000
# 5 0.000000 0.000000 0.000000 0.000000 0.041897 0.000000
# 6 0.000000 0.000000 0.000000 0.000000 0.000000 0.064625
#
#
# Mechanical properties :
#
#
# Convention : Reuss Voigt Hill
#
# Bulk Modulus (GPa) = 37.81555 44.66985 41.24270
# Shear Modulus (GPa) = 18.34448 19.69550 19.01999
#
# Velocity S-wave (km/s) = 3.28621 3.40507 3.34616
# Velocity P-wave (km/s) = 6.05478 6.46188 6.26164
#
# Compressibility (1/GPa) = 0.02644415
#
# Stress axis : x y z
#
# Youngs Moduli (GPa) = 33.03865 46.01387 53.83842
#
# Poissons Ratio (x) = 0.15229 0.56973
# Poissons Ratio (y) = 0.10935 0.44004
# Poissons Ratio (z) = 0.34962 0.37608
#
# Static dielectric constant tensor:
#      x y z
#    x 1.556160 0.000000 0.000000 
#    y 0.000000 1.599210 0.000000 
#    z 0.000000 0.000000 1.590400 
# 
# From -- ./inp_files/20312.got.cif
#   From: 2010.05.17/outbox.cif.g08.bks.cpg/sg71_11_cif.got.tgz:20312.got - 2010.06.03 16:22:01.
