data_PCOD9520950
_publ_section_title
;
Structure prediction by ZEFSAII (Michael W. Deem and Ramdas Pophale) SiO2 
 PCOD9520950
Probable space group: I M M M
;
_chemical_formula_sum "Si O2"
_cell_formula_units_Z 104
_cell_length_a 14.056084
_cell_length_b 18.345703
_cell_length_c 24.316493
_cell_angle_alpha 90.000000
_cell_angle_beta 90.000000
_cell_angle_gamma 90.000000
_cell_volume 6270.463470
_symmetry_space_group_name_H-M "I M M M"
_symmetry_group_IT_number 71
_symmetry_cell_setting 'orthorhombic'
loop_
_space_group_symop_operation_xyz
x,y,z
-x,-y,z
x,-y,-z
-x,y,-z
-x,-y,-z
x,y,-z
-x,y,z
x,-y,z
1/2+x,1/2+y,1/2+z
1/2-x,1/2-y,1/2+z
1/2+x,1/2-y,1/2-z
1/2-x,1/2+y,1/2-z
1/2-x,1/2-y,1/2-z
1/2+x,1/2+y,1/2-z
1/2-x,1/2+y,1/2+z
1/2+x,1/2-y,1/2+z
loop_
_atom_site_type_symbol
_atom_site_label
_atom_site_fract_x
_atom_site_fract_y
_atom_site_fract_z
Si Si1 0.383475 0.414977 0.500000
Si Si2 0.889931 0.088622 0.880703
Si Si3 0.884335 0.416292 0.561691
Si Si4 0.224252 0.912554 0.771255
Si Si5 0.114230 0.836552 0.327686
Si Si6 0.387090 0.164494 0.173446
Si Si7 0.115392 0.915347 0.561144
O O1 0.355460 0.500000 0.500000
O O2 0.500000 0.413672 0.500000
O O3 0.353999 0.384604 0.559493
O O4 0.832667 0.109353 0.826730
O O5 0.000000 0.110526 0.874536
O O6 0.888576 0.000000 0.883188
O O7 0.852559 0.395216 0.500000
O O8 0.853341 0.500000 0.572074
O O9 0.859121 0.366405 0.613144
O O10 0.000000 0.417004 0.559958
O O11 0.170184 0.879602 0.719229
O O12 0.327982 0.878918 0.781043
O O13 0.227156 0.000000 0.767943
O O14 0.131643 0.750442 0.323373
O O15 0.144190 0.866091 0.387674
O O16 0.000000 0.848860 0.321827
O O17 0.500000 0.152751 0.179545
O O18 0.147643 0.892394 0.500000
O O19 0.000000 0.913756 0.560140
O O20 0.142672 0.000000 0.569670
#
# Coordination Sequence:
#
# PCOD9520950 Si02
#       7
#     8  16  16  16  16  16  16
#     4   7  10  20  38  58  83 113 143 181 231 280
#     4   8  14  25  42  64  88 114 147 191 241 287
#     4   8  14  27  47  67  88 119 161 205 240 271
#     4  11  21  32  48  70  94 124 163 206 247 290
#     4  10  20  33  50  71  98 129 159 198 245 297
#     4  10  21  35  48  65  94 132 169 202 243 293
#     4   8  14  26  46  72  98 122 149 184 233 293
#
# _framework density 16.585695999999999
#
# number of rings (size 3 to 8) (size 9 to 14) (size 15 to 20)
#    0.000    3.000    0.000    3.692    0.000    3.077 
#    1.385    3.077    0.000    0.000    0.000    0.000 
#    0.000    0.615    0.000    3.231    0.000    0.462 
#
# Total GULP energy -289786.049920 kJ/mol
# GULP energy per Si atom -5572.808652 kJ/mol
# Density = 1.654795 g / cm^3
# Si number density = 16.585696 Si / 1000 Ang^3
#
#
#
# Elastic Constant Matrix: (Units=GPa)
#
#
# Indices 1 2 3 4 5 6 
#
# 1 49.2611 37.4926 43.2738 0.0000 0.0000 0.0000
# 2 37.4926 74.0474 65.7380 0.0000 0.0000 0.0000
# 3 43.2738 65.7380 132.6914 0.0000 0.0000 0.0000
# 4 0.0000 0.0000 0.0000 16.3771 0.0000 0.0000
# 5 0.0000 0.0000 0.0000 0.0000 22.2446 0.0000
# 6 0.0000 0.0000 0.0000 0.0000 0.0000 15.1987
#
#
#
# Elastic Compliance Matrix: (Units=1/GPa)
#
#
# Indices 1 2 3 4 5 6 
#
# 1 0.034560 -0.013376 -0.004644 0.000000 0.000000 0.000000
# 2 -0.013376 0.029285 -0.010146 0.000000 0.000000 0.000000
# 3 -0.004644 -0.010146 0.014078 0.000000 0.000000 0.000000
# 4 0.000000 0.000000 0.000000 0.061061 0.000000 0.000000
# 5 0.000000 0.000000 0.000000 0.000000 0.044955 0.000000
# 6 0.000000 0.000000 0.000000 0.000000 0.000000 0.065795
#
#
# Mechanical properties :
#
#
# Convention : Reuss Voigt Hill
#
# Bulk Modulus (GPa) = 46.31747 61.00098 53.65922
# Shear Modulus (GPa) = 15.96102 18.06377 17.01240
#
# Velocity S-wave (km/s) = 3.10552 3.30376 3.20617
# Velocity P-wave (km/s) = 6.39107 7.17023 6.79183
#
# Compressibility (1/GPa) = 0.02159013
#
# Stress axis : x y z
#
# Youngs Moduli (GPa) = 28.93507 34.14697 71.03515
#
# Poissons Ratio (x) = 0.45675 0.32990
# Poissons Ratio (y) = 0.38703 0.72074
# Poissons Ratio (z) = 0.13438 0.34646
#
# Static dielectric constant tensor:
#      x y z
#    x 1.595470 0.000000 0.000000 
#    y 0.000000 1.529250 0.000000 
#    z 0.000000 0.000000 1.577040 
# 
# From -- ./inp_files/39476.got.cif
#   From: 2010.05.17/outbox.cif.g08.bks.cpg/sg71_20_cif.got.tgz:39476.got - 2010.06.03 16:22:01.
