data_PCOD9520086
_publ_section_title
;
Structure prediction by ZEFSAII (Michael W. Deem and Ramdas Pophale) SiO2 
 PCOD9520086
Probable space group: I M M M
;
_chemical_formula_sum "Si O2"
_cell_formula_units_Z 96
_cell_length_a 27.419812
_cell_length_b 13.967006
_cell_length_c 13.602286
_cell_angle_alpha 90.000000
_cell_angle_beta 90.000000
_cell_angle_gamma 90.000000
_cell_volume 5209.303906
_symmetry_space_group_name_H-M "I M M M"
_symmetry_group_IT_number 71
_symmetry_cell_setting 'orthorhombic'
loop_
_space_group_symop_operation_xyz
x,y,z
-x,-y,z
x,-y,-z
-x,y,-z
-x,-y,-z
x,y,-z
-x,y,z
x,-y,z
1/2+x,1/2+y,1/2+z
1/2-x,1/2-y,1/2+z
1/2+x,1/2-y,1/2-z
1/2-x,1/2+y,1/2-z
1/2-x,1/2-y,1/2-z
1/2+x,1/2+y,1/2-z
1/2-x,1/2+y,1/2+z
1/2+x,1/2-y,1/2+z
loop_
_atom_site_type_symbol
_atom_site_label
_atom_site_fract_x
_atom_site_fract_y
_atom_site_fract_z
Si Si1 0.228935 0.192159 0.110978
Si Si2 0.718915 0.108761 0.298406
Si Si3 0.944185 0.810679 0.500000
Si Si4 0.595419 0.894716 0.000000
Si Si5 0.058423 0.804136 0.717494
Si Si6 0.378852 0.612303 0.610347
Si Si7 0.112041 0.393062 0.717829
O O1 0.257030 0.132223 0.193104
O O2 0.236078 0.305186 0.131746
O O3 0.171560 0.169268 0.123053
O O4 0.243098 0.167429 0.000000
O O5 0.660742 0.116645 0.281480
O O6 0.730330 0.000000 0.329029
O O7 0.941184 0.694481 0.500000
O O8 0.923733 0.836754 0.392234
O O9 0.000000 0.843167 0.500000
O O10 0.625108 0.888017 0.101270
O O11 0.571535 0.000000 0.000000
O O12 0.083591 0.862447 0.804239
O O13 0.075275 0.694144 0.733180
O O14 0.000000 0.811108 0.719168
O O15 0.397898 0.633350 0.500000
O O16 0.367048 0.500000 0.614390
O O17 0.091606 0.500000 0.734754
#
# Coordination Sequence:
#
# PCOD9520086 Si02
#       7
#    16  16   8   8  16  16  16
#     4  10  21  37  57  83 113 148 181 223 278 329
#     4  10  20  34  55  83 112 141 181 222 265 329
#     4   8  16  29  47  72 102 137 171 216 273 326
#     4   8  14  23  40  69 103 136 168 205 250 305
#     4  10  19  34  54  78 110 143 184 233 279 331
#     4  10  21  38  58  79 106 141 187 236 280 326
#     4   9  17  30  49  77 109 141 176 216 264 322
#
# _framework density 18.428564999999999
#
# number of rings (size 3 to 8) (size 9 to 14) (size 15 to 20)
#    0.000    2.500    1.667    0.500    1.167    2.500 
#    0.000    4.583    0.000    2.000    0.000    1.167 
#    0.000    0.000    0.000    0.000    0.000    0.000 
#
# Total GULP energy -267313.666330 kJ/mol
# GULP energy per Si atom -5569.034715 kJ/mol
# Density = 1.838662 g / cm^3
# Si number density = 18.428565 Si / 1000 Ang^3
#
#
#
# Elastic Constant Matrix: (Units=GPa)
#
#
# Indices 1 2 3 4 5 6 
#
# 1 29.8620 3.6609 21.9046 0.0000 0.0000 0.0000
# 2 3.6609 62.6198 19.0611 0.0000 0.0000 0.0000
# 3 21.9046 19.0611 80.2915 0.0000 0.0000 0.0000
# 4 0.0000 0.0000 0.0000 19.2672 0.0000 0.0000
# 5 0.0000 0.0000 0.0000 0.0000 20.9380 0.0000
# 6 0.0000 0.0000 0.0000 0.0000 0.0000 12.8483
#
#
#
# Elastic Compliance Matrix: (Units=1/GPa)
#
#
# Indices 1 2 3 4 5 6 
#
# 1 0.041937 0.001111 -0.011705 0.000000 0.000000 0.000000
# 2 0.001111 0.017243 -0.004397 0.000000 0.000000 0.000000
# 3 -0.011705 -0.004397 0.016692 0.000000 0.000000 0.000000
# 4 0.000000 0.000000 0.000000 0.051902 0.000000 0.000000
# 5 0.000000 0.000000 0.000000 0.000000 0.047760 0.000000
# 6 0.000000 0.000000 0.000000 0.000000 0.000000 0.077832
#
#
# Mechanical properties :
#
#
# Convention : Reuss Voigt Hill
#
# Bulk Modulus (GPa) = 21.79080 29.11407 25.45244
# Shear Modulus (GPa) = 16.74245 19.15379 17.94812
#
# Velocity S-wave (km/s) = 3.01741 3.22740 3.12417
# Velocity P-wave (km/s) = 4.89794 5.45168 5.18221
#
# Compressibility (1/GPa) = 0.04589092
#
# Stress axis : x y z
#
# Youngs Moduli (GPa) = 23.84529 57.99550 59.91045
#
# Poissons Ratio (x) = -0.06444 0.70124
# Poissons Ratio (y) = -0.02649 0.26340
# Poissons Ratio (z) = 0.27910 0.25498
#
# Static dielectric constant tensor:
#      x y z
#    x 1.612120 0.000000 0.000000 
#    y 0.000000 1.644890 0.000000 
#    z 0.000000 0.000000 1.651870 
# 
# From -- ./inp_files/29977.got.cif
#   From: 2010.05.17/outbox.cif.g08.bks.cpg/sg71_15_cif.got.tgz:29977.got - 2010.06.03 16:22:01.
