data_PCOD9520782
_publ_section_title
;
Structure prediction by ZEFSAII (Michael W. Deem and Ramdas Pophale) SiO2 
 PCOD9520782
Probable space group: I M M M
;
_chemical_formula_sum "Si O2"
_cell_formula_units_Z 88
_cell_length_a 19.348683
_cell_length_b 9.028783
_cell_length_c 31.571707
_cell_angle_alpha 90.000000
_cell_angle_beta 90.000000
_cell_angle_gamma 90.000000
_cell_volume 5515.421253
_symmetry_space_group_name_H-M "I M M M"
_symmetry_group_IT_number 71
_symmetry_cell_setting 'orthorhombic'
loop_
_space_group_symop_operation_xyz
x,y,z
-x,-y,z
x,-y,-z
-x,y,-z
-x,-y,-z
x,y,-z
-x,y,z
x,-y,z
1/2+x,1/2+y,1/2+z
1/2-x,1/2-y,1/2+z
1/2+x,1/2-y,1/2-z
1/2-x,1/2+y,1/2-z
1/2-x,1/2-y,1/2-z
1/2+x,1/2+y,1/2-z
1/2-x,1/2+y,1/2+z
1/2+x,1/2-y,1/2+z
loop_
_atom_site_type_symbol
_atom_site_label
_atom_site_fract_x
_atom_site_fract_y
_atom_site_fract_z
Si Si1 0.920117 0.177031 0.500000
Si Si2 0.419505 0.325272 0.754150
Si Si3 0.579762 0.823796 0.662061
Si Si4 0.696118 0.174473 0.953125
Si Si5 0.208354 0.676445 0.711386
Si Si6 0.209361 0.822322 0.875190
O O1 0.876197 0.240481 0.460190
O O2 0.000000 0.223740 0.500000
O O3 0.917158 0.000000 0.500000
O O4 0.500000 0.306991 0.765329
O O5 0.403782 0.500000 0.751730
O O6 0.409449 0.254030 0.707659
O O7 0.367904 0.244862 0.785998
O O8 0.500000 0.795475 0.649545
O O9 0.636301 0.758076 0.630405
O O10 0.588791 0.000000 0.666886
O O11 0.745689 0.225490 0.915705
O O12 0.681771 0.000000 0.946403
O O13 0.729914 0.189199 0.000000
O O14 0.205901 0.500000 0.717283
O O15 0.250000 0.750000 0.750000
O O16 0.246669 0.707620 0.667339
O O17 0.198548 0.000000 0.877841
#
# Coordination Sequence:
#
# PCOD9520782 Si02
#       6
#     8  16  16  16  16  16
#     4   9  17  31  53  81 108 133 164 203 249 300
#     4  10  20  34  50  68  96 136 178 216 254 296
#     4  10  20  32  49  74 101 133 172 210 251 301
#     4   8  17  34  55  77 100 130 167 206 249 298
#     4  11  21  32  49  74 103 135 171 210 255 304
#     4  10  20  34  53  77 102 130 168 211 253 301
#
# _framework density 15.955263
#
# number of rings (size 3 to 8) (size 9 to 14) (size 15 to 20)
#    0.545    1.727    1.818    1.636    0.000    4.364 
#    0.000    0.909    0.000    6.000    0.000    3.818 
#    0.000    0.000    0.000    0.000    0.000    0.000 
#
# Total GULP energy -245133.852852 kJ/mol
# GULP energy per Si atom -5571.223928 kJ/mol
# Density = 1.591895 g / cm^3
# Si number density = 15.955263 Si / 1000 Ang^3
#
#
#
# Elastic Constant Matrix: (Units=GPa)
#
#
# Indices 1 2 3 4 5 6 
#
# 1 128.2022 62.0509 58.5943 0.0000 0.0000 0.0000
# 2 62.0509 60.8506 43.8919 0.0000 0.0000 0.0000
# 3 58.5943 43.8919 74.2441 0.0000 0.0000 0.0000
# 4 0.0000 0.0000 0.0000 17.0686 0.0000 0.0000
# 5 0.0000 0.0000 0.0000 0.0000 26.0337 0.0000
# 6 0.0000 0.0000 0.0000 0.0000 0.0000 32.3443
#
#
#
# Elastic Compliance Matrix: (Units=1/GPa)
#
#
# Indices 1 2 3 4 5 6 
#
# 1 0.016548 -0.012996 -0.005377 0.000000 0.000000 0.000000
# 2 -0.012996 0.038858 -0.012716 0.000000 0.000000 0.000000
# 3 -0.005377 -0.012716 0.025230 0.000000 0.000000 0.000000
# 4 0.000000 0.000000 0.000000 0.058587 0.000000 0.000000
# 5 0.000000 0.000000 0.000000 0.000000 0.038412 0.000000
# 6 0.000000 0.000000 0.000000 0.000000 0.000000 0.030917
#
#
# Mechanical properties :
#
#
# Convention : Reuss Voigt Hill
#
# Bulk Modulus (GPa) = 54.17459 65.81901 59.99680
# Shear Modulus (GPa) = 18.05835 21.67330 19.86582
#
# Velocity S-wave (km/s) = 3.36789 3.68962 3.53242
# Velocity P-wave (km/s) = 7.01080 7.71316 7.37035
#
# Compressibility (1/GPa) = 0.01845884
#
# Stress axis : x y z
#
# Youngs Moduli (GPa) = 60.43149 25.73494 39.63592
#
# Poissons Ratio (x) = 0.33445 0.21311
# Poissons Ratio (y) = 0.78536 0.50399
# Poissons Ratio (z) = 0.32492 0.32723
#
# Static dielectric constant tensor:
#      x y z
#    x 1.549680 0.000000 0.000000 
#    y 0.000000 1.534770 0.000000 
#    z 0.000000 0.000000 1.516400 
# 
# From -- ./inp_files/70647.got.cif
#   From: 2010.05.17/outbox.cif.g08.bks.cpg/sg71_36_cif.got.tgz:70647.got - 2010.06.03 16:22:01.
