data_PCOD9520467
_publ_section_title
;
Structure prediction by ZEFSAII (Michael W. Deem and Ramdas Pophale) SiO2 
 PCOD9520467
Probable space group: I M M M
;
_chemical_formula_sum "Si O2"
_cell_formula_units_Z 88
_cell_length_a 11.635007
_cell_length_b 16.917419
_cell_length_c 22.500378
_cell_angle_alpha 90.000000
_cell_angle_beta 90.000000
_cell_angle_gamma 90.000000
_cell_volume 4428.845894
_symmetry_space_group_name_H-M "I M M M"
_symmetry_group_IT_number 71
_symmetry_cell_setting 'orthorhombic'
loop_
_space_group_symop_operation_xyz
x,y,z
-x,-y,z
x,-y,-z
-x,y,-z
-x,-y,-z
x,y,-z
-x,y,z
x,-y,z
1/2+x,1/2+y,1/2+z
1/2-x,1/2-y,1/2+z
1/2+x,1/2-y,1/2-z
1/2-x,1/2+y,1/2-z
1/2-x,1/2-y,1/2-z
1/2+x,1/2+y,1/2-z
1/2-x,1/2+y,1/2+z
1/2+x,1/2-y,1/2+z
loop_
_atom_site_type_symbol
_atom_site_label
_atom_site_fract_x
_atom_site_fract_y
_atom_site_fract_z
Si Si1 0.867658 0.822081 0.067418
Si Si2 0.130087 0.500000 0.682396
Si Si3 0.500000 0.090397 0.428013
Si Si4 0.368689 0.500000 0.391784
Si Si5 0.794975 0.223632 0.653389
Si Si6 0.760979 0.093936 0.570926
Si Si7 0.878437 0.663500 0.749576
O O1 0.864743 0.917416 0.072823
O O2 0.782011 0.783297 0.114086
O O3 0.000000 0.797555 0.078557
O O4 0.838166 0.798601 0.000000
O O5 0.249310 0.500000 0.645430
O O6 0.133074 0.423214 0.723366
O O7 0.000000 0.500000 0.652823
O O8 0.500000 0.088468 0.500000
O O9 0.371661 0.119714 0.413937
O O10 0.500000 0.000000 0.405800
O O11 0.500000 0.500000 0.363207
O O12 0.836695 0.154103 0.609566
O O13 0.876451 0.278304 0.692914
O O14 0.720515 0.182276 0.704675
O O15 0.777515 0.102598 0.500000
O O16 0.773744 0.000000 0.584189
O O17 0.000000 0.671930 0.781704
#
# Coordination Sequence:
#
# PCOD9520467 Si02
#       7
#    16   8   8   8  16  16  16
#     4  10  20  33  54  84 117 148 181 228 288 348
#     4  10  20  41  61  79 113 158 198 237 284 334
#     4   7  12  24  40  66 106 141 165 199 250 316
#     4  10  19  36  60  88 118 149 189 236 290 348
#     4  11  21  35  56  81 110 143 186 231 280 335
#     4   9  18  31  49  78 113 144 173 213 272 339
#     4  10  23  39  57  80 109 146 191 237 279 331
#
# _framework density 19.869736
#
# number of rings (size 3 to 8) (size 9 to 14) (size 15 to 20)
#    0.000    2.273    1.818    2.455    3.818    1.091 
#    0.000    0.000    0.000    4.909    0.000    1.273 
#    0.000    0.000    0.000    0.000    0.000    0.000 
#
# Total GULP energy -245120.183345 kJ/mol
# GULP energy per Si atom -5570.913258 kJ/mol
# Density = 1.982451 g / cm^3
# Si number density = 19.869736 Si / 1000 Ang^3
#
#
#
# Elastic Constant Matrix: (Units=GPa)
#
#
# Indices 1 2 3 4 5 6 
#
# 1 68.9994 14.0373 24.7172 0.0000 0.0000 0.0000
# 2 14.0373 111.2203 34.7730 0.0000 0.0000 0.0000
# 3 24.7172 34.7730 70.2827 0.0000 0.0000 0.0000
# 4 0.0000 0.0000 0.0000 23.3362 0.0000 0.0000
# 5 0.0000 0.0000 0.0000 0.0000 22.0197 0.0000
# 6 0.0000 0.0000 0.0000 0.0000 0.0000 51.5069
#
#
#
# Elastic Compliance Matrix: (Units=1/GPa)
#
#
# Indices 1 2 3 4 5 6 
#
# 1 0.016591 -0.000319 -0.005677 0.000000 0.000000 0.000000
# 2 -0.000319 0.010643 -0.005153 0.000000 0.000000 0.000000
# 3 -0.005677 -0.005153 0.018774 0.000000 0.000000 0.000000
# 4 0.000000 0.000000 0.000000 0.042852 0.000000 0.000000
# 5 0.000000 0.000000 0.000000 0.000000 0.045414 0.000000
# 6 0.000000 0.000000 0.000000 0.000000 0.000000 0.019415
#
#
# Mechanical properties :
#
#
# Convention : Reuss Voigt Hill
#
# Bulk Modulus (GPa) = 42.17707 44.17305 43.17506
# Shear Modulus (GPa) = 27.18995 31.17087 29.18041
#
# Velocity S-wave (km/s) = 3.70322 3.96506 3.83637
# Velocity P-wave (km/s) = 6.28951 6.57585 6.43427
#
# Compressibility (1/GPa) = 0.02370957
#
# Stress axis : x y z
#
# Youngs Moduli (GPa) = 60.27196 93.96182 53.26395
#
# Poissons Ratio (x) = 0.02998 0.30238
# Poissons Ratio (y) = 0.01923 0.27449
# Poissons Ratio (z) = 0.34217 0.48421
#
# Static dielectric constant tensor:
#      x y z
#    x 1.726810 0.000000 0.000000 
#    y 0.000000 1.722910 0.000000 
#    z 0.000000 0.000000 1.676090 
# 
# From -- ./inp_files/51833.got.cif
#   From: 2010.05.17/outbox.cif.g08.bks.cpg/sg71_26_cif.got.tgz:51833.got - 2010.06.03 16:22:01.
