data_PCOD9520135
_publ_section_title
;
Structure prediction by ZEFSAII (Michael W. Deem and Ramdas Pophale) SiO2 
 PCOD9520135
Probable space group: I M M M
;
_chemical_formula_sum "Si O2"
_cell_formula_units_Z 88
_cell_length_a 19.048707
_cell_length_b 29.305770
_cell_length_c 7.925739
_cell_angle_alpha 90.000000
_cell_angle_beta 90.000000
_cell_angle_gamma 90.000000
_cell_volume 4424.440969
_symmetry_space_group_name_H-M "I M M M"
_symmetry_group_IT_number 71
_symmetry_cell_setting 'orthorhombic'
loop_
_space_group_symop_operation_xyz
x,y,z
-x,-y,z
x,-y,-z
-x,y,-z
-x,-y,-z
x,y,-z
-x,y,z
x,-y,z
1/2+x,1/2+y,1/2+z
1/2-x,1/2-y,1/2+z
1/2+x,1/2-y,1/2-z
1/2-x,1/2+y,1/2-z
1/2-x,1/2-y,1/2-z
1/2+x,1/2+y,1/2-z
1/2-x,1/2+y,1/2+z
1/2+x,1/2-y,1/2+z
loop_
_atom_site_type_symbol
_atom_site_label
_atom_site_fract_x
_atom_site_fract_y
_atom_site_fract_z
Si Si1 0.500000 0.947169 0.206420
Si Si2 0.577976 0.552420 0.796632
Si Si3 0.814380 0.782330 0.799498
Si Si4 0.708262 0.615201 0.702998
Si Si5 0.920908 0.708012 0.297333
Si Si6 0.864043 0.389320 0.706253
O O1 0.429179 0.920829 0.261249
O O2 0.500000 0.000000 0.258366
O O3 0.500000 0.946219 0.000000
O O4 0.500000 0.568027 0.739486
O O5 0.587218 0.500000 0.739550
O O6 0.642868 0.583274 0.743950
O O7 0.576707 0.551995 0.000000
O O8 0.750000 0.750000 0.750000
O O9 0.805544 0.833454 0.730972
O O10 0.883282 0.754990 0.746111
O O11 0.814443 0.785945 0.000000
O O12 0.712969 0.617760 0.500000
O O13 0.785191 0.598225 0.761778
O O14 0.923217 0.704877 0.500000
O O15 0.879025 0.662970 0.240580
O O16 0.000000 0.705909 0.231973
O O17 0.865100 0.390529 0.500000
#
# Coordination Sequence:
#
# PCOD9520135 Si02
#       6
#     8  16  16  16  16  16
#     4   9  16  26  46  76 107 141 181 227 272 313
#     4   9  20  40  62  82 108 143 182 225 275 336
#     4  11  22  36  54  79 112 146 185 232 278 326
#     4  10  21  35  55  83 114 144 179 228 280 329
#     4  10  19  34  56  77 105 149 191 225 270 329
#     4   9  16  30  49  73 107 144 182 223 267 319
#
# _framework density 19.889517999999999
#
# number of rings (size 3 to 8) (size 9 to 14) (size 15 to 20)
#    0.000    2.273    2.727    1.091    0.000    4.000 
#    0.000    6.364    0.000    0.000    0.000    0.000 
#    0.000    2.909    0.000    0.000    0.000    0.000 
#
# Total GULP energy -245484.969075 kJ/mol
# GULP energy per Si atom -5579.203843 kJ/mol
# Density = 1.984425 g / cm^3
# Si number density = 19.889518 Si / 1000 Ang^3
#
#
#
# Elastic Constant Matrix: (Units=GPa)
#
#
# Indices 1 2 3 4 5 6 
#
# 1 210.9586 102.9259 9.5852 0.0000 0.0000 0.0000
# 2 102.9259 126.5706 5.2049 0.0000 0.0000 0.0000
# 3 9.5852 5.2049 11.8905 -0.0001 -0.0002 0.0000
# 4 0.0000 0.0000 -0.0001 19.5050 0.0000 0.0000
# 5 0.0000 0.0000 -0.0002 0.0000 20.7378 0.0000
# 6 0.0000 0.0000 0.0000 0.0000 0.0000 38.1480
#
#
#
# Elastic Compliance Matrix: (Units=1/GPa)
#
#
# Indices 1 2 3 4 5 6 
#
# 1 0.008012 -0.006365 -0.003673 0.000000 0.000000 0.000000
# 2 -0.006365 0.013101 -0.000604 0.000000 0.000000 0.000000
# 3 -0.003673 -0.000604 0.087326 0.000000 0.000001 0.000000
# 4 0.000000 0.000000 0.000000 0.051269 0.000000 0.000000
# 5 0.000000 0.000000 0.000001 0.000000 0.048221 0.000000
# 6 0.000000 0.000000 0.000000 0.000000 0.000000 0.026214
#
#
# Mechanical properties :
#
#
# Convention : Reuss Voigt Hill
#
# Bulk Modulus (GPa) = 11.47366 64.98352 38.22859
# Shear Modulus (GPa) = 17.57599 31.12507 24.35053
#
# Velocity S-wave (km/s) = 2.97590 3.96017 3.50278
# Velocity P-wave (km/s) = 4.19395 7.32487 5.96837
#
# Compressibility (1/GPa) = 0.08715612
#
# Stress axis : x y z
#
# Youngs Moduli (GPa) = 124.80664 76.32906 11.45133
#
# Poissons Ratio (x) = 0.48580 0.04206
# Poissons Ratio (y) = 0.79434 0.00692
# Poissons Ratio (z) = 0.45841 0.04613
#
# Static dielectric constant tensor:
#      x y z
#    x 1.708320 0.000000 0.000000 
#    y 0.000000 1.683710 0.000000 
#    z 0.000000 0.000000 1.735730 
# 
# From -- ./inp_files/8834.got.cif
#   From: 2010.05.17/outbox.cif.g08.bks.cpg/sg71_5_cif.got.tgz:8834.got - 2010.06.03 16:22:01.
