data_PCOD9520338
_publ_section_title
;
Structure prediction by ZEFSAII (Michael W. Deem and Ramdas Pophale) SiO2 
 PCOD9520338
Probable space group: I M M M
;
_chemical_formula_sum "Si O2"
_cell_formula_units_Z 92
_cell_length_a 7.574254
_cell_length_b 20.346726
_cell_length_c 27.685054
_cell_angle_alpha 90.000000
_cell_angle_beta 90.000000
_cell_angle_gamma 90.000000
_cell_volume 4266.578854
_symmetry_space_group_name_H-M "I M M M"
_symmetry_group_IT_number 71
_symmetry_cell_setting 'orthorhombic'
loop_
_space_group_symop_operation_xyz
x,y,z
-x,-y,z
x,-y,-z
-x,y,-z
-x,-y,-z
x,y,-z
-x,y,z
x,-y,z
1/2+x,1/2+y,1/2+z
1/2-x,1/2-y,1/2+z
1/2+x,1/2-y,1/2-z
1/2-x,1/2+y,1/2-z
1/2-x,1/2-y,1/2-z
1/2+x,1/2+y,1/2-z
1/2-x,1/2+y,1/2+z
1/2+x,1/2-y,1/2+z
loop_
_atom_site_type_symbol
_atom_site_label
_atom_site_fract_x
_atom_site_fract_y
_atom_site_fract_z
Si Si1 0.291633 0.691944 0.287769
Si Si2 0.710380 0.925767 0.720471
Si Si3 0.500000 0.500000 0.591713
Si Si4 0.203135 0.403311 0.443635
Si Si5 0.285398 0.272333 0.605445
Si Si6 0.284245 0.000000 0.555092
Si Si7 0.215884 0.374773 0.883133
O O1 0.500000 0.691843 0.292955
O O2 0.250000 0.750000 0.250000
O O3 0.240226 0.622302 0.265169
O O4 0.220977 0.706259 0.341085
O O5 0.500000 0.931192 0.714560
O O6 0.775898 0.890744 0.671495
O O7 0.780375 0.000000 0.725767
O O8 0.344364 0.557071 0.587733
O O9 0.245429 0.416774 0.500000
O O10 0.220923 0.326148 0.432243
O O11 0.000000 0.422396 0.434984
O O12 0.500000 0.273176 0.604322
O O13 0.228754 0.196906 0.599063
O O14 0.228121 0.934784 0.583262
O O15 0.500000 0.000000 0.555581
O O16 0.226391 0.000000 0.500000
O O17 0.000000 0.374101 0.882392
#
# Coordination Sequence:
#
# PCOD9520338 Si02
#       7
#    16  16   4  16  16   8  16
#     4  11  22  37  59  86 119 158 205 254 307 372
#     4  10  19  35  58  81 113 157 201 249 305 364
#     4  12  23  46  76  96 128 166 204 264 324 380
#     4  11  24  42  68  99 128 168 217 258 315 392
#     4  10  21  38  59  86 124 169 212 261 323 380
#     4   9  16  26  46  83 120 151 201 265 314 360
#     4   9  16  30  53  79 114 161 209 253 307 376
#
# _framework density 21.562944999999999
#
# number of rings (size 3 to 8) (size 9 to 14) (size 15 to 20)
#    0.000    1.826    3.478    1.565    0.000    3.130 
#    1.565    1.739    0.000    0.000    0.000    0.000 
#    0.000    2.783    0.000    0.000    0.000    0.000 
#
# Total GULP energy -256519.818267 kJ/mol
# GULP energy per Si atom -5576.517788 kJ/mol
# Density = 2.151387 g / cm^3
# Si number density = 21.562945 Si / 1000 Ang^3
#
#
#
# Elastic Constant Matrix: (Units=GPa)
#
#
# Indices 1 2 3 4 5 6 
#
# 1 70.6280 14.9525 -0.0820 0.0000 0.0000 0.0000
# 2 14.9525 181.2875 25.1584 0.0000 0.0000 0.0000
# 3 -0.0820 25.1584 48.6940 0.0000 0.0000 0.0000
# 4 0.0000 0.0000 0.0000 91.9947 0.0000 0.0000
# 5 0.0000 0.0000 0.0000 0.0000 11.8794 0.0000
# 6 0.0000 0.0000 0.0000 0.0000 0.0000 6.2074
#
#
#
# Elastic Compliance Matrix: (Units=1/GPa)
#
#
# Indices 1 2 3 4 5 6 
#
# 1 0.014432 -0.001286 0.000689 0.000000 0.000000 0.000000
# 2 -0.001286 0.006057 -0.003131 0.000000 0.000000 0.000000
# 3 0.000689 -0.003131 0.022155 0.000000 0.000000 0.000000
# 4 0.000000 0.000000 0.000000 0.010870 0.000000 0.000000
# 5 0.000000 0.000000 0.000000 0.000000 0.084179 0.000000
# 6 0.000000 0.000000 0.000000 0.000000 0.000000 0.161097
#
#
# Mechanical properties :
#
#
# Convention : Reuss Voigt Hill
#
# Bulk Modulus (GPa) = 28.41991 42.29637 35.35814
# Shear Modulus (GPa) = 15.72441 39.38835 27.55638
#
# Velocity S-wave (km/s) = 2.70336 4.27859 3.57872
# Velocity P-wave (km/s) = 4.79091 6.63825 5.78875
#
# Compressibility (1/GPa) = 0.03518660
#
# Stress axis : x y z
#
# Youngs Moduli (GPa) = 69.29179 165.10553 45.13553
#
# Poissons Ratio (x) = 0.21231 -0.03108
# Poissons Ratio (y) = 0.08910 0.14134
# Poissons Ratio (z) = -0.04772 0.51702
#
# Static dielectric constant tensor:
#      x y z
#    x 1.808390 0.000000 0.000000 
#    y 0.000000 1.768840 0.000000 
#    z 0.000000 0.000000 1.782020 
# 
# From -- ./inp_files/63239.got.cif
#   From: 2010.05.17/outbox.cif.g08.bks.cpg/sg71_32_cif.got.tgz:63239.got - 2010.06.03 16:22:01.
