data_PCOD9520505
_publ_section_title
;
Structure prediction by ZEFSAII (Michael W. Deem and Ramdas Pophale) SiO2 
 PCOD9520505
Probable space group: I M M M
;
_chemical_formula_sum "Si O2"
_cell_formula_units_Z 112
_cell_length_a 27.857733
_cell_length_b 14.308499
_cell_length_c 14.545345
_cell_angle_alpha 90.000000
_cell_angle_beta 90.000000
_cell_angle_gamma 90.000000
_cell_volume 5797.808623
_symmetry_space_group_name_H-M "I M M M"
_symmetry_group_IT_number 71
_symmetry_cell_setting 'orthorhombic'
loop_
_space_group_symop_operation_xyz
x,y,z
-x,-y,z
x,-y,-z
-x,y,-z
-x,-y,-z
x,y,-z
-x,y,z
x,-y,z
1/2+x,1/2+y,1/2+z
1/2-x,1/2-y,1/2+z
1/2+x,1/2-y,1/2-z
1/2-x,1/2+y,1/2-z
1/2-x,1/2-y,1/2-z
1/2+x,1/2+y,1/2-z
1/2-x,1/2+y,1/2+z
1/2+x,1/2-y,1/2+z
loop_
_atom_site_type_symbol
_atom_site_label
_atom_site_fract_x
_atom_site_fract_y
_atom_site_fract_z
Si Si1 0.500000 0.304108 0.399538
Si Si2 0.753829 0.252479 0.393457
Si Si3 0.703676 0.887323 0.742354
Si Si4 0.403810 0.104807 0.778332
Si Si5 0.500000 0.101880 0.345307
Si Si6 0.578821 0.607432 0.272495
Si Si7 0.833376 0.105273 0.100386
Si Si8 0.557264 0.268517 0.893673
O O1 0.500000 0.347916 0.500000
O O2 0.500000 0.193124 0.405684
O O3 0.454721 0.334437 0.340036
O O4 0.769296 0.235172 0.500000
O O5 0.737660 0.160022 0.335967
O O6 0.787627 0.320639 0.331926
O O7 0.706088 0.315775 0.398156
O O8 0.646203 0.878190 0.724465
O O9 0.713244 0.000000 0.753552
O O10 0.451447 0.107679 0.715532
O O11 0.413334 0.180152 0.856744
O O12 0.400097 0.000000 0.816955
O O13 0.500000 0.000000 0.390073
O O14 0.564275 0.500000 0.277016
O O15 0.631596 0.616213 0.314215
O O16 0.572672 0.646715 0.171209
O O17 0.812474 0.000000 0.105094
O O18 0.858860 0.110525 0.000000
O O19 0.500000 0.252061 0.880543
O O20 0.565834 0.286387 0.000000
#
# Coordination Sequence:
#
# PCOD9520505 Si02
#       8
#     8  16  16  16   8  16  16  16
#     4  12  23  35  56  83 113 147 190 242 295 350
#     4  10  21  38  61  86 118 156 195 240 295 356
#     4  10  22  38  60  91 122 154 195 246 300 352
#     4  10  19  37  63  87 118 154 193 241 292 347
#     4  10  20  38  61  84 117 159 193 229 287 355
#     4  11  21  36  54  77 111 148 190 244 296 340
#     4   9  18  33  56  83 109 143 187 233 287 354
#     4  11  22  36  54  77 107 149 198 239 286 343
#
# _framework density 19.317644000000001
#
# number of rings (size 3 to 8) (size 9 to 14) (size 15 to 20)
#    0.000    1.714    2.857    1.929    0.000    3.571 
#    0.000    2.857    0.000    2.571    0.000    4.000 
#    0.000    0.000    0.000    0.000    0.000    0.000 
#
# Total GULP energy -312167.358452 kJ/mol
# GULP energy per Si atom -5574.417115 kJ/mol
# Density = 1.927368 g / cm^3
# Si number density = 19.317644 Si / 1000 Ang^3
#
#
#
# Elastic Constant Matrix: (Units=GPa)
#
#
# Indices 1 2 3 4 5 6 
#
# 1 57.8830 27.7446 17.9969 0.0000 0.0000 0.0000
# 2 27.7446 110.5033 38.3793 0.0000 0.0000 0.0000
# 3 17.9969 38.3793 95.4609 0.0000 0.0000 0.0000
# 4 0.0000 0.0000 0.0000 -22.7455 0.0000 0.0000
# 5 0.0000 0.0000 0.0000 0.0000 -2.2738 0.0000
# 6 0.0000 0.0000 0.0000 0.0000 0.0000 21.9058
#
#
#
# Elastic Compliance Matrix: (Units=1/GPa)
#
#
# Indices 1 2 3 4 5 6 
#
# 1 0.019974 -0.004309 -0.002033 0.000000 0.000000 0.000000
# 2 -0.004309 0.011448 -0.003790 0.000000 0.000000 0.000000
# 3 -0.002033 -0.003790 0.012383 0.000000 0.000000 0.000000
# 4 0.000000 0.000000 0.000000 -0.043965 0.000000 0.000000
# 5 0.000000 0.000000 0.000000 0.000000 -0.439797 0.000000
# 6 0.000000 0.000000 0.000000 0.000000 0.000000 0.045650
#
#
# Mechanical properties :
#
#
# Convention : Reuss Voigt Hill
#
# Bulk Modulus (GPa) = 42.48143 48.00989 45.24566
# Shear Modulus (GPa) = -13.65385 11.35906 -1.14739
#
# Velocity S-wave (km/s) = -2.66147 2.42753 -0.77152
# Velocity P-wave (km/s) = 3.54883 5.72399 4.76226
#
# Compressibility (1/GPa) = 0.02353970
#
# Stress axis : x y z
#
# Youngs Moduli (GPa) = 50.06591 87.35389 80.75835
#
# Poissons Ratio (x) = 0.37638 0.16420
# Poissons Ratio (y) = 0.21572 0.30609
# Poissons Ratio (z) = 0.10180 0.33108
#
# Static dielectric constant tensor:
#      x y z
#    x 1.700140 0.000000 0.000000 
#    y 0.000000 1.680520 0.000000 
#    z 0.000000 0.000000 1.691780 
# 
# From -- ./inp_files/40405.got.cif
#   From: 2010.05.17/outbox.cif.g08.bks.cpg/sg71_21_cif.got.tgz:40405.got - 2010.06.03 16:22:01.
