data_PCOD9520500
_publ_section_title
;
Structure prediction by ZEFSAII (Michael W. Deem and Ramdas Pophale) SiO2 
 PCOD9520500
Probable space group: I M M M
;
_chemical_formula_sum "Si O2"
_cell_formula_units_Z 72
_cell_length_a 29.410154
_cell_length_b 8.354213
_cell_length_c 14.625459
_cell_angle_alpha 90.000000
_cell_angle_beta 90.000000
_cell_angle_gamma 90.000000
_cell_volume 3593.456130
_symmetry_space_group_name_H-M "I M M M"
_symmetry_group_IT_number 71
_symmetry_cell_setting 'orthorhombic'
loop_
_space_group_symop_operation_xyz
x,y,z
-x,-y,z
x,-y,-z
-x,y,-z
-x,-y,-z
x,y,-z
-x,y,z
x,-y,z
1/2+x,1/2+y,1/2+z
1/2-x,1/2-y,1/2+z
1/2+x,1/2-y,1/2-z
1/2-x,1/2+y,1/2-z
1/2-x,1/2-y,1/2-z
1/2+x,1/2+y,1/2-z
1/2-x,1/2+y,1/2+z
1/2+x,1/2-y,1/2+z
loop_
_atom_site_type_symbol
_atom_site_label
_atom_site_fract_x
_atom_site_fract_y
_atom_site_fract_z
Si Si1 0.000000 0.806050 0.106295
Si Si2 0.325096 0.324642 0.197269
Si Si3 0.866597 0.167092 0.500000
Si Si4 0.400647 0.311557 0.342048
Si Si5 0.293036 0.000000 0.159400
Si Si6 0.660041 0.820068 0.500000
Si Si7 0.369349 0.000000 0.000000
Si Si8 0.779327 0.000000 0.000000
O O1 0.046978 0.759573 0.154927
O O2 0.000000 0.000000 0.104657
O O3 0.000000 0.752545 0.000000
O O4 0.306643 0.500000 0.225733
O O5 0.373780 0.305593 0.246991
O O6 0.296673 0.164667 0.215503
O O7 0.334664 0.331568 0.089126
O O8 0.894421 0.331159 0.500000
O O9 0.892831 0.000000 0.500000
O O10 0.398864 0.500000 0.372092
O O11 0.371985 0.206354 0.412389
O O12 0.251275 0.000000 0.090428
O O13 0.337011 0.000000 0.090110
O O14 0.693247 0.666777 0.500000
O O15 0.679893 0.000000 0.500000
#
# Coordination Sequence:
#
# PCOD9520500 Si02
#       8
#     8  16   8  16   8   8   4   4
#     4   9  16  30  60  91 115 160 205 242 291 364
#     4   9  18  31  57  86 115 151 195 244 294 356
#     4   8  13  25  43  75 105 135 183 226 272 333
#     4  10  19  37  61  88 123 159 199 247 302 361
#     4   9  18  34  58  78 108 145 195 243 291 349
#     4  12  25  40  62  83 117 163 197 250 317 356
#     4   7  12  24  44  72  92 125 170 227 270 312
#     4  11  24  44  62  87 116 157 206 264 302 354
#
# _framework density 20.036422999999999
#
# number of rings (size 3 to 8) (size 9 to 14) (size 15 to 20)
#    0.000    2.556    2.222    0.667    1.556    0.889 
#    0.000    3.333    0.000    0.667    0.000    4.667 
#    0.000    8.000    0.000    0.333    0.000    0.000 
#
# Total GULP energy -200550.471268 kJ/mol
# GULP energy per Si atom -5570.846424 kJ/mol
# Density = 1.999082 g / cm^3
# Si number density = 20.036423 Si / 1000 Ang^3
#
#
#
# Elastic Constant Matrix: (Units=GPa)
#
#
# Indices 1 2 3 4 5 6 
#
# 1 94.7168 60.5794 23.2838 0.0000 0.0000 0.0000
# 2 60.5794 192.5100 11.2418 0.0000 0.0000 0.0000
# 3 23.2838 11.2418 47.3305 0.0000 0.0000 0.0000
# 4 0.0000 0.0000 0.0000 5.2153 0.0000 0.0000
# 5 0.0000 0.0000 0.0000 0.0000 -4.8768 0.0000
# 6 0.0000 0.0000 0.0000 0.0000 0.0000 5.9175
#
#
#
# Elastic Compliance Matrix: (Units=1/GPa)
#
#
# Indices 1 2 3 4 5 6 
#
# 1 0.014859 -0.004309 -0.006286 0.000000 0.000000 0.000000
# 2 -0.004309 0.006517 0.000572 0.000000 0.000000 0.000000
# 3 -0.006286 0.000572 0.024085 0.000000 0.000000 0.000000
# 4 0.000000 0.000000 0.000000 0.191742 0.000000 0.000000
# 5 0.000000 0.000000 0.000000 0.000000 -0.205054 0.000000
# 6 0.000000 0.000000 0.000000 0.000000 0.000000 0.168991
#
#
# Mechanical properties :
#
#
# Convention : Reuss Voigt Hill
#
# Bulk Modulus (GPa) = 39.34833 58.30749 48.82791
# Shear Modulus (GPa) = 21.77149 17.21469 19.49309
#
# Velocity S-wave (km/s) = 3.29993 2.93434 3.12249
# Velocity P-wave (km/s) = 5.84811 6.37530 6.11739
#
# Compressibility (1/GPa) = 0.02541404
#
# Stress axis : x y z
#
# Youngs Moduli (GPa) = 67.29959 153.44404 41.52011
#
# Poissons Ratio (x) = 0.66115 0.26101
# Poissons Ratio (y) = 0.28998 -0.02374
# Poissons Ratio (z) = 0.42307 -0.08773
#
# Static dielectric constant tensor:
#      x y z
#    x 1.669280 0.000000 0.000000 
#    y 0.000000 1.846760 0.000000 
#    z 0.000000 0.000000 1.710390 
# 
# From -- ./inp_files/40042.got.cif
#   From: 2010.05.17/outbox.cif.g08.bks.cpg/sg71_21_cif.got.tgz:40042.got - 2010.06.03 16:22:01.
