data_PCOD9520684
_publ_section_title
;
Structure prediction by ZEFSAII (Michael W. Deem and Ramdas Pophale) SiO2 
 PCOD9520684
Probable space group: I M M M
;
_chemical_formula_sum "Si O2"
_cell_formula_units_Z 96
_cell_length_a 13.804585
_cell_length_b 15.674166
_cell_length_c 24.243637
_cell_angle_alpha 90.000000
_cell_angle_beta 90.000000
_cell_angle_gamma 90.000000
_cell_volume 5245.725607
_symmetry_space_group_name_H-M "I M M M"
_symmetry_group_IT_number 71
_symmetry_cell_setting 'orthorhombic'
loop_
_space_group_symop_operation_xyz
x,y,z
-x,-y,z
x,-y,-z
-x,y,-z
-x,-y,-z
x,y,-z
-x,y,z
x,-y,z
1/2+x,1/2+y,1/2+z
1/2-x,1/2-y,1/2+z
1/2+x,1/2-y,1/2-z
1/2-x,1/2+y,1/2-z
1/2-x,1/2-y,1/2-z
1/2+x,1/2+y,1/2-z
1/2-x,1/2+y,1/2+z
1/2+x,1/2-y,1/2+z
loop_
_atom_site_type_symbol
_atom_site_label
_atom_site_fract_x
_atom_site_fract_y
_atom_site_fract_z
Si Si1 0.610302 0.878906 0.500000
Si Si2 0.610659 0.898110 0.827755
Si Si3 0.117994 0.595336 0.876202
Si Si4 0.116587 0.716860 0.221015
Si Si5 0.293231 0.597449 0.396096
Si Si6 0.108772 0.177216 0.000000
Si Si7 0.114304 0.906118 0.778754
O O1 0.500000 0.912323 0.500000
O O2 0.653199 0.901459 0.560109
O O3 0.603224 0.777929 0.500000
O O4 0.500000 0.881848 0.845079
O O5 0.628464 0.848809 0.771029
O O6 0.690849 0.871788 0.871983
O O7 0.621469 0.000000 0.819146
O O8 0.139478 0.500000 0.853991
O O9 0.152506 0.670901 0.835320
O O10 0.000000 0.602731 0.878374
O O11 0.152565 0.811882 0.237906
O O12 0.000000 0.727204 0.213099
O O13 0.280430 0.500000 0.414732
O O14 0.335735 0.649620 0.445666
O O15 0.366421 0.596800 0.344381
O O16 0.000000 0.140489 0.000000
O O17 0.000000 0.908201 0.766428
O O18 0.154288 0.000000 0.760334
#
# Coordination Sequence:
#
# PCOD9520684 Si02
#       7
#     8  16  16  16  16   8  16
#     4   9  17  27  39  58  89 125 155 190 236 277
#     4   9  18  33  50  68  92 120 154 200 245 285
#     4   9  15  23  38  62  91 123 161 199 231 271
#     4   9  16  27  45  67  91 125 165 198 236 284
#     4  10  20  32  47  68  92 121 157 194 239 287
#     4  11  21  33  50  71  95 123 157 192 225 277
#     4   9  17  29  44  65  96 129 160 196 233 274
#
# _framework density 18.300612999999998
#
# number of rings (size 3 to 8) (size 9 to 14) (size 15 to 20)
#    0.000    2.667    0.000    2.500    0.000    7.667 
#    0.000    0.417    0.000    2.000    0.000    1.167 
#    0.000    0.000    0.000    0.000    0.000   25.667 
#
# Total GULP energy -267313.674250 kJ/mol
# GULP energy per Si atom -5569.034880 kJ/mol
# Density = 1.825896 g / cm^3
# Si number density = 18.300613 Si / 1000 Ang^3
#
#
#
# Elastic Constant Matrix: (Units=GPa)
#
#
# Indices 1 2 3 4 5 6 
#
# 1 45.6379 17.3462 20.1759 0.0000 0.0000 0.0000
# 2 17.3462 106.4605 48.8187 0.0000 0.0000 0.0000
# 3 20.1759 48.8187 66.9510 0.0000 0.0000 0.0000
# 4 0.0000 0.0000 0.0000 -38.7770 0.0000 0.0000
# 5 0.0000 0.0000 0.0000 0.0000 14.3979 0.0000
# 6 0.0000 0.0000 0.0000 0.0000 0.0000 8.3368
#
#
#
# Elastic Compliance Matrix: (Units=1/GPa)
#
#
# Indices 1 2 3 4 5 6 
#
# 1 0.025342 -0.000942 -0.006950 0.000000 0.000000 0.000000
# 2 -0.000942 0.014147 -0.010031 0.000000 0.000000 0.000000
# 3 -0.006950 -0.010031 0.024345 0.000000 0.000000 0.000000
# 4 0.000000 0.000000 0.000000 -0.025789 0.000000 0.000000
# 5 0.000000 0.000000 0.000000 0.000000 0.069455 0.000000
# 6 0.000000 0.000000 0.000000 0.000000 0.000000 0.119950
#
#
# Mechanical properties :
#
#
# Convention : Reuss Voigt Hill
#
# Bulk Modulus (GPa) = 35.73074 43.52567 39.62821
# Shear Modulus (GPa) = 18.34009 5.63878 11.98943
#
# Velocity S-wave (km/s) = 3.16912 1.75724 2.56234
# Velocity P-wave (km/s) = 5.74089 5.28702 5.51862
#
# Compressibility (1/GPa) = 0.02798710
#
# Stress axis : x y z
#
# Youngs Moduli (GPa) = 39.45984 70.68799 41.07570
#
# Poissons Ratio (x) = 0.06660 0.28547
# Poissons Ratio (y) = 0.03718 0.41205
# Poissons Ratio (z) = 0.27424 0.70910
#
# Static dielectric constant tensor:
#      x y z
#    x 1.639440 0.000000 0.000000 
#    y 0.000000 1.695940 0.000000 
#    z 0.000000 0.000000 1.616360 
# 
# From -- ./inp_files/59858.got.cif
#   From: 2010.05.17/outbox.cif.g08.bks.cpg/sg71_30_cif.got.tgz:59858.got - 2010.06.03 16:22:01.
