data_PCOD9520812
_publ_section_title
;
Structure prediction by ZEFSAII (Michael W. Deem and Ramdas Pophale) SiO2 
 PCOD9520812
Probable space group: I M M M
;
_chemical_formula_sum "Si O2"
_cell_formula_units_Z 88
_cell_length_a 7.449501
_cell_length_b 37.435948
_cell_length_c 14.129475
_cell_angle_alpha 90.000000
_cell_angle_beta 90.000000
_cell_angle_gamma 90.000000
_cell_volume 3940.415724
_symmetry_space_group_name_H-M "I M M M"
_symmetry_group_IT_number 71
_symmetry_cell_setting 'orthorhombic'
loop_
_space_group_symop_operation_xyz
x,y,z
-x,-y,z
x,-y,-z
-x,y,-z
-x,-y,-z
x,y,-z
-x,y,z
x,-y,z
1/2+x,1/2+y,1/2+z
1/2-x,1/2-y,1/2+z
1/2+x,1/2-y,1/2-z
1/2-x,1/2+y,1/2-z
1/2-x,1/2-y,1/2-z
1/2+x,1/2+y,1/2-z
1/2-x,1/2+y,1/2+z
1/2+x,1/2-y,1/2+z
loop_
_atom_site_type_symbol
_atom_site_label
_atom_site_fract_x
_atom_site_fract_y
_atom_site_fract_z
Si Si1 0.781856 0.655492 0.219393
Si Si2 0.708039 0.574322 0.803545
Si Si3 0.287648 0.195438 0.105011
Si Si4 0.217865 0.042187 0.894469
Si Si5 0.784126 0.725668 0.891523
Si Si6 0.717905 0.458140 0.000000
O O1 0.717009 0.616987 0.188970
O O2 0.719280 0.665368 0.324925
O O3 0.721993 0.689618 0.158308
O O4 0.000000 0.654667 0.216597
O O5 0.500000 0.562562 0.801355
O O6 0.782904 0.562029 0.700924
O O7 0.785362 0.558386 0.900941
O O8 0.500000 0.189812 0.097621
O O9 0.266534 0.235293 0.147078
O O10 0.208781 0.194937 0.000000
O O11 0.000000 0.045223 0.896185
O O12 0.260294 0.000000 0.885934
O O13 0.279485 0.054280 0.000000
O O14 0.000000 0.724647 0.890798
O O15 0.720687 0.725509 0.000000
O O16 0.754907 0.500000 0.000000
O O17 0.500000 0.453040 0.000000
#
# Coordination Sequence:
#
# PCOD9520812 Si02
#       6
#    16  16  16  16  16   8
#     4  10  21  34  48  69 101 136 162 196 248 301
#     4  10  20  32  50  77 102 128 166 206 246 293
#     4   9  18  33  51  71  95 127 167 206 247 295
#     4   8  14  27  49  75 100 125 157 200 246 290
#     4   9  18  32  50  70  92 124 167 209 248 291
#     4   9  18  34  55  77 103 133 167 211 257 299
#
# _framework density 22.332668000000002
#
# number of rings (size 3 to 8) (size 9 to 14) (size 15 to 20)
#    0.000    2.818    0.000    1.636    1.273    4.364 
#    0.000    0.000    0.000    2.727    0.000    1.273 
#    0.000    0.000    0.000    0.000    0.000    0.000 
#
# Total GULP energy -245489.268173 kJ/mol
# GULP energy per Si atom -5579.301549 kJ/mol
# Density = 2.228184 g / cm^3
# Si number density = 22.332668 Si / 1000 Ang^3
#
#
#
# Elastic Constant Matrix: (Units=GPa)
#
#
# Indices 1 2 3 4 5 6 
#
# 1 67.0209 -8.9978 6.4136 0.0000 0.0000 0.0000
# 2 -8.9978 99.7698 77.7966 -0.0001 0.0000 0.0001
# 3 6.4136 77.7966 163.9153 -0.0001 0.0000 0.0001
# 4 0.0000 -0.0001 -0.0001 27.5909 0.0000 0.0001
# 5 0.0000 0.0000 0.0000 0.0000 -10.8000 0.0000
# 6 0.0000 0.0001 0.0001 0.0001 0.0000 30.9849
#
#
#
# Elastic Compliance Matrix: (Units=1/GPa)
#
#
# Indices 1 2 3 4 5 6 
#
# 1 0.015513 0.002972 -0.002018 0.000000 0.000000 0.000000
# 2 0.002972 0.016481 -0.007939 0.000000 0.000000 0.000000
# 3 -0.002018 -0.007939 0.009947 0.000000 0.000000 0.000000
# 4 0.000000 0.000000 0.000000 0.036244 0.000000 0.000000
# 5 0.000000 0.000000 0.000000 0.000000 -0.092593 0.000000
# 6 0.000000 0.000000 0.000000 0.000000 0.000000 0.032274
#
#
# Mechanical properties :
#
#
# Convention : Reuss Voigt Hill
#
# Bulk Modulus (GPa) = 35.74776 53.45898 44.60337
# Shear Modulus (GPa) = 121.48022 26.58806 74.03414
#
# Velocity S-wave (km/s) = 7.38335 3.45417 5.76390
# Velocity P-wave (km/s) = 9.41949 6.31648 8.01950
#
# Compressibility (1/GPa) = 0.02797378
#
# Stress axis : x y z
#
# Youngs Moduli (GPa) = 64.46263 60.67472 100.52852
#
# Poissons Ratio (x) = -0.18035 0.20284
# Poissons Ratio (y) = -0.19161 0.79805
# Poissons Ratio (z) = 0.13007 0.48167
#
# Static dielectric constant tensor:
#      x y z
#    x 1.844110 0.000000 0.000000 
#    y 0.000000 1.749810 0.000000 
#    z 0.000000 0.000000 1.877890 
# 
# From -- ./inp_files/33110.got.cif
#   From: 2010.05.17/outbox.cif.g08.bks.cpg/sg71_17_cif.got.tgz:33110.got - 2010.06.03 16:22:01.
