data_PCOD9520522
_publ_section_title
;
Structure prediction by ZEFSAII (Michael W. Deem and Ramdas Pophale) SiO2 
 PCOD9520522
Probable space group: I M M M
;
_chemical_formula_sum "Si O2"
_cell_formula_units_Z 52
_cell_length_a 33.928337
_cell_length_b 5.253873
_cell_length_c 14.914272
_cell_angle_alpha 90.000000
_cell_angle_beta 90.000000
_cell_angle_gamma 90.000000
_cell_volume 2658.546146
_symmetry_space_group_name_H-M "I M M M"
_symmetry_group_IT_number 71
_symmetry_cell_setting 'orthorhombic'
loop_
_space_group_symop_operation_xyz
x,y,z
-x,-y,z
x,-y,-z
-x,y,-z
-x,-y,-z
x,y,-z
-x,y,z
x,-y,z
1/2+x,1/2+y,1/2+z
1/2-x,1/2-y,1/2+z
1/2+x,1/2-y,1/2-z
1/2-x,1/2+y,1/2-z
1/2-x,1/2-y,1/2-z
1/2+x,1/2+y,1/2-z
1/2-x,1/2+y,1/2+z
1/2+x,1/2-y,1/2+z
loop_
_atom_site_type_symbol
_atom_site_label
_atom_site_fract_x
_atom_site_fract_y
_atom_site_fract_z
Si Si1 0.579245 0.500000 0.902811
Si Si2 0.780147 0.500000 0.351569
Si Si3 0.954030 0.000000 0.793280
Si Si4 0.628575 0.000000 0.860932
Si Si5 0.230660 0.500000 0.136273
Si Si6 0.904967 0.500000 0.836110
Si Si7 0.156720 0.500000 0.000000
O O1 0.551864 0.500000 0.814987
O O2 0.606722 0.251167 0.895828
O O3 0.559004 0.500000 0.000000
O O4 0.825300 0.500000 0.381739
O O5 0.779512 0.500000 0.242461
O O6 0.756624 0.749731 0.381662
O O7 0.932075 0.249404 0.830261
O O8 0.000000 0.000000 0.814962
O O9 0.621728 0.000000 0.753659
O O10 0.191555 0.500000 0.077630
O O11 0.877383 0.500000 0.921800
#
# Coordination Sequence:
#
# PCOD9520522 Si02
#       7
#     8   8   8   8   8   8   4
#     4  10  21  36  60  92 119 159 200 244 298 368
#     4  10  20  41  55  85 111 164 194 252 309 344
#     4  10  22  43  66  92 124 157 199 247 317 379
#     4  10  19  39  60  82 125 162 201 244 305 365
#     4  10  23  36  63  80 118 148 207 255 301 344
#     4  10  23  39  67  92 120 166 199 252 309 362
#     4  12  24  46  61  96 120 166 220 262 283 386
#
# _framework density 19.559563000000001
#
# number of rings (size 3 to 8) (size 9 to 14) (size 15 to 20)
#    0.000    1.846    1.538    1.846    0.000    4.000 
#    8.308    2.308    0.000    5.538    0.000    0.000 
#    0.000    0.000    0.000    0.000    0.000    0.000 
#
# Total GULP energy -144764.138454 kJ/mol
# GULP energy per Si atom -5567.851479 kJ/mol
# Density = 1.951504 g / cm^3
# Si number density = 19.559563 Si / 1000 Ang^3
#
#
#
# Elastic Constant Matrix: (Units=GPa)
#
#
# Indices 1 2 3 4 5 6 
#
# 1 166.9514 71.8737 56.4990 0.0000 0.0000 0.0000
# 2 71.8737 172.7781 35.0970 0.0000 0.0000 0.0000
# 3 56.4990 35.0970 135.4861 0.0000 0.0000 0.0000
# 4 0.0000 0.0000 0.0000 -4.9822 0.0000 0.0000
# 5 0.0000 0.0000 0.0000 0.0000 22.7069 0.0000
# 6 0.0000 0.0000 0.0000 0.0000 0.0000 -5.9398
#
#
#
# Elastic Compliance Matrix: (Units=1/GPa)
#
#
# Indices 1 2 3 4 5 6 
#
# 1 0.008105 -0.002834 -0.002646 0.000000 0.000000 0.000000
# 2 -0.002834 0.007100 -0.000657 0.000000 0.000000 0.000000
# 3 -0.002646 -0.000657 0.008654 0.000000 0.000000 0.000000
# 4 0.000000 0.000000 0.000000 -0.200715 0.000000 0.000000
# 5 0.000000 0.000000 0.000000 0.000000 0.044039 0.000000
# 6 0.000000 0.000000 0.000000 0.000000 0.000000 -0.168355
#
#
# Mechanical properties :
#
#
# Convention : Reuss Voigt Hill
#
# Bulk Modulus (GPa) = 86.31706 89.12832 87.72269
# Shear Modulus (GPa) = -17.54177 23.14004 2.79914
#
# Velocity S-wave (km/s) = -2.99797 3.44329 1.19758
# Velocity P-wave (km/s) = 5.67824 7.84059 6.84534
#
# Compressibility (1/GPa) = 0.01158520
#
# Stress axis : x y z
#
# Youngs Moduli (GPa) = 123.37582 140.83847 115.54764
#
# Poissons Ratio (x) = 0.39917 0.30571
# Poissons Ratio (y) = 0.34968 0.07596
# Poissons Ratio (z) = 0.32643 0.09259
#
# Static dielectric constant tensor:
#      x y z
#    x 1.612760 0.000000 0.000000 
#    y 0.000000 1.665910 0.000000 
#    z 0.000000 0.000000 1.696140 
# 
# From -- ./inp_files/40587.got.cif
#   From: 2010.05.17/outbox.cif.g08.bks.cpg/sg71_21_cif.got.tgz:40587.got - 2010.06.03 16:22:01.
