data_PCOD9520148
_publ_section_title
;
Structure prediction by ZEFSAII (Michael W. Deem and Ramdas Pophale) SiO2 
 PCOD9520148
Probable space group: I M M M
;
_chemical_formula_sum "Si O2"
_cell_formula_units_Z 80
_cell_length_a 19.428562
_cell_length_b 7.439835
_cell_length_c 25.469849
_cell_angle_alpha 90.000000
_cell_angle_beta 90.000000
_cell_angle_gamma 90.000000
_cell_volume 3681.546852
_symmetry_space_group_name_H-M "I M M M"
_symmetry_group_IT_number 71
_symmetry_cell_setting 'orthorhombic'
loop_
_space_group_symop_operation_xyz
x,y,z
-x,-y,z
x,-y,-z
-x,y,-z
-x,-y,-z
x,y,-z
-x,y,z
x,-y,z
1/2+x,1/2+y,1/2+z
1/2-x,1/2-y,1/2+z
1/2+x,1/2-y,1/2-z
1/2-x,1/2+y,1/2-z
1/2-x,1/2-y,1/2-z
1/2+x,1/2+y,1/2-z
1/2-x,1/2+y,1/2+z
1/2+x,1/2-y,1/2+z
loop_
_atom_site_type_symbol
_atom_site_label
_atom_site_fract_x
_atom_site_fract_y
_atom_site_fract_z
Si Si1 0.833223 0.720007 0.097554
Si Si2 0.422984 0.219240 0.500000
Si Si3 0.819535 0.286331 0.284619
Si Si4 0.680653 0.290621 0.092592
Si Si5 0.921146 0.719592 0.802868
Si Si6 0.579817 0.279945 0.000000
O O1 0.829959 0.500000 0.099552
O O2 0.757007 0.787631 0.085416
O O3 0.868615 0.777103 0.151575
O O4 0.883226 0.774417 0.051411
O O5 0.500000 0.283810 0.500000
O O6 0.424072 0.000000 0.500000
O O7 0.822164 0.500000 0.289052
O O8 0.750000 0.250000 0.250000
O O9 0.826426 0.217576 0.344111
O O10 0.885048 0.223998 0.250939
O O11 0.685109 0.500000 0.078273
O O12 0.622168 0.221281 0.052577
O O13 0.922381 0.500000 0.803976
O O14 0.000000 0.778480 0.809730
O O15 0.577189 0.500000 0.000000
O O16 0.500000 0.220469 0.000000
#
# Coordination Sequence:
#
# PCOD9520148 Si02
#       6
#    16   8  16  16  16   8
#     4   9  15  25  42  67  98 131 166 209 257 308
#     4   9  15  21  35  64  98 126 156 199 250 298
#     4  11  21  35  55  80 109 143 184 228 277 332
#     4  10  19  34  56  80 106 141 184 226 272 325
#     4   9  17  29  46  70 101 134 169 214 269 321
#     4   9  19  35  56  83 116 152 189 234 288 345
#
# _framework density 21.729996
#
# number of rings (size 3 to 8) (size 9 to 14) (size 15 to 20)
#    0.000    2.400    2.000    1.800    0.000    5.600 
#    0.000    0.500    0.000    2.400    0.000    0.000 
#    0.000    0.800    0.000    0.000    0.000    0.000 
#
# Total GULP energy -223141.130925 kJ/mol
# GULP energy per Si atom -5578.528273 kJ/mol
# Density = 2.168054 g / cm^3
# Si number density = 21.729996 Si / 1000 Ang^3
#
#
#
# Elastic Constant Matrix: (Units=GPa)
#
#
# Indices 1 2 3 4 5 6 
#
# 1 221.2090 6.2326 110.4106 0.0000 0.0000 0.0000
# 2 6.2326 67.4267 -8.3425 0.0000 0.0000 0.0000
# 3 110.4106 -8.3425 158.0639 0.0000 0.0000 0.0000
# 4 0.0000 0.0000 0.0000 17.4586 0.0000 0.0000
# 5 0.0000 0.0000 0.0000 0.0000 53.7397 0.0000
# 6 0.0000 0.0000 0.0000 0.0000 0.0000 -1.4041
#
#
#
# Elastic Compliance Matrix: (Units=1/GPa)
#
#
# Indices 1 2 3 4 5 6 
#
# 1 0.007047 -0.001269 -0.004989 0.000000 0.000000 0.000000
# 2 -0.001269 0.015157 0.001686 0.000000 0.000000 0.000000
# 3 -0.004989 0.001686 0.009901 0.000000 0.000000 0.000000
# 4 0.000000 0.000000 0.000000 0.057278 0.000000 0.000000
# 5 0.000000 0.000000 0.000000 0.000000 0.018608 0.000000
# 6 0.000000 0.000000 0.000000 0.000000 0.000000 -0.712225
#
#
# Mechanical properties :
#
#
# Convention : Reuss Voigt Hill
#
# Bulk Modulus (GPa) = 43.55274 73.70011 58.62642
# Shear Modulus (GPa) = -8.51154 36.51877 14.00361
#
# Velocity S-wave (km/s) = -1.98128 4.10392 2.54133
# Velocity P-wave (km/s) = 3.85386 7.51307 5.97070
#
# Compressibility (1/GPa) = 0.02296067
#
# Stress axis : x y z
#
# Youngs Moduli (GPa) = 141.91388 65.97697 101.00481
#
# Poissons Ratio (x) = 0.08370 0.50392
# Poissons Ratio (y) = 0.18004 -0.17031
# Poissons Ratio (z) = 0.70802 -0.11125
#
# Static dielectric constant tensor:
#      x y z
#    x 1.773400 0.000000 0.000000 
#    y 0.000000 1.877070 0.000000 
#    z 0.000000 0.000000 1.802910 
# 
# From -- ./inp_files/65821.got.cif
#   From: 2010.05.17/outbox.cif.g08.bks.cpg/sg71_33_cif.got.tgz:65821.got - 2010.06.03 16:22:01.
