data_PCOD9520336
_publ_section_title
;
Structure prediction by ZEFSAII (Michael W. Deem and Ramdas Pophale) SiO2 
 PCOD9520336
Probable space group: I M M M
;
_chemical_formula_sum "Si O2"
_cell_formula_units_Z 88
_cell_length_a 15.687943
_cell_length_b 15.093123
_cell_length_c 20.354421
_cell_angle_alpha 90.000000
_cell_angle_beta 90.000000
_cell_angle_gamma 90.000000
_cell_volume 4819.520890
_symmetry_space_group_name_H-M "I M M M"
_symmetry_group_IT_number 71
_symmetry_cell_setting 'orthorhombic'
loop_
_space_group_symop_operation_xyz
x,y,z
-x,-y,z
x,-y,-z
-x,y,-z
-x,-y,-z
x,y,-z
-x,y,z
x,-y,z
1/2+x,1/2+y,1/2+z
1/2-x,1/2-y,1/2+z
1/2+x,1/2-y,1/2-z
1/2-x,1/2+y,1/2-z
1/2-x,1/2-y,1/2-z
1/2+x,1/2+y,1/2-z
1/2-x,1/2+y,1/2+z
1/2+x,1/2-y,1/2+z
loop_
_atom_site_type_symbol
_atom_site_label
_atom_site_fract_x
_atom_site_fract_y
_atom_site_fract_z
Si Si1 0.594696 0.712618 0.189559
Si Si2 0.599196 0.500000 0.572597
Si Si3 0.673445 0.104189 0.209490
Si Si4 0.856096 0.836266 0.836596
Si Si5 0.096606 0.332408 0.923723
Si Si6 0.747800 0.598098 0.145148
O O1 0.500000 0.691216 0.165341
O O2 0.604474 0.819284 0.196666
O O3 0.606740 0.671798 0.263030
O O4 0.671890 0.669795 0.147504
O O5 0.500000 0.500000 0.561791
O O6 0.641747 0.500000 0.500000
O O7 0.616578 0.416111 0.617616
O O8 0.756169 0.144102 0.173105
O O9 0.700663 0.106208 0.286003
O O10 0.656625 0.000000 0.192874
O O11 0.884401 0.749441 0.875689
O O12 0.178535 0.393078 0.909257
O O13 0.000000 0.367354 0.910398
O O14 0.097631 0.305213 0.000000
O O15 0.709187 0.500000 0.143254
#
# Coordination Sequence:
#
# PCOD9520336 Si02
#       6
#    16   8  16  16  16  16
#     4  11  21  35  59  85 112 147 188 238 290 337
#     4  11  22  32  48  80 119 155 190 223 265 333
#     4  10  19  35  58  81 109 147 187 234 290 338
#     4  11  19  36  53  80 117 151 187 231 281 332
#     4  11  22  36  57  83 114 154 192 225 273 340
#     4  10  21  37  55  80 115 149 188 235 281 332
#
# _framework density 18.259074999999999
#
# number of rings (size 3 to 8) (size 9 to 14) (size 15 to 20)
#    0.000    1.364    4.545    3.273    1.273    2.909 
#    0.000    2.727    0.000    0.545    0.000    1.273 
#    0.000    2.182    0.000    0.000    0.000    0.000 
#
# Total GULP energy -245030.088762 kJ/mol
# GULP energy per Si atom -5568.865654 kJ/mol
# Density = 1.821752 g / cm^3
# Si number density = 18.259075 Si / 1000 Ang^3
#
#
#
# Elastic Constant Matrix: (Units=GPa)
#
#
# Indices 1 2 3 4 5 6 
#
# 1 93.4669 41.3022 32.9491 0.0000 0.0000 0.0000
# 2 41.3022 86.3917 -1.8308 0.0000 0.0000 0.0000
# 3 32.9491 -1.8308 52.2102 0.0000 0.0000 0.0000
# 4 0.0000 0.0000 0.0000 -7.5555 0.0000 0.0000
# 5 0.0000 0.0000 0.0000 0.0000 18.2280 0.0000
# 6 0.0000 0.0000 0.0000 0.0000 0.0000 113.4107
#
#
#
# Elastic Compliance Matrix: (Units=1/GPa)
#
#
# Indices 1 2 3 4 5 6 
#
# 1 0.019308 -0.009496 -0.012518 0.000000 0.000000 0.000000
# 2 -0.009496 0.016254 0.006563 0.000000 0.000000 0.000000
# 3 -0.012518 0.006563 0.027283 0.000000 0.000000 0.000000
# 4 0.000000 0.000000 0.000000 -0.132354 0.000000 0.000000
# 5 0.000000 0.000000 0.000000 0.000000 0.054861 0.000000
# 6 0.000000 0.000000 0.000000 0.000000 0.000000 0.008818
#
#
# Mechanical properties :
#
#
# Convention : Reuss Voigt Hill
#
# Bulk Modulus (GPa) = 31.30574 41.87885 36.59229
# Shear Modulus (GPa) = 139.97792 35.45987 87.71889
#
# Velocity S-wave (km/s) = 8.76519 4.41164 6.93870
# Velocity P-wave (km/s) = 10.93712 6.99541 9.18031
#
# Compressibility (1/GPa) = 0.03194303
#
# Stress axis : x y z
#
# Youngs Moduli (GPa) = 51.79177 61.52271 36.65230
#
# Poissons Ratio (x) = 0.58423 0.45881
# Poissons Ratio (y) = 0.49182 -0.24054
# Poissons Ratio (z) = 0.64833 -0.40376
#
# Static dielectric constant tensor:
#      x y z
#    x 1.666180 0.000000 0.000000 
#    y 0.000000 1.766080 0.000000 
#    z 0.000000 0.000000 1.645900 
# 
# From -- ./inp_files/34422.got.cif
#   From: 2010.05.17/outbox.cif.g08.bks.cpg/sg71_18_cif.got.tgz:34422.got - 2010.06.03 16:22:01.
