data_PCOD9520180
_publ_section_title
;
Structure prediction by ZEFSAII (Michael W. Deem and Ramdas Pophale) SiO2 
 PCOD9520180
Probable space group: I M M M
;
_chemical_formula_sum "Si O2"
_cell_formula_units_Z 120
_cell_length_a 23.782589
_cell_length_b 21.104820
_cell_length_c 13.780804
_cell_angle_alpha 90.000000
_cell_angle_beta 90.000000
_cell_angle_gamma 90.000000
_cell_volume 6916.961192
_symmetry_space_group_name_H-M "I M M M"
_symmetry_group_IT_number 71
_symmetry_cell_setting 'orthorhombic'
loop_
_space_group_symop_operation_xyz
x,y,z
-x,-y,z
x,-y,-z
-x,y,-z
-x,-y,-z
x,y,-z
-x,y,z
x,-y,z
1/2+x,1/2+y,1/2+z
1/2-x,1/2-y,1/2+z
1/2+x,1/2-y,1/2-z
1/2-x,1/2+y,1/2-z
1/2-x,1/2-y,1/2-z
1/2+x,1/2+y,1/2-z
1/2-x,1/2+y,1/2+z
1/2+x,1/2-y,1/2+z
loop_
_atom_site_type_symbol
_atom_site_label
_atom_site_fract_x
_atom_site_fract_y
_atom_site_fract_z
Si Si1 0.434099 0.690027 0.299568
Si Si2 0.382135 0.743414 0.887885
Si Si3 0.862500 0.303693 0.887482
Si Si4 0.432894 0.000000 0.886565
Si Si5 0.754049 0.925034 0.779427
Si Si6 0.129715 0.380100 0.302858
Si Si7 0.129730 0.926201 0.885462
Si Si8 0.735050 0.323928 0.887169
O O1 0.500000 0.694719 0.319930
O O2 0.421083 0.706224 0.187515
O O3 0.399054 0.742733 0.359487
O O4 0.409750 0.621921 0.328170
O O5 0.385114 0.817654 0.863924
O O6 0.317943 0.721069 0.868076
O O7 0.395182 0.731181 0.000000
O O8 0.876318 0.358691 0.809779
O O9 0.795695 0.290718 0.873296
O O10 0.871115 0.320930 0.000000
O O11 0.408531 0.938200 0.834138
O O12 0.500000 0.000000 0.882964
O O13 0.415378 0.000000 0.000000
O O14 0.694513 0.900093 0.818727
O O15 0.805861 0.915660 0.852479
O O16 0.766848 0.883870 0.683747
O O17 0.749217 0.000000 0.758852
O O18 0.116471 0.000000 0.865889
O O19 0.124099 0.914834 0.000000
O O20 0.732234 0.343406 0.000000
#
# Coordination Sequence:
#
# PCOD9520180 Si02
#       8
#    16  16  16   8  16  16  16  16
#     4  11  23  38  58  81 112 154 193 232 279 336
#     4  10  21  37  60  88 115 144 185 238 292 341
#     4   9  20  36  57  86 117 147 186 232 281 339
#     4  11  24  42  59  79 113 153 195 239 285 344
#     4  10  19  34  56  84 118 147 182 229 278 334
#     4  10  21  36  58  85 115 150 188 231 285 341
#     4  10  22  37  54  81 113 149 188 233 285 336
#     4   9  18  34  58  87 116 146 179 226 289 341
#
# _framework density 17.348659000000001
#
# number of rings (size 3 to 8) (size 9 to 14) (size 15 to 20)
#    0.000    2.067    2.000    0.800    1.867    6.667 
#    0.000    1.000    0.000    0.800    0.000    0.933 
#    0.000    0.000    0.000    0.000    0.000    0.000 
#
# Total GULP energy -334859.488299 kJ/mol
# GULP energy per Si atom -5580.991472 kJ/mol
# Density = 1.730917 g / cm^3
# Si number density = 17.348659 Si / 1000 Ang^3
#
#
#
# Elastic Constant Matrix: (Units=GPa)
#
#
# Indices 1 2 3 4 5 6 
#
# 1 52.7023 39.4865 8.1856 0.0000 0.0000 0.0000
# 2 39.4865 97.8748 33.0100 0.0000 0.0000 0.0000
# 3 8.1856 33.0100 53.4973 0.0000 0.0000 0.0000
# 4 0.0000 0.0000 0.0000 13.9107 0.0000 0.0000
# 5 0.0000 0.0000 0.0000 0.0000 17.6909 0.0000
# 6 0.0000 0.0000 0.0000 0.0000 0.0000 20.1901
#
#
#
# Elastic Compliance Matrix: (Units=1/GPa)
#
#
# Indices 1 2 3 4 5 6 
#
# 1 0.027662 -0.012290 0.003351 0.000000 0.000000 0.000000
# 2 -0.012290 0.018363 -0.009450 0.000000 0.000000 0.000000
# 3 0.003351 -0.009450 0.024011 0.000000 0.000000 0.000000
# 4 0.000000 0.000000 0.000000 0.071887 0.000000 0.000000
# 5 0.000000 0.000000 0.000000 0.000000 0.056526 0.000000
# 6 0.000000 0.000000 0.000000 0.000000 0.000000 0.049529
#
#
# Mechanical properties :
#
#
# Convention : Reuss Voigt Hill
#
# Bulk Modulus (GPa) = 30.06857 40.60429 35.33643
# Shear Modulus (GPa) = 16.90088 18.58450 17.74269
#
# Velocity S-wave (km/s) = 3.12459 3.27652 3.20146
# Velocity P-wave (km/s) = 5.51244 6.14572 5.83767
#
# Compressibility (1/GPa) = 0.03325732
#
# Stress axis : x y z
#
# Youngs Moduli (GPa) = 36.15030 54.45833 41.64790
#
# Poissons Ratio (x) = 0.66930 -0.13956
# Poissons Ratio (y) = 0.44429 0.39357
# Poissons Ratio (z) = -0.12114 0.51463
#
# Static dielectric constant tensor:
#      x y z
#    x 1.579240 0.000000 0.000000 
#    y 0.000000 1.562600 0.000000 
#    z 0.000000 0.000000 1.589340 
# 
# From -- ./inp_files/38439.got.cif
#   From: 2010.05.17/outbox.cif.g08.bks.cpg/sg71_20_cif.got.tgz:38439.got - 2010.06.03 16:22:01.
