data_PCOD9520816
_publ_section_title
;
Structure prediction by ZEFSAII (Michael W. Deem and Ramdas Pophale) SiO2 
 PCOD9520816
Probable space group: I M M M
;
_chemical_formula_sum "Si O2"
_cell_formula_units_Z 112
_cell_length_a 30.568643
_cell_length_b 15.189332
_cell_length_c 15.000717
_cell_angle_alpha 90.000000
_cell_angle_beta 90.000000
_cell_angle_gamma 90.000000
_cell_volume 6965.091925
_symmetry_space_group_name_H-M "I M M M"
_symmetry_group_IT_number 71
_symmetry_cell_setting 'orthorhombic'
loop_
_space_group_symop_operation_xyz
x,y,z
-x,-y,z
x,-y,-z
-x,y,-z
-x,-y,-z
x,y,-z
-x,y,z
x,-y,z
1/2+x,1/2+y,1/2+z
1/2-x,1/2-y,1/2+z
1/2+x,1/2-y,1/2-z
1/2-x,1/2+y,1/2-z
1/2-x,1/2-y,1/2-z
1/2+x,1/2+y,1/2-z
1/2-x,1/2+y,1/2+z
1/2+x,1/2-y,1/2+z
loop_
_atom_site_type_symbol
_atom_site_label
_atom_site_fract_x
_atom_site_fract_y
_atom_site_fract_z
Si Si1 0.950546 0.894950 0.295283
Si Si2 0.826557 0.105635 0.097351
Si Si3 0.927286 0.106605 0.098072
Si Si4 0.706753 0.598418 0.898454
Si Si5 0.749659 0.147717 0.229282
Si Si6 0.622852 0.281551 0.894222
Si Si7 0.832908 0.398334 0.394308
O O1 0.950563 0.871288 0.190009
O O2 0.915268 0.832872 0.342798
O O3 0.000000 0.884174 0.330221
O O4 0.939144 0.000000 0.302984
O O5 0.876587 0.134757 0.108790
O O6 0.793535 0.129937 0.173798
O O7 0.828066 0.000000 0.095392
O O8 0.810768 0.136517 0.000000
O O9 0.928338 0.000000 0.094140
O O10 0.942893 0.137193 0.000000
O O11 0.687397 0.500000 0.894926
O O12 0.744698 0.603137 0.825513
O O13 0.668749 0.667971 0.877067
O O14 0.721720 0.614438 0.000000
O O15 0.750000 0.250000 0.250000
O O16 0.708985 0.117523 0.169098
O O17 0.632026 0.178632 0.873418
O O18 0.614293 0.288643 0.000000
O O19 0.821074 0.387111 0.500000
O O20 0.847487 0.500000 0.383546
#
# Coordination Sequence:
#
# PCOD9520816 Si02
#       7
#    16  16  16  16  16  16  16
#     4  10  20  32  50  77 106 134 161 193 241 304
#     4   9  17  29  46  67  92 125 166 207 241 278
#     4   8  15  28  46  69  98 133 166 193 229 280
#     4  10  20  33  48  67  96 135 170 198 235 289
#     4  12  21  29  46  70  99 131 165 210 251 282
#     4  10  20  35  52  71  97 128 166 205 245 294
#     4  10  21  37  55  73  95 127 170 216 257 293
#
# _framework density 16.080190999999999
#
# number of rings (size 3 to 8) (size 9 to 14) (size 15 to 20)
#    0.000    2.143    1.429    3.857    0.000    4.286 
#    0.000    2.143    0.000    0.429    0.000    2.000 
#    0.000    0.000    0.000    1.286    0.000    0.143 
#
# Total GULP energy -311941.117577 kJ/mol
# GULP energy per Si atom -5570.377100 kJ/mol
# Density = 1.604359 g / cm^3
# Si number density = 16.080191 Si / 1000 Ang^3
#
#
#
# Elastic Constant Matrix: (Units=GPa)
#
#
# Indices 1 2 3 4 5 6 
#
# 1 64.5538 35.1059 52.4355 0.0000 0.0000 0.0000
# 2 35.1059 94.4123 37.0553 0.0000 0.0000 0.0000
# 3 52.4355 37.0553 90.1441 0.0000 0.0000 0.0000
# 4 0.0000 0.0000 0.0000 9.3654 0.0000 0.0000
# 5 0.0000 0.0000 0.0000 0.0000 -1.6466 0.0000
# 6 0.0000 0.0000 0.0000 0.0000 0.0000 15.8263
#
#
#
# Elastic Compliance Matrix: (Units=1/GPa)
#
#
# Indices 1 2 3 4 5 6 
#
# 1 0.031512 -0.005393 -0.016113 0.000000 0.000000 0.000000
# 2 -0.005393 0.013552 -0.002434 0.000000 0.000000 0.000000
# 3 -0.016113 -0.002434 0.021467 0.000000 0.000000 0.000000
# 4 0.000000 0.000000 0.000000 0.106776 0.000000 0.000000
# 5 0.000000 0.000000 0.000000 0.000000 -0.607323 0.000000
# 6 0.000000 0.000000 0.000000 0.000000 0.000000 0.063186
#
#
# Mechanical properties :
#
#
# Convention : Reuss Voigt Hill
#
# Bulk Modulus (GPa) = 53.61691 55.36706 54.49199
# Shear Modulus (GPa) = -15.78622 13.00992 -1.38815
#
# Velocity S-wave (km/s) = -3.13664 2.84749 -0.93013
# Velocity P-wave (km/s) = 4.50531 6.73183 5.72780
#
# Compressibility (1/GPa) = 0.01865083
#
# Stress axis : x y z
#
# Youngs Moduli (GPa) = 31.73356 73.78723 46.58386
#
# Poissons Ratio (x) = 0.39795 0.75062
# Poissons Ratio (y) = 0.17115 0.11338
# Poissons Ratio (z) = 0.51133 0.17958
#
# Static dielectric constant tensor:
#      x y z
#    x 1.541170 0.000000 0.000000 
#    y 0.000000 1.551420 0.000000 
#    z 0.000000 0.000000 1.572660 
# 
# From -- ./inp_files/40357.got.cif
#   From: 2010.05.17/outbox.cif.g08.bks.cpg/sg71_21_cif.got.tgz:40357.got - 2010.06.03 16:22:01.
