data_PCOD9520176
_publ_section_title
;
Structure prediction by ZEFSAII (Michael W. Deem and Ramdas Pophale) SiO2 
 PCOD9520176
Probable space group: I M M M
;
_chemical_formula_sum "Si O2"
_cell_formula_units_Z 80
_cell_length_a 17.745632
_cell_length_b 21.083955
_cell_length_c 11.691940
_cell_angle_alpha 90.000000
_cell_angle_beta 90.000000
_cell_angle_gamma 90.000000
_cell_volume 4374.517213
_symmetry_space_group_name_H-M "I M M M"
_symmetry_group_IT_number 71
_symmetry_cell_setting 'orthorhombic'
loop_
_space_group_symop_operation_xyz
x,y,z
-x,-y,z
x,-y,-z
-x,y,-z
-x,-y,-z
x,y,-z
-x,y,z
x,-y,z
1/2+x,1/2+y,1/2+z
1/2-x,1/2-y,1/2+z
1/2+x,1/2-y,1/2-z
1/2-x,1/2+y,1/2-z
1/2-x,1/2-y,1/2-z
1/2+x,1/2+y,1/2-z
1/2-x,1/2+y,1/2+z
1/2+x,1/2-y,1/2+z
loop_
_atom_site_type_symbol
_atom_site_label
_atom_site_fract_x
_atom_site_fract_y
_atom_site_fract_z
Si Si1 0.909517 0.265990 0.500000
Si Si2 0.912254 0.762936 0.126903
Si Si3 0.088545 0.113473 0.500000
Si Si4 0.235996 0.069933 0.865342
Si Si5 0.188187 0.304555 0.277958
Si Si6 0.588822 0.603330 0.254139
O O1 0.905370 0.189618 0.500000
O O2 0.863660 0.289962 0.611002
O O3 0.000000 0.282101 0.500000
O O4 0.866617 0.702919 0.170259
O O5 0.904809 0.821859 0.214186
O O6 0.000000 0.748161 0.123163
O O7 0.887077 0.783477 0.000000
O O8 0.115733 0.090791 0.623953
O O9 0.000000 0.097742 0.500000
O O10 0.272532 0.128269 0.797527
O O11 0.146825 0.070986 0.839113
O O12 0.265499 0.000000 0.834781
O O13 0.248439 0.080206 0.000000
O O14 0.250000 0.250000 0.250000
O O15 0.500000 0.587007 0.265931
#
# Coordination Sequence:
#
# PCOD9520176 Si02
#       6
#     8  16   8  16  16  16
#     4  11  20  34  57  87 120 153 196 246 302 356
#     4  10  20  34  57  89 120 147 189 245 295 346
#     4   9  16  30  53  85 115 144 186 240 289 333
#     4  11  24  41  58  82 119 157 195 244 296 351
#     4  12  22  35  61  87 119 153 198 241 299 350
#     4  10  19  34  56  83 118 156 195 236 286 354
#
# _framework density 18.287732999999999
#
# number of rings (size 3 to 8) (size 9 to 14) (size 15 to 20)
#    0.000    1.400    5.000    1.200    1.400    1.600 
#    1.800    1.500    0.000    4.800    0.000    1.400 
#    0.000    0.000    0.000    0.000    0.000    0.000 
#
# Total GULP energy -222988.213146 kJ/mol
# GULP energy per Si atom -5574.705329 kJ/mol
# Density = 1.824611 g / cm^3
# Si number density = 18.287733 Si / 1000 Ang^3
#
#
#
# Elastic Constant Matrix: (Units=GPa)
#
#
# Indices 1 2 3 4 5 6 
#
# 1 65.7054 35.7086 20.6020 0.0000 0.0000 0.0000
# 2 35.7086 100.3717 21.6622 0.0000 0.0000 0.0000
# 3 20.6020 21.6622 69.2944 0.0000 0.0000 0.0000
# 4 0.0000 0.0000 0.0000 16.8407 0.0000 0.0000
# 5 0.0000 0.0000 0.0000 0.0000 36.1136 0.0000
# 6 0.0000 0.0000 0.0000 0.0000 0.0000 10.0856
#
#
#
# Elastic Compliance Matrix: (Units=1/GPa)
#
#
# Indices 1 2 3 4 5 6 
#
# 1 0.019830 -0.006201 -0.003957 0.000000 0.000000 0.000000
# 2 -0.006201 0.012623 -0.002102 0.000000 0.000000 0.000000
# 3 -0.003957 -0.002102 0.016265 0.000000 0.000000 0.000000
# 4 0.000000 0.000000 0.000000 0.059380 0.000000 0.000000
# 5 0.000000 0.000000 0.000000 0.000000 0.027690 0.000000
# 6 0.000000 0.000000 0.000000 0.000000 0.000000 0.099151
#
#
# Mechanical properties :
#
#
# Convention : Reuss Voigt Hill
#
# Bulk Modulus (GPa) = 41.32775 43.47968 42.40371
# Shear Modulus (GPa) = 18.68977 23.10123 20.89550
#
# Velocity S-wave (km/s) = 3.20032 3.55802 3.38390
# Velocity P-wave (km/s) = 6.02526 6.38015 6.20524
#
# Compressibility (1/GPa) = 0.02419682
#
# Stress axis : x y z
#
# Youngs Moduli (GPa) = 50.42823 79.22221 61.48185
#
# Poissons Ratio (x) = 0.49124 0.24330
# Poissons Ratio (y) = 0.31269 0.12926
# Poissons Ratio (z) = 0.19956 0.16656
#
# Static dielectric constant tensor:
#      x y z
#    x 1.673540 0.000000 0.000000 
#    y 0.000000 1.643590 0.000000 
#    z 0.000000 0.000000 1.674250 
# 
# From -- ./inp_files/23820.got.cif
#   From: 2010.05.17/outbox.cif.g08.bks.cpg/sg71_12_cif.got.tgz:23820.got - 2010.06.03 16:22:01.
