data_PCOD9520199
_publ_section_title
;
Structure prediction by ZEFSAII (Michael W. Deem and Ramdas Pophale) SiO2 
 PCOD9520199
Probable space group: I M M M
;
_chemical_formula_sum "Si O2"
_cell_formula_units_Z 104
_cell_length_a 22.847492
_cell_length_b 7.764380
_cell_length_c 26.912497
_cell_angle_alpha 90.000000
_cell_angle_beta 90.000000
_cell_angle_gamma 90.000000
_cell_volume 4774.185733
_symmetry_space_group_name_H-M "I M M M"
_symmetry_group_IT_number 71
_symmetry_cell_setting 'orthorhombic'
loop_
_space_group_symop_operation_xyz
x,y,z
-x,-y,z
x,-y,-z
-x,y,-z
-x,-y,-z
x,y,-z
-x,y,z
x,-y,z
1/2+x,1/2+y,1/2+z
1/2-x,1/2-y,1/2+z
1/2+x,1/2-y,1/2-z
1/2-x,1/2+y,1/2-z
1/2-x,1/2-y,1/2-z
1/2+x,1/2+y,1/2-z
1/2-x,1/2+y,1/2+z
1/2+x,1/2-y,1/2+z
loop_
_atom_site_type_symbol
_atom_site_label
_atom_site_fract_x
_atom_site_fract_y
_atom_site_fract_z
Si Si1 0.933469 0.292533 0.213128
Si Si2 0.173189 0.208610 0.615980
Si Si3 0.896645 0.300268 0.894901
Si Si4 0.566057 0.710049 0.944539
Si Si5 0.186423 0.794936 0.272684
Si Si6 0.431253 0.803122 0.500000
Si Si7 0.285305 0.703348 0.557062
O O1 0.935975 0.500000 0.211415
O O2 0.920178 0.228227 0.156709
O O3 0.874552 0.253839 0.244816
O O4 0.000000 0.234386 0.228313
O O5 0.110172 0.267914 0.597257
O O6 0.185890 0.274235 0.671011
O O7 0.220028 0.264371 0.575170
O O8 0.174006 0.000000 0.617163
O O9 0.916426 0.500000 0.896120
O O10 0.915365 0.218794 0.947519
O O11 0.826872 0.291328 0.901802
O O12 0.500000 0.768496 0.936780
O O13 0.565481 0.500000 0.944144
O O14 0.585126 0.761530 0.000000
O O15 0.250000 0.750000 0.250000
O O16 0.184732 0.000000 0.274593
O O17 0.500000 0.817965 0.500000
O O18 0.406406 0.000000 0.500000
O O19 0.294702 0.764544 0.500000
O O20 0.296831 0.500000 0.557878
#
# Coordination Sequence:
#
# PCOD9520199 Si02
#       7
#    16  16  16  16  16   8  16
#     4  10  22  40  62  89 121 156 197 247 301 359
#     4  10  21  36  57  82 106 140 190 239 280 334
#     4  10  19  34  57  83 110 146 191 234 278 332
#     4   8  14  27  50  80 109 133 161 208 270 327
#     4  11  24  41  61  86 115 153 202 254 306 356
#     4   9  16  28  51  81 107 133 174 227 272 311
#     4  11  23  36  52  80 119 155 187 229 286 349
#
# _framework density 21.783819000000001
#
# number of rings (size 3 to 8) (size 9 to 14) (size 15 to 20)
#    0.000    2.077    0.769    3.231    0.000    9.846 
#    0.000    1.538    0.000    2.308    0.000    2.154 
#    0.000    0.000    0.000    0.000    0.000    0.000 
#
# Total GULP energy -289984.334237 kJ/mol
# GULP energy per Si atom -5576.621812 kJ/mol
# Density = 2.173424 g / cm^3
# Si number density = 21.783819 Si / 1000 Ang^3
#
#
#
# Elastic Constant Matrix: (Units=GPa)
#
#
# Indices 1 2 3 4 5 6 
#
# 1 142.2011 12.3052 69.5973 0.0000 0.0000 0.0000
# 2 12.3052 46.1747 15.3000 0.0000 0.0000 0.0000
# 3 69.5973 15.3000 91.8225 0.0000 0.0000 0.0000
# 4 0.0000 0.0000 0.0000 -7.7236 0.0000 0.0000
# 5 0.0000 0.0000 0.0000 0.0000 34.2598 0.0000
# 6 0.0000 0.0000 0.0000 0.0000 0.0000 13.3864
#
#
#
# Elastic Compliance Matrix: (Units=1/GPa)
#
#
# Indices 1 2 3 4 5 6 
#
# 1 0.011181 -0.000182 -0.008444 0.000000 0.000000 0.000000
# 2 -0.000182 0.022925 -0.003682 0.000000 0.000000 0.000000
# 3 -0.008444 -0.003682 0.017905 0.000000 0.000000 0.000000
# 4 0.000000 0.000000 0.000000 -0.129474 0.000000 0.000000
# 5 0.000000 0.000000 0.000000 0.000000 0.029189 0.000000
# 6 0.000000 0.000000 0.000000 0.000000 0.000000 0.074703
#
#
# Mechanical properties :
#
#
# Convention : Reuss Voigt Hill
#
# Bulk Modulus (GPa) = 36.50387 52.73369 44.61878
# Shear Modulus (GPa) = 83.08889 20.18424 51.63657
#
# Velocity S-wave (km/s) = 6.18266 3.04726 4.87397
# Velocity P-wave (km/s) = 8.23169 6.05321 7.22503
#
# Compressibility (1/GPa) = 0.02739435
#
# Stress axis : x y z
#
# Youngs Moduli (GPa) = 89.43806 43.61971 55.85154
#
# Poissons Ratio (x) = 0.00792 0.47163
# Poissons Ratio (y) = 0.01624 0.20566
# Poissons Ratio (z) = 0.75525 0.16062
#
# Static dielectric constant tensor:
#      x y z
#    x 1.850760 0.000000 0.000000 
#    y 0.000000 1.830190 0.000000 
#    z 0.000000 0.000000 1.846610 
# 
# From -- ./inp_files/66430.got.cif
#   From: 2010.05.17/outbox.cif.g08.bks.cpg/sg71_34_cif.got.tgz:66430.got - 2010.06.03 16:22:01.
