data_PCOD9520102
_publ_section_title
;
Structure prediction by ZEFSAII (Michael W. Deem and Ramdas Pophale) SiO2 
 PCOD9520102
Probable space group: I M M M
;
_chemical_formula_sum "Si O2"
_cell_formula_units_Z 64
_cell_length_a 8.621074
_cell_length_b 35.971544
_cell_length_c 11.507519
_cell_angle_alpha 90.000000
_cell_angle_beta 90.000000
_cell_angle_gamma 90.000000
_cell_volume 3568.635183
_symmetry_space_group_name_H-M "I M M M"
_symmetry_group_IT_number 71
_symmetry_cell_setting 'orthorhombic'
loop_
_space_group_symop_operation_xyz
x,y,z
-x,-y,z
x,-y,-z
-x,y,-z
-x,-y,-z
x,y,-z
-x,y,z
x,-y,z
1/2+x,1/2+y,1/2+z
1/2-x,1/2-y,1/2+z
1/2+x,1/2-y,1/2-z
1/2-x,1/2+y,1/2-z
1/2-x,1/2-y,1/2-z
1/2+x,1/2+y,1/2-z
1/2-x,1/2+y,1/2+z
1/2+x,1/2-y,1/2+z
loop_
_atom_site_type_symbol
_atom_site_label
_atom_site_fract_x
_atom_site_fract_y
_atom_site_fract_z
Si Si1 0.687310 0.927237 0.245767
Si Si2 0.176687 0.000000 0.638090
Si Si3 0.315418 0.270519 0.134509
Si Si4 0.181901 0.647700 0.135721
Si Si5 0.689150 0.042981 0.000000
O O1 0.500000 0.926202 0.249701
O O2 0.740978 0.962648 0.319122
O O3 0.742022 0.887509 0.292518
O O4 0.738539 0.935884 0.115193
O O5 0.175490 0.000000 0.500000
O O6 0.000000 0.000000 0.681876
O O7 0.500000 0.265367 0.134560
O O8 0.250000 0.250000 0.250000
O O9 0.272296 0.313902 0.149809
O O10 0.261124 0.260418 0.000000
O O11 0.000000 0.654423 0.164789
O O12 0.188395 0.637171 0.000000
O O13 0.500000 0.042017 0.000000
O O14 0.740561 0.000000 0.000000
#
# Coordination Sequence:
#
# PCOD9520102 Si02
#       5
#    16   8  16  16   8
#     4  10  19  34  55  76 102 139 182 221 263 320
#     4  11  23  34  47  72 104 135 172 225 278 319
#     4  10  21  38  61  87 116 151 187 226 277 335
#     4   9  18  33  54  80 109 141 179 225 273 322
#     4   9  16  30  52  76 102 136 178 222 264 306
#
# _framework density 17.934027
#
# number of rings (size 3 to 8) (size 9 to 14) (size 15 to 20)
#    0.000    2.250    1.250    1.875    0.000    4.500 
#    2.250    3.750    0.000    0.000    0.000    0.000 
#    0.000    0.000    0.000    0.000    0.000    0.000 
#
# Total GULP energy -178340.107103 kJ/mol
# GULP energy per Si atom -5573.128347 kJ/mol
# Density = 1.789321 g / cm^3
# Si number density = 17.934027 Si / 1000 Ang^3
#
#
#
# Elastic Constant Matrix: (Units=GPa)
#
#
# Indices 1 2 3 4 5 6 
#
# 1 23.5614 19.8348 31.4955 0.0000 0.0000 0.0000
# 2 19.8348 109.2897 82.4909 0.0002 0.0000 0.0000
# 3 31.4955 82.4909 132.8602 0.0003 0.0000 0.0001
# 4 0.0000 0.0002 0.0003 39.0283 0.0000 0.0000
# 5 0.0000 0.0000 0.0000 0.0000 20.1780 0.0000
# 6 0.0000 0.0000 0.0001 0.0000 0.0000 19.8133
#
#
#
# Elastic Compliance Matrix: (Units=1/GPa)
#
#
# Indices 1 2 3 4 5 6 
#
# 1 0.062136 -0.000299 -0.014544 0.000000 0.000000 0.000000
# 2 -0.000299 0.017221 -0.010622 0.000000 0.000000 0.000000
# 3 -0.014544 -0.010622 0.017569 0.000000 0.000000 0.000000
# 4 0.000000 0.000000 0.000000 0.025622 0.000000 0.000000
# 5 0.000000 0.000000 0.000000 0.000000 0.049559 0.000000
# 6 0.000000 0.000000 0.000000 0.000000 0.000000 0.050471
#
#
# Mechanical properties :
#
#
# Convention : Reuss Voigt Hill
#
# Bulk Modulus (GPa) = 21.74062 59.26151 40.50107
# Shear Modulus (GPa) = 17.31058 24.59657 20.95358
#
# Velocity S-wave (km/s) = 3.11020 3.70740 3.42185
# Velocity P-wave (km/s) = 5.00466 7.17233 6.18421
#
# Compressibility (1/GPa) = 0.04599684
#
# Stress axis : x y z
#
# Youngs Moduli (GPa) = 16.09380 58.06747 56.91779
#
# Poissons Ratio (x) = 0.01738 0.82781
# Poissons Ratio (y) = 0.00482 0.60455
# Poissons Ratio (z) = 0.23407 0.61677
#
# Static dielectric constant tensor:
#      x y z
#    x 1.634630 0.000000 0.000000 
#    y 0.000000 1.584540 0.000000 
#    z 0.000000 0.000000 1.619850 
# 
# From -- ./inp_files/3806.got.cif
#   From: 2010.05.17/outbox.cif.g08.bks.cpg/sg71_2_cif.got.tgz:3806.got - 2010.06.03 16:22:01.
