data_PCOD9520036
_publ_section_title
;
Structure prediction by ZEFSAII (Michael W. Deem and Ramdas Pophale) SiO2 
 PCOD9520036
Probable space group: I M M M
;
_chemical_formula_sum "Si O2"
_cell_formula_units_Z 64
_cell_length_a 7.237886
_cell_length_b 11.103431
_cell_length_c 34.193991
_cell_angle_alpha 90.000000
_cell_angle_beta 90.000000
_cell_angle_gamma 90.000000
_cell_volume 2748.012663
_symmetry_space_group_name_H-M "I M M M"
_symmetry_group_IT_number 71
_symmetry_cell_setting 'orthorhombic'
loop_
_space_group_symop_operation_xyz
x,y,z
-x,-y,z
x,-y,-z
-x,y,-z
-x,-y,-z
x,y,-z
-x,y,z
x,-y,z
1/2+x,1/2+y,1/2+z
1/2-x,1/2-y,1/2+z
1/2+x,1/2-y,1/2-z
1/2-x,1/2+y,1/2-z
1/2-x,1/2-y,1/2-z
1/2+x,1/2+y,1/2-z
1/2-x,1/2+y,1/2+z
1/2+x,1/2-y,1/2+z
loop_
_atom_site_type_symbol
_atom_site_label
_atom_site_fract_x
_atom_site_fract_y
_atom_site_fract_z
Si Si1 0.776817 0.000000 0.045467
Si Si2 0.210895 0.000000 0.808456
Si Si3 0.792064 0.641074 0.000000
Si Si4 0.275412 0.752952 0.579797
Si Si5 0.776242 0.500000 0.783125
Si Si6 0.225548 0.266497 0.167341
O O1 0.723337 0.883374 0.069755
O O2 0.000000 0.000000 0.043480
O O3 0.713919 0.000000 0.000000
O O4 0.213468 0.000000 0.761549
O O5 0.287431 0.869348 0.821479
O O6 0.000000 0.000000 0.823656
O O7 0.709162 0.677597 0.041350
O O8 0.808194 0.500000 0.000000
O O9 0.000000 0.697688 0.000000
O O10 0.500000 0.762528 0.580821
O O11 0.216495 0.791705 0.622711
O O12 0.716893 0.376791 0.804848
O O13 0.000000 0.500000 0.783110
O O14 0.000000 0.264972 0.169054
#
# Coordination Sequence:
#
# PCOD9520036 Si02
#       6
#     8   8   8  16   8  16
#     4   9  13  19  30  46  68 100 145 182 205 239
#     4  10  19  34  51  68  90 120 154 187 230 278
#     4   9  16  21  29  47  75 112 148 175 205 251
#     4   9  15  23  34  51  77 110 147 180 209 253
#     4  10  20  33  49  70  92 118 152 190 232 274
#     4   9  18  29  44  64  88 119 154 188 224 271
#
# _framework density 23.289558
#
# number of rings (size 3 to 8) (size 9 to 14) (size 15 to 20)
#    0.000    2.750    1.250    1.500    1.750    3.000 
#    0.000    0.000    0.000    0.000    0.000    0.000 
#    0.000    0.000    0.000    6.750    0.000    7.500 
#
# Total GULP energy -178641.856392 kJ/mol
# GULP energy per Si atom -5582.558012 kJ/mol
# Density = 2.323655 g / cm^3
# Si number density = 23.289558 Si / 1000 Ang^3
#
#
#
# Elastic Constant Matrix: (Units=GPa)
#
#
# Indices 1 2 3 4 5 6 
#
# 1 106.2180 2.3457 -6.6674 0.0000 0.0000 0.0000
# 2 2.3457 126.7013 53.7172 0.0000 0.0000 0.0000
# 3 -6.6674 53.7172 164.2014 0.0000 0.0000 0.0000
# 4 0.0000 0.0000 0.0000 -229.7047 0.0000 0.0000
# 5 0.0000 0.0000 0.0000 0.0000 -279.4308 0.0000
# 6 0.0000 0.0000 0.0000 0.0000 0.0000 17.4721
#
#
#
# Elastic Compliance Matrix: (Units=1/GPa)
#
#
# Indices 1 2 3 4 5 6 
#
# 1 0.009455 -0.000392 0.000512 0.000000 0.000000 0.000000
# 2 -0.000392 0.009180 -0.003019 0.000000 0.000000 0.000000
# 3 0.000512 -0.003019 0.007099 0.000000 0.000000 0.000000
# 4 0.000000 0.000000 0.000000 -0.004353 0.000000 0.000000
# 5 0.000000 0.000000 0.000000 0.000000 -0.003579 0.000000
# 6 0.000000 0.000000 0.000000 0.000000 0.000000 0.057234
#
#
# Mechanical properties :
#
#
# Convention : Reuss Voigt Hill
#
# Bulk Modulus (GPa) = 50.16117 55.10131 52.63124
# Shear Modulus (GPa) = 57.15666 -75.15098 -8.99716
#
# Velocity S-wave (km/s) = 4.95934 -5.68666 -1.96763
# Velocity P-wave (km/s) = 7.37416 4.40533 4.18158
#
# Compressibility (1/GPa) = 0.01993574
#
# Stress axis : x y z
#
# Youngs Moduli (GPa) = 105.75950 108.93473 140.87415
#
# Poissons Ratio (x) = 0.04273 -0.07216
# Poissons Ratio (y) = 0.04148 0.42530
# Poissons Ratio (z) = -0.05418 0.32888
#
# Static dielectric constant tensor:
#      x y z
#    x 2.076300 0.000000 0.000000 
#    y 0.000000 2.070340 0.000000 
#    z 0.000000 0.000000 1.841830 
# 
# From -- ./inp_files/64216.got.cif
#   From: 2010.05.17/outbox.cif.g08.bks.cpg/sg71_33_cif.got.tgz:64216.got - 2010.06.03 16:22:01.
