data_PCOD9520404
_publ_section_title
;
Structure prediction by ZEFSAII (Michael W. Deem and Ramdas Pophale) SiO2 
 PCOD9520404
Probable space group: I M M M
;
_chemical_formula_sum "Si O2"
_cell_formula_units_Z 72
_cell_length_a 23.158247
_cell_length_b 19.430676
_cell_length_c 8.731881
_cell_angle_alpha 90.000000
_cell_angle_beta 90.000000
_cell_angle_gamma 90.000000
_cell_volume 3929.175254
_symmetry_space_group_name_H-M "I M M M"
_symmetry_group_IT_number 71
_symmetry_cell_setting 'orthorhombic'
loop_
_space_group_symop_operation_xyz
x,y,z
-x,-y,z
x,-y,-z
-x,y,-z
-x,-y,-z
x,y,-z
-x,y,z
x,-y,z
1/2+x,1/2+y,1/2+z
1/2-x,1/2-y,1/2+z
1/2+x,1/2-y,1/2-z
1/2-x,1/2+y,1/2-z
1/2-x,1/2-y,1/2-z
1/2+x,1/2+y,1/2-z
1/2-x,1/2+y,1/2+z
1/2+x,1/2-y,1/2+z
loop_
_atom_site_type_symbol
_atom_site_label
_atom_site_fract_x
_atom_site_fract_y
_atom_site_fract_z
Si Si1 0.500000 0.078931 0.686695
Si Si2 0.107716 0.672773 0.184847
Si Si3 0.167260 0.919800 0.316812
Si Si4 0.733204 0.824496 0.182415
Si Si5 0.933033 0.827916 0.815621
O O1 0.500000 0.079016 0.500000
O O2 0.557225 0.120539 0.732938
O O3 0.500000 0.000000 0.738186
O O4 0.168969 0.658110 0.260942
O O5 0.087995 0.750608 0.222099
O O6 0.113744 0.668862 0.000000
O O7 0.172015 0.914610 0.500000
O O8 0.220605 0.879535 0.241989
O O9 0.109061 0.882272 0.262285
O O10 0.167097 0.000000 0.273703
O O11 0.750000 0.750000 0.250000
O O12 0.735399 0.820702 0.000000
O O13 0.000000 0.836028 0.772373
O O14 0.928872 0.834933 0.000000
#
# Coordination Sequence:
#
# PCOD9520404 Si02
#       5
#     8  16  16  16  16
#     4   9  18  34  59  91 126 161 198 242 292 348
#     4  10  19  35  60  90 121 158 204 247 291 350
#     4  11  25  43  62  88 122 159 202 254 308 361
#     4  12  24  39  62  91 121 158 203 250 303 362
#     4  10  20  36  61  90 120 160 205 249 296 359
#
# _framework density 18.324456999999999
#
# number of rings (size 3 to 8) (size 9 to 14) (size 15 to 20)
#    0.000    1.444    3.333    2.667    0.000    3.556 
#    0.000    5.000    0.000    0.667    0.000    0.000 
#    0.000    0.000    0.000    0.000    0.000    0.000 
#
# Total GULP energy -201222.924878 kJ/mol
# GULP energy per Si atom -5589.525691 kJ/mol
# Density = 1.828275 g / cm^3
# Si number density = 18.324457 Si / 1000 Ang^3
#
#
#
# Elastic Constant Matrix: (Units=GPa)
#
#
# Indices 1 2 3 4 5 6 
#
# 1 194.8100 101.0357 64.0674 0.0000 0.0000 0.0000
# 2 101.0357 170.1677 64.0814 0.0000 0.0000 0.0000
# 3 64.0674 64.0814 56.5085 0.0000 0.0000 0.0000
# 4 0.0000 0.0000 0.0000 24.1610 0.0000 0.0000
# 5 0.0000 0.0000 0.0000 0.0000 35.3347 0.0000
# 6 0.0000 0.0000 0.0000 0.0000 0.0000 33.5242
#
#
#
# Elastic Compliance Matrix: (Units=1/GPa)
#
#
# Indices 1 2 3 4 5 6 
#
# 1 0.008779 -0.002556 -0.007055 0.000000 0.000000 0.000000
# 2 -0.002556 0.011000 -0.009577 0.000000 0.000000 0.000000
# 3 -0.007055 -0.009577 0.036556 0.000000 0.000000 0.000000
# 4 0.000000 0.000000 0.000000 0.041389 0.000000 0.000000
# 5 0.000000 0.000000 0.000000 0.000000 0.028301 0.000000
# 6 0.000000 0.000000 0.000000 0.000000 0.000000 0.029829
#
#
# Mechanical properties :
#
#
# Convention : Reuss Voigt Hill
#
# Bulk Modulus (GPa) = 55.68096 97.76169 76.72132
# Shear Modulus (GPa) = 24.97291 31.42407 28.19849
#
# Velocity S-wave (km/s) = 3.69564 4.14559 3.92707
# Velocity P-wave (km/s) = 6.97585 8.73961 7.90706
#
# Compressibility (1/GPa) = 0.01795946
#
# Stress axis : x y z
#
# Youngs Moduli (GPa) = 113.91021 90.90497 27.35527
#
# Poissons Ratio (x) = 0.23231 0.19299
# Poissons Ratio (y) = 0.29111 0.26199
# Poissons Ratio (z) = 0.80365 0.87062
#
# Static dielectric constant tensor:
#      x y z
#    x 1.606250 0.000000 0.000000 
#    y 0.000000 1.604690 0.000000 
#    z 0.000000 0.000000 1.619960 
# 
# From -- ./inp_files/9915.got.cif
#   From: 2010.05.17/outbox.cif.g08.bks.cpg/sg71_5_cif.got.tgz:9915.got - 2010.06.03 16:22:01.
