data_PCOD9520483
_publ_section_title
;
Structure prediction by ZEFSAII (Michael W. Deem and Ramdas Pophale) SiO2 
 PCOD9520483
Probable space group: I M M M
;
_chemical_formula_sum "Si O2"
_cell_formula_units_Z 120
_cell_length_a 19.443481
_cell_length_b 13.836921
_cell_length_c 23.790246
_cell_angle_alpha 90.000000
_cell_angle_beta 90.000000
_cell_angle_gamma 90.000000
_cell_volume 6400.478076
_symmetry_space_group_name_H-M "I M M M"
_symmetry_group_IT_number 71
_symmetry_cell_setting 'orthorhombic'
loop_
_space_group_symop_operation_xyz
x,y,z
-x,-y,z
x,-y,-z
-x,y,-z
-x,-y,-z
x,y,-z
-x,y,z
x,-y,z
1/2+x,1/2+y,1/2+z
1/2-x,1/2-y,1/2+z
1/2+x,1/2-y,1/2-z
1/2-x,1/2+y,1/2-z
1/2-x,1/2-y,1/2-z
1/2+x,1/2+y,1/2-z
1/2-x,1/2+y,1/2+z
1/2+x,1/2-y,1/2+z
loop_
_atom_site_type_symbol
_atom_site_label
_atom_site_fract_x
_atom_site_fract_y
_atom_site_fract_z
Si Si1 0.278167 0.392951 0.359409
Si Si2 0.581811 0.500000 0.935063
Si Si3 0.078381 0.287132 0.252792
Si Si4 0.673531 0.387551 0.769672
Si Si5 0.622250 0.292783 0.064447
Si Si6 0.387918 0.891033 0.136845
Si Si7 0.288224 0.214836 0.435896
Si Si8 0.183588 0.612321 0.170972
O O1 0.297249 0.500000 0.379274
O O2 0.304533 0.381796 0.295911
O O3 0.195195 0.388197 0.357380
O O4 0.305128 0.312416 0.401789
O O5 0.500000 0.500000 0.936856
O O6 0.604560 0.602386 0.909660
O O7 0.609134 0.500000 0.000000
O O8 0.113282 0.189616 0.276859
O O9 0.081992 0.365755 0.302494
O O10 0.125934 0.326438 0.202672
O O11 0.000000 0.270582 0.235813
O O12 0.656769 0.500000 0.781871
O O13 0.740847 0.358681 0.805580
O O14 0.594569 0.198248 0.096012
O O15 0.705043 0.288561 0.062914
O O16 0.596510 0.291928 0.000000
O O17 0.406714 0.000000 0.118578
O O18 0.312437 0.212558 0.500000
O O19 0.315301 0.130663 0.395473
O O20 0.174699 0.500000 0.184863
#
# Coordination Sequence:
#
# PCOD9520483 Si02
#       8
#    16   8  16  16  16  16  16  16
#     4   9  16  31  58  86 113 143 180 230 282 342
#     4   9  18  34  54  72 102 150 197 233 274 340
#     4  12  24  38  57  84 119 151 188 241 293 348
#     4  10  19  36  63  88 112 146 189 236 289 350
#     4   9  19  34  54  82 113 147 188 236 289 341
#     4  10  20  35  55  81 113 149 188 231 285 338
#     4  10  20  33  53  84 118 146 183 239 290 336
#     4  11  22  37  60  85 112 153 197 237 288 347
#
# _framework density 18.7486
#
# number of rings (size 3 to 8) (size 9 to 14) (size 15 to 20)
#    0.000    1.933    2.667    2.400    0.933    2.667 
#    1.200    2.667    0.000    0.400    0.000    3.733 
#    0.000    2.133    0.000    0.000    0.000    0.000 
#
# Total GULP energy -334958.047002 kJ/mol
# GULP energy per Si atom -5582.634117 kJ/mol
# Density = 1.870593 g / cm^3
# Si number density = 18.748600 Si / 1000 Ang^3
#
#
#
# Elastic Constant Matrix: (Units=GPa)
#
#
# Indices 1 2 3 4 5 6 
#
# 1 54.3742 30.9906 14.3316 0.0000 0.0000 0.0000
# 2 30.9906 125.3210 28.7578 0.0000 0.0000 0.0000
# 3 14.3316 28.7578 88.0815 0.0000 0.0000 0.0000
# 4 0.0000 0.0000 0.0000 27.2157 0.0000 0.0000
# 5 0.0000 0.0000 0.0000 0.0000 0.0760 0.0000
# 6 0.0000 0.0000 0.0000 0.0000 0.0000 3.1238
#
#
#
# Elastic Compliance Matrix: (Units=1/GPa)
#
#
# Indices 1 2 3 4 5 6 
#
# 1 0.021706 -0.004926 -0.001923 0.000000 0.000000 0.000000
# 2 -0.004926 0.009744 -0.002380 0.000000 0.000000 0.000000
# 3 -0.001923 -0.002380 0.012443 0.000000 0.000000 0.000000
# 4 0.000000 0.000000 0.000000 0.036743 0.000000 0.000000
# 5 0.000000 0.000000 0.000000 0.000000 13.160182 0.000000
# 6 0.000000 0.000000 0.000000 0.000000 0.000000 0.320124
#
#
# Mechanical properties :
#
#
# Convention : Reuss Voigt Hill
#
# Bulk Modulus (GPa) = 39.31753 46.21518 42.76635
# Shear Modulus (GPa) = 0.36798 18.99622 9.68210
#
# Velocity S-wave (km/s) = 0.44350 3.18654 2.27495
# Velocity P-wave (km/s) = 4.61288 6.18403 5.45531
#
# Compressibility (1/GPa) = 0.02543395
#
# Stress axis : x y z
#
# Youngs Moduli (GPa) = 46.07075 102.62938 80.36636
#
# Poissons Ratio (x) = 0.50558 0.15457
# Poissons Ratio (y) = 0.22696 0.19125
# Poissons Ratio (z) = 0.08861 0.24423
#
# Static dielectric constant tensor:
#      x y z
#    x 1.630450 0.000000 0.000000 
#    y 0.000000 1.697790 0.000000 
#    z 0.000000 0.000000 1.658990 
# 
# From -- ./inp_files/55115.got.cif
#   From: 2010.05.17/outbox.cif.g08.bks.cpg/sg71_28_cif.got.tgz:55115.got - 2010.06.03 16:22:01.
