data_PCOD9520288
_publ_section_title
;
Structure prediction by ZEFSAII (Michael W. Deem and Ramdas Pophale) SiO2 
 PCOD9520288
Probable space group: I M M M
;
_chemical_formula_sum "Si O2"
_cell_formula_units_Z 96
_cell_length_a 7.834783
_cell_length_b 24.450179
_cell_length_c 26.154884
_cell_angle_alpha 90.000000
_cell_angle_beta 90.000000
_cell_angle_gamma 90.000000
_cell_volume 5010.277881
_symmetry_space_group_name_H-M "I M M M"
_symmetry_group_IT_number 71
_symmetry_cell_setting 'orthorhombic'
loop_
_space_group_symop_operation_xyz
x,y,z
-x,-y,z
x,-y,-z
-x,y,-z
-x,-y,-z
x,y,-z
-x,y,z
x,-y,z
1/2+x,1/2+y,1/2+z
1/2-x,1/2-y,1/2+z
1/2+x,1/2-y,1/2-z
1/2-x,1/2+y,1/2-z
1/2-x,1/2-y,1/2-z
1/2+x,1/2+y,1/2-z
1/2-x,1/2+y,1/2+z
1/2+x,1/2-y,1/2+z
loop_
_atom_site_type_symbol
_atom_site_label
_atom_site_fract_x
_atom_site_fract_y
_atom_site_fract_z
Si Si1 0.206469 0.884405 0.345745
Si Si2 0.794306 0.691441 0.441966
Si Si3 0.801138 0.500000 0.799922
Si Si4 0.291525 0.315807 0.058369
Si Si5 0.294590 0.313337 0.749511
Si Si6 0.295099 0.618004 0.652782
Si Si7 0.200202 0.000000 0.817259
O O1 0.257575 0.945781 0.331753
O O2 0.266499 0.859188 0.399469
O O3 0.266785 0.845126 0.299800
O O4 0.000000 0.882987 0.346356
O O5 0.735677 0.680145 0.500000
O O6 0.738871 0.753492 0.428192
O O7 0.740450 0.646987 0.400768
O O8 0.000000 0.692310 0.442693
O O9 0.711108 0.500000 0.744488
O O10 0.000000 0.500000 0.788138
O O11 0.500000 0.316120 0.058493
O O12 0.237885 0.327108 0.000000
O O13 0.500000 0.317345 0.749628
O O14 0.250000 0.250000 0.750000
O O15 0.229544 0.343689 0.698778
O O16 0.500000 0.615155 0.658623
O O17 0.226629 0.556609 0.660758
O O18 0.000000 0.000000 0.830814
#
# Coordination Sequence:
#
# PCOD9520288 Si02
#       7
#    16  16   8  16  16  16   8
#     4  10  19  35  56  75 104 143 177 215 265 317
#     4   9  18  34  56  81 110 141 172 213 265 315
#     4  12  24  36  53  78 105 137 180 226 266 315
#     4   8  15  30  55  83 105 134 179 220 256 306
#     4  10  20  32  50  77 106 138 172 213 267 321
#     4  10  20  34  54  77 102 136 179 220 260 312
#     4  10  20  40  59  72 101 143 184 220 260 313
#
# _framework density 19.160613999999999
#
# number of rings (size 3 to 8) (size 9 to 14) (size 15 to 20)
#    0.000    2.333    1.667    2.750    0.000    3.667 
#    0.000    1.667    0.000    6.500    0.000    0.000 
#    0.000    0.000    0.000    0.000    0.000    0.000 
#
# Total GULP energy -267880.869106 kJ/mol
# GULP energy per Si atom -5580.851440 kJ/mol
# Density = 1.911700 g / cm^3
# Si number density = 19.160614 Si / 1000 Ang^3
#
#
#
# Elastic Constant Matrix: (Units=GPa)
#
#
# Indices 1 2 3 4 5 6 
#
# 1 17.4160 -0.1867 -4.0950 0.0000 0.0000 0.0000
# 2 -0.1867 197.4200 106.7911 0.0000 0.0000 0.0000
# 3 -4.0950 106.7911 126.5210 0.0000 0.0000 0.0000
# 4 0.0000 0.0000 0.0000 26.2279 0.0000 0.0000
# 5 0.0000 0.0000 0.0000 0.0000 15.7204 0.0000
# 6 0.0000 0.0000 0.0000 0.0000 0.0000 24.2808
#
#
#
# Elastic Compliance Matrix: (Units=1/GPa)
#
#
# Indices 1 2 3 4 5 6 
#
# 1 0.058194 -0.001774 0.003381 0.000000 0.000000 0.000000
# 2 -0.001774 0.009375 -0.007971 0.000000 0.000000 0.000000
# 3 0.003381 -0.007971 0.014741 0.000000 0.000000 0.000000
# 4 0.000000 0.000000 0.000000 0.038127 0.000000 0.000000
# 5 0.000000 0.000000 0.000000 0.000000 0.063612 0.000000
# 6 0.000000 0.000000 0.000000 0.000000 0.000000 0.041185
#
#
# Mechanical properties :
#
#
# Convention : Reuss Voigt Hill
#
# Bulk Modulus (GPa) = 14.37127 60.70841 37.53984
# Shear Modulus (GPa) = 19.14562 29.16900 24.15731
#
# Velocity S-wave (km/s) = 3.16447 3.90595 3.55460
# Velocity P-wave (km/s) = 4.56821 7.21767 6.04000
#
# Compressibility (1/GPa) = 0.06958327
#
# Stress axis : x y z
#
# Youngs Moduli (GPa) = 17.18376 106.66352 67.83817
#
# Poissons Ratio (x) = 0.18918 -0.22933
# Poissons Ratio (y) = 0.03048 0.54072
# Poissons Ratio (z) = -0.05809 0.85018
#
# Static dielectric constant tensor:
#      x y z
#    x 1.713610 0.000000 0.000000 
#    y 0.000000 1.651780 0.000000 
#    z 0.000000 0.000000 1.655670 
# 
# From -- ./inp_files/12898.got.cif
#   From: 2010.05.17/outbox.cif.g08.bks.cpg/sg71_7_cif.got.tgz:12898.got - 2010.06.03 16:22:01.
