data_PCOD9520599
_publ_section_title
;
Structure prediction by ZEFSAII (Michael W. Deem and Ramdas Pophale) SiO2 
 PCOD9520599
Probable space group: I M M M
;
_chemical_formula_sum "Si O2"
_cell_formula_units_Z 104
_cell_length_a 9.251698
_cell_length_b 27.300315
_cell_length_c 23.647018
_cell_angle_alpha 90.000000
_cell_angle_beta 90.000000
_cell_angle_gamma 90.000000
_cell_volume 5972.628302
_symmetry_space_group_name_H-M "I M M M"
_symmetry_group_IT_number 71
_symmetry_cell_setting 'orthorhombic'
loop_
_space_group_symop_operation_xyz
x,y,z
-x,-y,z
x,-y,-z
-x,y,-z
-x,-y,-z
x,y,-z
-x,y,z
x,-y,z
1/2+x,1/2+y,1/2+z
1/2-x,1/2-y,1/2+z
1/2+x,1/2-y,1/2-z
1/2-x,1/2+y,1/2-z
1/2-x,1/2-y,1/2-z
1/2+x,1/2+y,1/2-z
1/2-x,1/2+y,1/2+z
1/2+x,1/2-y,1/2+z
loop_
_atom_site_type_symbol
_atom_site_label
_atom_site_fract_x
_atom_site_fract_y
_atom_site_fract_z
Si Si1 0.172202 0.691425 0.563310
Si Si2 0.176981 0.500000 0.933558
Si Si3 0.827156 0.000000 0.141540
Si Si4 0.167920 0.583301 0.152108
Si Si5 0.833195 0.216875 0.173389
Si Si6 0.331309 0.173792 0.724274
Si Si7 0.670334 0.587982 0.436084
Si Si8 0.339702 0.000000 0.746180
O O1 0.206283 0.710346 0.500000
O O2 0.248411 0.718567 0.614660
O O3 0.235681 0.636678 0.566492
O O4 0.000000 0.691378 0.570003
O O5 0.226178 0.450676 0.899598
O O6 0.000000 0.500000 0.929468
O O7 0.214955 0.500000 0.000000
O O8 0.777846 0.951710 0.108634
O O9 0.776552 0.000000 0.205312
O O10 0.000000 0.000000 0.137667
O O11 0.226019 0.634369 0.178110
O O12 0.171748 0.546540 0.205293
O O13 0.000000 0.593502 0.137087
O O14 0.758384 0.179425 0.217705
O O15 0.829470 0.271594 0.198736
O O16 0.000000 0.202828 0.164945
O O17 0.500000 0.161159 0.736659
O O18 0.679679 0.567783 0.500000
O O19 0.500000 0.599532 0.426359
O O20 0.500000 0.000000 0.772142
#
# Coordination Sequence:
#
# PCOD9520599 Si02
#       8
#    16   8   8  16  16  16  16   8
#     4  10  21  36  53  72  96 130 171 212 254 302
#     4   8  13  24  46  75 105 133 160 195 243 300
#     4  10  20  31  45  69  97 123 158 202 244 293
#     4   8  15  29  47  69  99 132 164 198 240 290
#     4  10  20  33  51  75 101 131 170 214 259 305
#     4   9  18  33  52  74 102 135 168 206 252 305
#     4   9  18  33  50  67  92 127 163 203 250 295
#     4   9  18  30  45  68  98 132 162 192 237 290
#
# _framework density 17.412769000000001
#
# number of rings (size 3 to 8) (size 9 to 14) (size 15 to 20)
#    0.000    2.846    0.000    2.077    2.154    3.077 
#    0.000    0.769    0.000    5.077    0.000    0.000 
#    0.000   10.462    0.000    0.000    0.000    0.000 
#
# Total GULP energy -289479.712533 kJ/mol
# GULP energy per Si atom -5566.917549 kJ/mol
# Density = 1.737314 g / cm^3
# Si number density = 17.412769 Si / 1000 Ang^3
#
#
#
# Elastic Constant Matrix: (Units=GPa)
#
#
# Indices 1 2 3 4 5 6 
#
# 1 47.1621 10.7153 38.9478 0.0000 0.0000 0.0000
# 2 10.7153 45.7640 19.6902 0.0000 0.0000 0.0000
# 3 38.9478 19.6902 98.1458 0.0000 0.0000 0.0000
# 4 0.0000 0.0000 0.0000 19.0704 0.0000 0.0000
# 5 0.0000 0.0000 0.0000 0.0000 26.0334 0.0000
# 6 0.0000 0.0000 0.0000 0.0000 0.0000 12.7136
#
#
#
# Elastic Compliance Matrix: (Units=1/GPa)
#
#
# Indices 1 2 3 4 5 6 
#
# 1 0.031741 -0.002203 -0.012154 0.000000 0.000000 0.000000
# 2 -0.002203 0.024068 -0.003955 0.000000 0.000000 0.000000
# 3 -0.012154 -0.003955 0.015805 0.000000 0.000000 0.000000
# 4 0.000000 0.000000 0.000000 0.052437 0.000000 0.000000
# 5 0.000000 0.000000 0.000000 0.000000 0.038412 0.000000
# 6 0.000000 0.000000 0.000000 0.000000 0.000000 0.078656
#
#
# Mechanical properties :
#
#
# Convention : Reuss Voigt Hill
#
# Bulk Modulus (GPa) = 28.57758 36.64205 32.60981
# Shear Modulus (GPa) = 17.27671 19.67806 18.47738
#
# Velocity S-wave (km/s) = 3.15332 3.36533 3.26105
# Velocity P-wave (km/s) = 5.45026 6.01577 5.73999
#
# Compressibility (1/GPa) = 0.03499247
#
# Stress axis : x y z
#
# Youngs Moduli (GPa) = 31.50496 41.54818 63.26922
#
# Poissons Ratio (x) = 0.09151 0.76898
# Poissons Ratio (y) = 0.06939 0.25020
# Poissons Ratio (z) = 0.38291 0.16431
#
# Static dielectric constant tensor:
#      x y z
#    x 1.584990 0.000000 0.000000 
#    y 0.000000 1.602110 0.000000 
#    z 0.000000 0.000000 1.602940 
# 
# From -- ./inp_files/58057.got.cif
#   From: 2010.05.17/outbox.cif.g08.bks.cpg/sg71_30_cif.got.tgz:58057.got - 2010.06.03 16:22:01.
