data_PCOD9520963
_publ_section_title
;
Structure prediction by ZEFSAII (Michael W. Deem and Ramdas Pophale) SiO2 
 PCOD9520963
Probable space group: I M M M
;
_chemical_formula_sum "Si O2"
_cell_formula_units_Z 96
_cell_length_a 11.126005
_cell_length_b 27.340526
_cell_length_c 17.394055
_cell_angle_alpha 90.000000
_cell_angle_beta 90.000000
_cell_angle_gamma 90.000000
_cell_volume 5291.112010
_symmetry_space_group_name_H-M "I M M M"
_symmetry_group_IT_number 71
_symmetry_cell_setting 'orthorhombic'
loop_
_space_group_symop_operation_xyz
x,y,z
-x,-y,z
x,-y,-z
-x,y,-z
-x,-y,-z
x,y,-z
-x,y,z
x,-y,z
1/2+x,1/2+y,1/2+z
1/2-x,1/2-y,1/2+z
1/2+x,1/2-y,1/2-z
1/2-x,1/2+y,1/2-z
1/2-x,1/2-y,1/2-z
1/2+x,1/2+y,1/2-z
1/2-x,1/2+y,1/2+z
1/2+x,1/2-y,1/2+z
loop_
_atom_site_type_symbol
_atom_site_label
_atom_site_fract_x
_atom_site_fract_y
_atom_site_fract_z
Si Si1 0.860592 0.186326 0.671200
Si Si2 0.367734 0.944618 0.311402
Si Si3 0.722643 0.131834 0.805990
Si Si4 0.355673 0.555635 0.411904
Si Si5 0.864004 0.084528 0.590587
Si Si6 0.142723 0.282363 0.586891
O O1 0.792132 0.165855 0.745028
O O2 0.857865 0.142522 0.608756
O O3 0.809056 0.235842 0.634613
O O4 0.000000 0.194343 0.692354
O O5 0.500000 0.939261 0.349927
O O6 0.358968 0.903962 0.245229
O O7 0.249932 0.937770 0.364820
O O8 0.362475 0.000000 0.280637
O O9 0.808066 0.095258 0.852874
O O10 0.662149 0.167913 0.866695
O O11 0.317059 0.565929 0.500000
O O12 0.500000 0.556200 0.411012
O O13 0.317456 0.500000 0.392753
O O14 0.854968 0.075042 0.500000
O O15 0.000000 0.068724 0.616015
O O16 0.191722 0.284681 0.500000
O O17 0.000000 0.273918 0.580983
#
# Coordination Sequence:
#
# PCOD9520963 Si02
#       6
#    16  16  16  16  16  16
#     4   9  18  32  51  76 104 131 161 205 261 310
#     4  10  22  37  51  72 106 144 176 212 264 318
#     4  11  19  32  52  75  98 131 174 215 250 303
#     4   9  18  32  50  74 104 136 171 216 270 319
#     4   9  18  34  57  82 106 135 175 220 260 304
#     4  10  20  33  50  72  98 129 166 208 254 306
#
# _framework density 18.143633999999999
#
# number of rings (size 3 to 8) (size 9 to 14) (size 15 to 20)
#    0.000    2.333    0.000    3.500    0.000    3.667 
#    0.000    1.667    0.000    1.000    0.000    7.000 
#    0.000    0.000    0.000    0.000    0.000    0.000 
#
# Total GULP energy -267445.752388 kJ/mol
# GULP energy per Si atom -5571.786508 kJ/mol
# Density = 1.810234 g / cm^3
# Si number density = 18.143634 Si / 1000 Ang^3
#
#
#
# Elastic Constant Matrix: (Units=GPa)
#
#
# Indices 1 2 3 4 5 6 
#
# 1 80.1966 34.8271 40.7235 0.0000 0.0000 0.0000
# 2 34.8271 104.7334 54.6323 0.0000 0.0000 0.0001
# 3 40.7235 54.6323 100.6613 0.0000 0.0000 0.0005
# 4 0.0000 0.0000 0.0000 16.5854 0.0000 0.0002
# 5 0.0000 0.0000 0.0000 0.0000 20.8930 -0.0002
# 6 0.0000 0.0001 0.0005 0.0002 -0.0002 6.4072
#
#
#
# Elastic Compliance Matrix: (Units=1/GPa)
#
#
# Indices 1 2 3 4 5 6 
#
# 1 0.016243 -0.002753 -0.005077 0.000000 0.000000 0.000000
# 2 -0.002753 0.013785 -0.006368 0.000000 0.000000 0.000000
# 3 -0.005077 -0.006368 0.015444 0.000000 0.000000 -0.000001
# 4 0.000000 0.000000 0.000000 0.060294 0.000000 -0.000002
# 5 0.000000 0.000000 0.000000 0.000000 0.047863 0.000001
# 6 0.000000 0.000000 -0.000001 -0.000002 0.000001 0.156074
#
#
# Mechanical properties :
#
#
# Convention : Reuss Voigt Hill
#
# Bulk Modulus (GPa) = 58.55979 60.66190 59.61085
# Shear Modulus (GPa) = 14.54365 19.13766 16.84066
#
# Velocity S-wave (km/s) = 2.83430 3.25127 3.04992
# Velocity P-wave (km/s) = 6.56176 6.89936 6.73268
#
# Compressibility (1/GPa) = 0.01707656
#
# Stress axis : x y z
#
# Youngs Moduli (GPa) = 61.56483 72.54135 64.74815
#
# Poissons Ratio (x) = 0.19970 0.32874
# Poissons Ratio (y) = 0.16948 0.41232
# Poissons Ratio (z) = 0.31258 0.46194
#
# Static dielectric constant tensor:
#      x y z
#    x 1.625310 0.000000 0.000000 
#    y 0.000000 1.624170 0.000000 
#    z 0.000000 0.000000 1.620480 
# 
# From -- ./inp_files/27423.got.cif
#   From: 2010.05.17/outbox.cif.g08.bks.cpg/sg71_14_cif.got.tgz:27423.got - 2010.06.03 16:22:01.
