data_PCOD9520526
_publ_section_title
;
Structure prediction by ZEFSAII (Michael W. Deem and Ramdas Pophale) SiO2 
 PCOD9520526
Probable space group: I M M M
;
_chemical_formula_sum "Si O2"
_cell_formula_units_Z 80
_cell_length_a 29.074512
_cell_length_b 9.043793
_cell_length_c 14.482979
_cell_angle_alpha 90.000000
_cell_angle_beta 90.000000
_cell_angle_gamma 90.000000
_cell_volume 3808.210520
_symmetry_space_group_name_H-M "I M M M"
_symmetry_group_IT_number 71
_symmetry_cell_setting 'orthorhombic'
loop_
_space_group_symop_operation_xyz
x,y,z
-x,-y,z
x,-y,-z
-x,y,-z
-x,-y,-z
x,y,-z
-x,y,z
x,-y,z
1/2+x,1/2+y,1/2+z
1/2-x,1/2-y,1/2+z
1/2+x,1/2-y,1/2-z
1/2-x,1/2+y,1/2-z
1/2-x,1/2-y,1/2-z
1/2+x,1/2+y,1/2-z
1/2-x,1/2+y,1/2+z
1/2+x,1/2-y,1/2+z
loop_
_atom_site_type_symbol
_atom_site_label
_atom_site_fract_x
_atom_site_fract_y
_atom_site_fract_z
Si Si1 0.339941 0.666776 0.870436
Si Si2 0.851970 0.831539 0.851860
Si Si3 0.261218 0.825300 0.651819
Si Si4 0.069532 0.325491 0.601450
Si Si5 0.449458 0.678537 0.702279
O O1 0.353461 0.500000 0.899042
O O2 0.343349 0.664672 0.758916
O O3 0.287513 0.694553 0.898807
O O4 0.376277 0.787617 0.900764
O O5 0.808182 0.741639 0.888300
O O6 0.904440 0.772210 0.855897
O O7 0.850633 0.000000 0.886326
O O8 0.250000 0.750000 0.750000
O O9 0.267743 0.000000 0.665039
O O10 0.051544 0.279613 0.500000
O O11 0.061368 0.500000 0.611912
O O12 0.052719 0.242381 0.693386
O O13 0.500000 0.714999 0.663718
O O14 0.445630 0.500000 0.708496
#
# Coordination Sequence:
#
# PCOD9520526 Si02
#       5
#    16  16  16  16  16
#     4   8  15  26  38  52  69  90 115 140 169 212
#     4   8  14  24  37  53  70  87 110 140 174 211
#     4   9  15  22  34  53  73  89 107 133 167 209
#     4  10  20  30  39  53  71  90 117 156 195 223
#     4   9  18  31  43  53  67  91 124 157 185 216
#
# _framework density 21.007242000000002
#
# number of rings (size 3 to 8) (size 9 to 14) (size 15 to 20)
#    0.000    3.200    0.000    3.600    0.000   10.400 
#    0.000    2.000    0.000    0.000    0.000    0.000 
#    0.000    0.000    0.000    0.000    0.000    1.000 
#
# Total GULP energy -222704.970524 kJ/mol
# GULP energy per Si atom -5567.624263 kJ/mol
# Density = 2.095943 g / cm^3
# Si number density = 21.007242 Si / 1000 Ang^3
#
#
#
# Elastic Constant Matrix: (Units=GPa)
#
#
# Indices 1 2 3 4 5 6 
#
# 1 198.1100 46.4278 -4.8695 0.0000 0.0000 0.0000
# 2 46.4278 37.4084 2.3637 0.0000 0.0000 0.0000
# 3 -4.8695 2.3637 36.5656 0.0000 0.0000 0.0000
# 4 0.0000 0.0000 0.0000 -42.1378 0.0000 0.0000
# 5 0.0000 0.0000 0.0000 0.0000 -29.0907 0.0000
# 6 0.0000 0.0000 0.0000 0.0000 0.0000 21.6990
#
#
#
# Elastic Compliance Matrix: (Units=1/GPa)
#
#
# Indices 1 2 3 4 5 6 
#
# 1 0.007204 -0.009038 0.001544 0.000000 0.000000 0.000000
# 2 -0.009038 0.038181 -0.003672 0.000000 0.000000 0.000000
# 3 0.001544 -0.003672 0.027791 0.000000 0.000000 0.000000
# 4 0.000000 0.000000 0.000000 -0.023732 0.000000 0.000000
# 5 0.000000 0.000000 0.000000 0.000000 -0.034375 0.000000
# 6 0.000000 0.000000 0.000000 0.000000 0.000000 0.046085
#
#
# Mechanical properties :
#
#
# Convention : Reuss Voigt Hill
#
# Bulk Modulus (GPa) = 19.66825 39.99201 29.83013
# Shear Modulus (GPa) = 49.78346 5.30490 27.54418
#
# Velocity S-wave (km/s) = 4.87336 1.59083 3.62494
# Velocity P-wave (km/s) = 6.40696 4.73845 5.63481
#
# Compressibility (1/GPa) = 0.05084337
#
# Stress axis : x y z
#
# Youngs Moduli (GPa) = 138.81606 26.19077 35.98282
#
# Poissons Ratio (x) = 0.23672 -0.05554
# Poissons Ratio (y) = 1.25465 0.13212
# Poissons Ratio (z) = -0.21428 0.09617
#
# Static dielectric constant tensor:
#      x y z
#    x 1.851960 0.000000 0.000000 
#    y 0.000000 1.708980 0.000000 
#    z 0.000000 0.000000 1.685490 
# 
# From -- ./inp_files/8584.got.cif
#   From: 2010.05.17/outbox.cif.g08.bks.cpg/sg71_5_cif.got.tgz:8584.got - 2010.06.03 16:22:01.
