data_PCOD9520744
_publ_section_title
;
Structure prediction by ZEFSAII (Michael W. Deem and Ramdas Pophale) SiO2 
 PCOD9520744
Probable space group: I M M M
;
_chemical_formula_sum "Si O2"
_cell_formula_units_Z 80
_cell_length_a 9.072294
_cell_length_b 18.585009
_cell_length_c 27.982535
_cell_angle_alpha 90.000000
_cell_angle_beta 90.000000
_cell_angle_gamma 90.000000
_cell_volume 4718.097888
_symmetry_space_group_name_H-M "I M M M"
_symmetry_group_IT_number 71
_symmetry_cell_setting 'orthorhombic'
loop_
_space_group_symop_operation_xyz
x,y,z
-x,-y,z
x,-y,-z
-x,y,-z
-x,-y,-z
x,y,-z
-x,y,z
x,-y,z
1/2+x,1/2+y,1/2+z
1/2-x,1/2-y,1/2+z
1/2+x,1/2-y,1/2-z
1/2-x,1/2+y,1/2-z
1/2-x,1/2-y,1/2-z
1/2+x,1/2+y,1/2-z
1/2-x,1/2+y,1/2+z
1/2+x,1/2-y,1/2+z
loop_
_atom_site_type_symbol
_atom_site_label
_atom_site_fract_x
_atom_site_fract_y
_atom_site_fract_z
Si Si1 0.825276 0.635105 0.691700
Si Si2 0.677702 0.581587 0.788013
Si Si3 0.324215 0.274276 0.553637
Si Si4 0.823994 0.419082 0.585722
Si Si5 0.677530 0.712967 0.853739
O O1 0.738793 0.604773 0.736568
O O2 0.798479 0.591653 0.642587
O O3 0.786048 0.717784 0.679316
O O4 0.000000 0.631675 0.701590
O O5 0.500000 0.583474 0.786253
O O6 0.724135 0.500000 0.798991
O O7 0.724149 0.640270 0.827301
O O8 0.288929 0.249278 0.500000
O O9 0.500000 0.275118 0.559574
O O10 0.261958 0.355121 0.560200
O O11 0.251109 0.227152 0.595252
O O12 0.783315 0.500000 0.571306
O O13 0.000000 0.409732 0.578011
O O14 0.500000 0.713388 0.859586
#
# Coordination Sequence:
#
# PCOD9520744 Si02
#       5
#    16  16  16  16  16
#     4   9  17  30  48  70  98 132 166 194 223 269
#     4  10  20  32  48  73 102 128 157 197 242 285
#     4  10  21  35  51  72  95 120 157 206 252 290
#     4   9  18  32  49  71 101 135 168 198 229 275
#     4   9  19  35  52  70  95 128 164 199 235 284
#
# _framework density 16.955985999999999
#
# number of rings (size 3 to 8) (size 9 to 14) (size 15 to 20)
#    0.000    2.600    0.000    3.000    0.000    7.600 
#    0.000    2.000    0.000    0.600    0.000    4.200 
#    0.000    0.000    0.000    0.000    0.000    0.000 
#
# Total GULP energy -223149.072309 kJ/mol
# GULP energy per Si atom -5578.726808 kJ/mol
# Density = 1.691739 g / cm^3
# Si number density = 16.955986 Si / 1000 Ang^3
#
#
#
# Elastic Constant Matrix: (Units=GPa)
#
#
# Indices 1 2 3 4 5 6 
#
# 1 11.8037 17.7540 19.4108 0.0000 0.0000 0.0000
# 2 17.7540 79.9958 30.4724 0.0000 0.0000 0.0000
# 3 19.4108 30.4724 60.5786 0.0000 0.0000 0.0000
# 4 0.0000 0.0000 0.0000 2.1240 0.0000 0.0000
# 5 0.0000 0.0000 0.0000 0.0000 29.2604 0.0000
# 6 0.0000 0.0000 0.0000 0.0000 0.0000 13.6908
#
#
#
# Elastic Compliance Matrix: (Units=1/GPa)
#
#
# Indices 1 2 3 4 5 6 
#
# 1 0.217538 -0.026878 -0.056184 0.000000 0.000000 0.000000
# 2 -0.026878 0.018785 -0.000837 0.000000 0.000000 0.000000
# 3 -0.056184 -0.000837 0.034931 0.000000 0.000000 0.000000
# 4 0.000000 0.000000 0.000000 0.470804 0.000000 0.000000
# 5 0.000000 0.000000 0.000000 0.000000 0.034176 0.000000
# 6 0.000000 0.000000 0.000000 0.000000 0.000000 0.073042
#
#
# Mechanical properties :
#
#
# Convention : Reuss Voigt Hill
#
# Bulk Modulus (GPa) = 9.66590 31.96138 20.81364
# Shear Modulus (GPa) = 4.75485 14.66445 9.70965
#
# Velocity S-wave (km/s) = 1.67640 2.94403 2.39558
# Velocity P-wave (km/s) = 3.07572 5.51788 4.46693
#
# Compressibility (1/GPa) = 0.10345651
#
# Stress axis : x y z
#
# Youngs Moduli (GPa) = 4.59689 53.23530 28.62771
#
# Poissons Ratio (x) = 1.43084 1.60843
# Poissons Ratio (y) = 0.12355 0.02396
# Poissons Ratio (z) = 0.25827 0.04455
#
# Static dielectric constant tensor:
#      x y z
#    x 1.564930 0.000000 0.000000 
#    y 0.000000 1.578560 0.000000 
#    z 0.000000 0.000000 1.556610 
# 
# From -- ./inp_files/8272.got.cif
#   From: 2010.05.17/outbox.cif.g08.bks.cpg/sg71_5_cif.got.tgz:8272.got - 2010.06.03 16:22:01.
