data_PCOD9520277
_publ_section_title
;
Structure prediction by ZEFSAII (Michael W. Deem and Ramdas Pophale) SiO2 
 PCOD9520277
Probable space group: I M M M
;
_chemical_formula_sum "Si O2"
_cell_formula_units_Z 82
_cell_length_a 24.841869
_cell_length_b 9.128997
_cell_length_c 20.603398
_cell_angle_alpha 90.000000
_cell_angle_beta 90.000000
_cell_angle_gamma 90.000000
_cell_volume 4672.466363
_symmetry_space_group_name_H-M "I M M M"
_symmetry_group_IT_number 71
_symmetry_cell_setting 'orthorhombic'
loop_
_space_group_symop_operation_xyz
x,y,z
-x,-y,z
x,-y,-z
-x,y,-z
-x,-y,-z
x,y,-z
-x,y,z
x,-y,z
1/2+x,1/2+y,1/2+z
1/2-x,1/2-y,1/2+z
1/2+x,1/2-y,1/2-z
1/2-x,1/2+y,1/2-z
1/2-x,1/2-y,1/2-z
1/2+x,1/2+y,1/2-z
1/2-x,1/2+y,1/2+z
1/2+x,1/2-y,1/2+z
loop_
_atom_site_type_symbol
_atom_site_label
_atom_site_fract_x
_atom_site_fract_y
_atom_site_fract_z
Si Si1 0.000000 0.254254 0.611013
Si Si2 0.783716 0.671222 0.424807
Si Si3 0.881147 0.160688 0.379476
Si Si4 0.500000 0.829068 0.263174
Si Si5 0.111807 0.827890 0.775905
Si Si6 0.000000 0.500000 0.500000
Si Si7 0.719721 0.175533 0.311090
O O1 0.944097 0.168380 0.604833
O O2 0.000000 0.317477 0.684503
O O3 0.000000 0.375142 0.556627
O O4 0.769678 0.694046 0.500000
O O5 0.776268 0.500000 0.408859
O O6 0.845944 0.716074 0.413822
O O7 0.749775 0.770044 0.375646
O O8 0.876656 0.178736 0.301715
O O9 0.859779 0.000000 0.397334
O O10 0.446263 0.745831 0.286185
O O11 0.500000 0.000000 0.281220
O O12 0.159189 0.738088 0.809946
O O13 0.111850 0.000000 0.793647
O O14 0.750000 0.250000 0.250000
O O15 0.721035 0.000000 0.304916
#
# Coordination Sequence:
#
# PCOD9520277 Si02
#       7
#     8  16  16   8  16   2  16
#     4  10  23  34  51  67 104 140 194 237 284 330
#     4  11  25  40  58  81 113 151 192 237 287 342
#     4  10  21  37  55  76 105 144 189 241 290 335
#     4  10  19  35  54  81 110 143 182 234 286 333
#     4  10  20  35  58  84 113 146 184 234 288 343
#     4  12  24  36  46  72  96 156 194 248 282 338
#     4  12  23  38  60  86 114 149 191 238 289 345
#
# _framework density 17.549617999999999
#
# number of rings (size 3 to 8) (size 9 to 14) (size 15 to 20)
#    0.000    1.366    2.439    3.512    2.732    4.683 
#    0.000    0.488    0.000    0.000    0.000    0.683 
#    0.000    5.463    0.000    0.000    0.000    0.000 
#
# Total GULP energy -228747.197927 kJ/mol
# GULP energy per Si atom -5579.199949 kJ/mol
# Density = 1.750967 g / cm^3
# Si number density = 17.549618 Si / 1000 Ang^3
#
#
#
# Elastic Constant Matrix: (Units=GPa)
#
#
# Indices 1 2 3 4 5 6 
#
# 1 128.1014 64.2020 39.1367 0.0000 0.0000 0.0000
# 2 64.2020 160.9637 47.5488 0.0000 0.0000 0.0000
# 3 39.1367 47.5488 50.2911 0.0000 0.0000 0.0000
# 4 0.0000 0.0000 0.0000 22.8957 0.0000 0.0000
# 5 0.0000 0.0000 0.0000 0.0000 8.2121 0.0000
# 6 0.0000 0.0000 0.0000 0.0000 0.0000 46.8250
#
#
#
# Elastic Compliance Matrix: (Units=1/GPa)
#
#
# Indices 1 2 3 4 5 6 
#
# 1 0.010957 -0.002569 -0.006098 0.000000 0.000000 0.000000
# 2 -0.002569 0.009222 -0.006720 0.000000 0.000000 0.000000
# 3 -0.006098 -0.006720 0.030983 0.000000 0.000000 0.000000
# 4 0.000000 0.000000 0.000000 0.043676 0.000000 0.000000
# 5 0.000000 0.000000 0.000000 0.000000 0.121772 0.000000
# 6 0.000000 0.000000 0.000000 0.000000 0.000000 0.021356
#
#
# Mechanical properties :
#
#
# Convention : Reuss Voigt Hill
#
# Bulk Modulus (GPa) = 49.04718 71.23680 60.14199
# Shear Modulus (GPa) = 18.14635 28.15112 23.14873
#
# Velocity S-wave (km/s) = 3.21908 4.00945 3.63581
# Velocity P-wave (km/s) = 6.46723 7.88125 7.20899
#
# Compressibility (1/GPa) = 0.02038853
#
# Stress axis : x y z
#
# Youngs Moduli (GPa) = 91.26792 108.43113 32.27528
#
# Poissons Ratio (x) = 0.27855 0.19681
# Poissons Ratio (y) = 0.23446 0.21690
# Poissons Ratio (z) = 0.55653 0.72870
#
# Static dielectric constant tensor:
#      x y z
#    x 1.617290 0.000000 0.000000 
#    y 0.000000 1.595470 0.000000 
#    z 0.000000 0.000000 1.571310 
# 
# From -- ./inp_files/50442.got.cif
#   From: 2010.05.17/outbox.cif.g08.bks.cpg/sg71_26_cif.got.tgz:50442.got - 2010.06.03 16:22:01.
