data_PCOD9520746
_publ_section_title
;
Structure prediction by ZEFSAII (Michael W. Deem and Ramdas Pophale) SiO2 
 PCOD9520746
Probable space group: I M M M
;
_chemical_formula_sum "Si O2"
_cell_formula_units_Z 80
_cell_length_a 19.077589
_cell_length_b 9.067620
_cell_length_c 27.374238
_cell_angle_alpha 90.000000
_cell_angle_beta 90.000000
_cell_angle_gamma 90.000000
_cell_volume 4735.423650
_symmetry_space_group_name_H-M "I M M M"
_symmetry_group_IT_number 71
_symmetry_cell_setting 'orthorhombic'
loop_
_space_group_symop_operation_xyz
x,y,z
-x,-y,z
x,-y,-z
-x,y,-z
-x,-y,-z
x,y,-z
-x,y,z
x,-y,z
1/2+x,1/2+y,1/2+z
1/2-x,1/2-y,1/2+z
1/2+x,1/2-y,1/2-z
1/2-x,1/2+y,1/2-z
1/2-x,1/2-y,1/2-z
1/2+x,1/2+y,1/2-z
1/2-x,1/2+y,1/2+z
1/2+x,1/2-y,1/2+z
loop_
_atom_site_type_symbol
_atom_site_label
_atom_site_fract_x
_atom_site_fract_y
_atom_site_fract_z
Si Si1 0.420348 0.822308 0.351706
Si Si2 0.079945 0.325281 0.441585
Si Si3 0.282343 0.175430 0.702714
Si Si4 0.784219 0.175096 0.402042
Si Si5 0.148731 0.176562 0.055545
O O1 0.500000 0.786668 0.337907
O O2 0.361189 0.776991 0.312481
O O3 0.400040 0.748632 0.403182
O O4 0.414453 0.000000 0.357338
O O5 0.086664 0.303909 0.500000
O O6 0.089753 0.500000 0.432233
O O7 0.139118 0.232692 0.414871
O O8 0.000000 0.286558 0.427933
O O9 0.250000 0.250000 0.750000
O O10 0.236343 0.204602 0.654228
O O11 0.283748 0.000000 0.710540
O O12 0.726331 0.259515 0.434343
O O13 0.777999 0.000000 0.410403
O O14 0.149520 0.000000 0.061087
O O15 0.127346 0.211644 0.000000
#
# Coordination Sequence:
#
# PCOD9520746 Si02
#       5
#    16  16  16  16  16
#     4   9  19  36  55  75 101 131 164 204 248 294
#     4   9  18  32  49  71 101 135 169 205 246 293
#     4   9  19  35  54  75  97 124 161 205 251 297
#     4  10  20  33  50  73 100 129 166 210 250 294
#     4  10  20  32  48  73 104 136 169 203 239 286
#
# _framework density 16.893948000000002
#
# number of rings (size 3 to 8) (size 9 to 14) (size 15 to 20)
#    0.000    2.600    0.000    3.600    0.000    9.600 
#    0.000    4.000    0.000    3.600    0.000    0.000 
#    0.000    0.000    0.000    0.000    0.000    0.000 
#
# Total GULP energy -223078.538490 kJ/mol
# GULP energy per Si atom -5576.963462 kJ/mol
# Density = 1.685550 g / cm^3
# Si number density = 16.893948 Si / 1000 Ang^3
#
#
#
# Elastic Constant Matrix: (Units=GPa)
#
#
# Indices 1 2 3 4 5 6 
#
# 1 136.0547 42.7218 60.5649 0.0000 0.0000 0.0000
# 2 42.7218 30.9326 40.0261 0.0000 0.0000 0.0000
# 3 60.5649 40.0261 93.3775 0.0000 0.0000 0.0000
# 4 0.0000 0.0000 0.0000 31.9377 0.0000 0.0000
# 5 0.0000 0.0000 0.0000 0.0000 8.8688 0.0000
# 6 0.0000 0.0000 0.0000 0.0000 0.0000 29.8938
#
#
#
# Elastic Compliance Matrix: (Units=1/GPa)
#
#
# Indices 1 2 3 4 5 6 
#
# 1 0.013093 -0.015930 -0.001664 0.000000 0.000000 0.000000
# 2 -0.015930 0.091975 -0.029093 0.000000 0.000000 0.000000
# 3 -0.001664 -0.029093 0.024259 0.000000 0.000000 0.000000
# 4 0.000000 0.000000 0.000000 0.031311 0.000000 0.000000
# 5 0.000000 0.000000 0.000000 0.000000 0.112754 0.000000
# 6 0.000000 0.000000 0.000000 0.000000 0.000000 0.033452
#
#
# Mechanical properties :
#
#
# Convention : Reuss Voigt Hill
#
# Bulk Modulus (GPa) = 27.81338 60.77671 44.29504
# Shear Modulus (GPa) = 12.13001 21.94353 17.03677
#
# Velocity S-wave (km/s) = 2.68248 3.60793 3.17906
# Velocity P-wave (km/s) = 5.10818 7.30820 6.30489
#
# Compressibility (1/GPa) = 0.03595392
#
# Stress axis : x y z
#
# Youngs Moduli (GPa) = 76.37908 10.87251 41.22215
#
# Poissons Ratio (x) = 0.17320 0.06857
# Poissons Ratio (y) = 1.21671 1.19927
# Poissons Ratio (z) = 0.12706 0.31631
#
# Static dielectric constant tensor:
#      x y z
#    x 1.577500 0.000000 0.000000 
#    y 0.000000 1.564830 0.000000 
#    z 0.000000 0.000000 1.547560 
# 
# From -- ./inp_files/8258.got.cif
#   From: 2010.05.17/outbox.cif.g08.bks.cpg/sg71_5_cif.got.tgz:8258.got - 2010.06.03 16:22:01.
