data_PCOD9520840
_publ_section_title
;
Structure prediction by ZEFSAII (Michael W. Deem and Ramdas Pophale) SiO2 
 PCOD9520840
Probable space group: I M M M
;
_chemical_formula_sum "Si O2"
_cell_formula_units_Z 90
_cell_length_a 19.527988
_cell_length_b 16.028046
_cell_length_c 14.657904
_cell_angle_alpha 90.000000
_cell_angle_beta 90.000000
_cell_angle_gamma 90.000000
_cell_volume 4587.857844
_symmetry_space_group_name_H-M "I M M M"
_symmetry_group_IT_number 71
_symmetry_cell_setting 'orthorhombic'
loop_
_space_group_symop_operation_xyz
x,y,z
-x,-y,z
x,-y,-z
-x,y,-z
-x,-y,-z
x,y,-z
-x,y,z
x,-y,z
1/2+x,1/2+y,1/2+z
1/2-x,1/2-y,1/2+z
1/2+x,1/2-y,1/2-z
1/2-x,1/2+y,1/2-z
1/2-x,1/2-y,1/2-z
1/2+x,1/2+y,1/2-z
1/2-x,1/2+y,1/2+z
1/2+x,1/2-y,1/2+z
loop_
_atom_site_type_symbol
_atom_site_label
_atom_site_fract_x
_atom_site_fract_y
_atom_site_fract_z
Si Si1 0.144542 0.148479 0.804159
Si Si2 0.921151 0.682003 0.183749
Si Si3 0.073891 0.402866 0.633789
Si Si4 0.274957 0.100570 0.101753
Si Si5 0.916338 0.596150 0.000000
Si Si6 0.580974 0.599321 0.500000
Si Si7 0.500000 0.500000 0.000000
Si Si8 0.423527 0.500000 0.806926
O O1 0.121924 0.241135 0.778566
O O2 0.225197 0.138250 0.822799
O O3 0.110788 0.132580 0.904360
O O4 0.115956 0.080713 0.732601
O O5 0.923087 0.608538 0.257573
O O6 0.000000 0.710459 0.171028
O O7 0.894258 0.645934 0.089317
O O8 0.072434 0.500000 0.608541
O O9 0.146631 0.369092 0.601782
O O10 0.000000 0.365744 0.605210
O O11 0.275561 0.000000 0.115001
O O12 0.247181 0.116075 0.000000
O O13 0.894055 0.500000 0.000000
O O14 0.000000 0.595113 0.000000
O O15 0.593180 0.500000 0.500000
O O16 0.500000 0.616003 0.500000
O O17 0.440895 0.500000 0.084374
O O18 0.500000 0.500000 0.762887
#
# Coordination Sequence:
#
# PCOD9520840 Si02
#       8
#    16  16  16  16   8   8   2   8
#     4  12  20  32  55  85 127 157 194 250 314 364
#     4  10  20  32  52  85 115 148 203 250 300 364
#     4   9  19  37  59  79 106 149 204 259 305 369
#     4  10  20  35  55  85 120 155 192 240 314 385
#     4   9  17  31  51  77 118 162 195 245 303 361
#     4  11  19  27  45  83 121 155 189 231 287 365
#     4   8  24  40  60  78 108 172 248 240 280 338
#     4  10  20  37  58  82 112 170 214 255 287 344
#
# _framework density 19.616997999999999
#
# number of rings (size 3 to 8) (size 9 to 14) (size 15 to 20)
#    0.267    1.600    2.667    2.667    0.000    3.911 
#    0.000    1.778    1.956    1.067    0.000    0.000 
#    0.000    0.000    0.000    0.000    0.000    0.356 
#
# Total GULP energy -250539.553166 kJ/mol
# GULP energy per Si atom -5567.545626 kJ/mol
# Density = 1.957235 g / cm^3
# Si number density = 19.616998 Si / 1000 Ang^3
#
#
#
# Elastic Constant Matrix: (Units=GPa)
#
#
# Indices 1 2 3 4 5 6 
#
# 1 108.3122 24.9462 18.6280 0.0000 0.0000 0.0000
# 2 24.9462 70.3063 23.6642 0.0000 0.0000 0.0000
# 3 18.6280 23.6642 107.4405 0.0000 0.0000 0.0000
# 4 0.0000 0.0000 0.0000 8.2561 0.0000 0.0000
# 5 0.0000 0.0000 0.0000 0.0000 18.0860 0.0000
# 6 0.0000 0.0000 0.0000 0.0000 0.0000 8.8955
#
#
#
# Elastic Compliance Matrix: (Units=1/GPa)
#
#
# Indices 1 2 3 4 5 6 
#
# 1 0.010162 -0.003254 -0.001045 0.000000 0.000000 0.000000
# 2 -0.003254 0.016404 -0.003049 0.000000 0.000000 0.000000
# 3 -0.001045 -0.003049 0.010160 0.000000 0.000000 0.000000
# 4 0.000000 0.000000 0.000000 0.121123 0.000000 0.000000
# 5 0.000000 0.000000 0.000000 0.000000 0.055291 0.000000
# 6 0.000000 0.000000 0.000000 0.000000 0.000000 0.112417
#
#
# Mechanical properties :
#
#
# Convention : Reuss Voigt Hill
#
# Bulk Modulus (GPa) = 45.39197 46.72621 46.05909
# Shear Modulus (GPa) = 14.38448 21.63555 18.01002
#
# Velocity S-wave (km/s) = 2.71083 3.32459 3.03327
# Velocity P-wave (km/s) = 5.74347 6.21355 5.98313
#
# Compressibility (1/GPa) = 0.02203033
#
# Stress axis : x y z
#
# Youngs Moduli (GPa) = 98.40844 60.95984 98.42293
#
# Poissons Ratio (x) = 0.19835 0.10287
# Poissons Ratio (y) = 0.32020 0.30009
# Poissons Ratio (z) = 0.10285 0.18586
#
# Static dielectric constant tensor:
#      x y z
#    x 1.740050 0.000000 0.000000 
#    y 0.000000 1.688250 0.000000 
#    z 0.000000 0.000000 1.716210 
# 
# From -- ./inp_files/38056.got.cif
#   From: 2010.05.17/outbox.cif.g08.bks.cpg/sg71_20_cif.got.tgz:38056.got - 2010.06.03 16:22:01.
