data_PCOD9520028
_publ_section_title
;
Structure prediction by ZEFSAII (Michael W. Deem and Ramdas Pophale) SiO2 
 PCOD9520028
Probable space group: I M M M
;
_chemical_formula_sum "Si O2"
_cell_formula_units_Z 76
_cell_length_a 11.388009
_cell_length_b 15.732540
_cell_length_c 23.608716
_cell_angle_alpha 90.000000
_cell_angle_beta 90.000000
_cell_angle_gamma 90.000000
_cell_volume 4229.792027
_symmetry_space_group_name_H-M "I M M M"
_symmetry_group_IT_number 71
_symmetry_cell_setting 'orthorhombic'
loop_
_space_group_symop_operation_xyz
x,y,z
-x,-y,z
x,-y,-z
-x,y,-z
-x,-y,-z
x,y,-z
-x,y,z
x,-y,z
1/2+x,1/2+y,1/2+z
1/2-x,1/2-y,1/2+z
1/2+x,1/2-y,1/2-z
1/2-x,1/2+y,1/2-z
1/2-x,1/2-y,1/2-z
1/2+x,1/2+y,1/2-z
1/2-x,1/2+y,1/2+z
1/2+x,1/2-y,1/2+z
loop_
_atom_site_type_symbol
_atom_site_label
_atom_site_fract_x
_atom_site_fract_y
_atom_site_fract_z
Si Si1 0.636078 0.500000 0.386315
Si Si2 0.765602 0.298358 0.102590
Si Si3 0.639307 0.665926 0.309315
Si Si4 0.789093 0.500000 0.500000
Si Si5 0.359275 0.403837 0.190403
Si Si6 0.860746 0.697814 0.500000
Si Si7 0.500000 0.901611 0.567615
O O1 0.500000 0.500000 0.404354
O O2 0.655202 0.580959 0.346472
O O3 0.713586 0.500000 0.442348
O O4 0.799393 0.238050 0.154758
O O5 0.677057 0.365243 0.130558
O O6 0.705671 0.241340 0.053661
O O7 0.883257 0.348739 0.084257
O O8 0.500000 0.684209 0.306940
O O9 0.681990 0.648203 0.245706
O O10 0.850306 0.594028 0.500000
O O11 0.500000 0.405736 0.194374
O O12 0.314777 0.500000 0.195443
O O13 0.000000 0.718275 0.500000
O O14 0.500000 0.906796 0.500000
O O15 0.500000 0.000000 0.589523
#
# Coordination Sequence:
#
# PCOD9520028 Si02
#       7
#     8  16  16   4  16   8   8
#     4  10  19  33  59  96 125 152 198 249 296 353
#     4  12  22  40  63  89 121 154 205 249 299 366
#     4  10  19  35  61  91 122 153 196 246 296 354
#     4  12  22  40  60  84 130 171 195 246 310 362
#     4  10  21  38  60  87 119 159 199 243 297 348
#     4  12  27  42  60  87 120 161 209 250 302 363
#     4  11  24  42  64  92 124 158 196 250 319 364
#
# _framework density 17.967786
#
# number of rings (size 3 to 8) (size 9 to 14) (size 15 to 20)
#    0.000    1.158    5.263    2.211    0.000    0.000 
#    1.895    0.000    0.000    2.526    0.000    0.000 
#    0.000    0.000    0.000    0.000    0.000    0.000 
#
# Total GULP energy -211879.309387 kJ/mol
# GULP energy per Si atom -5575.771300 kJ/mol
# Density = 1.792689 g / cm^3
# Si number density = 17.967786 Si / 1000 Ang^3
#
#
#
# Elastic Constant Matrix: (Units=GPa)
#
#
# Indices 1 2 3 4 5 6 
#
# 1 68.0017 47.7961 40.9244 0.0000 0.0000 0.0000
# 2 47.7961 114.5341 49.3076 0.0000 0.0000 0.0000
# 3 40.9244 49.3076 116.1601 0.0000 0.0000 0.0000
# 4 0.0000 0.0000 0.0000 44.6523 0.0000 0.0000
# 5 0.0000 0.0000 0.0000 0.0000 27.4215 0.0000
# 6 0.0000 0.0000 0.0000 0.0000 0.0000 27.3501
#
#
#
# Elastic Compliance Matrix: (Units=1/GPa)
#
#
# Indices 1 2 3 4 5 6 
#
# 1 0.022886 -0.007439 -0.004905 0.000000 0.000000 0.000000
# 2 -0.007439 0.013101 -0.002940 0.000000 0.000000 0.000000
# 3 -0.004905 -0.002940 0.011585 0.000000 0.000000 0.000000
# 4 0.000000 0.000000 0.000000 0.022395 0.000000 0.000000
# 5 0.000000 0.000000 0.000000 0.000000 0.036468 0.000000
# 6 0.000000 0.000000 0.000000 0.000000 0.000000 0.036563
#
#
# Mechanical properties :
#
#
# Convention : Reuss Voigt Hill
#
# Bulk Modulus (GPa) = 58.81226 63.86134 61.33680
# Shear Modulus (GPa) = 27.89630 30.59598 29.24614
#
# Velocity S-wave (km/s) = 3.94455 4.13101 4.03885
# Velocity P-wave (km/s) = 7.31772 7.64022 7.48071
#
# Compressibility (1/GPa) = 0.01700326
#
# Stress axis : x y z
#
# Youngs Moduli (GPa) = 43.69466 76.32915 86.31713
#
# Poissons Ratio (x) = 0.56779 0.42342
# Poissons Ratio (y) = 0.32503 0.25381
# Poissons Ratio (z) = 0.21434 0.22444
#
# Static dielectric constant tensor:
#      x y z
#    x 1.607920 0.000000 0.000000 
#    y 0.000000 1.630410 0.000000 
#    z 0.000000 0.000000 1.588390 
# 
# From -- ./inp_files/58701.got.cif
#   From: 2010.05.17/outbox.cif.g08.bks.cpg/sg71_30_cif.got.tgz:58701.got - 2010.06.03 16:22:01.
