data_PCOD9520138
_publ_section_title
;
Structure prediction by ZEFSAII (Michael W. Deem and Ramdas Pophale) SiO2 
 PCOD9520138
Probable space group: I M M M
;
_chemical_formula_sum "Si O2"
_cell_formula_units_Z 104
_cell_length_a 29.463156
_cell_length_b 13.490642
_cell_length_c 13.572761
_cell_angle_alpha 90.000000
_cell_angle_beta 90.000000
_cell_angle_gamma 90.000000
_cell_volume 5394.858828
_symmetry_space_group_name_H-M "I M M M"
_symmetry_group_IT_number 71
_symmetry_cell_setting 'orthorhombic'
loop_
_space_group_symop_operation_xyz
x,y,z
-x,-y,z
x,-y,-z
-x,y,-z
-x,-y,-z
x,y,-z
-x,y,z
x,-y,z
1/2+x,1/2+y,1/2+z
1/2-x,1/2-y,1/2+z
1/2+x,1/2-y,1/2-z
1/2-x,1/2+y,1/2-z
1/2-x,1/2-y,1/2-z
1/2+x,1/2+y,1/2-z
1/2-x,1/2+y,1/2+z
1/2+x,1/2-y,1/2+z
loop_
_atom_site_type_symbol
_atom_site_label
_atom_site_fract_x
_atom_site_fract_y
_atom_site_fract_z
Si Si1 0.396931 0.798148 0.381084
Si Si2 0.393644 0.696628 0.882124
Si Si3 0.051290 0.387602 0.619705
Si Si4 0.947834 0.500000 0.119836
Si Si5 0.302989 0.115560 0.619890
Si Si6 0.702201 0.615132 0.119543
Si Si7 0.946036 0.111548 0.214627
O O1 0.397848 0.795208 0.500000
O O2 0.424092 0.897483 0.350486
O O3 0.344870 0.816447 0.349654
O O4 0.419984 0.698216 0.343014
O O5 0.411889 0.805532 0.854640
O O6 0.341911 0.676541 0.851090
O O7 0.426807 0.622265 0.825261
O O8 0.396753 0.684847 0.000000
O O9 0.050301 0.389618 0.500000
O O10 0.060710 0.500000 0.651794
O O11 0.000000 0.359334 0.651305
O O12 0.000000 0.500000 0.150060
O O13 0.946274 0.500000 0.000000
O O14 0.302765 0.115550 0.500000
O O15 0.252515 0.146210 0.653228
O O16 0.310600 0.000000 0.648420
O O17 0.695663 0.500000 0.148139
O O18 0.703259 0.617386 0.000000
O O19 0.000000 0.127965 0.211350
O O20 0.936871 0.000000 0.177995
#
# Coordination Sequence:
#
# PCOD9520138 Si02
#       7
#    16  16  16   8  16  16  16
#     4  10  19  35  58  81 108 141 176 218 272 328
#     4  10  19  34  56  78 104 141 184 228 272 311
#     4   8  14  26  45  68  94 127 169 215 264 319
#     4   9  16  28  52  84 109 129 163 215 271 321
#     4   8  13  26  51  83 112 135 167 216 272 325
#     4   8  14  25  47  79 109 137 173 217 266 318
#     4  11  25  40  52  74 108 144 186 228 267 323
#
# _framework density 19.277612999999999
#
# number of rings (size 3 to 8) (size 9 to 14) (size 15 to 20)
#    0.000    2.846    0.769    2.769    0.000    3.077 
#    1.385    2.308    0.000    0.923    0.000    4.308 
#    0.000    0.000    0.000    0.000    0.000    0.000 
#
# Total GULP energy -290080.032639 kJ/mol
# GULP energy per Si atom -5578.462166 kJ/mol
# Density = 1.923374 g / cm^3
# Si number density = 19.277613 Si / 1000 Ang^3
#
#
#
# Elastic Constant Matrix: (Units=GPa)
#
#
# Indices 1 2 3 4 5 6 
#
# 1 200.0568 118.1354 25.0576 0.0000 0.0000 0.0000
# 2 118.1354 148.9373 29.4374 0.0000 0.0000 0.0000
# 3 25.0576 29.4374 46.0669 0.0000 0.0000 0.0000
# 4 0.0000 0.0000 0.0000 23.0658 0.0000 0.0000
# 5 0.0000 0.0000 0.0000 0.0000 17.0186 0.0000
# 6 0.0000 0.0000 0.0000 0.0000 0.0000 28.0373
#
#
#
# Elastic Compliance Matrix: (Units=1/GPa)
#
#
# Indices 1 2 3 4 5 6 
#
# 1 0.009409 -0.007384 -0.000399 0.000000 0.000000 0.000000
# 2 -0.007384 0.013480 -0.004597 0.000000 0.000000 0.000000
# 3 -0.000399 -0.004597 0.024862 0.000000 0.000000 0.000000
# 4 0.000000 0.000000 0.000000 0.043354 0.000000 0.000000
# 5 0.000000 0.000000 0.000000 0.000000 0.058759 0.000000
# 6 0.000000 0.000000 0.000000 0.000000 0.000000 0.035667
#
#
# Mechanical properties :
#
#
# Convention : Reuss Voigt Hill
#
# Bulk Modulus (GPa) = 43.49759 82.25800 62.87779
# Shear Modulus (GPa) = 22.94031 28.45304 25.69668
#
# Velocity S-wave (km/s) = 3.45338 3.84599 3.65496
# Velocity P-wave (km/s) = 6.20595 7.90475 7.10630
#
# Compressibility (1/GPa) = 0.02298978
#
# Stress axis : x y z
#
# Youngs Moduli (GPa) = 106.28061 74.18410 40.22124
#
# Poissons Ratio (x) = 0.54779 0.01606
# Poissons Ratio (y) = 0.78480 0.18491
# Poissons Ratio (z) = 0.04244 0.34105
#
# Static dielectric constant tensor:
#      x y z
#    x 1.674970 0.000000 0.000000 
#    y 0.000000 1.662440 0.000000 
#    z 0.000000 0.000000 1.716200 
# 
# From -- ./inp_files/40952.got.cif
#   From: 2010.05.17/outbox.cif.g08.bks.cpg/sg71_21_cif.got.tgz:40952.got - 2010.06.03 16:22:01.
