data_PCOD9520157
_publ_section_title
;
Structure prediction by ZEFSAII (Michael W. Deem and Ramdas Pophale) SiO2 
 PCOD9520157
Probable space group: I M M M
;
_chemical_formula_sum "Si O2"
_cell_formula_units_Z 88
_cell_length_a 8.037609
_cell_length_b 18.475489
_cell_length_c 29.938144
_cell_angle_alpha 90.000000
_cell_angle_beta 90.000000
_cell_angle_gamma 90.000000
_cell_volume 4445.777161
_symmetry_space_group_name_H-M "I M M M"
_symmetry_group_IT_number 71
_symmetry_cell_setting 'orthorhombic'
loop_
_space_group_symop_operation_xyz
x,y,z
-x,-y,z
x,-y,-z
-x,y,-z
-x,-y,-z
x,y,-z
-x,y,z
x,-y,z
1/2+x,1/2+y,1/2+z
1/2-x,1/2-y,1/2+z
1/2+x,1/2-y,1/2-z
1/2-x,1/2+y,1/2-z
1/2-x,1/2-y,1/2-z
1/2+x,1/2+y,1/2-z
1/2-x,1/2+y,1/2+z
1/2+x,1/2-y,1/2+z
loop_
_atom_site_type_symbol
_atom_site_label
_atom_site_fract_x
_atom_site_fract_y
_atom_site_fract_z
Si Si1 0.800723 0.788604 0.050927
Si Si2 0.201099 0.325465 0.799454
Si Si3 0.196361 0.581222 0.614280
Si Si4 0.703654 0.856021 0.398264
Si Si5 0.303107 0.342363 0.703252
Si Si6 0.296425 0.000000 0.551091
O O1 0.766738 0.859750 0.080039
O O2 0.738976 0.717492 0.077403
O O3 0.000000 0.780791 0.048188
O O4 0.736560 0.792698 0.000000
O O5 0.253925 0.358438 0.846537
O O6 0.266430 0.362433 0.754484
O O7 0.256404 0.241149 0.800635
O O8 0.000000 0.325764 0.797017
O O9 0.265422 0.500000 0.608618
O O10 0.225592 0.608889 0.664772
O O11 0.000000 0.578594 0.606518
O O12 0.500000 0.854337 0.398518
O O13 0.757656 0.927182 0.424343
O O14 0.500000 0.342372 0.695440
O O15 0.500000 0.000000 0.551498
O O16 0.242779 0.000000 0.500000
#
# Coordination Sequence:
#
# PCOD9520157 Si02
#       6
#    16  16  16  16  16   8
#     4  10  20  36  59  84 110 143 186 233 279 332
#     4   9  17  31  53  80 112 145 179 222 271 322
#     4  11  24  40  57  79 110 146 186 235 287 338
#     4   9  16  30  50  78 114 148 182 223 269 321
#     4  10  19  34  56  81 108 141 183 227 272 327
#     4   9  16  26  46  78 113 147 181 221 270 317
#
# _framework density 19.794065
#
# number of rings (size 3 to 8) (size 9 to 14) (size 15 to 20)
#    0.000    2.273    1.818    1.636    0.000    5.091 
#    1.636    1.818    0.000    0.000    0.000    1.909 
#    0.000    4.364    0.000    0.000    0.000    0.000 
#
# Total GULP energy -245578.712236 kJ/mol
# GULP energy per Si atom -5581.334369 kJ/mol
# Density = 1.974901 g / cm^3
# Si number density = 19.794065 Si / 1000 Ang^3
#
#
#
# Elastic Constant Matrix: (Units=GPa)
#
#
# Indices 1 2 3 4 5 6 
#
# 1 10.7891 -2.4730 -3.5856 0.0000 0.0000 0.0000
# 2 -2.4730 112.1795 66.9210 0.0000 0.0000 0.0000
# 3 -3.5856 66.9210 162.9228 0.0000 0.0000 0.0000
# 4 0.0000 0.0000 0.0000 23.6973 0.0000 0.0000
# 5 0.0000 0.0000 0.0000 0.0000 23.5977 0.0000
# 6 0.0000 0.0000 0.0000 0.0000 0.0000 -9.6091
#
#
#
# Elastic Compliance Matrix: (Units=1/GPa)
#
#
# Indices 1 2 3 4 5 6 
#
# 1 0.093472 0.001104 0.001604 0.000000 0.000000 0.000000
# 2 0.001104 0.011821 -0.004831 0.000000 0.000000 0.000000
# 3 0.001604 -0.004831 0.008158 0.000000 0.000000 0.000000
# 4 0.000000 0.000000 0.000000 0.042199 0.000000 0.000000
# 5 0.000000 0.000000 0.000000 0.000000 0.042377 0.000000
# 6 0.000000 0.000000 0.000000 0.000000 0.000000 -0.104068
#
#
# Mechanical properties :
#
#
# Convention : Reuss Voigt Hill
#
# Bulk Modulus (GPa) = 9.15724 45.29069 27.22396
# Shear Modulus (GPa) = 37.14541 22.53911 29.84226
#
# Velocity S-wave (km/s) = 4.33667 3.37809 3.88704
# Velocity P-wave (km/s) = 5.45086 6.17624 5.82485
#
# Compressibility (1/GPa) = 0.10920325
#
# Stress axis : x y z
#
# Youngs Moduli (GPa) = 10.69840 84.59812 122.58605
#
# Poissons Ratio (x) = -0.09339 -0.19659
# Poissons Ratio (y) = -0.01181 0.59222
# Poissons Ratio (z) = -0.01716 0.40870
#
# Static dielectric constant tensor:
#      x y z
#    x 1.714100 0.000000 0.000000 
#    y 0.000000 1.683280 0.000000 
#    z 0.000000 0.000000 1.687200 
# 
# From -- ./inp_files/16662.got.cif
#   From: 2010.05.17/outbox.cif.g08.bks.cpg/sg71_9_cif.got.tgz:16662.got - 2010.06.03 16:22:01.
