data_PCOD9520305
_publ_section_title
;
Structure prediction by ZEFSAII (Michael W. Deem and Ramdas Pophale) SiO2 
 PCOD9520305
Probable space group: I M M M
;
_chemical_formula_sum "Si O2"
_cell_formula_units_Z 88
_cell_length_a 25.266025
_cell_length_b 19.994276
_cell_length_c 8.025753
_cell_angle_alpha 90.000000
_cell_angle_beta 90.000000
_cell_angle_gamma 90.000000
_cell_volume 4054.416813
_symmetry_space_group_name_H-M "I M M M"
_symmetry_group_IT_number 71
_symmetry_cell_setting 'orthorhombic'
loop_
_space_group_symop_operation_xyz
x,y,z
-x,-y,z
x,-y,-z
-x,y,-z
-x,-y,-z
x,y,-z
-x,y,z
x,-y,z
1/2+x,1/2+y,1/2+z
1/2-x,1/2-y,1/2+z
1/2+x,1/2-y,1/2-z
1/2-x,1/2+y,1/2-z
1/2-x,1/2-y,1/2-z
1/2+x,1/2+y,1/2-z
1/2-x,1/2+y,1/2+z
1/2+x,1/2-y,1/2+z
loop_
_atom_site_type_symbol
_atom_site_label
_atom_site_fract_x
_atom_site_fract_y
_atom_site_fract_z
Si Si1 0.841537 0.228065 0.195157
Si Si2 0.862927 0.375500 0.199801
Si Si3 0.562923 0.000000 0.704103
Si Si4 0.261757 0.619890 0.806225
Si Si5 0.824208 0.000000 0.175454
Si Si6 0.429791 0.500000 0.811840
Si Si7 0.442767 0.352623 0.202531
O O1 0.863211 0.299007 0.265199
O O2 0.790344 0.191283 0.273770
O O3 0.891568 0.179949 0.217920
O O4 0.828813 0.238255 0.000000
O O5 0.903511 0.433476 0.259271
O O6 0.800609 0.389868 0.224020
O O7 0.872407 0.372339 0.000000
O O8 0.500000 0.000000 0.752340
O O9 0.563591 0.000000 0.500000
O O10 0.290288 0.566059 0.692648
O O11 0.270747 0.604101 0.000000
O O12 0.866883 0.000000 0.317344
O O13 0.853467 0.000000 0.000000
O O14 0.444855 0.570790 0.737895
O O15 0.448906 0.500000 0.000000
O O16 0.500000 0.320660 0.240006
O O17 0.436214 0.352302 0.000000
#
# Coordination Sequence:
#
# PCOD9520305 Si02
#       7
#    16  16   8  16   8   8  16
#     4  11  22  36  55  85 122 153 190 247 305 350
#     4   9  20  36  57  86 116 150 193 239 295 360
#     4   9  17  34  60  86 113 148 193 244 300 362
#     4  11  21  37  59  82 116 162 203 237 284 355
#     4  12  23  34  54  86 120 150 187 239 290 335
#     4  10  19  35  57  77 105 149 197 235 274 328
#     4  10  21  37  57  81 111 154 204 242 280 342
#
# _framework density 21.704723999999999
#
# number of rings (size 3 to 8) (size 9 to 14) (size 15 to 20)
#    0.000    1.727    1.818    3.273    0.000    3.636 
#    0.000    4.545    0.000    1.636    0.000    0.000 
#    0.000   12.364    0.000    0.000    0.000    0.000 
#
# Total GULP energy -245232.325758 kJ/mol
# GULP energy per Si atom -5573.461949 kJ/mol
# Density = 2.165532 g / cm^3
# Si number density = 21.704724 Si / 1000 Ang^3
#
#
#
# Elastic Constant Matrix: (Units=GPa)
#
#
# Indices 1 2 3 4 5 6 
#
# 1 101.4311 59.4524 25.0367 0.0000 0.0000 0.0000
# 2 59.4524 131.9149 8.1569 0.0000 0.0000 0.0000
# 3 25.0367 8.1569 42.4698 0.0000 0.0000 0.0000
# 4 0.0000 0.0000 0.0000 16.5176 0.0000 0.0000
# 5 0.0000 0.0000 0.0000 0.0000 56.8655 0.0000
# 6 0.0000 0.0000 0.0000 0.0000 0.0000 -3.7684
#
#
#
# Elastic Compliance Matrix: (Units=1/GPa)
#
#
# Indices 1 2 3 4 5 6 
#
# 1 0.015683 -0.006574 -0.007983 0.000000 0.000000 0.000000
# 2 -0.006574 0.010428 0.001873 0.000000 0.000000 0.000000
# 3 -0.007983 0.001873 0.027892 0.000000 0.000000 0.000000
# 4 0.000000 0.000000 0.000000 0.060541 0.000000 0.000000
# 5 0.000000 0.000000 0.000000 0.000000 0.017585 0.000000
# 6 0.000000 0.000000 0.000000 0.000000 0.000000 -0.265362
#
#
# Mechanical properties :
#
#
# Convention : Reuss Voigt Hill
#
# Bulk Modulus (GPa) = 34.92254 51.23418 43.07836
# Shear Modulus (GPa) = -50.85483 26.13425 -12.36029
#
# Velocity S-wave (km/s) = -4.84574 3.47375 -2.38896
# Velocity P-wave (km/s) = 3.89660 6.30441 3.50444
#
# Compressibility (1/GPa) = 0.02863481
#
# Stress axis : x y z
#
# Youngs Moduli (GPa) = 63.76414 95.89710 35.85217
#
# Poissons Ratio (x) = 0.63047 0.28619
# Poissons Ratio (y) = 0.41921 -0.06715
# Poissons Ratio (z) = 0.50900 -0.17961
#
# Static dielectric constant tensor:
#      x y z
#    x 1.788940 0.000000 0.000000 
#    y 0.000000 1.848460 0.000000 
#    z 0.000000 0.000000 1.778120 
# 
# From -- ./inp_files/12623.got.cif
#   From: 2010.05.17/outbox.cif.g08.bks.cpg/sg71_7_cif.got.tgz:12623.got - 2010.06.03 16:22:01.
