data_PCOD9520661
_publ_section_title
;
Structure prediction by ZEFSAII (Michael W. Deem and Ramdas Pophale) SiO2 
 PCOD9520661
Probable space group: I M M M
;
_chemical_formula_sum "Si O2"
_cell_formula_units_Z 96
_cell_length_a 17.122579
_cell_length_b 30.400680
_cell_length_c 7.523815
_cell_angle_alpha 90.000000
_cell_angle_beta 90.000000
_cell_angle_gamma 90.000000
_cell_volume 3916.431951
_symmetry_space_group_name_H-M "I M M M"
_symmetry_group_IT_number 71
_symmetry_cell_setting 'orthorhombic'
loop_
_space_group_symop_operation_xyz
x,y,z
-x,-y,z
x,-y,-z
-x,y,-z
-x,-y,-z
x,y,-z
-x,y,z
x,-y,z
1/2+x,1/2+y,1/2+z
1/2-x,1/2-y,1/2+z
1/2+x,1/2-y,1/2-z
1/2-x,1/2+y,1/2-z
1/2-x,1/2-y,1/2-z
1/2+x,1/2+y,1/2-z
1/2-x,1/2+y,1/2+z
1/2+x,1/2-y,1/2+z
loop_
_atom_site_type_symbol
_atom_site_label
_atom_site_fract_x
_atom_site_fract_y
_atom_site_fract_z
Si Si1 0.638910 0.855634 0.784509
Si Si2 0.213133 0.197823 0.201082
Si Si3 0.088680 0.872250 0.715779
Si Si4 0.195419 0.951987 0.286194
Si Si5 0.876038 0.548620 0.703837
Si Si6 0.916245 0.261496 0.289042
O O1 0.723241 0.836574 0.716558
O O2 0.607883 0.902825 0.716520
O O3 0.585506 0.813495 0.751240
O O4 0.644292 0.861721 0.000000
O O5 0.132888 0.170292 0.216921
O O6 0.171649 0.244865 0.242775
O O7 0.239831 0.202033 0.000000
O O8 0.089361 0.870744 0.500000
O O9 0.138900 0.913908 0.774728
O O10 0.000000 0.874819 0.774058
O O11 0.205576 0.948313 0.500000
O O12 0.281452 0.950021 0.205356
O O13 0.161664 0.000000 0.248391
O O14 0.904293 0.548060 0.500000
O O15 0.897356 0.500000 0.780957
O O16 0.919299 0.254062 0.500000
O O17 0.000000 0.244053 0.217354
#
# Coordination Sequence:
#
# PCOD9520661 Si02
#       6
#    16  16  16  16  16  16
#     4   9  18  33  53  78 102 128 166 204 245 294
#     4  11  21  34  52  74 100 129 166 211 248 286
#     4  10  20  32  46  66  96 134 171 205 246 296
#     4   9  17  29  45  66  93 125 164 208 248 287
#     4   9  16  29  51  75 100 129 160 198 245 295
#     4  10  21  37  55  73  99 134 167 203 250 303
#
# _framework density 24.512108999999999
#
# number of rings (size 3 to 8) (size 9 to 14) (size 15 to 20)
#    0.000    2.333    1.667    1.500    0.000    3.000 
#    0.000    3.333    0.000    0.500    0.000    7.000 
#    0.000    0.000    0.000    5.667    0.000    6.000 
#
# Total GULP energy -267487.600167 kJ/mol
# GULP energy per Si atom -5572.658337 kJ/mol
# Density = 2.445632 g / cm^3
# Si number density = 24.512109 Si / 1000 Ang^3
#
#
#
# Elastic Constant Matrix: (Units=GPa)
#
#
# Indices 1 2 3 4 5 6 
#
# 1 78.3790 -25.6946 -7.8851 0.0011 -0.0006 -0.0003
# 2 -25.6946 105.5436 -3.3733 -0.0037 -0.0064 -0.0006
# 3 -7.8851 -3.3733 56.5533 0.0102 -0.0169 -0.0036
# 4 0.0011 -0.0037 0.0102 21.0422 -0.0082 -0.0007
# 5 -0.0006 -0.0064 -0.0169 -0.0082 -0.7553 -0.0002
# 6 -0.0003 -0.0006 -0.0036 -0.0007 -0.0002 24.0711
#
#
#
# Elastic Compliance Matrix: (Units=1/GPa)
#
#
# Indices 1 2 3 4 5 6 
#
# 1 0.014128 0.003509 0.002179 -0.000001 -0.000089 0.000001
# 2 0.003509 0.010364 0.001107 0.000001 -0.000115 0.000000
# 3 0.002179 0.001107 0.018052 -0.000009 -0.000414 0.000003
# 4 -0.000001 0.000001 -0.000009 0.047523 -0.000516 0.000001
# 5 -0.000089 -0.000115 -0.000414 -0.000516 -1.324010 -0.000009
# 6 0.000001 0.000000 0.000003 0.000001 -0.000009 0.041544
#
#
# Mechanical properties :
#
#
# Convention : Reuss Voigt Hill
#
# Bulk Modulus (GPa) = 17.81380 18.50776 18.16078
# Shear Modulus (GPa) = -4.21132 27.36685 11.57777
#
# Velocity S-wave (km/s) = -1.31217 3.34498 2.17567
# Velocity P-wave (km/s) = 2.23325 4.74187 3.70626
#
# Compressibility (1/GPa) = 0.05613626
#
# Stress axis : x y z
#
# Youngs Moduli (GPa) = 70.78075 96.48372 55.39486
#
# Poissons Ratio (x) = -0.33857 -0.12071
# Poissons Ratio (y) = -0.24838 -0.06135
# Poissons Ratio (z) = -0.15424 -0.10685
#
# Static dielectric constant tensor:
#      x y z
#    x 2.046250 0.000000 -0.000010 
#    y 0.000000 2.101520 -0.000010 
#    z -0.000010 -0.000010 1.971380 
# 
# From -- ./inp_files/10849.got.cif
#   From: 2010.05.17/outbox.cif.g08.bks.cpg/sg71_6_cif.got.tgz:10849.got - 2010.06.03 16:22:01.
