data_PCOD9520066
_publ_section_title
;
Structure prediction by ZEFSAII (Michael W. Deem and Ramdas Pophale) SiO2 
 PCOD9520066
Probable space group: I M M M
;
_chemical_formula_sum "Si O2"
_cell_formula_units_Z 104
_cell_length_a 34.086720
_cell_length_b 9.267572
_cell_length_c 19.233777
_cell_angle_alpha 90.000000
_cell_angle_beta 90.000000
_cell_angle_gamma 90.000000
_cell_volume 6075.971924
_symmetry_space_group_name_H-M "I M M M"
_symmetry_group_IT_number 71
_symmetry_cell_setting 'orthorhombic'
loop_
_space_group_symop_operation_xyz
x,y,z
-x,-y,z
x,-y,-z
-x,y,-z
-x,-y,-z
x,y,-z
-x,y,z
x,-y,z
1/2+x,1/2+y,1/2+z
1/2-x,1/2-y,1/2+z
1/2+x,1/2-y,1/2-z
1/2-x,1/2+y,1/2-z
1/2-x,1/2-y,1/2-z
1/2+x,1/2+y,1/2-z
1/2-x,1/2+y,1/2+z
1/2+x,1/2-y,1/2+z
loop_
_atom_site_type_symbol
_atom_site_label
_atom_site_fract_x
_atom_site_fract_y
_atom_site_fract_z
Si Si1 0.044932 0.324874 0.689563
Si Si2 0.267956 0.333987 0.584705
Si Si3 0.809851 0.833839 0.584727
Si Si4 0.610559 0.826916 0.918154
Si Si5 0.000000 0.832396 0.082983
Si Si6 0.071543 0.326276 0.156047
Si Si7 0.652600 0.172140 0.582112
O O1 0.043247 0.500000 0.687025
O O2 0.073436 0.279416 0.627351
O O3 0.064097 0.287592 0.763622
O O4 0.000000 0.272586 0.685253
O O5 0.267174 0.332810 0.500000
O O6 0.266986 0.500000 0.607168
O O7 0.229317 0.248457 0.608264
O O8 0.308340 0.255860 0.604391
O O9 0.809139 0.832621 0.500000
O O10 0.849591 0.751664 0.604839
O O11 0.809952 0.000000 0.607081
O O12 0.615579 0.000000 0.910386
O O13 0.604280 0.798023 0.000000
O O14 0.961838 0.752376 0.112147
O O15 0.000000 0.000000 0.104424
O O16 0.000000 0.825675 0.000000
O O17 0.066864 0.500000 0.149293
O O18 0.114437 0.289382 0.126870
O O19 0.645177 0.202420 0.500000
O O20 0.659267 0.000000 0.588029
#
# Coordination Sequence:
#
# PCOD9520066 Si02
#       7
#    16  16  16  16   8  16  16
#     4   9  17  31  52  75  98 127 166 208 248 295
#     4   9  16  26  43  68  98 130 160 194 241 292
#     4   9  16  27  45  69  98 129 161 200 243 289
#     4   9  17  29  48  75 103 129 160 201 249 299
#     4  11  23  35  49  73 102 129 162 210 259 295
#     4  10  19  34  54  72  95 131 172 209 245 295
#     4   9  17  28  44  69  97 125 161 202 242 285
#
# _framework density 17.116603999999999
#
# number of rings (size 3 to 8) (size 9 to 14) (size 15 to 20)
#    0.000    2.692    0.769    1.615    0.000    5.846 
#    0.000    3.846    0.000    0.923    0.000    2.154 
#    0.000    0.000    0.000    0.000    0.000    0.000 
#
# Total GULP energy -289857.652349 kJ/mol
# GULP energy per Si atom -5574.185622 kJ/mol
# Density = 1.707765 g / cm^3
# Si number density = 17.116604 Si / 1000 Ang^3
#
#
#
# Elastic Constant Matrix: (Units=GPa)
#
#
# Indices 1 2 3 4 5 6 
#
# 1 198.1963 72.7697 75.2838 0.0000 0.0000 0.0000
# 2 72.7697 56.0784 39.2244 0.0000 0.0000 0.0000
# 3 75.2838 39.2244 53.5316 0.0000 0.0000 0.0000
# 4 0.0000 0.0000 0.0000 8.6846 0.0000 0.0000
# 5 0.0000 0.0000 0.0000 0.0000 -43.5181 0.0000
# 6 0.0000 0.0000 0.0000 0.0000 0.0000 24.9926
#
#
#
# Elastic Compliance Matrix: (Units=1/GPa)
#
#
# Indices 1 2 3 4 5 6 
#
# 1 0.012348 -0.007953 -0.011539 0.000000 0.000000 0.000000
# 2 -0.007953 0.041702 -0.019372 0.000000 0.000000 0.000000
# 3 -0.011539 -0.019372 0.049102 0.000000 0.000000 0.000000
# 4 0.000000 0.000000 0.000000 0.115147 0.000000 0.000000
# 5 0.000000 0.000000 0.000000 0.000000 -0.022979 0.000000
# 6 0.000000 0.000000 0.000000 0.000000 0.000000 0.040012
#
#
# Mechanical properties :
#
#
# Convention : Reuss Voigt Hill
#
# Bulk Modulus (GPa) = 39.33021 75.81802 57.57411
# Shear Modulus (GPa) = 15.55039 6.06703 10.80871
#
# Velocity S-wave (km/s) = 3.01740 1.88473 2.51564
# Velocity P-wave (km/s) = 5.93020 7.00910 6.49210
#
# Compressibility (1/GPa) = 0.02542575
#
# Stress axis : x y z
#
# Youngs Moduli (GPa) = 80.98170 23.97950 20.36564
#
# Poissons Ratio (x) = 0.19071 0.23499
# Poissons Ratio (y) = 0.64406 0.39452
# Poissons Ratio (z) = 0.93442 0.46453
#
# Static dielectric constant tensor:
#      x y z
#    x 1.562050 0.000000 0.000000 
#    y 0.000000 1.573420 0.000000 
#    z 0.000000 0.000000 1.570010 
# 
# From -- ./inp_files/56719.got.cif
#   From: 2010.05.17/outbox.cif.g08.bks.cpg/sg71_29_cif.got.tgz:56719.got - 2010.06.03 16:22:01.
