data_PCOD9520205
_publ_section_title
;
Structure prediction by ZEFSAII (Michael W. Deem and Ramdas Pophale) SiO2 
 PCOD9520205
Probable space group: I M M M
;
_chemical_formula_sum "Si O2"
_cell_formula_units_Z 92
_cell_length_a 20.547797
_cell_length_b 28.064377
_cell_length_c 7.610119
_cell_angle_alpha 90.000000
_cell_angle_beta 90.000000
_cell_angle_gamma 90.000000
_cell_volume 4388.459757
_symmetry_space_group_name_H-M "I M M M"
_symmetry_group_IT_number 71
_symmetry_cell_setting 'orthorhombic'
loop_
_space_group_symop_operation_xyz
x,y,z
-x,-y,z
x,-y,-z
-x,y,-z
-x,-y,-z
x,y,-z
-x,y,z
x,-y,z
1/2+x,1/2+y,1/2+z
1/2-x,1/2-y,1/2+z
1/2+x,1/2-y,1/2-z
1/2-x,1/2+y,1/2-z
1/2-x,1/2-y,1/2-z
1/2+x,1/2+y,1/2-z
1/2-x,1/2+y,1/2+z
1/2+x,1/2-y,1/2+z
loop_
_atom_site_type_symbol
_atom_site_label
_atom_site_fract_x
_atom_site_fract_y
_atom_site_fract_z
Si Si1 0.871126 0.891020 0.294913
Si Si2 0.500000 0.058904 0.500000
Si Si3 0.500000 0.555401 0.215391
Si Si4 0.251676 0.946242 0.289104
Si Si5 0.074483 0.792565 0.205940
Si Si6 0.394677 0.917658 0.203313
Si Si7 0.074418 0.687658 0.289874
O O1 0.869116 0.904459 0.500000
O O2 0.935258 0.917307 0.222158
O O3 0.803006 0.909792 0.221558
O O4 0.882876 0.834713 0.283506
O O5 0.556607 0.059906 0.344429
O O6 0.500000 0.500000 0.264605
O O7 0.500000 0.557485 0.000000
O O8 0.259577 0.940719 0.500000
O O9 0.322908 0.938936 0.211464
O O10 0.228249 0.000000 0.255576
O O11 0.099784 0.738787 0.229354
O O12 0.000000 0.793940 0.278554
O O13 0.070527 0.802029 0.000000
O O14 0.390472 0.861366 0.255208
O O15 0.418343 0.920250 0.000000
O O16 0.071893 0.690156 0.500000
O O17 0.000000 0.682803 0.221677
#
# Coordination Sequence:
#
# PCOD9520205 Si02
#       7
#    16   4   8  16  16  16  16
#     4  10  19  34  57  84 118 158 205 259 312 366
#     4  12  22  40  71  96 132 158 194 262 307 358
#     4   9  16  28  52  85 113 148 206 266 310 354
#     4  10  22  41  63  88 121 164 208 254 317 383
#     4  10  20  31  51  83 120 160 204 253 309 369
#     4  11  23  40  66  99 127 164 209 251 309 379
#     4   9  18  33  56  86 119 152 197 250 301 366
#
# _framework density 20.964075000000001
#
# number of rings (size 3 to 8) (size 9 to 14) (size 15 to 20)
#    0.000    2.000    2.609    1.304    1.217    3.826 
#    0.000    1.739    0.000    3.130    0.000    0.000 
#    0.000    0.000    0.000    0.000    0.000    0.000 
#
# Total GULP energy -256284.385264 kJ/mol
# GULP energy per Si atom -5571.399680 kJ/mol
# Density = 2.091636 g / cm^3
# Si number density = 20.964075 Si / 1000 Ang^3
#
#
#
# Elastic Constant Matrix: (Units=GPa)
#
#
# Indices 1 2 3 4 5 6 
#
# 1 88.6099 19.9457 29.9526 0.0000 0.0000 0.0000
# 2 19.9457 83.3482 9.1417 0.0000 0.0000 0.0000
# 3 29.9526 9.1417 84.7347 0.0000 0.0000 0.0000
# 4 0.0000 0.0000 0.0000 -3.4537 0.0000 0.0000
# 5 0.0000 0.0000 0.0000 0.0000 6.4553 0.0000
# 6 0.0000 0.0000 0.0000 0.0000 0.0000 29.2081
#
#
#
# Elastic Compliance Matrix: (Units=1/GPa)
#
#
# Indices 1 2 3 4 5 6 
#
# 1 0.013399 -0.002719 -0.004443 0.000000 0.000000 0.000000
# 2 -0.002719 0.012693 -0.000408 0.000000 0.000000 0.000000
# 3 -0.004443 -0.000408 0.013416 0.000000 0.000000 0.000000
# 4 0.000000 0.000000 0.000000 -0.289549 0.000000 0.000000
# 5 0.000000 0.000000 0.000000 0.000000 0.154912 0.000000
# 6 0.000000 0.000000 0.000000 0.000000 0.000000 0.034237
#
#
# Mechanical properties :
#
#
# Convention : Reuss Voigt Hill
#
# Bulk Modulus (GPa) = 41.03783 41.64139 41.33961
# Shear Modulus (GPa) = -132.88272 19.61881 -56.63196
#
# Velocity S-wave (km/s) = -7.97016 3.06245 -5.20312
# Velocity P-wave (km/s) = 8.06723 5.69308 4.04160
#
# Compressibility (1/GPa) = 0.02436776
#
# Stress axis : x y z
#
# Youngs Moduli (GPa) = 74.63009 78.78132 74.53689
#
# Poissons Ratio (x) = 0.21422 0.33118
# Poissons Ratio (y) = 0.20294 0.03043
# Poissons Ratio (z) = 0.33159 0.03216
#
# Static dielectric constant tensor:
#      x y z
#    x 1.737380 0.000000 0.000000 
#    y 0.000000 1.772090 0.000000 
#    z 0.000000 0.000000 1.769530 
# 
# From -- ./inp_files/11024.got.cif
#   From: 2010.05.17/outbox.cif.g08.bks.cpg/sg71_6_cif.got.tgz:11024.got - 2010.06.03 16:22:01.
