data_PCOD9520656
_publ_section_title
;
Structure prediction by ZEFSAII (Michael W. Deem and Ramdas Pophale) SiO2 
 PCOD9520656
Probable space group: I M M M
;
_chemical_formula_sum "Si O2"
_cell_formula_units_Z 96
_cell_length_a 15.363909
_cell_length_b 13.594446
_cell_length_c 27.668837
_cell_angle_alpha 90.000000
_cell_angle_beta 90.000000
_cell_angle_gamma 90.000000
_cell_volume 5779.019302
_symmetry_space_group_name_H-M "I M M M"
_symmetry_group_IT_number 71
_symmetry_cell_setting 'orthorhombic'
loop_
_space_group_symop_operation_xyz
x,y,z
-x,-y,z
x,-y,-z
-x,y,-z
-x,-y,-z
x,y,-z
-x,y,z
x,-y,z
1/2+x,1/2+y,1/2+z
1/2-x,1/2-y,1/2+z
1/2+x,1/2-y,1/2-z
1/2-x,1/2+y,1/2-z
1/2-x,1/2-y,1/2-z
1/2+x,1/2+y,1/2-z
1/2-x,1/2+y,1/2+z
1/2+x,1/2-y,1/2+z
loop_
_atom_site_type_symbol
_atom_site_label
_atom_site_fract_x
_atom_site_fract_y
_atom_site_fract_z
Si Si1 0.099219 0.888424 0.058719
Si Si2 0.101872 0.385569 0.411167
Si Si3 0.601488 0.228194 0.187692
Si Si4 0.234976 0.115647 0.352575
Si Si5 0.599851 0.883807 0.712983
Si Si6 0.748159 0.257374 0.944466
O O1 0.170151 0.808664 0.073167
O O2 0.000000 0.866221 0.073701
O O3 0.120735 0.000000 0.074570
O O4 0.100140 0.889676 0.000000
O O5 0.124519 0.500000 0.417493
O O6 0.112073 0.351793 0.355308
O O7 0.164827 0.314392 0.440735
O O8 0.000000 0.373072 0.423822
O O9 0.500000 0.258369 0.186965
O O10 0.664201 0.318412 0.175341
O O11 0.619800 0.178975 0.239229
O O12 0.328791 0.134053 0.328002
O O13 0.236006 0.153630 0.407564
O O14 0.216081 0.000000 0.349516
O O15 0.500000 0.862876 0.697990
O O16 0.603872 0.000000 0.725429
O O17 0.761789 0.286945 0.000000
#
# Coordination Sequence:
#
# PCOD9520656 Si02
#       6
#    16  16  16  16  16  16
#     4   8  14  26  45  67  88 112 147 192 241 290
#     4   9  17  29  47  73 101 123 147 187 240 296
#     4   9  17  31  52  75  98 124 152 185 233 292
#     4  10  21  34  48  69  96 128 167 205 235 267
#     4   9  17  31  53  78 100 120 145 184 238 297
#     4  10  20  32  46  65  92 129 170 206 238 273
#
# _framework density 16.611815
#
# number of rings (size 3 to 8) (size 9 to 14) (size 15 to 20)
#    0.000    2.833    0.000    2.000    0.000    4.667 
#    0.000    0.833    0.000    1.000    0.000    9.333 
#    0.000    0.000    0.000    0.000    0.000    0.000 
#
# Total GULP energy -267486.840965 kJ/mol
# GULP energy per Si atom -5572.642520 kJ/mol
# Density = 1.657401 g / cm^3
# Si number density = 16.611815 Si / 1000 Ang^3
#
#
#
# Elastic Constant Matrix: (Units=GPa)
#
#
# Indices 1 2 3 4 5 6 
#
# 1 59.9808 38.3819 34.4957 0.0000 0.0000 0.0000
# 2 38.3819 62.5099 36.6793 0.0000 0.0000 0.0000
# 3 34.4957 36.6793 68.2266 0.0000 0.0000 0.0000
# 4 0.0000 0.0000 0.0000 12.8414 0.0000 0.0000
# 5 0.0000 0.0000 0.0000 0.0000 19.5585 0.0000
# 6 0.0000 0.0000 0.0000 0.0000 0.0000 26.4403
#
#
#
# Elastic Compliance Matrix: (Units=1/GPa)
#
#
# Indices 1 2 3 4 5 6 
#
# 1 0.029991 -0.013903 -0.007689 0.000000 0.000000 0.000000
# 2 -0.013903 0.029815 -0.008999 0.000000 0.000000 0.000000
# 3 -0.007689 -0.008999 0.023383 0.000000 0.000000 0.000000
# 4 0.000000 0.000000 0.000000 0.077873 0.000000 0.000000
# 5 0.000000 0.000000 0.000000 0.000000 0.051129 0.000000
# 6 0.000000 0.000000 0.000000 0.000000 0.000000 0.037821
#
#
# Mechanical properties :
#
#
# Convention : Reuss Voigt Hill
#
# Bulk Modulus (GPa) = 45.44311 45.53680 45.48995
# Shear Modulus (GPa) = 15.69720 17.17874 16.43797
#
# Velocity S-wave (km/s) = 3.07733 3.21927 3.14910
# Velocity P-wave (km/s) = 6.32786 6.42574 6.37699
#
# Compressibility (1/GPa) = 0.02200554
#
# Stress axis : x y z
#
# Youngs Moduli (GPa) = 33.34381 33.54064 42.76663
#
# Poissons Ratio (x) = 0.46631 0.32883
# Poissons Ratio (y) = 0.46358 0.38487
# Poissons Ratio (z) = 0.25638 0.30184
#
# Static dielectric constant tensor:
#      x y z
#    x 1.567980 0.000000 0.000000 
#    y 0.000000 1.534020 0.000000 
#    z 0.000000 0.000000 1.545650 
# 
# From -- ./inp_files/27413.got.cif
#   From: 2010.05.17/outbox.cif.g08.bks.cpg/sg71_14_cif.got.tgz:27413.got - 2010.06.03 16:22:01.
