data_PCOD9520767
_publ_section_title
;
Structure prediction by ZEFSAII (Michael W. Deem and Ramdas Pophale) SiO2 
 PCOD9520767
Probable space group: I M M M
;
_chemical_formula_sum "Si O2"
_cell_formula_units_Z 54
_cell_length_a 16.565600
_cell_length_b 8.186187
_cell_length_c 19.402424
_cell_angle_alpha 90.000000
_cell_angle_beta 90.000000
_cell_angle_gamma 90.000000
_cell_volume 2631.145244
_symmetry_space_group_name_H-M "I M M M"
_symmetry_group_IT_number 71
_symmetry_cell_setting 'orthorhombic'
loop_
_space_group_symop_operation_xyz
x,y,z
-x,-y,z
x,-y,-z
-x,y,-z
-x,-y,-z
x,y,-z
-x,y,z
x,-y,z
1/2+x,1/2+y,1/2+z
1/2-x,1/2-y,1/2+z
1/2+x,1/2-y,1/2-z
1/2-x,1/2+y,1/2-z
1/2-x,1/2-y,1/2-z
1/2+x,1/2+y,1/2-z
1/2-x,1/2+y,1/2+z
1/2+x,1/2-y,1/2+z
loop_
_atom_site_type_symbol
_atom_site_label
_atom_site_fract_x
_atom_site_fract_y
_atom_site_fract_z
Si Si1 0.406641 0.822690 0.642213
Si Si2 0.843511 0.239071 0.000000
Si Si3 0.838438 0.812200 0.271976
Si Si4 0.500000 0.500000 0.500000
Si Si5 0.805742 0.500000 0.500000
Si Si6 0.903006 0.500000 0.357641
O O1 0.500000 0.807513 0.622193
O O2 0.351938 0.821282 0.574524
O O3 0.386131 0.690712 0.699318
O O4 0.396734 0.000000 0.676537
O O5 0.758224 0.148473 0.000000
O O6 0.926547 0.135160 0.000000
O O7 0.750000 0.750000 0.250000
O O8 0.875064 0.669577 0.320294
O O9 0.837138 0.000000 0.298591
O O10 0.860422 0.500000 0.432176
O O11 0.000000 0.500000 0.361045
#
# Coordination Sequence:
#
# PCOD9520767 Si02
#       6
#    16   8  16   2   4   8
#     4  11  22  38  61  97 143 187 226 280 344 426
#     4  11  22  36  61  93 139 182 240 281 353 415
#     4  12  25  43  72 105 144 185 235 293 357 423
#     4  10  20  32  48  96 130 188 228 290 320 432
#     4  11  27  45  73  92 132 188 239 307 353 413
#     4  12  26  51  73 106 142 188 244 299 356 424
#
# _framework density 20.523382000000002
#
# number of rings (size 3 to 8) (size 9 to 14) (size 15 to 20)
#    0.000    0.593    4.444    3.333    4.148    3.556 
#    0.000    2.222    0.000    1.778    0.000    0.000 
#    0.000    0.000    0.000    0.000    0.000    0.000 
#
# Total GULP energy -150303.373059 kJ/mol
# GULP energy per Si atom -5566.791595 kJ/mol
# Density = 2.047667 g / cm^3
# Si number density = 20.523382 Si / 1000 Ang^3
#
#
#
# Elastic Constant Matrix: (Units=GPa)
#
#
# Indices 1 2 3 4 5 6 
#
# 1 156.3128 65.6371 53.8224 0.0000 0.0000 0.0000
# 2 65.6371 165.7402 64.8087 0.0000 0.0000 0.0000
# 3 53.8224 64.8087 129.0247 0.0000 0.0000 0.0000
# 4 0.0000 0.0000 0.0000 34.1054 0.0000 0.0000
# 5 0.0000 0.0000 0.0000 0.0000 41.6082 0.0000
# 6 0.0000 0.0000 0.0000 0.0000 0.0000 28.4066
#
#
#
# Elastic Compliance Matrix: (Units=1/GPa)
#
#
# Indices 1 2 3 4 5 6 
#
# 1 0.008152 -0.002363 -0.002214 0.000000 0.000000 0.000000
# 2 -0.002363 0.008193 -0.003130 0.000000 0.000000 0.000000
# 3 -0.002214 -0.003130 0.010246 0.000000 0.000000 0.000000
# 4 0.000000 0.000000 0.000000 0.029321 0.000000 0.000000
# 5 0.000000 0.000000 0.000000 0.000000 0.024034 0.000000
# 6 0.000000 0.000000 0.000000 0.000000 0.000000 0.035203
#
#
# Mechanical properties :
#
#
# Convention : Reuss Voigt Hill
#
# Bulk Modulus (GPa) = 89.45769 91.06822 90.26296
# Shear Modulus (GPa) = 37.23368 38.61133 37.92251
#
# Velocity S-wave (km/s) = 4.26397 4.34214 4.30323
# Velocity P-wave (km/s) = 8.24165 8.34315 8.29255
#
# Compressibility (1/GPa) = 0.01117847
#
# Stress axis : x y z
#
# Youngs Moduli (GPa) = 122.67259 122.05496 97.59931
#
# Poissons Ratio (x) = 0.28838 0.21606
# Poissons Ratio (y) = 0.28984 0.30546
# Poissons Ratio (z) = 0.27156 0.38200
#
# Static dielectric constant tensor:
#      x y z
#    x 1.743930 0.000000 0.000000 
#    y 0.000000 1.782840 0.000000 
#    z 0.000000 0.000000 1.792060 
# 
# From -- ./inp_files/45495.got.cif
#   From: 2010.05.17/outbox.cif.g08.bks.cpg/sg71_23_cif.got.tgz:45495.got - 2010.06.03 16:22:01.
