data_PCOD9520343
_publ_section_title
;
Structure prediction by ZEFSAII (Michael W. Deem and Ramdas Pophale) SiO2 
 PCOD9520343
Probable space group: I M M M
;
_chemical_formula_sum "Si O2"
_cell_formula_units_Z 42
_cell_length_a 7.539666
_cell_length_b 24.146477
_cell_length_c 10.388737
_cell_angle_alpha 90.000000
_cell_angle_beta 90.000000
_cell_angle_gamma 90.000000
_cell_volume 1891.335764
_symmetry_space_group_name_H-M "I M M M"
_symmetry_group_IT_number 71
_symmetry_cell_setting 'orthorhombic'
loop_
_space_group_symop_operation_xyz
x,y,z
-x,-y,z
x,-y,-z
-x,y,-z
-x,-y,-z
x,y,-z
-x,y,z
x,-y,z
1/2+x,1/2+y,1/2+z
1/2-x,1/2-y,1/2+z
1/2+x,1/2-y,1/2-z
1/2-x,1/2+y,1/2-z
1/2-x,1/2-y,1/2-z
1/2+x,1/2+y,1/2-z
1/2-x,1/2+y,1/2+z
1/2+x,1/2-y,1/2+z
loop_
_atom_site_type_symbol
_atom_site_label
_atom_site_fract_x
_atom_site_fract_y
_atom_site_fract_z
Si Si1 0.288320 0.198014 0.500000
Si Si2 0.710728 0.380665 0.236875
Si Si3 0.803985 0.000000 0.730902
Si Si4 0.000000 0.000000 0.000000
Si Si5 0.218292 0.174934 0.000000
O O1 0.500000 0.200485 0.500000
O O2 0.232195 0.164053 0.374552
O O3 0.223450 0.261213 0.500000
O O4 0.500000 0.389848 0.256769
O O5 0.784082 0.441169 0.201363
O O6 0.777901 0.356212 0.371370
O O7 0.848818 0.000000 0.884333
O O8 0.000000 0.000000 0.664835
O O9 0.000000 0.174528 0.000000
#
# Coordination Sequence:
#
# PCOD9520343 Si02
#       5
#     8  16   8   2   8
#     4  11  23  37  49  75 116 155 181 212 259 331
#     4  10  19  35  58  83 106 136 178 231 279 321
#     4   8  16  27  54  86 108 122 167 227 283 311
#     4   8  12  28  52  86 114 120 156 234 286 302
#     4   9  19  34  58  82 103 135 187 233 272 312
#
# _framework density 22.206529
#
# number of rings (size 3 to 8) (size 9 to 14) (size 15 to 20)
#    0.571    1.905    0.000    2.857    2.667    0.762 
#    0.000    7.619    0.000    0.000    0.000    4.000 
#    0.000    0.000    0.000    0.000    0.000    0.000 
#
# Total GULP energy -116939.368948 kJ/mol
# GULP energy per Si atom -5568.541378 kJ/mol
# Density = 2.215599 g / cm^3
# Si number density = 22.206529 Si / 1000 Ang^3
#
#
#
# Elastic Constant Matrix: (Units=GPa)
#
#
# Indices 1 2 3 4 5 6 
#
# 1 50.1101 14.4382 -1.1751 0.0001 -0.0001 0.0000
# 2 14.4382 241.5513 66.0062 -0.0004 0.0002 0.0000
# 3 -1.1751 66.0062 114.3760 -0.0010 0.0001 -0.0001
# 4 0.0001 -0.0004 -0.0010 75.4092 0.0007 0.0001
# 5 -0.0001 0.0002 0.0001 0.0007 38.3682 0.0000
# 6 0.0000 0.0000 -0.0001 0.0001 0.0000 16.6993
#
#
#
# Elastic Compliance Matrix: (Units=1/GPa)
#
#
# Indices 1 2 3 4 5 6 
#
# 1 0.020419 -0.001517 0.001085 0.000000 0.000000 0.000000
# 2 -0.001517 0.005028 -0.002917 0.000000 0.000000 0.000000
# 3 0.001085 -0.002917 0.010438 0.000000 0.000000 0.000000
# 4 0.000000 0.000000 0.000000 0.013261 0.000000 0.000000
# 5 0.000000 0.000000 0.000000 0.000000 0.026063 0.000000
# 6 0.000000 0.000000 0.000000 0.000000 0.000000 0.059883
#
#
# Mechanical properties :
#
#
# Convention : Reuss Voigt Hill
#
# Bulk Modulus (GPa) = 34.26263 62.73067 48.49665
# Shear Modulus (GPa) = 32.99951 47.87989 40.43970
#
# Velocity S-wave (km/s) = 3.85908 4.64844 4.27203
# Velocity P-wave (km/s) = 5.94300 7.55783 6.79853
#
# Compressibility (1/GPa) = 0.02918632
#
# Stress axis : x y z
#
# Youngs Moduli (GPa) = 48.97491 198.89807 95.80672
#
# Poissons Ratio (x) = 0.30174 -0.10398
# Poissons Ratio (y) = 0.07430 0.27947
# Poissons Ratio (z) = -0.05315 0.58020
#
# Static dielectric constant tensor:
#      x y z
#    x 1.877590 0.000000 0.000000 
#    y 0.000000 1.869870 0.000000 
#    z 0.000000 0.000000 1.791320 
# 
# From -- ./inp_files/18087.got.cif
#   From: 2010.05.17/outbox.cif.g08.bks.cpg/sg71_10_cif.got.tgz:18087.got - 2010.06.03 16:22:01.
