data_PCOD9520508
_publ_section_title
;
Structure prediction by ZEFSAII (Michael W. Deem and Ramdas Pophale) SiO2 
 PCOD9520508
Probable space group: I M M M
;
_chemical_formula_sum "Si O2"
_cell_formula_units_Z 92
_cell_length_a 20.184874
_cell_length_b 14.600766
_cell_length_c 16.969134
_cell_angle_alpha 90.000000
_cell_angle_beta 90.000000
_cell_angle_gamma 90.000000
_cell_volume 5001.051913
_symmetry_space_group_name_H-M "I M M M"
_symmetry_group_IT_number 71
_symmetry_cell_setting 'orthorhombic'
loop_
_space_group_symop_operation_xyz
x,y,z
-x,-y,z
x,-y,-z
-x,y,-z
-x,-y,-z
x,y,-z
-x,y,z
x,-y,z
1/2+x,1/2+y,1/2+z
1/2-x,1/2-y,1/2+z
1/2+x,1/2-y,1/2-z
1/2-x,1/2+y,1/2-z
1/2-x,1/2-y,1/2-z
1/2+x,1/2+y,1/2-z
1/2-x,1/2+y,1/2+z
1/2+x,1/2-y,1/2+z
loop_
_atom_site_type_symbol
_atom_site_label
_atom_site_fract_x
_atom_site_fract_y
_atom_site_fract_z
Si Si1 0.308845 0.241525 0.089653
Si Si2 0.891255 0.662874 0.275492
Si Si3 0.249438 0.104754 0.297124
Si Si4 0.075813 0.241038 0.878552
Si Si5 0.192255 0.106300 0.874881
Si Si6 0.080094 0.603756 0.000000
Si Si7 0.500000 0.000000 0.213669
O O1 0.370756 0.207378 0.141511
O O2 0.274275 0.324336 0.137194
O O3 0.255251 0.159339 0.090415
O O4 0.325015 0.265448 0.000000
O O5 0.822037 0.629674 0.236049
O O6 0.920091 0.735418 0.213502
O O7 0.942050 0.580102 0.284203
O O8 0.202462 0.112625 0.220046
O O9 0.248994 0.000000 0.324792
O O10 0.126398 0.160684 0.897901
O O11 0.000000 0.221193 0.900861
O O12 0.096960 0.334005 0.924768
O O13 0.191176 0.000000 0.896547
O O14 0.106700 0.500000 0.000000
O O15 0.000000 0.595538 0.000000
#
# Coordination Sequence:
#
# PCOD9520508 Si02
#       7
#    16  16  16  16  16   8   4
#     4  11  23  40  60  88 124 165 212 265 312 362
#     4  11  21  38  59  90 126 163 206 250 312 389
#     4  10  19  37  64  89 118 154 207 265 316 375
#     4  11  21  36  59  85 122 158 201 245 311 380
#     4  10  21  38  59  82 112 159 207 253 305 363
#     4   9  22  36  53  83 121 157 192 244 306 380
#     4  12  24  36  69  97 122 178 214 254 330 385
#
# _framework density 18.396128999999998
#
# number of rings (size 3 to 8) (size 9 to 14) (size 15 to 20)
#    0.000    1.478    5.217    1.043    3.652    1.043 
#    0.000    0.870    0.000    1.565    0.000    0.000 
#    0.000    4.174    0.000    0.000    0.000    0.000 
#
# Total GULP energy -256350.395400 kJ/mol
# GULP energy per Si atom -5572.834683 kJ/mol
# Density = 1.835426 g / cm^3
# Si number density = 18.396129 Si / 1000 Ang^3
#
#
#
# Elastic Constant Matrix: (Units=GPa)
#
#
# Indices 1 2 3 4 5 6 
#
# 1 72.6982 23.5270 22.7717 0.0000 0.0000 0.0000
# 2 23.5270 100.9787 34.5267 0.0000 0.0000 0.0000
# 3 22.7717 34.5267 111.8095 0.0000 0.0000 0.0000
# 4 0.0000 0.0000 0.0000 13.2008 0.0000 0.0000
# 5 0.0000 0.0000 0.0000 0.0000 5.5728 0.0000
# 6 0.0000 0.0000 0.0000 0.0000 0.0000 40.9661
#
#
#
# Elastic Compliance Matrix: (Units=1/GPa)
#
#
# Indices 1 2 3 4 5 6 
#
# 1 0.015373 -0.002808 -0.002264 0.000000 0.000000 0.000000
# 2 -0.002808 0.011585 -0.003006 0.000000 0.000000 0.000000
# 3 -0.002264 -0.003006 0.010333 0.000000 0.000000 0.000000
# 4 0.000000 0.000000 0.000000 0.075753 0.000000 0.000000
# 5 0.000000 0.000000 0.000000 0.000000 0.179442 0.000000
# 6 0.000000 0.000000 0.000000 0.000000 0.000000 0.024410
#
#
# Mechanical properties :
#
#
# Convention : Reuss Voigt Hill
#
# Bulk Modulus (GPa) = 47.31116 49.68190 48.49653
# Shear Modulus (GPa) = 14.70171 25.59202 20.14686
#
# Velocity S-wave (km/s) = 2.83003 3.73388 3.31292
# Velocity P-wave (km/s) = 6.03760 6.75681 6.40730
#
# Compressibility (1/GPa) = 0.02113666
#
# Stress axis : x y z
#
# Youngs Moduli (GPa) = 65.04784 86.31912 96.77731
#
# Poissons Ratio (x) = 0.24236 0.21910
# Poissons Ratio (y) = 0.18264 0.29087
# Poissons Ratio (z) = 0.14727 0.25944
#
# Static dielectric constant tensor:
#      x y z
#    x 1.633440 0.000000 0.000000 
#    y 0.000000 1.623240 0.000000 
#    z 0.000000 0.000000 1.675560 
# 
# From -- ./inp_files/37853.got.cif
#   From: 2010.05.17/outbox.cif.g08.bks.cpg/sg71_19_cif.got.tgz:37853.got - 2010.06.03 16:22:01.
