data_PCOD9520347
_publ_section_title
;
Structure prediction by ZEFSAII (Michael W. Deem and Ramdas Pophale) SiO2 
 PCOD9520347
Probable space group: I M M M
;
_chemical_formula_sum "Si O2"
_cell_formula_units_Z 104
_cell_length_a 11.762705
_cell_length_b 27.234113
_cell_length_c 18.321645
_cell_angle_alpha 90.000000
_cell_angle_beta 90.000000
_cell_angle_gamma 90.000000
_cell_volume 5869.281027
_symmetry_space_group_name_H-M "I M M M"
_symmetry_group_IT_number 71
_symmetry_cell_setting 'orthorhombic'
loop_
_space_group_symop_operation_xyz
x,y,z
-x,-y,z
x,-y,-z
-x,y,-z
-x,-y,-z
x,y,-z
-x,y,z
x,-y,z
1/2+x,1/2+y,1/2+z
1/2-x,1/2-y,1/2+z
1/2+x,1/2-y,1/2-z
1/2-x,1/2+y,1/2-z
1/2-x,1/2-y,1/2-z
1/2+x,1/2+y,1/2-z
1/2-x,1/2+y,1/2+z
1/2+x,1/2-y,1/2+z
loop_
_atom_site_type_symbol
_atom_site_label
_atom_site_fract_x
_atom_site_fract_y
_atom_site_fract_z
Si Si1 0.253653 0.054838 0.239099
Si Si2 0.776283 0.795324 0.416206
Si Si3 0.500000 0.555461 0.794088
Si Si4 0.500000 0.556039 0.414071
Si Si5 0.364418 0.188731 0.872427
Si Si6 0.500000 0.362520 0.917550
Si Si7 0.634042 0.846775 0.708127
Si Si8 0.249401 0.588722 0.582589
O O1 0.310165 0.099489 0.282543
O O2 0.292359 0.059623 0.154329
O O3 0.116830 0.060651 0.248604
O O4 0.282107 0.000000 0.265165
O O5 0.736024 0.798554 0.500000
O O6 0.811140 0.739625 0.398310
O O7 0.688801 0.816594 0.357625
O O8 0.889735 0.828301 0.409510
O O9 0.500000 0.500000 0.823915
O O10 0.500000 0.595386 0.857497
O O11 0.500000 0.500000 0.380931
O O12 0.500000 0.547459 0.500000
O O13 0.615057 0.586488 0.403634
O O14 0.500000 0.188124 0.887031
O O15 0.347137 0.180726 0.785604
O O16 0.303791 0.142619 0.910756
O O17 0.500000 0.382861 0.000000
O O18 0.500000 0.852090 0.697932
O O19 0.228135 0.569585 0.500000
#
# Coordination Sequence:
#
# PCOD9520347 Si02
#       8
#    16  16   8   8  16   8  16  16
#     4  10  20  34  55  81 108 145 189 233 284 335
#     4  11  21  37  61  85 112 147 185 228 280 340
#     4  10  19  35  58  83 112 142 185 243 291 336
#     4   9  17  31  50  72 105 149 189 228 275 322
#     4  10  21  38  59  83 114 151 190 230 279 333
#     4  10  20  34  59  90 112 140 183 228 288 347
#     4  10  22  39  57  81 112 149 188 228 273 330
#     4  10  20  33  52  81 115 150 191 235 277 328
#
# _framework density 17.719377000000001
#
# number of rings (size 3 to 8) (size 9 to 14) (size 15 to 20)
#    0.000    1.923    2.308    1.846    0.000    3.231 
#    1.385    0.000    0.000    1.846    0.000    9.692 
#    0.000    0.000    0.000    0.000    0.000    0.000 
#
# Total GULP energy -289899.415444 kJ/mol
# GULP energy per Si atom -5574.988759 kJ/mol
# Density = 1.767905 g / cm^3
# Si number density = 17.719377 Si / 1000 Ang^3
#
#
#
# Elastic Constant Matrix: (Units=GPa)
#
#
# Indices 1 2 3 4 5 6 
#
# 1 68.3570 34.9812 37.9432 0.0000 0.0000 0.0000
# 2 34.9812 109.3028 49.7491 0.0000 0.0000 0.0000
# 3 37.9432 49.7491 83.2882 0.0000 0.0000 0.0000
# 4 0.0000 0.0000 0.0000 12.4501 0.0000 0.0000
# 5 0.0000 0.0000 0.0000 0.0000 20.3915 0.0000
# 6 0.0000 0.0000 0.0000 0.0000 0.0000 16.3734
#
#
#
# Elastic Compliance Matrix: (Units=1/GPa)
#
#
# Indices 1 2 3 4 5 6 
#
# 1 0.020340 -0.003148 -0.007386 0.000000 0.000000 0.000000
# 2 -0.003148 0.013052 -0.006362 0.000000 0.000000 0.000000
# 3 -0.007386 -0.006362 0.019171 0.000000 0.000000 0.000000
# 4 0.000000 0.000000 0.000000 0.080320 0.000000 0.000000
# 5 0.000000 0.000000 0.000000 0.000000 0.049040 0.000000
# 6 0.000000 0.000000 0.000000 0.000000 0.000000 0.061075
#
#
# Mechanical properties :
#
#
# Convention : Reuss Voigt Hill
#
# Bulk Modulus (GPa) = 53.27199 56.25498 54.76349
# Shear Modulus (GPa) = 17.66494 19.06131 18.36312
#
# Velocity S-wave (km/s) = 3.16084 3.28339 3.22270
# Velocity P-wave (km/s) = 6.59172 6.79639 6.69484
#
# Compressibility (1/GPa) = 0.01877159
#
# Stress axis : x y z
#
# Youngs Moduli (GPa) = 49.16518 76.61636 52.16111
#
# Poissons Ratio (x) = 0.24118 0.38525
# Poissons Ratio (y) = 0.15476 0.33185
# Poissons Ratio (z) = 0.36312 0.48744
#
# Static dielectric constant tensor:
#      x y z
#    x 1.594760 0.000000 0.000000 
#    y 0.000000 1.575710 0.000000 
#    z 0.000000 0.000000 1.630030 
# 
# From -- ./inp_files/43828.got.cif
#   From: 2010.05.17/outbox.cif.g08.bks.cpg/sg71_22_cif.got.tgz:43828.got - 2010.06.03 16:22:01.
