data_PCOD9520889
_publ_section_title
;
Structure prediction by ZEFSAII (Michael W. Deem and Ramdas Pophale) SiO2 
 PCOD9520889
Probable space group: I M M M
;
_chemical_formula_sum "Si O2"
_cell_formula_units_Z 104
_cell_length_a 35.500936
_cell_length_b 15.030497
_cell_length_c 9.258071
_cell_angle_alpha 90.000000
_cell_angle_beta 90.000000
_cell_angle_gamma 90.000000
_cell_volume 4940.076245
_symmetry_space_group_name_H-M "I M M M"
_symmetry_group_IT_number 71
_symmetry_cell_setting 'orthorhombic'
loop_
_space_group_symop_operation_xyz
x,y,z
-x,-y,z
x,-y,-z
-x,y,-z
-x,-y,-z
x,y,-z
-x,y,z
x,-y,z
1/2+x,1/2+y,1/2+z
1/2-x,1/2-y,1/2+z
1/2+x,1/2-y,1/2-z
1/2-x,1/2+y,1/2-z
1/2-x,1/2-y,1/2-z
1/2+x,1/2+y,1/2-z
1/2-x,1/2+y,1/2+z
1/2+x,1/2-y,1/2+z
loop_
_atom_site_type_symbol
_atom_site_label
_atom_site_fract_x
_atom_site_fract_y
_atom_site_fract_z
Si Si1 0.216382 0.638030 0.332282
Si Si2 0.500000 0.891254 0.335910
Si Si3 0.296184 0.680327 0.326745
Si Si4 0.040724 0.891435 0.171263
Si Si5 0.574080 0.890617 0.836069
Si Si6 0.622028 0.397258 0.324855
Si Si7 0.855953 0.398130 0.841498
O O1 0.207120 0.622590 0.500000
O O2 0.260307 0.614595 0.309658
O O3 0.212167 0.740845 0.285348
O O4 0.184869 0.597751 0.229595
O O5 0.500000 0.860167 0.500000
O O6 0.462145 0.863265 0.255509
O O7 0.500000 0.000000 0.337174
O O8 0.294432 0.705056 0.500000
O O9 0.338111 0.647844 0.292897
O O10 0.081539 0.860270 0.228608
O O11 0.000000 0.861879 0.232468
O O12 0.041575 0.000000 0.181162
O O13 0.039930 0.870580 0.000000
O O14 0.612569 0.858084 0.762213
O O15 0.574047 0.000000 0.840044
O O16 0.571380 0.860462 0.000000
O O17 0.619612 0.397282 0.500000
O O18 0.624748 0.500000 0.277935
O O19 0.868125 0.500000 0.859151
O O20 0.855322 0.355381 0.000000
#
# Coordination Sequence:
#
# PCOD9520889 Si02
#       7
#    16   8  16  16  16  16  16
#     4  10  20  33  49  67  89 120 158 199 239 286
#     4   9  15  23  37  59  89 123 155 187 226 271
#     4   9  18  32  49  68  91 121 158 197 236 281
#     4   7   9  14  27  52  88 123 148 173 211 260
#     4   9  16  26  41  63  91 120 151 187 228 277
#     4   8  13  22  39  65  94 122 153 188 227 273
#     4  10  20  33  49  70  95 121 151 192 243 294
#
# _framework density 21.052306999999999
#
# number of rings (size 3 to 8) (size 9 to 14) (size 15 to 20)
#    0.000    3.154    0.000    3.000    0.000    4.923 
#    0.000    1.538    0.000    0.462    2.000    0.000 
#    0.000    0.000    0.000    3.846    0.000    3.077 
#
# Total GULP energy -289492.553810 kJ/mol
# GULP energy per Si atom -5567.164496 kJ/mol
# Density = 2.100439 g / cm^3
# Si number density = 21.052307 Si / 1000 Ang^3
#
#
#
# Elastic Constant Matrix: (Units=GPa)
#
#
# Indices 1 2 3 4 5 6 
#
# 1 208.9913 12.2225 59.4221 0.0000 0.0000 0.0000
# 2 12.2225 14.4343 1.8502 0.0000 0.0000 0.0000
# 3 59.4221 1.8502 101.7924 0.0000 0.0000 0.0000
# 4 0.0000 0.0000 0.0000 5.0140 0.0000 0.0000
# 5 0.0000 0.0000 0.0000 0.0000 23.0229 0.0000
# 6 0.0000 0.0000 0.0000 0.0000 0.0000 -103.0729
#
#
#
# Elastic Compliance Matrix: (Units=1/GPa)
#
#
# Indices 1 2 3 4 5 6 
#
# 1 0.006036 -0.004670 -0.003438 0.000000 0.000000 0.000000
# 2 -0.004670 0.073055 0.001398 0.000000 0.000000 0.000000
# 3 -0.003438 0.001398 0.011806 0.000000 0.000000 0.000000
# 4 0.000000 0.000000 0.000000 0.199442 0.000000 0.000000
# 5 0.000000 0.000000 0.000000 0.000000 0.043435 0.000000
# 6 0.000000 0.000000 0.000000 0.000000 0.000000 -0.009702
#
#
# Mechanical properties :
#
#
# Convention : Reuss Voigt Hill
#
# Bulk Modulus (GPa) = 12.90726 52.46751 32.68739
# Shear Modulus (GPa) = 13.76207 1.77434 7.76821
#
# Velocity S-wave (km/s) = 2.55955 0.91905 1.92301
# Velocity P-wave (km/s) = 3.85738 5.10909 4.52671
#
# Compressibility (1/GPa) = 0.07747575
#
# Stress axis : x y z
#
# Youngs Moduli (GPa) = 165.68174 13.68836 84.70456
#
# Poissons Ratio (x) = 0.06393 0.29126
# Poissons Ratio (y) = 0.77375 -0.11845
# Poissons Ratio (z) = 0.56969 -0.01914
#
# Static dielectric constant tensor:
#      x y z
#    x 1.803860 0.000000 0.000000 
#    y 0.000000 1.897840 0.000000 
#    z 0.000000 0.000000 1.720860 
# 
# From -- ./inp_files/17006.got.cif
#   From: 2010.05.17/outbox.cif.g08.bks.cpg/sg71_9_cif.got.tgz:17006.got - 2010.06.03 16:22:01.
