data_PCOD9520018
_publ_section_title
;
Structure prediction by ZEFSAII (Michael W. Deem and Ramdas Pophale) SiO2 
 PCOD9520018
Probable space group: I M M M
;
_chemical_formula_sum "Si O2"
_cell_formula_units_Z 82
_cell_length_a 9.031678
_cell_length_b 20.920024
_cell_length_c 25.520795
_cell_angle_alpha 90.000000
_cell_angle_beta 90.000000
_cell_angle_gamma 90.000000
_cell_volume 4821.973541
_symmetry_space_group_name_H-M "I M M M"
_symmetry_group_IT_number 71
_symmetry_cell_setting 'orthorhombic'
loop_
_space_group_symop_operation_xyz
x,y,z
-x,-y,z
x,-y,-z
-x,y,-z
-x,-y,-z
x,y,-z
-x,y,z
x,-y,z
1/2+x,1/2+y,1/2+z
1/2-x,1/2-y,1/2+z
1/2+x,1/2-y,1/2-z
1/2-x,1/2+y,1/2-z
1/2-x,1/2-y,1/2-z
1/2+x,1/2+y,1/2-z
1/2-x,1/2+y,1/2+z
1/2+x,1/2-y,1/2+z
loop_
_atom_site_type_symbol
_atom_site_label
_atom_site_fract_x
_atom_site_fract_y
_atom_site_fract_z
Si Si1 0.676952 0.690028 0.219591
Si Si2 0.175582 0.427412 0.278023
Si Si3 0.256210 0.387408 0.500000
Si Si4 0.822377 0.269509 0.114880
Si Si5 0.500000 0.500000 0.500000
Si Si6 0.327955 0.763061 0.500000
Si Si7 0.165977 0.363095 0.385590
O O1 0.500000 0.695692 0.220937
O O2 0.750000 0.750000 0.250000
O O3 0.731929 0.625597 0.247484
O O4 0.739520 0.693357 0.160648
O O5 0.217427 0.500000 0.265453
O O6 0.193328 0.414328 0.340187
O O7 0.000000 0.419044 0.266551
O O8 0.373658 0.443487 0.500000
O O9 0.318127 0.314327 0.500000
O O10 0.173601 0.390344 0.444243
O O11 0.767656 0.285938 0.055911
O O12 0.781214 0.194598 0.121187
O O13 0.000000 0.277379 0.118522
O O14 0.500000 0.780470 0.500000
O O15 0.000000 0.336531 0.377047
#
# Coordination Sequence:
#
# PCOD9520018 Si02
#       7
#    16  16   8  16   2   8  16
#     4  12  23  37  56  82 110 146 191 232 277 332
#     4  10  22  39  56  78 110 145 184 231 284 335
#     4  10  21  34  48  69 101 138 189 233 276 315
#     4  10  19  33  58  84 110 141 176 224 276 333
#     4  12  24  36  46  72  96 156 194 248 266 334
#     4   8  16  33  51  77 109 131 169 216 274 322
#     4  10  20  35  54  76 104 140 182 232 284 329
#
# _framework density 17.005485
#
# number of rings (size 3 to 8) (size 9 to 14) (size 15 to 20)
#    0.000    1.756    2.439    2.634    2.732    0.390 
#    0.000    1.951    0.000    0.000    0.000    0.683 
#    0.000    5.463    0.000    0.000    0.000    0.000 
#
# Total GULP energy -228333.846916 kJ/mol
# GULP energy per Si atom -5569.118217 kJ/mol
# Density = 1.696678 g / cm^3
# Si number density = 17.005485 Si / 1000 Ang^3
#
#
#
# Elastic Constant Matrix: (Units=GPa)
#
#
# Indices 1 2 3 4 5 6 
#
# 1 90.4431 48.4881 50.6587 0.0000 0.0000 0.0000
# 2 48.4881 79.9589 58.7686 0.0000 0.0000 0.0000
# 3 50.6587 58.7686 142.6201 0.0000 0.0000 0.0000
# 4 0.0000 0.0000 0.0000 13.8879 0.0000 0.0000
# 5 0.0000 0.0000 0.0000 0.0000 63.4033 0.0000
# 6 0.0000 0.0000 0.0000 0.0000 0.0000 24.9053
#
#
#
# Elastic Compliance Matrix: (Units=1/GPa)
#
#
# Indices 1 2 3 4 5 6 
#
# 1 0.017015 -0.008429 -0.002571 0.000000 0.000000 0.000000
# 2 -0.008429 0.022115 -0.006119 0.000000 0.000000 0.000000
# 3 -0.002571 -0.006119 0.010446 0.000000 0.000000 0.000000
# 4 0.000000 0.000000 0.000000 0.072005 0.000000 0.000000
# 5 0.000000 0.000000 0.000000 0.000000 0.015772 0.000000
# 6 0.000000 0.000000 0.000000 0.000000 0.000000 0.040152
#
#
# Mechanical properties :
#
#
# Convention : Reuss Voigt Hill
#
# Bulk Modulus (GPa) = 65.19030 69.87254 67.53142
# Shear Modulus (GPa) = 23.05677 30.77975 26.91826
#
# Velocity S-wave (km/s) = 3.68617 4.25901 3.98290
# Velocity P-wave (km/s) = 7.51899 8.08474 7.80699
#
# Compressibility (1/GPa) = 0.01533971
#
# Stress axis : x y z
#
# Youngs Moduli (GPa) = 58.77004 45.21781 95.72978
#
# Poissons Ratio (x) = 0.38114 0.24608
# Poissons Ratio (y) = 0.49538 0.58576
# Poissons Ratio (z) = 0.15107 0.27668
#
# Static dielectric constant tensor:
#      x y z
#    x 1.597450 0.000000 0.000000 
#    y 0.000000 1.539400 0.000000 
#    z 0.000000 0.000000 1.624090 
# 
# From -- ./inp_files/57498.got.cif
#   From: 2010.05.17/outbox.cif.g08.bks.cpg/sg71_29_cif.got.tgz:57498.got - 2010.06.03 16:22:01.
