data_PCOD9520749
_publ_section_title
;
Structure prediction by ZEFSAII (Michael W. Deem and Ramdas Pophale) SiO2 
 PCOD9520749
Probable space group: I M M M
;
_chemical_formula_sum "Si O2"
_cell_formula_units_Z 72
_cell_length_a 28.238133
_cell_length_b 16.887523
_cell_length_c 7.615736
_cell_angle_alpha 90.000000
_cell_angle_beta 90.000000
_cell_angle_gamma 90.000000
_cell_volume 3631.732176
_symmetry_space_group_name_H-M "I M M M"
_symmetry_group_IT_number 71
_symmetry_cell_setting 'orthorhombic'
loop_
_space_group_symop_operation_xyz
x,y,z
-x,-y,z
x,-y,-z
-x,y,-z
-x,-y,-z
x,y,-z
-x,y,z
x,-y,z
1/2+x,1/2+y,1/2+z
1/2-x,1/2-y,1/2+z
1/2+x,1/2-y,1/2-z
1/2-x,1/2+y,1/2-z
1/2-x,1/2-y,1/2-z
1/2+x,1/2+y,1/2-z
1/2-x,1/2+y,1/2+z
1/2+x,1/2-y,1/2+z
loop_
_atom_site_type_symbol
_atom_site_label
_atom_site_fract_x
_atom_site_fract_y
_atom_site_fract_z
Si Si1 0.694939 0.242722 0.711354
Si Si2 0.642114 0.912488 0.709133
Si Si3 0.053624 0.312685 0.289394
Si Si4 0.944848 0.000000 0.215953
Si Si5 0.889818 0.155071 0.204930
O O1 0.689216 0.242366 0.500000
O O2 0.750000 0.250000 0.750000
O O3 0.674483 0.159017 0.779090
O O4 0.660417 0.313039 0.778453
O O5 0.650211 0.916020 0.500000
O O6 0.588483 0.883473 0.737371
O O7 0.650561 0.000000 0.781946
O O8 0.053716 0.307040 0.500000
O O9 0.075937 0.231181 0.218683
O O10 0.000000 0.323193 0.228203
O O11 0.916535 0.078175 0.276999
O O12 0.000000 0.000000 0.270855
O O13 0.945840 0.000000 0.000000
O O14 0.881726 0.137001 0.000000
#
# Coordination Sequence:
#
# PCOD9520749 Si02
#       5
#    16  16  16   8  16
#     4   9  18  33  52  73  98 129 164 206 251 299
#     4   9  19  36  55  74  97 128 169 211 246 290
#     4  10  20  32  48  73 105 137 166 201 249 302
#     4   9  16  28  51  79 103 129 167 215 256 295
#     4   9  18  33  52  74 100 133 174 213 250 299
#
# _framework density 19.82525
#
# number of rings (size 3 to 8) (size 9 to 14) (size 15 to 20)
#    0.000    2.778    0.000    2.667    0.000    7.111 
#    2.000    2.778    0.000    2.000    0.000    0.000 
#    0.000    0.000    0.000    0.000    0.000    0.000 
#
# Total GULP energy -200724.048194 kJ/mol
# GULP energy per Si atom -5575.668005 kJ/mol
# Density = 1.978013 g / cm^3
# Si number density = 19.825250 Si / 1000 Ang^3
#
#
#
# Elastic Constant Matrix: (Units=GPa)
#
#
# Indices 1 2 3 4 5 6 
#
# 1 187.5929 92.4776 -3.8751 0.0000 0.0000 0.0000
# 2 92.4776 153.5919 3.1303 0.0000 0.0000 0.0000
# 3 -3.8751 3.1303 37.6065 0.0000 0.0000 0.0000
# 4 0.0000 0.0000 0.0000 -14.7109 0.0000 0.0000
# 5 0.0000 0.0000 0.0000 0.0000 23.8700 0.0000
# 6 0.0000 0.0000 0.0000 0.0000 0.0000 34.7356
#
#
#
# Elastic Compliance Matrix: (Units=1/GPa)
#
#
# Indices 1 2 3 4 5 6 
#
# 1 0.007632 -0.004619 0.001171 0.000000 0.000000 0.000000
# 2 -0.004619 0.009317 -0.001252 0.000000 0.000000 0.000000
# 3 0.001171 -0.001252 0.026816 0.000000 0.000000 0.000000
# 4 0.000000 0.000000 0.000000 -0.067977 0.000000 0.000000
# 5 0.000000 0.000000 0.000000 0.000000 0.041894 0.000000
# 6 0.000000 0.000000 0.000000 0.000000 0.000000 0.028789
#
#
# Mechanical properties :
#
#
# Convention : Reuss Voigt Hill
#
# Bulk Modulus (GPa) = 29.09858 62.47299 45.78579
# Shear Modulus (GPa) = 74.26620 27.91620 51.09120
#
# Velocity S-wave (km/s) = 6.12713 3.75655 5.08200
# Velocity P-wave (km/s) = 8.04767 7.09900 7.58818
#
# Compressibility (1/GPa) = 0.03436593
#
# Stress axis : x y z
#
# Youngs Moduli (GPa) = 131.02847 107.32615 37.29125
#
# Poissons Ratio (x) = 0.49574 -0.04366
# Poissons Ratio (y) = 0.60523 0.04667
# Poissons Ratio (z) = -0.15342 0.13432
#
# Static dielectric constant tensor:
#      x y z
#    x 1.684030 0.000000 0.000000 
#    y 0.000000 1.690490 0.000000 
#    z 0.000000 0.000000 1.740650 
# 
# From -- ./inp_files/8153.got.cif
#   From: 2010.05.17/outbox.cif.g08.bks.cpg/sg71_5_cif.got.tgz:8153.got - 2010.06.03 16:22:01.
