data_PCOD9520201
_publ_section_title
;
Structure prediction by ZEFSAII (Michael W. Deem and Ramdas Pophale) SiO2 
 PCOD9520201
Probable space group: I M M M
;
_chemical_formula_sum "Si O2"
_cell_formula_units_Z 72
_cell_length_a 14.201676
_cell_length_b 15.201106
_cell_length_c 17.471347
_cell_angle_alpha 90.000000
_cell_angle_beta 90.000000
_cell_angle_gamma 90.000000
_cell_volume 3771.735046
_symmetry_space_group_name_H-M "I M M M"
_symmetry_group_IT_number 71
_symmetry_cell_setting 'orthorhombic'
loop_
_space_group_symop_operation_xyz
x,y,z
-x,-y,z
x,-y,-z
-x,y,-z
-x,-y,-z
x,y,-z
-x,y,z
x,-y,z
1/2+x,1/2+y,1/2+z
1/2-x,1/2-y,1/2+z
1/2+x,1/2-y,1/2-z
1/2-x,1/2+y,1/2-z
1/2-x,1/2-y,1/2-z
1/2+x,1/2+y,1/2-z
1/2-x,1/2+y,1/2+z
1/2+x,1/2-y,1/2+z
loop_
_atom_site_type_symbol
_atom_site_label
_atom_site_fract_x
_atom_site_fract_y
_atom_site_fract_z
Si Si1 0.886636 0.500000 0.221532
Si Si2 0.890070 0.308618 0.287949
Si Si3 0.268069 0.500000 0.091462
Si Si4 0.800828 0.811556 0.414367
Si Si5 0.112967 0.902630 0.000000
Si Si6 0.390523 0.254642 0.381416
O O1 0.864636 0.409443 0.267013
O O2 0.823392 0.500000 0.145613
O O3 0.000000 0.500000 0.206044
O O4 0.833075 0.261163 0.354412
O O5 0.880554 0.251770 0.209874
O O6 0.000000 0.308888 0.309164
O O7 0.326359 0.589045 0.107574
O O8 0.247426 0.500000 0.000000
O O9 0.834006 0.791418 0.500000
O O10 0.686849 0.811517 0.413773
O O11 0.134339 0.845499 0.075590
O O12 0.000000 0.910404 0.000000
O O13 0.154709 0.000000 0.000000
O O14 0.500000 0.233905 0.399005
#
# Coordination Sequence:
#
# PCOD9520201 Si02
#       6
#     8  16   8  16   8  16
#     4  10  20  37  61  89 119 151 191 246 302 355
#     4  10  22  40  60  85 116 155 201 245 294 349
#     4  10  22  35  55  87 121 152 194 239 296 356
#     4  11  22  39  59  85 117 156 196 246 292 350
#     4   9  18  34  52  79 118 152 187 233 284 349
#     4  10  19  34  57  83 116 153 187 234 296 356
#
# _framework density 19.089359000000002
#
# number of rings (size 3 to 8) (size 9 to 14) (size 15 to 20)
#    0.000    1.889    3.333    0.667    0.000    0.667 
#    4.000    3.333    0.000    4.000    0.000    0.000 
#    0.000    0.000    0.000    0.000    0.000    0.000 
#
# Total GULP energy -200597.734775 kJ/mol
# GULP energy per Si atom -5572.159299 kJ/mol
# Density = 1.904591 g / cm^3
# Si number density = 19.089359 Si / 1000 Ang^3
#
#
#
# Elastic Constant Matrix: (Units=GPa)
#
#
# Indices 1 2 3 4 5 6 
#
# 1 32.5524 29.9766 35.3433 0.0000 0.0000 0.0000
# 2 29.9766 155.7190 77.4923 0.0000 0.0000 0.0000
# 3 35.3433 77.4923 113.8606 0.0000 0.0000 0.0000
# 4 0.0000 0.0000 0.0000 26.9071 0.0000 0.0000
# 5 0.0000 0.0000 0.0000 0.0000 17.6379 0.0000
# 6 0.0000 0.0000 0.0000 0.0000 0.0000 18.5130
#
#
#
# Elastic Compliance Matrix: (Units=1/GPa)
#
#
# Indices 1 2 3 4 5 6 
#
# 1 0.047079 -0.002708 -0.012771 0.000000 0.000000 0.000000
# 2 -0.002708 0.009866 -0.005875 0.000000 0.000000 0.000000
# 3 -0.012771 -0.005875 0.016745 0.000000 0.000000 0.000000
# 4 0.000000 0.000000 0.000000 0.037165 0.000000 0.000000
# 5 0.000000 0.000000 0.000000 0.000000 0.056696 0.000000
# 6 0.000000 0.000000 0.000000 0.000000 0.000000 0.054016
#
#
# Mechanical properties :
#
#
# Convention : Reuss Voigt Hill
#
# Bulk Modulus (GPa) = 32.27441 65.30626 48.79034
# Shear Modulus (GPa) = 18.20818 23.23291 20.72055
#
# Velocity S-wave (km/s) = 3.09178 3.49242 3.29819
# Velocity P-wave (km/s) = 5.44878 7.10970 6.33392
#
# Compressibility (1/GPa) = 0.03098430
#
# Stress axis : x y z
#
# Youngs Moduli (GPa) = 21.24093 101.35328 59.71908
#
# Poissons Ratio (x) = 0.27442 0.76267
# Poissons Ratio (y) = 0.05751 0.35082
# Poissons Ratio (z) = 0.27127 0.59541
#
# Static dielectric constant tensor:
#      x y z
#    x 1.677880 0.000000 0.000000 
#    y 0.000000 1.709750 0.000000 
#    z 0.000000 0.000000 1.666230 
# 
# From -- ./inp_files/36092.got.cif
#   From: 2010.05.17/outbox.cif.g08.bks.cpg/sg71_19_cif.got.tgz:36092.got - 2010.06.03 16:22:01.
