data_PCOD9520568
_publ_section_title
;
Structure prediction by ZEFSAII (Michael W. Deem and Ramdas Pophale) SiO2 
 PCOD9520568
Probable space group: I M M M
;
_chemical_formula_sum "Si O2"
_cell_formula_units_Z 120
_cell_length_a 7.289182
_cell_length_b 23.083056
_cell_length_c 31.453793
_cell_angle_alpha 90.000000
_cell_angle_beta 90.000000
_cell_angle_gamma 90.000000
_cell_volume 5292.308151
_symmetry_space_group_name_H-M "I M M M"
_symmetry_group_IT_number 71
_symmetry_cell_setting 'orthorhombic'
loop_
_space_group_symop_operation_xyz
x,y,z
-x,-y,z
x,-y,-z
-x,y,-z
-x,-y,-z
x,y,-z
-x,y,z
x,-y,z
1/2+x,1/2+y,1/2+z
1/2-x,1/2-y,1/2+z
1/2+x,1/2-y,1/2-z
1/2-x,1/2+y,1/2-z
1/2-x,1/2-y,1/2-z
1/2+x,1/2+y,1/2-z
1/2-x,1/2+y,1/2+z
1/2+x,1/2-y,1/2+z
loop_
_atom_site_type_symbol
_atom_site_label
_atom_site_fract_x
_atom_site_fract_y
_atom_site_fract_z
Si Si1 0.788394 0.429407 0.500000
Si Si2 0.723188 0.437266 0.927258
Si Si3 0.286203 0.063211 0.760014
Si Si4 0.720644 0.398772 0.834523
Si Si5 0.723579 0.727681 0.138327
Si Si6 0.276718 0.690283 0.046088
Si Si7 0.723573 0.149340 0.829824
Si Si8 0.276104 0.066770 0.907215
O O1 0.788520 0.500000 0.500000
O O2 0.711617 0.413246 0.546004
O O3 0.000000 0.409678 0.500000
O O4 0.500000 0.437039 0.929101
O O5 0.783099 0.500000 0.943875
O O6 0.777201 0.431027 0.877673
O O7 0.779573 0.377269 0.949075
O O8 0.500000 0.059996 0.771827
O O9 0.277131 0.074138 0.709851
O O10 0.212840 0.116890 0.787236
O O11 0.206023 0.000000 0.770076
O O12 0.500000 0.399630 0.834865
O O13 0.780382 0.332066 0.839352
O O14 0.500000 0.727657 0.138210
O O15 0.780536 0.723409 0.088794
O O16 0.786131 0.785431 0.161721
O O17 0.500000 0.690893 0.046551
O O18 0.218026 0.712715 0.000000
O O19 0.500000 0.152238 0.829347
O O20 0.777322 0.108818 0.869395
O O21 0.500000 0.066428 0.908609
O O22 0.220725 0.000000 0.899968
#
# Coordination Sequence:
#
# PCOD9520568 Si02
#       8
#     8  16  16  16  16  16  16  16
#     4   7  10  16  26  42  64  92 133 177 204 235
#     4   8  13  21  35  55  77 104 137 168 202 247
#     4  10  20  31  44  65  88 109 140 181 219 254
#     4   9  17  30  47  63  84 115 147 176 209 253
#     4   8  15  27  40  56  78 109 146 176 206 251
#     4   8  13  21  32  49  77 107 134 170 208 239
#     4   9  16  26  38  53  78 110 140 172 213 257
#     4   8  12  19  31  46  68 100 136 173 211 250
#
# _framework density 22.674416000000001
#
# number of rings (size 3 to 8) (size 9 to 14) (size 15 to 20)
#    0.000    3.533    0.000    3.200    0.000    3.200 
#    1.200    1.333    0.000    0.000    0.000    0.000 
#    0.000    8.533    0.000   29.933    0.667   32.067 
#
# Total GULP energy -334777.037939 kJ/mol
# GULP energy per Si atom -5579.617299 kJ/mol
# Density = 2.262281 g / cm^3
# Si number density = 22.674416 Si / 1000 Ang^3
#
#
#
# Elastic Constant Matrix: (Units=GPa)
#
#
# Indices 1 2 3 4 5 6 
#
# 1 93.1979 2.7655 -5.1224 0.0000 0.0000 0.0000
# 2 2.7655 101.4811 26.2546 0.0000 0.0000 0.0000
# 3 -5.1224 26.2546 74.6883 0.0000 0.0000 0.0000
# 4 0.0000 0.0000 0.0000 16.7061 0.0000 0.0000
# 5 0.0000 0.0000 0.0000 0.0000 -6.8301 0.0000
# 6 0.0000 0.0000 0.0000 0.0000 0.0000 -17.1713
#
#
#
# Elastic Compliance Matrix: (Units=1/GPa)
#
#
# Indices 1 2 3 4 5 6 
#
# 1 0.010797 -0.000534 0.000928 0.000000 0.000000 0.000000
# 2 -0.000534 0.010866 -0.003856 0.000000 0.000000 0.000000
# 3 0.000928 -0.003856 0.014808 0.000000 0.000000 0.000000
# 4 0.000000 0.000000 0.000000 0.059858 0.000000 0.000000
# 5 0.000000 0.000000 0.000000 0.000000 -0.146411 0.000000
# 6 0.000000 0.000000 0.000000 0.000000 0.000000 -0.058237
#
#
# Mechanical properties :
#
#
# Convention : Reuss Voigt Hill
#
# Bulk Modulus (GPa) = 33.84512 35.24031 34.54271
# Shear Modulus (GPa) = -54.61830 14.90558 -19.85636
#
# Velocity S-wave (km/s) = -4.91328 2.56671 -2.96246
# Velocity P-wave (km/s) = 4.15069 4.93555 1.88831
#
# Compressibility (1/GPa) = 0.02954636
#
# Stress axis : x y z
#
# Youngs Moduli (GPa) = 92.62062 92.02742 67.52989
#
# Poissons Ratio (x) = 0.04918 -0.06269
# Poissons Ratio (y) = 0.04950 0.26042
# Poissons Ratio (z) = -0.08598 0.35490
#
# Static dielectric constant tensor:
#      x y z
#    x 1.977980 0.000000 0.000000 
#    y 0.000000 1.815940 0.000000 
#    z 0.000000 0.000000 1.814540 
# 
# From -- ./inp_files/69557.got.cif
#   From: 2010.05.17/outbox.cif.g08.bks.cpg/sg71_35_cif.got.tgz:69557.got - 2010.06.03 16:22:01.
