data_PCOD9520170
_publ_section_title
;
Structure prediction by ZEFSAII (Michael W. Deem and Ramdas Pophale) SiO2 
 PCOD9520170
Probable space group: I M M M
;
_chemical_formula_sum "Si O2"
_cell_formula_units_Z 96
_cell_length_a 19.216745
_cell_length_b 8.876270
_cell_length_c 30.248138
_cell_angle_alpha 90.000000
_cell_angle_beta 90.000000
_cell_angle_gamma 90.000000
_cell_volume 5159.516162
_symmetry_space_group_name_H-M "I M M M"
_symmetry_group_IT_number 71
_symmetry_cell_setting 'orthorhombic'
loop_
_space_group_symop_operation_xyz
x,y,z
-x,-y,z
x,-y,-z
-x,y,-z
-x,-y,-z
x,y,-z
-x,y,z
x,-y,z
1/2+x,1/2+y,1/2+z
1/2-x,1/2-y,1/2+z
1/2+x,1/2-y,1/2-z
1/2-x,1/2+y,1/2-z
1/2-x,1/2-y,1/2-z
1/2+x,1/2+y,1/2-z
1/2-x,1/2+y,1/2+z
1/2+x,1/2-y,1/2+z
loop_
_atom_site_type_symbol
_atom_site_label
_atom_site_fract_x
_atom_site_fract_y
_atom_site_fract_z
Si Si1 0.082072 0.182466 0.550140
Si Si2 0.225785 0.180366 0.203749
Si Si3 0.921183 0.321163 0.176397
Si Si4 0.310053 0.675678 0.123317
Si Si5 0.424221 0.670631 0.582818
Si Si6 0.803260 0.333199 0.047097
O O1 0.101175 0.235357 0.500000
O O2 0.125700 0.235123 0.593107
O O3 0.000000 0.212720 0.555734
O O4 0.091525 0.000000 0.549578
O O5 0.250000 0.250000 0.250000
O O6 0.146747 0.238251 0.195242
O O7 0.279160 0.237236 0.165452
O O8 0.226281 0.000000 0.204717
O O9 0.913678 0.500000 0.183125
O O10 0.919959 0.281717 0.124407
O O11 0.000000 0.277051 0.191925
O O12 0.323383 0.500000 0.135737
O O13 0.248240 0.677977 0.087556
O O14 0.500000 0.685895 0.561842
O O15 0.417701 0.500000 0.599889
O O16 0.362092 0.709881 0.550962
O O17 0.835965 0.500000 0.048895
O O18 0.765797 0.322274 0.000000
#
# Coordination Sequence:
#
# PCOD9520170 Si02
#       6
#    16  16  16  16  16  16
#     4   8  14  27  52  87 122 155 193 236 283 341
#     4  12  25  41  62  87 116 150 193 243 298 354
#     4  10  20  37  62  88 114 146 185 231 285 345
#     4  10  19  34  56  82 114 149 189 238 292 346
#     4  10  20  33  50  74 106 146 189 231 274 320
#     4  10  20  32  49  75 108 148 191 232 277 333
#
# _framework density 18.606394999999999
#
# number of rings (size 3 to 8) (size 9 to 14) (size 15 to 20)
#    0.000    2.000    1.667    3.500    0.000    4.667 
#    0.000    2.500    0.000    5.000    0.000    1.167 
#    0.000    0.000    0.000    0.000    0.000    0.000 
#
# Total GULP energy -267407.920136 kJ/mol
# GULP energy per Si atom -5570.998336 kJ/mol
# Density = 1.856405 g / cm^3
# Si number density = 18.606395 Si / 1000 Ang^3
#
#
#
# Elastic Constant Matrix: (Units=GPa)
#
#
# Indices 1 2 3 4 5 6 
#
# 1 111.5742 42.8745 55.1475 0.0000 0.0000 0.0000
# 2 42.8745 72.0439 43.3231 0.0000 0.0000 0.0000
# 3 55.1475 43.3231 123.3276 0.0000 0.0000 0.0000
# 4 0.0000 0.0000 0.0000 18.8358 0.0000 0.0000
# 5 0.0000 0.0000 0.0000 0.0000 66.6759 0.0000
# 6 0.0000 0.0000 0.0000 0.0000 0.0000 17.4357
#
#
#
# Elastic Compliance Matrix: (Units=1/GPa)
#
#
# Indices 1 2 3 4 5 6 
#
# 1 0.012954 -0.005358 -0.003911 0.000000 0.000000 0.000000
# 2 -0.005358 0.019814 -0.004564 0.000000 0.000000 0.000000
# 3 -0.003911 -0.004564 0.011461 0.000000 0.000000 0.000000
# 4 0.000000 0.000000 0.000000 0.053090 0.000000 0.000000
# 5 0.000000 0.000000 0.000000 0.000000 0.014998 0.000000
# 6 0.000000 0.000000 0.000000 0.000000 0.000000 0.057354
#
#
# Mechanical properties :
#
#
# Convention : Reuss Voigt Hill
#
# Bulk Modulus (GPa) = 60.37548 65.51512 62.94530
# Shear Modulus (GPa) = 24.64788 31.62952 28.13870
#
# Velocity S-wave (km/s) = 3.64359 4.12749 3.89307
# Velocity P-wave (km/s) = 7.08662 7.61593 7.35604
#
# Compressibility (1/GPa) = 0.01656302
#
# Stress axis : x y z
#
# Youngs Moduli (GPa) = 77.19421 50.47011 87.25549
#
# Poissons Ratio (x) = 0.27040 0.34122
# Poissons Ratio (y) = 0.41359 0.39828
# Poissons Ratio (z) = 0.30188 0.23037
#
# Static dielectric constant tensor:
#      x y z
#    x 1.679400 0.000000 0.000000 
#    y 0.000000 1.644720 0.000000 
#    z 0.000000 0.000000 1.642060 
# 
# From -- ./inp_files/56152.got.cif
#   From: 2010.05.17/outbox.cif.g08.bks.cpg/sg71_29_cif.got.tgz:56152.got - 2010.06.03 16:22:01.
