data_PCOD9520006
_publ_section_title
;
Structure prediction by ZEFSAII (Michael W. Deem and Ramdas Pophale) SiO2 
 PCOD9520006
Probable space group: I M M M
;
_chemical_formula_sum "Si O2"
_cell_formula_units_Z 88
_cell_length_a 25.857303
_cell_length_b 8.113716
_cell_length_c 21.936490
_cell_angle_alpha 90.000000
_cell_angle_beta 90.000000
_cell_angle_gamma 90.000000
_cell_volume 4602.249565
_symmetry_space_group_name_H-M "I M M M"
_symmetry_group_IT_number 71
_symmetry_cell_setting 'orthorhombic'
loop_
_space_group_symop_operation_xyz
x,y,z
-x,-y,z
x,-y,-z
-x,y,-z
-x,-y,-z
x,y,-z
-x,y,z
x,-y,z
1/2+x,1/2+y,1/2+z
1/2-x,1/2-y,1/2+z
1/2+x,1/2-y,1/2-z
1/2-x,1/2+y,1/2-z
1/2-x,1/2-y,1/2-z
1/2+x,1/2+y,1/2-z
1/2-x,1/2+y,1/2+z
1/2+x,1/2-y,1/2+z
loop_
_atom_site_type_symbol
_atom_site_label
_atom_site_fract_x
_atom_site_fract_y
_atom_site_fract_z
Si Si1 0.611673 0.698905 0.569668
Si Si2 0.086481 0.314630 0.355986
Si Si3 0.941328 0.000000 0.428110
Si Si4 0.000000 0.698132 0.258862
Si Si5 0.000000 0.697986 0.120500
Si Si6 0.299626 0.303358 0.664804
Si Si7 0.812254 0.190278 0.309237
O O1 0.622110 0.754737 0.500000
O O2 0.613576 0.500000 0.570029
O O3 0.553445 0.747808 0.588799
O O4 0.655116 0.755247 0.618940
O O5 0.070535 0.500000 0.374504
O O6 0.050455 0.261671 0.298777
O O7 0.145551 0.311062 0.336113
O O8 0.081600 0.171387 0.405084
O O9 0.940624 0.000000 0.500000
O O10 0.000000 0.000000 0.405078
O O11 0.000000 0.500000 0.253059
O O12 0.000000 0.764177 0.190292
O O13 0.000000 0.500000 0.121176
O O14 0.293282 0.500000 0.655283
O O15 0.243598 0.219154 0.660539
O O16 0.312263 0.280413 0.736390
O O17 0.827724 0.000000 0.318703
#
# Coordination Sequence:
#
# PCOD9520006 Si02
#       7
#    16  16   8   8   8  16  16
#     4  10  21  38  56  77 110 152 198 239 281 347
#     4  11  21  38  61  88 122 159 195 245 300 354
#     4  11  24  42  62  88 120 156 200 243 291 361
#     4   9  20  35  55  87 120 150 189 235 292 348
#     4  11  22  36  55  84 117 148 190 240 288 344
#     4   9  19  35  55  83 112 153 197 241 304 358
#     4  10  19  33  57  86 118 149 193 251 303 357
#
# _framework density 19.121082999999999
#
# number of rings (size 3 to 8) (size 9 to 14) (size 15 to 20)
#    0.000    1.909    1.818    2.182    0.000    3.273 
#    3.273    1.818    0.000    2.182    0.000    0.000 
#    0.000    0.000    0.000    0.000    0.000    0.000 
#
# Total GULP energy -245363.996907 kJ/mol
# GULP energy per Si atom -5576.454475 kJ/mol
# Density = 1.907756 g / cm^3
# Si number density = 19.121083 Si / 1000 Ang^3
#
#
#
# Elastic Constant Matrix: (Units=GPa)
#
#
# Indices 1 2 3 4 5 6 
#
# 1 121.4832 27.4767 53.5491 0.0000 0.0000 0.0000
# 2 27.4767 63.3083 34.7118 0.0000 0.0000 0.0000
# 3 53.5491 34.7118 88.9950 0.0000 0.0000 0.0000
# 4 0.0000 0.0000 0.0000 9.6664 0.0000 0.0000
# 5 0.0000 0.0000 0.0000 0.0000 4.4392 0.0000
# 6 0.0000 0.0000 0.0000 0.0000 0.0000 -14.8091
#
#
#
# Elastic Compliance Matrix: (Units=1/GPa)
#
#
# Indices 1 2 3 4 5 6 
#
# 1 0.011314 -0.001498 -0.006223 0.000000 0.000000 0.000000
# 2 -0.001498 0.020291 -0.007013 0.000000 0.000000 0.000000
# 3 -0.006223 -0.007013 0.017716 0.000000 0.000000 0.000000
# 4 0.000000 0.000000 0.000000 0.103451 0.000000 0.000000
# 5 0.000000 0.000000 0.000000 0.000000 0.225264 0.000000
# 6 0.000000 0.000000 0.000000 0.000000 0.000000 -0.067526
#
#
# Mechanical properties :
#
#
# Convention : Reuss Voigt Hill
#
# Bulk Modulus (GPa) = 50.37098 56.14018 53.25558
# Shear Modulus (GPa) = 14.42601 10.39590 12.41096
#
# Velocity S-wave (km/s) = 2.74972 2.33424 2.55045
# Velocity P-wave (km/s) = 6.04000 6.05715 6.04858
#
# Compressibility (1/GPa) = 0.01985270
#
# Stress axis : x y z
#
# Youngs Moduli (GPa) = 88.38955 49.28269 56.44472
#
# Poissons Ratio (x) = 0.07383 0.35126
# Poissons Ratio (y) = 0.13242 0.39584
# Poissons Ratio (z) = 0.55006 0.34562
#
# Static dielectric constant tensor:
#      x y z
#    x 1.667600 0.000000 0.000000 
#    y 0.000000 1.720530 0.000000 
#    z 0.000000 0.000000 1.656930 
# 
# From -- ./inp_files/55609.got.cif
#   From: 2010.05.17/outbox.cif.g08.bks.cpg/sg71_28_cif.got.tgz:55609.got - 2010.06.03 16:22:01.
