data_PCOD9520292
_publ_section_title
;
Structure prediction by ZEFSAII (Michael W. Deem and Ramdas Pophale) SiO2 
 PCOD9520292
Probable space group: I M M M
;
_chemical_formula_sum "Si O2"
_cell_formula_units_Z 88
_cell_length_a 21.156693
_cell_length_b 13.000716
_cell_length_c 15.741449
_cell_angle_alpha 90.000000
_cell_angle_beta 90.000000
_cell_angle_gamma 90.000000
_cell_volume 4329.719505
_symmetry_space_group_name_H-M "I M M M"
_symmetry_group_IT_number 71
_symmetry_cell_setting 'orthorhombic'
loop_
_space_group_symop_operation_xyz
x,y,z
-x,-y,z
x,-y,-z
-x,y,-z
-x,-y,-z
x,y,-z
-x,y,z
x,-y,z
1/2+x,1/2+y,1/2+z
1/2-x,1/2-y,1/2+z
1/2+x,1/2-y,1/2-z
1/2-x,1/2+y,1/2-z
1/2-x,1/2-y,1/2-z
1/2+x,1/2+y,1/2-z
1/2-x,1/2+y,1/2+z
1/2+x,1/2-y,1/2+z
loop_
_atom_site_type_symbol
_atom_site_label
_atom_site_fract_x
_atom_site_fract_y
_atom_site_fract_z
Si Si1 0.752414 0.000000 0.596628
Si Si2 0.069421 0.000000 0.898481
Si Si3 0.500000 0.877754 0.639917
Si Si4 0.391295 0.273465 0.846668
Si Si5 0.251479 0.219508 0.651904
Si Si6 0.114601 0.773878 0.856565
Si Si7 0.500000 0.880480 0.847885
Si Si8 0.595379 0.500000 0.096232
O O1 0.733255 0.099643 0.646566
O O2 0.828296 0.000000 0.593811
O O3 0.728832 0.000000 0.500000
O O4 0.097521 0.108262 0.872071
O O5 0.000000 0.000000 0.860046
O O6 0.067009 0.000000 0.000000
O O7 0.561999 0.809722 0.612848
O O8 0.500000 0.879049 0.743737
O O9 0.500000 0.000000 0.613960
O O10 0.319617 0.264593 0.883365
O O11 0.384521 0.260527 0.745383
O O12 0.438910 0.185090 0.876700
O O13 0.418734 0.388699 0.862789
O O14 0.250000 0.250000 0.750000
O O15 0.313755 0.265649 0.609338
O O16 0.500000 0.000000 0.873908
O O17 0.571834 0.500000 0.000000
#
# Coordination Sequence:
#
# PCOD9520292 Si02
#       8
#     8   8   8  16  16  16   8   8
#     4   9  18  33  54  78 113 149 174 216 288 347
#     4  11  23  38  54  74 108 149 192 238 277 324
#     4   9  18  31  53  80 104 135 182 217 266 337
#     4   9  18  34  53  84 107 136 179 219 273 333
#     4   9  19  33  53  84 110 138 181 235 279 327
#     4  10  19  35  56  78 108 145 179 229 280 324
#     4   9  18  33  51  74 108 143 170 211 262 321
#     4   9  17  32  55  80 108 134 167 222 271 320
#
# _framework density 20.324642999999998
#
# number of rings (size 3 to 8) (size 9 to 14) (size 15 to 20)
#    0.000    2.636    0.909    0.545    1.273    3.273 
#    6.545    0.909    0.000    1.636    0.000    0.000 
#    0.000    0.000    0.000    0.000    0.000    0.000 
#
# Total GULP energy -244943.602713 kJ/mol
# GULP energy per Si atom -5566.900062 kJ/mol
# Density = 2.027838 g / cm^3
# Si number density = 20.324643 Si / 1000 Ang^3
#
#
#
# Elastic Constant Matrix: (Units=GPa)
#
#
# Indices 1 2 3 4 5 6 
#
# 1 163.1602 99.4421 -1.9557 0.0000 0.0000 0.0000
# 2 99.4421 196.9434 10.5721 0.0000 0.0000 0.0000
# 3 -1.9557 10.5721 33.8224 0.0000 0.0000 0.0000
# 4 0.0000 0.0000 0.0000 -90.4043 0.0000 0.0000
# 5 0.0000 0.0000 0.0000 0.0000 -15.0883 0.0000
# 6 0.0000 0.0000 0.0000 0.0000 0.0000 38.2351
#
#
#
# Elastic Compliance Matrix: (Units=1/GPa)
#
#
# Indices 1 2 3 4 5 6 
#
# 1 0.008981 -0.004640 0.001970 0.000000 0.000000 0.000000
# 2 -0.004640 0.007562 -0.002632 0.000000 0.000000 0.000000
# 3 0.001970 -0.002632 0.030503 0.000000 0.000000 0.000000
# 4 0.000000 0.000000 0.000000 -0.011061 0.000000 0.000000
# 5 0.000000 0.000000 0.000000 0.000000 -0.066276 0.000000
# 6 0.000000 0.000000 0.000000 0.000000 0.000000 0.026154
#
#
# Mechanical properties :
#
#
# Convention : Reuss Voigt Hill
#
# Bulk Modulus (GPa) = 27.44215 67.78255 47.61235
# Shear Modulus (GPa) = 268.62019 5.60634 137.11327
#
# Velocity S-wave (km/s) = 11.50877 1.66264 8.22241
# Velocity P-wave (km/s) = 13.78889 6.09165 10.65931
#
# Compressibility (1/GPa) = 0.03644029
#
# Stress axis : x y z
#
# Youngs Moduli (GPa) = 111.34944 132.24133 32.78385
#
# Poissons Ratio (x) = 0.61365 -0.06458
# Poissons Ratio (y) = 0.51670 0.08629
# Poissons Ratio (z) = -0.21933 0.34806
#
# Static dielectric constant tensor:
#      x y z
#    x 1.812780 0.000000 0.000000 
#    y 0.000000 1.663210 0.000000 
#    z 0.000000 0.000000 1.717610 
# 
# From -- ./inp_files/47171.got.cif
#   From: 2010.05.17/outbox.cif.g08.bks.cpg/sg71_24_cif.got.tgz:47171.got - 2010.06.03 16:22:01.
