data_PCOD9520150
_publ_section_title
;
Structure prediction by ZEFSAII (Michael W. Deem and Ramdas Pophale) SiO2 
 PCOD9520150
Probable space group: I M M M
;
_chemical_formula_sum "Si O2"
_cell_formula_units_Z 120
_cell_length_a 8.354567
_cell_length_b 27.883692
_cell_length_c 26.177666
_cell_angle_alpha 90.000000
_cell_angle_beta 90.000000
_cell_angle_gamma 90.000000
_cell_volume 6098.248890
_symmetry_space_group_name_H-M "I M M M"
_symmetry_group_IT_number 71
_symmetry_cell_setting 'orthorhombic'
loop_
_space_group_symop_operation_xyz
x,y,z
-x,-y,z
x,-y,-z
-x,y,-z
-x,-y,-z
x,y,-z
-x,y,z
x,-y,z
1/2+x,1/2+y,1/2+z
1/2-x,1/2-y,1/2+z
1/2+x,1/2-y,1/2-z
1/2-x,1/2+y,1/2-z
1/2-x,1/2-y,1/2-z
1/2+x,1/2+y,1/2-z
1/2-x,1/2+y,1/2+z
1/2+x,1/2-y,1/2+z
loop_
_atom_site_type_symbol
_atom_site_label
_atom_site_fract_x
_atom_site_fract_y
_atom_site_fract_z
Si Si1 0.320310 0.297270 0.635363
Si Si2 0.691513 0.554965 0.607628
Si Si3 0.308457 0.119923 0.798740
Si Si4 0.180183 0.363231 0.442805
Si Si5 0.806227 0.387918 0.901369
Si Si6 0.195297 0.553758 0.000000
Si Si7 0.695425 0.056598 0.298386
Si Si8 0.690488 0.284939 0.939788
O O1 0.500000 0.282709 0.647820
O O2 0.249454 0.326532 0.684218
O O3 0.310733 0.337963 0.591717
O O4 0.238439 0.254605 0.603066
O O5 0.500000 0.558226 0.602651
O O6 0.736471 0.500000 0.612502
O O7 0.750746 0.584036 0.656938
O O8 0.780232 0.580994 0.561081
O O9 0.500000 0.121892 0.797292
O O10 0.253595 0.092725 0.747206
O O11 0.186046 0.345059 0.500000
O O12 0.000000 0.353963 0.422692
O O13 0.754118 0.419313 0.949472
O O14 0.755464 0.416311 0.850455
O O15 0.745191 0.334993 0.914740
O O16 0.000000 0.385485 0.899672
O O17 0.253096 0.500000 0.000000
O O18 0.000000 0.553309 0.000000
O O19 0.500000 0.054906 0.297592
O O20 0.746771 0.000000 0.294552
O O21 0.500000 0.283505 0.943810
O O22 0.750864 0.279729 0.000000
#
# Coordination Sequence:
#
# PCOD9520150 Si02
#       8
#    16  16  16  16  16   8  16  16
#     4  11  22  36  57  82 107 139 185 237 288 340
#     4  10  20  32  47  69  98 134 177 226 278 331
#     4  10  19  34  56  80 109 145 186 232 285 340
#     4  10  20  33  49  71 100 133 172 219 275 341
#     4  10  19  34  57  88 121 152 194 238 280 334
#     4   9  16  28  53  87 121 155 189 231 280 331
#     4   9  18  33  57  89 121 153 192 238 283 333
#     4  11  23  39  59  83 116 154 192 236 289 348
#
# _framework density 19.677779999999998
#
# number of rings (size 3 to 8) (size 9 to 14) (size 15 to 20)
#    0.000    1.933    0.667    5.600    0.000    6.933 
#    0.000    3.333    0.000    3.600    0.000    0.000 
#    0.000    0.000    0.000    0.000    0.000    0.000 
#
# Total GULP energy -334072.521330 kJ/mol
# GULP energy per Si atom -5567.875356 kJ/mol
# Density = 1.963299 g / cm^3
# Si number density = 19.677780 Si / 1000 Ang^3
#
#
#
# Elastic Constant Matrix: (Units=GPa)
#
#
# Indices 1 2 3 4 5 6 
#
# 1 37.2831 16.7303 11.3826 0.0000 0.0000 0.0000
# 2 16.7303 158.8669 69.1359 0.0000 0.0000 0.0000
# 3 11.3826 69.1359 133.6773 0.0000 0.0000 0.0000
# 4 0.0000 0.0000 0.0000 30.4235 0.0000 0.0000
# 5 0.0000 0.0000 0.0000 0.0000 58.1397 0.0000
# 6 0.0000 0.0000 0.0000 0.0000 0.0000 13.5319
#
#
#
# Elastic Compliance Matrix: (Units=1/GPa)
#
#
# Indices 1 2 3 4 5 6 
#
# 1 0.028281 -0.002491 -0.001120 0.000000 0.000000 0.000000
# 2 -0.002491 0.008342 -0.004102 0.000000 0.000000 0.000000
# 3 -0.001120 -0.004102 0.009698 0.000000 0.000000 0.000000
# 4 0.000000 0.000000 0.000000 0.032869 0.000000 0.000000
# 5 0.000000 0.000000 0.000000 0.000000 0.017200 0.000000
# 6 0.000000 0.000000 0.000000 0.000000 0.000000 0.073899
#
#
# Mechanical properties :
#
#
# Convention : Reuss Voigt Hill
#
# Bulk Modulus (GPa) = 32.36769 58.25831 45.31300
# Shear Modulus (GPa) = 25.50831 35.92427 30.71629
#
# Velocity S-wave (km/s) = 3.60432 4.27737 3.95519
# Velocity P-wave (km/s) = 5.81430 7.35289 6.62839
#
# Compressibility (1/GPa) = 0.03089501
#
# Stress axis : x y z
#
# Youngs Moduli (GPa) = 35.35882 119.87307 103.11703
#
# Poissons Ratio (x) = 0.29860 0.11548
# Poissons Ratio (y) = 0.08808 0.42302
# Poissons Ratio (z) = 0.03960 0.49176
#
# Static dielectric constant tensor:
#      x y z
#    x 1.701140 0.000000 0.000000 
#    y 0.000000 1.748660 0.000000 
#    z 0.000000 0.000000 1.733070 
# 
# From -- ./inp_files/63845.got.cif
#   From: 2010.05.17/outbox.cif.g08.bks.cpg/sg71_32_cif.got.tgz:63845.got - 2010.06.03 16:22:01.
