data_PCOD9520692
_publ_section_title
;
Structure prediction by ZEFSAII (Michael W. Deem and Ramdas Pophale) SiO2 
 PCOD9520692
Probable space group: I M M M
;
_chemical_formula_sum "Si O2"
_cell_formula_units_Z 64
_cell_length_a 8.728045
_cell_length_b 25.023089
_cell_length_c 13.003006
_cell_angle_alpha 90.000000
_cell_angle_beta 90.000000
_cell_angle_gamma 90.000000
_cell_volume 2839.890927
_symmetry_space_group_name_H-M "I M M M"
_symmetry_group_IT_number 71
_symmetry_cell_setting 'orthorhombic'
loop_
_space_group_symop_operation_xyz
x,y,z
-x,-y,z
x,-y,-z
-x,y,-z
-x,-y,-z
x,y,-z
-x,y,z
x,-y,z
1/2+x,1/2+y,1/2+z
1/2-x,1/2-y,1/2+z
1/2+x,1/2-y,1/2-z
1/2-x,1/2+y,1/2-z
1/2-x,1/2-y,1/2-z
1/2+x,1/2+y,1/2-z
1/2-x,1/2+y,1/2+z
1/2+x,1/2-y,1/2+z
loop_
_atom_site_type_symbol
_atom_site_label
_atom_site_fract_x
_atom_site_fract_y
_atom_site_fract_z
Si Si1 0.815698 0.711940 0.884268
Si Si2 0.818226 0.830588 0.176717
Si Si3 0.826500 0.063722 0.613627
Si Si4 0.320696 0.060265 0.169907
O O1 0.769980 0.774380 0.873806
O O2 0.733094 0.678705 0.795393
O O3 0.000000 0.708414 0.868336
O O4 0.780552 0.695328 0.000000
O O5 0.710928 0.931641 0.291836
O O6 0.000000 0.833560 0.170035
O O7 0.778148 0.082149 0.500000
O O8 0.753031 0.114854 0.871467
O O9 0.000000 0.084010 0.636982
O O10 0.842395 0.000000 0.605613
O O11 0.500000 0.060318 0.147565
O O12 0.261278 0.000000 0.142903
#
# Coordination Sequence:
#
# PCOD9520692 Si02
#       4
#    16  16  16  16
#     4   9  19  37  59  81 106 136 171 215 266 316
#     4  10  20  34  55  82 108 136 174 217 261 312
#     4   8  14  25  40  58  83 118 161 206 248 292
#     4  10  20  32  47  69 100 139 177 212 255 307
#
# _framework density 22.536078
#
# number of rings (size 3 to 8) (size 9 to 14) (size 15 to 20)
#    0.000    2.750    0.000    2.250    0.000    4.500 
#    0.000    2.500    0.000    0.750    0.000    5.250 
#    0.000    0.000    0.000    0.000    0.000    0.000 
#
# Total GULP energy -178411.870407 kJ/mol
# GULP energy per Si atom -5575.370950 kJ/mol
# Density = 2.248478 g / cm^3
# Si number density = 22.536078 Si / 1000 Ang^3
#
#
#
# Elastic Constant Matrix: (Units=GPa)
#
#
# Indices 1 2 3 4 5 6 
#
# 1 33.9723 42.1620 8.2531 0.0000 0.0000 0.0000
# 2 42.1620 219.1962 6.0198 0.0000 0.0000 0.0000
# 3 8.2531 6.0198 42.6120 0.0001 0.0000 0.0000
# 4 0.0000 0.0000 0.0001 -10.7972 0.0000 0.0000
# 5 0.0000 0.0000 0.0000 0.0000 11.0851 0.0000
# 6 0.0000 0.0000 0.0000 0.0000 0.0000 38.3222
#
#
#
# Elastic Compliance Matrix: (Units=1/GPa)
#
#
# Indices 1 2 3 4 5 6 
#
# 1 0.040524 -0.007609 -0.006774 0.000000 0.000000 0.000000
# 2 -0.007609 0.006008 0.000625 0.000000 0.000000 0.000000
# 3 -0.006774 0.000625 0.024691 0.000000 0.000000 0.000000
# 4 0.000000 0.000000 0.000000 -0.092617 0.000000 0.000000
# 5 0.000000 0.000000 0.000000 0.000000 0.090212 0.000000
# 6 0.000000 0.000000 0.000000 0.000000 0.000000 0.026095
#
#
# Mechanical properties :
#
#
# Convention : Reuss Voigt Hill
#
# Bulk Modulus (GPa) = 22.87879 45.40558 34.14219
# Shear Modulus (GPa) = 36.49674 23.67839 30.08756
#
# Velocity S-wave (km/s) = 4.02864 3.24495 3.65784
# Velocity P-wave (km/s) = 5.64040 5.85075 5.74654
#
# Compressibility (1/GPa) = 0.04370861
#
# Stress axis : x y z
#
# Youngs Moduli (GPa) = 24.67647 166.43093 40.50016
#
# Poissons Ratio (x) = 1.26634 0.27434
# Poissons Ratio (y) = 0.18776 -0.02531
# Poissons Ratio (z) = 0.16715 -0.10399
#
# Static dielectric constant tensor:
#      x y z
#    x 1.780260 0.000000 0.000000 
#    y 0.000000 1.912470 0.000000 
#    z 0.000000 0.000000 1.854560 
# 
# From -- ./inp_files/31587.got.cif
#   From: 2010.05.17/outbox.cif.g08.bks.cpg/sg71_16_cif.got.tgz:31587.got - 2010.06.03 16:22:01.
