data_PCOD9520846
_publ_section_title
;
Structure prediction by ZEFSAII (Michael W. Deem and Ramdas Pophale) SiO2 
 PCOD9520846
Probable space group: I M M M
;
_chemical_formula_sum "Si O2"
_cell_formula_units_Z 72
_cell_length_a 25.181464
_cell_length_b 7.721980
_cell_length_c 17.580415
_cell_angle_alpha 90.000000
_cell_angle_beta 90.000000
_cell_angle_gamma 90.000000
_cell_volume 3418.525082
_symmetry_space_group_name_H-M "I M M M"
_symmetry_group_IT_number 71
_symmetry_cell_setting 'orthorhombic'
loop_
_space_group_symop_operation_xyz
x,y,z
-x,-y,z
x,-y,-z
-x,y,-z
-x,-y,-z
x,y,-z
-x,y,z
x,-y,z
1/2+x,1/2+y,1/2+z
1/2-x,1/2-y,1/2+z
1/2+x,1/2-y,1/2-z
1/2-x,1/2+y,1/2-z
1/2-x,1/2-y,1/2-z
1/2+x,1/2+y,1/2-z
1/2-x,1/2+y,1/2+z
1/2+x,1/2-y,1/2+z
loop_
_atom_site_type_symbol
_atom_site_label
_atom_site_fract_x
_atom_site_fract_y
_atom_site_fract_z
Si Si1 0.646244 0.208415 0.373841
Si Si2 0.560378 0.294729 0.500000
Si Si3 0.851714 0.293061 0.701487
Si Si4 0.560686 0.788480 0.085485
Si Si5 0.763080 0.209042 0.582709
O O1 0.595794 0.247975 0.426330
O O2 0.644773 0.274792 0.287211
O O3 0.702165 0.268233 0.409214
O O4 0.649538 0.000000 0.371239
O O5 0.555773 0.500000 0.500000
O O6 0.500000 0.222115 0.500000
O O7 0.858450 0.500000 0.706969
O O8 0.898480 0.223841 0.647841
O O9 0.797591 0.263047 0.655097
O O10 0.500000 0.737755 0.100726
O O11 0.561979 0.000000 0.085690
O O12 0.574952 0.732958 0.000000
O O13 0.784248 0.269095 0.500000
O O14 0.763474 0.000000 0.582021
#
# Coordination Sequence:
#
# PCOD9520846 Si02
#       5
#    16   8  16  16  16
#     4  10  21  39  59  81 112 148 187 236 289 344
#     4  11  25  43  63  87 113 147 194 245 294 343
#     4  10  20  32  54  86 111 139 189 240 283 337
#     4   8  14  26  44  69 105 141 172 217 271 320
#     4  10  20  35  54  77 114 155 187 226 285 347
#
# _framework density 21.061713999999998
#
# number of rings (size 3 to 8) (size 9 to 14) (size 15 to 20)
#    0.000    2.333    1.111    2.333    0.000    4.889 
#    0.000    2.222    0.000    0.667    0.000    3.111 
#    0.000    0.000    0.000    0.000    0.000    0.000 
#
# Total GULP energy -200960.425365 kJ/mol
# GULP energy per Si atom -5582.234038 kJ/mol
# Density = 2.101378 g / cm^3
# Si number density = 21.061714 Si / 1000 Ang^3
#
#
#
# Elastic Constant Matrix: (Units=GPa)
#
#
# Indices 1 2 3 4 5 6 
#
# 1 143.4164 -4.6992 100.3421 0.0000 0.0000 0.0000
# 2 -4.6992 29.1661 7.4013 0.0000 0.0000 0.0000
# 3 100.3421 7.4013 190.9554 0.0000 0.0000 0.0000
# 4 0.0000 0.0000 0.0000 -19.0008 0.0000 0.0000
# 5 0.0000 0.0000 0.0000 0.0000 36.8625 0.0000
# 6 0.0000 0.0000 0.0000 0.0000 0.0000 12.0697
#
#
#
# Elastic Compliance Matrix: (Units=1/GPa)
#
#
# Indices 1 2 3 4 5 6 
#
# 1 0.011346 0.003374 -0.006093 0.000000 0.000000 0.000000
# 2 0.003374 0.035630 -0.003154 0.000000 0.000000 0.000000
# 3 -0.006093 -0.003154 0.008561 0.000000 0.000000 0.000000
# 4 0.000000 0.000000 0.000000 -0.052629 0.000000 0.000000
# 5 0.000000 0.000000 0.000000 0.000000 0.027128 0.000000
# 6 0.000000 0.000000 0.000000 0.000000 0.000000 0.082852
#
#
# Mechanical properties :
#
#
# Convention : Reuss Voigt Hill
#
# Bulk Modulus (GPa) = 22.83526 63.29179 43.06353
# Shear Modulus (GPa) = 35.91151 23.35253 29.63202
#
# Velocity S-wave (km/s) = 4.13372 3.33343 3.75495
# Velocity P-wave (km/s) = 5.80079 6.70310 6.26820
#
# Compressibility (1/GPa) = 0.04379192
#
# Stress axis : x y z
#
# Youngs Moduli (GPa) = 88.13516 28.06586 116.81225
#
# Poissons Ratio (x) = -0.09470 0.71173
# Poissons Ratio (y) = -0.29739 0.36844
# Poissons Ratio (z) = 0.53700 0.08852
#
# Static dielectric constant tensor:
#      x y z
#    x 1.750130 0.000000 0.000000 
#    y 0.000000 1.778740 0.000000 
#    z 0.000000 0.000000 1.768430 
# 
# From -- ./inp_files/12173.got.cif
#   From: 2010.05.17/outbox.cif.g08.bks.cpg/sg71_7_cif.got.tgz:12173.got - 2010.06.03 16:22:01.
