data_PCOD9520636
_publ_section_title
;
Structure prediction by ZEFSAII (Michael W. Deem and Ramdas Pophale) SiO2 
 PCOD9520636
Probable space group: I M M M
;
_chemical_formula_sum "Si O2"
_cell_formula_units_Z 116
_cell_length_a 23.586954
_cell_length_b 16.131430
_cell_length_c 13.843914
_cell_angle_alpha 90.000000
_cell_angle_beta 90.000000
_cell_angle_gamma 90.000000
_cell_volume 5267.488798
_symmetry_space_group_name_H-M "I M M M"
_symmetry_group_IT_number 71
_symmetry_cell_setting 'orthorhombic'
loop_
_space_group_symop_operation_xyz
x,y,z
-x,-y,z
x,-y,-z
-x,y,-z
-x,-y,-z
x,y,-z
-x,y,z
x,-y,z
1/2+x,1/2+y,1/2+z
1/2-x,1/2-y,1/2+z
1/2+x,1/2-y,1/2-z
1/2-x,1/2+y,1/2-z
1/2-x,1/2-y,1/2-z
1/2+x,1/2+y,1/2-z
1/2-x,1/2+y,1/2+z
1/2+x,1/2-y,1/2+z
loop_
_atom_site_type_symbol
_atom_site_label
_atom_site_fract_x
_atom_site_fract_y
_atom_site_fract_z
Si Si1 0.646945 0.093606 0.394205
Si Si2 0.436233 0.751463 0.389026
Si Si3 0.837741 0.000000 0.000000
Si Si4 0.750205 0.222833 0.106285
Si Si5 0.162775 0.403911 0.683443
Si Si6 0.566215 0.208760 0.888200
Si Si7 0.151392 0.129563 0.817991
Si Si8 0.345592 0.640429 0.108188
O O1 0.675435 0.100133 0.500000
O O2 0.600211 0.164790 0.388793
O O3 0.682022 0.101151 0.295628
O O4 0.622492 0.000000 0.389890
O O5 0.436762 0.722699 0.500000
O O6 0.500000 0.768463 0.358509
O O7 0.407392 0.678277 0.330047
O O8 0.839026 0.928717 0.088747
O O9 0.707079 0.146132 0.119301
O O10 0.801469 0.203220 0.177207
O O11 0.711026 0.303077 0.111797
O O12 0.776145 0.222735 0.000000
O O13 0.159538 0.500000 0.656163
O O14 0.102485 0.357842 0.672221
O O15 0.500000 0.217116 0.862632
O O16 0.601689 0.294444 0.885796
O O17 0.568654 0.180611 0.000000
O O18 0.154017 0.092599 0.710109
O O19 0.347748 0.602021 0.000000
#
# Coordination Sequence:
#
# PCOD9520636 Si02
#       8
#    16  16   4  16  16  16  16  16
#     4   9  19  35  53  80 121 162 200 241 293 361
#     4  10  20  36  60  87 115 153 202 253 310 373
#     4  12  28  44  63  96 118 164 201 254 324 370
#     4  10  20  36  60  88 115 153 204 255 299 358
#     4  10  20  31  49  78 113 159 202 243 292 347
#     4   9  18  34  55  83 118 152 191 238 289 352
#     4  12  23  42  62  88 125 159 206 258 310 371
#     4   9  20  37  61  91 117 152 202 249 299 358
#
# _framework density 22.021878999999998
#
# number of rings (size 3 to 8) (size 9 to 14) (size 15 to 20)
#    0.000    2.069    1.379    3.310    0.966    3.862 
#    0.000    5.172    0.000    0.000    0.000    0.000 
#    0.000    3.310    0.000    0.000    0.000    0.000 
#
# Total GULP energy -323062.765533 kJ/mol
# GULP energy per Si atom -5570.047682 kJ/mol
# Density = 2.197176 g / cm^3
# Si number density = 22.021879 Si / 1000 Ang^3
#
#
#
# Elastic Constant Matrix: (Units=GPa)
#
#
# Indices 1 2 3 4 5 6 
#
# 1 67.4739 23.0344 -4.4516 0.0000 0.0000 0.0000
# 2 23.0344 100.7276 29.5363 0.0000 0.0000 0.0000
# 3 -4.4516 29.5363 198.4976 0.0000 0.0000 0.0000
# 4 0.0000 0.0000 0.0000 11.0106 0.0000 0.0000
# 5 0.0000 0.0000 0.0000 0.0000 11.9061 0.0000
# 6 0.0000 0.0000 0.0000 0.0000 0.0000 2.7371
#
#
#
# Elastic Compliance Matrix: (Units=1/GPa)
#
#
# Indices 1 2 3 4 5 6 
#
# 1 0.016248 -0.003997 0.000959 0.000000 0.000000 0.000000
# 2 -0.003997 0.011364 -0.001781 0.000000 0.000000 0.000000
# 3 0.000959 -0.001781 0.005324 0.000000 0.000000 0.000000
# 4 0.000000 0.000000 0.000000 0.090821 0.000000 0.000000
# 5 0.000000 0.000000 0.000000 0.000000 0.083990 0.000000
# 6 0.000000 0.000000 0.000000 0.000000 0.000000 0.365349
#
#
# Mechanical properties :
#
#
# Convention : Reuss Voigt Hill
#
# Bulk Modulus (GPa) = 42.91886 51.43749 47.17818
# Shear Modulus (GPa) = 8.46739 26.36944 17.41842
#
# Velocity S-wave (km/s) = 1.96299 3.46413 2.81545
# Velocity P-wave (km/s) = 4.96682 6.27761 5.66029
#
# Compressibility (1/GPa) = 0.02329978
#
# Stress axis : x y z
#
# Youngs Moduli (GPa) = 61.54491 87.99800 187.81802
#
# Poissons Ratio (x) = 0.35172 -0.18014
# Poissons Ratio (y) = 0.24599 0.33442
# Poissons Ratio (z) = -0.05903 0.15669
#
# Static dielectric constant tensor:
#      x y z
#    x 1.786360 0.000000 0.000000 
#    y 0.000000 1.786580 0.000000 
#    z 0.000000 0.000000 1.904350 
# 
# From -- ./inp_files/39542.got.cif
#   From: 2010.05.17/outbox.cif.g08.bks.cpg/sg71_20_cif.got.tgz:39542.got - 2010.06.03 16:22:01.
