data_PCOD9520663
_publ_section_title
;
Structure prediction by ZEFSAII (Michael W. Deem and Ramdas Pophale) SiO2 
 PCOD9520663
Probable space group: I M M M
;
_chemical_formula_sum "Si O2"
_cell_formula_units_Z 96
_cell_length_a 16.925507
_cell_length_b 10.109567
_cell_length_c 28.058249
_cell_angle_alpha 90.000000
_cell_angle_beta 90.000000
_cell_angle_gamma 90.000000
_cell_volume 4801.034277
_symmetry_space_group_name_H-M "I M M M"
_symmetry_group_IT_number 71
_symmetry_cell_setting 'orthorhombic'
loop_
_space_group_symop_operation_xyz
x,y,z
-x,-y,z
x,-y,-z
-x,y,-z
-x,-y,-z
x,y,-z
-x,y,z
x,-y,z
1/2+x,1/2+y,1/2+z
1/2-x,1/2-y,1/2+z
1/2+x,1/2-y,1/2-z
1/2-x,1/2+y,1/2-z
1/2-x,1/2-y,1/2-z
1/2+x,1/2+y,1/2-z
1/2-x,1/2+y,1/2+z
1/2+x,1/2-y,1/2+z
loop_
_atom_site_type_symbol
_atom_site_label
_atom_site_fract_x
_atom_site_fract_y
_atom_site_fract_z
Si Si1 0.123240 0.652486 0.445399
Si Si2 0.088213 0.648733 0.107048
Si Si3 0.812967 0.139968 0.054412
Si Si4 0.588946 0.655158 0.246575
Si Si5 0.141976 0.154534 0.358865
Si Si6 0.305763 0.150807 0.304176
O O1 0.097922 0.688622 0.500000
O O2 0.096906 0.500000 0.436485
O O3 0.218673 0.648732 0.446459
O O4 0.109549 0.753486 0.401640
O O5 0.089287 0.500000 0.087816
O O6 0.148115 0.738586 0.079291
O O7 0.119637 0.642960 0.160509
O O8 0.000000 0.701867 0.104348
O O9 0.834833 0.000000 0.077886
O O10 0.840013 0.138158 0.000000
O O11 0.500000 0.693943 0.262629
O O12 0.600679 0.500000 0.258967
O O13 0.591125 0.664753 0.189208
O O14 0.661782 0.742885 0.266332
O O15 0.230288 0.187265 0.337652
O O16 0.144726 0.000000 0.374239
O O17 0.290379 0.000000 0.285761
#
# Coordination Sequence:
#
# PCOD9520663 Si02
#       6
#    16  16  16  16  16  16
#     4   9  18  33  54  81 110 137 170 217 267 313
#     4  10  20  32  46  67  98 134 171 214 260 304
#     4   9  18  32  48  67  94 129 169 213 260 308
#     4  10  22  38  55  79 111 142 174 217 268 320
#     4  10  20  35  57  83 108 138 178 221 263 311
#     4  10  20  35  54  77 104 138 180 221 259 305
#
# _framework density 19.995691000000001
#
# number of rings (size 3 to 8) (size 9 to 14) (size 15 to 20)
#    0.000    2.333    1.667    2.000    0.000    4.333 
#    0.000    3.333    0.000    0.500    0.000    3.500 
#    0.000    0.000    0.000    0.000    0.000    0.000 
#
# Total GULP energy -267329.895035 kJ/mol
# GULP energy per Si atom -5569.372813 kJ/mol
# Density = 1.995018 g / cm^3
# Si number density = 19.995691 Si / 1000 Ang^3
#
#
#
# Elastic Constant Matrix: (Units=GPa)
#
#
# Indices 1 2 3 4 5 6 
#
# 1 78.8413 19.2122 6.3547 0.0000 0.0000 0.0000
# 2 19.2122 74.9711 54.3766 0.0000 0.0000 0.0000
# 3 6.3547 54.3766 74.0887 0.0000 0.0000 0.0000
# 4 0.0000 0.0000 0.0000 36.5132 0.0000 0.0000
# 5 0.0000 0.0000 0.0000 0.0000 6.6763 0.0000
# 6 0.0000 0.0000 0.0000 0.0000 0.0000 5.3182
#
#
#
# Elastic Compliance Matrix: (Units=1/GPa)
#
#
# Indices 1 2 3 4 5 6 
#
# 1 0.013839 -0.005742 0.003027 0.000000 0.000000 0.000000
# 2 -0.005742 0.030904 -0.022189 0.000000 0.000000 0.000000
# 3 0.003027 -0.022189 0.029523 0.000000 0.000000 0.000000
# 4 0.000000 0.000000 0.000000 0.027387 0.000000 0.000000
# 5 0.000000 0.000000 0.000000 0.000000 0.149784 0.000000
# 6 0.000000 0.000000 0.000000 0.000000 0.000000 0.188034
#
#
# Mechanical properties :
#
#
# Convention : Reuss Voigt Hill
#
# Bulk Modulus (GPa) = 40.88596 43.08756 41.98676
# Shear Modulus (GPa) = 10.05166 19.56538 14.80852
#
# Velocity S-wave (km/s) = 2.24451 3.13146 2.72432
# Velocity P-wave (km/s) = 5.21621 5.88812 5.56232
#
# Compressibility (1/GPa) = 0.02445827
#
# Stress axis : x y z
#
# Youngs Moduli (GPa) = 72.25979 32.35878 33.87206
#
# Poissons Ratio (x) = 0.18581 -0.10254
# Poissons Ratio (y) = 0.41493 0.75158
# Poissons Ratio (z) = -0.21876 0.71800
#
# Static dielectric constant tensor:
#      x y z
#    x 1.731330 0.000000 0.000000 
#    y 0.000000 1.740660 0.000000 
#    z 0.000000 0.000000 1.718270 
# 
# From -- ./inp_files/14812.got.cif
#   From: 2010.05.17/outbox.cif.g08.bks.cpg/sg71_8_cif.got.tgz:14812.got - 2010.06.03 16:22:01.
