data_PCOD9520331
_publ_section_title
;
Structure prediction by ZEFSAII (Michael W. Deem and Ramdas Pophale) SiO2 
 PCOD9520331
Probable space group: I M M M
;
_chemical_formula_sum "Si O2"
_cell_formula_units_Z 88
_cell_length_a 28.195653
_cell_length_b 7.511870
_cell_length_c 19.285977
_cell_angle_alpha 90.000000
_cell_angle_beta 90.000000
_cell_angle_gamma 90.000000
_cell_volume 4084.810042
_symmetry_space_group_name_H-M "I M M M"
_symmetry_group_IT_number 71
_symmetry_cell_setting 'orthorhombic'
loop_
_space_group_symop_operation_xyz
x,y,z
-x,-y,z
x,-y,-z
-x,y,-z
-x,-y,-z
x,y,-z
-x,y,z
x,-y,z
1/2+x,1/2+y,1/2+z
1/2-x,1/2-y,1/2+z
1/2+x,1/2-y,1/2-z
1/2-x,1/2+y,1/2-z
1/2-x,1/2-y,1/2-z
1/2+x,1/2+y,1/2-z
1/2-x,1/2+y,1/2+z
1/2+x,1/2-y,1/2+z
loop_
_atom_site_type_symbol
_atom_site_label
_atom_site_fract_x
_atom_site_fract_y
_atom_site_fract_z
Si Si1 0.604490 0.703389 0.714399
Si Si2 0.284509 0.717665 0.920555
Si Si3 0.555787 0.283526 0.423831
Si Si4 0.711679 0.788348 0.309542
Si Si5 0.115028 0.788230 0.636046
Si Si6 0.553715 0.212276 0.000000
O O1 0.586285 0.500000 0.716786
O O2 0.582337 0.783898 0.644644
O O3 0.661255 0.702757 0.705471
O O4 0.595822 0.784330 0.790737
O O5 0.285517 0.500000 0.919621
O O6 0.237542 0.772404 0.879785
O O7 0.332385 0.780298 0.882400
O O8 0.285478 0.774374 0.000000
O O9 0.572913 0.221848 0.500000
O O10 0.500000 0.242114 0.418674
O O11 0.560048 0.500000 0.424717
O O12 0.750000 0.750000 0.250000
O O13 0.703903 0.000000 0.312807
O O14 0.081933 0.764300 0.569359
O O15 0.120384 0.000000 0.646520
O O16 0.500000 0.282959 0.000000
O O17 0.551566 0.000000 0.000000
#
# Coordination Sequence:
#
# PCOD9520331 Si02
#       6
#    16  16  16  16  16   8
#     4  10  20  34  55  85 115 141 181 233 276 326
#     4   9  17  32  53  74  99 137 183 225 261 307
#     4   8  15  30  53  80 111 146 181 224 279 329
#     4  11  21  34  53  78 109 144 180 222 271 323
#     4  10  19  35  58  79 102 141 189 229 270 324
#     4  11  25  41  55  79 115 145 177 231 290 335
#
# _framework density 21.543229
#
# number of rings (size 3 to 8) (size 9 to 14) (size 15 to 20)
#    0.000    2.273    2.727    1.364    0.000    2.909 
#    0.000    1.818    0.000    0.545    0.000    1.273 
#    0.000    0.000    0.000    0.000    0.000    0.000 
#
# Total GULP energy -245621.087463 kJ/mol
# GULP energy per Si atom -5582.297442 kJ/mol
# Density = 2.149420 g / cm^3
# Si number density = 21.543229 Si / 1000 Ang^3
#
#
#
# Elastic Constant Matrix: (Units=GPa)
#
#
# Indices 1 2 3 4 5 6 
#
# 1 63.8502 -10.2170 62.0419 0.0000 0.0000 0.0000
# 2 -10.2170 62.0752 1.8622 0.0000 0.0000 0.0000
# 3 62.0419 1.8622 233.9127 0.0000 0.0000 0.0000
# 4 0.0000 0.0000 0.0000 -0.1648 0.0000 0.0000
# 5 0.0000 0.0000 0.0000 0.0000 41.5833 0.0000
# 6 0.0000 0.0000 0.0000 0.0000 0.0000 12.4634
#
#
#
# Elastic Compliance Matrix: (Units=1/GPa)
#
#
# Indices 1 2 3 4 5 6 
#
# 1 0.021956 0.003789 -0.005854 0.000000 0.000000 0.000000
# 2 0.003789 0.016767 -0.001139 0.000000 0.000000 0.000000
# 3 -0.005854 -0.001139 0.005837 0.000000 0.000000 0.000000
# 4 0.000000 0.000000 0.000000 -6.068943 0.000000 0.000000
# 5 0.000000 0.000000 0.000000 0.000000 0.024048 0.000000
# 6 0.000000 0.000000 0.000000 0.000000 0.000000 0.080235
#
#
# Mechanical properties :
#
#
# Convention : Reuss Voigt Hill
#
# Bulk Modulus (GPa) = 26.20939 51.91246 39.06092
# Shear Modulus (GPa) = -0.84732 31.18647 15.16958
#
# Velocity S-wave (km/s) = -0.62782 3.80889 2.65645
# Velocity P-wave (km/s) = 3.41567 6.59490 5.25164
#
# Compressibility (1/GPa) = 0.03815427
#
# Stress axis : x y z
#
# Youngs Moduli (GPa) = 45.54593 59.63972 171.32816
#
# Poissons Ratio (x) = -0.22599 1.00289
# Poissons Ratio (y) = -0.17259 0.19507
# Poissons Ratio (z) = 0.26661 0.06790
#
# Static dielectric constant tensor:
#      x y z
#    x 1.736390 0.000000 0.000000 
#    y 0.000000 1.804180 0.000000 
#    z 0.000000 0.000000 1.831920 
# 
# From -- ./inp_files/49242.got.cif
#   From: 2010.05.17/outbox.cif.g08.bks.cpg/sg71_25_cif.got.tgz:49242.got - 2010.06.03 16:22:01.
