data_PCOD9520296
_publ_section_title
;
Structure prediction by ZEFSAII (Michael W. Deem and Ramdas Pophale) SiO2 
 PCOD9520296
Probable space group: I M M M
;
_chemical_formula_sum "Si O2"
_cell_formula_units_Z 88
_cell_length_a 12.703752
_cell_length_b 21.921765
_cell_length_c 16.954364
_cell_angle_alpha 90.000000
_cell_angle_beta 90.000000
_cell_angle_gamma 90.000000
_cell_volume 4721.598213
_symmetry_space_group_name_H-M "I M M M"
_symmetry_group_IT_number 71
_symmetry_cell_setting 'orthorhombic'
loop_
_space_group_symop_operation_xyz
x,y,z
-x,-y,z
x,-y,-z
-x,y,-z
-x,-y,-z
x,y,-z
-x,y,z
x,-y,z
1/2+x,1/2+y,1/2+z
1/2-x,1/2-y,1/2+z
1/2+x,1/2-y,1/2-z
1/2-x,1/2+y,1/2-z
1/2-x,1/2-y,1/2-z
1/2+x,1/2+y,1/2-z
1/2-x,1/2+y,1/2+z
1/2+x,1/2-y,1/2+z
loop_
_atom_site_type_symbol
_atom_site_label
_atom_site_fract_x
_atom_site_fract_y
_atom_site_fract_z
Si Si1 0.500000 0.927083 0.593535
Si Si2 0.379700 0.071719 0.826044
Si Si3 0.735879 0.073077 0.592993
Si Si4 0.377487 0.324941 0.500000
Si Si5 0.223759 0.153562 0.276485
Si Si6 0.119136 0.757475 0.835479
Si Si7 0.204033 0.570188 0.500000
O O1 0.500000 0.914688 0.500000
O O2 0.383709 0.908117 0.619639
O O3 0.500000 0.000000 0.604044
O O4 0.500000 0.087825 0.804715
O O5 0.294552 0.113165 0.782746
O O6 0.364534 0.000000 0.805967
O O7 0.362910 0.078034 0.920114
O O8 0.747783 0.086946 0.500000
O O9 0.810028 0.110056 0.651606
O O10 0.745042 0.000000 0.601293
O O11 0.500000 0.344706 0.500000
O O12 0.360941 0.284188 0.577693
O O13 0.298707 0.381732 0.500000
O O14 0.134618 0.187139 0.226140
O O15 0.296212 0.206881 0.312835
O O16 0.000000 0.733469 0.832303
O O17 0.242782 0.500000 0.500000
#
# Coordination Sequence:
#
# PCOD9520296 Si02
#       7
#     8  16  16   8  16  16   8
#     4   7  12  24  40  66 106 139 161 197 245 301
#     4  10  20  33  53  82 114 144 175 218 271 328
#     4   9  18  31  49  78 112 141 170 209 262 321
#     4  10  20  40  59  76 107 141 181 230 270 313
#     4  11  21  35  57  80 107 142 179 221 264 321
#     4  10  23  39  56  79 106 141 182 225 266 311
#     4  10  19  35  56  79 109 143 182 222 273 328
#
# _framework density 18.637756
#
# number of rings (size 3 to 8) (size 9 to 14) (size 15 to 20)
#    0.000    2.273    1.818    2.455    3.818    1.273 
#    0.000    0.000    0.000    2.727    0.000    1.273 
#    0.000    0.000    0.000    0.000    0.000    0.000 
#
# Total GULP energy -245450.299865 kJ/mol
# GULP energy per Si atom -5578.415906 kJ/mol
# Density = 1.859534 g / cm^3
# Si number density = 18.637756 Si / 1000 Ang^3
#
#
#
# Elastic Constant Matrix: (Units=GPa)
#
#
# Indices 1 2 3 4 5 6 
#
# 1 28.7930 10.1261 5.3522 0.0000 0.0000 0.0000
# 2 10.1261 45.2866 27.7546 0.0000 0.0000 0.0000
# 3 5.3522 27.7546 97.7342 0.0001 0.0000 0.0000
# 4 0.0000 0.0000 0.0001 42.9001 0.0000 0.0000
# 5 0.0000 0.0000 0.0000 0.0000 7.0165 0.0000
# 6 0.0000 0.0000 0.0000 0.0000 0.0000 29.1645
#
#
#
# Elastic Compliance Matrix: (Units=1/GPa)
#
#
# Indices 1 2 3 4 5 6 
#
# 1 0.037708 -0.008676 0.000399 0.000000 0.000000 0.000000
# 2 -0.008676 0.028731 -0.007684 0.000000 0.000000 0.000000
# 3 0.000399 -0.007684 0.012392 0.000000 0.000000 0.000000
# 4 0.000000 0.000000 0.000000 0.023310 0.000000 0.000000
# 5 0.000000 0.000000 0.000000 0.000000 0.142521 0.000000
# 6 0.000000 0.000000 0.000000 0.000000 0.000000 0.034288
#
#
# Mechanical properties :
#
#
# Convention : Reuss Voigt Hill
#
# Bulk Modulus (GPa) = 21.31807 28.69774 25.00790
# Shear Modulus (GPa) = 15.31357 24.38828 19.85093
#
# Velocity S-wave (km/s) = 2.86954 3.62130 3.26712
# Velocity P-wave (km/s) = 4.73729 5.73726 5.26109
#
# Compressibility (1/GPa) = 0.04690857
#
# Stress axis : x y z
#
# Youngs Moduli (GPa) = 26.51981 34.80603 80.69689
#
# Poissons Ratio (x) = 0.30197 -0.03218
# Poissons Ratio (y) = 0.23008 0.62006
# Poissons Ratio (z) = -0.01058 0.26744
#
# Static dielectric constant tensor:
#      x y z
#    x 1.623250 0.000000 0.000000 
#    y 0.000000 1.638450 0.000000 
#    z 0.000000 0.000000 1.665220 
# 
# From -- ./inp_files/44736.got.cif
#   From: 2010.05.17/outbox.cif.g08.bks.cpg/sg71_23_cif.got.tgz:44736.got - 2010.06.03 16:22:01.
