data_PCOD9520679
_publ_section_title
;
Structure prediction by ZEFSAII (Michael W. Deem and Ramdas Pophale) SiO2 
 PCOD9520679
Probable space group: I M M M
;
_chemical_formula_sum "Si O2"
_cell_formula_units_Z 96
_cell_length_a 28.285942
_cell_length_b 21.172004
_cell_length_c 7.340267
_cell_angle_alpha 90.000000
_cell_angle_beta 90.000000
_cell_angle_gamma 90.000000
_cell_volume 4395.866265
_symmetry_space_group_name_H-M "I M M M"
_symmetry_group_IT_number 71
_symmetry_cell_setting 'orthorhombic'
loop_
_space_group_symop_operation_xyz
x,y,z
-x,-y,z
x,-y,-z
-x,y,-z
-x,-y,-z
x,y,-z
-x,y,z
x,-y,z
1/2+x,1/2+y,1/2+z
1/2-x,1/2-y,1/2+z
1/2+x,1/2-y,1/2-z
1/2-x,1/2+y,1/2-z
1/2-x,1/2-y,1/2-z
1/2+x,1/2+y,1/2-z
1/2-x,1/2+y,1/2+z
1/2+x,1/2-y,1/2+z
loop_
_atom_site_type_symbol
_atom_site_label
_atom_site_fract_x
_atom_site_fract_y
_atom_site_fract_z
Si Si1 0.620356 0.314824 0.722787
Si Si2 0.053145 0.298335 0.777506
Si Si3 0.727931 0.681491 0.282702
Si Si4 0.797017 0.571186 0.279940
Si Si5 0.446088 0.571434 0.278277
Si Si6 0.592187 0.070066 0.286661
O O1 0.620849 0.314047 0.500000
O O2 0.592474 0.251981 0.780446
O O3 0.674245 0.318827 0.785750
O O4 0.590358 0.375618 0.780797
O O5 0.065461 0.368875 0.713035
O O6 0.000000 0.279828 0.724656
O O7 0.054247 0.298883 0.000000
O O8 0.725214 0.672311 0.500000
O O9 0.750000 0.750000 0.250000
O O10 0.761958 0.625712 0.213312
O O11 0.796245 0.571776 0.500000
O O12 0.783817 0.500000 0.221201
O O13 0.851483 0.581969 0.226138
O O14 0.445934 0.571804 0.500000
O O15 0.500000 0.585519 0.222753
O O16 0.434330 0.500000 0.221611
O O17 0.579866 0.066879 0.500000
O O18 0.582933 0.000000 0.209176
#
# Coordination Sequence:
#
# PCOD9520679 Si02
#       6
#    16  16  16  16  16  16
#     4   9  16  25  38  57  82 112 144 176 212 256
#     4   9  16  25  39  60  85 111 139 175 217 258
#     4  10  20  32  47  67  91 120 152 187 225 264
#     4   9  18  32  48  66  90 120 152 185 223 266
#     4   8  13  21  34  54  82 114 142 169 208 258
#     4   9  17  29  46  67  89 114 145 181 220 261
#
# _framework density 21.838698999999998
#
# number of rings (size 3 to 8) (size 9 to 14) (size 15 to 20)
#    0.000    3.000    0.000    2.000    0.000    5.000 
#    0.000    5.000    0.000    0.500    0.000    2.333 
#    0.000    2.000    0.000    1.833    0.000    2.833 
#
# Total GULP energy -268063.987064 kJ/mol
# GULP energy per Si atom -5584.666397 kJ/mol
# Density = 2.178899 g / cm^3
# Si number density = 21.838699 Si / 1000 Ang^3
#
#
#
# Elastic Constant Matrix: (Units=GPa)
#
#
# Indices 1 2 3 4 5 6 
#
# 1 29.5742 14.1130 -13.5600 0.0000 0.0000 0.0000
# 2 14.1130 82.0116 -9.2596 0.0000 0.0000 0.0000
# 3 -13.5600 -9.2596 83.0857 0.0000 0.0000 0.0000
# 4 0.0000 0.0000 0.0000 -1.0852 0.0000 0.0000
# 5 0.0000 0.0000 0.0000 0.0000 4.8590 0.0000
# 6 0.0000 0.0000 0.0000 0.0000 0.0000 47.3236
#
#
#
# Elastic Compliance Matrix: (Units=1/GPa)
#
#
# Indices 1 2 3 4 5 6 
#
# 1 0.039370 -0.006127 0.005743 0.000000 0.000000 0.000000
# 2 -0.006127 0.013302 0.000483 0.000000 0.000000 0.000000
# 3 0.005743 0.000483 0.013027 0.000000 0.000000 0.000000
# 4 0.000000 0.000000 0.000000 -0.921517 0.000000 0.000000
# 5 0.000000 0.000000 0.000000 0.000000 0.205802 0.000000
# 6 0.000000 0.000000 0.000000 0.000000 0.000000 0.021131
#
#
# Mechanical properties :
#
#
# Convention : Reuss Voigt Hill
#
# Bulk Modulus (GPa) = 15.17541 19.69535 17.43538
# Shear Modulus (GPa) = -8.23564 23.77804 7.77120
#
# Velocity S-wave (km/s) = -1.94404 3.30328 1.88843
# Velocity P-wave (km/s) = 1.38740 4.85665 3.57155
#
# Compressibility (1/GPa) = 0.06589608
#
# Stress axis : x y z
#
# Youngs Moduli (GPa) = 25.40005 75.17560 76.76500
#
# Poissons Ratio (x) = 0.46057 -0.44083
# Poissons Ratio (y) = 0.15562 -0.03705
# Poissons Ratio (z) = -0.14586 -0.03628
#
# Static dielectric constant tensor:
#      x y z
#    x 1.739150 0.000000 0.000000 
#    y 0.000000 1.773140 0.000000 
#    z 0.000000 0.000000 2.008430 
# 
# From -- ./inp_files/10857.got.cif
#   From: 2010.05.17/outbox.cif.g08.bks.cpg/sg71_6_cif.got.tgz:10857.got - 2010.06.03 16:22:01.
