data_PCOD9520004
_publ_section_title
;
Structure prediction by ZEFSAII (Michael W. Deem and Ramdas Pophale) SiO2 
 PCOD9520004
Probable space group: I M M M
;
_chemical_formula_sum "Si O2"
_cell_formula_units_Z 104
_cell_length_a 14.428548
_cell_length_b 21.155747
_cell_length_c 18.941415
_cell_angle_alpha 90.000000
_cell_angle_beta 90.000000
_cell_angle_gamma 90.000000
_cell_volume 5781.804632
_symmetry_space_group_name_H-M "I M M M"
_symmetry_group_IT_number 71
_symmetry_cell_setting 'orthorhombic'
loop_
_space_group_symop_operation_xyz
x,y,z
-x,-y,z
x,-y,-z
-x,y,-z
-x,-y,-z
x,y,-z
-x,y,z
x,-y,z
1/2+x,1/2+y,1/2+z
1/2-x,1/2-y,1/2+z
1/2+x,1/2-y,1/2-z
1/2-x,1/2+y,1/2-z
1/2-x,1/2-y,1/2-z
1/2+x,1/2+y,1/2-z
1/2-x,1/2+y,1/2+z
1/2+x,1/2-y,1/2+z
loop_
_atom_site_type_symbol
_atom_site_label
_atom_site_fract_x
_atom_site_fract_y
_atom_site_fract_z
Si Si1 0.887057 0.500000 0.920169
Si Si2 0.730183 0.071596 0.826412
Si Si3 0.888888 0.604268 0.809210
Si Si4 0.610035 0.428359 0.783835
Si Si5 0.609755 0.748917 0.322554
Si Si6 0.110490 0.203308 0.663336
Si Si7 0.234076 0.304985 0.416047
O O1 0.859747 0.560862 0.874622
O O2 0.000000 0.500000 0.922966
O O3 0.852613 0.500000 0.000000
O O4 0.658779 0.080270 0.761782
O O5 0.829712 0.079239 0.787200
O O6 0.711880 0.126665 0.882311
O O7 0.724164 0.000000 0.854256
O O8 0.865536 0.677082 0.822162
O O9 0.000000 0.599652 0.801628
O O10 0.500000 0.422280 0.769004
O O11 0.627446 0.500000 0.809869
O O12 0.634269 0.371377 0.837106
O O13 0.500000 0.742216 0.333243
O O14 0.631752 0.723643 0.244178
O O15 0.667576 0.714227 0.382220
O O16 0.164486 0.250820 0.612685
O O17 0.000000 0.210176 0.652397
O O18 0.234771 0.306810 0.500000
#
# Coordination Sequence:
#
# PCOD9520004 Si02
#       7
#     8  16  16  16  16  16  16
#     4   9  18  32  50  78 116 148 174 217 282 346
#     4  11  21  35  57  82 110 149 198 237 274 334
#     4  10  19  33  57  85 112 146 188 231 277 339
#     4   9  18  33  58  89 110 133 181 240 283 322
#     4  10  20  36  61  86 107 143 193 237 281 340
#     4  10  19  36  62  85 110 147 191 237 281 336
#     4  12  25  38  55  83 120 153 187 239 293 340
#
# _framework density 17.987463999999999
#
# number of rings (size 3 to 8) (size 9 to 14) (size 15 to 20)
#    0.000    1.769    3.846    1.385    0.000    1.538 
#    0.000    1.538    0.000    0.462    0.000    7.538 
#    0.000    0.000    0.000    0.000    0.000    0.000 
#
# Total GULP energy -290251.481312 kJ/mol
# GULP energy per Si atom -5581.759256 kJ/mol
# Density = 1.794652 g / cm^3
# Si number density = 17.987464 Si / 1000 Ang^3
#
#
#
# Elastic Constant Matrix: (Units=GPa)
#
#
# Indices 1 2 3 4 5 6 
#
# 1 45.6121 32.8096 31.1805 0.0000 0.0000 0.0000
# 2 32.8096 152.9548 62.2016 0.0000 0.0000 0.0000
# 3 31.1805 62.2016 112.9122 0.0000 0.0000 0.0000
# 4 0.0000 0.0000 0.0000 20.1696 0.0000 0.0000
# 5 0.0000 0.0000 0.0000 0.0000 10.6807 0.0000
# 6 0.0000 0.0000 0.0000 0.0000 0.0000 18.8772
#
#
#
# Elastic Compliance Matrix: (Units=1/GPa)
#
#
# Indices 1 2 3 4 5 6 
#
# 1 0.028618 -0.003769 -0.005826 0.000000 0.000000 0.000000
# 2 -0.003769 0.008922 -0.003874 0.000000 0.000000 0.000000
# 3 -0.005826 -0.003874 0.012600 0.000000 0.000000 0.000000
# 4 0.000000 0.000000 0.000000 0.049580 0.000000 0.000000
# 5 0.000000 0.000000 0.000000 0.000000 0.093627 0.000000
# 6 0.000000 0.000000 0.000000 0.000000 0.000000 0.052974
#
#
# Mechanical properties :
#
#
# Convention : Reuss Voigt Hill
#
# Bulk Modulus (GPa) = 43.10324 62.65140 52.87732
# Shear Modulus (GPa) = 17.79404 22.29799 20.04601
#
# Velocity S-wave (km/s) = 3.14864 3.52467 3.34195
# Velocity P-wave (km/s) = 6.10193 7.17430 6.65974
#
# Compressibility (1/GPa) = 0.02320011
#
# Stress axis : x y z
#
# Youngs Moduli (GPa) = 34.94266 112.08433 79.36801
#
# Poissons Ratio (x) = 0.42249 0.46243
# Poissons Ratio (y) = 0.13171 0.30747
# Poissons Ratio (z) = 0.20359 0.43422
#
# Static dielectric constant tensor:
#      x y z
#    x 1.650300 0.000000 0.000000 
#    y 0.000000 1.657990 0.000000 
#    z 0.000000 0.000000 1.553780 
# 
# From -- ./inp_files/44970.got.cif
#   From: 2010.05.17/outbox.cif.g08.bks.cpg/sg71_23_cif.got.tgz:44970.got - 2010.06.03 16:22:01.
