data_PCOD9520457
_publ_section_title
;
Structure prediction by ZEFSAII (Michael W. Deem and Ramdas Pophale) SiO2 
 PCOD9520457
Probable space group: I M M M
;
_chemical_formula_sum "Si O2"
_cell_formula_units_Z 88
_cell_length_a 30.102863
_cell_length_b 18.417542
_cell_length_c 8.026490
_cell_angle_alpha 90.000000
_cell_angle_beta 90.000000
_cell_angle_gamma 90.000000
_cell_volume 4450.052554
_symmetry_space_group_name_H-M "I M M M"
_symmetry_group_IT_number 71
_symmetry_cell_setting 'orthorhombic'
loop_
_space_group_symop_operation_xyz
x,y,z
-x,-y,z
x,-y,-z
-x,y,-z
-x,-y,-z
x,y,-z
-x,y,z
x,-y,z
1/2+x,1/2+y,1/2+z
1/2-x,1/2-y,1/2+z
1/2+x,1/2-y,1/2-z
1/2-x,1/2+y,1/2-z
1/2-x,1/2-y,1/2-z
1/2+x,1/2+y,1/2-z
1/2-x,1/2+y,1/2+z
1/2+x,1/2-y,1/2+z
loop_
_atom_site_type_symbol
_atom_site_label
_atom_site_fract_x
_atom_site_fract_y
_atom_site_fract_z
Si Si1 0.295056 0.841285 0.700046
Si Si2 0.199571 0.826094 0.799023
Si Si3 0.050847 0.288539 0.699011
Si Si4 0.550858 0.500000 0.704297
Si Si5 0.397872 0.642416 0.700845
Si Si6 0.384632 0.917998 0.701385
O O1 0.297940 0.839694 0.500000
O O2 0.245171 0.864185 0.745827
O O3 0.299726 0.757936 0.760580
O O4 0.336444 0.888799 0.760918
O O5 0.153060 0.858590 0.739838
O O6 0.199260 0.824813 0.000000
O O7 0.049103 0.286960 0.500000
O O8 0.077806 0.217465 0.755952
O O9 0.077879 0.360124 0.750922
O O10 0.000000 0.287877 0.763323
O O11 0.500000 0.500000 0.757060
O O12 0.551469 0.500000 0.500000
O O13 0.575198 0.427175 0.761530
O O14 0.396550 0.638819 0.500000
O O15 0.383052 0.919724 0.500000
O O16 0.393025 0.000000 0.760735
#
# Coordination Sequence:
#
# PCOD9520457 Si02
#       6
#    16  16  16   8  16  16
#     4   9  17  32  52  78 108 140 179 223 269 321
#     4   9  17  30  52  80 108 142 180 222 269 321
#     4  11  24  39  57  83 113 145 183 230 286 343
#     4   9  18  32  55  85 111 141 183 233 282 321
#     4  10  19  36  59  83 112 146 189 233 274 330
#     4  10  21  39  61  83 110 147 192 237 277 327
#
# _framework density 19.775047000000001
#
# number of rings (size 3 to 8) (size 9 to 14) (size 15 to 20)
#    0.000    2.273    1.818    1.091    0.000    4.364 
#    1.636    2.273    0.000    1.636    0.000    0.000 
#    0.000    0.000    0.000    0.000    0.000    0.000 
#
# Total GULP energy -245550.540537 kJ/mol
# GULP energy per Si atom -5580.694103 kJ/mol
# Density = 1.973004 g / cm^3
# Si number density = 19.775047 Si / 1000 Ang^3
#
#
#
# Elastic Constant Matrix: (Units=GPa)
#
#
# Indices 1 2 3 4 5 6 
#
# 1 176.6851 58.6556 3.5443 0.0000 0.0000 0.0000
# 2 58.6556 98.6679 -0.1416 0.0000 0.0000 0.0000
# 3 3.5443 -0.1416 9.3819 0.0000 0.0000 0.0000
# 4 0.0000 0.0000 0.0000 -5.4213 0.0000 0.0000
# 5 0.0000 0.0000 0.0000 0.0000 26.4437 0.0000
# 6 0.0000 0.0000 0.0000 0.0000 0.0000 22.9337
#
#
#
# Elastic Compliance Matrix: (Units=1/GPa)
#
#
# Indices 1 2 3 4 5 6 
#
# 1 0.007122 -0.004238 -0.002755 0.000000 0.000000 0.000000
# 2 -0.004238 0.012657 0.001792 0.000000 0.000000 0.000000
# 3 -0.002755 0.001792 0.107656 0.000000 0.000000 0.000000
# 4 0.000000 0.000000 0.000000 -0.184459 0.000000 0.000000
# 5 0.000000 0.000000 0.000000 0.000000 0.037816 0.000000
# 6 0.000000 0.000000 0.000000 0.000000 0.000000 0.043604
#
#
# Mechanical properties :
#
#
# Convention : Reuss Voigt Hill
#
# Bulk Modulus (GPa) = 8.54449 45.42794 26.98622
# Shear Modulus (GPa) = 67.74352 23.63633 45.68992
#
# Velocity S-wave (km/s) = 5.85930 3.46100 4.81196
# Velocity P-wave (km/s) = 7.07852 6.24449 6.67455
#
# Compressibility (1/GPa) = 0.11703444
#
# Stress axis : x y z
#
# Youngs Moduli (GPa) = 140.41238 79.00886 9.28883
#
# Poissons Ratio (x) = 0.33482 0.02559
# Poissons Ratio (y) = 0.59503 -0.01665
# Poissons Ratio (z) = 0.38677 -0.14158
#
# Static dielectric constant tensor:
#      x y z
#    x 1.705740 0.000000 0.000000 
#    y 0.000000 1.674550 0.000000 
#    z 0.000000 0.000000 1.702670 
# 
# From -- ./inp_files/8802.got.cif
#   From: 2010.05.17/outbox.cif.g08.bks.cpg/sg71_5_cif.got.tgz:8802.got - 2010.06.03 16:22:01.
