data_PCOD9520235
_publ_section_title
;
Structure prediction by ZEFSAII (Michael W. Deem and Ramdas Pophale) SiO2 
 PCOD9520235
Probable space group: I M M M
;
_chemical_formula_sum "Si O2"
_cell_formula_units_Z 80
_cell_length_a 10.891887
_cell_length_b 22.859806
_cell_length_c 17.782534
_cell_angle_alpha 90.000000
_cell_angle_beta 90.000000
_cell_angle_gamma 90.000000
_cell_volume 4427.609547
_symmetry_space_group_name_H-M "I M M M"
_symmetry_group_IT_number 71
_symmetry_cell_setting 'orthorhombic'
loop_
_space_group_symop_operation_xyz
x,y,z
-x,-y,z
x,-y,-z
-x,y,-z
-x,-y,-z
x,y,-z
-x,y,z
x,-y,z
1/2+x,1/2+y,1/2+z
1/2-x,1/2-y,1/2+z
1/2+x,1/2-y,1/2-z
1/2-x,1/2+y,1/2-z
1/2-x,1/2-y,1/2-z
1/2+x,1/2+y,1/2-z
1/2-x,1/2+y,1/2+z
1/2+x,1/2-y,1/2+z
loop_
_atom_site_type_symbol
_atom_site_label
_atom_site_fract_x
_atom_site_fract_y
_atom_site_fract_z
Si Si1 0.644627 0.374289 0.083470
Si Si2 0.697581 0.201896 0.306974
Si Si3 0.641047 0.000000 0.220617
Si Si4 0.364418 0.129440 0.165793
Si Si5 0.356116 0.500000 0.844517
Si Si6 0.864946 0.804951 0.089405
O O1 0.500000 0.362727 0.081539
O O2 0.702653 0.334289 0.147028
O O3 0.660598 0.441853 0.106125
O O4 0.695711 0.363064 0.000000
O O5 0.750000 0.250000 0.250000
O O6 0.634516 0.156063 0.250639
O O7 0.632874 0.242058 0.369276
O O8 0.651414 0.940221 0.173248
O O9 0.500000 0.000000 0.252485
O O10 0.751732 0.000000 0.280641
O O11 0.500000 0.142384 0.132645
O O12 0.250081 0.158682 0.122510
O O13 0.500000 0.500000 0.817440
O O14 0.000000 0.832540 0.104106
O O15 0.850421 0.798438 0.000000
#
# Coordination Sequence:
#
# PCOD9520235 Si02
#       6
#    16  16   8  16   8  16
#     4  10  20  34  55  85 119 152 188 232 281 335
#     4  10  20  34  54  79 111 148 191 230 273 326
#     4  10  20  37  58  86 116 144 184 233 280 334
#     4  10  21  37  60  85 112 147 187 232 279 336
#     4  10  19  34  58  87 115 147 186 230 277 332
#     4  10  22  39  58  83 115 148 186 235 286 335
#
# _framework density 18.068442000000001
#
# number of rings (size 3 to 8) (size 9 to 14) (size 15 to 20)
#    0.000    2.000    2.000    1.500    0.000    8.800 
#    0.000    0.500    0.000    5.400    0.000    0.000 
#    0.000    0.000    0.000    0.000    0.000    0.000 
#
# Total GULP energy -222745.876338 kJ/mol
# GULP energy per Si atom -5568.646908 kJ/mol
# Density = 1.802732 g / cm^3
# Si number density = 18.068442 Si / 1000 Ang^3
#
#
#
# Elastic Constant Matrix: (Units=GPa)
#
#
# Indices 1 2 3 4 5 6 
#
# 1 119.1200 48.0016 62.5050 0.0000 0.0000 0.0000
# 2 48.0016 111.0668 38.8735 0.0000 0.0000 0.0000
# 3 62.5050 38.8735 95.7253 0.0000 0.0000 0.0000
# 4 0.0000 0.0000 0.0000 8.0987 0.0000 0.0000
# 5 0.0000 0.0000 0.0000 0.0000 28.4479 0.0000
# 6 0.0000 0.0000 0.0000 0.0000 0.0000 15.4900
#
#
#
# Elastic Compliance Matrix: (Units=1/GPa)
#
#
# Indices 1 2 3 4 5 6 
#
# 1 0.013710 -0.003255 -0.007631 0.000000 0.000000 0.000000
# 2 -0.003255 0.011268 -0.002451 0.000000 0.000000 0.000000
# 3 -0.007631 -0.002451 0.016424 0.000000 0.000000 0.000000
# 4 0.000000 0.000000 0.000000 0.123477 0.000000 0.000000
# 5 0.000000 0.000000 0.000000 0.000000 0.035152 0.000000
# 6 0.000000 0.000000 0.000000 0.000000 0.000000 0.064558
#
#
# Mechanical properties :
#
#
# Convention : Reuss Voigt Hill
#
# Bulk Modulus (GPa) = 67.88583 69.40802 68.64693
# Shear Modulus (GPa) = 16.88210 22.17611 19.52911
#
# Velocity S-wave (km/s) = 3.06002 3.50714 3.29118
# Velocity P-wave (km/s) = 7.08082 7.40928 7.24691
#
# Compressibility (1/GPa) = 0.01473061
#
# Stress axis : x y z
#
# Youngs Moduli (GPa) = 72.93717 88.74713 60.88539
#
# Poissons Ratio (x) = 0.28885 0.46460
# Poissons Ratio (y) = 0.23739 0.14921
# Poissons Ratio (z) = 0.55656 0.21749
#
# Static dielectric constant tensor:
#      x y z
#    x 1.654620 0.000000 0.000000 
#    y 0.000000 1.579230 0.000000 
#    z 0.000000 0.000000 1.616300 
# 
# From -- ./inp_files/43267.got.cif
#   From: 2010.05.17/outbox.cif.g08.bks.cpg/sg71_22_cif.got.tgz:43267.got - 2010.06.03 16:22:01.
