data_PCOD9520000
_publ_section_title
;
Structure prediction by ZEFSAII (Michael W. Deem and Ramdas Pophale) SiO2 
 PCOD9520000
Probable space group: I M M M
;
_chemical_formula_sum "Si O2"
_cell_formula_units_Z 116
_cell_length_a 17.814812
_cell_length_b 14.733031
_cell_length_c 21.847177
_cell_angle_alpha 90.000000
_cell_angle_beta 90.000000
_cell_angle_gamma 90.000000
_cell_volume 5734.145035
_symmetry_space_group_name_H-M "I M M M"
_symmetry_group_IT_number 71
_symmetry_cell_setting 'orthorhombic'
loop_
_space_group_symop_operation_xyz
x,y,z
-x,-y,z
x,-y,-z
-x,y,-z
-x,-y,-z
x,y,-z
-x,y,z
x,-y,z
1/2+x,1/2+y,1/2+z
1/2-x,1/2-y,1/2+z
1/2+x,1/2-y,1/2-z
1/2-x,1/2+y,1/2-z
1/2-x,1/2-y,1/2-z
1/2+x,1/2+y,1/2-z
1/2-x,1/2+y,1/2+z
1/2+x,1/2-y,1/2+z
loop_
_atom_site_type_symbol
_atom_site_label
_atom_site_fract_x
_atom_site_fract_y
_atom_site_fract_z
Si Si1 0.918006 0.657012 0.890201
Si Si2 0.795651 0.896685 0.737136
Si Si3 0.253723 0.645595 0.572139
Si Si4 0.416538 0.755974 0.257642
Si Si5 0.648887 0.099748 0.177618
Si Si6 0.418769 0.364993 0.571616
Si Si7 0.300983 0.500000 0.000000
Si Si8 0.746300 0.138901 0.401976
O O1 0.910201 0.681470 0.818171
O O2 0.919391 0.755582 0.922637
O O3 0.841299 0.609479 0.909547
O O4 0.000000 0.614250 0.900680
O O5 0.855033 0.822288 0.758705
O O6 0.721067 0.890203 0.777923
O O7 0.772185 0.875454 0.667489
O O8 0.823936 0.000000 0.741111
O O9 0.248842 0.626848 0.500000
O O10 0.184946 0.607329 0.610746
O O11 0.335740 0.609560 0.595183
O O12 0.252056 0.754272 0.582643
O O13 0.500000 0.716771 0.258177
O O14 0.404278 0.819284 0.198660
O O15 0.615394 0.000000 0.187102
O O16 0.419253 0.389455 0.500000
O O17 0.500000 0.395005 0.598052
O O18 0.295498 0.579215 0.946849
#
# Coordination Sequence:
#
# PCOD9520000 Si02
#       8
#    16  16  16  16  16  16   4  16
#     4   9  18  31  50  75 110 156 197 234 278 335
#     4  11  21  36  61  88 120 154 190 248 297 354
#     4  10  19  33  57  82 110 149 192 243 291 347
#     4  11  22  38  61  86 115 154 197 246 304 358
#     4  11  23  38  60  89 115 150 199 244 300 352
#     4   8  14  25  45  75 109 148 189 222 265 329
#     4  12  24  32  53  92 119 160 208 240 282 358
#     4  11  19  34  54  80 117 156 196 233 285 348
#
# _framework density 20.229693999999999
#
# number of rings (size 3 to 8) (size 9 to 14) (size 15 to 20)
#    0.000    1.793    4.138    2.069    0.966    0.828 
#    0.000    0.690    0.000    1.655    0.000    3.379 
#    0.000    0.000    0.000    0.000    0.000    0.000 
#
# Total GULP energy -323250.221446 kJ/mol
# GULP energy per Si atom -5573.279680 kJ/mol
# Density = 2.018365 g / cm^3
# Si number density = 20.229694 Si / 1000 Ang^3
#
#
#
# Elastic Constant Matrix: (Units=GPa)
#
#
# Indices 1 2 3 4 5 6 
#
# 1 20.5370 4.2385 -6.3779 0.0000 0.0000 0.0000
# 2 4.2385 70.9874 -0.7870 0.0000 0.0000 0.0000
# 3 -6.3779 -0.7870 77.7260 0.0000 0.0000 0.0000
# 4 0.0000 0.0000 0.0000 22.0059 0.0000 0.0000
# 5 0.0000 0.0000 0.0000 0.0000 14.4604 0.0000
# 6 0.0000 0.0000 0.0000 0.0000 0.0000 -9.5088
#
#
#
# Elastic Compliance Matrix: (Units=1/GPa)
#
#
# Indices 1 2 3 4 5 6 
#
# 1 0.050586 -0.002975 0.004121 0.000000 0.000000 0.000000
# 2 -0.002975 0.014264 -0.000100 0.000000 0.000000 0.000000
# 3 0.004121 -0.000100 0.013203 0.000000 0.000000 0.000000
# 4 0.000000 0.000000 0.000000 0.045442 0.000000 0.000000
# 5 0.000000 0.000000 0.000000 0.000000 0.069154 0.000000
# 6 0.000000 0.000000 0.000000 0.000000 0.000000 -0.105166
#
#
# Mechanical properties :
#
#
# Convention : Reuss Voigt Hill
#
# Bulk Modulus (GPa) = 12.47732 18.15531 15.31631
# Shear Modulus (GPa) = 44.60066 16.86995 30.73531
#
# Velocity S-wave (km/s) = 4.70053 2.89090 3.90207
# Velocity P-wave (km/s) = 5.97002 4.48744 5.28102
#
# Compressibility (1/GPa) = 0.08014542
#
# Stress axis : x y z
#
# Youngs Moduli (GPa) = 19.76819 70.10893 75.74132
#
# Poissons Ratio (x) = 0.20856 -0.31211
# Poissons Ratio (y) = 0.05881 0.00755
# Poissons Ratio (z) = -0.08146 0.00699
#
# Static dielectric constant tensor:
#      x y z
#    x 1.735190 0.000000 0.000000 
#    y 0.000000 1.756760 0.000000 
#    z 0.000000 0.000000 1.725490 
# 
# From -- ./inp_files/60774.got.cif
#   From: 2010.05.17/outbox.cif.g08.bks.cpg/sg71_31_cif.got.tgz:60774.got - 2010.06.03 16:22:01.
