data_PCOD9520284
_publ_section_title
;
Structure prediction by ZEFSAII (Michael W. Deem and Ramdas Pophale) SiO2 
 PCOD9520284
Probable space group: I M M M
;
_chemical_formula_sum "Si O2"
_cell_formula_units_Z 88
_cell_length_a 23.417611
_cell_length_b 16.383426
_cell_length_c 12.417632
_cell_angle_alpha 90.000000
_cell_angle_beta 90.000000
_cell_angle_gamma 90.000000
_cell_volume 4764.157347
_symmetry_space_group_name_H-M "I M M M"
_symmetry_group_IT_number 71
_symmetry_cell_setting 'orthorhombic'
loop_
_space_group_symop_operation_xyz
x,y,z
-x,-y,z
x,-y,-z
-x,y,-z
-x,-y,-z
x,y,-z
-x,y,z
x,-y,z
1/2+x,1/2+y,1/2+z
1/2-x,1/2-y,1/2+z
1/2+x,1/2-y,1/2-z
1/2-x,1/2+y,1/2-z
1/2-x,1/2-y,1/2-z
1/2+x,1/2+y,1/2-z
1/2-x,1/2+y,1/2+z
1/2+x,1/2-y,1/2+z
loop_
_atom_site_type_symbol
_atom_site_label
_atom_site_fract_x
_atom_site_fract_y
_atom_site_fract_z
Si Si1 0.613230 0.150963 0.263245
Si Si2 0.593397 0.410953 0.116448
Si Si3 0.500000 0.771982 0.374804
Si Si4 0.221461 0.592015 0.127328
Si Si5 0.688719 0.274853 0.877198
Si Si6 0.500000 0.408354 0.300415
Si Si7 0.568553 0.000000 0.124489
O O1 0.557766 0.196010 0.314647
O O2 0.655011 0.111175 0.351784
O O3 0.656845 0.207358 0.194397
O O4 0.590534 0.079989 0.185483
O O5 0.621258 0.500000 0.122007
O O6 0.639940 0.342695 0.115172
O O7 0.552989 0.403321 0.218255
O O8 0.562987 0.407060 0.000000
O O9 0.500000 0.798416 0.500000
O O10 0.500000 0.672980 0.370616
O O11 0.234028 0.500000 0.170914
O O12 0.258648 0.670121 0.167136
O O13 0.233165 0.589617 0.000000
O O14 0.702115 0.245340 0.000000
O O15 0.500000 0.500000 0.350068
O O16 0.500000 0.000000 0.127400
O O17 0.586999 0.000000 0.000000
#
# Coordination Sequence:
#
# PCOD9520284 Si02
#       7
#    16  16   8  16  16   8   8
#     4  12  22  42  60  88 118 162 201 249 305 356
#     4   9  16  28  50  83 117 144 181 232 290 357
#     4  12  26  41  60  87 117 157 211 259 294 353
#     4  10  21  38  61  88 119 155 198 247 296 350
#     4  10  20  34  58  89 118 151 190 239 299 361
#     4  10  19  35  55  79 113 157 192 232 299 356
#     4  11  24  42  64  92 126 158 198 247 306 373
#
# _framework density 18.471260999999998
#
# number of rings (size 3 to 8) (size 9 to 14) (size 15 to 20)
#    0.000    1.545    3.636    2.455    0.000    3.455 
#    0.000    0.455    0.000    0.000    0.000    0.000 
#    0.000    0.000    0.000    0.000    0.000    0.000 
#
# Total GULP energy -244949.612566 kJ/mol
# GULP energy per Si atom -5567.036649 kJ/mol
# Density = 1.842922 g / cm^3
# Si number density = 18.471261 Si / 1000 Ang^3
#
#
#
# Elastic Constant Matrix: (Units=GPa)
#
#
# Indices 1 2 3 4 5 6 
#
# 1 98.0581 46.7235 30.7938 0.0000 0.0000 0.0000
# 2 46.7235 118.4339 47.0981 0.0000 0.0000 0.0000
# 3 30.7938 47.0981 66.8034 0.0000 0.0000 0.0000
# 4 0.0000 0.0000 0.0000 17.9396 0.0000 0.0000
# 5 0.0000 0.0000 0.0000 0.0000 33.3628 0.0000
# 6 0.0000 0.0000 0.0000 0.0000 0.0000 28.6726
#
#
#
# Elastic Compliance Matrix: (Units=1/GPa)
#
#
# Indices 1 2 3 4 5 6 
#
# 1 0.013068 -0.003835 -0.003320 0.000000 0.000000 0.000000
# 2 -0.003835 0.012859 -0.007298 0.000000 0.000000 0.000000
# 3 -0.003320 -0.007298 0.021645 0.000000 0.000000 0.000000
# 4 0.000000 0.000000 0.000000 0.055743 0.000000 0.000000
# 5 0.000000 0.000000 0.000000 0.000000 0.029974 0.000000
# 6 0.000000 0.000000 0.000000 0.000000 0.000000 0.034877
#
#
# Mechanical properties :
#
#
# Convention : Reuss Voigt Hill
#
# Bulk Modulus (GPa) = 53.57450 59.16957 56.37203
# Shear Modulus (GPa) = 24.59513 26.57365 25.58439
#
# Velocity S-wave (km/s) = 3.65298 3.79707 3.72572
# Velocity P-wave (km/s) = 6.84540 7.16425 7.00664
#
# Compressibility (1/GPa) = 0.01866560
#
# Stress axis : x y z
#
# Youngs Moduli (GPa) = 76.52244 77.76818 46.20042
#
# Poissons Ratio (x) = 0.29826 0.15338
# Poissons Ratio (y) = 0.29348 0.33716
# Poissons Ratio (z) = 0.25405 0.56754
#
# Static dielectric constant tensor:
#      x y z
#    x 1.638280 0.000000 0.000000 
#    y 0.000000 1.674600 0.000000 
#    z 0.000000 0.000000 1.664860 
# 
# From -- ./inp_files/27230.got.cif
#   From: 2010.05.17/outbox.cif.g08.bks.cpg/sg71_14_cif.got.tgz:27230.got - 2010.06.03 16:22:01.
