data_PCOD9520101
_publ_section_title
;
Structure prediction by ZEFSAII (Michael W. Deem and Ramdas Pophale) SiO2 
 PCOD9520101
Probable space group: I M M M
;
_chemical_formula_sum "Si O2"
_cell_formula_units_Z 96
_cell_length_a 18.278564
_cell_length_b 17.966708
_cell_length_c 17.824065
_cell_angle_alpha 90.000000
_cell_angle_beta 90.000000
_cell_angle_gamma 90.000000
_cell_volume 5853.523154
_symmetry_space_group_name_H-M "I M M M"
_symmetry_group_IT_number 71
_symmetry_cell_setting 'orthorhombic'
loop_
_space_group_symop_operation_xyz
x,y,z
-x,-y,z
x,-y,-z
-x,y,-z
-x,-y,-z
x,y,-z
-x,y,z
x,-y,z
1/2+x,1/2+y,1/2+z
1/2-x,1/2-y,1/2+z
1/2+x,1/2-y,1/2-z
1/2-x,1/2+y,1/2-z
1/2-x,1/2-y,1/2-z
1/2+x,1/2+y,1/2-z
1/2-x,1/2+y,1/2+z
1/2+x,1/2-y,1/2+z
loop_
_atom_site_type_symbol
_atom_site_label
_atom_site_fract_x
_atom_site_fract_y
_atom_site_fract_z
Si Si1 0.582546 0.415433 0.239123
Si Si2 0.085786 0.236219 0.818199
Si Si3 0.815220 0.323892 0.698668
Si Si4 0.765502 0.912569 0.669606
Si Si5 0.283728 0.774874 0.586227
Si Si6 0.416002 0.089295 0.085527
O O1 0.500000 0.407528 0.208204
O O2 0.589981 0.500000 0.268522
O O3 0.590729 0.351951 0.301593
O O4 0.646914 0.405540 0.179005
O O5 0.128866 0.275898 0.749521
O O6 0.132360 0.258853 0.890868
O O7 0.000000 0.256507 0.820665
O O8 0.768725 0.375488 0.755198
O O9 0.764019 0.271920 0.646921
O O10 0.861919 0.374444 0.643532
O O11 0.735714 0.860870 0.603194
O O12 0.747249 0.000000 0.663878
O O13 0.268833 0.755573 0.500000
O O14 0.500000 0.110946 0.101163
O O15 0.412214 0.000000 0.089318
O O16 0.398857 0.111450 0.000000
#
# Coordination Sequence:
#
# PCOD9520101 Si02
#       6
#    16  16  16  16  16  16
#     4   9  16  29  52  78 102 129 166 213 256 296
#     4  10  19  34  55  76 100 134 176 217 258 302
#     4  11  18  33  50  79  97 128 167 225 255 300
#     4  10  19  34  55  76 100 134 176 217 258 302
#     4  11  22  35  50  76 111 139 169 209 260 321
#     4   9  18  31  46  67  97 130 160 195 251 316
#
# _framework density 16.400379000000001
#
# number of rings (size 3 to 8) (size 9 to 14) (size 15 to 20)
#    0.000    2.000    3.333    3.000    0.000    0.667 
#    0.000    0.000    0.000    7.500    0.000    9.333 
#    0.000    0.000    0.000    0.000    0.000    0.000 
#
# Total GULP energy -267476.425398 kJ/mol
# GULP energy per Si atom -5572.425529 kJ/mol
# Density = 1.636305 g / cm^3
# Si number density = 16.400379 Si / 1000 Ang^3
#
#
#
# Elastic Constant Matrix: (Units=GPa)
#
#
# Indices 1 2 3 4 5 6 
#
# 1 90.8406 33.6706 30.7392 0.0000 0.0000 0.0000
# 2 33.6706 56.8069 5.1193 0.0000 0.0000 0.0000
# 3 30.7392 5.1193 54.0189 0.0000 0.0000 0.0000
# 4 0.0000 0.0000 0.0000 18.6744 0.0000 0.0000
# 5 0.0000 0.0000 0.0000 0.0000 17.0572 0.0000
# 6 0.0000 0.0000 0.0000 0.0000 0.0000 28.6995
#
#
#
# Elastic Compliance Matrix: (Units=1/GPa)
#
#
# Indices 1 2 3 4 5 6 
#
# 1 0.017683 -0.009657 -0.009147 0.000000 0.000000 0.000000
# 2 -0.009657 0.023029 0.003313 0.000000 0.000000 0.000000
# 3 -0.009147 0.003313 0.023403 0.000000 0.000000 0.000000
# 4 0.000000 0.000000 0.000000 0.053549 0.000000 0.000000
# 5 0.000000 0.000000 0.000000 0.000000 0.058626 0.000000
# 6 0.000000 0.000000 0.000000 0.000000 0.000000 0.034844
#
#
# Mechanical properties :
#
#
# Convention : Reuss Voigt Hill
#
# Bulk Modulus (GPa) = 30.18189 37.85830 34.02010
# Shear Modulus (GPa) = 19.75029 21.69537 20.72283
#
# Velocity S-wave (km/s) = 3.47401 3.64106 3.55851
# Velocity P-wave (km/s) = 5.87663 6.38829 6.13780
#
# Compressibility (1/GPa) = 0.03313245
#
# Stress axis : x y z
#
# Youngs Moduli (GPa) = 56.55179 43.42409 42.72906
#
# Poissons Ratio (x) = 0.41933 0.39085
# Poissons Ratio (y) = 0.54610 -0.14155
# Poissons Ratio (z) = 0.51729 -0.14385
#
# Static dielectric constant tensor:
#      x y z
#    x 1.569750 0.000000 0.000000 
#    y 0.000000 1.563390 0.000000 
#    z 0.000000 0.000000 1.524580 
# 
# From -- ./inp_files/46033.got.cif
#   From: 2010.05.17/outbox.cif.g08.bks.cpg/sg71_24_cif.got.tgz:46033.got - 2010.06.03 16:22:01.
