data_PCOD9520820
_publ_section_title
;
Structure prediction by ZEFSAII (Michael W. Deem and Ramdas Pophale) SiO2 
 PCOD9520820
Probable space group: I M M M
;
_chemical_formula_sum "Si O2"
_cell_formula_units_Z 88
_cell_length_a 20.287991
_cell_length_b 25.230722
_cell_length_c 9.570710
_cell_angle_alpha 90.000000
_cell_angle_beta 90.000000
_cell_angle_gamma 90.000000
_cell_volume 4899.061360
_symmetry_space_group_name_H-M "I M M M"
_symmetry_group_IT_number 71
_symmetry_cell_setting 'orthorhombic'
loop_
_space_group_symop_operation_xyz
x,y,z
-x,-y,z
x,-y,-z
-x,y,-z
-x,-y,-z
x,y,-z
-x,y,z
x,-y,z
1/2+x,1/2+y,1/2+z
1/2-x,1/2-y,1/2+z
1/2+x,1/2-y,1/2-z
1/2-x,1/2+y,1/2-z
1/2-x,1/2-y,1/2-z
1/2+x,1/2+y,1/2-z
1/2-x,1/2+y,1/2+z
1/2+x,1/2-y,1/2+z
loop_
_atom_site_type_symbol
_atom_site_label
_atom_site_fract_x
_atom_site_fract_y
_atom_site_fract_z
Si Si1 0.000000 0.327628 0.345694
Si Si2 0.380521 0.650164 0.343848
Si Si3 0.581165 0.000000 0.670532
Si Si4 0.000000 0.775376 0.166876
Si Si5 0.632270 0.895884 0.835749
Si Si6 0.735877 0.802670 0.158365
Si Si7 0.423906 0.559646 0.833547
O O1 0.063939 0.363861 0.333308
O O2 0.000000 0.302560 0.500000
O O3 0.000000 0.281793 0.233521
O O4 0.401829 0.633620 0.500000
O O5 0.434629 0.692290 0.292350
O O6 0.308596 0.673623 0.351896
O O7 0.379227 0.601105 0.242001
O O8 0.616919 0.948124 0.741021
O O9 0.500000 0.000000 0.698752
O O10 0.588127 0.000000 0.500000
O O11 0.000000 0.770451 0.000000
O O12 0.687189 0.850944 0.792971
O O13 0.646133 0.910526 0.000000
O O14 0.750000 0.750000 0.250000
O O15 0.712910 0.788172 0.000000
O O16 0.500000 0.570483 0.794462
O O17 0.408186 0.500000 0.792144
O O18 0.419694 0.563355 0.000000
#
# Coordination Sequence:
#
# PCOD9520820 Si02
#       7
#     8  16   8   8  16  16  16
#     4  10  20  33  55  83 106 138 188 230 272 339
#     4  10  20  35  53  78 110 144 184 226 276 334
#     4  11  23  39  63  95 123 150 193 248 304 358
#     4  10  20  32  50  78 112 145 179 227 282 331
#     4  10  21  39  61  85 116 156 196 236 290 354
#     4  10  22  39  59  84 116 153 193 237 287 345
#     4   9  18  33  53  77 104 136 177 224 271 319
#
# _framework density 17.962624999999999
#
# number of rings (size 3 to 8) (size 9 to 14) (size 15 to 20)
#    0.000    2.091    1.818    1.909    0.000    3.636 
#    1.636    0.909    0.000    0.000    0.000    0.000 
#    0.000    0.000    0.000    0.000    0.000    0.000 
#
# Total GULP energy -244975.008859 kJ/mol
# GULP energy per Si atom -5567.613838 kJ/mol
# Density = 1.792174 g / cm^3
# Si number density = 17.962625 Si / 1000 Ang^3
#
#
#
# Elastic Constant Matrix: (Units=GPa)
#
#
# Indices 1 2 3 4 5 6 
#
# 1 86.1392 51.3669 27.3881 0.0000 0.0000 0.0000
# 2 51.3669 98.8592 57.7619 0.0000 0.0000 0.0000
# 3 27.3881 57.7619 53.4225 0.0000 0.0000 0.0000
# 4 0.0000 0.0000 0.0000 39.9094 0.0000 0.0000
# 5 0.0000 0.0000 0.0000 0.0000 -162.5835 0.0000
# 6 0.0000 0.0000 0.0000 0.0000 0.0000 42.4583
#
#
#
# Elastic Compliance Matrix: (Units=1/GPa)
#
#
# Indices 1 2 3 4 5 6 
#
# 1 0.016921 -0.010111 0.002258 0.000000 0.000000 0.000000
# 2 -0.010111 0.033510 -0.031049 0.000000 0.000000 0.000000
# 3 0.002258 -0.031049 0.051132 0.000000 0.000000 0.000000
# 4 0.000000 0.000000 0.000000 0.025057 0.000000 0.000000
# 5 0.000000 0.000000 0.000000 0.000000 -0.006151 0.000000
# 6 0.000000 0.000000 0.000000 0.000000 0.000000 0.023553
#
#
# Mechanical properties :
#
#
# Convention : Reuss Voigt Hill
#
# Bulk Modulus (GPa) = 42.08958 56.82829 49.45894
# Shear Modulus (GPa) = 21.76316 -9.24957 6.25680
#
# Velocity S-wave (km/s) = 3.48455 -2.27168 1.86837
# Velocity P-wave (km/s) = 6.29858 4.98246 5.67878
#
# Compressibility (1/GPa) = 0.02375885
#
# Stress axis : x y z
#
# Youngs Moduli (GPa) = 59.09890 29.84149 19.55717
#
# Poissons Ratio (x) = 0.30173 -0.04415
# Poissons Ratio (y) = 0.59755 0.60723
# Poissons Ratio (z) = -0.13342 0.92654
#
# Static dielectric constant tensor:
#      x y z
#    x 1.574540 0.000000 0.000000 
#    y 0.000000 1.607910 0.000000 
#    z 0.000000 0.000000 1.672000 
# 
# From -- ./inp_files/10543.got.cif
#   From: 2010.05.17/outbox.cif.g08.bks.cpg/sg71_6_cif.got.tgz:10543.got - 2010.06.03 16:22:01.
