data_PCOD9520368
_publ_section_title
;
Structure prediction by ZEFSAII (Michael W. Deem and Ramdas Pophale) SiO2 
 PCOD9520368
Probable space group: I M M M
;
_chemical_formula_sum "Si O2"
_cell_formula_units_Z 88
_cell_length_a 15.553333
_cell_length_b 21.554211
_cell_length_c 14.445993
_cell_angle_alpha 90.000000
_cell_angle_beta 90.000000
_cell_angle_gamma 90.000000
_cell_volume 4842.872111
_symmetry_space_group_name_H-M "I M M M"
_symmetry_group_IT_number 71
_symmetry_cell_setting 'orthorhombic'
loop_
_space_group_symop_operation_xyz
x,y,z
-x,-y,z
x,-y,-z
-x,y,-z
-x,-y,-z
x,y,-z
-x,y,z
x,-y,z
1/2+x,1/2+y,1/2+z
1/2-x,1/2-y,1/2+z
1/2+x,1/2-y,1/2-z
1/2-x,1/2+y,1/2-z
1/2-x,1/2-y,1/2-z
1/2+x,1/2+y,1/2-z
1/2-x,1/2+y,1/2+z
1/2+x,1/2-y,1/2+z
loop_
_atom_site_type_symbol
_atom_site_label
_atom_site_fract_x
_atom_site_fract_y
_atom_site_fract_z
Si Si1 0.000000 0.925781 0.108243
Si Si2 0.592016 0.751047 0.157632
Si Si3 0.144677 0.127510 0.244270
Si Si4 0.273262 0.290646 0.401984
Si Si5 0.269642 0.927939 0.607478
Si Si6 0.098983 0.681141 0.850482
O O1 0.081586 0.903806 0.169624
O O2 0.000000 0.000000 0.104687
O O3 0.000000 0.903193 0.000000
O O4 0.500000 0.758877 0.109892
O O5 0.596102 0.682715 0.202376
O O6 0.679802 0.759891 0.102930
O O7 0.595405 0.799932 0.242450
O O8 0.215594 0.163454 0.183334
O O9 0.192521 0.086028 0.320512
O O10 0.284096 0.323557 0.500000
O O11 0.345569 0.237487 0.393540
O O12 0.243790 0.916867 0.500000
O O13 0.347836 0.881218 0.630298
O O14 0.294833 0.000000 0.615920
O O15 0.000000 0.678629 0.883302
#
# Coordination Sequence:
#
# PCOD9520368 Si02
#       6
#     8  16  16  16  16  16
#     4  11  24  40  61  89 119 153 197 245 289 344
#     4  10  19  35  59  82 113 148 188 238 293 350
#     4  11  20  40  57  83 118 152 189 238 294 342
#     4  11  21  34  58  88 117 149 189 238 297 359
#     4  11  23  38  58  82 112 155 201 240 285 347
#     4  10  20  36  56  82 118 153 188 239 295 349
#
# _framework density 18.171033999999999
#
# number of rings (size 3 to 8) (size 9 to 14) (size 15 to 20)
#    0.000    1.364    4.545    2.727    1.273    2.182 
#    0.000    1.364    0.000    1.636    0.000    0.000 
#    0.000    2.909    0.000    0.000    0.000    0.000 
#
# Total GULP energy -245339.993840 kJ/mol
# GULP energy per Si atom -5575.908951 kJ/mol
# Density = 1.812968 g / cm^3
# Si number density = 18.171034 Si / 1000 Ang^3
#
#
#
# Elastic Constant Matrix: (Units=GPa)
#
#
# Indices 1 2 3 4 5 6 
#
# 1 132.2878 20.7047 47.9594 0.0000 0.0000 0.0000
# 2 20.7047 78.3767 38.0575 0.0000 0.0000 0.0000
# 3 47.9594 38.0575 106.1041 0.0000 0.0001 0.0000
# 4 0.0000 0.0000 0.0000 15.7623 0.0000 0.0000
# 5 0.0000 0.0000 0.0001 0.0000 -84.1193 0.0000
# 6 0.0000 0.0000 0.0000 0.0000 0.0000 7.7396
#
#
#
# Elastic Compliance Matrix: (Units=1/GPa)
#
#
# Indices 1 2 3 4 5 6 
#
# 1 0.009056 -0.000490 -0.003918 0.000000 0.000000 0.000000
# 2 -0.000490 0.015476 -0.005330 0.000000 0.000000 0.000000
# 3 -0.003918 -0.005330 0.013107 0.000000 0.000000 0.000000
# 4 0.000000 0.000000 0.000000 0.063442 0.000000 0.000000
# 5 0.000000 0.000000 0.000000 0.000000 -0.011888 0.000000
# 6 0.000000 0.000000 0.000000 0.000000 0.000000 0.129205
#
#
# Mechanical properties :
#
#
# Convention : Reuss Voigt Hill
#
# Bulk Modulus (GPa) = 55.05072 58.91243 56.98157
# Shear Modulus (GPa) = 20.49779 1.87967 11.18873
#
# Velocity S-wave (km/s) = 3.36229 1.01817 2.48411
# Velocity P-wave (km/s) = 6.74054 5.82011 6.29717
#
# Compressibility (1/GPa) = 0.01816507
#
# Stress axis : x y z
#
# Youngs Moduli (GPa) = 110.42038 64.61528 76.29440
#
# Poissons Ratio (x) = 0.03167 0.29890
# Poissons Ratio (y) = 0.05411 0.40661
# Poissons Ratio (z) = 0.43259 0.34437
#
# Static dielectric constant tensor:
#      x y z
#    x 1.652910 0.000000 0.000000 
#    y 0.000000 1.596080 0.000000 
#    z 0.000000 0.000000 1.649970 
# 
# From -- ./inp_files/34430.got.cif
#   From: 2010.05.17/outbox.cif.g08.bks.cpg/sg71_18_cif.got.tgz:34430.got - 2010.06.03 16:22:01.
