data_PCOD9520384
_publ_section_title
;
Structure prediction by ZEFSAII (Michael W. Deem and Ramdas Pophale) SiO2 
 PCOD9520384
Probable space group: I M M M
;
_chemical_formula_sum "Si O2"
_cell_formula_units_Z 64
_cell_length_a 22.408230
_cell_length_b 7.489494
_cell_length_c 18.202132
_cell_angle_alpha 90.000000
_cell_angle_beta 90.000000
_cell_angle_gamma 90.000000
_cell_volume 3054.796541
_symmetry_space_group_name_H-M "I M M M"
_symmetry_group_IT_number 71
_symmetry_cell_setting 'orthorhombic'
loop_
_space_group_symop_operation_xyz
x,y,z
-x,-y,z
x,-y,-z
-x,y,-z
-x,-y,-z
x,y,-z
-x,y,z
x,-y,z
1/2+x,1/2+y,1/2+z
1/2-x,1/2-y,1/2+z
1/2+x,1/2-y,1/2-z
1/2-x,1/2+y,1/2-z
1/2-x,1/2-y,1/2-z
1/2+x,1/2+y,1/2-z
1/2-x,1/2+y,1/2+z
1/2+x,1/2-y,1/2+z
loop_
_atom_site_type_symbol
_atom_site_label
_atom_site_fract_x
_atom_site_fract_y
_atom_site_fract_z
Si Si1 0.138413 0.794809 0.324569
Si Si2 0.571156 0.000000 0.084528
Si Si3 0.000000 0.781785 0.914797
Si Si4 0.753123 0.783362 0.916646
Si Si5 0.624416 0.717278 0.655887
O O1 0.097283 0.671160 0.374399
O O2 0.204564 0.782308 0.358465
O O3 0.135618 0.731961 0.240293
O O4 0.118536 0.000000 0.326603
O O5 0.500000 0.000000 0.086700
O O6 0.591477 0.000000 0.000000
O O7 0.060544 0.722752 0.874638
O O8 0.000000 0.000000 0.913525
O O9 0.000000 0.728292 0.000000
O O10 0.819493 0.726570 0.893396
O O11 0.751065 0.000000 0.914904
O O12 0.739199 0.727078 0.000000
O O13 0.623971 0.500000 0.653766
#
# Coordination Sequence:
#
# PCOD9520384 Si02
#       5
#    16   8   8  16  16
#     4  11  23  40  65  92 125 162 206 258 313 369
#     4  11  26  46  66  92 124 161 209 255 308 376
#     4   9  16  30  54  87 125 162 207 255 306 368
#     4  10  19  35  59  87 124 166 210 258 311 368
#     4   9  19  33  55  89 125 164 208 255 309 371
#
# _framework density 20.950657
#
# number of rings (size 3 to 8) (size 9 to 14) (size 15 to 20)
#    0.000    2.000    1.250    2.250    1.750    5.500 
#    2.250    1.250    0.000    0.000    0.000    0.875 
#    0.000    0.000    0.000    0.000    0.000    0.000 
#
# Total GULP energy -178953.249701 kJ/mol
# GULP energy per Si atom -5592.289053 kJ/mol
# Density = 2.090297 g / cm^3
# Si number density = 20.950657 Si / 1000 Ang^3
#
#
#
# Elastic Constant Matrix: (Units=GPa)
#
#
# Indices 1 2 3 4 5 6 
#
# 1 142.5979 7.5006 83.8655 0.0000 0.0000 0.0000
# 2 7.5006 74.6149 15.0407 0.0000 0.0000 0.0000
# 3 83.8655 15.0407 174.9363 0.0000 0.0000 0.0000
# 4 0.0000 0.0000 0.0000 18.6812 0.0000 0.0000
# 5 0.0000 0.0000 0.0000 0.0000 60.9165 0.0000
# 6 0.0000 0.0000 0.0000 0.0000 0.0000 -1.4981
#
#
#
# Elastic Compliance Matrix: (Units=1/GPa)
#
#
# Indices 1 2 3 4 5 6 
#
# 1 0.009766 -0.000039 -0.004679 0.000000 0.000000 0.000000
# 2 -0.000039 0.013639 -0.001154 0.000000 0.000000 0.000000
# 3 -0.004679 -0.001154 0.008059 0.000000 0.000000 0.000000
# 4 0.000000 0.000000 0.000000 0.053530 0.000000 0.000000
# 5 0.000000 0.000000 0.000000 0.000000 0.016416 0.000000
# 6 0.000000 0.000000 0.000000 0.000000 0.000000 -0.667506
#
#
# Mechanical properties :
#
#
# Convention : Reuss Voigt Hill
#
# Bulk Modulus (GPa) = 50.70802 67.21805 58.96304
# Shear Modulus (GPa) = -9.12775 34.66942 12.77083
#
# Velocity S-wave (km/s) = -2.08956 4.07235 2.47162
# Velocity P-wave (km/s) = 4.29353 7.36653 6.02910
#
# Compressibility (1/GPa) = 0.01972075
#
# Stress axis : x y z
#
# Youngs Moduli (GPa) = 102.39119 73.32089 124.09056
#
# Poissons Ratio (x) = 0.00283 0.58059
# Poissons Ratio (y) = 0.00395 0.14321
# Poissons Ratio (z) = 0.47907 0.08462
#
# Static dielectric constant tensor:
#      x y z
#    x 1.715520 0.000000 0.000000 
#    y 0.000000 1.805610 0.000000 
#    z 0.000000 0.000000 1.711880 
# 
# From -- ./inp_files/46805.got.cif
#   From: 2010.05.17/outbox.cif.g08.bks.cpg/sg71_24_cif.got.tgz:46805.got - 2010.06.03 16:22:01.
