data_PCOD9520297
_publ_section_title
;
Structure prediction by ZEFSAII (Michael W. Deem and Ramdas Pophale) SiO2 
 PCOD9520297
Probable space group: I M M M
;
_chemical_formula_sum "Si O2"
_cell_formula_units_Z 80
_cell_length_a 19.142292
_cell_length_b 13.047718
_cell_length_c 19.172093
_cell_angle_alpha 90.000000
_cell_angle_beta 90.000000
_cell_angle_gamma 90.000000
_cell_volume 4788.483833
_symmetry_space_group_name_H-M "I M M M"
_symmetry_group_IT_number 71
_symmetry_cell_setting 'orthorhombic'
loop_
_space_group_symop_operation_xyz
x,y,z
-x,-y,z
x,-y,-z
-x,y,-z
-x,-y,-z
x,y,-z
-x,y,z
x,-y,z
1/2+x,1/2+y,1/2+z
1/2-x,1/2-y,1/2+z
1/2+x,1/2-y,1/2-z
1/2-x,1/2+y,1/2-z
1/2-x,1/2-y,1/2-z
1/2+x,1/2+y,1/2-z
1/2-x,1/2+y,1/2+z
1/2+x,1/2-y,1/2+z
loop_
_atom_site_type_symbol
_atom_site_label
_atom_site_fract_x
_atom_site_fract_y
_atom_site_fract_z
Si Si1 0.915618 0.381371 0.419265
Si Si2 0.383571 0.887688 0.582515
Si Si3 0.500000 0.280551 0.416439
Si Si4 0.275368 0.117265 0.306203
Si Si5 0.000000 0.121518 0.228921
Si Si6 0.365885 0.739427 0.793492
O O1 0.895646 0.359743 0.500000
O O2 0.895222 0.500000 0.403749
O O3 0.886352 0.301468 0.363268
O O4 0.000000 0.377474 0.415866
O O5 0.378401 0.891079 0.500000
O O6 0.434179 0.793642 0.597884
O O7 0.308755 0.875573 0.617335
O O8 0.411301 0.000000 0.606293
O O9 0.500000 0.309015 0.500000
O O10 0.500000 0.364747 0.355600
O O11 0.330654 0.179213 0.259250
O O12 0.198064 0.161867 0.305536
O O13 0.274079 0.000000 0.283093
O O14 0.932184 0.179887 0.260864
O O15 0.000000 0.000000 0.245678
#
# Coordination Sequence:
#
# PCOD9520297 Si02
#       6
#    16  16   8  16   8  16
#     4   9  18  34  58  86 112 138 178 230 277 325
#     4   9  17  31  53  82 112 138 171 218 272 326
#     4  10  19  35  56  80 109 144 182 222 269 318
#     4  10  21  35  54  81 110 144 185 226 270 327
#     4  12  24  38  56  81 109 146 189 229 277 330
#     4  11  21  37  56  80 111 149 181 227 280 328
#
# _framework density 16.70675
#
# number of rings (size 3 to 8) (size 9 to 14) (size 15 to 20)
#    0.000    2.000    3.000    2.100    0.000    2.200 
#    0.000    0.000    0.000    2.400    0.000    0.000 
#    0.000    0.000    0.000    0.000    0.000    0.000 
#
# Total GULP energy -222778.060365 kJ/mol
# GULP energy per Si atom -5569.451509 kJ/mol
# Density = 1.666872 g / cm^3
# Si number density = 16.706750 Si / 1000 Ang^3
#
#
#
# Elastic Constant Matrix: (Units=GPa)
#
#
# Indices 1 2 3 4 5 6 
#
# 1 106.0930 64.1891 39.9381 0.0000 0.0000 0.0000
# 2 64.1891 116.9372 48.6230 0.0000 0.0000 0.0000
# 3 39.9381 48.6230 62.7354 0.0000 0.0000 0.0000
# 4 0.0000 0.0000 0.0000 26.8538 0.0000 0.0000
# 5 0.0000 0.0000 0.0000 0.0000 19.0649 0.0000
# 6 0.0000 0.0000 0.0000 0.0000 0.0000 13.2514
#
#
#
# Elastic Compliance Matrix: (Units=1/GPa)
#
#
# Indices 1 2 3 4 5 6 
#
# 1 0.014986 -0.006284 -0.004669 0.000000 0.000000 0.000000
# 2 -0.006284 0.015253 -0.007821 0.000000 0.000000 0.000000
# 3 -0.004669 -0.007821 0.024975 0.000000 0.000000 0.000000
# 4 0.000000 0.000000 0.000000 0.037239 0.000000 0.000000
# 5 0.000000 0.000000 0.000000 0.000000 0.052452 0.000000
# 6 0.000000 0.000000 0.000000 0.000000 0.000000 0.075464
#
#
# Mechanical properties :
#
#
# Convention : Reuss Voigt Hill
#
# Bulk Modulus (GPa) = 56.61463 65.69621 61.15542
# Shear Modulus (GPa) = 18.95328 20.70171 19.82750
#
# Velocity S-wave (km/s) = 3.37184 3.52394 3.44873
# Velocity P-wave (km/s) = 7.00856 7.48104 7.24865
#
# Compressibility (1/GPa) = 0.01766328
#
# Stress axis : x y z
#
# Youngs Moduli (GPa) = 66.73048 65.55910 40.04083
#
# Poissons Ratio (x) = 0.41200 0.18696
# Poissons Ratio (y) = 0.41936 0.31318
# Poissons Ratio (z) = 0.31159 0.51277
#
# Static dielectric constant tensor:
#      x y z
#    x 1.543720 0.000000 0.000000 
#    y 0.000000 1.577790 0.000000 
#    z 0.000000 0.000000 1.571020 
# 
# From -- ./inp_files/25587.got.cif
#   From: 2010.05.17/outbox.cif.g08.bks.cpg/sg71_13_cif.got.tgz:25587.got - 2010.06.03 16:22:01.
