data_PCOD9520291
_publ_section_title
;
Structure prediction by ZEFSAII (Michael W. Deem and Ramdas Pophale) SiO2 
 PCOD9520291
Probable space group: I M M M
;
_chemical_formula_sum "Si O2"
_cell_formula_units_Z 104
_cell_length_a 33.935088
_cell_length_b 19.744859
_cell_length_c 8.306039
_cell_angle_alpha 90.000000
_cell_angle_beta 90.000000
_cell_angle_gamma 90.000000
_cell_volume 5565.407673
_symmetry_space_group_name_H-M "I M M M"
_symmetry_group_IT_number 71
_symmetry_cell_setting 'orthorhombic'
loop_
_space_group_symop_operation_xyz
x,y,z
-x,-y,z
x,-y,-z
-x,y,-z
-x,-y,-z
x,y,-z
-x,y,z
x,-y,z
1/2+x,1/2+y,1/2+z
1/2-x,1/2-y,1/2+z
1/2+x,1/2-y,1/2-z
1/2-x,1/2+y,1/2-z
1/2-x,1/2-y,1/2-z
1/2+x,1/2+y,1/2-z
1/2-x,1/2+y,1/2+z
1/2+x,1/2-y,1/2+z
loop_
_atom_site_type_symbol
_atom_site_label
_atom_site_fract_x
_atom_site_fract_y
_atom_site_fract_z
Si Si1 0.084124 0.923056 0.807242
Si Si2 0.120701 0.339948 0.805511
Si Si3 0.802178 0.422702 0.805612
Si Si4 0.734640 0.677411 0.692844
Si Si5 0.855273 0.188953 0.197159
Si Si6 0.000000 0.082113 0.315030
Si Si7 0.044946 0.578175 0.694302
O O1 0.116111 0.870447 0.745803
O O2 0.040423 0.897065 0.767717
O O3 0.088722 0.000000 0.744080
O O4 0.087833 0.926585 0.000000
O O5 0.157708 0.385776 0.750136
O O6 0.129415 0.262973 0.751554
O O7 0.079347 0.372234 0.752390
O O8 0.121055 0.339718 0.000000
O O9 0.800535 0.500000 0.747928
O O10 0.764077 0.379965 0.755235
O O11 0.803375 0.423347 0.000000
O O12 0.734927 0.675311 0.500000
O O13 0.750000 0.750000 0.750000
O O14 0.689332 0.673392 0.747821
O O15 0.855536 0.189559 0.000000
O O16 0.000000 0.103091 0.500000
O O17 0.000000 0.000000 0.307882
O O18 0.045120 0.578685 0.500000
O O19 0.052781 0.500000 0.745823
O O20 0.000000 0.595615 0.746024
#
# Coordination Sequence:
#
# PCOD9520291 Si02
#       7
#    16  16  16  16  16   8  16
#     4   9  17  32  55  79 102 135 179 221 262 310
#     4  10  19  35  56  78 107 143 182 222 268 320
#     4  10  21  37  57  83 114 146 183 229 276 322
#     4  11  21  37  59  80 109 147 185 225 274 330
#     4   9  19  35  55  78 106 140 178 222 268 317
#     4   9  17  31  51  75 105 137 168 211 264 315
#     4   9  19  36  55  76 107 143 176 218 271 321
#
# _framework density 18.686861
#
# number of rings (size 3 to 8) (size 9 to 14) (size 15 to 20)
#    0.000    2.385    1.538    1.615    0.000    3.692 
#    1.385    4.615    0.000    1.846    0.000    0.000 
#    0.000    0.000    0.000    0.000    0.000    0.000 
#
# Total GULP energy -290061.257292 kJ/mol
# GULP energy per Si atom -5578.101102 kJ/mol
# Density = 1.864433 g / cm^3
# Si number density = 18.686861 Si / 1000 Ang^3
#
#
#
# Elastic Constant Matrix: (Units=GPa)
#
#
# Indices 1 2 3 4 5 6 
#
# 1 203.1869 115.4203 13.0656 0.0000 0.0000 0.0000
# 2 115.4203 144.9290 14.3044 0.0000 0.0000 0.0000
# 3 13.0656 14.3044 5.9598 0.0000 0.0000 0.0000
# 4 0.0000 0.0000 0.0000 18.0670 0.0000 0.0000
# 5 0.0000 0.0000 0.0000 0.0000 28.5227 0.0000
# 6 0.0000 0.0000 0.0000 0.0000 0.0000 36.8048
#
#
#
# Elastic Compliance Matrix: (Units=1/GPa)
#
#
# Indices 1 2 3 4 5 6 
#
# 1 0.009037 -0.006869 -0.003326 0.000000 0.000000 0.000000
# 2 -0.006869 0.014263 -0.019174 0.000000 0.000000 0.000000
# 3 -0.003326 -0.019174 0.221102 0.000000 0.000000 0.000000
# 4 0.000000 0.000000 0.000000 0.055350 0.000000 0.000000
# 5 0.000000 0.000000 0.000000 0.000000 0.035060 0.000000
# 6 0.000000 0.000000 0.000000 0.000000 0.000000 0.027170
#
#
# Mechanical properties :
#
#
# Convention : Reuss Voigt Hill
#
# Bulk Modulus (GPa) = 5.38607 71.07294 38.22950
# Shear Modulus (GPa) = 10.36039 30.76461 20.56250
#
# Velocity S-wave (km/s) = 2.35717 4.06189 3.32078
# Velocity P-wave (km/s) = 3.20887 7.75338 5.93345
#
# Compressibility (1/GPa) = 0.18566422
#
# Stress axis : x y z
#
# Youngs Moduli (GPa) = 110.65119 70.11231 4.52281
#
# Poissons Ratio (x) = 0.48161 0.01504
# Poissons Ratio (y) = 0.76007 0.08672
# Poissons Ratio (z) = 0.36802 1.34432
#
# Static dielectric constant tensor:
#      x y z
#    x 1.648640 0.000000 0.000000 
#    y 0.000000 1.635480 0.000000 
#    z 0.000000 0.000000 1.657230 
# 
# From -- ./inp_files/15038.got.cif
#   From: 2010.05.17/outbox.cif.g08.bks.cpg/sg71_8_cif.got.tgz:15038.got - 2010.06.03 16:22:01.
