data_PCOD9520675
_publ_section_title
;
Structure prediction by ZEFSAII (Michael W. Deem and Ramdas Pophale) SiO2 
 PCOD9520675
Probable space group: I M M M
;
_chemical_formula_sum "Si O2"
_cell_formula_units_Z 104
_cell_length_a 25.893526
_cell_length_b 8.205828
_cell_length_c 20.771420
_cell_angle_alpha 90.000000
_cell_angle_beta 90.000000
_cell_angle_gamma 90.000000
_cell_volume 4413.466054
_symmetry_space_group_name_H-M "I M M M"
_symmetry_group_IT_number 71
_symmetry_cell_setting 'orthorhombic'
loop_
_space_group_symop_operation_xyz
x,y,z
-x,-y,z
x,-y,-z
-x,y,-z
-x,-y,-z
x,y,-z
-x,y,z
x,-y,z
1/2+x,1/2+y,1/2+z
1/2-x,1/2-y,1/2+z
1/2+x,1/2-y,1/2-z
1/2-x,1/2+y,1/2-z
1/2-x,1/2-y,1/2-z
1/2+x,1/2+y,1/2-z
1/2-x,1/2+y,1/2+z
1/2+x,1/2-y,1/2+z
loop_
_atom_site_type_symbol
_atom_site_label
_atom_site_fract_x
_atom_site_fract_y
_atom_site_fract_z
Si Si1 0.055761 0.696285 0.398134
Si Si2 0.726839 0.191302 0.381557
Si Si3 0.332817 0.195015 0.889334
Si Si4 0.058387 0.000000 0.922133
Si Si5 0.887587 0.678067 0.924892
Si Si6 0.056917 0.802944 0.751991
Si Si7 0.169762 0.304954 0.757661
O O1 0.054930 0.500000 0.406915
O O2 0.113007 0.754908 0.419525
O O3 0.055948 0.738853 0.322189
O O4 0.000000 0.757843 0.423469
O O5 0.776453 0.266087 0.415948
O O6 0.673657 0.204657 0.420318
O O7 0.709771 0.260979 0.311006
O O8 0.737745 0.000000 0.374002
O O9 0.326855 0.258441 0.815378
O O10 0.337754 0.000000 0.886485
O O11 0.084416 0.836152 0.898690
O O12 0.000000 0.000000 0.901998
O O13 0.061024 0.000000 0.000000
O O14 0.899414 0.500000 0.896509
O O15 0.902133 0.669907 0.000000
O O16 0.110661 0.730321 0.777559
O O17 0.000000 0.756435 0.778880
O O18 0.060298 0.000000 0.752065
O O19 0.176730 0.500000 0.755900
#
# Coordination Sequence:
#
# PCOD9520675 Si02
#       7
#    16  16  16   8  16  16  16
#     4   8  14  26  42  59  83 116 152 188 227 269
#     4  10  20  32  47  66  91 124 157 192 240 290
#     4   9  17  27  43  67  91 121 158 194 232 278
#     4   9  18  34  58  84 104 128 163 205 259 311
#     4   9  19  36  56  78 103 130 163 205 254 306
#     4   9  16  25  38  57  79 107 147 190 231 269
#     4   9  18  31  43  59  86 121 159 191 231 284
#
# _framework density 23.564243999999999
#
# number of rings (size 3 to 8) (size 9 to 14) (size 15 to 20)
#    0.000    3.000    0.000    1.846    1.077    4.308 
#    0.000    2.308    0.000    2.769    0.000    0.000 
#    0.000    0.615    0.000    7.692    0.000    0.154 
#
# Total GULP energy -289910.566813 kJ/mol
# GULP energy per Si atom -5575.203208 kJ/mol
# Density = 2.351061 g / cm^3
# Si number density = 23.564244 Si / 1000 Ang^3
#
#
#
# Elastic Constant Matrix: (Units=GPa)
#
#
# Indices 1 2 3 4 5 6 
#
# 1 198.1042 56.4876 -10.3418 0.0000 0.0000 0.0000
# 2 56.4876 52.5252 10.5775 0.0000 0.0000 0.0000
# 3 -10.3418 10.5775 50.6467 0.0000 0.0000 0.0000
# 4 0.0000 0.0000 0.0000 21.3437 0.0000 0.0000
# 5 0.0000 0.0000 0.0000 0.0000 7.4111 0.0000
# 6 0.0000 0.0000 0.0000 0.0000 0.0000 120.4332
#
#
#
# Elastic Compliance Matrix: (Units=1/GPa)
#
#
# Indices 1 2 3 4 5 6 
#
# 1 0.007835 -0.009132 0.003507 0.000000 0.000000 0.000000
# 2 -0.009132 0.030519 -0.008239 0.000000 0.000000 0.000000
# 3 0.003507 -0.008239 0.022181 0.000000 0.000000 0.000000
# 4 0.000000 0.000000 0.000000 0.046852 0.000000 0.000000
# 5 0.000000 0.000000 0.000000 0.000000 0.134932 0.000000
# 6 0.000000 0.000000 0.000000 0.000000 0.000000 0.008303
#
#
# Mechanical properties :
#
#
# Convention : Reuss Voigt Hill
#
# Bulk Modulus (GPa) = 30.48073 46.08032 38.28052
# Shear Modulus (GPa) = 17.28391 46.14111 31.71251
#
# Velocity S-wave (km/s) = 2.71122 4.42984 3.67248
# Velocity P-wave (km/s) = 4.77119 6.76478 5.85348
#
# Compressibility (1/GPa) = 0.03280762
#
# Stress axis : x y z
#
# Youngs Moduli (GPa) = 127.63393 32.76677 45.08289
#
# Poissons Ratio (x) = 0.29923 -0.15811
# Poissons Ratio (y) = 1.16558 0.37142
# Poissons Ratio (z) = -0.44763 0.26995
#
# Static dielectric constant tensor:
#      x y z
#    x 1.952400 0.000000 0.000000 
#    y 0.000000 1.800510 0.000000 
#    z 0.000000 0.000000 1.969720 
# 
# From -- ./inp_files/66827.got.cif
#   From: 2010.05.17/outbox.cif.g08.bks.cpg/sg71_34_cif.got.tgz:66827.got - 2010.06.03 16:22:01.
