data_PCOD9520025
_publ_section_title
;
Structure prediction by ZEFSAII (Michael W. Deem and Ramdas Pophale) SiO2 
 PCOD9520025
Probable space group: I M M M
;
_chemical_formula_sum "Si O2"
_cell_formula_units_Z 72
_cell_length_a 29.115487
_cell_length_b 8.364180
_cell_length_c 14.368411
_cell_angle_alpha 90.000000
_cell_angle_beta 90.000000
_cell_angle_gamma 90.000000
_cell_volume 3499.098527
_symmetry_space_group_name_H-M "I M M M"
_symmetry_group_IT_number 71
_symmetry_cell_setting 'orthorhombic'
loop_
_space_group_symop_operation_xyz
x,y,z
-x,-y,z
x,-y,-z
-x,y,-z
-x,-y,-z
x,y,-z
-x,y,z
x,-y,z
1/2+x,1/2+y,1/2+z
1/2-x,1/2-y,1/2+z
1/2+x,1/2-y,1/2-z
1/2-x,1/2+y,1/2-z
1/2-x,1/2-y,1/2-z
1/2+x,1/2+y,1/2-z
1/2-x,1/2+y,1/2+z
1/2+x,1/2-y,1/2+z
loop_
_atom_site_type_symbol
_atom_site_label
_atom_site_fract_x
_atom_site_fract_y
_atom_site_fract_z
Si Si1 0.000000 0.695125 0.892203
Si Si2 0.323349 0.674711 0.201145
Si Si3 0.863194 0.832739 0.500000
Si Si4 0.402634 0.185246 0.314124
Si Si5 0.291142 0.000000 0.162700
Si Si6 0.658619 0.823017 0.500000
Si Si7 0.367694 0.000000 0.000000
Si Si8 0.782039 0.000000 0.000000
O O1 0.046390 0.741891 0.839305
O O2 0.000000 0.500000 0.895456
O O3 0.000000 0.749407 0.000000
O O4 0.305836 0.500000 0.231235
O O5 0.330691 0.669100 0.090272
O O6 0.373475 0.706027 0.244896
O O7 0.295323 0.836724 0.221313
O O8 0.892215 0.670203 0.500000
O O9 0.889386 0.000000 0.500000
O O10 0.373790 0.183225 0.409795
O O11 0.404408 0.000000 0.280363
O O12 0.335396 0.000000 0.092032
O O13 0.249393 0.000000 0.091482
O O14 0.689597 0.665151 0.500000
O O15 0.681952 0.000000 0.500000
#
# Coordination Sequence:
#
# PCOD9520025 Si02
#       8
#     8  16   8  16   8   8   4   4
#     4   9  16  32  61  94 121 163 208 246 297 374
#     4  10  19  33  59  87 118 155 201 250 303 365
#     4   8  15  27  45  77 106 140 188 232 281 343
#     4  10  19  36  61  90 125 161 203 249 307 373
#     4   9  18  36  54  82 108 149 199 249 297 353
#     4  10  23  40  61  84 121 165 198 252 320 363
#     4   7  12  24  48  68  96 125 174 235 272 320
#     4  11  24  40  66  87 118 157 216 268 306 358
#
# _framework density 20.576729
#
# number of rings (size 3 to 8) (size 9 to 14) (size 15 to 20)
#    0.000    2.556    2.222    0.667    1.556    0.889 
#    0.000    2.778    0.000    2.000    0.000    4.667 
#    0.000    0.000    0.000    0.000    0.000    0.000 
#
# Total GULP energy -200724.990910 kJ/mol
# GULP energy per Si atom -5575.694192 kJ/mol
# Density = 2.052990 g / cm^3
# Si number density = 20.576729 Si / 1000 Ang^3
#
#
#
# Elastic Constant Matrix: (Units=GPa)
#
#
# Indices 1 2 3 4 5 6 
#
# 1 94.7237 59.4695 20.8461 0.0000 0.0000 0.0000
# 2 59.4695 205.2558 8.3649 0.0000 0.0000 0.0000
# 3 20.8461 8.3649 48.0356 0.0000 0.0000 0.0000
# 4 0.0000 0.0000 0.0000 -32.3381 0.0000 0.0000
# 5 0.0000 0.0000 0.0000 0.0000 12.9224 0.0000
# 6 0.0000 0.0000 0.0000 0.0000 0.0000 17.5975
#
#
#
# Elastic Compliance Matrix: (Units=1/GPa)
#
#
# Indices 1 2 3 4 5 6 
#
# 1 0.014209 -0.003893 -0.005488 0.000000 0.000000 0.000000
# 2 -0.003893 0.005973 0.000649 0.000000 0.000000 0.000000
# 3 -0.005488 0.000649 0.023087 0.000000 0.000000 0.000000
# 4 0.000000 0.000000 0.000000 -0.030923 0.000000 0.000000
# 5 0.000000 0.000000 0.000000 0.000000 0.077385 0.000000
# 6 0.000000 0.000000 0.000000 0.000000 0.000000 0.056826
#
#
# Mechanical properties :
#
#
# Convention : Reuss Voigt Hill
#
# Bulk Modulus (GPa) = 38.75263 58.37513 48.56388
# Shear Modulus (GPa) = 28.96480 16.92532 22.94506
#
# Velocity S-wave (km/s) = 3.75593 2.87112 3.34293
# Velocity P-wave (km/s) = 6.13869 6.27871 6.20909
#
# Compressibility (1/GPa) = 0.02580470
#
# Stress axis : x y z
#
# Youngs Moduli (GPa) = 70.37748 167.40623 43.31507
#
# Poissons Ratio (x) = 0.65174 0.23773
# Poissons Ratio (y) = 0.27399 -0.02813
# Poissons Ratio (z) = 0.38626 -0.10870
#
# Static dielectric constant tensor:
#      x y z
#    x 1.690730 0.000000 0.000000 
#    y 0.000000 1.851460 0.000000 
#    z 0.000000 0.000000 1.749100 
# 
# From -- ./inp_files/40040.got.cif
#   From: 2010.05.17/outbox.cif.g08.bks.cpg/sg71_21_cif.got.tgz:40040.got - 2010.06.03 16:22:01.
