data_PCOD9520611
_publ_section_title
;
Structure prediction by ZEFSAII (Michael W. Deem and Ramdas Pophale) SiO2 
 PCOD9520611
Probable space group: I M M M
;
_chemical_formula_sum "Si O2"
_cell_formula_units_Z 88
_cell_length_a 8.684128
_cell_length_b 28.245990
_cell_length_c 19.749232
_cell_angle_alpha 90.000000
_cell_angle_beta 90.000000
_cell_angle_gamma 90.000000
_cell_volume 4844.324521
_symmetry_space_group_name_H-M "I M M M"
_symmetry_group_IT_number 71
_symmetry_cell_setting 'orthorhombic'
loop_
_space_group_symop_operation_xyz
x,y,z
-x,-y,z
x,-y,-z
-x,y,-z
-x,-y,-z
x,y,-z
-x,y,z
x,-y,z
1/2+x,1/2+y,1/2+z
1/2-x,1/2-y,1/2+z
1/2+x,1/2-y,1/2-z
1/2-x,1/2+y,1/2-z
1/2-x,1/2-y,1/2-z
1/2+x,1/2+y,1/2-z
1/2-x,1/2+y,1/2+z
1/2+x,1/2-y,1/2+z
loop_
_atom_site_type_symbol
_atom_site_label
_atom_site_fract_x
_atom_site_fract_y
_atom_site_fract_z
Si Si1 0.675058 0.943370 0.500000
Si Si2 0.822997 0.917226 0.358498
Si Si3 0.184726 0.551791 0.279736
Si Si4 0.821118 0.808944 0.687560
Si Si5 0.314906 0.845838 0.823969
Si Si6 0.188155 0.267130 0.577067
O O1 0.500000 0.925393 0.500000
O O2 0.759872 0.927472 0.432352
O O3 0.671604 0.000000 0.500000
O O4 0.726162 0.941924 0.299255
O O5 0.816297 0.861152 0.344911
O O6 0.000000 0.932686 0.352627
O O7 0.241926 0.500000 0.303008
O O8 0.243862 0.600200 0.314997
O O9 0.000000 0.551707 0.286863
O O10 0.734605 0.814876 0.758698
O O11 0.760959 0.772151 0.631752
O O12 0.000000 0.797041 0.701881
O O13 0.500000 0.847963 0.823671
O O14 0.267140 0.817781 0.891152
O O15 0.241067 0.259908 0.500000
O O16 0.000000 0.264867 0.575726
#
# Coordination Sequence:
#
# PCOD9520611 Si02
#       6
#     8  16  16  16  16  16
#     4  11  23  35  45  59  87 127 161 191 234 279
#     4  10  20  31  46  68  91 116 154 198 233 273
#     4   9  17  30  47  66  91 121 152 189 235 280
#     4   9  18  31  49  70  93 123 153 189 235 279
#     4   9  17  30  49  71  93 121 158 195 227 272
#     4   9  17  29  48  71  95 124 156 189 230 283
#
# _framework density 18.165589000000001
#
# number of rings (size 3 to 8) (size 9 to 14) (size 15 to 20)
#    0.000    2.636    0.000    1.909    1.273    4.000 
#    0.000    0.000    0.000    2.182    0.000    3.818 
#    0.000    0.000    0.000    9.091    0.000    9.455 
#
# Total GULP energy -245239.583251 kJ/mol
# GULP energy per Si atom -5573.626892 kJ/mol
# Density = 1.812424 g / cm^3
# Si number density = 18.165589 Si / 1000 Ang^3
#
#
#
# Elastic Constant Matrix: (Units=GPa)
#
#
# Indices 1 2 3 4 5 6 
#
# 1 3.4444 8.2728 3.8290 0.0000 0.0000 0.0000
# 2 8.2728 97.1136 38.4827 0.0000 0.0000 0.0000
# 3 3.8290 38.4827 58.0279 -0.0001 0.0000 0.0000
# 4 0.0000 0.0000 -0.0001 14.1359 0.0000 0.0000
# 5 0.0000 0.0000 0.0000 0.0000 -10.5327 0.0000
# 6 0.0000 0.0000 0.0000 0.0000 0.0000 13.6992
#
#
#
# Elastic Compliance Matrix: (Units=1/GPa)
#
#
# Indices 1 2 3 4 5 6 
#
# 1 0.365950 -0.029307 -0.004711 0.000000 0.000000 0.000000
# 2 -0.029307 0.016315 -0.008886 0.000000 0.000000 0.000000
# 3 -0.004711 -0.008886 0.023437 0.000000 0.000000 0.000000
# 4 0.000000 0.000000 0.000000 0.070742 0.000000 0.000000
# 5 0.000000 0.000000 0.000000 0.000000 -0.094942 0.000000
# 6 0.000000 0.000000 0.000000 0.000000 0.000000 0.072997
#
#
# Mechanical properties :
#
#
# Convention : Reuss Voigt Hill
#
# Bulk Modulus (GPa) = 3.12604 28.86164 15.99384
# Shear Modulus (GPa) = 7.72871 10.66057 9.19464
#
# Velocity S-wave (km/s) = 2.06490 2.42514 2.25223
# Velocity P-wave (km/s) = 2.72207 4.87486 3.94804
#
# Compressibility (1/GPa) = 0.31989346
#
# Stress axis : x y z
#
# Youngs Moduli (GPa) = 2.73261 61.29348 42.66784
#
# Poissons Ratio (x) = 1.79634 0.20103
# Poissons Ratio (y) = 0.08008 0.37914
# Poissons Ratio (z) = 0.01287 0.54464
#
# Static dielectric constant tensor:
#      x y z
#    x 1.631860 0.000000 0.000000 
#    y 0.000000 1.673290 0.000000 
#    z 0.000000 0.000000 1.613480 
# 
# From -- ./inp_files/8758.got.cif
#   From: 2010.05.17/outbox.cif.g08.bks.cpg/sg71_5_cif.got.tgz:8758.got - 2010.06.03 16:22:01.
