data_PCOD9520627
_publ_section_title
;
Structure prediction by ZEFSAII (Michael W. Deem and Ramdas Pophale) SiO2 
 PCOD9520627
Probable space group: I M M M
;
_chemical_formula_sum "Si O2"
_cell_formula_units_Z 104
_cell_length_a 13.333855
_cell_length_b 22.449777
_cell_length_c 18.807874
_cell_angle_alpha 90.000000
_cell_angle_beta 90.000000
_cell_angle_gamma 90.000000
_cell_volume 5629.987960
_symmetry_space_group_name_H-M "I M M M"
_symmetry_group_IT_number 71
_symmetry_cell_setting 'orthorhombic'
loop_
_space_group_symop_operation_xyz
x,y,z
-x,-y,z
x,-y,-z
-x,y,-z
-x,-y,-z
x,y,-z
-x,y,z
x,-y,z
1/2+x,1/2+y,1/2+z
1/2-x,1/2-y,1/2+z
1/2+x,1/2-y,1/2-z
1/2-x,1/2+y,1/2-z
1/2-x,1/2-y,1/2-z
1/2+x,1/2+y,1/2-z
1/2-x,1/2+y,1/2+z
1/2+x,1/2-y,1/2+z
loop_
_atom_site_type_symbol
_atom_site_label
_atom_site_fract_x
_atom_site_fract_y
_atom_site_fract_z
Si Si1 0.113897 0.195775 0.873076
Si Si2 0.620416 0.687091 0.214334
Si Si3 0.819846 0.736796 0.421557
Si Si4 0.828534 0.065708 0.913337
Si Si5 0.113155 0.927679 0.500000
Si Si6 0.609197 0.898454 0.915773
Si Si7 0.377253 0.432864 0.844219
O O1 0.145302 0.211189 0.792087
O O2 0.201242 0.222722 0.920852
O O3 0.117641 0.124024 0.883048
O O4 0.000000 0.215467 0.886882
O O5 0.500000 0.686799 0.211844
O O6 0.655425 0.721889 0.144866
O O7 0.654835 0.618518 0.208792
O O8 0.849420 0.759883 0.500000
O O9 0.873324 0.672734 0.410354
O O10 0.711666 0.071362 0.890315
O O11 0.867181 0.000000 0.893548
O O12 0.832631 0.070091 0.000000
O O13 0.158653 0.914009 0.576544
O O14 0.000000 0.902905 0.500000
O O15 0.105597 0.000000 0.500000
O O16 0.500000 0.914556 0.885265
O O17 0.605613 0.912115 0.000000
O O18 0.500000 0.434148 0.847239
O O19 0.344885 0.500000 0.827877
#
# Coordination Sequence:
#
# PCOD9520627 Si02
#       7
#    16  16  16  16   8  16  16
#     4  10  21  36  50  66  94 131 164 200 250 296
#     4  10  20  31  48  73  99 128 158 192 239 298
#     4  10  20  33  50  71  95 124 163 208 244 285
#     4   9  18  31  48  72  97 124 165 209 242 281
#     4   7  10  18  32  50  78 116 147 171 202 245
#     4   8  14  26  44  67  97 127 151 186 241 291
#     4   8  14  24  38  60  92 126 154 179 216 271
#
# _framework density 18.472508000000001
#
# number of rings (size 3 to 8) (size 9 to 14) (size 15 to 20)
#    0.000    3.000    0.000    3.231    1.077    3.385 
#    0.000    3.846    0.000    0.000    0.000    0.000 
#    0.000    0.615    0.000    1.385    0.000    0.000 
#
# Total GULP energy -289543.026685 kJ/mol
# GULP energy per Si atom -5568.135129 kJ/mol
# Density = 1.843046 g / cm^3
# Si number density = 18.472508 Si / 1000 Ang^3
#
#
#
# Elastic Constant Matrix: (Units=GPa)
#
#
# Indices 1 2 3 4 5 6 
#
# 1 39.7863 -11.9050 8.1003 0.0000 0.0000 0.0000
# 2 -11.9050 30.2831 18.2322 0.0000 0.0000 0.0000
# 3 8.1003 18.2322 61.4949 0.0000 0.0000 0.0000
# 4 0.0000 0.0000 0.0000 16.9280 0.0000 0.0000
# 5 0.0000 0.0000 0.0000 0.0000 7.7712 0.0000
# 6 0.0000 0.0000 0.0000 0.0000 0.0000 7.1509
#
#
#
# Elastic Compliance Matrix: (Units=1/GPa)
#
#
# Indices 1 2 3 4 5 6 
#
# 1 0.032796 0.018860 -0.009912 0.000000 0.000000 0.000000
# 2 0.018860 0.051043 -0.017618 0.000000 0.000000 0.000000
# 3 -0.009912 -0.017618 0.022790 0.000000 0.000000 0.000000
# 4 0.000000 0.000000 0.000000 0.059074 0.000000 0.000000
# 5 0.000000 0.000000 0.000000 0.000000 0.128680 0.000000
# 6 0.000000 0.000000 0.000000 0.000000 0.000000 0.139842
#
#
# Mechanical properties :
#
#
# Convention : Reuss Voigt Hill
#
# Bulk Modulus (GPa) = 11.19942 17.82438 14.51190
# Shear Modulus (GPa) = 10.38796 14.17914 12.28355
#
# Velocity S-wave (km/s) = 2.37396 2.77353 2.58149
# Velocity P-wave (km/s) = 3.68648 4.46393 4.09371
#
# Compressibility (1/GPa) = 0.08929034
#
# Stress axis : x y z
#
# Youngs Moduli (GPa) = 30.49194 19.59141 43.87808
#
# Poissons Ratio (x) = -0.36949 0.43490
# Poissons Ratio (y) = -0.57508 0.77303
# Poissons Ratio (z) = 0.30222 0.34515
#
# Static dielectric constant tensor:
#      x y z
#    x 1.635500 0.000000 0.000000 
#    y 0.000000 1.668680 0.000000 
#    z 0.000000 0.000000 1.674090 
# 
# From -- ./inp_files/45131.got.cif
#   From: 2010.05.17/outbox.cif.g08.bks.cpg/sg71_23_cif.got.tgz:45131.got - 2010.06.03 16:22:01.
