data_PCOD9520420
_publ_section_title
;
Structure prediction by ZEFSAII (Michael W. Deem and Ramdas Pophale) SiO2 
 PCOD9520420
Probable space group: I M M M
;
_chemical_formula_sum "Si O2"
_cell_formula_units_Z 100
_cell_length_a 9.935283
_cell_length_b 27.907251
_cell_length_c 20.448779
_cell_angle_alpha 90.000000
_cell_angle_beta 90.000000
_cell_angle_gamma 90.000000
_cell_volume 5669.760083
_symmetry_space_group_name_H-M "I M M M"
_symmetry_group_IT_number 71
_symmetry_cell_setting 'orthorhombic'
loop_
_space_group_symop_operation_xyz
x,y,z
-x,-y,z
x,-y,-z
-x,y,-z
-x,-y,-z
x,y,-z
-x,y,z
x,-y,z
1/2+x,1/2+y,1/2+z
1/2-x,1/2-y,1/2+z
1/2+x,1/2-y,1/2-z
1/2-x,1/2+y,1/2-z
1/2-x,1/2-y,1/2-z
1/2+x,1/2+y,1/2-z
1/2-x,1/2+y,1/2+z
1/2+x,1/2-y,1/2+z
loop_
_atom_site_type_symbol
_atom_site_label
_atom_site_fract_x
_atom_site_fract_y
_atom_site_fract_z
Si Si1 0.160954 0.718354 0.074324
Si Si2 0.344493 0.057800 0.142369
Si Si3 0.655125 0.611544 0.738757
Si Si4 0.729734 0.386230 0.890766
Si Si5 0.663835 0.944530 0.000000
Si Si6 0.841305 0.778927 0.800382
Si Si7 0.000000 0.555842 0.921169
Si Si8 0.500000 0.594967 0.000000
O O1 0.234779 0.669081 0.092821
O O2 0.190209 0.759349 0.127212
O O3 0.000000 0.709084 0.076504
O O4 0.196243 0.731669 0.000000
O O5 0.500000 0.072438 0.151660
O O6 0.253365 0.076598 0.200240
O O7 0.296608 0.076073 0.070516
O O8 0.342416 0.000000 0.140033
O O9 0.500000 0.599111 0.725999
O O10 0.680121 0.611116 0.816268
O O11 0.680340 0.664981 0.711188
O O12 0.865956 0.417139 0.897702
O O13 0.618343 0.403482 0.942474
O O14 0.500000 0.945047 0.000000
O O15 0.708427 0.000000 0.000000
O O16 0.750000 0.750000 0.750000
O O17 0.000000 0.769330 0.788146
O O18 0.000000 0.500000 0.901165
O O19 0.000000 0.557845 0.000000
#
# Coordination Sequence:
#
# PCOD9520420 Si02
#       8
#    16  16  16  16   8  16   8   4
#     4  10  19  35  62  86 107 144 200 245 280 339
#     4   9  19  37  63  89 113 150 200 245 289 348
#     4  11  24  38  55  85 127 159 187 240 305 364
#     4  12  22  39  62  86 114 154 201 247 299 352
#     4   7  12  30  59  86 109 139 186 240 281 324
#     4  10  21  37  56  82 114 151 186 231 289 346
#     4  11  24  42  62  87 116 146 198 261 299 347
#     4  12  24  38  63  88 112 154 200 242 295 374
#
# _framework density 17.637429999999998
#
# number of rings (size 3 to 8) (size 9 to 14) (size 15 to 20)
#    0.000    1.760    4.800    0.960    1.120    1.600 
#    1.440    1.200    0.000    1.440    0.000    0.000 
#    0.000    0.000    0.000    0.000    0.000    0.000 
#
# Total GULP energy -278354.828238 kJ/mol
# GULP energy per Si atom -5567.096565 kJ/mol
# Density = 1.759729 g / cm^3
# Si number density = 17.637430 Si / 1000 Ang^3
#
#
#
# Elastic Constant Matrix: (Units=GPa)
#
#
# Indices 1 2 3 4 5 6 
#
# 1 87.5590 39.8607 50.4278 0.0000 0.0000 0.0000
# 2 39.8607 44.5520 34.5723 0.0000 0.0000 0.0000
# 3 50.4278 34.5723 152.1852 0.0001 0.0000 0.0000
# 4 0.0000 0.0000 0.0001 28.8153 0.0000 0.0000
# 5 0.0000 0.0000 0.0000 0.0000 34.3694 0.0000
# 6 0.0000 0.0000 0.0000 0.0000 0.0000 17.9949
#
#
#
# Elastic Compliance Matrix: (Units=1/GPa)
#
#
# Indices 1 2 3 4 5 6 
#
# 1 0.020465 -0.015840 -0.003183 0.000000 0.000000 0.000000
# 2 -0.015840 0.039510 -0.003727 0.000000 0.000000 0.000000
# 3 -0.003183 -0.003727 0.008472 0.000000 0.000000 0.000000
# 4 0.000000 0.000000 0.000000 0.034704 0.000000 0.000000
# 5 0.000000 0.000000 0.000000 0.000000 0.029096 0.000000
# 6 0.000000 0.000000 0.000000 0.000000 0.000000 0.055571
#
#
# Mechanical properties :
#
#
# Convention : Reuss Voigt Hill
#
# Bulk Modulus (GPa) = 43.57759 59.33532 51.45645
# Shear Modulus (GPa) = 20.74969 26.86492 23.80731
#
# Velocity S-wave (km/s) = 3.43367 3.90702 3.67797
# Velocity P-wave (km/s) = 6.36249 7.35308 6.87565
#
# Compressibility (1/GPa) = 0.02294758
#
# Stress axis : x y z
#
# Youngs Moduli (GPa) = 48.86353 25.31000 118.03295
#
# Poissons Ratio (x) = 0.40092 0.37568
# Poissons Ratio (y) = 0.77402 0.43988
# Poissons Ratio (z) = 0.15552 0.09432
#
# Static dielectric constant tensor:
#      x y z
#    x 1.587940 0.000000 0.000000 
#    y 0.000000 1.588670 0.000000 
#    z 0.000000 0.000000 1.610410 
# 
# From -- ./inp_files/50966.got.cif
#   From: 2010.05.17/outbox.cif.g08.bks.cpg/sg71_26_cif.got.tgz:50966.got - 2010.06.03 16:22:01.
