data_PCOD9520204
_publ_section_title
;
Structure prediction by ZEFSAII (Michael W. Deem and Ramdas Pophale) SiO2 
 PCOD9520204
Probable space group: I M M M
;
_chemical_formula_sum "Si O2"
_cell_formula_units_Z 80
_cell_length_a 24.460390
_cell_length_b 14.484688
_cell_length_c 10.633248
_cell_angle_alpha 90.000000
_cell_angle_beta 90.000000
_cell_angle_gamma 90.000000
_cell_volume 3767.371649
_symmetry_space_group_name_H-M "I M M M"
_symmetry_group_IT_number 71
_symmetry_cell_setting 'orthorhombic'
loop_
_space_group_symop_operation_xyz
x,y,z
-x,-y,z
x,-y,-z
-x,y,-z
-x,-y,-z
x,y,-z
-x,y,z
x,-y,z
1/2+x,1/2+y,1/2+z
1/2-x,1/2-y,1/2+z
1/2+x,1/2-y,1/2-z
1/2-x,1/2+y,1/2-z
1/2-x,1/2-y,1/2-z
1/2+x,1/2+y,1/2-z
1/2-x,1/2+y,1/2+z
1/2+x,1/2-y,1/2+z
loop_
_atom_site_type_symbol
_atom_site_label
_atom_site_fract_x
_atom_site_fract_y
_atom_site_fract_z
Si Si1 0.437365 0.113143 0.857521
Si Si2 0.377283 0.609322 0.754966
Si Si3 0.062485 0.886839 0.500000
Si Si4 0.238975 0.169970 0.649277
Si Si5 0.361296 0.891953 0.363476
Si Si6 0.064425 0.113401 0.000000
O O1 0.500000 0.138792 0.827143
O O2 0.394261 0.147110 0.754486
O O3 0.435843 0.000000 0.858983
O O4 0.424592 0.142457 0.000000
O O5 0.387575 0.500000 0.750746
O O6 0.314074 0.621557 0.791889
O O7 0.401638 0.644089 0.623353
O O8 0.409943 0.647854 0.873626
O O9 0.000000 0.861588 0.500000
O O10 0.066469 0.000000 0.500000
O O11 0.229278 0.193516 0.500000
O O12 0.250000 0.250000 0.750000
O O13 0.296064 0.115005 0.650704
O O14 0.375728 0.851050 0.500000
O O15 0.375411 0.000000 0.368057
O O16 0.000000 0.141303 0.000000
O O17 0.063718 0.000000 0.000000
#
# Coordination Sequence:
#
# PCOD9520204 Si02
#       6
#    16  16   8  16  16   8
#     4   8  14  26  46  75 107 133 160 203 260 313
#     4  10  19  34  57  84 115 147 183 228 276 330
#     4   9  16  28  53  86 112 138 177 226 276 325
#     4  11  24  39  55  77 107 148 188 230 275 326
#     4   9  18  33  54  79 105 134 172 219 266 317
#     4   9  18  32  53  86 122 148 175 222 282 337
#
# _framework density 21.234963
#
# number of rings (size 3 to 8) (size 9 to 14) (size 15 to 20)
#    0.000    2.600    1.000    1.800    1.400    4.400 
#    0.000    2.000    0.000    2.400    0.000    0.000 
#    0.000    0.000    0.000    0.000    0.000    0.000 
#
# Total GULP energy -223101.566221 kJ/mol
# GULP energy per Si atom -5577.539156 kJ/mol
# Density = 2.118663 g / cm^3
# Si number density = 21.234963 Si / 1000 Ang^3
#
#
#
# Elastic Constant Matrix: (Units=GPa)
#
#
# Indices 1 2 3 4 5 6 
#
# 1 144.2564 -3.5098 130.9641 0.0000 0.0000 0.0000
# 2 -3.5098 38.2503 28.1301 0.0000 0.0000 0.0000
# 3 130.9641 28.1301 235.1546 0.0000 0.0000 0.0000
# 4 0.0000 0.0000 0.0000 7.7486 0.0000 0.0000
# 5 0.0000 0.0000 0.0000 0.0000 45.1592 0.0000
# 6 0.0000 0.0000 0.0000 0.0000 0.0000 -42.5778
#
#
#
# Elastic Compliance Matrix: (Units=1/GPa)
#
#
# Indices 1 2 3 4 5 6 
#
# 1 0.016453 0.009044 -0.010245 0.000000 0.000000 0.000000
# 2 0.009044 0.033637 -0.009061 0.000000 0.000000 0.000000
# 3 -0.010245 -0.009061 0.011042 0.000000 0.000000 0.000000
# 4 0.000000 0.000000 0.000000 0.129055 0.000000 0.000000
# 5 0.000000 0.000000 0.000000 0.000000 0.022144 0.000000
# 6 0.000000 0.000000 0.000000 0.000000 0.000000 -0.023486
#
#
# Mechanical properties :
#
#
# Convention : Reuss Voigt Hill
#
# Bulk Modulus (GPa) = 24.62497 80.98113 52.80305
# Shear Modulus (GPa) = 22.43104 19.53779 20.98442
#
# Velocity S-wave (km/s) = 3.25364 3.03657 3.14698
# Velocity P-wave (km/s) = 5.07312 7.10724 6.17452
#
# Compressibility (1/GPa) = 0.04060919
#
# Stress axis : x y z
#
# Youngs Moduli (GPa) = 60.77772 29.72914 90.56094
#
# Poissons Ratio (x) = -0.26888 0.92782
# Poissons Ratio (y) = -0.54969 0.82056
# Poissons Ratio (z) = 0.62268 0.26937
#
# Static dielectric constant tensor:
#      x y z
#    x 1.889030 0.000000 0.000000 
#    y 0.000000 1.812510 0.000000 
#    z 0.000000 0.000000 1.774680 
# 
# From -- ./inp_files/12415.got.cif
#   From: 2010.05.17/outbox.cif.g08.bks.cpg/sg71_7_cif.got.tgz:12415.got - 2010.06.03 16:22:01.
