data_PCOD9520685
_publ_section_title
;
Structure prediction by ZEFSAII (Michael W. Deem and Ramdas Pophale) SiO2 
 PCOD9520685
Probable space group: I M M M
;
_chemical_formula_sum "Si O2"
_cell_formula_units_Z 128
_cell_length_a 26.587598
_cell_length_b 29.912137
_cell_length_c 7.345467
_cell_angle_alpha 90.000000
_cell_angle_beta 90.000000
_cell_angle_gamma 90.000000
_cell_volume 5841.790215
_symmetry_space_group_name_H-M "I M M M"
_symmetry_group_IT_number 71
_symmetry_cell_setting 'orthorhombic'
loop_
_space_group_symop_operation_xyz
x,y,z
-x,-y,z
x,-y,-z
-x,y,-z
-x,-y,-z
x,y,-z
-x,y,z
x,-y,z
1/2+x,1/2+y,1/2+z
1/2-x,1/2-y,1/2+z
1/2+x,1/2-y,1/2-z
1/2-x,1/2+y,1/2-z
1/2-x,1/2-y,1/2-z
1/2+x,1/2+y,1/2-z
1/2-x,1/2+y,1/2+z
1/2+x,1/2-y,1/2+z
loop_
_atom_site_type_symbol
_atom_site_label
_atom_site_fract_x
_atom_site_fract_y
_atom_site_fract_z
Si Si1 0.349280 0.448742 0.277233
Si Si2 0.724806 0.797832 0.782963
Si Si3 0.151636 0.551698 0.721906
Si Si4 0.110116 0.297010 0.277475
Si Si5 0.556903 0.393351 0.713694
Si Si6 0.248364 0.105839 0.222178
Si Si7 0.442502 0.706871 0.219044
Si Si8 0.442633 0.888806 0.221930
O O1 0.349617 0.447636 0.500000
O O2 0.345413 0.500000 0.222431
O O3 0.400994 0.426321 0.212568
O O4 0.300637 0.421001 0.218465
O O5 0.750000 0.750000 0.750000
O O6 0.667539 0.800396 0.716168
O O7 0.752685 0.842515 0.717702
O O8 0.722062 0.802054 0.000000
O O9 0.151801 0.551838 0.500000
O O10 0.155302 0.500000 0.779154
O O11 0.199991 0.581066 0.777789
O O12 0.099623 0.575414 0.778702
O O13 0.109893 0.297231 0.500000
O O14 0.088074 0.249616 0.217170
O O15 0.077016 0.339646 0.222746
O O16 0.552547 0.403272 0.500000
O O17 0.500000 0.395653 0.790215
O O18 0.575861 0.342312 0.729559
O O19 0.248409 0.105190 0.000000
O O20 0.500000 0.710329 0.282962
O O21 0.442917 0.708411 0.000000
O O22 0.500000 0.897033 0.281100
O O23 0.443112 0.889279 0.000000
#
# Coordination Sequence:
#
# PCOD9520685 Si02
#       8
#    16  16  16  16  16  16  16  16
#     4   9  17  28  44  65  86 113 150 186 221 268
#     4  10  20  32  47  68  94 122 152 186 226 268
#     4   9  15  23  36  55  83 118 151 185 225 266
#     4   9  16  28  43  61  85 115 152 189 222 261
#     4   9  18  31  46  67  94 118 142 182 234 275
#     4   9  16  28  43  61  86 117 151 185 221 266
#     4   9  17  29  46  66  87 117 155 186 214 260
#     4   9  15  23  36  55  82 118 156 188 220 264
#
# _framework density 21.911090999999999
#
# number of rings (size 3 to 8) (size 9 to 14) (size 15 to 20)
#    0.000    2.875    1.250    0.750    1.750    3.500 
#    0.000    2.500    0.000    0.375    0.000    1.750 
#    0.000    1.500    0.000    0.000    0.000    1.875 
#
# Total GULP energy -357418.534739 kJ/mol
# GULP energy per Si atom -5584.664605 kJ/mol
# Density = 2.186122 g / cm^3
# Si number density = 21.911091 Si / 1000 Ang^3
#
#
#
# Elastic Constant Matrix: (Units=GPa)
#
#
# Indices 1 2 3 4 5 6 
#
# 1 136.0147 118.3453 7.3966 0.0000 0.0000 0.0000
# 2 118.3453 213.6743 1.3889 0.0000 0.0000 0.0000
# 3 7.3966 1.3889 82.1576 0.0000 0.0000 0.0000
# 4 0.0000 0.0000 0.0000 -45.4779 0.0000 0.0000
# 5 0.0000 0.0000 0.0000 0.0000 -16.9121 0.0000
# 6 0.0000 0.0000 0.0000 0.0000 0.0000 -282.6680
#
#
#
# Elastic Compliance Matrix: (Units=1/GPa)
#
#
# Indices 1 2 3 4 5 6 
#
# 1 0.014299 -0.007912 -0.001154 0.000000 0.000000 0.000000
# 2 -0.007912 0.009059 0.000559 0.000000 0.000000 0.000000
# 3 -0.001154 0.000559 0.012266 0.000000 0.000000 0.000000
# 4 0.000000 0.000000 0.000000 -0.021989 0.000000 0.000000
# 5 0.000000 0.000000 0.000000 0.000000 -0.059129 0.000000
# 6 0.000000 0.000000 0.000000 0.000000 0.000000 -0.003538
#
#
# Mechanical properties :
#
#
# Convention : Reuss Voigt Hill
#
# Bulk Modulus (GPa) = 53.73244 76.23426 64.98335
# Shear Modulus (GPa) = -193.68929 -48.69722 -121.19325
#
# Velocity S-wave (km/s) = -9.41221 -4.71945 -7.44523
# Velocity P-wave (km/s) = 9.67179 2.27388 6.64729
#
# Compressibility (1/GPa) = 0.01861073
#
# Stress axis : x y z
#
# Youngs Moduli (GPa) = 69.93354 110.39151 81.52527
#
# Poissons Ratio (x) = 0.87345 0.09405
# Poissons Ratio (y) = 0.55333 -0.04559
# Poissons Ratio (z) = 0.08068 -0.06173
#
# Static dielectric constant tensor:
#      x y z
#    x 1.768210 0.000000 0.000000 
#    y 0.000000 1.759340 0.000000 
#    z 0.000000 0.000000 1.925090 
# 
# From -- ./inp_files/28019.got.cif
#   From: 2010.05.17/outbox.cif.g08.bks.cpg/sg71_15_cif.got.tgz:28019.got - 2010.06.03 16:22:01.
