data_PCOD9520147
_publ_section_title
;
Structure prediction by ZEFSAII (Michael W. Deem and Ramdas Pophale) SiO2 
 PCOD9520147
Probable space group: I M M M
;
_chemical_formula_sum "Si O2"
_cell_formula_units_Z 96
_cell_length_a 7.418395
_cell_length_b 22.810212
_cell_length_c 25.887318
_cell_angle_alpha 90.000000
_cell_angle_beta 90.000000
_cell_angle_gamma 90.000000
_cell_volume 4380.526726
_symmetry_space_group_name_H-M "I M M M"
_symmetry_group_IT_number 71
_symmetry_cell_setting 'orthorhombic'
loop_
_space_group_symop_operation_xyz
x,y,z
-x,-y,z
x,-y,-z
-x,y,-z
-x,-y,-z
x,y,-z
-x,y,z
x,-y,z
1/2+x,1/2+y,1/2+z
1/2-x,1/2-y,1/2+z
1/2+x,1/2-y,1/2-z
1/2-x,1/2+y,1/2-z
1/2-x,1/2-y,1/2-z
1/2+x,1/2+y,1/2-z
1/2-x,1/2+y,1/2+z
1/2+x,1/2-y,1/2+z
loop_
_atom_site_type_symbol
_atom_site_label
_atom_site_fract_x
_atom_site_fract_y
_atom_site_fract_z
Si Si1 0.709729 0.836479 0.638821
Si Si2 0.719880 0.933785 0.440345
Si Si3 0.218770 0.124006 0.246161
Si Si4 0.707633 0.000000 0.079474
Si Si5 0.209914 0.792296 0.844651
Si Si6 0.218398 0.000000 0.800178
Si Si7 0.281596 0.129118 0.943437
O O1 0.500000 0.829336 0.623773
O O2 0.785501 0.883349 0.598166
O O3 0.720275 0.862169 0.696332
O O4 0.790188 0.771169 0.642307
O O5 0.771039 0.923284 0.500000
O O6 0.500000 0.934163 0.438740
O O7 0.776932 0.000000 0.425822
O O8 0.284001 0.172211 0.204536
O O9 0.275908 0.059514 0.227798
O O10 0.000000 0.124654 0.245650
O O11 0.714690 0.000000 0.141317
O O12 0.784523 0.937974 0.061488
O O13 0.500000 0.000000 0.061936
O O14 0.219344 0.833225 0.894945
O O15 0.000000 0.782002 0.831870
O O16 0.000000 0.000000 0.802339
O O17 0.500000 0.128147 0.940800
O O18 0.229958 0.152394 0.000000
#
# Coordination Sequence:
#
# PCOD9520147 Si02
#       7
#    16  16  16   8  16   8  16
#     4  10  21  34  55  84 106 132 178 226 261 311
#     4   8  15  30  51  75 104 133 161 205 265 315
#     4  10  21  36  53  75 108 145 175 212 267 324
#     4  10  19  34  56  80 106 139 181 229 274 312
#     4  10  21  37  54  76 108 145 181 219 268 319
#     4  10  20  35  55  77 107 143 178 218 264 321
#     4  10  21  36  55  80 109 142 182 227 273 319
#
# _framework density 21.915174
#
# number of rings (size 3 to 8) (size 9 to 14) (size 15 to 20)
#    0.000    2.333    1.667    1.250    1.167    4.000 
#    0.000    1.667    0.000    2.000    0.000    1.167 
#    0.000    0.000    0.000    0.000    0.000    0.000 
#
# Total GULP energy -268135.774684 kJ/mol
# GULP energy per Si atom -5586.161973 kJ/mol
# Density = 2.186529 g / cm^3
# Si number density = 21.915174 Si / 1000 Ang^3
#
#
#
# Elastic Constant Matrix: (Units=GPa)
#
#
# Indices 1 2 3 4 5 6 
#
# 1 70.7837 7.8914 -12.1648 0.0000 0.0000 0.0000
# 2 7.8914 185.7652 92.2862 0.0000 0.0000 0.0000
# 3 -12.1648 92.2862 127.0413 0.0000 0.0000 0.0000
# 4 0.0000 0.0000 0.0000 2.7984 0.0000 0.0000
# 5 0.0000 0.0000 0.0000 0.0000 79.5831 0.0000
# 6 0.0000 0.0000 0.0000 0.0000 0.0000 -3.8147
#
#
#
# Elastic Compliance Matrix: (Units=1/GPa)
#
#
# Indices 1 2 3 4 5 6 
#
# 1 0.014867 -0.002095 0.002945 0.000000 0.000000 0.000000
# 2 -0.002095 0.008718 -0.006533 0.000000 0.000000 0.000000
# 3 0.002945 -0.006533 0.012900 0.000000 0.000000 0.000000
# 4 0.000000 0.000000 0.000000 0.357349 0.000000 0.000000
# 5 0.000000 0.000000 0.000000 0.000000 0.012565 0.000000
# 6 0.000000 0.000000 0.000000 0.000000 0.000000 -0.262147
#
#
# Mechanical properties :
#
#
# Convention : Reuss Voigt Hill
#
# Bulk Modulus (GPa) = 39.81077 62.17952 50.99515
# Shear Modulus (GPa) = 30.48951 35.41852 32.95402
#
# Velocity S-wave (km/s) = 3.73399 4.02452 3.88197
# Velocity P-wave (km/s) = 6.06594 7.07319 6.58884
#
# Compressibility (1/GPa) = 0.02511883
#
# Stress axis : x y z
#
# Youngs Moduli (GPa) = 67.26188 114.70652 77.52184
#
# Poissons Ratio (x) = 0.24028 -0.22832
# Poissons Ratio (y) = 0.14090 0.50649
# Poissons Ratio (z) = -0.19811 0.74943
#
# Static dielectric constant tensor:
#      x y z
#    x 1.831500 0.000000 0.000000 
#    y 0.000000 1.797130 0.000000 
#    z 0.000000 0.000000 1.738720 
# 
# From -- ./inp_files/52043.got.cif
#   From: 2010.05.17/outbox.cif.g08.bks.cpg/sg71_27_cif.got.tgz:52043.got - 2010.06.03 16:22:01.
