data_PCOD9520731
_publ_section_title
;
Structure prediction by ZEFSAII (Michael W. Deem and Ramdas Pophale) SiO2 
 PCOD9520731
Probable space group: I M M M
;
_chemical_formula_sum "Si O2"
_cell_formula_units_Z 120
_cell_length_a 24.887197
_cell_length_b 13.256278
_cell_length_c 22.577959
_cell_angle_alpha 90.000000
_cell_angle_beta 90.000000
_cell_angle_gamma 90.000000
_cell_volume 7448.730625
_symmetry_space_group_name_H-M "I M M M"
_symmetry_group_IT_number 71
_symmetry_cell_setting 'orthorhombic'
loop_
_space_group_symop_operation_xyz
x,y,z
-x,-y,z
x,-y,-z
-x,y,-z
-x,-y,-z
x,y,-z
-x,y,z
x,-y,z
1/2+x,1/2+y,1/2+z
1/2-x,1/2-y,1/2+z
1/2+x,1/2-y,1/2-z
1/2-x,1/2+y,1/2-z
1/2-x,1/2-y,1/2-z
1/2+x,1/2+y,1/2-z
1/2-x,1/2+y,1/2+z
1/2+x,1/2-y,1/2+z
loop_
_atom_site_type_symbol
_atom_site_label
_atom_site_fract_x
_atom_site_fract_y
_atom_site_fract_z
Si Si1 0.668694 0.378729 0.931355
Si Si2 0.773742 0.882181 0.768580
Si Si3 0.940796 0.877098 0.629753
Si Si4 0.762468 0.293316 0.149378
Si Si5 0.102169 0.121525 0.244321
Si Si6 0.061348 0.500000 0.071654
Si Si7 0.131369 0.303704 0.069404
Si Si8 0.436777 0.619177 0.387238
O O1 0.672828 0.500000 0.923056
O O2 0.609002 0.347890 0.911198
O O3 0.713066 0.328069 0.890558
O O4 0.677670 0.356432 0.000000
O O5 0.755372 0.819056 0.825111
O O6 0.739365 0.858521 0.709990
O O7 0.835372 0.847515 0.755926
O O8 0.774486 0.000000 0.780397
O O9 0.927888 0.842829 0.696837
O O10 0.000000 0.843197 0.611098
O O11 0.941602 0.000000 0.629918
O O12 0.816571 0.302389 0.111347
O O13 0.074294 0.144620 0.181985
O O14 0.102419 0.000000 0.248322
O O15 0.093614 0.398288 0.087344
O O16 0.000000 0.500000 0.094067
O O17 0.058563 0.500000 0.000000
O O18 0.098764 0.199059 0.077007
O O19 0.146133 0.316543 0.000000
O O20 0.500000 0.630341 0.400449
O O21 0.422782 0.500000 0.396155
#
# Coordination Sequence:
#
# PCOD9520731 Si02
#       8
#    16  16  16  16  16   8  16  16
#     4  10  20  32  48  71 104 140 170 207 247 294
#     4  10  20  34  54  75 101 133 165 209 262 311
#     4   9  16  27  46  71  99 133 167 198 242 301
#     4  11  21  34  53  77 102 131 173 213 260 305
#     4   9  15  29  48  70  99 130 164 201 250 302
#     4   9  20  38  54  68  94 136 181 221 254 290
#     4  11  23  36  53  76 102 139 181 218 257 307
#     4  10  20  34  54  79 107 137 171 216 264 312
#
# _framework density 16.110126999999999
#
# number of rings (size 3 to 8) (size 9 to 14) (size 15 to 20)
#    0.000    2.067    2.667    1.600    1.867    2.933 
#    0.000    2.000    0.000    1.200    0.000    0.000 
#    0.000    0.000    0.000    1.200    0.000    0.133 
#
# Total GULP energy -334453.166172 kJ/mol
# GULP energy per Si atom -5574.219436 kJ/mol
# Density = 1.607346 g / cm^3
# Si number density = 16.110127 Si / 1000 Ang^3
#
#
#
# Elastic Constant Matrix: (Units=GPa)
#
#
# Indices 1 2 3 4 5 6 
#
# 1 84.3685 31.9549 64.9460 0.0000 0.0000 0.0000
# 2 31.9549 58.0063 38.7064 0.0000 0.0000 0.0000
# 3 64.9460 38.7064 84.4870 0.0000 0.0000 0.0000
# 4 0.0000 0.0000 0.0000 19.9001 0.0000 0.0000
# 5 0.0000 0.0000 0.0000 0.0000 15.1098 0.0000
# 6 0.0000 0.0000 0.0000 0.0000 0.0000 12.9055
#
#
#
# Elastic Compliance Matrix: (Units=1/GPa)
#
#
# Indices 1 2 3 4 5 6 
#
# 1 0.029134 -0.001592 -0.021666 0.000000 0.000000 0.000000
# 2 -0.001592 0.024917 -0.010192 0.000000 0.000000 0.000000
# 3 -0.021666 -0.010192 0.033160 0.000000 0.000000 0.000000
# 4 0.000000 0.000000 0.000000 0.050251 0.000000 0.000000
# 5 0.000000 0.000000 0.000000 0.000000 0.066182 0.000000
# 6 0.000000 0.000000 0.000000 0.000000 0.000000 0.077486
#
#
# Mechanical properties :
#
#
# Convention : Reuss Voigt Hill
#
# Bulk Modulus (GPa) = 49.23256 55.34181 52.28719
# Shear Modulus (GPa) = 14.09234 15.66672 14.87953
#
# Velocity S-wave (km/s) = 2.96083 3.12184 3.04240
# Velocity P-wave (km/s) = 6.50500 6.88631 6.69837
#
# Compressibility (1/GPa) = 0.02031176
#
# Stress axis : x y z
#
# Youngs Moduli (GPa) = 34.32367 40.13289 30.15638
#
# Poissons Ratio (x) = 0.06390 0.65338
# Poissons Ratio (y) = 0.05465 0.30734
# Poissons Ratio (z) = 0.74367 0.40902
#
# Static dielectric constant tensor:
#      x y z
#    x 1.552490 0.000000 0.000000 
#    y 0.000000 1.535310 0.000000 
#    z 0.000000 0.000000 1.548290 
# 
# From -- ./inp_files/52423.got.cif
#   From: 2010.05.17/outbox.cif.g08.bks.cpg/sg71_27_cif.got.tgz:52423.got - 2010.06.03 16:22:01.
