data_PCOD9520198
_publ_section_title
;
Structure prediction by ZEFSAII (Michael W. Deem and Ramdas Pophale) SiO2 
 PCOD9520198
Probable space group: I M M M
;
_chemical_formula_sum "Si O2"
_cell_formula_units_Z 88
_cell_length_a 8.658265
_cell_length_b 26.470164
_cell_length_c 20.975239
_cell_angle_alpha 90.000000
_cell_angle_beta 90.000000
_cell_angle_gamma 90.000000
_cell_volume 4807.224718
_symmetry_space_group_name_H-M "I M M M"
_symmetry_group_IT_number 71
_symmetry_cell_setting 'orthorhombic'
loop_
_space_group_symop_operation_xyz
x,y,z
-x,-y,z
x,-y,-z
-x,y,-z
-x,-y,-z
x,y,-z
-x,y,z
x,-y,z
1/2+x,1/2+y,1/2+z
1/2-x,1/2-y,1/2+z
1/2+x,1/2-y,1/2-z
1/2-x,1/2+y,1/2-z
1/2-x,1/2-y,1/2-z
1/2+x,1/2+y,1/2-z
1/2-x,1/2+y,1/2+z
1/2+x,1/2-y,1/2+z
loop_
_atom_site_type_symbol
_atom_site_label
_atom_site_fract_x
_atom_site_fract_y
_atom_site_fract_z
Si Si1 0.814286 0.696685 0.315575
Si Si2 0.811405 0.607165 0.926510
Si Si3 0.686053 0.197112 0.332361
Si Si4 0.186806 0.500000 0.133877
Si Si5 0.316524 0.500000 0.276571
Si Si6 0.824416 0.939650 0.000000
Si Si7 0.815769 0.587588 0.634682
O O1 0.743178 0.746467 0.347356
O O2 0.764510 0.690536 0.241520
O O3 0.772558 0.644934 0.349673
O O4 0.000000 0.702170 0.315722
O O5 0.760217 0.652402 0.879308
O O6 0.763276 0.551873 0.900865
O O7 0.000000 0.607454 0.925781
O O8 0.763337 0.614586 0.000000
O O9 0.500000 0.196196 0.333589
O O10 0.243497 0.500000 0.206460
O O11 0.000000 0.500000 0.133798
O O12 0.500000 0.500000 0.271620
O O13 0.261773 0.548697 0.316458
O O14 0.736606 0.924125 0.936473
O O15 0.000000 0.919850 0.000000
O O16 0.832527 0.000000 0.000000
O O17 0.000000 0.582131 0.641287
#
# Coordination Sequence:
#
# PCOD9520198 Si02
#       7
#    16  16  16   8   8   8  16
#     4   9  19  35  55  80 107 139 183 230 271 320
#     4   9  17  31  54  83 112 141 182 230 274 324
#     4   9  17  32  54  79 110 144 179 224 277 327
#     4  10  19  34  57  83 110 145 184 223 269 327
#     4  12  24  36  54  83 116 143 177 229 278 326
#     4  11  23  39  57  81 116 148 180 225 276 331
#     4  11  22  38  60  82 108 146 188 228 271 327
#
# _framework density 18.305779999999999
#
# number of rings (size 3 to 8) (size 9 to 14) (size 15 to 20)
#    0.000    2.091    0.909    3.000    0.000    5.818 
#    1.636    4.545    0.000    2.182    0.000    0.000 
#    0.000    0.000    0.000    0.000    0.000    0.000 
#
# Total GULP energy -245543.035913 kJ/mol
# GULP energy per Si atom -5580.523543 kJ/mol
# Density = 1.826411 g / cm^3
# Si number density = 18.305780 Si / 1000 Ang^3
#
#
#
# Elastic Constant Matrix: (Units=GPa)
#
#
# Indices 1 2 3 4 5 6 
#
# 1 14.2794 28.2915 11.0706 0.0001 0.0000 0.0000
# 2 28.2915 174.5004 86.8692 0.0001 0.0000 0.0000
# 3 11.0706 86.8692 121.6978 0.0005 0.0002 0.0000
# 4 0.0001 0.0001 0.0005 -143.7962 0.0001 0.0000
# 5 0.0000 0.0000 0.0002 0.0001 95.4742 0.0000
# 6 0.0000 0.0000 0.0000 0.0000 0.0000 27.1392
#
#
#
# Elastic Compliance Matrix: (Units=1/GPa)
#
#
# Indices 1 2 3 4 5 6 
#
# 1 0.104419 -0.018926 0.004011 0.000000 0.000000 0.000000
# 2 -0.018926 0.012320 -0.007072 0.000000 0.000000 0.000000
# 3 0.004011 -0.007072 0.012901 0.000000 0.000000 0.000000
# 4 0.000000 0.000000 0.000000 -0.006954 0.000000 0.000000
# 5 0.000000 0.000000 0.000000 0.000000 0.010474 0.000000
# 6 0.000000 0.000000 0.000000 0.000000 0.000000 0.036847
#
#
# Mechanical properties :
#
#
# Convention : Reuss Voigt Hill
#
# Bulk Modulus (GPa) = 11.67349 62.54891 37.11120
# Shear Modulus (GPa) = 20.61552 8.04652 14.33102
#
# Velocity S-wave (km/s) = 3.35949 2.09885 2.80101
# Velocity P-wave (km/s) = 4.63023 6.33377 5.54778
#
# Compressibility (1/GPa) = 0.08566415
#
# Stress axis : x y z
#
# Youngs Moduli (GPa) = 9.57682 81.17001 77.51594
#
# Poissons Ratio (x) = 1.53621 -0.31090
# Poissons Ratio (y) = 0.18125 0.54822
# Poissons Ratio (z) = -0.03841 0.57407
#
# Static dielectric constant tensor:
#      x y z
#    x 1.628510 0.000000 0.000000 
#    y 0.000000 1.623150 0.000000 
#    z 0.000000 0.000000 1.601740 
# 
# From -- ./inp_files/12651.got.cif
#   From: 2010.05.17/outbox.cif.g08.bks.cpg/sg71_7_cif.got.tgz:12651.got - 2010.06.03 16:22:01.
