data_PCOD9520252
_publ_section_title
;
Structure prediction by ZEFSAII (Michael W. Deem and Ramdas Pophale) SiO2 
 PCOD9520252
Probable space group: I M M M
;
_chemical_formula_sum "Si O2"
_cell_formula_units_Z 88
_cell_length_a 19.731732
_cell_length_b 8.016585
_cell_length_c 29.221401
_cell_angle_alpha 90.000000
_cell_angle_beta 90.000000
_cell_angle_gamma 90.000000
_cell_volume 4622.273552
_symmetry_space_group_name_H-M "I M M M"
_symmetry_group_IT_number 71
_symmetry_cell_setting 'orthorhombic'
loop_
_space_group_symop_operation_xyz
x,y,z
-x,-y,z
x,-y,-z
-x,y,-z
-x,-y,-z
x,y,-z
-x,y,z
x,-y,z
1/2+x,1/2+y,1/2+z
1/2-x,1/2-y,1/2+z
1/2+x,1/2-y,1/2-z
1/2-x,1/2+y,1/2-z
1/2-x,1/2-y,1/2-z
1/2+x,1/2+y,1/2-z
1/2-x,1/2+y,1/2+z
1/2+x,1/2-y,1/2+z
loop_
_atom_site_type_symbol
_atom_site_label
_atom_site_fract_x
_atom_site_fract_y
_atom_site_fract_z
Si Si1 0.815460 0.200666 0.052254
Si Si2 0.332347 0.303246 0.289176
Si Si3 0.923159 0.698323 0.128254
Si Si4 0.665132 0.191259 0.910925
Si Si5 0.577324 0.500000 0.054744
Si Si6 0.816638 0.806538 0.688161
O O1 0.873777 0.263770 0.085859
O O2 0.741025 0.238811 0.072315
O O3 0.820228 0.000000 0.051663
O O4 0.821540 0.261816 0.000000
O O5 0.315416 0.500000 0.287861
O O6 0.390526 0.274475 0.325999
O O7 0.264426 0.209440 0.304884
O O8 0.348037 0.253518 0.236895
O O9 0.924584 0.500000 0.134482
O O10 0.000000 0.757997 0.120450
O O11 0.615084 0.332307 0.929257
O O12 0.664119 0.201325 0.855948
O O13 0.651533 0.000000 0.925883
O O14 0.500000 0.500000 0.071524
O O15 0.577414 0.500000 0.000000
O O16 0.833782 0.000000 0.679333
#
# Coordination Sequence:
#
# PCOD9520252 Si02
#       6
#    16  16  16  16   8  16
#     4  10  22  39  60  88 118 154 207 261 307 362
#     4  10  20  34  56  87 119 158 204 254 308 367
#     4  11  24  39  55  81 121 164 206 256 312 371
#     4  11  22  40  67  98 129 162 206 261 314 369
#     4  11  26  46  68  96 129 165 205 249 313 393
#     4  10  19  34  59  91 124 156 201 257 307 364
#
# _framework density 19.038250999999999
#
# number of rings (size 3 to 8) (size 9 to 14) (size 15 to 20)
#    0.000    1.545    2.727    2.182    1.273    5.818 
#    0.000    3.636    0.000    0.000    0.000    0.000 
#    0.000    0.000    0.000    0.000    0.000    0.000 
#
# Total GULP energy -245745.319226 kJ/mol
# GULP energy per Si atom -5585.120891 kJ/mol
# Density = 1.899492 g / cm^3
# Si number density = 19.038251 Si / 1000 Ang^3
#
#
#
# Elastic Constant Matrix: (Units=GPa)
#
#
# Indices 1 2 3 4 5 6 
#
# 1 117.9142 44.2550 61.1042 0.0000 0.0000 0.0000
# 2 44.2550 64.2248 30.1182 0.0000 0.0000 0.0000
# 3 61.1042 30.1182 128.3425 0.0000 0.0000 0.0000
# 4 0.0000 0.0000 0.0000 25.1919 0.0000 0.0000
# 5 0.0000 0.0000 0.0000 0.0000 19.5591 0.0000
# 6 0.0000 0.0000 0.0000 0.0000 0.0000 19.4560
#
#
#
# Elastic Compliance Matrix: (Units=1/GPa)
#
#
# Indices 1 2 3 4 5 6 
#
# 1 0.013668 -0.007154 -0.004829 0.000000 0.000000 0.000000
# 2 -0.007154 0.021240 -0.001579 0.000000 0.000000 0.000000
# 3 -0.004829 -0.001579 0.010461 0.000000 0.000000 0.000000
# 4 0.000000 0.000000 0.000000 0.039695 0.000000 0.000000
# 5 0.000000 0.000000 0.000000 0.000000 0.051127 0.000000
# 6 0.000000 0.000000 0.000000 0.000000 0.000000 0.051398
#
#
# Mechanical properties :
#
#
# Convention : Reuss Voigt Hill
#
# Bulk Modulus (GPa) = 54.80271 64.60403 59.70337
# Shear Modulus (GPa) = 22.64565 24.50832 23.57699
#
# Velocity S-wave (km/s) = 3.45263 3.59182 3.52291
# Velocity P-wave (km/s) = 6.68897 7.15605 6.92644
#
# Compressibility (1/GPa) = 0.01824727
#
# Stress axis : x y z
#
# Youngs Moduli (GPa) = 73.16463 47.08121 95.59355
#
# Poissons Ratio (x) = 0.33680 0.46158
# Poissons Ratio (y) = 0.52340 0.15090
# Poissons Ratio (z) = 0.35328 0.07432
#
# Static dielectric constant tensor:
#      x y z
#    x 1.632470 0.000000 0.000000 
#    y 0.000000 1.664250 0.000000 
#    z 0.000000 0.000000 1.672690 
# 
# From -- ./inp_files/16711.got.cif
#   From: 2010.05.17/outbox.cif.g08.bks.cpg/sg71_9_cif.got.tgz:16711.got - 2010.06.03 16:22:01.
