data_PCOD9520014
_publ_section_title
;
Structure prediction by ZEFSAII (Michael W. Deem and Ramdas Pophale) SiO2 
 PCOD9520014
Probable space group: I M M M
;
_chemical_formula_sum "Si O2"
_cell_formula_units_Z 96
_cell_length_a 15.064825
_cell_length_b 14.275073
_cell_length_c 21.675317
_cell_angle_alpha 90.000000
_cell_angle_beta 90.000000
_cell_angle_gamma 90.000000
_cell_volume 4661.308927
_symmetry_space_group_name_H-M "I M M M"
_symmetry_group_IT_number 71
_symmetry_cell_setting 'orthorhombic'
loop_
_space_group_symop_operation_xyz
x,y,z
-x,-y,z
x,-y,-z
-x,y,-z
-x,-y,-z
x,y,-z
-x,y,z
x,-y,z
1/2+x,1/2+y,1/2+z
1/2-x,1/2-y,1/2+z
1/2+x,1/2-y,1/2-z
1/2-x,1/2+y,1/2-z
1/2-x,1/2-y,1/2-z
1/2+x,1/2+y,1/2-z
1/2-x,1/2+y,1/2+z
1/2+x,1/2-y,1/2+z
loop_
_atom_site_type_symbol
_atom_site_label
_atom_site_fract_x
_atom_site_fract_y
_atom_site_fract_z
Si Si1 0.682204 0.608407 0.361759
Si Si2 0.500000 0.176597 0.788628
Si Si3 0.500000 0.196675 0.070109
Si Si4 0.500000 0.107090 0.656263
Si Si5 0.351193 0.110291 0.566908
Si Si6 0.165745 0.812222 0.267207
Si Si7 0.000000 0.113687 0.930349
Si Si8 0.811330 0.777319 0.602773
O O1 0.703522 0.500000 0.376753
O O2 0.658713 0.616939 0.289109
O O3 0.592197 0.637924 0.397063
O O4 0.763186 0.678356 0.378480
O O5 0.500000 0.145220 0.861007
O O6 0.500000 0.108164 0.730009
O O7 0.583683 0.242479 0.775132
O O8 0.407853 0.254987 0.075158
O O9 0.500000 0.153038 0.000000
O O10 0.412198 0.146498 0.623374
O O11 0.500000 0.000000 0.635096
O O12 0.396628 0.119107 0.500000
O O13 0.261632 0.168952 0.564289
O O14 0.331521 0.000000 0.575968
O O15 0.250000 0.750000 0.250000
O O16 0.179142 0.844143 0.336982
O O17 0.000000 0.000000 0.931816
O O18 0.000000 0.149605 0.000000
#
# Coordination Sequence:
#
# PCOD9520014 Si02
#       8
#    16   8   8   8  16  16   8  16
#     4  10  20  35  57  84 116 151 186 228 283 348
#     4  10  19  35  56  79 110 149 191 232 287 346
#     4  10  22  41  61  79 106 148 199 254 295 326
#     4  10  19  33  57  89 124 153 180 223 280 349
#     4  10  21  37  59  89 122 154 188 228 280 345
#     4   9  18  33  52  77 107 139 181 231 277 329
#     4   9  19  34  51  78 115 149 186 231 277 341
#     4  10  21  38  59  83 112 148 193 242 289 335
#
# _framework density 20.595074
#
# number of rings (size 3 to 8) (size 9 to 14) (size 15 to 20)
#    0.000    2.250    0.000    3.250    0.000    3.667 
#    0.000   11.667    0.000    6.250    0.000    0.000 
#    0.000    0.000    0.000    0.000    0.000    0.000 
#
# Total GULP energy -267221.922817 kJ/mol
# GULP energy per Si atom -5567.123392 kJ/mol
# Density = 2.054820 g / cm^3
# Si number density = 20.595074 Si / 1000 Ang^3
#
#
#
# Elastic Constant Matrix: (Units=GPa)
#
#
# Indices 1 2 3 4 5 6 
#
# 1 140.2357 23.2632 43.6017 0.0000 0.0000 0.0000
# 2 23.2632 72.3576 26.2221 0.0000 0.0000 0.0000
# 3 43.6017 26.2221 146.4767 0.0000 0.0000 0.0000
# 4 0.0000 0.0000 0.0000 24.8375 0.0000 0.0000
# 5 0.0000 0.0000 0.0000 0.0000 150.0291 0.0000
# 6 0.0000 0.0000 0.0000 0.0000 0.0000 8.0431
#
#
#
# Elastic Compliance Matrix: (Units=1/GPa)
#
#
# Indices 1 2 3 4 5 6 
#
# 1 0.008082 -0.001846 -0.002075 0.000000 0.000000 0.000000
# 2 -0.001846 0.015201 -0.002172 0.000000 0.000000 0.000000
# 3 -0.002075 -0.002172 0.007834 0.000000 0.000000 0.000000
# 4 0.000000 0.000000 0.000000 0.040262 0.000000 0.000000
# 5 0.000000 0.000000 0.000000 0.000000 0.006665 0.000000
# 6 0.000000 0.000000 0.000000 0.000000 0.000000 0.124331
#
#
# Mechanical properties :
#
#
# Convention : Reuss Voigt Hill
#
# Bulk Modulus (GPa) = 52.82604 60.58266 56.70435
# Shear Modulus (GPa) = 22.63760 54.31413 38.47587
#
# Velocity S-wave (km/s) = 3.31898 5.14098 4.32697
# Velocity P-wave (km/s) = 6.35555 8.04484 7.24957
#
# Compressibility (1/GPa) = 0.01893006
#
# Stress axis : x y z
#
# Youngs Moduli (GPa) = 123.72550 65.78570 127.65610
#
# Poissons Ratio (x) = 0.12147 0.26493
# Poissons Ratio (y) = 0.22845 0.27722
# Poissons Ratio (z) = 0.25677 0.14286
#
# Static dielectric constant tensor:
#      x y z
#    x 1.734680 0.000000 0.000000 
#    y 0.000000 1.730930 0.000000 
#    z 0.000000 0.000000 1.821660 
# 
# From -- ./inp_files/53047.got.cif
#   From: 2010.05.17/outbox.cif.g08.bks.cpg/sg71_27_cif.got.tgz:53047.got - 2010.06.03 16:22:01.
