data_PCOD9520652
_publ_section_title
;
Structure prediction by ZEFSAII (Michael W. Deem and Ramdas Pophale) SiO2 
 PCOD9520652
Probable space group: I M M M
;
_chemical_formula_sum "Si O2"
_cell_formula_units_Z 116
_cell_length_a 22.839603
_cell_length_b 33.655000
_cell_length_c 8.992141
_cell_angle_alpha 90.000000
_cell_angle_beta 90.000000
_cell_angle_gamma 90.000000
_cell_volume 6911.960598
_symmetry_space_group_name_H-M "I M M M"
_symmetry_group_IT_number 71
_symmetry_cell_setting 'orthorhombic'
loop_
_space_group_symop_operation_xyz
x,y,z
-x,-y,z
x,-y,-z
-x,y,-z
-x,-y,-z
x,y,-z
-x,y,z
x,-y,z
1/2+x,1/2+y,1/2+z
1/2-x,1/2-y,1/2+z
1/2+x,1/2-y,1/2-z
1/2-x,1/2+y,1/2-z
1/2-x,1/2-y,1/2-z
1/2+x,1/2+y,1/2-z
1/2-x,1/2+y,1/2+z
1/2+x,1/2-y,1/2+z
loop_
_atom_site_type_symbol
_atom_site_label
_atom_site_fract_x
_atom_site_fract_y
_atom_site_fract_z
Si Si1 0.928825 0.810947 0.671162
Si Si2 0.428538 0.770459 0.327941
Si Si3 0.429742 0.149095 0.168824
Si Si4 0.500000 0.000000 0.244744
Si Si5 0.430587 0.393770 0.677117
Si Si6 0.340089 0.547208 0.822921
Si Si7 0.781069 0.452238 0.330291
Si Si8 0.903141 0.433582 0.177846
O O1 0.909592 0.812685 0.500000
O O2 0.909375 0.770317 0.749768
O O3 0.912402 0.850755 0.758907
O O4 0.000000 0.809943 0.671104
O O5 0.410841 0.771628 0.500000
O O6 0.500000 0.770569 0.325381
O O7 0.408454 0.809811 0.241314
O O8 0.500000 0.152327 0.160503
O O9 0.417121 0.110872 0.268986
O O10 0.407738 0.143651 0.000000
O O11 0.448636 0.034933 0.251685
O O12 0.422202 0.394803 0.500000
O O13 0.500000 0.398812 0.707247
O O14 0.393008 0.427726 0.755371
O O15 0.347878 0.500000 0.794752
O O16 0.279516 0.560511 0.745676
O O17 0.336296 0.552803 0.000000
O O18 0.786482 0.437380 0.500000
O O19 0.778870 0.500000 0.336593
O O20 0.837693 0.441929 0.233654
O O21 0.908618 0.437838 0.000000
#
# Coordination Sequence:
#
# PCOD9520652 Si02
#       8
#    16  16  16   4  16  16  16  16
#     4   9  16  27  45  70 101 135 169 208 253 305
#     4   9  16  27  44  66  94 131 169 207 254 311
#     4  10  20  32  45  67  98 132 170 214 262 314
#     4  12  25  36  53  78 109 144 179 222 273 324
#     4  10  20  33  51  78 111 143 174 212 258 309
#     4  10  21  37  56  77 102 137 178 219 260 306
#     4  10  21  37  55  75  98 130 173 220 264 309
#     4  12  22  36  53  74 102 138 178 218 266 318
#
# _framework density 16.782502999999998
#
# number of rings (size 3 to 8) (size 9 to 14) (size 15 to 20)
#    0.000    1.931    1.379    3.517    0.000    6.345 
#    0.000    2.759    0.000    0.000    0.000    0.966 
#    0.000    0.000    0.000    0.000    0.000    0.000 
#
# Total GULP energy -322984.374501 kJ/mol
# GULP energy per Si atom -5568.696112 kJ/mol
# Density = 1.674431 g / cm^3
# Si number density = 16.782503 Si / 1000 Ang^3
#
#
#
# Elastic Constant Matrix: (Units=GPa)
#
#
# Indices 1 2 3 4 5 6 
#
# 1 53.2156 39.8265 23.8270 0.0000 0.0000 0.0000
# 2 39.8265 95.9395 33.2071 0.0000 0.0000 0.0000
# 3 23.8270 33.2071 55.9062 0.0000 0.0000 0.0000
# 4 0.0000 0.0000 0.0000 26.3559 0.0000 0.0000
# 5 0.0000 0.0000 0.0000 0.0000 19.3295 0.0000
# 6 0.0000 0.0000 0.0000 0.0000 0.0000 -5.7451
#
#
#
# Elastic Compliance Matrix: (Units=1/GPa)
#
#
# Indices 1 2 3 4 5 6 
#
# 1 0.029059 -0.009789 -0.006571 0.000000 0.000000 0.000000
# 2 -0.009789 0.016418 -0.005580 0.000000 0.000000 0.000000
# 3 -0.006571 -0.005580 0.024002 0.000000 0.000000 0.000000
# 4 0.000000 0.000000 0.000000 0.037942 0.000000 0.000000
# 5 0.000000 0.000000 0.000000 0.000000 0.051734 0.000000
# 6 0.000000 0.000000 0.000000 0.000000 0.000000 -0.174062
#
#
# Mechanical properties :
#
#
# Convention : Reuss Voigt Hill
#
# Bulk Modulus (GPa) = 39.06197 44.30919 41.68558
# Shear Modulus (GPa) = 133.30922 15.20144 74.25533
#
# Velocity S-wave (km/s) = 8.92221 3.01290 6.65896
# Velocity P-wave (km/s) = 11.37836 6.20989 9.16597
#
# Compressibility (1/GPa) = 0.02560035
#
# Stress axis : x y z
#
# Youngs Moduli (GPa) = 34.41222 60.90797 41.66336
#
# Poissons Ratio (x) = 0.59622 0.27375
# Poissons Ratio (y) = 0.33686 0.23248
# Poissons Ratio (z) = 0.22611 0.33987
#
# Static dielectric constant tensor:
#      x y z
#    x 1.542810 0.000000 0.000000 
#    y 0.000000 1.555570 0.000000 
#    z 0.000000 0.000000 1.582950 
# 
# From -- ./inp_files/13759.got.cif
#   From: 2010.05.17/outbox.cif.g08.bks.cpg/sg71_7_cif.got.tgz:13759.got - 2010.06.03 16:22:01.
