data_PCOD9520987
_publ_section_title
;
Structure prediction by ZEFSAII (Michael W. Deem and Ramdas Pophale) SiO2 
 PCOD9520987
Probable space group: I M M M
;
_chemical_formula_sum "Si O2"
_cell_formula_units_Z 104
_cell_length_a 30.547656
_cell_length_b 9.079113
_cell_length_c 22.637371
_cell_angle_alpha 90.000000
_cell_angle_beta 90.000000
_cell_angle_gamma 90.000000
_cell_volume 6278.375711
_symmetry_space_group_name_H-M "I M M M"
_symmetry_group_IT_number 71
_symmetry_cell_setting 'orthorhombic'
loop_
_space_group_symop_operation_xyz
x,y,z
-x,-y,z
x,-y,-z
-x,y,-z
-x,-y,-z
x,y,-z
-x,y,z
x,-y,z
1/2+x,1/2+y,1/2+z
1/2-x,1/2-y,1/2+z
1/2+x,1/2-y,1/2-z
1/2-x,1/2+y,1/2-z
1/2-x,1/2-y,1/2-z
1/2+x,1/2+y,1/2-z
1/2-x,1/2+y,1/2+z
1/2+x,1/2-y,1/2+z
loop_
_atom_site_type_symbol
_atom_site_label
_atom_site_fract_x
_atom_site_fract_y
_atom_site_fract_z
Si Si1 0.447298 0.829087 0.120716
Si Si2 0.610963 0.675290 0.215140
Si Si3 0.550667 0.675886 0.430098
Si Si4 0.946717 0.830041 0.500000
Si Si5 0.380839 0.177210 0.342982
Si Si6 0.198391 0.332442 0.690440
Si Si7 0.716787 0.168145 0.331992
O O1 0.500000 0.824512 0.122758
O O2 0.427384 0.738289 0.174544
O O3 0.433103 0.755068 0.059082
O O4 0.433779 0.000000 0.123693
O O5 0.609614 0.500000 0.220149
O O6 0.609138 0.748790 0.279824
O O7 0.656440 0.728306 0.185317
O O8 0.556731 0.704033 0.500000
O O9 0.500000 0.712583 0.415414
O O10 0.556063 0.500000 0.420718
O O11 0.585004 0.763964 0.390755
O O12 0.000000 0.830803 0.500000
O O13 0.932295 0.000000 0.500000
O O14 0.330112 0.215072 0.358089
O O15 0.382818 0.000000 0.337150
O O16 0.188267 0.500000 0.673191
O O17 0.241483 0.270969 0.658381
O O18 0.208891 0.333918 0.760905
O O19 0.726311 0.000000 0.349935
#
# Coordination Sequence:
#
# PCOD9520987 Si02
#       7
#    16  16  16   8  16  16  16
#     4  10  20  34  51  71  97 129 166 207 247 287
#     4  11  21  32  48  71 102 136 167 203 250 303
#     4   9  19  36  55  74  98 130 169 211 254 304
#     4   9  17  31  51  73  95 121 159 201 237 279
#     4  10  20  33  50  74 102 130 164 206 250 299
#     4   9  16  27  44  67  96 127 160 197 238 287
#     4   8  15  27  43  66  95 125 157 194 238 287
#
# _framework density 16.564795
#
# number of rings (size 3 to 8) (size 9 to 14) (size 15 to 20)
#    0.000    2.538    0.000    4.385    0.000    7.385 
#    0.000    0.769    0.000    0.000    2.000    0.000 
#    0.000    0.000    0.000    0.000    0.000    0.000 
#
# Total GULP energy -289847.572608 kJ/mol
# GULP energy per Si atom -5573.991781 kJ/mol
# Density = 1.652709 g / cm^3
# Si number density = 16.564795 Si / 1000 Ang^3
#
#
#
# Elastic Constant Matrix: (Units=GPa)
#
#
# Indices 1 2 3 4 5 6 
#
# 1 84.7877 55.4049 42.1101 0.0000 0.0000 0.0000
# 2 55.4049 111.4496 41.5704 0.0000 0.0000 0.0000
# 3 42.1101 41.5704 49.6060 0.0000 0.0000 0.0000
# 4 0.0000 0.0000 0.0000 24.9104 0.0000 0.0000
# 5 0.0000 0.0000 0.0000 0.0000 8.0569 0.0000
# 6 0.0000 0.0000 0.0000 0.0000 0.0000 29.6204
#
#
#
# Elastic Compliance Matrix: (Units=1/GPa)
#
#
# Indices 1 2 3 4 5 6 
#
# 1 0.022852 -0.006000 -0.014371 0.000000 0.000000 0.000000
# 2 -0.006000 0.014628 -0.007165 0.000000 0.000000 0.000000
# 3 -0.014371 -0.007165 0.038363 0.000000 0.000000 0.000000
# 4 0.000000 0.000000 0.000000 0.040144 0.000000 0.000000
# 5 0.000000 0.000000 0.000000 0.000000 0.124118 0.000000
# 6 0.000000 0.000000 0.000000 0.000000 0.000000 0.033761
#
#
# Mechanical properties :
#
#
# Convention : Reuss Voigt Hill
#
# Bulk Modulus (GPa) = 48.14461 58.22378 53.18420
# Shear Modulus (GPa) = 14.88711 19.63471 17.26091
#
# Velocity S-wave (km/s) = 3.00112 3.44659 3.23154
# Velocity P-wave (km/s) = 6.41377 7.14591 6.78972
#
# Compressibility (1/GPa) = 0.02077076
#
# Stress axis : x y z
#
# Youngs Moduli (GPa) = 43.75891 68.36163 26.06711
#
# Poissons Ratio (x) = 0.41019 0.37461
# Poissons Ratio (y) = 0.26257 0.18677
# Poissons Ratio (z) = 0.62886 0.48980
#
# Static dielectric constant tensor:
#      x y z
#    x 1.571840 0.000000 0.000000 
#    y 0.000000 1.555520 0.000000 
#    z 0.000000 0.000000 1.530640 
# 
# From -- ./inp_files/56704.got.cif
#   From: 2010.05.17/outbox.cif.g08.bks.cpg/sg71_29_cif.got.tgz:56704.got - 2010.06.03 16:22:01.
