data_PCOD9520047
_publ_section_title
;
Structure prediction by ZEFSAII (Michael W. Deem and Ramdas Pophale) SiO2 
 PCOD9520047
Probable space group: I M M M
;
_chemical_formula_sum "Si O2"
_cell_formula_units_Z 104
_cell_length_a 24.155481
_cell_length_b 32.294562
_cell_length_c 7.911661
_cell_angle_alpha 90.000000
_cell_angle_beta 90.000000
_cell_angle_gamma 90.000000
_cell_volume 6171.813000
_symmetry_space_group_name_H-M "I M M M"
_symmetry_group_IT_number 71
_symmetry_cell_setting 'orthorhombic'
loop_
_space_group_symop_operation_xyz
x,y,z
-x,-y,z
x,-y,-z
-x,y,-z
-x,-y,-z
x,y,-z
-x,y,z
x,-y,z
1/2+x,1/2+y,1/2+z
1/2-x,1/2-y,1/2+z
1/2+x,1/2-y,1/2-z
1/2-x,1/2+y,1/2-z
1/2-x,1/2-y,1/2-z
1/2+x,1/2+y,1/2-z
1/2-x,1/2+y,1/2+z
1/2+x,1/2-y,1/2+z
loop_
_atom_site_type_symbol
_atom_site_label
_atom_site_fract_x
_atom_site_fract_y
_atom_site_fract_z
Si Si1 0.149215 0.047140 0.704495
Si Si2 0.063952 0.117245 0.705054
Si Si3 0.567309 0.765430 0.000000
Si Si4 0.933856 0.500000 0.697616
Si Si5 0.225068 0.547942 0.700878
Si Si6 0.933140 0.637925 0.500000
Si Si7 0.615651 0.913436 0.311060
Si Si8 0.432675 0.290369 0.311797
O O1 0.148662 0.046923 0.500000
O O2 0.104090 0.080448 0.761483
O O3 0.211211 0.058036 0.761735
O O4 0.137511 0.000000 0.761760
O O5 0.064844 0.119103 0.500000
O O6 0.082192 0.162124 0.771621
O O7 0.000000 0.110183 0.755946
O O8 0.581694 0.813607 0.000000
O O9 0.586464 0.740659 0.165939
O O10 0.500000 0.763730 0.000000
O O11 0.916181 0.500000 0.500000
O O12 0.911558 0.541428 0.782848
O O13 0.000000 0.500000 0.702363
O O14 0.215516 0.549325 0.500000
O O15 0.216342 0.500000 0.757041
O O16 0.180900 0.577891 0.786649
O O17 0.908474 0.615739 0.665411
O O18 0.000000 0.633394 0.500000
O O19 0.603759 0.898390 0.500000
O O20 0.414503 0.278779 0.500000
O O21 0.500000 0.289559 0.308841
#
# Coordination Sequence:
#
# PCOD9520047 Si02
#       8
#    16  16   8   8  16   8  16  16
#     4   9  18  30  46  73 108 143 184 227 262 306
#     4   9  16  28  47  73 110 148 179 217 265 315
#     4   9  18  34  53  74 104 138 169 211 266 319
#     4  11  21  35  53  74 105 141 177 215 258 312
#     4  10  19  34  53  71  97 135 182 230 265 300
#     4  11  24  39  54  79 114 141 169 215 270 331
#     4  12  23  36  55  77 104 141 181 219 263 314
#     4   9  16  28  50  76 101 133 175 218 257 308
#
# _framework density 16.850802000000002
#
# number of rings (size 3 to 8) (size 9 to 14) (size 15 to 20)
#    0.000    2.077    3.077    1.154    0.000    3.692 
#    0.000    3.077    0.000    0.000    0.000    5.385 
#    0.000    0.000    0.000    0.000    0.000    0.000 
#
# Total GULP energy -290153.176826 kJ/mol
# GULP energy per Si atom -5579.868785 kJ/mol
# Density = 1.681245 g / cm^3
# Si number density = 16.850802 Si / 1000 Ang^3
#
#
#
# Elastic Constant Matrix: (Units=GPa)
#
#
# Indices 1 2 3 4 5 6 
#
# 1 66.8569 55.8491 34.2826 0.0000 0.0000 0.0000
# 2 55.8491 122.5948 62.7293 0.0000 0.0000 0.0000
# 3 34.2826 62.7293 110.1333 0.0000 0.0000 0.0000
# 4 0.0000 0.0000 0.0000 4.7259 0.0000 0.0000
# 5 0.0000 0.0000 0.0000 0.0000 18.9937 0.0000
# 6 0.0000 0.0000 0.0000 0.0000 0.0000 0.9690
#
#
#
# Elastic Compliance Matrix: (Units=1/GPa)
#
#
# Indices 1 2 3 4 5 6 
#
# 1 0.024392 -0.010199 -0.001783 0.000000 0.000000 0.000000
# 2 -0.010199 0.015777 -0.005811 0.000000 0.000000 0.000000
# 3 -0.001783 -0.005811 0.012945 0.000000 0.000000 0.000000
# 4 0.000000 0.000000 0.000000 0.211601 0.000000 0.000000
# 5 0.000000 0.000000 0.000000 0.000000 0.052649 0.000000
# 6 0.000000 0.000000 0.000000 0.000000 0.000000 1.031996
#
#
# Mechanical properties :
#
#
# Convention : Reuss Voigt Hill
#
# Bulk Modulus (GPa) = 57.05926 67.25633 62.15779
# Shear Modulus (GPa) = 3.59508 14.71931 9.15719
#
# Velocity S-wave (km/s) = 1.46223 2.95872 2.33368
# Velocity P-wave (km/s) = 6.06513 7.18829 6.65046
#
# Compressibility (1/GPa) = 0.01752564
#
# Stress axis : x y z
#
# Youngs Moduli (GPa) = 40.99716 63.38386 77.24989
#
# Poissons Ratio (x) = 0.64648 0.13777
# Poissons Ratio (y) = 0.41815 0.44892
# Poissons Ratio (z) = 0.07312 0.36834
#
# Static dielectric constant tensor:
#      x y z
#    x 1.557000 0.000000 0.000000 
#    y 0.000000 1.545940 0.000000 
#    z 0.000000 0.000000 1.599810 
# 
# From -- ./inp_files/13680.got.cif
#   From: 2010.05.17/outbox.cif.g08.bks.cpg/sg71_7_cif.got.tgz:13680.got - 2010.06.03 16:22:01.
