data_PCOD9520443
_publ_section_title
;
Structure prediction by ZEFSAII (Michael W. Deem and Ramdas Pophale) SiO2 
 PCOD9520443
Probable space group: I M M M
;
_chemical_formula_sum "Si O2"
_cell_formula_units_Z 104
_cell_length_a 19.322797
_cell_length_b 18.132854
_cell_length_c 17.668231
_cell_angle_alpha 90.000000
_cell_angle_beta 90.000000
_cell_angle_gamma 90.000000
_cell_volume 6190.549845
_symmetry_space_group_name_H-M "I M M M"
_symmetry_group_IT_number 71
_symmetry_cell_setting 'orthorhombic'
loop_
_space_group_symop_operation_xyz
x,y,z
-x,-y,z
x,-y,-z
-x,y,-z
-x,-y,-z
x,y,-z
-x,y,z
x,-y,z
1/2+x,1/2+y,1/2+z
1/2-x,1/2-y,1/2+z
1/2+x,1/2-y,1/2-z
1/2-x,1/2+y,1/2-z
1/2-x,1/2-y,1/2-z
1/2+x,1/2+y,1/2-z
1/2-x,1/2+y,1/2+z
1/2+x,1/2-y,1/2+z
loop_
_atom_site_type_symbol
_atom_site_label
_atom_site_fract_x
_atom_site_fract_y
_atom_site_fract_z
Si Si1 0.418437 0.340409 0.589006
Si Si2 0.780612 0.801214 0.682404
Si Si3 0.417628 0.911685 0.000000
Si Si4 0.160391 0.656401 0.356997
Si Si5 0.081612 0.414746 0.781712
Si Si6 0.195330 0.912773 0.809154
Si Si7 0.142814 0.676073 0.088952
O O1 0.408467 0.358259 0.500000
O O2 0.500000 0.345158 0.605769
O O3 0.371526 0.391395 0.641705
O O4 0.392004 0.256442 0.600102
O O5 0.750000 0.750000 0.750000
O O6 0.832500 0.744979 0.641124
O O7 0.808512 0.871655 0.727827
O O8 0.718848 0.821446 0.625950
O O9 0.381734 0.876869 0.073519
O O10 0.500000 0.898100 0.000000
O O11 0.407297 0.000000 0.000000
O O12 0.122711 0.632742 0.279693
O O13 0.237218 0.620834 0.352048
O O14 0.102787 0.500000 0.774531
O O15 0.099529 0.383300 0.863921
O O16 0.000000 0.409653 0.767447
O O17 0.203150 0.000000 0.801124
O O18 0.145162 0.660900 0.000000
#
# Coordination Sequence:
#
# PCOD9520443 Si02
#       7
#    16  16   8  16  16  16  16
#     4  10  21  36  54  80 113 145 180 224 277 335
#     4  10  19  36  57  84 107 140 187 236 269 324
#     4  11  24  38  56  90 126 150 180 227 282 338
#     4  11  21  37  59  81 113 152 188 229 278 335
#     4  11  22  36  55  80 113 151 188 227 278 337
#     4  11  21  35  58  82 107 144 188 228 276 329
#     4  11  21  36  56  81 112 147 187 232 278 327
#
# _framework density 16.799800999999999
#
# number of rings (size 3 to 8) (size 9 to 14) (size 15 to 20)
#    0.000    1.308    6.154    2.308    2.154    3.077 
#    0.000    2.308    0.000    0.000    0.000    0.000 
#    0.000    0.615    0.000    0.000    0.000    0.000 
#
# Total GULP energy -290272.330665 kJ/mol
# GULP energy per Si atom -5582.160205 kJ/mol
# Density = 1.676156 g / cm^3
# Si number density = 16.799801 Si / 1000 Ang^3
#
#
#
# Elastic Constant Matrix: (Units=GPa)
#
#
# Indices 1 2 3 4 5 6 
#
# 1 94.2925 47.2346 49.2704 0.0000 0.0000 0.0000
# 2 47.2346 77.2652 22.3490 0.0000 0.0000 0.0000
# 3 49.2704 22.3490 75.7061 0.0000 0.0000 0.0000
# 4 0.0000 0.0000 0.0000 19.0895 0.0000 0.0000
# 5 0.0000 0.0000 0.0000 0.0000 21.0702 0.0000
# 6 0.0000 0.0000 0.0000 0.0000 0.0000 24.0688
#
#
#
# Elastic Compliance Matrix: (Units=1/GPa)
#
#
# Indices 1 2 3 4 5 6 
#
# 1 0.021229 -0.009820 -0.010917 0.000000 0.000000 0.000000
# 2 -0.009820 0.018693 0.000873 0.000000 0.000000 0.000000
# 3 -0.010917 0.000873 0.020056 0.000000 0.000000 0.000000
# 4 0.000000 0.000000 0.000000 0.052385 0.000000 0.000000
# 5 0.000000 0.000000 0.000000 0.000000 0.047460 0.000000
# 6 0.000000 0.000000 0.000000 0.000000 0.000000 0.041548
#
#
# Mechanical properties :
#
#
# Convention : Reuss Voigt Hill
#
# Bulk Modulus (GPa) = 49.38391 53.88575 51.63483
# Shear Modulus (GPa) = 20.17342 21.40635 20.78988
#
# Velocity S-wave (km/s) = 3.46903 3.57347 3.52164
# Velocity P-wave (km/s) = 6.74574 7.01221 6.88026
#
# Compressibility (1/GPa) = 0.02024951
#
# Stress axis : x y z
#
# Youngs Moduli (GPa) = 47.10518 53.49476 49.85950
#
# Poissons Ratio (x) = 0.52533 0.54432
# Poissons Ratio (y) = 0.46258 -0.04351
# Poissons Ratio (z) = 0.51425 -0.04668
#
# Static dielectric constant tensor:
#      x y z
#    x 1.569730 0.000000 0.000000 
#    y 0.000000 1.576630 0.000000 
#    z 0.000000 0.000000 1.560200 
# 
# From -- ./inp_files/46115.got.cif
#   From: 2010.05.17/outbox.cif.g08.bks.cpg/sg71_24_cif.got.tgz:46115.got - 2010.06.03 16:22:01.
