data_PCOD9520281
_publ_section_title
;
Structure prediction by ZEFSAII (Michael W. Deem and Ramdas Pophale) SiO2 
 PCOD9520281
Probable space group: I M M M
;
_chemical_formula_sum "Si O2"
_cell_formula_units_Z 88
_cell_length_a 7.536291
_cell_length_b 29.443287
_cell_length_c 17.363504
_cell_angle_alpha 90.000000
_cell_angle_beta 90.000000
_cell_angle_gamma 90.000000
_cell_volume 3852.843098
_symmetry_space_group_name_H-M "I M M M"
_symmetry_group_IT_number 71
_symmetry_cell_setting 'orthorhombic'
loop_
_space_group_symop_operation_xyz
x,y,z
-x,-y,z
x,-y,-z
-x,y,-z
-x,-y,-z
x,y,-z
-x,y,z
x,-y,z
1/2+x,1/2+y,1/2+z
1/2-x,1/2-y,1/2+z
1/2+x,1/2-y,1/2-z
1/2-x,1/2+y,1/2-z
1/2-x,1/2-y,1/2-z
1/2+x,1/2+y,1/2-z
1/2-x,1/2+y,1/2+z
1/2+x,1/2-y,1/2+z
loop_
_atom_site_type_symbol
_atom_site_label
_atom_site_fract_x
_atom_site_fract_y
_atom_site_fract_z
Si Si1 0.285158 0.194624 0.912594
Si Si2 0.698013 0.780030 0.676730
Si Si3 0.712820 0.447837 0.500000
Si Si4 0.217650 0.634361 0.912158
Si Si5 0.208777 0.603902 0.657857
Si Si6 0.283067 0.948225 0.691235
O O1 0.500000 0.197757 0.907130
O O2 0.208505 0.243329 0.891612
O O3 0.220177 0.154704 0.856140
O O4 0.241203 0.181673 0.000000
O O5 0.500000 0.794406 0.695863
O O6 0.750000 0.750000 0.750000
O O7 0.785048 0.825848 0.644855
O O8 0.774957 0.500000 0.500000
O O9 0.500000 0.447670 0.500000
O O10 0.772815 0.422686 0.577453
O O11 0.267044 0.585667 0.877335
O O12 0.000000 0.636363 0.913141
O O13 0.275944 0.641037 0.000000
O O14 0.279457 0.574834 0.728901
O O15 0.000000 0.609799 0.673077
O O16 0.500000 0.949506 0.693261
O O17 0.222489 0.000000 0.683882
#
# Coordination Sequence:
#
# PCOD9520281 Si02
#       6
#    16  16   8  16  16  16
#     4  10  20  35  55  80 110 145 184 228 278 331
#     4  11  22  36  55  80 111 149 188 228 280 340
#     4  11  23  35  49  75 111 147 189 243 290 329
#     4   9  18  33  52  76 109 145 180 223 278 337
#     4  10  19  35  55  77 108 149 191 230 280 341
#     4   9  17  29  50  79 106 137 182 232 277 329
#
# _framework density 22.840277
#
# number of rings (size 3 to 8) (size 9 to 14) (size 15 to 20)
#    0.000    2.091    0.909    3.000    0.000    6.545 
#    0.000    1.818    0.000    0.000    0.000    0.000 
#    0.000    0.000    0.000   15.818    0.000   16.000 
#
# Total GULP energy -245808.802469 kJ/mol
# GULP energy per Si atom -5586.563692 kJ/mol
# Density = 2.278829 g / cm^3
# Si number density = 22.840277 Si / 1000 Ang^3
#
#
#
# Elastic Constant Matrix: (Units=GPa)
#
#
# Indices 1 2 3 4 5 6 
#
# 1 51.3327 0.4825 4.4721 0.0000 0.0000 0.0000
# 2 0.4825 161.9688 53.7184 0.0000 0.0001 0.0000
# 3 4.4721 53.7184 127.7610 0.0001 0.0004 0.0000
# 4 0.0000 0.0000 0.0001 22.3363 0.0003 0.0000
# 5 0.0000 0.0001 0.0004 0.0003 -34.4358 0.0000
# 6 0.0000 0.0000 0.0000 0.0000 0.0000 10.1885
#
#
#
# Elastic Compliance Matrix: (Units=1/GPa)
#
#
# Indices 1 2 3 4 5 6 
#
# 1 0.019546 0.000196 -0.000767 0.000000 0.000000 0.000000
# 2 0.000196 0.007176 -0.003024 0.000000 0.000000 0.000000
# 3 -0.000767 -0.003024 0.009126 0.000000 0.000000 0.000000
# 4 0.000000 0.000000 0.000000 0.044770 0.000000 0.000000
# 5 0.000000 0.000000 0.000000 0.000000 -0.029040 0.000000
# 6 0.000000 0.000000 0.000000 0.000000 0.000000 0.098150
#
#
# Mechanical properties :
#
#
# Convention : Reuss Voigt Hill
#
# Bulk Modulus (GPa) = 34.89427 50.93429 42.91428
# Shear Modulus (GPa) = 30.03533 18.44376 24.23954
#
# Velocity S-wave (km/s) = 3.63025 2.84476 3.26124
# Velocity P-wave (km/s) = 5.73431 5.75663 5.74548
#
# Compressibility (1/GPa) = 0.02865800
#
# Stress axis : x y z
#
# Youngs Moduli (GPa) = 51.16217 139.34417 109.58259
#
# Poissons Ratio (x) = -0.02731 0.08400
# Poissons Ratio (y) = -0.01003 0.33141
# Poissons Ratio (z) = 0.03922 0.42142
#
# Static dielectric constant tensor:
#      x y z
#    x 1.882570 0.000000 0.000000 
#    y 0.000000 1.835340 0.000000 
#    z 0.000000 0.000000 1.850830 
# 
# From -- ./inp_files/42473.got.cif
#   From: 2010.05.17/outbox.cif.g08.bks.cpg/sg71_22_cif.got.tgz:42473.got - 2010.06.03 16:22:01.
