data_PCOD9520713
_publ_section_title
;
Structure prediction by ZEFSAII (Michael W. Deem and Ramdas Pophale) SiO2 
 PCOD9520713
Probable space group: I M M M
;
_chemical_formula_sum "Si O2"
_cell_formula_units_Z 104
_cell_length_a 7.425174
_cell_length_b 26.627708
_cell_length_c 22.333170
_cell_angle_alpha 90.000000
_cell_angle_beta 90.000000
_cell_angle_gamma 90.000000
_cell_volume 4415.610861
_symmetry_space_group_name_H-M "I M M M"
_symmetry_group_IT_number 71
_symmetry_cell_setting 'orthorhombic'
loop_
_space_group_symop_operation_xyz
x,y,z
-x,-y,z
x,-y,-z
-x,y,-z
-x,-y,-z
x,y,-z
-x,y,z
x,-y,z
1/2+x,1/2+y,1/2+z
1/2-x,1/2-y,1/2+z
1/2+x,1/2-y,1/2-z
1/2-x,1/2+y,1/2-z
1/2-x,1/2-y,1/2-z
1/2+x,1/2+y,1/2-z
1/2-x,1/2+y,1/2+z
1/2+x,1/2-y,1/2+z
loop_
_atom_site_type_symbol
_atom_site_label
_atom_site_fract_x
_atom_site_fract_y
_atom_site_fract_z
Si Si1 0.716780 0.556770 0.845892
Si Si2 0.779769 0.000000 0.930532
Si Si3 0.213170 0.708396 0.435104
Si Si4 0.288522 0.140311 0.432724
Si Si5 0.203006 0.221692 0.664416
Si Si6 0.779410 0.139863 0.249608
Si Si7 0.283292 0.606402 0.619194
O O1 0.500000 0.555276 0.842476
O O2 0.783234 0.500000 0.840414
O O3 0.766491 0.584176 0.907570
O O4 0.777212 0.594516 0.793420
O O5 0.719583 0.051112 0.898520
O O6 0.000000 0.000000 0.929414
O O7 0.726455 0.000000 0.000000
O O8 0.285191 0.725422 0.500000
O O9 0.290698 0.734162 0.374948
O O10 0.235730 0.648996 0.428513
O O11 0.000000 0.719922 0.434941
O O12 0.220250 0.145718 0.500000
O O13 0.500000 0.152733 0.431920
O O14 0.196888 0.177095 0.385293
O O15 0.282203 0.192920 0.721939
O O16 0.000000 0.236894 0.680213
O O17 0.718425 0.126456 0.183340
O O18 0.000000 0.141682 0.250271
O O19 0.500000 0.603813 0.622393
#
# Coordination Sequence:
#
# PCOD9520713 Si02
#       7
#    16   8  16  16  16  16  16
#     4   9  18  32  51  72  97 133 177 221 262 313
#     4   9  18  32  51  77 107 139 174 211 254 306
#     4  10  21  36  54  77 106 140 176 216 263 314
#     4  10  20  32  47  71 103 136 172 217 270 319
#     4   9  18  35  56  76 101 136 177 217 259 316
#     4   8  16  31  52  79 104 129 170 218 263 307
#     4  10  20  34  55  81 108 138 173 218 266 315
#
# _framework density 23.552802
#
# number of rings (size 3 to 8) (size 9 to 14) (size 15 to 20)
#    0.000    2.692    0.000    2.308    1.077    4.615 
#    0.000    5.000    0.000    1.385    0.000    0.000 
#    0.000    0.000    0.000    0.000    0.000    0.000 
#
# Total GULP energy -290501.448733 kJ/mol
# GULP energy per Si atom -5586.566322 kJ/mol
# Density = 2.349919 g / cm^3
# Si number density = 23.552802 Si / 1000 Ang^3
#
#
#
# Elastic Constant Matrix: (Units=GPa)
#
#
# Indices 1 2 3 4 5 6 
#
# 1 86.9522 2.9333 7.8792 0.0000 0.0000 0.0000
# 2 2.9333 158.5136 56.9926 0.0000 0.0000 0.0000
# 3 7.8792 56.9926 148.9799 0.0000 0.0000 0.0000
# 4 0.0000 0.0000 0.0000 27.5308 0.0000 0.0000
# 5 0.0000 0.0000 0.0000 0.0000 -1.5342 0.0000
# 6 0.0000 0.0000 0.0000 0.0000 0.0000 32.6819
#
#
#
# Elastic Compliance Matrix: (Units=1/GPa)
#
#
# Indices 1 2 3 4 5 6 
#
# 1 0.011556 0.000007 -0.000614 0.000000 0.000000 0.000000
# 2 0.000007 0.007315 -0.002799 0.000000 0.000000 0.000000
# 3 -0.000614 -0.002799 0.007815 0.000000 0.000000 0.000000
# 4 0.000000 0.000000 0.000000 0.036323 0.000000 0.000000
# 5 0.000000 0.000000 0.000000 0.000000 -0.651826 0.000000
# 6 0.000000 0.000000 0.000000 0.000000 0.000000 0.030598
#
#
# Mechanical properties :
#
#
# Convention : Reuss Voigt Hill
#
# Bulk Modulus (GPa) = 50.31465 58.89511 54.60488
# Shear Modulus (GPa) = -9.17796 33.51177 12.16691
#
# Velocity S-wave (km/s) = -1.97616 3.77614 2.27531
# Velocity P-wave (km/s) = 4.02516 6.63869 5.48972
#
# Compressibility (1/GPa) = 0.01987493
#
# Stress axis : x y z
#
# Youngs Moduli (GPa) = 86.53545 136.71093 127.95267
#
# Poissons Ratio (x) = -0.00093 0.07854
# Poissons Ratio (y) = -0.00059 0.35809
# Poissons Ratio (z) = 0.05311 0.38260
#
# Static dielectric constant tensor:
#      x y z
#    x 1.921440 0.000000 0.000000 
#    y 0.000000 1.884280 0.000000 
#    z 0.000000 0.000000 1.899910 
# 
# From -- ./inp_files/50888.got.cif
#   From: 2010.05.17/outbox.cif.g08.bks.cpg/sg71_26_cif.got.tgz:50888.got - 2010.06.03 16:22:01.
