data_PCOD9520648
_publ_section_title
;
Structure prediction by ZEFSAII (Michael W. Deem and Ramdas Pophale) SiO2 
 PCOD9520648
Probable space group: I M M M
;
_chemical_formula_sum "Si O2"
_cell_formula_units_Z 80
_cell_length_a 25.659653
_cell_length_b 8.813755
_cell_length_c 20.149145
_cell_angle_alpha 90.000000
_cell_angle_beta 90.000000
_cell_angle_gamma 90.000000
_cell_volume 4556.888218
_symmetry_space_group_name_H-M "I M M M"
_symmetry_group_IT_number 71
_symmetry_cell_setting 'orthorhombic'
loop_
_space_group_symop_operation_xyz
x,y,z
-x,-y,z
x,-y,-z
-x,y,-z
-x,-y,-z
x,y,-z
-x,y,z
x,-y,z
1/2+x,1/2+y,1/2+z
1/2-x,1/2-y,1/2+z
1/2+x,1/2-y,1/2-z
1/2-x,1/2+y,1/2-z
1/2-x,1/2-y,1/2-z
1/2+x,1/2+y,1/2-z
1/2-x,1/2+y,1/2+z
1/2+x,1/2-y,1/2+z
loop_
_atom_site_type_symbol
_atom_site_label
_atom_site_fract_x
_atom_site_fract_y
_atom_site_fract_z
Si Si1 0.764411 0.329900 0.500000
Si Si2 0.112188 0.330146 0.500000
Si Si3 0.740816 0.681720 0.855967
Si Si4 0.941740 0.320245 0.238542
Si Si5 0.559051 0.327468 0.879867
Si Si6 0.169056 0.818190 0.236525
O O1 0.741309 0.500000 0.500000
O O2 0.826478 0.343469 0.500000
O O3 0.753562 0.247184 0.569915
O O4 0.088817 0.500000 0.500000
O O5 0.095203 0.236958 0.563863
O O6 0.742028 0.500000 0.859369
O O7 0.788634 0.743734 0.812094
O O8 0.688900 0.722950 0.811902
O O9 0.937542 0.500000 0.227679
O O10 0.941381 0.280285 0.316503
O O11 0.888533 0.238699 0.216652
O O12 0.000000 0.271011 0.214196
O O13 0.500000 0.331647 0.906366
O O14 0.573138 0.500000 0.859688
O O15 0.171361 0.000000 0.231621
#
# Coordination Sequence:
#
# PCOD9520648 Si02
#       6
#     8   8  16  16  16  16
#     4  11  23  36  50  73 103 133 170 214 259 308
#     4  11  22  32  45  64  90 127 167 208 251 298
#     4  10  21  36  55  78 105 138 175 216 263 314
#     4  10  20  33  50  73 101 132 167 209 255 303
#     4  10  20  32  45  63  90 126 168 211 252 295
#     4  10  20  35  56  80 106 138 175 216 262 312
#
# _framework density 17.555841000000001
#
# number of rings (size 3 to 8) (size 9 to 14) (size 15 to 20)
#    0.000    1.800    0.000    4.500    0.000   10.800 
#    0.000    0.000    0.000    0.000    0.000    0.700 
#    0.000    5.600    0.000    0.000    0.000    0.000 
#
# Total GULP energy -223009.384618 kJ/mol
# GULP energy per Si atom -5575.234615 kJ/mol
# Density = 1.751588 g / cm^3
# Si number density = 17.555841 Si / 1000 Ang^3
#
#
#
# Elastic Constant Matrix: (Units=GPa)
#
#
# Indices 1 2 3 4 5 6 
#
# 1 93.7879 28.7860 25.1711 0.0000 0.0000 0.0000
# 2 28.7860 73.2910 33.2244 0.0000 0.0000 0.0000
# 3 25.1711 33.2244 80.3767 0.0000 0.0000 0.0000
# 4 0.0000 0.0000 0.0000 23.1884 0.0000 0.0000
# 5 0.0000 0.0000 0.0000 0.0000 24.7048 0.0000
# 6 0.0000 0.0000 0.0000 0.0000 0.0000 29.9790
#
#
#
# Elastic Compliance Matrix: (Units=1/GPa)
#
#
# Indices 1 2 3 4 5 6 
#
# 1 0.012464 -0.003847 -0.002313 0.000000 0.000000 0.000000
# 2 -0.003847 0.017978 -0.006227 0.000000 0.000000 0.000000
# 3 -0.002313 -0.006227 0.015740 0.000000 0.000000 0.000000
# 4 0.000000 0.000000 0.000000 0.043125 0.000000 0.000000
# 5 0.000000 0.000000 0.000000 0.000000 0.040478 0.000000
# 6 0.000000 0.000000 0.000000 0.000000 0.000000 0.033357
#
#
# Mechanical properties :
#
#
# Convention : Reuss Voigt Hill
#
# Bulk Modulus (GPa) = 46.71095 46.86873 46.78984
# Shear Modulus (GPa) = 25.63446 26.25938 25.94692
#
# Velocity S-wave (km/s) = 3.82536 3.87171 3.84860
# Velocity P-wave (km/s) = 6.79529 6.83679 6.81607
#
# Compressibility (1/GPa) = 0.02140826
#
# Stress axis : x y z
#
# Youngs Moduli (GPa) = 80.23215 55.62426 63.53389
#
# Poissons Ratio (x) = 0.21397 0.14696
# Poissons Ratio (y) = 0.30863 0.39560
# Poissons Ratio (z) = 0.18559 0.34635
#
# Static dielectric constant tensor:
#      x y z
#    x 1.642840 0.000000 0.000000 
#    y 0.000000 1.621600 0.000000 
#    z 0.000000 0.000000 1.574220 
# 
# From -- ./inp_files/12768.got.cif
#   From: 2010.05.17/outbox.cif.g08.bks.cpg/sg71_7_cif.got.tgz:12768.got - 2010.06.03 16:22:01.
