data_PCOD9520730
_publ_section_title
;
Structure prediction by ZEFSAII (Michael W. Deem and Ramdas Pophale) SiO2 
 PCOD9520730
Probable space group: I M M M
;
_chemical_formula_sum "Si O2"
_cell_formula_units_Z 96
_cell_length_a 26.682807
_cell_length_b 12.030416
_cell_length_c 17.043763
_cell_angle_alpha 90.000000
_cell_angle_beta 90.000000
_cell_angle_gamma 90.000000
_cell_volume 5471.137714
_symmetry_space_group_name_H-M "I M M M"
_symmetry_group_IT_number 71
_symmetry_cell_setting 'orthorhombic'
loop_
_space_group_symop_operation_xyz
x,y,z
-x,-y,z
x,-y,-z
-x,y,-z
-x,-y,-z
x,y,-z
-x,y,z
x,-y,z
1/2+x,1/2+y,1/2+z
1/2-x,1/2-y,1/2+z
1/2+x,1/2-y,1/2-z
1/2-x,1/2+y,1/2-z
1/2-x,1/2-y,1/2-z
1/2+x,1/2+y,1/2-z
1/2-x,1/2+y,1/2+z
1/2+x,1/2-y,1/2+z
loop_
_atom_site_type_symbol
_atom_site_label
_atom_site_fract_x
_atom_site_fract_y
_atom_site_fract_z
Si Si1 0.945098 0.246321 0.354383
Si Si2 0.444603 0.870132 0.691097
Si Si3 0.844958 0.629647 0.093816
Si Si4 0.425635 0.500000 0.092841
Si Si5 0.242737 0.773028 0.596164
Si Si6 0.347097 0.123702 0.093739
Si Si7 0.693789 0.500000 0.092568
O O1 0.942673 0.288112 0.264916
O O2 0.895597 0.299994 0.392074
O O3 0.000000 0.285049 0.385282
O O4 0.943256 0.114214 0.367733
O O5 0.500000 0.858200 0.653878
O O6 0.397783 0.849306 0.634973
O O7 0.441116 0.000000 0.717341
O O8 0.830413 0.500000 0.109760
O O9 0.800650 0.713087 0.119532
O O10 0.850244 0.638460 0.000000
O O11 0.365571 0.500000 0.098361
O O12 0.438992 0.500000 0.000000
O O13 0.242567 0.770136 0.500000
O O14 0.205258 0.676208 0.623201
O O15 0.216563 0.886748 0.623923
O O16 0.355213 0.000000 0.126088
O O17 0.342117 0.116502 0.000000
O O18 0.706758 0.500000 0.000000
#
# Coordination Sequence:
#
# PCOD9520730 Si02
#       7
#    16  16  16   8  16  16   8
#     4  11  22  35  51  70  99 136 170 210 258 305
#     4   9  19  35  52  73 105 142 171 200 252 313
#     4   9  16  28  53  84 105 127 166 213 255 300
#     4  11  21  34  55  80 101 127 172 224 260 286
#     4   9  15  27  48  74 102 128 162 206 253 301
#     4  10  20  32  48  70  99 136 173 208 246 296
#     4   9  14  25  48  73  97 127 157 201 259 302
#
# _framework density 17.546624000000001
#
# number of rings (size 3 to 8) (size 9 to 14) (size 15 to 20)
#    0.000    2.333    2.500    1.250    0.000    3.000 
#    0.000    3.333    1.833    0.000    0.000    0.000 
#    0.000    2.667    0.000    0.000    0.000    0.000 
#
# Total GULP energy -267266.639211 kJ/mol
# GULP energy per Si atom -5568.054984 kJ/mol
# Density = 1.750669 g / cm^3
# Si number density = 17.546624 Si / 1000 Ang^3
#
#
#
# Elastic Constant Matrix: (Units=GPa)
#
#
# Indices 1 2 3 4 5 6 
#
# 1 152.4510 66.7610 32.9631 0.0000 0.0000 0.0000
# 2 66.7610 102.1886 20.6294 0.0000 0.0000 0.0000
# 3 32.9631 20.6294 16.3285 0.0000 0.0000 0.0000
# 4 0.0000 0.0000 0.0000 16.4487 0.0000 0.0000
# 5 0.0000 0.0000 0.0000 0.0000 24.3421 0.0000
# 6 0.0000 0.0000 0.0000 0.0000 0.0000 8.1028
#
#
#
# Elastic Compliance Matrix: (Units=1/GPa)
#
#
# Indices 1 2 3 4 5 6 
#
# 1 0.012883 -0.004250 -0.020638 0.000000 0.000000 0.000000
# 2 -0.004250 0.014539 -0.009787 0.000000 0.000000 0.000000
# 3 -0.020638 -0.009787 0.115270 0.000000 0.000000 0.000000
# 4 0.000000 0.000000 0.000000 0.060795 0.000000 0.000000
# 5 0.000000 0.000000 0.000000 0.000000 0.041081 0.000000
# 6 0.000000 0.000000 0.000000 0.000000 0.000000 0.123414
#
#
# Mechanical properties :
#
#
# Convention : Reuss Voigt Hill
#
# Bulk Modulus (GPa) = 13.63499 56.85278 35.24388
# Shear Modulus (GPa) = 10.82767 19.81969 15.32368
#
# Velocity S-wave (km/s) = 2.48680 3.36452 2.95839
# Velocity P-wave (km/s) = 4.00415 6.89671 5.63905
#
# Compressibility (1/GPa) = 0.07334073
#
# Stress axis : x y z
#
# Youngs Moduli (GPa) = 77.62072 68.78277 8.67527
#
# Poissons Ratio (x) = 0.29236 0.17904
# Poissons Ratio (y) = 0.32992 0.08491
# Poissons Ratio (z) = 1.60192 0.67320
#
# Static dielectric constant tensor:
#      x y z
#    x 1.627910 0.000000 0.000000 
#    y 0.000000 1.607710 0.000000 
#    z 0.000000 0.000000 1.588770 
# 
# From -- ./inp_files/48790.got.cif
#   From: 2010.05.17/outbox.cif.g08.bks.cpg/sg71_25_cif.got.tgz:48790.got - 2010.06.03 16:22:01.
