data_PCOD9520957
_publ_section_title
;
Structure prediction by ZEFSAII (Michael W. Deem and Ramdas Pophale) SiO2 
 PCOD9520957
Probable space group: I M M M
;
_chemical_formula_sum "Si O2"
_cell_formula_units_Z 72
_cell_length_a 9.425014
_cell_length_b 22.793974
_cell_length_c 18.803027
_cell_angle_alpha 90.000000
_cell_angle_beta 90.000000
_cell_angle_gamma 90.000000
_cell_volume 4039.520554
_symmetry_space_group_name_H-M "I M M M"
_symmetry_group_IT_number 71
_symmetry_cell_setting 'orthorhombic'
loop_
_space_group_symop_operation_xyz
x,y,z
-x,-y,z
x,-y,-z
-x,y,-z
-x,-y,-z
x,y,-z
-x,y,z
x,-y,z
1/2+x,1/2+y,1/2+z
1/2-x,1/2-y,1/2+z
1/2+x,1/2-y,1/2-z
1/2-x,1/2+y,1/2-z
1/2-x,1/2-y,1/2-z
1/2+x,1/2+y,1/2-z
1/2-x,1/2+y,1/2+z
1/2+x,1/2-y,1/2+z
loop_
_atom_site_type_symbol
_atom_site_label
_atom_site_fract_x
_atom_site_fract_y
_atom_site_fract_z
Si Si1 0.340548 0.888727 0.915737
Si Si2 0.167802 0.334178 0.804344
Si Si3 0.662709 0.500000 0.412864
Si Si4 0.327604 0.932674 0.581644
Si Si5 0.165714 0.801990 0.836829
O O1 0.500000 0.888217 0.886377
O O2 0.256202 0.829865 0.899624
O O3 0.247673 0.942902 0.888110
O O4 0.350973 0.896836 0.000000
O O5 0.214604 0.384016 0.860329
O O6 0.177833 0.268322 0.835828
O O7 0.263251 0.329764 0.733880
O O8 0.000000 0.343644 0.787357
O O9 0.500000 0.500000 0.389660
O O10 0.661144 0.500000 0.500000
O O11 0.282666 0.919507 0.500000
O O12 0.500000 0.931973 0.581192
O O13 0.284572 0.000000 0.598450
O O14 0.000000 0.817122 0.841269
#
# Coordination Sequence:
#
# PCOD9520957 Si02
#       5
#    16  16   8  16  16
#     4  10  20  34  52  74 101 134 173 214 256 306
#     4   9  18  33  52  73 101 136 172 212 260 315
#     4   9  17  31  51  73  99 129 160 201 252 299
#     4   8  14  27  50  79 105 127 159 209 264 315
#     4  10  20  33  50  72 101 138 175 215 261 307
#
# _framework density 17.823898
#
# number of rings (size 3 to 8) (size 9 to 14) (size 15 to 20)
#    0.000    2.778    0.000    2.333    0.000    4.444 
#    2.000    2.222    0.000    0.667    0.000    1.556 
#    0.000    0.000    0.000    0.000    0.000    0.000 
#
# Total GULP energy -200510.406869 kJ/mol
# GULP energy per Si atom -5569.733524 kJ/mol
# Density = 1.778333 g / cm^3
# Si number density = 17.823898 Si / 1000 Ang^3
#
#
#
# Elastic Constant Matrix: (Units=GPa)
#
#
# Indices 1 2 3 4 5 6 
#
# 1 106.4518 42.5260 17.3580 0.0000 0.0000 0.0000
# 2 42.5260 81.7363 46.9916 0.0000 0.0000 0.0000
# 3 17.3580 46.9916 40.1121 0.0000 0.0000 0.0000
# 4 0.0000 0.0000 0.0000 33.2965 0.0000 0.0000
# 5 0.0000 0.0000 0.0000 0.0000 22.3711 0.0000
# 6 0.0000 0.0000 0.0000 0.0000 0.0000 20.2177
#
#
#
# Elastic Compliance Matrix: (Units=1/GPa)
#
#
# Indices 1 2 3 4 5 6 
#
# 1 0.012424 -0.010332 0.006727 0.000000 0.000000 0.000000
# 2 -0.010332 0.046066 -0.049495 0.000000 0.000000 0.000000
# 3 0.006727 -0.049495 0.080003 0.000000 0.000000 0.000000
# 4 0.000000 0.000000 0.000000 0.030033 0.000000 0.000000
# 5 0.000000 0.000000 0.000000 0.000000 0.044701 0.000000
# 6 0.000000 0.000000 0.000000 0.000000 0.000000 0.049462
#
#
# Mechanical properties :
#
#
# Convention : Reuss Voigt Hill
#
# Bulk Modulus (GPa) = 30.96599 49.11681 40.04140
# Shear Modulus (GPa) = 13.16996 23.27202 18.22099
#
# Velocity S-wave (km/s) = 2.72121 3.61732 3.20078
# Velocity P-wave (km/s) = 5.22344 6.71291 6.01446
#
# Compressibility (1/GPa) = 0.03229349
#
# Stress axis : x y z
#
# Youngs Moduli (GPa) = 80.48679 21.70820 12.49957
#
# Poissons Ratio (x) = 0.22429 -0.08409
# Poissons Ratio (y) = 0.83158 0.61867
# Poissons Ratio (z) = -0.54146 1.07445
#
# Static dielectric constant tensor:
#      x y z
#    x 1.604580 0.000000 0.000000 
#    y 0.000000 1.615830 0.000000 
#    z 0.000000 0.000000 1.634250 
# 
# From -- ./inp_files/8004.got.cif
#   From: 2010.05.17/outbox.cif.g08.bks.cpg/sg71_5_cif.got.tgz:8004.got - 2010.06.03 16:22:01.
