data_PCOD9520484
_publ_section_title
;
Structure prediction by ZEFSAII (Michael W. Deem and Ramdas Pophale) SiO2 
 PCOD9520484
Probable space group: I M M M
;
_chemical_formula_sum "Si O2"
_cell_formula_units_Z 68
_cell_length_a 7.584165
_cell_length_b 19.680121
_cell_length_c 20.737775
_cell_angle_alpha 90.000000
_cell_angle_beta 90.000000
_cell_angle_gamma 90.000000
_cell_volume 3095.263991
_symmetry_space_group_name_H-M "I M M M"
_symmetry_group_IT_number 71
_symmetry_cell_setting 'orthorhombic'
loop_
_space_group_symop_operation_xyz
x,y,z
-x,-y,z
x,-y,-z
-x,y,-z
-x,-y,-z
x,y,-z
-x,y,z
x,-y,z
1/2+x,1/2+y,1/2+z
1/2-x,1/2-y,1/2+z
1/2+x,1/2-y,1/2-z
1/2-x,1/2+y,1/2-z
1/2-x,1/2-y,1/2-z
1/2+x,1/2+y,1/2-z
1/2-x,1/2+y,1/2+z
1/2+x,1/2-y,1/2+z
loop_
_atom_site_type_symbol
_atom_site_label
_atom_site_fract_x
_atom_site_fract_y
_atom_site_fract_z
Si Si1 0.715443 0.923505 0.360759
Si Si2 0.794782 0.619631 0.000000
Si Si3 0.500000 0.000000 0.089451
Si Si4 0.710750 0.223110 0.000000
Si Si5 0.289243 0.170450 0.244345
Si Si6 0.303204 0.385881 0.605809
O O1 0.500000 0.920168 0.362145
O O2 0.780385 0.907488 0.432752
O O3 0.773970 0.869206 0.307913
O O4 0.763600 0.000000 0.341706
O O5 0.783591 0.700922 0.000000
O O6 0.000000 0.598459 0.000000
O O7 0.345913 0.059303 0.090224
O O8 0.771913 0.180439 0.938123
O O9 0.500000 0.226987 0.000000
O O10 0.500000 0.161689 0.239804
O O11 0.250000 0.250000 0.250000
O O12 0.211794 0.137269 0.180032
O O13 0.500000 0.411746 0.593003
#
# Coordination Sequence:
#
# PCOD9520484 Si02
#       6
#    16   8   4   8  16  16
#     4   9  19  34  61  93 133 176 222 280 344 405
#     4  10  19  36  64 101 131 169 224 279 339 412
#     4  12  26  49  70 102 142 173 232 280 350 413
#     4  12  24  45  68  95 135 179 225 282 338 402
#     4  11  22  39  64  96 137 184 237 289 344 412
#     4  12  26  45  71 101 136 183 230 282 345 412
#
# _framework density 21.969047
#
# number of rings (size 3 to 8) (size 9 to 14) (size 15 to 20)
#    0.000    1.176    2.353    3.882    1.647    4.235 
#    0.000    2.353    0.000    4.235    0.000    0.000 
#    0.000    0.000    0.000    0.000    0.000    0.000 
#
# Total GULP energy -189752.779384 kJ/mol
# GULP energy per Si atom -5580.964100 kJ/mol
# Density = 2.191904 g / cm^3
# Si number density = 21.969047 Si / 1000 Ang^3
#
#
#
# Elastic Constant Matrix: (Units=GPa)
#
#
# Indices 1 2 3 4 5 6 
#
# 1 123.6296 -5.1015 -2.0592 0.0000 0.0000 0.0000
# 2 -5.1015 135.8720 42.4909 0.0000 0.0000 0.0000
# 3 -2.0592 42.4909 137.1027 0.0000 0.0000 0.0000
# 4 0.0000 0.0000 0.0000 -21.5659 0.0000 0.0000
# 5 0.0000 0.0000 0.0000 0.0000 -34.8472 0.0000
# 6 0.0000 0.0000 0.0000 0.0000 0.0000 35.9912
#
#
#
# Elastic Compliance Matrix: (Units=1/GPa)
#
#
# Indices 1 2 3 4 5 6 
#
# 1 0.008101 0.000295 0.000030 0.000000 0.000000 0.000000
# 2 0.000295 0.008160 -0.002525 0.000000 0.000000 0.000000
# 3 0.000030 -0.002525 0.008077 0.000000 0.000000 0.000000
# 4 0.000000 0.000000 0.000000 -0.046370 0.000000 0.000000
# 5 0.000000 0.000000 0.000000 0.000000 -0.028697 0.000000
# 6 0.000000 0.000000 0.000000 0.000000 0.000000 0.027785
#
#
# Mechanical properties :
#
#
# Convention : Reuss Voigt Hill
#
# Bulk Modulus (GPa) = 50.15236 51.91830 51.03533
# Shear Modulus (GPa) = -420.25648 20.00056 -200.12796
#
# Velocity S-wave (km/s) = -13.84594 3.02055 -9.55475
# Velocity P-wave (km/s) = 15.25566 5.98738 9.92186
#
# Compressibility (1/GPa) = 0.01993924
#
# Stress axis : x y z
#
# Youngs Moduli (GPa) = 123.43635 122.54203 123.81286
#
# Poissons Ratio (x) = -0.03611 -0.00376
# Poissons Ratio (y) = -0.03637 0.31259
# Poissons Ratio (z) = -0.00375 0.30938
#
# Static dielectric constant tensor:
#      x y z
#    x 1.820300 0.000000 0.000000 
#    y 0.000000 1.737930 0.000000 
#    z 0.000000 0.000000 1.835400 
# 
# From -- ./inp_files/50043.got.cif
#   From: 2010.05.17/outbox.cif.g08.bks.cpg/sg71_26_cif.got.tgz:50043.got - 2010.06.03 16:22:01.
