data_PCOD9520513
_publ_section_title
;
Structure prediction by ZEFSAII (Michael W. Deem and Ramdas Pophale) SiO2 
 PCOD9520513
Probable space group: I M M M
;
_chemical_formula_sum "Si O2"
_cell_formula_units_Z 50
_cell_length_a 7.745113
_cell_length_b 15.970344
_cell_length_c 21.373015
_cell_angle_alpha 90.000000
_cell_angle_beta 90.000000
_cell_angle_gamma 90.000000
_cell_volume 2643.673513
_symmetry_space_group_name_H-M "I M M M"
_symmetry_group_IT_number 71
_symmetry_cell_setting 'orthorhombic'
loop_
_space_group_symop_operation_xyz
x,y,z
-x,-y,z
x,-y,-z
-x,y,-z
-x,-y,-z
x,y,-z
-x,y,z
x,-y,z
1/2+x,1/2+y,1/2+z
1/2-x,1/2-y,1/2+z
1/2+x,1/2-y,1/2-z
1/2-x,1/2+y,1/2-z
1/2-x,1/2-y,1/2-z
1/2+x,1/2+y,1/2-z
1/2-x,1/2+y,1/2+z
1/2+x,1/2-y,1/2+z
loop_
_atom_site_type_symbol
_atom_site_label
_atom_site_fract_x
_atom_site_fract_y
_atom_site_fract_z
Si Si1 0.198371 0.898350 0.299967
Si Si2 0.000000 0.164036 0.928592
Si Si3 0.500000 0.854046 0.605830
Si Si4 0.696517 0.898788 0.840655
Si Si5 0.500000 0.000000 0.500000
O O1 0.332883 0.862833 0.349525
O O2 0.247781 0.872529 0.229385
O O3 0.000000 0.875392 0.312931
O O4 0.211274 0.000000 0.302421
O O5 0.000000 0.264075 0.925886
O O6 0.167478 0.132960 0.890942
O O7 0.000000 0.134203 0.000000
O O8 0.500000 0.927072 0.554893
O O9 0.500000 0.871702 0.852688
O O10 0.700682 0.000000 0.841115
#
# Coordination Sequence:
#
# PCOD9520513 Si02
#       5
#    16   8   8  16   2
#     4  10  19  37  67  97 121 161 217 272 316 372
#     4  12  27  42  60  94 136 175 209 267 326 382
#     4  12  24  43  68  90 133 174 217 268 316 376
#     4  10  21  41  68  96 129 166 212 265 323 389
#     4  12  24  48  70  92 130 190 214 244 322 400
#
# _framework density 18.913077999999999
#
# number of rings (size 3 to 8) (size 9 to 14) (size 15 to 20)
#    0.000    1.280    5.600    0.480    0.000    4.480 
#    0.000    3.200    0.000    0.000    0.000    0.000 
#    0.000    0.000    0.000    0.000    0.000    0.000 
#
# Total GULP energy -139485.996169 kJ/mol
# GULP energy per Si atom -5579.439847 kJ/mol
# Density = 1.887003 g / cm^3
# Si number density = 18.913078 Si / 1000 Ang^3
#
#
#
# Elastic Constant Matrix: (Units=GPa)
#
#
# Indices 1 2 3 4 5 6 
#
# 1 178.8407 25.2585 82.2628 0.0000 0.0000 0.0000
# 2 25.2585 31.6598 23.6302 0.0000 0.0000 0.0000
# 3 82.2628 23.6302 163.7661 0.0000 0.0000 0.0000
# 4 0.0000 0.0000 0.0000 66.7453 0.0000 0.0000
# 5 0.0000 0.0000 0.0000 0.0000 9.9500 0.0000
# 6 0.0000 0.0000 0.0000 0.0000 0.0000 6.7773
#
#
#
# Elastic Compliance Matrix: (Units=1/GPa)
#
#
# Indices 1 2 3 4 5 6 
#
# 1 0.007624 -0.003613 -0.003308 0.000000 0.000000 0.000000
# 2 -0.003613 0.037110 -0.003540 0.000000 0.000000 0.000000
# 3 -0.003308 -0.003540 0.008279 0.000000 0.000000 0.000000
# 4 0.000000 0.000000 0.000000 0.014982 0.000000 0.000000
# 5 0.000000 0.000000 0.000000 0.000000 0.100502 0.000000
# 6 0.000000 0.000000 0.000000 0.000000 0.000000 0.147551
#
#
# Mechanical properties :
#
#
# Convention : Reuss Voigt Hill
#
# Bulk Modulus (GPa) = 31.16166 70.72997 50.94582
# Shear Modulus (GPa) = 14.38158 32.90221 23.64189
#
# Velocity S-wave (km/s) = 2.76053 4.17544 3.53941
# Velocity P-wave (km/s) = 5.16457 7.79258 6.61049
#
# Compressibility (1/GPa) = 0.03209072
#
# Stress axis : x y z
#
# Youngs Moduli (GPa) = 131.17326 26.94660 120.79096
#
# Poissons Ratio (x) = 0.09736 0.39959
# Poissons Ratio (y) = 0.47393 0.42758
# Poissons Ratio (z) = 0.43393 0.09539
#
# Static dielectric constant tensor:
#      x y z
#    x 1.636550 0.000000 0.000000 
#    y 0.000000 1.664870 0.000000 
#    z 0.000000 0.000000 1.613270 
# 
# From -- ./inp_files/41675.got.cif
#   From: 2010.05.17/outbox.cif.g08.bks.cpg/sg71_21_cif.got.tgz:41675.got - 2010.06.03 16:22:01.
