data_PCOD9520557
_publ_section_title
;
Structure prediction by ZEFSAII (Michael W. Deem and Ramdas Pophale) SiO2 
 PCOD9520557
Probable space group: I M M M
;
_chemical_formula_sum "Si O2"
_cell_formula_units_Z 80
_cell_length_a 20.115594
_cell_length_b 26.110278
_cell_length_c 8.690999
_cell_angle_alpha 90.000000
_cell_angle_beta 90.000000
_cell_angle_gamma 90.000000
_cell_volume 4564.719099
_symmetry_space_group_name_H-M "I M M M"
_symmetry_group_IT_number 71
_symmetry_cell_setting 'orthorhombic'
loop_
_space_group_symop_operation_xyz
x,y,z
-x,-y,z
x,-y,-z
-x,y,-z
-x,-y,-z
x,y,-z
-x,y,z
x,-y,z
1/2+x,1/2+y,1/2+z
1/2-x,1/2-y,1/2+z
1/2+x,1/2-y,1/2-z
1/2-x,1/2+y,1/2-z
1/2-x,1/2-y,1/2-z
1/2+x,1/2+y,1/2-z
1/2-x,1/2+y,1/2+z
1/2+x,1/2-y,1/2+z
loop_
_atom_site_type_symbol
_atom_site_label
_atom_site_fract_x
_atom_site_fract_y
_atom_site_fract_z
Si Si1 0.243591 0.830813 0.185729
Si Si2 0.355493 0.761916 0.316284
Si Si3 0.119187 0.442347 0.176069
Si Si4 0.500000 0.235579 0.173286
Si Si5 0.238280 0.943889 0.182237
Si Si6 0.000000 0.613846 0.673228
O O1 0.314647 0.810838 0.249770
O O2 0.189869 0.787286 0.225564
O O3 0.219052 0.887040 0.240244
O O4 0.249703 0.832764 0.000000
O O5 0.357183 0.767054 0.500000
O O6 0.429998 0.752940 0.255697
O O7 0.090899 0.500000 0.178630
O O8 0.183028 0.442448 0.284723
O O9 0.064191 0.404335 0.235490
O O10 0.139646 0.431434 0.000000
O O11 0.500000 0.174304 0.163229
O O12 0.500000 0.257051 0.000000
O O13 0.215010 0.000000 0.244812
O O14 0.224842 0.944753 0.000000
O O15 0.000000 0.592015 0.500000
#
# Coordination Sequence:
#
# PCOD9520557 Si02
#       6
#    16  16  16   8  16   8
#     4   9  18  33  51  73 100 127 158 196 236 281
#     4  10  20  33  51  73  97 127 161 197 238 284
#     4  10  20  31  42  60  87 117 151 191 228 262
#     4  11  23  36  48  67  95 123 156 199 242 283
#     4   9  17  30  48  68  91 120 151 184 226 275
#     4  11  22  32  43  58  80 115 155 192 228 269
#
# _framework density 17.525721000000001
#
# number of rings (size 3 to 8) (size 9 to 14) (size 15 to 20)
#    0.000    2.200    0.000    3.300    0.000   10.400 
#    0.000    0.000    0.000    0.000    0.000    0.700 
#    0.000    5.600    0.000    0.000    0.000    0.000 
#
# Total GULP energy -222820.418370 kJ/mol
# GULP energy per Si atom -5570.510459 kJ/mol
# Density = 1.748583 g / cm^3
# Si number density = 17.525721 Si / 1000 Ang^3
#
#
#
# Elastic Constant Matrix: (Units=GPa)
#
#
# Indices 1 2 3 4 5 6 
#
# 1 72.9834 20.7311 16.2506 0.0000 0.0000 0.0000
# 2 20.7311 109.7757 12.8890 0.0000 0.0000 0.0000
# 3 16.2506 12.8890 18.1787 0.0000 0.0000 0.0000
# 4 0.0000 0.0000 0.0000 18.0403 0.0000 0.0000
# 5 0.0000 0.0000 0.0000 0.0000 17.3092 0.0000
# 6 0.0000 0.0000 0.0000 0.0000 0.0000 24.4190
#
#
#
# Elastic Compliance Matrix: (Units=1/GPa)
#
#
# Indices 1 2 3 4 5 6 
#
# 1 0.017357 -0.001588 -0.014390 0.000000 0.000000 0.000000
# 2 -0.001588 0.010082 -0.005728 0.000000 0.000000 0.000000
# 3 -0.014390 -0.005728 0.071935 0.000000 0.000000 0.000000
# 4 0.000000 0.000000 0.000000 0.055432 0.000000 0.000000
# 5 0.000000 0.000000 0.000000 0.000000 0.057773 0.000000
# 6 0.000000 0.000000 0.000000 0.000000 0.000000 0.040952
#
#
# Mechanical properties :
#
#
# Convention : Reuss Voigt Hill
#
# Bulk Modulus (GPa) = 17.86979 33.40879 25.63929
# Shear Modulus (GPa) = 15.84301 22.02484 18.93393
#
# Velocity S-wave (km/s) = 3.00990 3.54886 3.29043
# Velocity P-wave (km/s) = 4.72205 5.99138 5.39418
#
# Compressibility (1/GPa) = 0.05596038
#
# Stress axis : x y z
#
# Youngs Moduli (GPa) = 57.61375 99.18638 13.90149
#
# Poissons Ratio (x) = 0.15754 0.20004
# Poissons Ratio (y) = 0.09151 0.07963
# Poissons Ratio (z) = 0.82905 0.56819
#
# Static dielectric constant tensor:
#      x y z
#    x 1.556770 0.000000 0.000000 
#    y 0.000000 1.674240 0.000000 
#    z 0.000000 0.000000 1.612380 
# 
# From -- ./inp_files/8419.got.cif
#   From: 2010.05.17/outbox.cif.g08.bks.cpg/sg71_5_cif.got.tgz:8419.got - 2010.06.03 16:22:01.
