data_PCOD9520637
_publ_section_title
;
Structure prediction by ZEFSAII (Michael W. Deem and Ramdas Pophale) SiO2 
 PCOD9520637
Probable space group: I M M M
;
_chemical_formula_sum "Si O2"
_cell_formula_units_Z 76
_cell_length_a 13.422933
_cell_length_b 12.045009
_cell_length_c 24.382944
_cell_angle_alpha 90.000000
_cell_angle_beta 90.000000
_cell_angle_gamma 90.000000
_cell_volume 3942.218508
_symmetry_space_group_name_H-M "I M M M"
_symmetry_group_IT_number 71
_symmetry_cell_setting 'orthorhombic'
loop_
_space_group_symop_operation_xyz
x,y,z
-x,-y,z
x,-y,-z
-x,y,-z
-x,-y,-z
x,y,-z
-x,y,z
x,-y,z
1/2+x,1/2+y,1/2+z
1/2-x,1/2-y,1/2+z
1/2+x,1/2-y,1/2-z
1/2-x,1/2+y,1/2-z
1/2-x,1/2-y,1/2-z
1/2+x,1/2+y,1/2-z
1/2-x,1/2+y,1/2+z
1/2+x,1/2-y,1/2+z
loop_
_atom_site_type_symbol
_atom_site_label
_atom_site_fract_x
_atom_site_fract_y
_atom_site_fract_z
Si Si1 0.614875 0.368397 0.344876
Si Si2 0.383896 0.000000 0.721969
Si Si3 0.219704 0.000000 0.627574
Si Si4 0.000000 0.000000 0.620439
Si Si5 0.000000 0.240193 0.564847
Si Si6 0.706739 0.739808 0.885663
Si Si7 0.385375 0.757507 0.229733
O O1 0.500000 0.345311 0.360959
O O2 0.628625 0.500000 0.340830
O O3 0.695902 0.315598 0.385612
O O4 0.628044 0.313776 0.284658
O O5 0.369959 0.887240 0.756208
O O6 0.500000 0.000000 0.703025
O O7 0.306256 0.000000 0.672465
O O8 0.227393 0.114722 0.593934
O O9 0.105683 0.000000 0.651432
O O10 0.000000 0.888690 0.584228
O O11 0.104959 0.286363 0.588099
O O12 0.000000 0.248850 0.500000
O O13 0.681700 0.724354 0.821072
O O14 0.500000 0.742813 0.212178
#
# Coordination Sequence:
#
# PCOD9520637 Si02
#       7
#    16   8   8   4   8  16  16
#     4  10  22  36  53  81 115 150 180 222 271 331
#     4  10  20  32  49  75 112 151 184 223 264 322
#     4  10  20  31  50  80 107 145 188 212 270 328
#     4   8  19  36  56  86 116 148 174 236 287 332
#     4  10  21  40  61  84 109 143 192 242 290 329
#     4  11  21  35  55  79 110 146 185 233 276 327
#     4  10  20  33  49  77 114 149 189 220 269 325
#
# _framework density 19.278485
#
# number of rings (size 3 to 8) (size 9 to 14) (size 15 to 20)
#    0.000    1.895    3.158    0.789    2.947    0.000 
#    0.000    0.526    0.000    1.895    0.000    1.474 
#    0.000    8.421    0.000    0.000    0.000    0.000 
#
# Total GULP energy -212043.910065 kJ/mol
# GULP energy per Si atom -5580.102896 kJ/mol
# Density = 1.923461 g / cm^3
# Si number density = 19.278485 Si / 1000 Ang^3
#
#
#
# Elastic Constant Matrix: (Units=GPa)
#
#
# Indices 1 2 3 4 5 6 
#
# 1 141.3670 54.2794 46.6186 0.0000 0.0000 0.0000
# 2 54.2794 89.5352 13.4854 0.0000 0.0000 0.0000
# 3 46.6186 13.4854 32.5837 0.0000 0.0000 0.0000
# 4 0.0000 0.0000 0.0000 3.9929 0.0000 0.0000
# 5 0.0000 0.0000 0.0000 0.0000 10.6720 0.0000
# 6 0.0000 0.0000 0.0000 0.0000 0.0000 31.2517
#
#
#
# Elastic Compliance Matrix: (Units=1/GPa)
#
#
# Indices 1 2 3 4 5 6 
#
# 1 0.016642 -0.006935 -0.020940 0.000000 0.000000 0.000000
# 2 -0.006935 0.014801 0.003796 0.000000 0.000000 0.000000
# 3 -0.020940 0.003796 0.059079 0.000000 0.000000 0.000000
# 4 0.000000 0.000000 0.000000 0.250445 0.000000 0.000000
# 5 0.000000 0.000000 0.000000 0.000000 0.093703 0.000000
# 6 0.000000 0.000000 0.000000 0.000000 0.000000 0.031998
#
#
# Mechanical properties :
#
#
# Convention : Reuss Voigt Hill
#
# Bulk Modulus (GPa) = 23.60466 54.69474 39.14970
# Shear Modulus (GPa) = 9.45274 19.12349 14.28812
#
# Velocity S-wave (km/s) = 2.21673 3.15296 2.72535
# Velocity P-wave (km/s) = 4.33849 6.45657 5.50045
#
# Compressibility (1/GPa) = 0.04236452
#
# Stress axis : x y z
#
# Youngs Moduli (GPa) = 60.08898 67.56176 16.92660
#
# Poissons Ratio (x) = 0.46854 0.35444
# Poissons Ratio (y) = 0.41672 -0.06426
# Poissons Ratio (z) = 1.25827 -0.25649
#
# Static dielectric constant tensor:
#      x y z
#    x 1.742160 0.000000 0.000000 
#    y 0.000000 1.722340 0.000000 
#    z 0.000000 0.000000 1.624150 
# 
# From -- ./inp_files/65296.got.cif
#   From: 2010.05.17/outbox.cif.g08.bks.cpg/sg71_33_cif.got.tgz:65296.got - 2010.06.03 16:22:01.
