data_PCOD9520976
_publ_section_title
;
Structure prediction by ZEFSAII (Michael W. Deem and Ramdas Pophale) SiO2 
 PCOD9520976
Probable space group: I M M M
;
_chemical_formula_sum "Si O2"
_cell_formula_units_Z 80
_cell_length_a 7.366674
_cell_length_b 20.156323
_cell_length_c 25.554209
_cell_angle_alpha 90.000000
_cell_angle_beta 90.000000
_cell_angle_gamma 90.000000
_cell_volume 3794.418271
_symmetry_space_group_name_H-M "I M M M"
_symmetry_group_IT_number 71
_symmetry_cell_setting 'orthorhombic'
loop_
_space_group_symop_operation_xyz
x,y,z
-x,-y,z
x,-y,-z
-x,y,-z
-x,-y,-z
x,y,-z
-x,y,z
x,-y,z
1/2+x,1/2+y,1/2+z
1/2-x,1/2-y,1/2+z
1/2+x,1/2-y,1/2-z
1/2-x,1/2+y,1/2-z
1/2-x,1/2-y,1/2-z
1/2+x,1/2+y,1/2-z
1/2-x,1/2+y,1/2+z
1/2+x,1/2-y,1/2+z
loop_
_atom_site_type_symbol
_atom_site_label
_atom_site_fract_x
_atom_site_fract_y
_atom_site_fract_z
Si Si1 0.779193 0.889400 0.141862
Si Si2 0.721459 0.500000 0.560000
Si Si3 0.780249 0.000000 0.659969
Si Si4 0.223082 0.578977 0.000000
Si Si5 0.219946 0.000000 0.221801
Si Si6 0.717565 0.249589 0.313050
Si Si7 0.293388 0.137566 0.392032
O O1 0.722475 0.933283 0.091513
O O2 0.717900 0.815775 0.156522
O O3 0.000000 0.887104 0.139399
O O4 0.724094 0.935311 0.190441
O O5 0.500000 0.500000 0.560815
O O6 0.780054 0.500000 0.500000
O O7 0.707784 0.065527 0.633594
O O8 0.720605 0.000000 0.719542
O O9 0.000000 0.000000 0.656882
O O10 0.285277 0.620277 0.949080
O O11 0.277012 0.500000 0.000000
O O12 0.000000 0.577324 0.000000
O O13 0.000000 0.000000 0.221389
O O14 0.500000 0.248846 0.315916
O O15 0.750000 0.250000 0.250000
O O16 0.785021 0.187526 0.348174
O O17 0.500000 0.160558 0.401825
#
# Coordination Sequence:
#
# PCOD9520976 Si02
#       7
#    16   8   8   8   8  16  16
#     4   8  14  26  41  62  93 126 156 190 240 291
#     4   8  13  23  41  65  96 127 154 195 247 292
#     4  11  20  30  49  75  96 125 168 212 255 304
#     4   9  16  32  54  68  92 131 167 207 252 305
#     4   8  14  24  41  62  89 122 153 189 239 294
#     4  10  20  33  50  73 103 135 168 209 251 299
#     4  10  20  34  51  71  97 134 171 208 255 304
#
# _framework density 21.083600000000001
#
# number of rings (size 3 to 8) (size 9 to 14) (size 15 to 20)
#    0.000    2.800    1.000    2.700    0.000    2.400 
#    1.800    1.000    0.000    0.000    0.000    0.000 
#    0.000    0.800    0.000    0.000    0.000    0.000 
#
# Total GULP energy -222874.338236 kJ/mol
# GULP energy per Si atom -5571.858456 kJ/mol
# Density = 2.103561 g / cm^3
# Si number density = 21.083600 Si / 1000 Ang^3
#
#
#
# Elastic Constant Matrix: (Units=GPa)
#
#
# Indices 1 2 3 4 5 6 
#
# 1 79.7838 -1.2568 2.8004 0.0000 0.0000 0.0000
# 2 -1.2568 178.7360 101.7731 0.0000 0.0000 0.0000
# 3 2.8004 101.7731 228.9659 0.0000 0.0000 0.0000
# 4 0.0000 0.0000 0.0000 25.8135 0.0000 0.0000
# 5 0.0000 0.0000 0.0000 0.0000 -11.9545 0.0000
# 6 0.0000 0.0000 0.0000 0.0000 0.0000 368.0108
#
#
#
# Elastic Compliance Matrix: (Units=1/GPa)
#
#
# Indices 1 2 3 4 5 6 
#
# 1 0.012547 0.000235 -0.000258 0.000000 0.000000 0.000000
# 2 0.000235 0.007495 -0.003334 0.000000 0.000000 0.000000
# 3 -0.000258 -0.003334 0.005853 0.000000 0.000000 0.000000
# 4 0.000000 0.000000 0.000000 0.038739 0.000000 0.000000
# 5 0.000000 0.000000 0.000000 0.000000 -0.083650 0.000000
# 6 0.000000 0.000000 0.000000 0.000000 0.000000 0.002717
#
#
# Mechanical properties :
#
#
# Convention : Reuss Voigt Hill
#
# Bulk Modulus (GPa) = 52.13762 77.12432 64.63097
# Shear Modulus (GPa) = -1566.78149 101.98522 -732.39814
#
# Velocity S-wave (km/s) = -27.28995 6.96253 -18.65830
# Velocity P-wave (km/s) = 31.11600 10.06456 20.81959
#
# Compressibility (1/GPa) = 0.01918001
#
# Stress axis : x y z
#
# Youngs Moduli (GPa) = 79.70264 133.42040 170.86088
#
# Poissons Ratio (x) = -0.03137 0.04407
# Poissons Ratio (y) = -0.01874 0.56971
# Poissons Ratio (z) = 0.02056 0.44487
#
# Static dielectric constant tensor:
#      x y z
#    x 1.858240 0.000000 0.000000 
#    y 0.000000 1.746180 0.000000 
#    z 0.000000 0.000000 1.758290 
# 
# From -- ./inp_files/57485.got.cif
#   From: 2010.05.17/outbox.cif.g08.bks.cpg/sg71_29_cif.got.tgz:57485.got - 2010.06.03 16:22:01.
