data_PCOD9520409
_publ_section_title
;
Structure prediction by ZEFSAII (Michael W. Deem and Ramdas Pophale) SiO2 
 PCOD9520409
Probable space group: I M M M
;
_chemical_formula_sum "Si O2"
_cell_formula_units_Z 66
_cell_length_a 11.906230
_cell_length_b 8.930896
_cell_length_c 31.606084
_cell_angle_alpha 90.000000
_cell_angle_beta 90.000000
_cell_angle_gamma 90.000000
_cell_volume 3360.779271
_symmetry_space_group_name_H-M "I M M M"
_symmetry_group_IT_number 71
_symmetry_cell_setting 'orthorhombic'
loop_
_space_group_symop_operation_xyz
x,y,z
-x,-y,z
x,-y,-z
-x,y,-z
-x,-y,-z
x,y,-z
-x,y,z
x,-y,z
1/2+x,1/2+y,1/2+z
1/2-x,1/2-y,1/2+z
1/2+x,1/2-y,1/2-z
1/2-x,1/2+y,1/2-z
1/2-x,1/2-y,1/2-z
1/2+x,1/2+y,1/2-z
1/2-x,1/2+y,1/2+z
1/2+x,1/2-y,1/2+z
loop_
_atom_site_type_symbol
_atom_site_label
_atom_site_fract_x
_atom_site_fract_y
_atom_site_fract_z
Si Si1 0.133893 0.177643 0.868608
Si Si2 0.500000 0.818312 0.164468
Si Si3 0.000000 0.727617 0.565376
Si Si4 0.000000 0.000000 0.500000
Si Si5 0.753339 0.169317 0.953837
Si Si6 0.775933 0.820080 0.704409
O O1 0.190584 0.236632 0.912054
O O2 0.181536 0.268495 0.829064
O O3 0.000000 0.187256 0.871510
O O4 0.164470 0.000000 0.863606
O O5 0.500000 0.762730 0.115989
O O6 0.609284 0.752868 0.187242
O O7 0.500000 0.000000 0.164348
O O8 0.119943 0.657550 0.553394
O O9 0.000000 0.873793 0.537184
O O10 0.799135 0.000000 0.955886
O O11 0.772839 0.241781 0.000000
O O12 0.750000 0.750000 0.750000
O O13 0.783853 0.000000 0.706605
#
# Coordination Sequence:
#
# PCOD9520409 Si02
#       6
#    16   8   8   2  16  16
#     4  10  22  41  65  94 132 176 224 278 333 395
#     4  12  25  45  75 106 137 175 229 287 350 418
#     4  12  22  37  59  93 134 178 219 270 343 397
#     4  12  28  36  58  96 150 184 218 280 340 422
#     4  10  19  35  60  91 124 167 218 272 327 390
#     4  12  27  46  70  99 135 177 224 278 342 408
#
# _framework density 19.638303000000001
#
# number of rings (size 3 to 8) (size 9 to 14) (size 15 to 20)
#    0.000    0.970    3.636    3.636    3.394    1.939 
#    0.000    2.424    0.000    0.000    0.000    2.545 
#    0.000    0.000    0.000    0.000    0.000    0.000 
#
# Total GULP energy -183936.933485 kJ/mol
# GULP energy per Si atom -5573.846469 kJ/mol
# Density = 1.959361 g / cm^3
# Si number density = 19.638303 Si / 1000 Ang^3
#
#
#
# Elastic Constant Matrix: (Units=GPa)
#
#
# Indices 1 2 3 4 5 6 
#
# 1 81.3149 45.2707 59.7451 0.0000 0.0000 0.0000
# 2 45.2707 126.8232 79.3040 0.0000 0.0000 0.0000
# 3 59.7451 79.3040 229.1757 0.0000 0.0000 0.0000
# 4 0.0000 0.0000 0.0000 32.9059 0.0000 0.0000
# 5 0.0000 0.0000 0.0000 0.0000 66.9425 0.0000
# 6 0.0000 0.0000 0.0000 0.0000 0.0000 18.3075
#
#
#
# Elastic Compliance Matrix: (Units=1/GPa)
#
#
# Indices 1 2 3 4 5 6 
#
# 1 0.016764 -0.004149 -0.002935 0.000000 0.000000 0.000000
# 2 -0.004149 0.011089 -0.002756 0.000000 0.000000 0.000000
# 3 -0.002935 -0.002756 0.006082 0.000000 0.000000 0.000000
# 4 0.000000 0.000000 0.000000 0.030390 0.000000 0.000000
# 5 0.000000 0.000000 0.000000 0.000000 0.014938 0.000000
# 6 0.000000 0.000000 0.000000 0.000000 0.000000 0.054622
#
#
# Mechanical properties :
#
#
# Convention : Reuss Voigt Hill
#
# Bulk Modulus (GPa) = 70.14268 89.55038 79.84653
# Shear Modulus (GPa) = 31.58239 40.49745 36.03992
#
# Velocity S-wave (km/s) = 4.01459 4.54603 4.28855
# Velocity P-wave (km/s) = 7.56862 8.55886 8.07893
#
# Compressibility (1/GPa) = 0.01425666
#
# Stress axis : x y z
#
# Youngs Moduli (GPa) = 59.65210 90.17808 164.41789
#
# Poissons Ratio (x) = 0.37415 0.48249
# Poissons Ratio (y) = 0.24750 0.45308
# Poissons Ratio (z) = 0.17505 0.24850
#
# Static dielectric constant tensor:
#      x y z
#    x 1.682820 0.000000 0.000000 
#    y 0.000000 1.704700 0.000000 
#    z 0.000000 0.000000 1.703930 
# 
# From -- ./inp_files/68854.got.cif
#   From: 2010.05.17/outbox.cif.g08.bks.cpg/sg71_35_cif.got.tgz:68854.got - 2010.06.03 16:22:01.
