data_PCOD9520323
_publ_section_title
;
Structure prediction by ZEFSAII (Michael W. Deem and Ramdas Pophale) SiO2 
 PCOD9520323
Probable space group: I M M M
;
_chemical_formula_sum "Si O2"
_cell_formula_units_Z 88
_cell_length_a 23.850659
_cell_length_b 7.565981
_cell_length_c 22.753806
_cell_angle_alpha 90.000000
_cell_angle_beta 90.000000
_cell_angle_gamma 90.000000
_cell_volume 4106.006953
_symmetry_space_group_name_H-M "I M M M"
_symmetry_group_IT_number 71
_symmetry_cell_setting 'orthorhombic'
loop_
_space_group_symop_operation_xyz
x,y,z
-x,-y,z
x,-y,-z
-x,y,-z
-x,-y,-z
x,y,-z
-x,y,z
x,-y,z
1/2+x,1/2+y,1/2+z
1/2-x,1/2-y,1/2+z
1/2+x,1/2-y,1/2-z
1/2-x,1/2+y,1/2-z
1/2-x,1/2-y,1/2-z
1/2+x,1/2+y,1/2-z
1/2-x,1/2+y,1/2+z
1/2+x,1/2-y,1/2+z
loop_
_atom_site_type_symbol
_atom_site_label
_atom_site_fract_x
_atom_site_fract_y
_atom_site_fract_z
Si Si1 0.061275 0.786700 0.568033
Si Si2 0.066360 0.716190 0.000000
Si Si3 0.561919 0.782822 0.743501
Si Si4 0.887194 0.707017 0.875110
Si Si5 0.767899 0.789999 0.817854
Si Si6 0.350271 0.795887 0.162277
O O1 0.065793 0.737926 0.500000
O O2 0.110847 0.712195 0.606027
O O3 0.000000 0.728067 0.589757
O O4 0.062974 0.000000 0.571493
O O5 0.098016 0.777225 0.940080
O O6 0.067846 0.500000 0.000000
O O7 0.000000 0.765190 0.000000
O O8 0.500000 0.728499 0.763357
O O9 0.573769 0.722211 0.677312
O O10 0.612158 0.717670 0.785206
O O11 0.563064 0.000000 0.745013
O O12 0.900415 0.500000 0.879002
O O13 0.824239 0.718329 0.848039
O O14 0.750000 0.750000 0.750000
O O15 0.711320 0.722968 0.849579
O O16 0.775271 0.000000 0.822462
O O17 0.340680 0.000000 0.179163
#
# Coordination Sequence:
#
# PCOD9520323 Si02
#       6
#    16   8  16  16  16  16
#     4   9  19  36  55  77 108 142 174 215 272 329
#     4   9  18  34  61  93 119 151 200 249 288 339
#     4   9  16  28  50  79 109 138 172 220 275 329
#     4  10  19  35  57  84 116 149 188 233 286 339
#     4  11  22  38  58  81 110 146 186 229 281 337
#     4  10  20  34  53  78 106 141 185 225 268 327
#
# _framework density 21.432015
#
# number of rings (size 3 to 8) (size 9 to 14) (size 15 to 20)
#    0.000    2.273    1.818    2.182    0.000    5.091 
#    1.636    1.364    0.000    2.727    0.000    0.000 
#    0.000    0.000    0.000    0.000    0.000    0.000 
#
# Total GULP energy -245346.909838 kJ/mol
# GULP energy per Si atom -5576.066133 kJ/mol
# Density = 2.138323 g / cm^3
# Si number density = 21.432015 Si / 1000 Ang^3
#
#
#
# Elastic Constant Matrix: (Units=GPa)
#
#
# Indices 1 2 3 4 5 6 
#
# 1 122.6686 -14.2374 49.3515 0.0000 0.0000 0.0000
# 2 -14.2374 47.1711 -4.6903 0.0000 0.0000 0.0000
# 3 49.3515 -4.6903 106.4800 0.0000 0.0000 0.0000
# 4 0.0000 0.0000 0.0000 -12.7167 0.0000 0.0000
# 5 0.0000 0.0000 0.0000 0.0000 364.9856 0.0000
# 6 0.0000 0.0000 0.0000 0.0000 0.0000 16.3457
#
#
#
# Elastic Compliance Matrix: (Units=1/GPa)
#
#
# Indices 1 2 3 4 5 6 
#
# 1 0.010342 0.002656 -0.004676 0.000000 0.000000 0.000000
# 2 0.002656 0.021975 -0.000263 0.000000 0.000000 0.000000
# 3 -0.004676 -0.000263 0.011547 0.000000 0.000000 0.000000
# 4 0.000000 0.000000 0.000000 -0.078637 0.000000 0.000000
# 5 0.000000 0.000000 0.000000 0.000000 0.002740 0.000000
# 6 0.000000 0.000000 0.000000 0.000000 0.000000 0.061178
#
#
# Mechanical properties :
#
#
# Convention : Reuss Voigt Hill
#
# Bulk Modulus (GPa) = 25.44668 37.46303 31.45485
# Shear Modulus (GPa) = 106.81370 90.11597 98.46483
#
# Velocity S-wave (km/s) = 7.06729 6.49143 6.78547
# Velocity P-wave (km/s) = 8.85971 8.58503 8.72345
#
# Compressibility (1/GPa) = 0.03929786
#
# Stress axis : x y z
#
# Youngs Moduli (GPa) = 96.69640 45.50623 86.60150
#
# Poissons Ratio (x) = -0.12088 0.40496
# Poissons Ratio (y) = -0.25687 0.02280
# Poissons Ratio (z) = 0.45217 0.01198
#
# Static dielectric constant tensor:
#      x y z
#    x 1.807790 0.000000 0.000000 
#    y 0.000000 1.890850 0.000000 
#    z 0.000000 0.000000 1.789250 
# 
# From -- ./inp_files/12575.got.cif
#   From: 2010.05.17/outbox.cif.g08.bks.cpg/sg71_7_cif.got.tgz:12575.got - 2010.06.03 16:22:01.
