data_PCOD9520058
_publ_section_title
;
Structure prediction by ZEFSAII (Michael W. Deem and Ramdas Pophale) SiO2 
 PCOD9520058
Probable space group: I M M M
;
_chemical_formula_sum "Si O2"
_cell_formula_units_Z 100
_cell_length_a 21.575202
_cell_length_b 7.840016
_cell_length_c 31.907526
_cell_angle_alpha 90.000000
_cell_angle_beta 90.000000
_cell_angle_gamma 90.000000
_cell_volume 5397.155754
_symmetry_space_group_name_H-M "I M M M"
_symmetry_group_IT_number 71
_symmetry_cell_setting 'orthorhombic'
loop_
_space_group_symop_operation_xyz
x,y,z
-x,-y,z
x,-y,-z
-x,y,-z
-x,-y,-z
x,y,-z
-x,y,z
x,-y,z
1/2+x,1/2+y,1/2+z
1/2-x,1/2-y,1/2+z
1/2+x,1/2-y,1/2-z
1/2-x,1/2+y,1/2-z
1/2-x,1/2-y,1/2-z
1/2+x,1/2+y,1/2-z
1/2-x,1/2+y,1/2+z
1/2+x,1/2-y,1/2+z
loop_
_atom_site_type_symbol
_atom_site_label
_atom_site_fract_x
_atom_site_fract_y
_atom_site_fract_z
Si Si1 0.278768 0.000000 0.000000
Si Si2 0.867567 0.296427 0.208172
Si Si3 0.864737 0.198170 0.695583
Si Si4 0.430591 0.794092 0.949769
Si Si5 0.500000 0.292599 0.203373
Si Si6 0.754789 0.193516 0.850343
Si Si7 0.798371 0.189202 0.565310
Si Si8 0.000000 0.696702 0.800368
O O1 0.281771 0.151848 0.035961
O O2 0.873588 0.500000 0.214928
O O3 0.860291 0.213890 0.253946
O O4 0.809452 0.263178 0.178716
O O5 0.932595 0.231109 0.188253
O O6 0.809177 0.300557 0.675480
O O7 0.934374 0.254632 0.683116
O O8 0.857089 0.000000 0.684018
O O9 0.500000 0.739943 0.937295
O O10 0.372485 0.711993 0.926713
O O11 0.426914 0.000000 0.945890
O O12 0.423619 0.758839 0.000000
O O13 0.500000 0.500000 0.208367
O O14 0.500000 0.210822 0.249631
O O15 0.740757 0.295688 0.892375
O O16 0.769877 0.000000 0.861532
O O17 0.789280 0.000000 0.547554
O O18 0.000000 0.500000 0.814086
#
# Coordination Sequence:
#
# PCOD9520058 Si02
#       8
#     4  16  16  16   8  16  16   8
#     4  12  22  44  61  84 112 143 184 232 294 354
#     4  10  19  34  55  81 109 148 187 229 282 337
#     4  10  19  34  53  76 106 148 193 235 284 336
#     4   9  16  31  54  78 104 134 175 226 277 334
#     4   8  16  30  50  72 100 138 191 240 275 332
#     4  12  24  38  52  77 114 148 188 239 284 336
#     4  12  23  39  61  83 109 145 184 234 288 343
#     4   8  16  30  52  78 106 136 183 230 275 330
#
# _framework density 18.528278
#
# number of rings (size 3 to 8) (size 9 to 14) (size 15 to 20)
#    0.000    1.760    2.400    3.600    0.000    1.600 
#    1.440    0.800    0.000    0.000    0.000    0.000 
#    0.000    1.280    0.000    4.640    0.000    0.080 
#
# Total GULP energy -278485.351300 kJ/mol
# GULP energy per Si atom -5569.707026 kJ/mol
# Density = 1.848611 g / cm^3
# Si number density = 18.528278 Si / 1000 Ang^3
#
#
#
# Elastic Constant Matrix: (Units=GPa)
#
#
# Indices 1 2 3 4 5 6 
#
# 1 84.2818 9.7678 21.6095 0.0000 0.0000 0.0000
# 2 9.7678 89.3194 11.4560 0.0000 0.0000 0.0000
# 3 21.6095 11.4560 40.9065 0.0000 0.0000 0.0000
# 4 0.0000 0.0000 0.0000 8.9186 0.0000 0.0000
# 5 0.0000 0.0000 0.0000 0.0000 -0.0053 0.0000
# 6 0.0000 0.0000 0.0000 0.0000 0.0000 -15.6744
#
#
#
# Elastic Compliance Matrix: (Units=1/GPa)
#
#
# Indices 1 2 3 4 5 6 
#
# 1 0.013754 -0.000594 -0.007100 0.000000 0.000000 0.000000
# 2 -0.000594 0.011639 -0.002946 0.000000 0.000000 0.000000
# 3 -0.007100 -0.002946 0.029021 0.000000 0.000000 0.000000
# 4 0.000000 0.000000 0.000000 0.112125 0.000000 0.000000
# 5 0.000000 0.000000 0.000000 0.000000********** 0.000000
# 6 0.000000 0.000000 0.000000 0.000000 0.000000 -0.063798
#
#
# Mechanical properties :
#
#
# Convention : Reuss Voigt Hill
#
# Bulk Modulus (GPa) = 30.17857 33.35270 31.76564
# Shear Modulus (GPa) = -0.02669 10.09274 5.03302
#
# Velocity S-wave (km/s) = -0.12015 2.33646 1.64994
# Velocity P-wave (km/s) = 4.03782 5.03177 4.56195
#
# Compressibility (1/GPa) = 0.03313609
#
# Stress axis : x y z
#
# Youngs Moduli (GPa) = 72.70586 85.92160 34.45724
#
# Poissons Ratio (x) = 0.05100 0.24463
# Poissons Ratio (y) = 0.04315 0.10151
# Poissons Ratio (z) = 0.51618 0.25311
#
# Static dielectric constant tensor:
#      x y z
#    x 1.674930 0.000000 0.000000 
#    y 0.000000 1.660630 0.000000 
#    z 0.000000 0.000000 1.626910 
# 
# From -- ./inp_files/70794.got.cif
#   From: 2010.05.17/outbox.cif.g08.bks.cpg/sg71_36_cif.got.tgz:70794.got - 2010.06.03 16:22:01.
