data_PCOD9520046
_publ_section_title
;
Structure prediction by ZEFSAII (Michael W. Deem and Ramdas Pophale) SiO2 
 PCOD9520046
Probable space group: I M M M
;
_chemical_formula_sum "Si O2"
_cell_formula_units_Z 104
_cell_length_a 33.179687
_cell_length_b 8.715837
_cell_length_c 20.868377
_cell_angle_alpha 90.000000
_cell_angle_beta 90.000000
_cell_angle_gamma 90.000000
_cell_volume 6034.899726
_symmetry_space_group_name_H-M "I M M M"
_symmetry_group_IT_number 71
_symmetry_cell_setting 'orthorhombic'
loop_
_space_group_symop_operation_xyz
x,y,z
-x,-y,z
x,-y,-z
-x,y,-z
-x,-y,-z
x,y,-z
-x,y,z
x,-y,z
1/2+x,1/2+y,1/2+z
1/2-x,1/2-y,1/2+z
1/2+x,1/2-y,1/2-z
1/2-x,1/2+y,1/2-z
1/2-x,1/2-y,1/2-z
1/2+x,1/2+y,1/2-z
1/2-x,1/2+y,1/2+z
1/2+x,1/2-y,1/2+z
loop_
_atom_site_type_symbol
_atom_site_label
_atom_site_fract_x
_atom_site_fract_y
_atom_site_fract_z
Si Si1 0.283942 0.316293 0.073487
Si Si2 0.154860 0.319037 0.322770
Si Si3 0.570855 0.679345 0.149933
Si Si4 0.133965 0.186119 0.815153
Si Si5 0.544343 0.682518 0.296242
Si Si6 0.500000 0.826461 0.075599
Si Si7 0.194861 0.184514 0.072988
O O1 0.286171 0.500000 0.076119
O O2 0.312017 0.247715 0.128804
O O3 0.238041 0.262173 0.083954
O O4 0.295098 0.268608 0.000000
O O5 0.160338 0.500000 0.316653
O O6 0.111244 0.277680 0.351733
O O7 0.152678 0.245422 0.251663
O O8 0.581009 0.500000 0.142614
O O9 0.550193 0.697533 0.219682
O O10 0.539008 0.736288 0.098995
O O11 0.087396 0.241051 0.822703
O O12 0.161996 0.230734 0.874498
O O13 0.132631 0.000000 0.811164
O O14 0.500000 0.745904 0.314457
O O15 0.543195 0.500000 0.310469
O O16 0.500000 0.000000 0.102642
O O17 0.500000 0.835627 0.000000
O O18 0.200037 0.000000 0.077523
O O19 0.182104 0.219900 0.000000
#
# Coordination Sequence:
#
# PCOD9520046 Si02
#       7
#    16  16  16  16  16   8  16
#     4  10  21  37  56  76  99 134 178 218 261 319
#     4  11  22  35  53  78 107 136 169 219 272 316
#     4  10  19  34  53  71  95 132 174 216 261 309
#     4   9  18  32  52  78 107 139 176 217 262 315
#     4   8  13  25  48  74  96 125 166 207 247 295
#     4  11  23  35  47  69 101 135 174 219 264 309
#     4   9  18  34  55  78 105 138 175 216 264 315
#
# _framework density 17.233094999999999
#
# number of rings (size 3 to 8) (size 9 to 14) (size 15 to 20)
#    0.000    2.385    0.769    3.462    0.000    3.385 
#    0.000    0.000    0.000    0.462    0.000    3.231 
#    0.000    0.000    0.000    7.846    0.000    9.231 
#
# Total GULP energy -289837.924787 kJ/mol
# GULP energy per Si atom -5573.806246 kJ/mol
# Density = 1.719387 g / cm^3
# Si number density = 17.233095 Si / 1000 Ang^3
#
#
#
# Elastic Constant Matrix: (Units=GPa)
#
#
# Indices 1 2 3 4 5 6 
#
# 1 130.9841 30.7058 88.9208 0.0000 0.0000 0.0000
# 2 30.7058 32.3505 27.3567 0.0000 0.0000 0.0000
# 3 88.9208 27.3567 98.9835 0.0000 0.0000 0.0000
# 4 0.0000 0.0000 0.0000 16.7095 0.0000 0.0000
# 5 0.0000 0.0000 0.0000 0.0000 7.6816 0.0000
# 6 0.0000 0.0000 0.0000 0.0000 0.0000 20.0439
#
#
#
# Elastic Compliance Matrix: (Units=1/GPa)
#
#
# Indices 1 2 3 4 5 6 
#
# 1 0.020167 -0.004987 -0.016738 0.000000 0.000000 0.000000
# 2 -0.004987 0.041572 -0.007010 0.000000 0.000000 0.000000
# 3 -0.016738 -0.007010 0.027077 0.000000 0.000000 0.000000
# 4 0.000000 0.000000 0.000000 0.059846 0.000000 0.000000
# 5 0.000000 0.000000 0.000000 0.000000 0.130181 0.000000
# 6 0.000000 0.000000 0.000000 0.000000 0.000000 0.049891
#
#
# Mechanical properties :
#
#
# Convention : Reuss Voigt Hill
#
# Bulk Modulus (GPa) = 31.90192 61.80938 46.85565
# Shear Modulus (GPa) = 12.60552 16.57598 14.59075
#
# Velocity S-wave (km/s) = 2.70751 3.10477 2.91292
# Velocity P-wave (km/s) = 5.32225 6.98551 6.20982
#
# Compressibility (1/GPa) = 0.03134607
#
# Stress axis : x y z
#
# Youngs Moduli (GPa) = 49.58703 24.05437 36.93231
#
# Poissons Ratio (x) = 0.11996 0.61818
# Poissons Ratio (y) = 0.24729 0.25888
# Poissons Ratio (z) = 0.83000 0.16861
#
# Static dielectric constant tensor:
#      x y z
#    x 1.623580 0.000000 0.000000 
#    y 0.000000 1.590010 0.000000 
#    z 0.000000 0.000000 1.569750 
# 
# From -- ./inp_files/56743.got.cif
#   From: 2010.05.17/outbox.cif.g08.bks.cpg/sg71_29_cif.got.tgz:56743.got - 2010.06.03 16:22:01.
