data_PCOD9520242
_publ_section_title
;
Structure prediction by ZEFSAII (Michael W. Deem and Ramdas Pophale) SiO2 
 PCOD9520242
Probable space group: I M M M
;
_chemical_formula_sum "Si O2"
_cell_formula_units_Z 72
_cell_length_a 7.767489
_cell_length_b 33.519830
_cell_length_c 13.900795
_cell_angle_alpha 90.000000
_cell_angle_beta 90.000000
_cell_angle_gamma 90.000000
_cell_volume 3619.279250
_symmetry_space_group_name_H-M "I M M M"
_symmetry_group_IT_number 71
_symmetry_cell_setting 'orthorhombic'
loop_
_space_group_symop_operation_xyz
x,y,z
-x,-y,z
x,-y,-z
-x,y,-z
-x,-y,-z
x,y,-z
-x,y,z
x,-y,z
1/2+x,1/2+y,1/2+z
1/2-x,1/2-y,1/2+z
1/2+x,1/2-y,1/2-z
1/2-x,1/2+y,1/2-z
1/2-x,1/2-y,1/2-z
1/2+x,1/2+y,1/2-z
1/2-x,1/2+y,1/2+z
1/2+x,1/2-y,1/2+z
loop_
_atom_site_type_symbol
_atom_site_label
_atom_site_fract_x
_atom_site_fract_y
_atom_site_fract_z
Si Si1 0.301828 0.336372 0.616035
Si Si2 0.805048 0.628035 0.887464
Si Si3 0.788994 0.000000 0.888925
Si Si4 0.500000 0.222245 0.117640
Si Si5 0.000000 0.186951 0.382830
Si Si6 0.792348 0.080532 0.784751
O O1 0.298489 0.337804 0.500000
O O2 0.500000 0.328543 0.644956
O O3 0.248189 0.379854 0.654412
O O4 0.168523 0.302515 0.647394
O O5 0.667448 0.661266 0.855811
O O6 0.777618 0.589591 0.821136
O O7 0.000000 0.642679 0.876462
O O8 0.775526 0.619396 0.000000
O O9 0.732413 0.040084 0.834765
O O10 0.000000 0.000000 0.888987
O O11 0.734827 0.000000 0.000000
O O12 0.500000 0.267755 0.152000
O O13 0.500000 0.223152 0.000000
O O14 0.000000 0.188747 0.500000
O O15 0.000000 0.078877 0.780041
#
# Coordination Sequence:
#
# PCOD9520242 Si02
#       6
#    16  16   8   8   8  16
#     4   9  18  32  52  79 112 150 187 226 280 343
#     4  10  21  37  59  82 108 149 194 237 289 336
#     4   9  18  34  60  95 124 153 190 226 273 338
#     4   9  18  32  54  81 110 147 188 237 288 331
#     4   9  18  36  58  81 109 143 193 245 283 335
#     4  10  19  34  59  84 116 151 190 232 282 334
#
# _framework density 19.893462
#
# number of rings (size 3 to 8) (size 9 to 14) (size 15 to 20)
#    0.000    2.556    1.111    0.667    1.556    3.556 
#    0.000    6.667    0.000    4.000    0.000    0.000 
#    0.000    0.000    0.000    0.000    0.000    0.000 
#
# Total GULP energy -201052.526389 kJ/mol
# GULP energy per Si atom -5584.792400 kJ/mol
# Density = 1.984818 g / cm^3
# Si number density = 19.893462 Si / 1000 Ang^3
#
#
#
# Elastic Constant Matrix: (Units=GPa)
#
#
# Indices 1 2 3 4 5 6 
#
# 1 76.5949 74.8073 50.0353 0.0000 0.0000 0.0000
# 2 74.8073 179.7872 73.8774 0.0000 0.0000 0.0000
# 3 50.0353 73.8774 90.9711 -0.0002 0.0000 0.0000
# 4 0.0000 0.0000 -0.0002 30.4755 0.0000 0.0000
# 5 0.0000 0.0000 0.0000 0.0000 18.1667 0.0000
# 6 0.0000 0.0000 0.0000 0.0000 0.0000 6.3539
#
#
#
# Elastic Compliance Matrix: (Units=1/GPa)
#
#
# Indices 1 2 3 4 5 6 
#
# 1 0.025429 -0.007254 -0.008095 0.000000 0.000000 0.000000
# 2 -0.007254 0.010417 -0.004470 0.000000 0.000000 0.000000
# 3 -0.008095 -0.004470 0.019075 0.000000 0.000000 0.000000
# 4 0.000000 0.000000 0.000000 0.032813 0.000000 0.000000
# 5 0.000000 0.000000 0.000000 0.000000 0.055046 0.000000
# 6 0.000000 0.000000 0.000000 0.000000 0.000000 0.157384
#
#
# Mechanical properties :
#
#
# Convention : Reuss Voigt Hill
#
# Bulk Modulus (GPa) = 65.43410 82.75481 74.09445
# Shear Modulus (GPa) = 14.49714 20.90809 17.70262
#
# Velocity S-wave (km/s) = 2.70244 3.24543 2.98631
# Velocity P-wave (km/s) = 6.53462 7.46546 7.01550
#
# Compressibility (1/GPa) = 0.01528255
#
# Stress axis : x y z
#
# Youngs Moduli (GPa) = 39.32588 95.99430 52.42502
#
# Poissons Ratio (x) = 0.69636 0.42438
# Poissons Ratio (y) = 0.28528 0.23434
# Poissons Ratio (z) = 0.31834 0.42909
#
# Static dielectric constant tensor:
#      x y z
#    x 1.714610 0.000000 0.000000 
#    y 0.000000 1.649800 0.000000 
#    z 0.000000 0.000000 1.727220 
# 
# From -- ./inp_files/31714.got.cif
#   From: 2010.05.17/outbox.cif.g08.bks.cpg/sg71_16_cif.got.tgz:31714.got - 2010.06.03 16:22:01.
