data_PCOD9520407
_publ_section_title
;
Structure prediction by ZEFSAII (Michael W. Deem and Ramdas Pophale) SiO2 
 PCOD9520407
Probable space group: I M M M
;
_chemical_formula_sum "Si O2"
_cell_formula_units_Z 100
_cell_length_a 20.964590
_cell_length_b 7.777251
_cell_length_c 33.700918
_cell_angle_alpha 90.000000
_cell_angle_beta 90.000000
_cell_angle_gamma 90.000000
_cell_volume 5494.829484
_symmetry_space_group_name_H-M "I M M M"
_symmetry_group_IT_number 71
_symmetry_cell_setting 'orthorhombic'
loop_
_space_group_symop_operation_xyz
x,y,z
-x,-y,z
x,-y,-z
-x,y,-z
-x,-y,-z
x,y,-z
-x,y,z
x,-y,z
1/2+x,1/2+y,1/2+z
1/2-x,1/2-y,1/2+z
1/2+x,1/2-y,1/2-z
1/2-x,1/2+y,1/2-z
1/2-x,1/2-y,1/2-z
1/2+x,1/2+y,1/2-z
1/2-x,1/2+y,1/2+z
1/2+x,1/2-y,1/2+z
loop_
_atom_site_type_symbol
_atom_site_label
_atom_site_fract_x
_atom_site_fract_y
_atom_site_fract_z
Si Si1 0.145778 0.699917 0.000000
Si Si2 0.681725 0.697456 0.635350
Si Si3 0.231435 0.293213 0.294648
Si Si4 0.427130 0.291205 0.419651
Si Si5 0.209914 0.695269 0.500000
Si Si6 0.000000 0.500000 0.332045
Si Si7 0.607048 0.700445 0.840980
Si Si8 0.300179 0.301528 0.087708
O O1 0.104513 0.740078 0.038769
O O2 0.163455 0.500000 0.000000
O O3 0.212958 0.797285 0.000000
O O4 0.666006 0.500000 0.644946
O O5 0.714380 0.772381 0.674600
O O6 0.618966 0.774708 0.615372
O O7 0.737802 0.700012 0.602283
O O8 0.226800 0.500000 0.299280
O O9 0.250000 0.250000 0.250000
O O10 0.164483 0.215994 0.309095
O O11 0.500000 0.232567 0.416790
O O12 0.426974 0.500000 0.418421
O O13 0.188248 0.500000 0.500000
O O14 0.187737 0.776923 0.458685
O O15 0.055301 0.346177 0.332800
O O16 0.585042 0.500000 0.841644
O O17 0.640984 0.740251 0.883508
O O18 0.284094 0.500000 0.095103
#
# Coordination Sequence:
#
# PCOD9520407 Si02
#       8
#     8  16  16  16   8   4  16  16
#     4  12  23  33  46  73 104 143 191 239 292 334
#     4   9  18  32  53  76 106 146 190 239 288 350
#     4  10  19  35  60  91 122 154 198 248 299 353
#     4  10  20  34  51  70 101 146 194 235 285 347
#     4  12  22  31  53  78 111 148 186 244 299 348
#     4  12  22  40  68  91 134 156 202 238 292 361
#     4  10  22  39  63  94 123 161 198 244 298 354
#     4  10  20  34  54  83 114 143 190 242 295 341
#
# _framework density 18.198926
#
# number of rings (size 3 to 8) (size 9 to 14) (size 15 to 20)
#    0.000    1.760    2.400    2.880    2.240    1.920 
#    0.000    0.000    1.760    0.960    0.000    2.240 
#    0.000    0.000    0.000    0.000    0.000    0.000 
#
# Total GULP energy -278427.086727 kJ/mol
# GULP energy per Si atom -5568.541735 kJ/mol
# Density = 1.815750 g / cm^3
# Si number density = 18.198926 Si / 1000 Ang^3
#
#
#
# Elastic Constant Matrix: (Units=GPa)
#
#
# Indices 1 2 3 4 5 6 
#
# 1 108.2666 33.0552 56.5969 0.0000 0.0000 0.0000
# 2 33.0552 73.3288 11.5239 0.0000 0.0000 0.0000
# 3 56.5969 11.5239 130.9197 0.0000 0.0000 0.0000
# 4 0.0000 0.0000 0.0000 14.5997 0.0000 0.0000
# 5 0.0000 0.0000 0.0000 0.0000 3.4449 0.0000
# 6 0.0000 0.0000 0.0000 0.0000 0.0000 -4.8268
#
#
#
# Elastic Compliance Matrix: (Units=1/GPa)
#
#
# Indices 1 2 3 4 5 6 
#
# 1 0.013717 -0.005325 -0.005461 0.000000 0.000000 0.000000
# 2 -0.005325 0.015896 0.000903 0.000000 0.000000 0.000000
# 3 -0.005461 0.000903 0.009920 0.000000 0.000000 0.000000
# 4 0.000000 0.000000 0.000000 0.068495 0.000000 0.000000
# 5 0.000000 0.000000 0.000000 0.000000 0.290282 0.000000
# 6 0.000000 0.000000 0.000000 0.000000 0.000000 -0.207178
#
#
# Mechanical properties :
#
#
# Convention : Reuss Voigt Hill
#
# Bulk Modulus (GPa) = 50.59284 57.20746 53.90015
# Shear Modulus (GPa) = 22.98995 16.73285 19.86140
#
# Velocity S-wave (km/s) = 3.55809 3.03552 3.30714
# Velocity P-wave (km/s) = 6.68882 6.61730 6.65315
#
# Compressibility (1/GPa) = 0.01976564
#
# Stress axis : x y z
#
# Youngs Moduli (GPa) = 72.90120 62.90973 100.80949
#
# Poissons Ratio (x) = 0.33501 0.55055
# Poissons Ratio (y) = 0.38821 -0.09102
# Poissons Ratio (z) = 0.39813 -0.05680
#
# Static dielectric constant tensor:
#      x y z
#    x 1.608560 0.000000 0.000000 
#    y 0.000000 1.664130 0.000000 
#    z 0.000000 0.000000 1.629000 
# 
# From -- ./inp_files/70788.got.cif
#   From: 2010.05.17/outbox.cif.g08.bks.cpg/sg71_36_cif.got.tgz:70788.got - 2010.06.03 16:22:01.
