data_PCOD9520630
_publ_section_title
;
Structure prediction by ZEFSAII (Michael W. Deem and Ramdas Pophale) SiO2 
 PCOD9520630
Probable space group: I M M M
;
_chemical_formula_sum "Si O2"
_cell_formula_units_Z 116
_cell_length_a 27.605151
_cell_length_b 28.153930
_cell_length_c 8.210698
_cell_angle_alpha 90.000000
_cell_angle_beta 90.000000
_cell_angle_gamma 90.000000
_cell_volume 6381.301025
_symmetry_space_group_name_H-M "I M M M"
_symmetry_group_IT_number 71
_symmetry_cell_setting 'orthorhombic'
loop_
_space_group_symop_operation_xyz
x,y,z
-x,-y,z
x,-y,-z
-x,y,-z
-x,-y,-z
x,y,-z
-x,y,z
x,-y,z
1/2+x,1/2+y,1/2+z
1/2-x,1/2-y,1/2+z
1/2+x,1/2-y,1/2-z
1/2-x,1/2+y,1/2-z
1/2-x,1/2-y,1/2-z
1/2+x,1/2+y,1/2-z
1/2-x,1/2+y,1/2+z
1/2+x,1/2-y,1/2+z
loop_
_atom_site_type_symbol
_atom_site_label
_atom_site_fract_x
_atom_site_fract_y
_atom_site_fract_z
Si Si1 0.078374 0.924968 0.807817
Si Si2 0.138567 0.746234 0.696864
Si Si3 0.323203 0.849056 0.810382
Si Si4 0.209628 0.551412 0.804482
Si Si5 0.780101 0.182596 0.692308
Si Si6 0.000000 0.000000 0.703464
Si Si7 0.055110 0.183321 0.803628
Si Si8 0.182995 0.922897 0.308363
O O1 0.071014 0.870101 0.756866
O O2 0.134424 0.937894 0.781353
O O3 0.042242 0.958867 0.712664
O O4 0.065781 0.929725 0.000000
O O5 0.141440 0.745506 0.500000
O O6 0.141316 0.691887 0.756654
O O7 0.186414 0.774882 0.753888
O O8 0.092161 0.776914 0.743798
O O9 0.320420 0.901746 0.738512
O O10 0.269572 0.826842 0.785404
O O11 0.333163 0.854734 0.000000
O O12 0.190988 0.500000 0.748780
O O13 0.265432 0.557499 0.746656
O O14 0.212664 0.551044 0.000000
O O15 0.768807 0.189042 0.500000
O O16 0.811002 0.134090 0.704636
O O17 0.000000 0.191453 0.748178
O O18 0.055721 0.184110 0.000000
O O19 0.178249 0.934950 0.500000
#
# Coordination Sequence:
#
# PCOD9520630 Si02
#       8
#    16  16  16  16  16   4  16  16
#     4  11  21  35  52  67  88 122 164 212 266 312
#     4  10  20  34  51  73 100 132 164 202 256 308
#     4  10  20  31  48  76 105 128 163 209 246 293
#     4   9  19  36  53  69  98 139 169 196 241 294
#     4   9  17  31  49  69  98 134 165 197 246 306
#     4  12  25  40  53  66  93 128 165 222 283 316
#     4  10  21  36  53  73  96 125 167 215 260 308
#     4   9  18  32  50  69  92 122 161 207 248 292
#
# _framework density 18.178111000000001
#
# number of rings (size 3 to 8) (size 9 to 14) (size 15 to 20)
#    0.000    2.207    2.069    2.276    0.966    4.414 
#    0.000    0.690    0.000    0.000    0.000    0.000 
#    0.000    0.552    0.000    6.069    0.000    4.414 
#
# Total GULP energy -323119.209392 kJ/mol
# GULP energy per Si atom -5571.020852 kJ/mol
# Density = 1.813674 g / cm^3
# Si number density = 18.178111 Si / 1000 Ang^3
#
#
#
# Elastic Constant Matrix: (Units=GPa)
#
#
# Indices 1 2 3 4 5 6 
#
# 1 47.2452 48.8042 2.2452 0.0000 0.0000 0.0000
# 2 48.8042 165.0941 19.8593 0.0000 0.0000 0.0000
# 3 2.2452 19.8593 9.9502 0.0000 0.0000 0.0000
# 4 0.0000 0.0000 0.0000 -94.3604 0.0000 0.0000
# 5 0.0000 0.0000 0.0000 0.0000 -26.9101 0.0000
# 6 0.0000 0.0000 0.0000 0.0000 0.0000 9.8634
#
#
#
# Elastic Compliance Matrix: (Units=1/GPa)
#
#
# Indices 1 2 3 4 5 6 
#
# 1 0.032175 -0.011367 0.015427 0.000000 0.000000 0.000000
# 2 -0.011367 0.011987 -0.021359 0.000000 0.000000 0.000000
# 3 0.015427 -0.021359 0.139649 0.000000 0.000000 0.000000
# 4 0.000000 0.000000 0.000000 -0.010598 0.000000 0.000000
# 5 0.000000 0.000000 0.000000 0.000000 -0.037161 0.000000
# 6 0.000000 0.000000 0.000000 0.000000 0.000000 0.101384
#
#
# Mechanical properties :
#
#
# Convention : Reuss Voigt Hill
#
# Bulk Modulus (GPa) = 6.70181 40.45633 23.57907
# Shear Modulus (GPa) = 15.53889 -12.18936 1.67476
#
# Velocity S-wave (km/s) = 2.92689 -2.59231 0.96089
# Velocity P-wave (km/s) = 3.88806 3.65291 3.77232
#
# Compressibility (1/GPa) = 0.14921353
#
# Stress axis : x y z
#
# Youngs Moduli (GPa) = 31.07957 83.42514 7.16080
#
# Poissons Ratio (x) = 0.94832 -0.11047
# Poissons Ratio (y) = 0.35329 0.15295
# Poissons Ratio (z) = -0.47948 1.78188
#
# Static dielectric constant tensor:
#      x y z
#    x 1.595460 0.000000 0.000000 
#    y 0.000000 1.668670 0.000000 
#    z 0.000000 0.000000 1.656980 
# 
# From -- ./inp_files/15835.got.cif
#   From: 2010.05.17/outbox.cif.g08.bks.cpg/sg71_8_cif.got.tgz:15835.got - 2010.06.03 16:22:01.
