data_PCOD9520317
_publ_section_title
;
Structure prediction by ZEFSAII (Michael W. Deem and Ramdas Pophale) SiO2 
 PCOD9520317
Probable space group: I M M M
;
_chemical_formula_sum "Si O2"
_cell_formula_units_Z 76
_cell_length_a 11.382418
_cell_length_b 14.697805
_cell_length_c 25.528679
_cell_angle_alpha 90.000000
_cell_angle_beta 90.000000
_cell_angle_gamma 90.000000
_cell_volume 4270.860183
_symmetry_space_group_name_H-M "I M M M"
_symmetry_group_IT_number 71
_symmetry_cell_setting 'orthorhombic'
loop_
_space_group_symop_operation_xyz
x,y,z
-x,-y,z
x,-y,-z
-x,y,-z
-x,-y,-z
x,y,-z
-x,y,z
x,-y,z
1/2+x,1/2+y,1/2+z
1/2-x,1/2-y,1/2+z
1/2+x,1/2-y,1/2-z
1/2-x,1/2+y,1/2-z
1/2-x,1/2-y,1/2-z
1/2+x,1/2+y,1/2-z
1/2-x,1/2+y,1/2+z
1/2+x,1/2-y,1/2+z
loop_
_atom_site_type_symbol
_atom_site_label
_atom_site_fract_x
_atom_site_fract_y
_atom_site_fract_z
Si Si1 0.245448 0.000000 0.846110
Si Si2 0.000000 0.500000 0.354018
Si Si3 0.242012 0.684559 0.799801
Si Si4 0.500000 0.107943 0.662326
Si Si5 0.249922 0.694270 0.401765
Si Si6 0.500000 0.845252 0.941793
Si Si7 0.136114 0.000000 0.734030
Si Si8 0.000000 0.724709 0.939106
O O1 0.378853 0.000000 0.823164
O O2 0.234336 0.909468 0.881089
O O3 0.161869 0.000000 0.796312
O O4 0.000000 0.415039 0.393460
O O5 0.250000 0.750000 0.750000
O O6 0.273584 0.742347 0.851242
O O7 0.313498 0.592593 0.790170
O O8 0.110907 0.650815 0.809315
O O9 0.500000 0.141814 0.602113
O O10 0.500000 0.000000 0.665249
O O11 0.128984 0.701682 0.435428
O O12 0.375765 0.722856 0.427157
O O13 0.500000 0.886671 0.000000
O O14 0.000000 0.000000 0.724856
O O15 0.000000 0.699204 0.000000
#
# Coordination Sequence:
#
# PCOD9520317 Si02
#       8
#     8   4  16   8  16   8   8   8
#     4  10  20  37  55  88 115 157 192 241 280 353
#     4   8  19  34  54  82 110 142 194 242 285 332
#     4  11  23  39  59  88 118 158 193 240 287 352
#     4  10  22  41  63  86 115 153 206 255 293 344
#     4  10  22  36  60  85 120 151 197 242 295 348
#     4  10  19  35  57  81 112 150 192 240 292 344
#     4  12  26  36  57  84 125 160 196 228 295 353
#     4  10  22  40  60  85 116 156 200 249 307 356
#
# _framework density 17.795010000000001
#
# number of rings (size 3 to 8) (size 9 to 14) (size 15 to 20)
#    0.000    1.684    3.158    0.789    4.421    1.053 
#    0.000    2.105    0.000    0.000    0.000    0.737 
#    0.000    0.000    0.000    0.000    0.000    0.000 
#
# Total GULP energy -211783.954788 kJ/mol
# GULP energy per Si atom -5573.261968 kJ/mol
# Density = 1.775451 g / cm^3
# Si number density = 17.795010 Si / 1000 Ang^3
#
#
#
# Elastic Constant Matrix: (Units=GPa)
#
#
# Indices 1 2 3 4 5 6 
#
# 1 129.7421 46.5442 55.4848 0.0000 0.0000 0.0000
# 2 46.5442 121.7943 50.6364 0.0000 0.0000 0.0000
# 3 55.4848 50.6364 95.1525 0.0000 0.0000 0.0000
# 4 0.0000 0.0000 0.0000 53.0379 0.0000 0.0000
# 5 0.0000 0.0000 0.0000 0.0000 25.9988 0.0000
# 6 0.0000 0.0000 0.0000 0.0000 0.0000 4.0723
#
#
#
# Elastic Compliance Matrix: (Units=1/GPa)
#
#
# Indices 1 2 3 4 5 6 
#
# 1 0.010601 -0.001902 -0.005169 0.000000 0.000000 0.000000
# 2 -0.001902 0.010884 -0.004683 0.000000 0.000000 0.000000
# 3 -0.005169 -0.004683 0.016016 0.000000 0.000000 0.000000
# 4 0.000000 0.000000 0.000000 0.018854 0.000000 0.000000
# 5 0.000000 0.000000 0.000000 0.000000 0.038463 0.000000
# 6 0.000000 0.000000 0.000000 0.000000 0.000000 0.245564
#
#
# Mechanical properties :
#
#
# Convention : Reuss Voigt Hill
#
# Bulk Modulus (GPa) = 71.46847 72.44664 71.95755
# Shear Modulus (GPa) = 13.56649 29.55670 21.56159
#
# Velocity S-wave (km/s) = 2.76411 4.07990 3.48467
# Velocity P-wave (km/s) = 7.10186 7.93689 7.53096
#
# Compressibility (1/GPa) = 0.01399218
#
# Stress axis : x y z
#
# Youngs Moduli (GPa) = 94.33496 91.87397 62.43792
#
# Poissons Ratio (x) = 0.17474 0.32275
# Poissons Ratio (y) = 0.17942 0.29241
# Poissons Ratio (z) = 0.48763 0.43027
#
# Static dielectric constant tensor:
#      x y z
#    x 1.611900 0.000000 0.000000 
#    y 0.000000 1.590040 0.000000 
#    z 0.000000 0.000000 1.586710 
# 
# From -- ./inp_files/21983.got.cif
#   From: 2010.05.17/outbox.cif.g08.bks.cpg/sg71_11_cif.got.tgz:21983.got - 2010.06.03 16:22:01.
