data_PCOD9520750
_publ_section_title
;
Structure prediction by ZEFSAII (Michael W. Deem and Ramdas Pophale) SiO2 
 PCOD9520750
Probable space group: I M M M
;
_chemical_formula_sum "Si O2"
_cell_formula_units_Z 96
_cell_length_a 30.213527
_cell_length_b 9.753815
_cell_length_c 18.736351
_cell_angle_alpha 90.000000
_cell_angle_beta 90.000000
_cell_angle_gamma 90.000000
_cell_volume 5521.549295
_symmetry_space_group_name_H-M "I M M M"
_symmetry_group_IT_number 71
_symmetry_cell_setting 'orthorhombic'
loop_
_space_group_symop_operation_xyz
x,y,z
-x,-y,z
x,-y,-z
-x,y,-z
-x,-y,-z
x,y,-z
-x,y,z
x,-y,z
1/2+x,1/2+y,1/2+z
1/2-x,1/2-y,1/2+z
1/2+x,1/2-y,1/2-z
1/2-x,1/2+y,1/2-z
1/2-x,1/2-y,1/2-z
1/2+x,1/2+y,1/2-z
1/2-x,1/2+y,1/2+z
1/2+x,1/2-y,1/2+z
loop_
_atom_site_type_symbol
_atom_site_label
_atom_site_fract_x
_atom_site_fract_y
_atom_site_fract_z
Si Si1 0.448667 0.837597 0.585661
Si Si2 0.333319 0.660777 0.920895
Si Si3 0.078218 0.659301 0.420601
Si Si4 0.452718 0.650412 0.804313
Si Si5 0.617813 0.659260 0.679811
Si Si6 0.293736 0.335992 0.765001
O O1 0.444792 0.822161 0.500000
O O2 0.500000 0.798460 0.604255
O O3 0.409823 0.752274 0.624447
O O4 0.444096 0.000000 0.602404
O O5 0.346332 0.500000 0.917431
O O6 0.375880 0.757653 0.919560
O O7 0.307037 0.688220 0.847982
O O8 0.311755 0.680327 0.000000
O O9 0.059130 0.671781 0.500000
O O10 0.085794 0.500000 0.405793
O O11 0.049298 0.730784 0.361283
O O12 0.500000 0.655249 0.765793
O O13 0.449568 0.500000 0.839614
O O14 0.412819 0.661456 0.750076
O O15 0.620308 0.500000 0.655146
O O16 0.666221 0.701113 0.709975
O O17 0.286805 0.500000 0.757279
O O18 0.250000 0.250000 0.750000
#
# Coordination Sequence:
#
# PCOD9520750 Si02
#       6
#    16  16  16  16  16  16
#     4   9  19  36  57  83 115 149 185 225 273 334
#     4   9  17  34  59  79 100 137 182 222 261 313
#     4  10  20  32  48  73 105 139 175 218 264 306
#     4  10  20  34  52  74 103 141 182 220 260 312
#     4  10  20  36  56  80 109 141 180 226 273 325
#     4  10  21  37  57  83 111 140 178 227 282 334
#
# _framework density 17.386424999999999
#
# number of rings (size 3 to 8) (size 9 to 14) (size 15 to 20)
#    0.000    2.333    1.667    1.500    0.000    5.000 
#    0.000    3.333    0.000    3.000    0.000    0.000 
#    0.000    0.000    0.000    0.000    0.000    0.000 
#
# Total GULP energy -267263.808220 kJ/mol
# GULP energy per Si atom -5567.996005 kJ/mol
# Density = 1.734685 g / cm^3
# Si number density = 17.386425 Si / 1000 Ang^3
#
#
#
# Elastic Constant Matrix: (Units=GPa)
#
#
# Indices 1 2 3 4 5 6 
#
# 1 129.1747 50.0259 50.0739 0.0000 0.0000 0.0000
# 2 50.0259 68.9151 54.0524 0.0000 0.0000 0.0000
# 3 50.0739 54.0524 82.3298 0.0000 0.0000 0.0000
# 4 0.0000 0.0000 0.0000 28.2104 0.0000 0.0000
# 5 0.0000 0.0000 0.0000 0.0000 -26.9599 0.0000
# 6 0.0000 0.0000 0.0000 0.0000 0.0000 30.2446
#
#
#
# Elastic Compliance Matrix: (Units=1/GPa)
#
#
# Indices 1 2 3 4 5 6 
#
# 1 0.011121 -0.005706 -0.003018 0.000000 0.000000 0.000000
# 2 -0.005706 0.032843 -0.018092 0.000000 0.000000 0.000000
# 3 -0.003018 -0.018092 0.025860 0.000000 0.000000 0.000000
# 4 0.000000 0.000000 0.000000 0.035448 0.000000 0.000000
# 5 0.000000 0.000000 0.000000 0.000000 -0.037092 0.000000
# 6 0.000000 0.000000 0.000000 0.000000 0.000000 0.033064
#
#
# Mechanical properties :
#
#
# Convention : Reuss Voigt Hill
#
# Bulk Modulus (GPa) = 61.75848 65.41378 63.58613
# Shear Modulus (GPa) = 31.19695 14.71684 22.95689
#
# Velocity S-wave (km/s) = 4.24055 2.91255 3.63766
# Velocity P-wave (km/s) = 7.71845 7.00112 7.36852
#
# Compressibility (1/GPa) = 0.01619211
#
# Stress axis : x y z
#
# Youngs Moduli (GPa) = 89.91981 30.44811 38.66996
#
# Poissons Ratio (x) = 0.17373 0.11670
# Poissons Ratio (y) = 0.51307 0.69962
# Poissons Ratio (z) = 0.27136 0.55087
#
# Static dielectric constant tensor:
#      x y z
#    x 1.585290 0.000000 0.000000 
#    y 0.000000 1.589820 0.000000 
#    z 0.000000 0.000000 1.612200 
# 
# From -- ./inp_files/10860.got.cif
#   From: 2010.05.17/outbox.cif.g08.bks.cpg/sg71_6_cif.got.tgz:10860.got - 2010.06.03 16:22:01.
