data_PCOD9520049
_publ_section_title
;
Structure prediction by ZEFSAII (Michael W. Deem and Ramdas Pophale) SiO2 
 PCOD9520049
Probable space group: I M M M
;
_chemical_formula_sum "Si O2"
_cell_formula_units_Z 80
_cell_length_a 7.221652
_cell_length_b 24.084314
_cell_length_c 18.824607
_cell_angle_alpha 90.000000
_cell_angle_beta 90.000000
_cell_angle_gamma 90.000000
_cell_volume 3274.136306
_symmetry_space_group_name_H-M "I M M M"
_symmetry_group_IT_number 71
_symmetry_cell_setting 'orthorhombic'
loop_
_space_group_symop_operation_xyz
x,y,z
-x,-y,z
x,-y,-z
-x,y,-z
-x,-y,-z
x,y,-z
-x,y,z
x,-y,z
1/2+x,1/2+y,1/2+z
1/2-x,1/2-y,1/2+z
1/2+x,1/2-y,1/2-z
1/2-x,1/2+y,1/2-z
1/2-x,1/2-y,1/2-z
1/2+x,1/2+y,1/2-z
1/2-x,1/2+y,1/2+z
1/2+x,1/2-y,1/2+z
loop_
_atom_site_type_symbol
_atom_site_label
_atom_site_fract_x
_atom_site_fract_y
_atom_site_fract_z
Si Si1 0.278695 0.659049 0.113471
Si Si2 0.777242 0.168428 0.227429
Si Si3 0.225582 0.933842 0.500000
Si Si4 0.775691 0.061716 0.152161
Si Si5 0.715583 0.431978 0.500000
Si Si6 0.781985 0.217414 0.922916
O O1 0.500000 0.651771 0.120221
O O2 0.207700 0.674816 0.192684
O O3 0.217288 0.604471 0.068632
O O4 0.240718 0.716406 0.073711
O O5 0.734708 0.104311 0.212573
O O6 0.709666 0.198861 0.155299
O O7 0.000000 0.178216 0.229010
O O8 0.000000 0.934496 0.500000
O O9 0.280900 0.000000 0.500000
O O10 0.000000 0.059526 0.146548
O O11 0.709588 0.000000 0.164496
O O12 0.707565 0.083715 0.076136
O O13 0.721678 0.500000 0.500000
O O14 0.500000 0.416181 0.500000
O O15 0.000000 0.203042 0.921288
O O16 0.712076 0.195535 0.000000
#
# Coordination Sequence:
#
# PCOD9520049 Si02
#       6
#    16  16   8  16   8  16
#     4  10  19  34  53  72  98 130 164 203 247 298
#     4   9  18  28  43  69  97 128 165 202 245 296
#     4   9  18  32  52  77 101 129 166 209 254 296
#     4   8  13  21  34  56  88 124 157 189 230 283
#     4   7  10  16  27  44  72 112 147 171 206 261
#     4  10  20  33  50  72 100 131 163 203 250 296
#
# _framework density 24.433924999999999
#
# number of rings (size 3 to 8) (size 9 to 14) (size 15 to 20)
#    0.000    3.000    1.000    1.800    1.400    0.800 
#    0.000    4.000    0.000    1.200    0.000    0.000 
#    0.000    2.400    0.000    1.800    0.000    2.000 
#
# Total GULP energy -222922.929570 kJ/mol
# GULP energy per Si atom -5573.073239 kJ/mol
# Density = 2.437831 g / cm^3
# Si number density = 24.433925 Si / 1000 Ang^3
#
#
#
# Elastic Constant Matrix: (Units=GPa)
#
#
# Indices 1 2 3 4 5 6 
#
# 1 114.5741 -8.9998 11.1586 0.0000 0.0000 0.0000
# 2 -8.9998 138.9628 78.8878 0.0000 0.0000 0.0000
# 3 11.1586 78.8878 230.6804 0.0000 0.0000 0.0000
# 4 0.0000 0.0000 0.0000 44.9985 0.0000 0.0000
# 5 0.0000 0.0000 0.0000 0.0000 -17.4298 0.0000
# 6 0.0000 0.0000 0.0000 0.0000 0.0000 -7.9326
#
#
#
# Elastic Compliance Matrix: (Units=1/GPa)
#
#
# Indices 1 2 3 4 5 6 
#
# 1 0.008884 0.001017 -0.000777 0.000000 0.000000 0.000000
# 2 0.001017 0.009046 -0.003143 0.000000 0.000000 0.000000
# 3 -0.000777 -0.003143 0.005447 0.000000 0.000000 0.000000
# 4 0.000000 0.000000 0.000000 0.022223 0.000000 0.000000
# 5 0.000000 0.000000 0.000000 0.000000 -0.057373 0.000000
# 6 0.000000 0.000000 0.000000 0.000000 0.000000 -0.126062
#
#
# Mechanical properties :
#
#
# Convention : Reuss Voigt Hill
#
# Bulk Modulus (GPa) = 56.91508 71.81230 64.36369
# Shear Modulus (GPa) = -39.62858 30.80527 -4.41165
#
# Velocity S-wave (km/s) = -4.03161 3.55457 -1.34516
# Velocity P-wave (km/s) = 1.29313 6.80447 4.89760
#
# Compressibility (1/GPa) = 0.01757003
#
# Stress axis : x y z
#
# Youngs Moduli (GPa) = 112.56763 110.54449 183.57497
#
# Poissons Ratio (x) = -0.11239 0.14271
# Poissons Ratio (y) = -0.11444 0.57693
# Poissons Ratio (z) = 0.08751 0.34742
#
# Static dielectric constant tensor:
#      x y z
#    x 2.681300 0.000000 0.000000 
#    y 0.000000 1.923900 0.000000 
#    z 0.000000 0.000000 1.977010 
# 
# From -- ./inp_files/43477.got.cif
#   From: 2010.05.17/outbox.cif.g08.bks.cpg/sg71_22_cif.got.tgz:43477.got - 2010.06.03 16:22:01.
