data_PCOD9520133
_publ_section_title
;
Structure prediction by ZEFSAII (Michael W. Deem and Ramdas Pophale) SiO2 
 PCOD9520133
Probable space group: I M M M
;
_chemical_formula_sum "Si O2"
_cell_formula_units_Z 72
_cell_length_a 17.574640
_cell_length_b 8.030420
_cell_length_c 25.264705
_cell_angle_alpha 90.000000
_cell_angle_beta 90.000000
_cell_angle_gamma 90.000000
_cell_volume 3565.651791
_symmetry_space_group_name_H-M "I M M M"
_symmetry_group_IT_number 71
_symmetry_cell_setting 'orthorhombic'
loop_
_space_group_symop_operation_xyz
x,y,z
-x,-y,z
x,-y,-z
-x,y,-z
-x,-y,-z
x,y,-z
-x,y,z
x,-y,z
1/2+x,1/2+y,1/2+z
1/2-x,1/2-y,1/2+z
1/2+x,1/2-y,1/2-z
1/2-x,1/2+y,1/2-z
1/2-x,1/2-y,1/2-z
1/2+x,1/2+y,1/2-z
1/2-x,1/2+y,1/2+z
1/2+x,1/2-y,1/2+z
loop_
_atom_site_type_symbol
_atom_site_label
_atom_site_fract_x
_atom_site_fract_y
_atom_site_fract_z
Si Si1 0.586257 0.298701 0.439157
Si Si2 0.799883 0.695542 0.151360
Si Si3 0.500000 0.296273 0.938965
Si Si4 0.582937 0.300164 0.739432
Si Si5 0.628082 0.703988 0.143204
O O1 0.600815 0.250618 0.500000
O O2 0.500000 0.246651 0.425444
O O3 0.587987 0.500000 0.436380
O O4 0.647468 0.229912 0.399034
O O5 0.790499 0.500000 0.158753
O O6 0.846597 0.756921 0.202180
O O7 0.715198 0.764332 0.142041
O O8 0.500000 0.500000 0.939702
O O9 0.574055 0.243450 0.905098
O O10 0.500000 0.240821 0.000000
O O11 0.500000 0.239451 0.719702
O O12 0.579834 0.500000 0.740187
O O13 0.594866 0.244723 0.799820
O O14 0.627556 0.500000 0.142136
#
# Coordination Sequence:
#
# PCOD9520133 Si02
#       5
#    16  16   8  16  16
#     4   9  19  37  57  74  98 138 184 218 249 306
#     4  11  22  32  49  81 115 137 166 217 276 328
#     4   9  16  30  54  78 101 135 180 225 268 313
#     4  10  19  34  56  75 101 143 187 221 254 311
#     4   9  18  33  50  74 106 139 175 218 267 317
#
# _framework density 20.192661999999999
#
# number of rings (size 3 to 8) (size 9 to 14) (size 15 to 20)
#    0.000    2.333    1.111    2.667    0.000    4.889 
#    0.000    4.444    0.000    0.000    0.000    0.000 
#    0.000    6.222    0.000    0.000    0.000    0.000 
#
# Total GULP energy -200933.308720 kJ/mol
# GULP energy per Si atom -5581.480798 kJ/mol
# Density = 2.014670 g / cm^3
# Si number density = 20.192662 Si / 1000 Ang^3
#
#
#
# Elastic Constant Matrix: (Units=GPa)
#
#
# Indices 1 2 3 4 5 6 
#
# 1 187.2657 12.4502 109.7304 0.0000 0.0000 0.0000
# 2 12.4502 10.0585 8.9937 0.0000 0.0000 0.0000
# 3 109.7304 8.9937 147.7919 0.0000 0.0000 0.0000
# 4 0.0000 0.0000 0.0000 5.1227 0.0000 0.0000
# 5 0.0000 0.0000 0.0000 0.0000 -9.1432 0.0000
# 6 0.0000 0.0000 0.0000 0.0000 0.0000 14.6168
#
#
#
# Elastic Compliance Matrix: (Units=1/GPa)
#
#
# Indices 1 2 3 4 5 6 
#
# 1 0.009776 -0.005933 -0.006897 0.000000 0.000000 0.000000
# 2 -0.005933 0.108740 -0.002212 0.000000 0.000000 0.000000
# 3 -0.006897 -0.002212 0.012022 0.000000 0.000000 0.000000
# 4 0.000000 0.000000 0.000000 0.195211 0.000000 0.000000
# 5 0.000000 0.000000 0.000000 0.000000 -0.109371 0.000000
# 6 0.000000 0.000000 0.000000 0.000000 0.000000 0.068414
#
#
# Mechanical properties :
#
#
# Convention : Reuss Voigt Hill
#
# Bulk Modulus (GPa) = 9.95489 67.49607 38.72548
# Shear Modulus (GPa) = 14.35289 16.38205 15.36747
#
# Velocity S-wave (km/s) = 2.66897 2.85140 2.76169
# Velocity P-wave (km/s) = 3.79981 6.65877 5.42115
#
# Compressibility (1/GPa) = 0.10045310
#
# Stress axis : x y z
#
# Youngs Moduli (GPa) = 102.29105 9.19621 83.18171
#
# Poissons Ratio (x) = 0.05457 0.57373
# Poissons Ratio (y) = 0.60694 0.18399
# Poissons Ratio (z) = 0.70553 0.02034
#
# Static dielectric constant tensor:
#      x y z
#    x 1.728860 0.000000 0.000000 
#    y 0.000000 1.735670 0.000000 
#    z 0.000000 0.000000 1.689290 
# 
# From -- ./inp_files/6048.got.cif
#   From: 2010.05.17/outbox.cif.g08.bks.cpg/sg71_4_cif.got.tgz:6048.got - 2010.06.03 16:22:01.
