data_PCOD9520369
_publ_section_title
;
Structure prediction by ZEFSAII (Michael W. Deem and Ramdas Pophale) SiO2 
 PCOD9520369
Probable space group: I M M M
;
_chemical_formula_sum "Si O2"
_cell_formula_units_Z 88
_cell_length_a 8.543357
_cell_length_b 29.992146
_cell_length_c 17.857732
_cell_angle_alpha 90.000000
_cell_angle_beta 90.000000
_cell_angle_gamma 90.000000
_cell_volume 4575.751145
_symmetry_space_group_name_H-M "I M M M"
_symmetry_group_IT_number 71
_symmetry_cell_setting 'orthorhombic'
loop_
_space_group_symop_operation_xyz
x,y,z
-x,-y,z
x,-y,-z
-x,y,-z
-x,-y,-z
x,y,-z
-x,y,z
x,-y,z
1/2+x,1/2+y,1/2+z
1/2-x,1/2-y,1/2+z
1/2+x,1/2-y,1/2-z
1/2-x,1/2+y,1/2-z
1/2-x,1/2-y,1/2-z
1/2+x,1/2+y,1/2-z
1/2-x,1/2+y,1/2+z
1/2+x,1/2-y,1/2+z
loop_
_atom_site_type_symbol
_atom_site_label
_atom_site_fract_x
_atom_site_fract_y
_atom_site_fract_z
Si Si1 0.190866 0.500000 0.587607
Si Si2 0.810519 0.586231 0.314217
Si Si3 0.687036 0.682500 0.307003
Si Si4 0.809081 0.826297 0.500000
Si Si5 0.689249 0.723839 0.148465
Si Si6 0.320546 0.948915 0.659255
Si Si7 0.186065 0.072413 0.500000
O O1 0.239559 0.500000 0.500000
O O2 0.239806 0.545216 0.631972
O O3 0.000000 0.500000 0.588127
O O4 0.758422 0.636030 0.335046
O O5 0.751008 0.578347 0.228775
O O6 0.000000 0.584471 0.311908
O O7 0.500000 0.678887 0.308832
O O8 0.736383 0.695359 0.221707
O O9 0.742204 0.726558 0.350378
O O10 0.759038 0.801489 0.574536
O O11 0.755849 0.876874 0.500000
O O12 0.000000 0.826889 0.500000
O O13 0.500000 0.727036 0.149964
O O14 0.500000 0.934573 0.647970
O O15 0.241381 0.947502 0.578548
O O16 0.321869 0.000000 0.685972
O O17 0.000000 0.071110 0.500000
#
# Coordination Sequence:
#
# PCOD9520369 Si02
#       7
#     8  16  16   8  16  16   8
#     4   9  18  36  61  86 107 132 180 237 275 315
#     4  10  19  35  59  83 107 141 184 227 271 324
#     4  10  20  34  54  81 111 141 173 218 270 324
#     4   9  18  34  54  75 102 135 175 224 264 305
#     4   9  18  35  56  76 102 139 182 220 261 313
#     4  10  20  35  53  75 108 147 186 225 264 309
#     4  11  22  34  51  80 114 146 181 223 268 313
#
# _framework density 19.231815999999998
#
# number of rings (size 3 to 8) (size 9 to 14) (size 15 to 20)
#    0.000    2.273    0.909    2.182    0.000    4.364 
#    1.636    2.727    0.000    0.545    0.000    0.000 
#    0.000    0.000    0.000    0.000    0.000    0.000 
#
# Total GULP energy -245371.072770 kJ/mol
# GULP energy per Si atom -5576.615290 kJ/mol
# Density = 1.918804 g / cm^3
# Si number density = 19.231816 Si / 1000 Ang^3
#
#
#
# Elastic Constant Matrix: (Units=GPa)
#
#
# Indices 1 2 3 4 5 6 
#
# 1 14.7025 13.0975 12.4117 0.0000 0.0000 0.0000
# 2 13.0975 140.8419 40.7893 0.0000 0.0000 0.0000
# 3 12.4117 40.7893 66.1255 0.0000 0.0000 0.0000
# 4 0.0000 0.0000 0.0000 19.5791 0.0000 0.0000
# 5 0.0000 0.0000 0.0000 0.0000 7.5979 0.0000
# 6 0.0000 0.0000 0.0000 0.0000 0.0000 23.2005
#
#
#
# Elastic Compliance Matrix: (Units=1/GPa)
#
#
# Indices 1 2 3 4 5 6 
#
# 1 0.082529 -0.003882 -0.013096 0.000000 0.000000 0.000000
# 2 -0.003882 0.008827 -0.004716 0.000000 0.000000 0.000000
# 3 -0.013096 -0.004716 0.020490 0.000000 0.000000 0.000000
# 4 0.000000 0.000000 0.000000 0.051075 0.000000 0.000000
# 5 0.000000 0.000000 0.000000 0.000000 0.131615 0.000000
# 6 0.000000 0.000000 0.000000 0.000000 0.000000 0.043103
#
#
# Mechanical properties :
#
#
# Convention : Reuss Voigt Hill
#
# Bulk Modulus (GPa) = 14.60757 39.36299 26.98528
# Shear Modulus (GPa) = 12.38094 20.43359 16.40726
#
# Velocity S-wave (km/s) = 2.54002 3.26312 2.92401
# Velocity P-wave (km/s) = 4.02670 5.89146 5.04597
#
# Compressibility (1/GPa) = 0.06845768
#
# Stress axis : x y z
#
# Youngs Moduli (GPa) = 12.11694 113.28805 48.80406
#
# Poissons Ratio (x) = 0.43978 0.63914
# Poissons Ratio (y) = 0.04704 0.23017
# Poissons Ratio (z) = 0.15868 0.53430
#
# Static dielectric constant tensor:
#      x y z
#    x 1.655430 0.000000 0.000000 
#    y 0.000000 1.652730 0.000000 
#    z 0.000000 0.000000 1.674320 
# 
# From -- ./inp_files/42525.got.cif
#   From: 2010.05.17/outbox.cif.g08.bks.cpg/sg71_22_cif.got.tgz:42525.got - 2010.06.03 16:22:01.
