data_PCOD9520011
_publ_section_title
;
Structure prediction by ZEFSAII (Michael W. Deem and Ramdas Pophale) SiO2 
 PCOD9520011
Probable space group: I M M M
;
_chemical_formula_sum "Si O2"
_cell_formula_units_Z 104
_cell_length_a 11.533543
_cell_length_b 26.934853
_cell_length_c 16.840606
_cell_angle_alpha 90.000000
_cell_angle_beta 90.000000
_cell_angle_gamma 90.000000
_cell_volume 5231.606421
_symmetry_space_group_name_H-M "I M M M"
_symmetry_group_IT_number 71
_symmetry_cell_setting 'orthorhombic'
loop_
_space_group_symop_operation_xyz
x,y,z
-x,-y,z
x,-y,-z
-x,y,-z
-x,-y,-z
x,y,-z
-x,y,z
x,-y,z
1/2+x,1/2+y,1/2+z
1/2-x,1/2-y,1/2+z
1/2+x,1/2-y,1/2-z
1/2-x,1/2+y,1/2-z
1/2-x,1/2-y,1/2-z
1/2+x,1/2+y,1/2-z
1/2-x,1/2+y,1/2+z
1/2+x,1/2-y,1/2+z
loop_
_atom_site_type_symbol
_atom_site_label
_atom_site_fract_x
_atom_site_fract_y
_atom_site_fract_z
Si Si1 0.628939 0.697399 0.905381
Si Si2 0.863520 0.945041 0.295322
Si Si3 0.860899 0.875425 0.149862
Si Si4 0.640863 0.442920 0.500000
Si Si5 0.301578 0.210756 0.813310
Si Si6 0.624187 0.842457 0.664325
Si Si7 0.829706 0.443125 0.908116
O O1 0.500000 0.677821 0.877575
O O2 0.634486 0.754568 0.876215
O O3 0.751342 0.674268 0.873788
O O4 0.630960 0.693230 0.000000
O O5 0.830621 0.902959 0.232480
O O6 0.803893 0.941388 0.380586
O O7 0.000000 0.943197 0.303483
O O8 0.832272 0.000000 0.262687
O O9 0.797710 0.822744 0.147369
O O10 0.000000 0.869167 0.147385
O O11 0.826236 0.911717 0.077985
O O12 0.681961 0.500000 0.500000
O O13 0.500000 0.445069 0.500000
O O14 0.250000 0.250000 0.750000
O O15 0.371589 0.173875 0.755988
O O16 0.500000 0.821598 0.631677
O O17 0.618929 0.900975 0.647431
O O18 0.868429 0.500000 0.896273
O O19 0.847117 0.430514 0.000000
#
# Coordination Sequence:
#
# PCOD9520011 Si02
#       7
#    16  16  16   8  16  16  16
#     4  10  23  42  64  90 121 157 198 249 312 372
#     4   9  17  31  53  81 115 156 200 246 300 362
#     4  10  19  33  57  88 123 165 207 253 310 376
#     4   9  18  32  54  92 137 171 205 257 322 389
#     4  10  22  38  58  84 116 156 205 257 306 360
#     4  11  23  41  64  90 119 158 206 254 303 362
#     4  10  21  36  54  81 117 154 196 247 300 357
#
# _framework density 19.879170999999999
#
# number of rings (size 3 to 8) (size 9 to 14) (size 15 to 20)
#    0.000    2.077    1.538    1.385    1.077    9.231 
#    0.000    2.308    0.000    0.000    0.000    0.000 
#    0.000    1.231    0.000    0.000    0.000    0.000 
#
# Total GULP energy -289553.264005 kJ/mol
# GULP energy per Si atom -5568.332000 kJ/mol
# Density = 1.983393 g / cm^3
# Si number density = 19.879171 Si / 1000 Ang^3
#
#
#
# Elastic Constant Matrix: (Units=GPa)
#
#
# Indices 1 2 3 4 5 6 
#
# 1 108.3269 26.1879 24.3344 0.0000 0.0000 0.0000
# 2 26.1879 102.1951 23.0928 0.0000 0.0000 0.0000
# 3 24.3344 23.0928 55.1486 0.0000 0.0000 0.0000
# 4 0.0000 0.0000 0.0000 35.1819 0.0000 0.0000
# 5 0.0000 0.0000 0.0000 0.0000 2.5133 0.0000
# 6 0.0000 0.0000 0.0000 0.0000 0.0000 20.5639
#
#
#
# Elastic Compliance Matrix: (Units=1/GPa)
#
#
# Indices 1 2 3 4 5 6 
#
# 1 0.010546 -0.001823 -0.003890 0.000000 0.000000 0.000000
# 2 -0.001823 0.011123 -0.003853 0.000000 0.000000 0.000000
# 3 -0.003890 -0.003853 0.021463 0.000000 0.000000 0.000000
# 4 0.000000 0.000000 0.000000 0.028424 0.000000 0.000000
# 5 0.000000 0.000000 0.000000 0.000000 0.397882 0.000000
# 6 0.000000 0.000000 0.000000 0.000000 0.000000 0.048629
#
#
# Mechanical properties :
#
#
# Convention : Reuss Voigt Hill
#
# Bulk Modulus (GPa) = 41.66848 45.87786 43.77317
# Shear Modulus (GPa) = 9.17098 24.45554 16.81326
#
# Velocity S-wave (km/s) = 2.15020 3.51124 2.91137
# Velocity P-wave (km/s) = 5.21257 6.29022 5.77658
#
# Compressibility (1/GPa) = 0.02399896
#
# Stress axis : x y z
#
# Youngs Moduli (GPa) = 94.82319 89.90270 46.59261
#
# Poissons Ratio (x) = 0.16393 0.18124
# Poissons Ratio (y) = 0.17291 0.17952
# Poissons Ratio (z) = 0.36885 0.34640
#
# Static dielectric constant tensor:
#      x y z
#    x 1.782140 0.000000 0.000000 
#    y 0.000000 1.737640 0.000000 
#    z 0.000000 0.000000 1.677540 
# 
# From -- ./inp_files/43779.got.cif
#   From: 2010.05.17/outbox.cif.g08.bks.cpg/sg71_22_cif.got.tgz:43779.got - 2010.06.03 16:22:01.
