data_PCOD9520824
_publ_section_title
;
Structure prediction by ZEFSAII (Michael W. Deem and Ramdas Pophale) SiO2 
 PCOD9520824
Probable space group: I M M M
;
_chemical_formula_sum "Si O2"
_cell_formula_units_Z 96
_cell_length_a 27.221179
_cell_length_b 11.211682
_cell_length_c 19.395967
_cell_angle_alpha 90.000000
_cell_angle_beta 90.000000
_cell_angle_gamma 90.000000
_cell_volume 5919.556078
_symmetry_space_group_name_H-M "I M M M"
_symmetry_group_IT_number 71
_symmetry_cell_setting 'orthorhombic'
loop_
_space_group_symop_operation_xyz
x,y,z
-x,-y,z
x,-y,-z
-x,y,-z
-x,-y,-z
x,y,-z
-x,y,z
x,-y,z
1/2+x,1/2+y,1/2+z
1/2-x,1/2-y,1/2+z
1/2+x,1/2-y,1/2-z
1/2-x,1/2+y,1/2-z
1/2-x,1/2-y,1/2-z
1/2+x,1/2+y,1/2-z
1/2-x,1/2+y,1/2+z
1/2+x,1/2-y,1/2+z
loop_
_atom_site_type_symbol
_atom_site_label
_atom_site_fract_x
_atom_site_fract_y
_atom_site_fract_z
Si Si1 0.116282 0.859681 0.789856
Si Si2 0.307106 0.858589 0.078992
Si Si3 0.095750 0.758127 0.642686
Si Si4 0.556834 0.500000 0.082102
Si Si5 0.000000 0.641348 0.579280
Si Si6 0.266495 0.361061 0.702172
Si Si7 0.942924 0.855249 0.923757
O O1 0.101338 0.781497 0.724014
O O2 0.174682 0.855938 0.801091
O O3 0.089139 0.817442 0.858968
O O4 0.103058 0.000000 0.777168
O O5 0.354278 0.795567 0.112239
O O6 0.260425 0.842361 0.128897
O O7 0.317376 0.000000 0.077505
O O8 0.299144 0.819112 0.000000
O O9 0.048683 0.681742 0.619429
O O10 0.084900 0.885349 0.608908
O O11 0.500000 0.500000 0.107097
O O12 0.555614 0.500000 0.000000
O O13 0.000000 0.500000 0.574130
O O14 0.000000 0.691033 0.500000
O O15 0.254086 0.500000 0.724249
O O16 0.250000 0.250000 0.750000
O O17 0.000000 0.821910 0.914991
O O18 0.941139 0.000000 0.924476
O O19 0.926428 0.815036 0.000000
#
# Coordination Sequence:
#
# PCOD9520824 Si02
#       7
#    16  16  16   8   8  16  16
#     4  10  20  32  50  79 110 140 174 216 267 320
#     4  10  21  37  58  80 103 139 185 226 266 315
#     4  12  21  34  53  76 109 141 176 219 265 318
#     4  11  22  34  48  72 107 147 181 213 259 321
#     4  11  24  39  53  71 102 142 184 228 265 304
#     4  10  20  37  56  77 108 142 177 222 272 320
#     4   8  15  28  47  72 105 140 170 206 258 316
#
# _framework density 16.217431999999999
#
# number of rings (size 3 to 8) (size 9 to 14) (size 15 to 20)
#    0.000    1.833    3.333    2.500    1.167    2.000 
#    0.000    3.333    0.000    0.000    0.000    0.000 
#    0.000    3.333    0.000    0.000    0.000    0.000 
#
# Total GULP energy -267531.007359 kJ/mol
# GULP energy per Si atom -5573.562653 kJ/mol
# Density = 1.618052 g / cm^3
# Si number density = 16.217432 Si / 1000 Ang^3
#
#
#
# Elastic Constant Matrix: (Units=GPa)
#
#
# Indices 1 2 3 4 5 6 
#
# 1 82.8747 30.8814 75.2035 0.0000 0.0000 0.0000
# 2 30.8814 58.8596 51.1244 0.0000 0.0000 0.0000
# 3 75.2035 51.1244 168.6903 0.0000 0.0000 0.0000
# 4 0.0000 0.0000 0.0000 25.1362 0.0000 0.0000
# 5 0.0000 0.0000 0.0000 0.0000 28.1642 0.0000
# 6 0.0000 0.0000 0.0000 0.0000 0.0000 33.1757
#
#
#
# Elastic Compliance Matrix: (Units=1/GPa)
#
#
# Indices 1 2 3 4 5 6 
#
# 1 0.020903 -0.003899 -0.008137 0.000000 0.000000 0.000000
# 2 -0.003899 0.023787 -0.005471 0.000000 0.000000 0.000000
# 3 -0.008137 -0.005471 0.011214 0.000000 0.000000 0.000000
# 4 0.000000 0.000000 0.000000 0.039783 0.000000 0.000000
# 5 0.000000 0.000000 0.000000 0.000000 0.035506 0.000000
# 6 0.000000 0.000000 0.000000 0.000000 0.000000 0.030143
#
#
# Mechanical properties :
#
#
# Convention : Reuss Voigt Hill
#
# Bulk Modulus (GPa) = 47.87057 69.42703 58.64880
# Shear Modulus (GPa) = 24.59253 27.50957 26.05105
#
# Velocity S-wave (km/s) = 3.89836 4.12308 4.01229
# Velocity P-wave (km/s) = 7.06010 8.09750 7.59653
#
# Compressibility (1/GPa) = 0.02088966
#
# Stress axis : x y z
#
# Youngs Moduli (GPa) = 47.83930 42.03933 89.17756
#
# Poissons Ratio (x) = 0.16393 0.72564
# Poissons Ratio (y) = 0.18655 0.48786
# Poissons Ratio (z) = 0.38927 0.22999
#
# Static dielectric constant tensor:
#      x y z
#    x 1.539560 0.000000 0.000000 
#    y 0.000000 1.535190 0.000000 
#    z 0.000000 0.000000 1.549900 
# 
# From -- ./inp_files/48088.got.cif
#   From: 2010.05.17/outbox.cif.g08.bks.cpg/sg71_25_cif.got.tgz:48088.got - 2010.06.03 16:22:01.
