data_PCOD9520480
_publ_section_title
;
Structure prediction by ZEFSAII (Michael W. Deem and Ramdas Pophale) SiO2 
 PCOD9520480
Probable space group: I M M M
;
_chemical_formula_sum "Si O2"
_cell_formula_units_Z 72
_cell_length_a 16.275520
_cell_length_b 8.005927
_cell_length_c 26.815280
_cell_angle_alpha 90.000000
_cell_angle_beta 90.000000
_cell_angle_gamma 90.000000
_cell_volume 3494.047744
_symmetry_space_group_name_H-M "I M M M"
_symmetry_group_IT_number 71
_symmetry_cell_setting 'orthorhombic'
loop_
_space_group_symop_operation_xyz
x,y,z
-x,-y,z
x,-y,-z
-x,y,-z
-x,-y,-z
x,y,-z
-x,y,z
x,-y,z
1/2+x,1/2+y,1/2+z
1/2-x,1/2-y,1/2+z
1/2+x,1/2-y,1/2-z
1/2-x,1/2+y,1/2-z
1/2-x,1/2-y,1/2-z
1/2+x,1/2+y,1/2-z
1/2-x,1/2+y,1/2+z
1/2+x,1/2-y,1/2+z
loop_
_atom_site_type_symbol
_atom_site_label
_atom_site_fract_x
_atom_site_fract_y
_atom_site_fract_z
Si Si1 0.596721 0.000000 0.055720
Si Si2 0.500000 0.203800 0.632529
Si Si3 0.137779 0.700867 0.055855
Si Si4 0.683671 0.689130 0.100844
Si Si5 0.000000 0.196398 0.752575
Si Si6 0.678666 0.197065 0.788479
O O1 0.622982 0.833193 0.083876
O O2 0.500000 0.000000 0.052016
O O3 0.633280 0.000000 0.000000
O O4 0.577652 0.259409 0.599443
O O5 0.500000 0.273610 0.688017
O O6 0.500000 0.000000 0.636793
O O7 0.125131 0.500000 0.053328
O O8 0.230713 0.726198 0.073090
O O9 0.122022 0.766802 0.000000
O O10 0.658305 0.500000 0.088011
O O11 0.693322 0.705049 0.160146
O O12 0.085785 0.269248 0.731127
O O13 0.000000 0.000000 0.741486
O O14 0.750000 0.250000 0.750000
O O15 0.686718 0.000000 0.798085
#
# Coordination Sequence:
#
# PCOD9520480 Si02
#       6
#     8   8  16  16   8  16
#     4  11  26  46  68  97 131 171 223 278 340 405
#     4  10  19  36  62  92 128 168 215 267 315 379
#     4   9  18  34  61  94 128 169 214 262 320 383
#     4  11  23  42  68  97 133 173 222 274 334 398
#     4  12  26  43  65  93 132 179 225 273 338 400
#     4  12  25  44  68  99 135 176 227 281 340 409
#
# _framework density 20.606473000000001
#
# number of rings (size 3 to 8) (size 9 to 14) (size 15 to 20)
#    0.000    1.222    1.111    5.333    1.556    4.889 
#    2.000    1.111    0.000    0.667    0.000    0.000 
#    0.000    0.000    0.000    0.000    0.000    0.000 
#
# Total GULP energy -201232.054572 kJ/mol
# GULP energy per Si atom -5589.779294 kJ/mol
# Density = 2.055957 g / cm^3
# Si number density = 20.606473 Si / 1000 Ang^3
#
#
#
# Elastic Constant Matrix: (Units=GPa)
#
#
# Indices 1 2 3 4 5 6 
#
# 1 47.7943 29.3187 -10.9448 0.0000 0.0000 0.0000
# 2 29.3187 97.8559 -2.5784 0.0000 0.0000 0.0000
# 3 -10.9448 -2.5784 75.5770 0.0000 0.0000 0.0000
# 4 0.0000 0.0000 0.0000 28.2203 0.0000 0.0000
# 5 0.0000 0.0000 0.0000 0.0000 26.7908 0.0000
# 6 0.0000 0.0000 0.0000 0.0000 0.0000 25.8980
#
#
#
# Elastic Compliance Matrix: (Units=1/GPa)
#
#
# Indices 1 2 3 4 5 6 
#
# 1 0.026568 -0.007866 0.003579 0.000000 0.000000 0.000000
# 2 -0.007866 0.012557 -0.000711 0.000000 0.000000 0.000000
# 3 0.003579 -0.000711 0.013726 0.000000 0.000000 0.000000
# 4 0.000000 0.000000 0.000000 0.035435 0.000000 0.000000
# 5 0.000000 0.000000 0.000000 0.000000 0.037326 0.000000
# 6 0.000000 0.000000 0.000000 0.000000 0.000000 0.038613
#
#
# Mechanical properties :
#
#
# Convention : Reuss Voigt Hill
#
# Bulk Modulus (GPa) = 23.33405 28.09091 25.71248
# Shear Modulus (GPa) = 26.52454 29.87728 28.20091
#
# Velocity S-wave (km/s) = 3.59164 3.81188 3.70340
# Velocity P-wave (km/s) = 5.34304 5.74766 5.54904
#
# Compressibility (1/GPa) = 0.04285582
#
# Stress axis : x y z
#
# Youngs Moduli (GPa) = 37.63976 79.63677 72.85647
#
# Poissons Ratio (x) = 0.62639 -0.26076
# Poissons Ratio (y) = 0.29606 0.05178
# Poissons Ratio (z) = -0.13472 0.05660
#
# Static dielectric constant tensor:
#      x y z
#    x 1.720570 0.000000 0.000000 
#    y 0.000000 1.869310 0.000000 
#    z 0.000000 0.000000 1.792420 
# 
# From -- ./inp_files/65189.got.cif
#   From: 2010.05.17/outbox.cif.g08.bks.cpg/sg71_33_cif.got.tgz:65189.got - 2010.06.03 16:22:01.
