data_PCOD9520364
_publ_section_title
;
Structure prediction by ZEFSAII (Michael W. Deem and Ramdas Pophale) SiO2 
 PCOD9520364
Probable space group: I M M M
;
_chemical_formula_sum "Si O2"
_cell_formula_units_Z 72
_cell_length_a 7.576133
_cell_length_b 18.147846
_cell_length_c 24.667523
_cell_angle_alpha 90.000000
_cell_angle_beta 90.000000
_cell_angle_gamma 90.000000
_cell_volume 3391.549947
_symmetry_space_group_name_H-M "I M M M"
_symmetry_group_IT_number 71
_symmetry_cell_setting 'orthorhombic'
loop_
_space_group_symop_operation_xyz
x,y,z
-x,-y,z
x,-y,-z
-x,y,-z
-x,-y,-z
x,y,-z
-x,y,z
x,-y,z
1/2+x,1/2+y,1/2+z
1/2-x,1/2-y,1/2+z
1/2+x,1/2-y,1/2-z
1/2-x,1/2+y,1/2-z
1/2-x,1/2-y,1/2-z
1/2+x,1/2+y,1/2-z
1/2-x,1/2+y,1/2+z
1/2+x,1/2-y,1/2+z
loop_
_atom_site_type_symbol
_atom_site_label
_atom_site_fract_x
_atom_site_fract_y
_atom_site_fract_z
Si Si1 0.715202 0.414096 0.758246
Si Si2 0.709073 0.353408 0.869789
Si Si3 0.709773 0.217841 0.939011
Si Si4 0.788306 0.500000 0.937547
Si Si5 0.787148 0.915873 0.137475
O O1 0.500000 0.412082 0.758723
O O2 0.763813 0.500000 0.766001
O O3 0.781021 0.368004 0.809468
O O4 0.772545 0.391760 0.697862
O O5 0.500000 0.340618 0.862948
O O6 0.784152 0.284025 0.902307
O O7 0.729977 0.427252 0.905339
O O8 0.500000 0.230801 0.943396
O O9 0.733618 0.141051 0.908288
O O10 0.782169 0.217368 0.000000
O O11 0.000000 0.500000 0.938523
O O12 0.724957 0.500000 0.000000
O O13 0.000000 0.917576 0.138635
O O14 0.726816 0.000000 0.128370
#
# Coordination Sequence:
#
# PCOD9520364 Si02
#       5
#    16  16  16   8  16
#     4   8  14  29  55  83 106 132 172 221 265 310
#     4  10  19  35  59  80 103 144 187 219 261 320
#     4  10  22  37  52  77 111 142 180 229 270 310
#     4  11  23  35  49  77 115 149 182 223 266 305
#     4   9  19  36  58  81 105 137 176 219 274 334
#
# _framework density 21.229230999999999
#
# number of rings (size 3 to 8) (size 9 to 14) (size 15 to 20)
#    0.000    2.556    1.111    2.333    0.000    4.889 
#    0.000    3.333    0.000    0.000    0.000    0.000 
#    0.000    0.000    0.000    0.000    0.000    0.000 
#
# Total GULP energy -200991.917063 kJ/mol
# GULP energy per Si atom -5583.108807 kJ/mol
# Density = 2.118091 g / cm^3
# Si number density = 21.229231 Si / 1000 Ang^3
#
#
#
# Elastic Constant Matrix: (Units=GPa)
#
#
# Indices 1 2 3 4 5 6 
#
# 1 47.5069 -6.6070 2.7336 0.0000 0.0000 0.0000
# 2 -6.6070 104.1271 73.9121 0.0000 0.0000 0.0000
# 3 2.7336 73.9121 143.2328 0.0000 0.0000 0.0000
# 4 0.0000 0.0000 0.0000 7.8879 0.0000 0.0000
# 5 0.0000 0.0000 0.0000 0.0000 15.0980 0.0000
# 6 0.0000 0.0000 0.0000 0.0000 0.0000 -14.4002
#
#
#
# Elastic Compliance Matrix: (Units=1/GPa)
#
#
# Indices 1 2 3 4 5 6 
#
# 1 0.021514 0.002614 -0.001760 0.000000 0.000000 0.000000
# 2 0.002614 0.015472 -0.008034 0.000000 0.000000 0.000000
# 3 -0.001760 -0.008034 0.011161 0.000000 0.000000 0.000000
# 4 0.000000 0.000000 0.000000 0.126777 0.000000 0.000000
# 5 0.000000 0.000000 0.000000 0.000000 0.066234 0.000000
# 6 0.000000 0.000000 0.000000 0.000000 0.000000 -0.069444
#
#
# Mechanical properties :
#
#
# Convention : Reuss Voigt Hill
#
# Bulk Modulus (GPa) = 29.59570 48.32713 38.96141
# Shear Modulus (GPa) = 25.33743 16.70568 21.02156
#
# Velocity S-wave (km/s) = 3.45848 2.80825 3.15019
# Velocity P-wave (km/s) = 5.46986 5.77312 5.62353
#
# Compressibility (1/GPa) = 0.03378869
#
# Stress axis : x y z
#
# Youngs Moduli (GPa) = 46.48057 64.63179 89.59774
#
# Poissons Ratio (x) = -0.16895 0.15765
# Poissons Ratio (y) = -0.12150 0.71983
# Poissons Ratio (z) = 0.08178 0.51925
#
# Static dielectric constant tensor:
#      x y z
#    x 1.820760 0.000000 0.000000 
#    y 0.000000 1.732450 0.000000 
#    z 0.000000 0.000000 1.771700 
# 
# From -- ./inp_files/7916.got.cif
#   From: 2010.05.17/outbox.cif.g08.bks.cpg/sg71_4_cif.got.tgz:7916.got - 2010.06.03 16:22:01.
