data_PCOD9520471
_publ_section_title
;
Structure prediction by ZEFSAII (Michael W. Deem and Ramdas Pophale) SiO2 
 PCOD9520471
Probable space group: I M M M
;
_chemical_formula_sum "Si O2"
_cell_formula_units_Z 80
_cell_length_a 16.394711
_cell_length_b 21.412168
_cell_length_c 11.746486
_cell_angle_alpha 90.000000
_cell_angle_beta 90.000000
_cell_angle_gamma 90.000000
_cell_volume 4123.560522
_symmetry_space_group_name_H-M "I M M M"
_symmetry_group_IT_number 71
_symmetry_cell_setting 'orthorhombic'
loop_
_space_group_symop_operation_xyz
x,y,z
-x,-y,z
x,-y,-z
-x,y,-z
-x,-y,-z
x,y,-z
-x,y,z
x,-y,z
1/2+x,1/2+y,1/2+z
1/2-x,1/2-y,1/2+z
1/2+x,1/2-y,1/2-z
1/2-x,1/2+y,1/2-z
1/2-x,1/2-y,1/2-z
1/2+x,1/2+y,1/2-z
1/2-x,1/2+y,1/2+z
1/2+x,1/2-y,1/2+z
loop_
_atom_site_type_symbol
_atom_site_label
_atom_site_fract_x
_atom_site_fract_y
_atom_site_fract_z
Si Si1 0.323900 0.429637 0.136660
Si Si2 0.643842 0.932415 0.254973
Si Si3 0.401350 0.307254 0.774310
Si Si4 0.097027 0.305457 0.874653
Si Si5 0.098171 0.738240 0.500000
Si Si6 0.401302 0.908464 0.000000
O O1 0.358168 0.500000 0.147992
O O2 0.233574 0.431083 0.190110
O O3 0.370923 0.377354 0.208782
O O4 0.322745 0.415651 0.000000
O O5 0.606957 0.866870 0.297282
O O6 0.606974 0.000000 0.292247
O O7 0.636859 0.932084 0.118031
O O8 0.500000 0.308385 0.770986
O O9 0.371671 0.260422 0.675285
O O10 0.372005 0.271771 0.887626
O O11 0.000000 0.297129 0.883173
O O12 0.131546 0.317914 0.000000
O O13 0.113691 0.665459 0.500000
O O14 0.000000 0.745246 0.500000
O O15 0.500000 0.919924 0.000000
#
# Coordination Sequence:
#
# PCOD9520471 Si02
#       6
#    16  16  16  16   8   8
#     4  10  22  39  58  83 117 153 188 233 288 343
#     4  11  23  38  55  81 117 153 188 232 284 338
#     4  10  19  36  61  86 113 146 189 240 290 338
#     4  10  21  37  57  83 113 148 191 235 282 340
#     4   9  16  31  57  85 111 140 177 235 292 328
#     4  11  21  38  61  87 117 148 191 238 279 331
#
# _framework density 19.400708999999999
#
# number of rings (size 3 to 8) (size 9 to 14) (size 15 to 20)
#    0.000    1.800    3.000    1.500    0.000    4.400 
#    1.800    2.000    0.000    0.000    0.000    2.800 
#    0.000    0.000    0.000    0.000    0.000    0.000 
#
# Total GULP energy -222802.321327 kJ/mol
# GULP energy per Si atom -5570.058033 kJ/mol
# Density = 1.935655 g / cm^3
# Si number density = 19.400709 Si / 1000 Ang^3
#
#
#
# Elastic Constant Matrix: (Units=GPa)
#
#
# Indices 1 2 3 4 5 6 
#
# 1 17.7388 22.2449 15.0436 0.0000 0.0000 0.0000
# 2 22.2449 158.5138 61.0735 0.0000 0.0000 0.0000
# 3 15.0436 61.0735 112.5874 0.0000 0.0000 0.0000
# 4 0.0000 0.0000 0.0000 4.2924 0.0000 0.0000
# 5 0.0000 0.0000 0.0000 0.0000 19.2749 0.0000
# 6 0.0000 0.0000 0.0000 0.0000 0.0000 10.6928
#
#
#
# Elastic Compliance Matrix: (Units=1/GPa)
#
#
# Indices 1 2 3 4 5 6 
#
# 1 0.070688 -0.007940 -0.005138 0.000000 0.000000 0.000000
# 2 -0.007940 0.008867 -0.003749 0.000000 0.000000 0.000000
# 3 -0.005138 -0.003749 0.011602 0.000000 0.000000 0.000000
# 4 0.000000 0.000000 0.000000 0.232969 0.000000 0.000000
# 5 0.000000 0.000000 0.000000 0.000000 0.051881 0.000000
# 6 0.000000 0.000000 0.000000 0.000000 0.000000 0.093521
#
#
# Mechanical properties :
#
#
# Convention : Reuss Voigt Hill
#
# Bulk Modulus (GPa) = 17.39035 53.95153 35.67094
# Shear Modulus (GPa) = 9.57210 19.55056 14.56133
#
# Velocity S-wave (km/s) = 2.22365 3.17791 2.74260
# Velocity P-wave (km/s) = 3.94665 6.42922 5.33437
#
# Compressibility (1/GPa) = 0.05750316
#
# Stress axis : x y z
#
# Youngs Moduli (GPa) = 14.14659 112.77220 86.19009
#
# Poissons Ratio (x) = 0.89546 0.44283
# Poissons Ratio (y) = 0.11233 0.32314
# Poissons Ratio (z) = 0.07268 0.42281
#
# Static dielectric constant tensor:
#      x y z
#    x 1.674460 0.000000 0.000000 
#    y 0.000000 1.709700 0.000000 
#    z 0.000000 0.000000 1.693010 
# 
# From -- ./inp_files/23815.got.cif
#   From: 2010.05.17/outbox.cif.g08.bks.cpg/sg71_12_cif.got.tgz:23815.got - 2010.06.03 16:22:01.
