data_PCOD9520786
_publ_section_title
;
Structure prediction by ZEFSAII (Michael W. Deem and Ramdas Pophale) SiO2 
 PCOD9520786
Probable space group: I M M M
;
_chemical_formula_sum "Si O2"
_cell_formula_units_Z 96
_cell_length_a 21.387910
_cell_length_b 9.903759
_cell_length_c 25.055745
_cell_angle_alpha 90.000000
_cell_angle_beta 90.000000
_cell_angle_gamma 90.000000
_cell_volume 5307.325599
_symmetry_space_group_name_H-M "I M M M"
_symmetry_group_IT_number 71
_symmetry_cell_setting 'orthorhombic'
loop_
_space_group_symop_operation_xyz
x,y,z
-x,-y,z
x,-y,-z
-x,y,-z
-x,-y,-z
x,y,-z
-x,y,z
x,-y,z
1/2+x,1/2+y,1/2+z
1/2-x,1/2-y,1/2+z
1/2+x,1/2-y,1/2-z
1/2-x,1/2+y,1/2-z
1/2-x,1/2-y,1/2-z
1/2+x,1/2+y,1/2-z
1/2-x,1/2+y,1/2+z
1/2+x,1/2-y,1/2+z
loop_
_atom_site_type_symbol
_atom_site_label
_atom_site_fract_x
_atom_site_fract_y
_atom_site_fract_z
Si Si1 0.925117 0.344892 0.559501
Si Si2 0.151557 0.844964 0.368358
Si Si3 0.568346 0.663315 0.323671
Si Si4 0.269697 0.156145 0.560224
Si Si5 0.891745 0.838896 0.059160
Si Si6 0.187257 0.159494 0.246403
O O1 0.905896 0.298484 0.500000
O O2 0.904356 0.500000 0.565532
O O3 0.897741 0.253246 0.605281
O O4 0.000000 0.343644 0.560956
O O5 0.218104 0.812837 0.395710
O O6 0.157057 0.834669 0.305157
O O7 0.136999 0.000000 0.382466
O O8 0.500000 0.710538 0.302904
O O9 0.568688 0.500000 0.318109
O O10 0.571580 0.694548 0.386828
O O11 0.632684 0.707325 0.294547
O O12 0.242970 0.166019 0.500000
O O13 0.327401 0.256996 0.562943
O O14 0.290131 0.000000 0.567432
O O15 0.880475 0.000000 0.060789
O O16 0.919333 0.809612 0.000000
O O17 0.250000 0.250000 0.250000
O O18 0.202198 0.000000 0.235185
#
# Coordination Sequence:
#
# PCOD9520786 Si02
#       6
#    16  16  16  16  16  16
#     4   9  19  35  52  72 101 135 169 208 259 317
#     4  10  20  32  49  74  99 128 171 215 255 306
#     4   9  18  33  52  74 102 134 167 208 258 306
#     4   9  17  29  45  67  98 130 156 192 245 298
#     4   9  17  29  48  74  98 123 161 204 245 295
#     4  10  21  36  55  78 104 138 178 219 264 314
#
# _framework density 18.088207000000001
#
# number of rings (size 3 to 8) (size 9 to 14) (size 15 to 20)
#    0.000    2.667    0.000    2.000    0.000    3.667 
#    0.000    5.833    0.000    2.000    0.000    2.333 
#    0.000    0.000    0.000    0.000    0.000    0.000 
#
# Total GULP energy -267345.943335 kJ/mol
# GULP energy per Si atom -5569.707153 kJ/mol
# Density = 1.804704 g / cm^3
# Si number density = 18.088207 Si / 1000 Ang^3
#
#
#
# Elastic Constant Matrix: (Units=GPa)
#
#
# Indices 1 2 3 4 5 6 
#
# 1 90.2430 39.4100 46.2087 0.0000 0.0000 0.0000
# 2 39.4100 30.7357 25.3664 0.0000 0.0000 0.0000
# 3 46.2087 25.3664 83.8887 0.0000 0.0000 0.0000
# 4 0.0000 0.0000 0.0000 19.3343 0.0000 0.0000
# 5 0.0000 0.0000 0.0000 0.0000 72.3054 0.0000
# 6 0.0000 0.0000 0.0000 0.0000 0.0000 30.2036
#
#
#
# Elastic Compliance Matrix: (Units=1/GPa)
#
#
# Indices 1 2 3 4 5 6 
#
# 1 0.027221 -0.030020 -0.005917 0.000000 0.000000 0.000000
# 2 -0.030020 0.076462 -0.006585 0.000000 0.000000 0.000000
# 3 -0.005917 -0.006585 0.017171 0.000000 0.000000 0.000000
# 4 0.000000 0.000000 0.000000 0.051722 0.000000 0.000000
# 5 0.000000 0.000000 0.000000 0.000000 0.013830 0.000000
# 6 0.000000 0.000000 0.000000 0.000000 0.000000 0.033109
#
#
# Mechanical properties :
#
#
# Convention : Reuss Voigt Hill
#
# Bulk Modulus (GPa) = 27.92443 47.42644 37.67543
# Shear Modulus (GPa) = 15.79806 30.62747 23.21277
#
# Velocity S-wave (km/s) = 2.95852 4.11935 3.58622
# Velocity P-wave (km/s) = 5.20979 6.99299 6.16619
#
# Compressibility (1/GPa) = 0.03581094
#
# Stress axis : x y z
#
# Youngs Moduli (GPa) = 36.73646 13.07833 58.23860
#
# Poissons Ratio (x) = 0.39261 0.34458
# Poissons Ratio (y) = 1.10284 0.38348
# Poissons Ratio (z) = 0.21736 0.08612
#
# Static dielectric constant tensor:
#      x y z
#    x 1.623680 0.000000 0.000000 
#    y 0.000000 1.603980 0.000000 
#    z 0.000000 0.000000 1.654170 
# 
# From -- ./inp_files/63210.got.cif
#   From: 2010.05.17/outbox.cif.g08.bks.cpg/sg71_32_cif.got.tgz:63210.got - 2010.06.03 16:22:01.
