data_PCOD9520295
_publ_section_title
;
Structure prediction by ZEFSAII (Michael W. Deem and Ramdas Pophale) SiO2 
 PCOD9520295
Probable space group: I M M M
;
_chemical_formula_sum "Si O2"
_cell_formula_units_Z 80
_cell_length_a 16.812737
_cell_length_b 13.224922
_cell_length_c 22.149524
_cell_angle_alpha 90.000000
_cell_angle_beta 90.000000
_cell_angle_gamma 90.000000
_cell_volume 4924.883213
_symmetry_space_group_name_H-M "I M M M"
_symmetry_group_IT_number 71
_symmetry_cell_setting 'orthorhombic'
loop_
_space_group_symop_operation_xyz
x,y,z
-x,-y,z
x,-y,-z
-x,y,-z
-x,-y,-z
x,y,-z
-x,y,z
x,-y,z
1/2+x,1/2+y,1/2+z
1/2-x,1/2-y,1/2+z
1/2+x,1/2-y,1/2-z
1/2-x,1/2+y,1/2-z
1/2-x,1/2-y,1/2-z
1/2+x,1/2+y,1/2-z
1/2-x,1/2+y,1/2+z
1/2+x,1/2-y,1/2+z
loop_
_atom_site_type_symbol
_atom_site_label
_atom_site_fract_x
_atom_site_fract_y
_atom_site_fract_z
Si Si1 0.000000 0.617254 0.168833
Si Si2 0.172266 0.117086 0.928228
Si Si3 0.833694 0.619230 0.236841
Si Si4 0.093566 0.119985 0.429002
Si Si5 0.000000 0.208617 0.070943
Si Si6 0.784557 0.242829 0.347221
O O1 0.079012 0.633750 0.208385
O O2 0.000000 0.500000 0.148849
O O3 0.000000 0.693333 0.112933
O O4 0.227620 0.191111 0.890149
O O5 0.079989 0.145177 0.917316
O O6 0.186392 0.000000 0.912406
O O7 0.186765 0.129314 0.000000
O O8 0.821199 0.500000 0.247003
O O9 0.823449 0.682829 0.297900
O O10 0.769491 0.663037 0.189554
O O11 0.109066 0.140432 0.500000
O O12 0.149927 0.185362 0.386720
O O13 0.000000 0.139951 0.417867
O O14 0.106803 0.000000 0.419274
O O15 0.000000 0.235966 0.000000
#
# Coordination Sequence:
#
# PCOD9520295 Si02
#       6
#     8  16  16  16   8  16
#     4  10  20  38  55  74 109 142 176 218 263 313
#     4  10  20  34  54  80 109 138 172 217 264 314
#     4  10  22  36  53  77 105 140 176 215 261 311
#     4   9  19  36  57  81 108 137 171 215 267 318
#     4  10  19  35  56  79 107 143 179 211 265 319
#     4  11  20  34  58  78 105 136 178 219 259 312
#
# _framework density 16.244039999999998
#
# number of rings (size 3 to 8) (size 9 to 14) (size 15 to 20)
#    0.000    2.000    2.000    2.700    1.400    1.400 
#    0.000    0.000    0.000    0.000    0.000    4.200 
#    0.000    0.000    0.000    0.000    0.000    0.000 
#
# Total GULP energy -223228.731033 kJ/mol
# GULP energy per Si atom -5580.718276 kJ/mol
# Density = 1.620707 g / cm^3
# Si number density = 16.244040 Si / 1000 Ang^3
#
#
#
# Elastic Constant Matrix: (Units=GPa)
#
#
# Indices 1 2 3 4 5 6 
#
# 1 110.9901 84.5235 81.4649 0.0000 0.0000 0.0000
# 2 84.5235 116.8985 82.0506 0.0000 0.0000 0.0000
# 3 81.4649 82.0506 101.4993 0.0000 0.0000 0.0000
# 4 0.0000 0.0000 0.0000 29.2320 0.0000 0.0000
# 5 0.0000 0.0000 0.0000 0.0000 22.6124 0.0000
# 6 0.0000 0.0000 0.0000 0.0000 0.0000 29.6134
#
#
#
# Elastic Compliance Matrix: (Units=1/GPa)
#
#
# Indices 1 2 3 4 5 6 
#
# 1 0.025831 -0.009536 -0.013024 0.000000 0.000000 0.000000
# 2 -0.009536 0.023295 -0.011178 0.000000 0.000000 0.000000
# 3 -0.013024 -0.011178 0.029341 0.000000 0.000000 0.000000
# 4 0.000000 0.000000 0.000000 0.034209 0.000000 0.000000
# 5 0.000000 0.000000 0.000000 0.000000 0.044224 0.000000
# 6 0.000000 0.000000 0.000000 0.000000 0.000000 0.033768
#
#
# Mechanical properties :
#
#
# Convention : Reuss Voigt Hill
#
# Bulk Modulus (GPa) = 90.96989 91.71843 91.34416
# Shear Modulus (GPa) = 19.09810 21.71482 20.40646
#
# Velocity S-wave (km/s) = 3.43257 3.66018 3.54820
# Velocity P-wave (km/s) = 8.47547 8.62832 8.55224
#
# Compressibility (1/GPa) = 0.01099265
#
# Stress axis : x y z
#
# Youngs Moduli (GPa) = 38.71345 42.92812 34.08182
#
# Poissons Ratio (x) = 0.40935 0.44387
# Poissons Ratio (y) = 0.36916 0.38095
# Poissons Ratio (z) = 0.50419 0.47984
#
# Static dielectric constant tensor:
#      x y z
#    x 1.522060 0.000000 0.000000 
#    y 0.000000 1.518580 0.000000 
#    z 0.000000 0.000000 1.520470 
# 
# From -- ./inp_files/23841.got.cif
#   From: 2010.05.17/outbox.cif.g08.bks.cpg/sg71_12_cif.got.tgz:23841.got - 2010.06.03 16:22:01.
