data_PCOD9520672
_publ_section_title
;
Structure prediction by ZEFSAII (Michael W. Deem and Ramdas Pophale) SiO2 
 PCOD9520672
Probable space group: I M M M
;
_chemical_formula_sum "Si O2"
_cell_formula_units_Z 80
_cell_length_a 8.933477
_cell_length_b 19.426209
_cell_length_c 33.542694
_cell_angle_alpha 90.000000
_cell_angle_beta 90.000000
_cell_angle_gamma 90.000000
_cell_volume 5821.119579
_symmetry_space_group_name_H-M "I M M M"
_symmetry_group_IT_number 71
_symmetry_cell_setting 'orthorhombic'
loop_
_space_group_symop_operation_xyz
x,y,z
-x,-y,z
x,-y,-z
-x,y,-z
-x,-y,-z
x,y,-z
-x,y,z
x,-y,z
1/2+x,1/2+y,1/2+z
1/2-x,1/2-y,1/2+z
1/2+x,1/2-y,1/2-z
1/2-x,1/2+y,1/2-z
1/2-x,1/2-y,1/2-z
1/2+x,1/2+y,1/2-z
1/2-x,1/2+y,1/2+z
1/2+x,1/2-y,1/2+z
loop_
_atom_site_type_symbol
_atom_site_label
_atom_site_fract_x
_atom_site_fract_y
_atom_site_fract_z
Si Si1 0.177636 0.643375 0.236091
Si Si2 0.321756 0.133859 0.123400
Si Si3 0.676434 0.500000 0.663953
Si Si4 0.322409 0.280354 0.311531
Si Si5 0.179196 0.081056 0.046126
Si Si6 0.675635 0.500000 0.240136
O O1 0.255444 0.672293 0.276164
O O2 0.201818 0.702055 0.202748
O O3 0.246431 0.569790 0.225605
O O4 0.000000 0.637446 0.243216
O O5 0.500000 0.132717 0.125296
O O6 0.253804 0.067214 0.145868
O O7 0.256613 0.198451 0.147633
O O8 0.264542 0.126625 0.078251
O O9 0.500000 0.500000 0.653641
O O10 0.690388 0.500000 0.711644
O O11 0.500000 0.293228 0.314275
O O12 0.000000 0.088148 0.051307
O O13 0.214975 0.000000 0.052988
O O14 0.214685 0.096486 0.000000
O O15 0.500000 0.500000 0.230599
#
# Coordination Sequence:
#
# PCOD9520672 Si02
#       6
#    16  16   8  16  16   8
#     4  10  20  32  47  64  84 110 145 185 220 257
#     4  12  22  30  45  66  86 112 145 186 224 257
#     4  11  21  31  42  60  84 114 150 184 218 260
#     4  10  20  33  46  62  85 114 144 179 222 263
#     4   9  18  32  48  63  83 114 146 178 219 263
#     4  11  21  31  47  64  85 116 145 181 225 264
#
# _framework density 13.743061000000001
#
# number of rings (size 3 to 8) (size 9 to 14) (size 15 to 20)
#    0.000    1.600    3.000    4.200    0.000    3.600 
#    0.000    1.000    0.000    0.000    0.000    0.000 
#    0.000    0.000    0.000    0.900    0.000   17.400 
#
# Total GULP energy -223334.086950 kJ/mol
# GULP energy per Si atom -5583.352174 kJ/mol
# Density = 1.371178 g / cm^3
# Si number density = 13.743061 Si / 1000 Ang^3
#
#
#
# Elastic Constant Matrix: (Units=GPa)
#
#
# Indices 1 2 3 4 5 6 
#
# 1 100.5136 55.4117 57.5795 0.0000 0.0000 0.0000
# 2 55.4117 87.5551 36.7854 0.0000 0.0000 0.0000
# 3 57.5795 36.7854 83.8596 0.0000 0.0000 0.0000
# 4 0.0000 0.0000 0.0000 21.3166 0.0000 0.0000
# 5 0.0000 0.0000 0.0000 0.0000 19.3209 0.0000
# 6 0.0000 0.0000 0.0000 0.0000 0.0000 20.6356
#
#
#
# Elastic Compliance Matrix: (Units=1/GPa)
#
#
# Indices 1 2 3 4 5 6 
#
# 1 0.020727 -0.008751 -0.010393 0.000000 0.000000 0.000000
# 2 -0.008751 0.017697 -0.001754 0.000000 0.000000 0.000000
# 3 -0.010393 -0.001754 0.019830 0.000000 0.000000 0.000000
# 4 0.000000 0.000000 0.000000 0.046912 0.000000 0.000000
# 5 0.000000 0.000000 0.000000 0.000000 0.051757 0.000000
# 6 0.000000 0.000000 0.000000 0.000000 0.000000 0.048460
#
#
# Mechanical properties :
#
#
# Convention : Reuss Voigt Hill
#
# Bulk Modulus (GPa) = 60.76182 63.49793 62.12988
# Shear Modulus (GPa) = 19.78912 20.39805 20.09359
#
# Velocity S-wave (km/s) = 3.79876 3.85677 3.82788
# Velocity P-wave (km/s) = 7.97180 8.13245 8.05253
#
# Compressibility (1/GPa) = 0.01645770
#
# Stress axis : x y z
#
# Youngs Moduli (GPa) = 48.24694 56.50762 50.42894
#
# Poissons Ratio (x) = 0.49450 0.52409
# Poissons Ratio (y) = 0.42221 0.08846
# Poissons Ratio (z) = 0.50141 0.09912
#
# Static dielectric constant tensor:
#      x y z
#    x 1.455370 0.000000 0.000000 
#    y 0.000000 1.447030 0.000000 
#    z 0.000000 0.000000 1.449210 
# 
# From -- ./inp_files/68126.got.cif
#   From: 2010.05.17/outbox.cif.g08.bks.cpg/sg71_35_cif.got.tgz:68126.got - 2010.06.03 16:22:01.
