data_PCOD9520572
_publ_section_title
;
Structure prediction by ZEFSAII (Michael W. Deem and Ramdas Pophale) SiO2 
 PCOD9520572
Probable space group: I M M M
;
_chemical_formula_sum "Si O2"
_cell_formula_units_Z 112
_cell_length_a 14.780377
_cell_length_b 30.580347
_cell_length_c 14.770961
_cell_angle_alpha 90.000000
_cell_angle_beta 90.000000
_cell_angle_gamma 90.000000
_cell_volume 6676.312740
_symmetry_space_group_name_H-M "I M M M"
_symmetry_group_IT_number 71
_symmetry_cell_setting 'orthorhombic'
loop_
_space_group_symop_operation_xyz
x,y,z
-x,-y,z
x,-y,-z
-x,y,-z
-x,-y,-z
x,y,-z
-x,y,z
x,-y,z
1/2+x,1/2+y,1/2+z
1/2-x,1/2-y,1/2+z
1/2+x,1/2-y,1/2-z
1/2-x,1/2+y,1/2-z
1/2-x,1/2-y,1/2-z
1/2+x,1/2+y,1/2-z
1/2-x,1/2+y,1/2+z
1/2+x,1/2-y,1/2+z
loop_
_atom_site_type_symbol
_atom_site_label
_atom_site_fract_x
_atom_site_fract_y
_atom_site_fract_z
Si Si1 0.107180 0.661731 0.391959
Si Si2 0.341711 0.796699 0.396966
Si Si3 0.396174 0.654745 0.228453
Si Si4 0.363749 0.263632 0.896463
Si Si5 0.607365 0.947819 0.396536
Si Si6 0.702200 0.121928 0.276235
Si Si7 0.396933 0.295483 0.599275
O O1 0.127373 0.657134 0.500000
O O2 0.121867 0.713397 0.368079
O O3 0.167745 0.631536 0.326005
O O4 0.000000 0.652400 0.379208
O O5 0.364674 0.809480 0.500000
O O6 0.242158 0.775239 0.395878
O O7 0.341290 0.837641 0.332294
O O8 0.399752 0.754802 0.370534
O O9 0.500000 0.637111 0.234052
O O10 0.402260 0.697529 0.164643
O O11 0.310816 0.624267 0.204011
O O12 0.359602 0.674180 0.323569
O O13 0.396240 0.267092 0.000000
O O14 0.633630 0.935160 0.500000
O O15 0.500000 0.938993 0.387305
O O16 0.661705 0.921367 0.321268
O O17 0.619968 0.000000 0.388441
O O18 0.352962 0.297590 0.500000
O O19 0.500000 0.309974 0.590580
#
# Coordination Sequence:
#
# PCOD9520572 Si02
#       7
#    16  16  16  16  16  16  16
#     4  10  20  31  44  66  96 130 167 202 236 279
#     4   9  17  27  40  63  91 120 161 207 246 282
#     4  10  20  31  44  65  93 128 171 209 237 270
#     4   9  17  29  42  56  85 131 172 203 236 274
#     4   9  19  37  60  83 103 121 143 177 230 298
#     4  11  20  31  50  72  95 124 158 199 243 283
#     4   9  17  28  40  57  89 131 168 204 244 278
#
# _framework density 16.775728000000001
#
# number of rings (size 3 to 8) (size 9 to 14) (size 15 to 20)
#    0.000    2.429    0.000    3.429    0.000    7.714 
#    0.000    1.429    0.000    0.857    0.000    3.000 
#    0.000    0.000    0.000    4.857    0.000    0.143 
#
# Total GULP energy -311825.576116 kJ/mol
# GULP energy per Si atom -5568.313859 kJ/mol
# Density = 1.673755 g / cm^3
# Si number density = 16.775728 Si / 1000 Ang^3
#
#
#
# Elastic Constant Matrix: (Units=GPa)
#
#
# Indices 1 2 3 4 5 6 
#
# 1 68.5585 30.9583 29.5063 0.0000 0.0000 0.0000
# 2 30.9583 40.9313 30.7780 0.0002 0.0000 0.0000
# 3 29.5063 30.7780 59.0168 0.0001 0.0003 0.0000
# 4 0.0000 0.0002 0.0001 20.5789 0.0000 0.0000
# 5 0.0000 0.0000 0.0003 0.0000 17.1239 0.0000
# 6 0.0000 0.0000 0.0000 0.0000 0.0000 19.5131
#
#
#
# Elastic Compliance Matrix: (Units=1/GPa)
#
#
# Indices 1 2 3 4 5 6 
#
# 1 0.022695 -0.014203 -0.003940 0.000000 0.000000 0.000000
# 2 -0.014203 0.049081 -0.018495 0.000000 0.000000 0.000000
# 3 -0.003940 -0.018495 0.028560 0.000000 0.000000 0.000000
# 4 0.000000 0.000000 0.000000 0.048594 0.000000 0.000000
# 5 0.000000 0.000000 0.000000 0.000000 0.058398 0.000000
# 6 0.000000 0.000000 0.000000 0.000000 0.000000 0.051248
#
#
# Mechanical properties :
#
#
# Convention : Reuss Voigt Hill
#
# Bulk Modulus (GPa) = 36.95543 38.99907 37.97725
# Shear Modulus (GPa) = 14.66831 16.59412 15.63122
#
# Velocity S-wave (km/s) = 2.96019 3.14853 3.05581
# Velocity P-wave (km/s) = 5.81039 6.04280 5.92773
#
# Compressibility (1/GPa) = 0.02705962
#
# Stress axis : x y z
#
# Youngs Moduli (GPa) = 44.06223 20.37448 35.01446
#
# Poissons Ratio (x) = 0.28938 0.13795
# Poissons Ratio (y) = 0.62581 0.64761
# Poissons Ratio (z) = 0.17359 0.37683
#
# Static dielectric constant tensor:
#      x y z
#    x 1.515720 0.000000 0.000000 
#    y 0.000000 1.524080 0.000000 
#    z 0.000000 0.000000 1.656840 
# 
# From -- ./inp_files/35098.got.cif
#   From: 2010.05.17/outbox.cif.g08.bks.cpg/sg71_18_cif.got.tgz:35098.got - 2010.06.03 16:22:01.
