data_PCOD9520635
_publ_section_title
;
Structure prediction by ZEFSAII (Michael W. Deem and Ramdas Pophale) SiO2 
 PCOD9520635
Probable space group: I M M M
;
_chemical_formula_sum "Si O2"
_cell_formula_units_Z 96
_cell_length_a 22.978072
_cell_length_b 28.194120
_cell_length_c 9.098278
_cell_angle_alpha 90.000000
_cell_angle_beta 90.000000
_cell_angle_gamma 90.000000
_cell_volume 5894.287734
_symmetry_space_group_name_H-M "I M M M"
_symmetry_group_IT_number 71
_symmetry_cell_setting 'orthorhombic'
loop_
_space_group_symop_operation_xyz
x,y,z
-x,-y,z
x,-y,-z
-x,y,-z
-x,-y,-z
x,y,-z
-x,y,z
x,-y,z
1/2+x,1/2+y,1/2+z
1/2-x,1/2-y,1/2+z
1/2+x,1/2-y,1/2-z
1/2-x,1/2+y,1/2-z
1/2-x,1/2-y,1/2-z
1/2+x,1/2+y,1/2-z
1/2-x,1/2+y,1/2+z
1/2+x,1/2-y,1/2+z
loop_
_atom_site_type_symbol
_atom_site_label
_atom_site_fract_x
_atom_site_fract_y
_atom_site_fract_z
Si Si1 0.885560 0.716544 0.323326
Si Si2 0.500000 0.370174 0.675376
Si Si3 0.116093 0.102297 0.330179
Si Si4 0.000000 0.241716 0.176560
Si Si5 0.295903 0.141178 0.824907
Si Si6 0.264935 0.445560 0.177078
Si Si7 0.805616 0.804680 0.330809
O O1 0.895241 0.718290 0.500000
O O2 0.943384 0.732148 0.240471
O O3 0.857173 0.665823 0.285348
O O4 0.836512 0.756047 0.289382
O O5 0.500000 0.371310 0.500000
O O6 0.442283 0.395154 0.737239
O O7 0.500000 0.314216 0.721101
O O8 0.102389 0.090675 0.500000
O O9 0.168848 0.068434 0.278816
O O10 0.145221 0.154490 0.327103
O O11 0.000000 0.243272 0.000000
O O12 0.279119 0.091829 0.748616
O O13 0.245521 0.177456 0.773007
O O14 0.293792 0.136031 0.000000
O O15 0.252594 0.500000 0.213474
O O16 0.262938 0.439612 0.000000
O O17 0.784489 0.801709 0.500000
#
# Coordination Sequence:
#
# PCOD9520635 Si02
#       7
#    16   8  16   8  16  16  16
#     4  10  20  34  49  69 101 139 172 200 239 295
#     4  11  21  31  44  68  99 131 169 209 249 286
#     4   9  17  30  50  70  91 128 172 206 240 288
#     4  11  23  33  47  72 101 138 178 213 242 278
#     4  10  20  31  49  77 103 128 161 204 253 299
#     4   9  19  37  57  75  96 125 164 208 255 307
#     4   9  17  30  48  69  97 135 171 200 238 290
#
# _framework density 16.286956
#
# number of rings (size 3 to 8) (size 9 to 14) (size 15 to 20)
#    0.000    2.333    1.667    2.500    0.000    5.667 
#    0.000    0.417    0.000    2.500    0.000    0.583 
#    0.000    4.667    0.000    0.000    0.000    0.000 
#
# Total GULP energy -267652.405727 kJ/mol
# GULP energy per Si atom -5576.091786 kJ/mol
# Density = 1.624989 g / cm^3
# Si number density = 16.286956 Si / 1000 Ang^3
#
#
#
# Elastic Constant Matrix: (Units=GPa)
#
#
# Indices 1 2 3 4 5 6 
#
# 1 33.2075 43.4158 20.2264 0.0000 0.0000 0.0000
# 2 43.4158 103.5893 34.4234 0.0000 0.0000 0.0000
# 3 20.2264 34.4234 29.3873 0.0000 0.0000 0.0000
# 4 0.0000 0.0000 0.0000 19.5770 0.0000 0.0000
# 5 0.0000 0.0000 0.0000 0.0000 26.4719 0.0000
# 6 0.0000 0.0000 0.0000 0.0000 0.0000 5.8041
#
#
#
# Elastic Compliance Matrix: (Units=1/GPa)
#
#
# Indices 1 2 3 4 5 6 
#
# 1 0.076117 -0.023729 -0.024593 0.000000 0.000000 0.000000
# 2 -0.023729 0.023204 -0.010848 0.000000 0.000000 0.000000
# 3 -0.024593 -0.010848 0.063662 0.000000 0.000000 0.000000
# 4 0.000000 0.000000 0.000000 0.051080 0.000000 0.000000
# 5 0.000000 0.000000 0.000000 0.000000 0.037776 0.000000
# 6 0.000000 0.000000 0.000000 0.000000 0.000000 0.172292
#
#
# Mechanical properties :
#
#
# Convention : Reuss Voigt Hill
#
# Bulk Modulus (GPa) = 22.40052 40.25724 31.32888
# Shear Modulus (GPa) = 8.97099 14.91183 11.94141
#
# Velocity S-wave (km/s) = 2.34948 3.02912 2.71068
# Velocity P-wave (km/s) = 4.59821 6.08319 5.39207
#
# Compressibility (1/GPa) = 0.04464182
#
# Stress axis : x y z
#
# Youngs Moduli (GPa) = 13.13769 43.09672 15.70798
#
# Poissons Ratio (x) = 1.02265 0.38631
# Poissons Ratio (y) = 0.31175 0.17040
# Poissons Ratio (z) = 0.32310 0.46751
#
# Static dielectric constant tensor:
#      x y z
#    x 1.532290 0.000000 0.000000 
#    y 0.000000 1.554370 0.000000 
#    z 0.000000 0.000000 1.546980 
# 
# From -- ./inp_files/13191.got.cif
#   From: 2010.05.17/outbox.cif.g08.bks.cpg/sg71_7_cif.got.tgz:13191.got - 2010.06.03 16:22:01.
