data_PCOD9520056
_publ_section_title
;
Structure prediction by ZEFSAII (Michael W. Deem and Ramdas Pophale) SiO2 
 PCOD9520056
Probable space group: I M M M
;
_chemical_formula_sum "Si O2"
_cell_formula_units_Z 120
_cell_length_a 12.629619
_cell_length_b 20.832189
_cell_length_c 23.650875
_cell_angle_alpha 90.000000
_cell_angle_beta 90.000000
_cell_angle_gamma 90.000000
_cell_volume 6222.606941
_symmetry_space_group_name_H-M "I M M M"
_symmetry_group_IT_number 71
_symmetry_cell_setting 'orthorhombic'
loop_
_space_group_symop_operation_xyz
x,y,z
-x,-y,z
x,-y,-z
-x,y,-z
-x,-y,-z
x,y,-z
-x,y,z
x,-y,z
1/2+x,1/2+y,1/2+z
1/2-x,1/2-y,1/2+z
1/2+x,1/2-y,1/2-z
1/2-x,1/2+y,1/2-z
1/2-x,1/2-y,1/2-z
1/2+x,1/2+y,1/2-z
1/2-x,1/2+y,1/2+z
1/2+x,1/2-y,1/2+z
loop_
_atom_site_type_symbol
_atom_site_label
_atom_site_fract_x
_atom_site_fract_y
_atom_site_fract_z
Si Si1 0.877067 0.379276 0.699408
Si Si2 0.382777 0.650425 0.063623
Si Si3 0.376770 0.319720 0.434227
Si Si4 0.288221 0.749569 0.852440
Si Si5 0.000000 0.426808 0.566540
Si Si6 0.169196 0.423803 0.935231
Si Si7 0.273067 0.927048 0.901992
Si Si8 0.616946 0.152986 0.322483
O O1 0.846257 0.305871 0.681962
O O2 0.791627 0.421087 0.665194
O O3 0.873399 0.390017 0.766389
O O4 0.000000 0.391945 0.682239
O O5 0.500000 0.623125 0.069573
O O6 0.364469 0.705312 0.109968
O O7 0.292386 0.596732 0.067906
O O8 0.373241 0.678368 0.000000
O O9 0.368054 0.301738 0.500000
O O10 0.500000 0.315241 0.418128
O O11 0.298249 0.278520 0.395972
O O12 0.328046 0.390354 0.424888
O O13 0.214003 0.702011 0.816951
O O14 0.114461 0.395859 0.578779
O O15 0.000000 0.500000 0.591648
O O16 0.000000 0.433910 0.500000
O O17 0.153283 0.500000 0.928520
O O18 0.121913 0.384409 0.882332
O O19 0.133649 0.406779 0.000000
O O20 0.271479 0.000000 0.921146
O O21 0.500000 0.184075 0.318998
#
# Coordination Sequence:
#
# PCOD9520056 Si02
#       8
#    16  16  16  16   8  16  16  16
#     4  10  20  34  53  77 103 133 173 218 265 315
#     4   9  17  30  51  79 108 137 169 208 257 312
#     4  10  21  35  52  76 106 142 183 222 261 310
#     4  10  19  34  53  75 104 138 173 214 263 309
#     4   9  16  28  48  72  98 128 163 205 254 306
#     4   9  19  35  53  76 106 136 169 210 258 314
#     4  10  20  34  52  74 104 138 174 218 266 312
#     4  10  21  35  53  77 103 135 174 215 260 311
#
# _framework density 19.284521000000002
#
# number of rings (size 3 to 8) (size 9 to 14) (size 15 to 20)
#    0.000    2.333    0.667    2.000    0.000    2.933 
#    0.000    4.000    0.000    7.200    0.000    7.467 
#    0.000    0.000    0.000    0.000    0.000    0.000 
#
# Total GULP energy -334146.180399 kJ/mol
# GULP energy per Si atom -5569.103007 kJ/mol
# Density = 1.924063 g / cm^3
# Si number density = 19.284521 Si / 1000 Ang^3
#
#
#
# Elastic Constant Matrix: (Units=GPa)
#
#
# Indices 1 2 3 4 5 6 
#
# 1 77.8625 -9.4424 10.3195 0.0000 0.0000 0.0000
# 2 -9.4424 23.7833 -4.1703 0.0000 0.0000 0.0000
# 3 10.3195 -4.1703 70.2251 0.0000 0.0000 0.0000
# 4 0.0000 0.0000 0.0000 11.6835 0.0000 0.0000
# 5 0.0000 0.0000 0.0000 0.0000 24.4925 0.0000
# 6 0.0000 0.0000 0.0000 0.0000 0.0000 10.0779
#
#
#
# Elastic Compliance Matrix: (Units=1/GPa)
#
#
# Indices 1 2 3 4 5 6 
#
# 1 0.013692 0.005137 -0.001707 0.000000 0.000000 0.000000
# 2 0.005137 0.044416 0.001883 0.000000 0.000000 0.000000
# 3 -0.001707 0.001883 0.014603 0.000000 0.000000 0.000000
# 4 0.000000 0.000000 0.000000 0.085591 0.000000 0.000000
# 5 0.000000 0.000000 0.000000 0.000000 0.040829 0.000000
# 6 0.000000 0.000000 0.000000 0.000000 0.000000 0.099227
#
#
# Mechanical properties :
#
#
# Convention : Reuss Voigt Hill
#
# Bulk Modulus (GPa) = 11.99966 18.36495 15.18231
# Shear Modulus (GPa) = 15.84732 20.92839 18.38786
#
# Velocity S-wave (km/s) = 2.86975 3.29788 3.09124
# Velocity P-wave (km/s) = 4.14929 4.90359 4.54212
#
# Compressibility (1/GPa) = 0.08333569
#
# Stress axis : x y z
#
# Youngs Moduli (GPa) = 73.03361 22.51451 68.48110
#
# Poissons Ratio (x) = -0.11565 0.11690
# Poissons Ratio (y) = -0.37516 -0.12893
# Poissons Ratio (z) = 0.12467 -0.04239
#
# Static dielectric constant tensor:
#      x y z
#    x 1.669210 0.000000 0.000000 
#    y 0.000000 1.709170 0.000000 
#    z 0.000000 0.000000 1.728410 
# 
# From -- ./inp_files/59083.got.cif
#   From: 2010.05.17/outbox.cif.g08.bks.cpg/sg71_30_cif.got.tgz:59083.got - 2010.06.03 16:22:01.
