data_PCOD9520465
_publ_section_title
;
Structure prediction by ZEFSAII (Michael W. Deem and Ramdas Pophale) SiO2 
 PCOD9520465
Probable space group: I M M M
;
_chemical_formula_sum "Si O2"
_cell_formula_units_Z 66
_cell_length_a 17.994493
_cell_length_b 22.896735
_cell_length_c 7.978762
_cell_angle_alpha 90.000000
_cell_angle_beta 90.000000
_cell_angle_gamma 90.000000
_cell_volume 3287.370724
_symmetry_space_group_name_H-M "I M M M"
_symmetry_group_IT_number 71
_symmetry_cell_setting 'orthorhombic'
loop_
_space_group_symop_operation_xyz
x,y,z
-x,-y,z
x,-y,-z
-x,y,-z
-x,-y,-z
x,y,-z
-x,y,z
x,-y,z
1/2+x,1/2+y,1/2+z
1/2-x,1/2-y,1/2+z
1/2+x,1/2-y,1/2-z
1/2-x,1/2+y,1/2-z
1/2-x,1/2-y,1/2-z
1/2+x,1/2+y,1/2-z
1/2-x,1/2+y,1/2+z
1/2+x,1/2-y,1/2+z
loop_
_atom_site_type_symbol
_atom_site_label
_atom_site_fract_x
_atom_site_fract_y
_atom_site_fract_z
Si Si1 0.000000 0.066846 0.205733
Si Si2 0.654509 0.000000 0.184057
Si Si3 0.794384 0.624944 0.197178
Si Si4 0.628470 0.652824 0.698871
Si Si5 0.584587 0.782087 0.294610
Si Si6 0.500000 0.000000 0.000000
O O1 0.927802 0.103268 0.262306
O O2 0.000000 0.000000 0.262646
O O3 0.000000 0.065390 0.000000
O O4 0.678956 0.059124 0.272868
O O5 0.566765 0.000000 0.143389
O O6 0.692247 0.000000 0.000000
O O7 0.713721 0.637091 0.272189
O O8 0.856715 0.669666 0.264421
O O9 0.787614 0.635572 0.000000
O O10 0.615483 0.655876 0.500000
O O11 0.608261 0.717438 0.763327
O O12 0.585266 0.782622 0.500000
O O13 0.500000 0.794726 0.242707
#
# Coordination Sequence:
#
# PCOD9520465 Si02
#       6
#     8   8  16  16  16   2
#     4   9  18  32  56  87 114 148 203 251 290 340
#     4  10  23  43  63  86 114 153 194 248 291 352
#     4  11  23  37  58  88 124 156 194 243 306 362
#     4  10  19  36  60  85 116 157 204 253 289 345
#     4   9  18  34  57  84 115 157 205 248 293 348
#     4   8  24  44  66  80 120 138 206 252 286 344
#
# _framework density 20.076834999999999
#
# number of rings (size 3 to 8) (size 9 to 14) (size 15 to 20)
#    0.364    1.818    1.212    1.818    3.394    0.000 
#    0.000    2.424    0.000    3.636    0.000    0.000 
#    0.000    0.000    0.000    0.000    0.000    0.000 
#
# Total GULP energy -183909.636234 kJ/mol
# GULP energy per Si atom -5573.019280 kJ/mol
# Density = 2.003114 g / cm^3
# Si number density = 20.076835 Si / 1000 Ang^3
#
#
#
# Elastic Constant Matrix: (Units=GPa)
#
#
# Indices 1 2 3 4 5 6 
#
# 1 185.5223 104.2327 -14.0692 0.0000 0.0000 0.0000
# 2 104.2327 187.5377 -5.4630 0.0000 0.0000 0.0000
# 3 -14.0692 -5.4630 6.1639 0.0000 0.0000 0.0000
# 4 0.0000 0.0000 0.0000 6.2381 0.0000 0.0000
# 5 0.0000 0.0000 0.0000 0.0000 13.6524 0.0000
# 6 0.0000 0.0000 0.0000 0.0000 0.0000 -0.3881
#
#
#
# Elastic Compliance Matrix: (Units=1/GPa)
#
#
# Indices 1 2 3 4 5 6 
#
# 1 0.009318 -0.004680 0.017121 0.000000 0.000000 0.000000
# 2 -0.004680 0.007824 -0.003748 0.000000 0.000000 0.000000
# 3 0.017121 -0.003748 0.197992 0.000000 0.000000 0.000000
# 4 0.000000 0.000000 0.000000 0.160305 0.000000 0.000000
# 5 0.000000 0.000000 0.000000 0.000000 0.073247 0.000000
# 6 0.000000 0.000000 0.000000 0.000000 0.000000 -2.576538
#
#
# Mechanical properties :
#
#
# Convention : Reuss Voigt Hill
#
# Bulk Modulus (GPa) = 4.30071 60.95831 32.62951
# Shear Modulus (GPa) = -2.41811 23.53537 10.55863
#
# Velocity S-wave (km/s) = -1.09866 3.42755 2.29576
# Velocity P-wave (km/s) = 0.73307 6.78915 4.82856
#
# Compressibility (1/GPa) = 0.23251955
#
# Stress axis : x y z
#
# Youngs Moduli (GPa) = 107.31865 127.80663 5.05070
#
# Poissons Ratio (x) = 0.59816 -0.08647
# Poissons Ratio (y) = 0.50227 0.01893
# Poissons Ratio (z) = -1.83737 0.47902
#
# Static dielectric constant tensor:
#      x y z
#    x 1.672670 0.000000 0.000000 
#    y 0.000000 1.630160 0.000000 
#    z 0.000000 0.000000 1.746430 
# 
# From -- ./inp_files/7653.got.cif
#   From: 2010.05.17/outbox.cif.g08.bks.cpg/sg71_4_cif.got.tgz:7653.got - 2010.06.03 16:22:01.
