data_PCOD9520609
_publ_section_title
;
Structure prediction by ZEFSAII (Michael W. Deem and Ramdas Pophale) SiO2 
 PCOD9520609
Probable space group: I M M M
;
_chemical_formula_sum "Si O2"
_cell_formula_units_Z 72
_cell_length_a 13.830696
_cell_length_b 36.092223
_cell_length_c 7.784258
_cell_angle_alpha 90.000000
_cell_angle_beta 90.000000
_cell_angle_gamma 90.000000
_cell_volume 3885.750301
_symmetry_space_group_name_H-M "I M M M"
_symmetry_group_IT_number 71
_symmetry_cell_setting 'orthorhombic'
loop_
_space_group_symop_operation_xyz
x,y,z
-x,-y,z
x,-y,-z
-x,y,-z
-x,-y,-z
x,y,-z
-x,y,z
x,-y,z
1/2+x,1/2+y,1/2+z
1/2-x,1/2-y,1/2+z
1/2+x,1/2-y,1/2-z
1/2-x,1/2+y,1/2-z
1/2-x,1/2-y,1/2-z
1/2+x,1/2+y,1/2-z
1/2-x,1/2+y,1/2+z
1/2+x,1/2-y,1/2+z
loop_
_atom_site_type_symbol
_atom_site_label
_atom_site_fract_x
_atom_site_fract_y
_atom_site_fract_z
Si Si1 0.617026 0.827854 0.000000
Si Si2 0.614791 0.043887 0.699617
Si Si3 0.882575 0.809758 0.692474
Si Si4 0.384851 0.364817 0.500000
Si Si5 0.117993 0.727322 0.196327
Si Si6 0.208075 0.590497 0.500000
O O1 0.646345 0.803984 0.167461
O O2 0.500000 0.830291 0.000000
O O3 0.659466 0.868830 0.000000
O O4 0.636364 0.052309 0.500000
O O5 0.500000 0.050319 0.726228
O O6 0.631595 0.000000 0.726741
O O7 0.673498 0.068189 0.833282
O O8 0.850794 0.819043 0.500000
O O9 0.851074 0.768341 0.743969
O O10 0.000000 0.808338 0.691511
O O11 0.858140 0.840041 0.834456
O O12 0.500000 0.370796 0.500000
O O13 0.322046 0.401668 0.500000
O O14 0.000000 0.727843 0.197877
O O15 0.147641 0.720576 0.000000
#
# Coordination Sequence:
#
# PCOD9520609 Si02
#       6
#     8  16  16   8  16   8
#     4  10  20  31  45  75 110 139 172 217 286 355
#     4   9  19  38  66  96 121 147 177 206 248 324
#     4   9  15  28  52  71  87 128 191 250 291 323
#     4  10  22  37  52  75 105 146 202 250 288 320
#     4   9  15  26  47  69  93 132 179 226 279 337
#     4  12  23  35  55  84 119 153 180 226 282 330
#
# _framework density 18.529240000000001
#
# number of rings (size 3 to 8) (size 9 to 14) (size 15 to 20)
#    0.000    2.444    2.222    2.000    0.000    2.667 
#    0.000    3.333    0.000    1.333    0.000    1.556 
#    0.000    0.000    0.000    0.000    0.000    0.000 
#
# Total GULP energy -201189.612290 kJ/mol
# GULP energy per Si atom -5588.600341 kJ/mol
# Density = 1.848707 g / cm^3
# Si number density = 18.529240 Si / 1000 Ang^3
#
#
#
# Elastic Constant Matrix: (Units=GPa)
#
#
# Indices 1 2 3 4 5 6 
#
# 1 83.0114 49.9680 48.8432 -0.0017 0.0019 0.0003
# 2 49.9680 94.4103 83.7881 -0.0028 0.0060 0.0001
# 3 48.8432 83.7881 181.2833 0.0049 0.0132 0.0021
# 4 -0.0017 -0.0028 0.0049 -1.9982 -0.0007 0.0018
# 5 0.0019 0.0060 0.0132 -0.0007 0.1060 -0.0014
# 6 0.0003 0.0001 0.0021 0.0018 -0.0014 34.1483
#
#
#
# Elastic Compliance Matrix: (Units=1/GPa)
#
#
# Indices 1 2 3 4 5 6 
#
# 1 0.017738 -0.008726 -0.000746 -0.000005 0.000263 0.000000
# 2 -0.008726 0.022251 -0.007933 -0.000043 -0.000109 0.000000
# 3 -0.000746 -0.007933 0.009384 0.000035 -0.000705 -0.000001
# 4 -0.000005 -0.000043 0.000035 -0.500458 -0.003488 0.000026
# 5 0.000263 -0.000109 -0.000705 -0.003488 9.432489 0.000396
# 6 0.000000 0.000000 -0.000001 0.000026 0.000396 0.029284
#
#
# Mechanical properties :
#
#
# Convention : Reuss Voigt Hill
#
# Bulk Modulus (GPa) = 68.66964 80.43371 74.55168
# Shear Modulus (GPa) = 0.55246 18.19160 9.37203
#
# Velocity S-wave (km/s) = 0.54663 3.13673 2.25143
# Velocity P-wave (km/s) = 6.12691 7.52477 6.86153
#
# Compressibility (1/GPa) = 0.01456248
#
# Stress axis : x y z
#
# Youngs Moduli (GPa) = 56.37592 44.94151 106.56422
#
# Poissons Ratio (x) = 0.39216 0.07951
# Poissons Ratio (y) = 0.49194 0.84540
# Poissons Ratio (z) = 0.04206 0.35653
#
# Static dielectric constant tensor:
#      x y z
#    x 1.696040 0.000000 0.000000 
#    y 0.000000 1.585170 0.000000 
#    z 0.000000 0.000000 1.640220 
# 
# From -- ./inp_files/6126.got.cif
#   From: 2010.05.17/outbox.cif.g08.bks.cpg/sg71_4_cif.got.tgz:6126.got - 2010.06.03 16:22:01.
