data_PCOD9520166
_publ_section_title
;
Structure prediction by ZEFSAII (Michael W. Deem and Ramdas Pophale) SiO2 
 PCOD9520166
Probable space group: I M M M
;
_chemical_formula_sum "Si O2"
_cell_formula_units_Z 112
_cell_length_a 27.389445
_cell_length_b 14.360879
_cell_length_c 15.199202
_cell_angle_alpha 90.000000
_cell_angle_beta 90.000000
_cell_angle_gamma 90.000000
_cell_volume 5978.401001
_symmetry_space_group_name_H-M "I M M M"
_symmetry_group_IT_number 71
_symmetry_cell_setting 'orthorhombic'
loop_
_space_group_symop_operation_xyz
x,y,z
-x,-y,z
x,-y,-z
-x,y,-z
-x,-y,-z
x,y,-z
-x,y,z
x,-y,z
1/2+x,1/2+y,1/2+z
1/2-x,1/2-y,1/2+z
1/2+x,1/2-y,1/2-z
1/2-x,1/2+y,1/2-z
1/2-x,1/2-y,1/2-z
1/2+x,1/2+y,1/2-z
1/2-x,1/2+y,1/2+z
1/2+x,1/2-y,1/2+z
loop_
_atom_site_type_symbol
_atom_site_label
_atom_site_fract_x
_atom_site_fract_y
_atom_site_fract_z
Si Si1 0.659992 0.792674 0.098729
Si Si2 0.281758 0.601092 0.898326
Si Si3 0.554625 0.223332 0.166450
Si Si4 0.556220 0.608359 0.299034
Si Si5 0.126558 0.763785 0.097821
Si Si6 0.206553 0.319371 0.226341
Si Si7 0.056318 0.392772 0.154616
O O1 0.681445 0.687857 0.113256
O O2 0.601552 0.790993 0.106452
O O3 0.681701 0.849413 0.181873
O O4 0.674587 0.822190 0.000000
O O5 0.305589 0.500000 0.883965
O O6 0.234565 0.608552 0.835953
O O7 0.265526 0.606220 0.000000
O O8 0.500000 0.217248 0.127657
O O9 0.559705 0.323595 0.214806
O O10 0.557579 0.148451 0.246187
O O11 0.500000 0.618785 0.331303
O O12 0.564513 0.500000 0.279702
O O13 0.594673 0.649292 0.368337
O O14 0.167443 0.736923 0.168502
O O15 0.090220 0.675478 0.099815
O O16 0.146171 0.778567 0.000000
O O17 0.250000 0.250000 0.250000
O O18 0.071905 0.500000 0.152149
O O19 0.000000 0.387138 0.125485
#
# Coordination Sequence:
#
# PCOD9520166 Si02
#       7
#    16  16  16  16  16  16  16
#     4  10  19  34  56  82 109 141 180 222 273 328
#     4   9  19  35  57  84 110 138 177 225 276 332
#     4   9  17  33  54  80 110 144 185 226 268 315
#     4   9  18  33  54  80 113 152 187 217 259 324
#     4  11  21  34  54  82 113 143 180 226 272 327
#     4  10  20  37  54  75 102 141 180 223 276 322
#     4   9  18  33  54  80 112 146 177 214 266 327
#
# _framework density 18.734106000000001
#
# number of rings (size 3 to 8) (size 9 to 14) (size 15 to 20)
#    0.000    2.429    2.857    1.714    0.000    3.714 
#    0.000    1.429    0.000    1.714    0.000    6.000 
#    0.000    0.000    0.000    0.000    0.000    0.000 
#
# Total GULP energy -311931.401059 kJ/mol
# GULP energy per Si atom -5570.203590 kJ/mol
# Density = 1.869147 g / cm^3
# Si number density = 18.734106 Si / 1000 Ang^3
#
#
#
# Elastic Constant Matrix: (Units=GPa)
#
#
# Indices 1 2 3 4 5 6 
#
# 1 75.7599 -5.9750 25.1507 0.0000 0.0000 0.0000
# 2 -5.9750 38.8741 -24.3194 0.0000 0.0000 0.0000
# 3 25.1507 -24.3194 63.5197 0.0000 0.0000 0.0000
# 4 0.0000 0.0000 0.0000 5.5143 0.0000 0.0000
# 5 0.0000 0.0000 0.0000 0.0000 11.5476 0.0000
# 6 0.0000 0.0000 0.0000 0.0000 0.0000 6.4906
#
#
#
# Elastic Compliance Matrix: (Units=1/GPa)
#
#
# Indices 1 2 3 4 5 6 
#
# 1 0.015302 -0.001892 -0.006783 0.000000 0.000000 0.000000
# 2 -0.001892 0.034060 0.013789 0.000000 0.000000 0.000000
# 3 -0.006783 0.013789 0.023708 0.000000 0.000000 0.000000
# 4 0.000000 0.000000 0.000000 0.181346 0.000000 0.000000
# 5 0.000000 0.000000 0.000000 0.000000 0.086598 0.000000
# 6 0.000000 0.000000 0.000000 0.000000 0.000000 0.154069
#
#
# Mechanical properties :
#
#
# Convention : Reuss Voigt Hill
#
# Bulk Modulus (GPa) = 12.00486 18.65180 15.32833
# Shear Modulus (GPa) = 9.75380 16.93033 13.34207
#
# Velocity S-wave (km/s) = 2.28424 3.00945 2.67157
# Velocity P-wave (km/s) = 3.65772 4.69610 4.20906
#
# Compressibility (1/GPa) = 0.08329962
#
# Stress axis : x y z
#
# Youngs Moduli (GPa) = 65.34965 29.36010 42.17915
#
# Poissons Ratio (x) = 0.05554 0.28611
# Poissons Ratio (y) = 0.12361 -0.58162
# Poissons Ratio (z) = 0.44328 -0.40485
#
# Static dielectric constant tensor:
#      x y z
#    x 1.674790 0.000000 0.000000 
#    y 0.000000 1.640430 0.000000 
#    z 0.000000 0.000000 1.604590 
# 
# From -- ./inp_files/40352.got.cif
#   From: 2010.05.17/outbox.cif.g08.bks.cpg/sg71_21_cif.got.tgz:40352.got - 2010.06.03 16:22:01.
