data_PCOD9520050
_publ_section_title
;
Structure prediction by ZEFSAII (Michael W. Deem and Ramdas Pophale) SiO2 
 PCOD9520050
Probable space group: I M M M
;
_chemical_formula_sum "Si O2"
_cell_formula_units_Z 96
_cell_length_a 21.651933
_cell_length_b 7.457833
_cell_length_c 27.333733
_cell_angle_alpha 90.000000
_cell_angle_beta 90.000000
_cell_angle_gamma 90.000000
_cell_volume 4413.755549
_symmetry_space_group_name_H-M "I M M M"
_symmetry_group_IT_number 71
_symmetry_cell_setting 'orthorhombic'
loop_
_space_group_symop_operation_xyz
x,y,z
-x,-y,z
x,-y,-z
-x,y,-z
-x,-y,-z
x,y,-z
-x,y,z
x,-y,z
1/2+x,1/2+y,1/2+z
1/2-x,1/2-y,1/2+z
1/2+x,1/2-y,1/2-z
1/2-x,1/2+y,1/2-z
1/2-x,1/2-y,1/2-z
1/2+x,1/2+y,1/2-z
1/2-x,1/2+y,1/2+z
1/2+x,1/2-y,1/2+z
loop_
_atom_site_type_symbol
_atom_site_label
_atom_site_fract_x
_atom_site_fract_y
_atom_site_fract_z
Si Si1 0.691626 0.281527 0.943476
Si Si2 0.187659 0.702440 0.889656
Si Si3 0.430365 0.212127 0.331891
Si Si4 0.225603 0.287402 0.303139
Si Si5 0.089502 0.798731 0.718145
Si Si6 0.566658 0.280334 0.887072
O O1 0.693637 0.500000 0.939040
O O2 0.759974 0.217284 0.925965
O O3 0.630991 0.222200 0.912642
O O4 0.682275 0.236052 0.000000
O O5 0.173974 0.500000 0.907387
O O6 0.123284 0.784031 0.868496
O O7 0.228882 0.697895 0.840948
O O8 0.500000 0.283585 0.339348
O O9 0.415246 0.226430 0.273492
O O10 0.431835 0.000000 0.341483
O O11 0.221903 0.500000 0.312985
O O12 0.250000 0.250000 0.250000
O O13 0.159356 0.201022 0.300245
O O14 0.062150 0.713701 0.669087
O O15 0.066164 0.000000 0.722819
O O16 0.500000 0.235127 0.911088
O O17 0.569504 0.500000 0.885632
#
# Coordination Sequence:
#
# PCOD9520050 Si02
#       6
#    16  16  16  16  16  16
#     4   9  17  30  50  75 100 130 172 220 269 314
#     4  10  19  34  53  73 101 135 173 218 265 314
#     4  10  21  34  49  72 104 141 177 215 260 312
#     4  12  22  32  50  77 105 137 175 214 255 304
#     4  11  20  32  50  74 106 143 177 212 249 300
#     4   9  17  28  44  71 106 139 171 211 256 298
#
# _framework density 21.750184999999998
#
# number of rings (size 3 to 8) (size 9 to 14) (size 15 to 20)
#    0.000    1.833    3.333    2.500    0.000    1.333 
#    0.000    1.667    0.000    1.000    0.000    3.500 
#    0.000    1.333    0.000    3.000    0.000    3.333 
#
# Total GULP energy -267222.181300 kJ/mol
# GULP energy per Si atom -5567.128777 kJ/mol
# Density = 2.170068 g / cm^3
# Si number density = 21.750185 Si / 1000 Ang^3
#
#
#
# Elastic Constant Matrix: (Units=GPa)
#
#
# Indices 1 2 3 4 5 6 
#
# 1 201.8607 4.1055 57.1679 0.0000 0.0000 0.0000
# 2 4.1055 84.7401 -2.9356 0.0000 0.0000 0.0000
# 3 57.1679 -2.9356 97.1169 0.0000 0.0000 0.0000
# 4 0.0000 0.0000 0.0000 3.8765 0.0000 0.0000
# 5 0.0000 0.0000 0.0000 0.0000 7.4888 0.0000
# 6 0.0000 0.0000 0.0000 0.0000 0.0000 -7.5291
#
#
#
# Elastic Compliance Matrix: (Units=1/GPa)
#
#
# Indices 1 2 3 4 5 6 
#
# 1 0.005959 -0.000411 -0.003520 0.000000 0.000000 0.000000
# 2 -0.000411 0.011841 0.000600 0.000000 0.000000 0.000000
# 3 -0.003520 0.000600 0.012387 0.000000 0.000000 0.000000
# 4 0.000000 0.000000 0.000000 0.257965 0.000000 0.000000
# 5 0.000000 0.000000 0.000000 0.000000 0.133533 0.000000
# 6 0.000000 0.000000 0.000000 0.000000 0.000000 -0.132818
#
#
# Mechanical properties :
#
#
# Convention : Reuss Voigt Hill
#
# Bulk Modulus (GPa) = 42.50741 55.59925 49.05333
# Shear Modulus (GPa) = 16.48137 22.45923 19.47030
#
# Velocity S-wave (km/s) = 2.75573 3.21690 2.99520
# Velocity P-wave (km/s) = 5.45080 6.27822 5.87909
#
# Compressibility (1/GPa) = 0.02352531
#
# Stress axis : x y z
#
# Youngs Moduli (GPa) = 167.80682 84.44910 80.72827
#
# Poissons Ratio (x) = 0.03468 0.28419
# Poissons Ratio (y) = 0.06891 -0.04841
# Poissons Ratio (z) = 0.59073 -0.05064
#
# Static dielectric constant tensor:
#      x y z
#    x 1.863220 0.000000 0.000000 
#    y 0.000000 1.889680 0.000000 
#    z 0.000000 0.000000 1.761050 
# 
# From -- ./inp_files/10951.got.cif
#   From: 2010.05.17/outbox.cif.g08.bks.cpg/sg71_6_cif.got.tgz:10951.got - 2010.06.03 16:22:01.
