data_PCOD9520446
_publ_section_title
;
Structure prediction by ZEFSAII (Michael W. Deem and Ramdas Pophale) SiO2 
 PCOD9520446
Probable space group: I M M M
;
_chemical_formula_sum "Si O2"
_cell_formula_units_Z 88
_cell_length_a 29.227244
_cell_length_b 7.879544
_cell_length_c 19.094598
_cell_angle_alpha 90.000000
_cell_angle_beta 90.000000
_cell_angle_gamma 90.000000
_cell_volume 4397.435416
_symmetry_space_group_name_H-M "I M M M"
_symmetry_group_IT_number 71
_symmetry_cell_setting 'orthorhombic'
loop_
_space_group_symop_operation_xyz
x,y,z
-x,-y,z
x,-y,-z
-x,y,-z
-x,-y,-z
x,y,-z
-x,y,z
x,-y,z
1/2+x,1/2+y,1/2+z
1/2-x,1/2-y,1/2+z
1/2+x,1/2-y,1/2-z
1/2-x,1/2+y,1/2-z
1/2-x,1/2-y,1/2-z
1/2+x,1/2+y,1/2-z
1/2-x,1/2+y,1/2+z
1/2+x,1/2-y,1/2+z
loop_
_atom_site_type_symbol
_atom_site_label
_atom_site_fract_x
_atom_site_fract_y
_atom_site_fract_z
Si Si1 0.613576 0.708480 0.708444
Si Si2 0.291215 0.703905 0.921079
Si Si3 0.553072 0.292987 0.422189
Si Si4 0.717110 0.701267 0.313709
Si Si5 0.111783 0.795665 0.635591
Si Si6 0.447965 0.202158 0.000000
O O1 0.613010 0.500000 0.707853
O O2 0.582557 0.765795 0.643710
O O3 0.665787 0.767039 0.696349
O O4 0.597986 0.762174 0.786417
O O5 0.294964 0.500000 0.923177
O O6 0.244213 0.745082 0.882708
O O7 0.336491 0.765989 0.880566
O O8 0.292420 0.769556 0.000000
O O9 0.569128 0.239539 0.500000
O O10 0.500000 0.243608 0.414837
O O11 0.554282 0.500000 0.421800
O O12 0.713155 0.500000 0.313971
O O13 0.750000 0.750000 0.250000
O O14 0.079431 0.752220 0.570276
O O15 0.113470 0.000000 0.638322
O O16 0.500000 0.270923 0.000000
O O17 0.450457 0.000000 0.000000
#
# Coordination Sequence:
#
# PCOD9520446 Si02
#       6
#    16  16  16  16  16   8
#     4   9  18  31  50  77 108 138 176 227 267 311
#     4  10  20  36  55  76 106 142 183 231 275 321
#     4   8  14  26  45  70 102 137 167 204 263 320
#     4  11  21  34  52  77 110 144 180 221 269 326
#     4  10  19  36  58  78 102 140 188 230 275 324
#     4  11  25  41  55  79 115 145 179 233 288 337
#
# _framework density 20.011662999999999
#
# number of rings (size 3 to 8) (size 9 to 14) (size 15 to 20)
#    0.000    2.273    2.727    1.364    0.000    3.273 
#    0.000    3.636    0.000    0.000    0.000    0.000 
#    0.000    0.000    0.000   18.000    0.000   15.636 
#
# Total GULP energy -245484.404417 kJ/mol
# GULP energy per Si atom -5579.191009 kJ/mol
# Density = 1.996612 g / cm^3
# Si number density = 20.011663 Si / 1000 Ang^3
#
#
#
# Elastic Constant Matrix: (Units=GPa)
#
#
# Indices 1 2 3 4 5 6 
#
# 1 117.9559 2.6469 100.9714 0.0000 0.0000 0.0000
# 2 2.6469 16.7777 11.0892 0.0000 0.0000 0.0000
# 3 100.9714 11.0892 219.4092 0.0000 0.0000 0.0000
# 4 0.0000 0.0000 0.0000 15.2111 0.0000 0.0000
# 5 0.0000 0.0000 0.0000 0.0000 39.6959 0.0000
# 6 0.0000 0.0000 0.0000 0.0000 0.0000 18.2363
#
#
#
# Elastic Compliance Matrix: (Units=1/GPa)
#
#
# Indices 1 2 3 4 5 6 
#
# 1 0.014061 0.002130 -0.006579 0.000000 0.000000 0.000000
# 2 0.002130 0.061986 -0.004113 0.000000 0.000000 0.000000
# 3 -0.006579 -0.004113 0.007793 0.000000 0.000000 0.000000
# 4 0.000000 0.000000 0.000000 0.065742 0.000000 0.000000
# 5 0.000000 0.000000 0.000000 0.000000 0.025192 0.000000
# 6 0.000000 0.000000 0.000000 0.000000 0.000000 0.054836
#
#
# Mechanical properties :
#
#
# Convention : Reuss Voigt Hill
#
# Bulk Modulus (GPa) = 14.98883 64.83974 39.91428
# Shear Modulus (GPa) = 18.58937 30.59100 24.59018
#
# Velocity S-wave (km/s) = 3.05114 3.91405 3.50922
# Velocity P-wave (km/s) = 4.46306 7.27308 6.03393
#
# Compressibility (1/GPa) = 0.06671634
#
# Stress axis : x y z
#
# Youngs Moduli (GPa) = 71.11709 16.13280 128.31987
#
# Poissons Ratio (x) = -0.03436 0.84417
# Poissons Ratio (y) = -0.15147 0.52777
# Poissons Ratio (z) = 0.46785 0.06635
#
# Static dielectric constant tensor:
#      x y z
#    x 1.693660 0.000000 0.000000 
#    y 0.000000 1.750510 0.000000 
#    z 0.000000 0.000000 1.714860 
# 
# From -- ./inp_files/49243.got.cif
#   From: 2010.05.17/outbox.cif.g08.bks.cpg/sg71_25_cif.got.tgz:49243.got - 2010.06.03 16:22:01.
