data_PCOD9520117
_publ_section_title
;
Structure prediction by ZEFSAII (Michael W. Deem and Ramdas Pophale) SiO2 
 PCOD9520117
Probable space group: I M M M
;
_chemical_formula_sum "Si O2"
_cell_formula_units_Z 80
_cell_length_a 18.898746
_cell_length_b 9.051154
_cell_length_c 25.460363
_cell_angle_alpha 90.000000
_cell_angle_beta 90.000000
_cell_angle_gamma 90.000000
_cell_volume 4355.134116
_symmetry_space_group_name_H-M "I M M M"
_symmetry_group_IT_number 71
_symmetry_cell_setting 'orthorhombic'
loop_
_space_group_symop_operation_xyz
x,y,z
-x,-y,z
x,-y,-z
-x,y,-z
-x,-y,-z
x,y,-z
-x,y,z
x,-y,z
1/2+x,1/2+y,1/2+z
1/2-x,1/2-y,1/2+z
1/2+x,1/2-y,1/2-z
1/2-x,1/2+y,1/2-z
1/2-x,1/2-y,1/2-z
1/2+x,1/2+y,1/2-z
1/2-x,1/2+y,1/2+z
1/2+x,1/2-y,1/2+z
loop_
_atom_site_type_symbol
_atom_site_label
_atom_site_fract_x
_atom_site_fract_y
_atom_site_fract_z
Si Si1 0.314730 0.324021 0.718073
Si Si2 0.159098 0.676120 0.405278
Si Si3 0.418109 0.675446 0.190016
Si Si4 0.178667 0.179023 0.902251
Si Si5 0.084033 0.167732 0.500000
Si Si6 0.417621 0.319258 0.500000
O O1 0.299243 0.500000 0.715391
O O2 0.250000 0.250000 0.750000
O O3 0.385334 0.303757 0.752414
O O4 0.327424 0.270312 0.658447
O O5 0.153437 0.500000 0.405272
O O6 0.132028 0.738713 0.350122
O O7 0.240519 0.714790 0.417115
O O8 0.110748 0.747369 0.449279
O O9 0.500000 0.721422 0.185967
O O10 0.414707 0.500000 0.177886
O O11 0.124059 0.229730 0.947149
O O12 0.172293 0.000000 0.901001
O O13 0.000000 0.163406 0.500000
O O14 0.111119 0.000000 0.500000
O O15 0.416051 0.500000 0.500000
O O16 0.500000 0.275038 0.500000
#
# Coordination Sequence:
#
# PCOD9520117 Si02
#       6
#    16  16  16  16   8   8
#     4  10  19  34  55  78 109 146 186 229 275 329
#     4  11  21  35  56  79 107 142 182 227 274 329
#     4  10  21  35  52  78 112 146 181 228 282 332
#     4   9  18  32  52  79 109 141 180 229 275 323
#     4  11  24  39  53  73 106 143 180 224 272 325
#     4   9  17  30  50  78 112 145 178 224 284 339
#
# _framework density 18.369125
#
# number of rings (size 3 to 8) (size 9 to 14) (size 15 to 20)
#    0.000    2.000    2.000    2.100    0.000    6.000 
#    0.000    4.000    0.000    0.000    0.000    0.000 
#    0.000   18.800    0.000    0.000    0.000    0.000 
#
# Total GULP energy -223125.159368 kJ/mol
# GULP energy per Si atom -5578.128984 kJ/mol
# Density = 1.832732 g / cm^3
# Si number density = 18.369125 Si / 1000 Ang^3
#
#
#
# Elastic Constant Matrix: (Units=GPa)
#
#
# Indices 1 2 3 4 5 6 
#
# 1 130.0588 36.6195 66.2559 0.0000 0.0000 0.0000
# 2 36.6195 24.1963 29.6593 0.0000 0.0000 0.0000
# 3 66.2559 29.6593 141.9976 0.0000 0.0000 0.0000
# 4 0.0000 0.0000 0.0000 583.2361 0.0000 0.0000
# 5 0.0000 0.0000 0.0000 0.0000 39.8374 0.0000
# 6 0.0000 0.0000 0.0000 0.0000 0.0000 15.7566
#
#
#
# Elastic Compliance Matrix: (Units=1/GPa)
#
#
# Indices 1 2 3 4 5 6 
#
# 1 0.014222 -0.017997 -0.002877 0.000000 0.000000 0.000000
# 2 -0.017997 0.078327 -0.007963 0.000000 0.000000 0.000000
# 3 -0.002877 -0.007963 0.010048 0.000000 0.000000 0.000000
# 4 0.000000 0.000000 0.000000 0.001715 0.000000 0.000000
# 5 0.000000 0.000000 0.000000 0.000000 0.025102 0.000000
# 6 0.000000 0.000000 0.000000 0.000000 0.000000 0.063466
#
#
# Mechanical properties :
#
#
# Convention : Reuss Voigt Hill
#
# Bulk Modulus (GPa) = 22.26041 62.36913 42.31477
# Shear Modulus (GPa) = 18.83053 138.68056 78.75554
#
# Velocity S-wave (km/s) = 3.20522 8.69830 6.55492
# Velocity P-wave (km/s) = 5.08356 11.61497 8.96521
#
# Compressibility (1/GPa) = 0.04492281
#
# Stress axis : x y z
#
# Youngs Moduli (GPa) = 70.31538 12.76702 99.52418
#
# Poissons Ratio (x) = 0.22977 0.28630
# Poissons Ratio (y) = 1.26549 0.79248
# Poissons Ratio (z) = 0.20227 0.10166
#
# Static dielectric constant tensor:
#      x y z
#    x 1.619660 0.000000 0.000000 
#    y 0.000000 1.616920 0.000000 
#    z 0.000000 0.000000 1.639040 
# 
# From -- ./inp_files/65840.got.cif
#   From: 2010.05.17/outbox.cif.g08.bks.cpg/sg71_33_cif.got.tgz:65840.got - 2010.06.03 16:22:01.
