data_PCOD9520145
_publ_section_title
;
Structure prediction by ZEFSAII (Michael W. Deem and Ramdas Pophale) SiO2 
 PCOD9520145
Probable space group: I M M M
;
_chemical_formula_sum "Si O2"
_cell_formula_units_Z 88
_cell_length_a 30.535084
_cell_length_b 17.356349
_cell_length_c 7.452102
_cell_angle_alpha 90.000000
_cell_angle_beta 90.000000
_cell_angle_gamma 90.000000
_cell_volume 3949.446944
_symmetry_space_group_name_H-M "I M M M"
_symmetry_group_IT_number 71
_symmetry_cell_setting 'orthorhombic'
loop_
_space_group_symop_operation_xyz
x,y,z
-x,-y,z
x,-y,-z
-x,y,-z
-x,-y,-z
x,y,-z
-x,y,z
x,-y,z
1/2+x,1/2+y,1/2+z
1/2-x,1/2-y,1/2+z
1/2+x,1/2-y,1/2-z
1/2-x,1/2+y,1/2-z
1/2-x,1/2-y,1/2-z
1/2+x,1/2+y,1/2-z
1/2-x,1/2+y,1/2+z
1/2+x,1/2-y,1/2+z
loop_
_atom_site_type_symbol
_atom_site_label
_atom_site_fract_x
_atom_site_fract_y
_atom_site_fract_z
Si Si1 0.500000 0.909241 0.718932
Si Si2 0.832390 0.000000 0.781728
Si Si3 0.316091 0.809438 0.712523
Si Si4 0.932628 0.000000 0.704359
Si Si5 0.221805 0.852851 0.784041
Si Si6 0.549176 0.670441 0.216530
Si Si7 0.088971 0.671813 0.206533
O O1 0.500000 0.902464 0.500000
O O2 0.454884 0.868320 0.783578
O O3 0.500000 0.000000 0.763166
O O4 0.806452 0.924642 0.724456
O O5 0.880604 0.000000 0.705531
O O6 0.835668 0.000000 0.000000
O O7 0.323461 0.799096 0.500000
O O8 0.272725 0.860315 0.734686
O O9 0.299826 0.726436 0.785116
O O10 0.362397 0.839766 0.785973
O O11 0.945656 0.082785 0.783489
O O12 0.949845 0.000000 0.500000
O O13 0.220393 0.849810 0.000000
O O14 0.500000 0.696043 0.260649
O O15 0.581269 0.735805 0.287795
O O16 0.554141 0.668759 0.000000
O O17 0.090444 0.645272 0.000000
#
# Coordination Sequence:
#
# PCOD9520145 Si02
#       7
#     8   8  16   8  16  16  16
#     4   9  18  34  55  78 105 134 166 213 269 317
#     4  10  20  35  53  75 104 137 171 214 261 306
#     4   9  18  32  51  76 101 129 167 210 250 299
#     4  10  21  34  50  76 108 144 179 213 254 305
#     4   9  18  33  51  71 101 135 166 203 253 304
#     4  10  20  34  52  75 107 143 178 214 256 307
#     4  10  19  34  56  80 104 134 175 219 264 314
#
# _framework density 22.281600999999998
#
# number of rings (size 3 to 8) (size 9 to 14) (size 15 to 20)
#    0.000    2.455    0.909    1.364    0.000    4.727 
#    1.636    3.636    0.000    2.727    0.000    0.000 
#    0.000    0.000    0.000    0.000    0.000    0.000 
#
# Total GULP energy -245575.043202 kJ/mol
# GULP energy per Si atom -5581.250982 kJ/mol
# Density = 2.223089 g / cm^3
# Si number density = 22.281601 Si / 1000 Ang^3
#
#
#
# Elastic Constant Matrix: (Units=GPa)
#
#
# Indices 1 2 3 4 5 6 
#
# 1 198.3443 35.9774 7.7111 0.0000 0.0000 0.0000
# 2 35.9774 57.1855 -3.1303 0.0000 0.0000 0.0000
# 3 7.7111 -3.1303 68.0452 0.0000 0.0000 0.0000
# 4 0.0000 0.0000 0.0000 16.4144 0.0000 0.0000
# 5 0.0000 0.0000 0.0000 0.0000 4.0030 0.0000
# 6 0.0000 0.0000 0.0000 0.0000 0.0000 28.8296
#
#
#
# Elastic Compliance Matrix: (Units=1/GPa)
#
#
# Indices 1 2 3 4 5 6 
#
# 1 0.005736 -0.003654 -0.000818 0.000000 0.000000 0.000000
# 2 -0.003654 0.019858 0.001328 0.000000 0.000000 0.000000
# 3 -0.000818 0.001328 0.014850 0.000000 0.000000 0.000000
# 4 0.000000 0.000000 0.000000 0.060922 0.000000 0.000000
# 5 0.000000 0.000000 0.000000 0.000000 0.249811 0.000000
# 6 0.000000 0.000000 0.000000 0.000000 0.000000 0.034687
#
#
# Mechanical properties :
#
#
# Convention : Reuss Voigt Hill
#
# Bulk Modulus (GPa) = 29.27745 44.96573 37.12159
# Shear Modulus (GPa) = 12.39042 28.71720 20.55381
#
# Velocity S-wave (km/s) = 2.36070 3.59392 3.04049
# Velocity P-wave (km/s) = 4.53859 6.11933 5.38725
#
# Compressibility (1/GPa) = 0.03415598
#
# Stress axis : x y z
#
# Youngs Moduli (GPa) = 174.32902 50.35688 67.34051
#
# Poissons Ratio (x) = 0.18399 0.05509
# Poissons Ratio (y) = 0.63694 -0.08940
# Poissons Ratio (z) = 0.14262 -0.06685
#
# Static dielectric constant tensor:
#      x y z
#    x 1.815520 0.000000 0.000000 
#    y 0.000000 1.785690 0.000000 
#    z 0.000000 0.000000 1.870450 
# 
# From -- ./inp_files/8934.got.cif
#   From: 2010.05.17/outbox.cif.g08.bks.cpg/sg71_5_cif.got.tgz:8934.got - 2010.06.03 16:22:01.
