data_PCOD9520321
_publ_section_title
;
Structure prediction by ZEFSAII (Michael W. Deem and Ramdas Pophale) SiO2 
 PCOD9520321
Probable space group: I M M M
;
_chemical_formula_sum "Si O2"
_cell_formula_units_Z 80
_cell_length_a 23.552031
_cell_length_b 7.549825
_cell_length_c 21.079841
_cell_angle_alpha 90.000000
_cell_angle_beta 90.000000
_cell_angle_gamma 90.000000
_cell_volume 3748.284786
_symmetry_space_group_name_H-M "I M M M"
_symmetry_group_IT_number 71
_symmetry_cell_setting 'orthorhombic'
loop_
_space_group_symop_operation_xyz
x,y,z
-x,-y,z
x,-y,-z
-x,y,-z
-x,-y,-z
x,y,-z
-x,y,z
x,-y,z
1/2+x,1/2+y,1/2+z
1/2-x,1/2-y,1/2+z
1/2+x,1/2-y,1/2-z
1/2-x,1/2+y,1/2-z
1/2-x,1/2-y,1/2-z
1/2+x,1/2+y,1/2-z
1/2-x,1/2+y,1/2+z
1/2+x,1/2-y,1/2+z
loop_
_atom_site_type_symbol
_atom_site_label
_atom_site_fract_x
_atom_site_fract_y
_atom_site_fract_z
Si Si1 0.125109 0.709552 0.873549
Si Si2 0.188278 0.282635 0.000000
Si Si3 0.500000 0.281896 0.188098
Si Si4 0.614584 0.296556 0.876381
Si Si5 0.183741 0.711223 0.254585
Si Si6 0.000000 0.788875 0.164929
Si Si7 0.820211 0.217797 0.500000
O O1 0.136848 0.500000 0.872889
O O2 0.155433 0.778400 0.936791
O O3 0.151910 0.780554 0.808211
O O4 0.057622 0.733619 0.869960
O O5 0.187351 0.500000 0.000000
O O6 0.254230 0.228236 0.000000
O O7 0.500000 0.500000 0.189922
O O8 0.443954 0.220423 0.151041
O O9 0.500000 0.223343 0.261747
O O10 0.601254 0.500000 0.893151
O O11 0.657721 0.292734 0.817733
O O12 0.645932 0.220740 0.937704
O O13 0.174956 0.500000 0.258879
O O14 0.250000 0.750000 0.250000
O O15 0.000000 0.000000 0.167915
O O16 0.818818 0.000000 0.500000
#
# Coordination Sequence:
#
# PCOD9520321 Si02
#       7
#    16   8   8  16  16   8   8
#     4  10  21  37  58  81 108 146 190 230 276 334
#     4   9  18  35  55  79 109 143 186 235 280 323
#     4   9  18  32  54  83 115 147 180 229 281 329
#     4  10  19  35  57  83 114 150 189 229 279 333
#     4  11  22  35  55  83 111 145 189 237 283 335
#     4  11  21  36  57  83 116 146 181 232 285 331
#     4   9  18  33  58  85 114 149 186 233 278 331
#
# _framework density 21.343095999999999
#
# number of rings (size 3 to 8) (size 9 to 14) (size 15 to 20)
#    0.000    2.000    2.000    2.100    0.000    4.800 
#    0.000    5.500    0.000    1.200    0.000    1.400 
#    0.000    0.000    0.000    0.000    0.000    0.000 
#
# Total GULP energy -223481.384931 kJ/mol
# GULP energy per Si atom -5587.034623 kJ/mol
# Density = 2.129452 g / cm^3
# Si number density = 21.343096 Si / 1000 Ang^3
#
#
#
# Elastic Constant Matrix: (Units=GPa)
#
#
# Indices 1 2 3 4 5 6 
#
# 1 153.7358 -17.4660 67.2531 0.0000 0.0000 0.0000
# 2 -17.4660 53.0447 1.6505 0.0000 0.0000 0.0000
# 3 67.2531 1.6505 161.8248 0.0000 0.0000 0.0000
# 4 0.0000 0.0000 0.0000 3.2970 0.0000 0.0000
# 5 0.0000 0.0000 0.0000 0.0000 39.6693 0.0000
# 6 0.0000 0.0000 0.0000 0.0000 0.0000 13.5775
#
#
#
# Elastic Compliance Matrix: (Units=1/GPa)
#
#
# Indices 1 2 3 4 5 6 
#
# 1 0.008363 0.002863 -0.003505 0.000000 0.000000 0.000000
# 2 0.002863 0.019838 -0.001392 0.000000 0.000000 0.000000
# 3 -0.003505 -0.001392 0.007650 0.000000 0.000000 0.000000
# 4 0.000000 0.000000 0.000000 0.303303 0.000000 0.000000
# 5 0.000000 0.000000 0.000000 0.000000 0.025208 0.000000
# 6 0.000000 0.000000 0.000000 0.000000 0.000000 0.073651
#
#
# Mechanical properties :
#
#
# Convention : Reuss Voigt Hill
#
# Bulk Modulus (GPa) = 31.46325 52.38672 41.92498
# Shear Modulus (GPa) = 11.04542 32.45330 21.74936
#
# Velocity S-wave (km/s) = 2.27737 3.90366 3.19570
# Velocity P-wave (km/s) = 4.65713 6.70197 5.77084
#
# Compressibility (1/GPa) = 0.03178312
#
# Stress axis : x y z
#
# Youngs Moduli (GPa) = 119.57235 50.40839 130.71366
#
# Poissons Ratio (x) = -0.14431 0.45813
# Poissons Ratio (y) = -0.34231 0.18196
# Poissons Ratio (z) = 0.41908 0.07017
#
# Static dielectric constant tensor:
#      x y z
#    x 1.731690 0.000000 0.000000 
#    y 0.000000 1.842790 0.000000 
#    z 0.000000 0.000000 1.746680 
# 
# From -- ./inp_files/55496.got.cif
#   From: 2010.05.17/outbox.cif.g08.bks.cpg/sg71_28_cif.got.tgz:55496.got - 2010.06.03 16:22:01.
