data_PCOD9520876
_publ_section_title
;
Structure prediction by ZEFSAII (Michael W. Deem and Ramdas Pophale) SiO2 
 PCOD9520876
Probable space group: I M M M
;
_chemical_formula_sum "Si O2"
_cell_formula_units_Z 72
_cell_length_a 8.597115
_cell_length_b 32.413513
_cell_length_c 14.845265
_cell_angle_alpha 90.000000
_cell_angle_beta 90.000000
_cell_angle_gamma 90.000000
_cell_volume 4136.821610
_symmetry_space_group_name_H-M "I M M M"
_symmetry_group_IT_number 71
_symmetry_cell_setting 'orthorhombic'
loop_
_space_group_symop_operation_xyz
x,y,z
-x,-y,z
x,-y,-z
-x,y,-z
-x,-y,-z
x,y,-z
-x,y,z
x,-y,z
1/2+x,1/2+y,1/2+z
1/2-x,1/2-y,1/2+z
1/2+x,1/2-y,1/2-z
1/2-x,1/2+y,1/2-z
1/2-x,1/2-y,1/2-z
1/2+x,1/2+y,1/2-z
1/2-x,1/2+y,1/2+z
1/2+x,1/2-y,1/2+z
loop_
_atom_site_type_symbol
_atom_site_label
_atom_site_fract_x
_atom_site_fract_y
_atom_site_fract_z
Si Si1 0.689202 0.760480 0.500000
Si Si2 0.186192 0.867359 0.197570
Si Si3 0.187216 0.289306 0.195428
Si Si4 0.311239 0.665022 0.500000
Si Si5 0.684604 0.953063 0.194130
Si Si6 0.326563 0.548449 0.500000
O O1 0.500000 0.759202 0.500000
O O2 0.736581 0.782980 0.591684
O O3 0.742284 0.712697 0.500000
O O4 0.248178 0.830480 0.259161
O O5 0.242530 0.911684 0.235241
O O6 0.000000 0.867397 0.196521
O O7 0.236905 0.856826 0.093691
O O8 0.250000 0.250000 0.250000
O O9 0.000000 0.289530 0.199332
O O10 0.500000 0.666158 0.500000
O O11 0.500000 0.952644 0.205685
O O12 0.739636 0.000000 0.217898
O O13 0.730412 0.945439 0.090060
O O14 0.353181 0.500000 0.500000
O O15 0.500000 0.568607 0.500000
#
# Coordination Sequence:
#
# PCOD9520876 Si02
#       6
#     8  16  16   8  16   8
#     4   9  18  35  55  73 103 143 176 208 257 314
#     4  11  21  34  53  77 106 140 179 222 267 319
#     4  11  21  36  56  78 105 139 178 219 263 313
#     4   9  17  31  49  72 103 141 179 211 254 311
#     4  10  20  33  48  69 100 137 179 224 264 311
#     4   9  16  27  44  66  95 134 175 214 261 312
#
# _framework density 17.404667
#
# number of rings (size 3 to 8) (size 9 to 14) (size 15 to 20)
#    0.000    1.889    2.222    3.000    0.000    3.556 
#    0.000    5.000    0.000    0.000    0.000    0.778 
#    0.000    6.222    0.000    0.000    0.000    0.000 
#
# Total GULP energy -200619.204217 kJ/mol
# GULP energy per Si atom -5572.755673 kJ/mol
# Density = 1.736505 g / cm^3
# Si number density = 17.404667 Si / 1000 Ang^3
#
#
#
# Elastic Constant Matrix: (Units=GPa)
#
#
# Indices 1 2 3 4 5 6 
#
# 1 47.6406 40.6795 21.5959 -0.0001 0.0000 0.0000
# 2 40.6795 194.1673 65.0232 -0.0001 0.0000 0.0000
# 3 21.5959 65.0232 92.9091 -0.0008 -0.0001 0.0000
# 4 -0.0001 -0.0001 -0.0008 47.6173 -0.0001 0.0000
# 5 0.0000 0.0000 -0.0001 -0.0001 17.7494 0.0000
# 6 0.0000 0.0000 0.0000 0.0000 0.0000 30.5021
#
#
#
# Elastic Compliance Matrix: (Units=1/GPa)
#
#
# Indices 1 2 3 4 5 6 
#
# 1 0.026161 -0.004499 -0.002932 0.000000 0.000000 0.000000
# 2 -0.004499 0.007500 -0.004203 0.000000 0.000000 0.000000
# 3 -0.002932 -0.004203 0.014387 0.000000 0.000000 0.000000
# 4 0.000000 0.000000 0.000000 0.021001 0.000000 0.000000
# 5 0.000000 0.000000 0.000000 0.000000 0.056340 0.000000
# 6 0.000000 0.000000 0.000000 0.000000 0.000000 0.032785
#
#
# Mechanical properties :
#
#
# Convention : Reuss Voigt Hill
#
# Bulk Modulus (GPa) = 40.35700 65.47935 52.91817
# Shear Modulus (GPa) = 26.35697 33.00165 29.67931
#
# Velocity S-wave (km/s) = 3.89570 4.35919 4.13395
# Velocity P-wave (km/s) = 6.59342 7.93978 7.29771
#
# Compressibility (1/GPa) = 0.02477885
#
# Stress axis : x y z
#
# Youngs Moduli (GPa) = 38.22424 133.32531 69.50893
#
# Poissons Ratio (x) = 0.59983 0.20382
# Poissons Ratio (y) = 0.17197 0.29218
# Poissons Ratio (z) = 0.11209 0.56043
#
# Static dielectric constant tensor:
#      x y z
#    x 1.597850 0.000000 0.000000 
#    y 0.000000 1.650910 0.000000 
#    z 0.000000 0.000000 1.614740 
# 
# From -- ./inp_files/31681.got.cif
#   From: 2010.05.17/outbox.cif.g08.bks.cpg/sg71_16_cif.got.tgz:31681.got - 2010.06.03 16:22:01.
