data_PCOD9520670
_publ_section_title
;
Structure prediction by ZEFSAII (Michael W. Deem and Ramdas Pophale) SiO2 
 PCOD9520670
Probable space group: I M M M
;
_chemical_formula_sum "Si O2"
_cell_formula_units_Z 104
_cell_length_a 33.148144
_cell_length_b 20.964862
_cell_length_c 8.718902
_cell_angle_alpha 90.000000
_cell_angle_beta 90.000000
_cell_angle_gamma 90.000000
_cell_volume 6059.168376
_symmetry_space_group_name_H-M "I M M M"
_symmetry_group_IT_number 71
_symmetry_cell_setting 'orthorhombic'
loop_
_space_group_symop_operation_xyz
x,y,z
-x,-y,z
x,-y,-z
-x,y,-z
-x,-y,-z
x,y,-z
-x,y,z
x,-y,z
1/2+x,1/2+y,1/2+z
1/2-x,1/2-y,1/2+z
1/2+x,1/2-y,1/2-z
1/2-x,1/2+y,1/2-z
1/2-x,1/2-y,1/2-z
1/2+x,1/2+y,1/2-z
1/2-x,1/2+y,1/2+z
1/2+x,1/2-y,1/2+z
loop_
_atom_site_type_symbol
_atom_site_label
_atom_site_fract_x
_atom_site_fract_y
_atom_site_fract_z
Si Si1 0.580907 0.127538 0.681790
Si Si2 0.179080 0.928757 0.686759
Si Si3 0.452074 0.000000 0.825730
Si Si4 0.227274 0.427595 0.815044
Si Si5 0.545055 0.736259 0.316102
Si Si6 0.870301 0.806173 0.685594
Si Si7 0.164191 0.671277 0.317735
O O1 0.588869 0.126657 0.500000
O O2 0.552618 0.188533 0.714263
O O3 0.622515 0.137715 0.770778
O O4 0.561629 0.062532 0.736824
O O5 0.178377 0.928346 0.500000
O O6 0.225885 0.919090 0.730515
O O7 0.150702 0.871321 0.738669
O O8 0.166709 0.000000 0.736235
O O9 0.500000 0.000000 0.833479
O O10 0.435892 0.000000 0.000000
O O11 0.214730 0.500000 0.766930
O O12 0.199875 0.370610 0.753222
O O13 0.225455 0.426551 0.000000
O O14 0.546407 0.727571 0.500000
O O15 0.500000 0.717903 0.262468
O O16 0.584000 0.701985 0.244464
O O17 0.871385 0.805415 0.500000
O O18 0.843409 0.744648 0.734334
O O19 0.169266 0.672089 0.500000
#
# Coordination Sequence:
#
# PCOD9520670 Si02
#       7
#    16  16   8  16  16  16  16
#     4  10  20  34  51  68  90 126 170 209 242 288
#     4   8  15  31  54  76  98 127 163 204 245 291
#     4  11  23  35  47  67  95 125 159 205 261 305
#     4   9  18  32  50  70  94 130 175 210 240 288
#     4   9  18  33  52  73  97 126 161 200 242 290
#     4   9  18  32  51  76 101 126 161 202 249 299
#     4  10  20  32  46  70 103 131 159 204 257 298
#
# _framework density 17.164071
#
# number of rings (size 3 to 8) (size 9 to 14) (size 15 to 20)
#    0.000    2.692    0.000    2.538    1.077    3.692 
#    0.000    0.769    0.000    1.846    0.000    3.231 
#    0.000    0.000    0.000    0.000    0.000    0.000 
#
# Total GULP energy -289804.170277 kJ/mol
# GULP energy per Si atom -5573.157121 kJ/mol
# Density = 1.712500 g / cm^3
# Si number density = 17.164071 Si / 1000 Ang^3
#
#
#
# Elastic Constant Matrix: (Units=GPa)
#
#
# Indices 1 2 3 4 5 6 
#
# 1 106.7300 95.2562 19.8626 0.0000 0.0000 0.0000
# 2 95.2562 141.6544 23.0948 0.0000 0.0000 0.0000
# 3 19.8626 23.0948 11.2980 0.0000 0.0000 0.0000
# 4 0.0000 0.0000 0.0000 18.4567 0.0000 0.0000
# 5 0.0000 0.0000 0.0000 0.0000 23.5759 0.0000
# 6 0.0000 0.0000 0.0000 0.0000 0.0000 22.3537
#
#
#
# Elastic Compliance Matrix: (Units=1/GPa)
#
#
# Indices 1 2 3 4 5 6 
#
# 1 0.024886 -0.014401 -0.014313 0.000000 0.000000 0.000000
# 2 -0.014401 0.018922 -0.013361 0.000000 0.000000 0.000000
# 3 -0.014313 -0.013361 0.140987 0.000000 0.000000 0.000000
# 4 0.000000 0.000000 0.000000 0.054181 0.000000 0.000000
# 5 0.000000 0.000000 0.000000 0.000000 0.042416 0.000000
# 6 0.000000 0.000000 0.000000 0.000000 0.000000 0.044735
#
#
# Mechanical properties :
#
#
# Convention : Reuss Voigt Hill
#
# Bulk Modulus (GPa) = 9.93598 59.56773 34.75185
# Shear Modulus (GPa) = 11.26565 20.97518 16.12041
#
# Velocity S-wave (km/s) = 2.56471 3.49956 3.06795
# Velocity P-wave (km/s) = 3.81729 7.14909 5.73067
#
# Compressibility (1/GPa) = 0.10064435
#
# Stress axis : x y z
#
# Youngs Moduli (GPa) = 40.18281 52.84848 7.09284
#
# Poissons Ratio (x) = 0.76109 0.10152
# Poissons Ratio (y) = 0.57869 0.09477
# Poissons Ratio (z) = 0.57514 0.70611
#
# Static dielectric constant tensor:
#      x y z
#    x 1.567050 0.000000 0.000000 
#    y 0.000000 1.584770 0.000000 
#    z 0.000000 0.000000 1.587600 
# 
# From -- ./inp_files/17042.got.cif
#   From: 2010.05.17/outbox.cif.g08.bks.cpg/sg71_9_cif.got.tgz:17042.got - 2010.06.03 16:22:01.
