data_PCOD9520518
_publ_section_title
;
Structure prediction by ZEFSAII (Michael W. Deem and Ramdas Pophale) SiO2 
 PCOD9520518
Probable space group: I M M M
;
_chemical_formula_sum "Si O2"
_cell_formula_units_Z 104
_cell_length_a 22.212084
_cell_length_b 15.687094
_cell_length_c 15.887622
_cell_angle_alpha 90.000000
_cell_angle_beta 90.000000
_cell_angle_gamma 90.000000
_cell_volume 5535.931461
_symmetry_space_group_name_H-M "I M M M"
_symmetry_group_IT_number 71
_symmetry_cell_setting 'orthorhombic'
loop_
_space_group_symop_operation_xyz
x,y,z
-x,-y,z
x,-y,-z
-x,y,-z
-x,-y,-z
x,y,-z
-x,y,z
x,-y,z
1/2+x,1/2+y,1/2+z
1/2-x,1/2-y,1/2+z
1/2+x,1/2-y,1/2-z
1/2-x,1/2+y,1/2-z
1/2-x,1/2-y,1/2-z
1/2+x,1/2+y,1/2-z
1/2-x,1/2+y,1/2+z
1/2+x,1/2-y,1/2+z
loop_
_atom_site_type_symbol
_atom_site_label
_atom_site_fract_x
_atom_site_fract_y
_atom_site_fract_z
Si Si1 0.927451 0.500000 0.099715
Si Si2 0.772915 0.730742 0.906110
Si Si3 0.429494 0.690295 0.764972
Si Si4 0.631133 0.854878 0.284902
Si Si5 0.739466 0.092690 0.173504
Si Si6 0.927158 0.097189 0.907584
Si Si7 0.179122 0.098170 0.341550
O O1 0.901314 0.418981 0.150697
O O2 0.000000 0.500000 0.103307
O O3 0.910198 0.500000 0.000000
O O4 0.822403 0.701900 0.839004
O O5 0.750148 0.825082 0.883498
O O6 0.718999 0.662291 0.896654
O O7 0.797242 0.727156 0.000000
O O8 0.500000 0.675837 0.780102
O O9 0.413608 0.790006 0.761433
O O10 0.413652 0.654842 0.671620
O O11 0.386410 0.638464 0.827340
O O12 0.673949 0.900917 0.217307
O O13 0.786886 0.097653 0.250887
O O14 0.746491 0.000000 0.132320
O O15 0.000000 0.094411 0.911468
O O16 0.906274 0.000000 0.893613
O O17 0.905769 0.125739 0.000000
O O18 0.177758 0.000000 0.370940
#
# Coordination Sequence:
#
# PCOD9520518 Si02
#       7
#     8  16  16  16  16  16  16
#     4  11  24  38  54  86 127 161 198 238 278 341
#     4  11  22  37  60  88 115 144 191 248 299 347
#     4  11  20  32  55  80 110 151 192 229 274 339
#     4  11  20  39  57  81 115 154 193 229 285 343
#     4  10  19  38  63  80 108 148 190 244 294 342
#     4   8  15  27  41  62  96 137 179 217 254 306
#     4  10  20  36  56  82 116 149 190 238 284 341
#
# _framework density 18.786359000000001
#
# number of rings (size 3 to 8) (size 9 to 14) (size 15 to 20)
#    0.000    1.769    3.846    2.769    1.077    2.769 
#    0.000    1.538    0.000    0.462    0.000    1.077 
#    0.000    1.846    0.000    0.000    0.000    0.000 
#
# Total GULP energy -290220.847156 kJ/mol
# GULP energy per Si atom -5581.170138 kJ/mol
# Density = 1.874360 g / cm^3
# Si number density = 18.786359 Si / 1000 Ang^3
#
#
#
# Elastic Constant Matrix: (Units=GPa)
#
#
# Indices 1 2 3 4 5 6 
#
# 1 80.8267 27.9483 -3.6657 0.0000 0.0000 0.0000
# 2 27.9483 130.8898 7.8386 0.0000 0.0000 0.0000
# 3 -3.6657 7.8386 4.2471 0.0000 0.0000 0.0000
# 4 0.0000 0.0000 0.0000 10.4755 0.0000 0.0000
# 5 0.0000 0.0000 0.0000 0.0000 14.6773 0.0000
# 6 0.0000 0.0000 0.0000 0.0000 0.0000 15.6501
#
#
#
# Elastic Compliance Matrix: (Units=1/GPa)
#
#
# Indices 1 2 3 4 5 6 
#
# 1 0.014856 -0.004430 0.020998 0.000000 0.000000 0.000000
# 2 -0.004430 0.009910 -0.022114 0.000000 0.000000 0.000000
# 3 0.020998 -0.022114 0.294392 0.000000 0.000000 0.000000
# 4 0.000000 0.000000 0.000000 0.095461 0.000000 0.000000
# 5 0.000000 0.000000 0.000000 0.000000 0.068132 0.000000
# 6 0.000000 0.000000 0.000000 0.000000 0.000000 0.063897
#
#
# Mechanical properties :
#
#
# Convention : Reuss Voigt Hill
#
# Bulk Modulus (GPa) = 3.24605 31.13401 17.19003
# Shear Modulus (GPa) = 7.57084 20.41676 13.99380
#
# Velocity S-wave (km/s) = 2.00966 3.30022 2.73223
# Velocity P-wave (km/s) = 2.66769 5.57948 4.37305
#
# Compressibility (1/GPa) = 0.30806696
#
# Stress axis : x y z
#
# Youngs Moduli (GPa) = 67.31223 100.90605 3.39683
#
# Poissons Ratio (x) = 0.44698 -0.07133
# Poissons Ratio (y) = 0.29817 0.07512
# Poissons Ratio (z) = -1.41342 2.23143
#
# Static dielectric constant tensor:
#      x y z
#    x 1.650800 0.000000 0.000000 
#    y 0.000000 1.685510 0.000000 
#    z 0.000000 0.000000 1.617140 
# 
# From -- ./inp_files/47309.got.cif
#   From: 2010.05.17/outbox.cif.g08.bks.cpg/sg71_24_cif.got.tgz:47309.got - 2010.06.03 16:22:01.
