data_PCOD9520029
_publ_section_title
;
Structure prediction by ZEFSAII (Michael W. Deem and Ramdas Pophale) SiO2 
 PCOD9520029
Probable space group: I M M M
;
_chemical_formula_sum "Si O2"
_cell_formula_units_Z 96
_cell_length_a 15.245182
_cell_length_b 24.033570
_cell_length_c 14.132802
_cell_angle_alpha 90.000000
_cell_angle_beta 90.000000
_cell_angle_gamma 90.000000
_cell_volume 5178.204224
_symmetry_space_group_name_H-M "I M M M"
_symmetry_group_IT_number 71
_symmetry_cell_setting 'orthorhombic'
loop_
_space_group_symop_operation_xyz
x,y,z
-x,-y,z
x,-y,-z
-x,y,-z
-x,-y,-z
x,y,-z
-x,y,z
x,-y,z
1/2+x,1/2+y,1/2+z
1/2-x,1/2-y,1/2+z
1/2+x,1/2-y,1/2-z
1/2-x,1/2+y,1/2-z
1/2-x,1/2-y,1/2-z
1/2+x,1/2+y,1/2-z
1/2-x,1/2+y,1/2+z
1/2+x,1/2-y,1/2+z
loop_
_atom_site_type_symbol
_atom_site_label
_atom_site_fract_x
_atom_site_fract_y
_atom_site_fract_z
Si Si1 0.395224 0.874323 0.391675
Si Si2 0.809915 0.893239 0.111583
Si Si3 0.500000 0.564292 0.615449
Si Si4 0.165099 0.000000 0.389910
Si Si5 0.401058 0.624924 0.888128
Si Si6 0.397217 0.000000 0.345215
Si Si7 0.722485 0.000000 0.197354
Si Si8 0.249583 0.684637 0.768306
O O1 0.378789 0.856499 0.500000
O O2 0.500000 0.870602 0.373803
O O3 0.338172 0.838497 0.318824
O O4 0.367733 0.939532 0.383702
O O5 0.910125 0.905806 0.143827
O O6 0.766527 0.843366 0.167248
O O7 0.754089 0.947114 0.140133
O O8 0.811105 0.885154 0.000000
O O9 0.500000 0.500000 0.648328
O O10 0.500000 0.562398 0.500000
O O11 0.113796 0.058223 0.378469
O O12 0.198064 0.000000 0.500000
O O13 0.231291 0.000000 0.301223
O O14 0.500000 0.638306 0.857689
O O15 0.328489 0.660020 0.832679
O O16 0.392742 0.636628 0.000000
O O17 0.500000 0.000000 0.366272
O O18 0.377087 0.000000 0.232753
O O19 0.250000 0.750000 0.750000
#
# Coordination Sequence:
#
# PCOD9520029 Si02
#       8
#    16  16   8   8  16   8   8  16
#     4  10  21  40  66  94 122 151 192 251 316 374
#     4  11  23  39  59  88 123 161 202 246 296 356
#     4   9  18  34  58  90 124 152 188 237 294 363
#     4  10  19  33  59  96 130 151 179 227 302 381
#     4  10  21  38  62  93 126 155 187 234 301 380
#     4  10  19  34  62  95 121 144 181 242 318 376
#     4  12  19  34  59  87 118 164 190 240 299 368
#     4  12  26  41  60  83 117 165 213 256 295 344
#
# _framework density 18.539245000000001
#
# number of rings (size 3 to 8) (size 9 to 14) (size 15 to 20)
#    0.000    1.417    4.167    1.250    1.167    6.000 
#    1.500    0.000    0.000    2.500    0.000    0.000 
#    0.000    0.000    0.000    0.000    0.000    0.000 
#
# Total GULP energy -267938.077611 kJ/mol
# GULP energy per Si atom -5582.043284 kJ/mol
# Density = 1.849705 g / cm^3
# Si number density = 18.539245 Si / 1000 Ang^3
#
#
#
# Elastic Constant Matrix: (Units=GPa)
#
#
# Indices 1 2 3 4 5 6 
#
# 1 76.9720 48.2781 49.1205 0.0000 0.0000 0.0000
# 2 48.2781 150.0133 54.6344 0.0000 0.0000 0.0000
# 3 49.1205 54.6344 103.8590 0.0001 0.0000 0.0000
# 4 0.0000 0.0000 0.0001 -9.2358 0.0000 0.0000
# 5 0.0000 0.0000 0.0000 0.0000 31.1460 0.0000
# 6 0.0000 0.0000 0.0000 0.0000 0.0000 10.3090
#
#
#
# Elastic Compliance Matrix: (Units=1/GPa)
#
#
# Indices 1 2 3 4 5 6 
#
# 1 0.020166 -0.003731 -0.007575 0.000000 0.000000 0.000000
# 2 -0.003731 0.008936 -0.002936 0.000000 0.000000 0.000000
# 3 -0.007575 -0.002936 0.014755 0.000000 0.000000 0.000000
# 4 0.000000 0.000000 0.000000 -0.108274 0.000000 0.000000
# 5 0.000000 0.000000 0.000000 0.000000 0.032107 0.000000
# 6 0.000000 0.000000 0.000000 0.000000 0.000000 0.097003
#
#
# Mechanical properties :
#
#
# Convention : Reuss Voigt Hill
#
# Bulk Modulus (GPa) = 65.04748 70.54559 67.79653
# Shear Modulus (GPa) = 50.86379 18.36459 34.61419
#
# Velocity S-wave (km/s) = 5.24360 3.15076 4.32566
# Velocity P-wave (km/s) = 8.47484 7.16736 7.84837
#
# Compressibility (1/GPa) = 0.01537339
#
# Stress axis : x y z
#
# Youngs Moduli (GPa) = 49.58859 111.90427 67.77137
#
# Poissons Ratio (x) = 0.41754 0.51335
# Poissons Ratio (y) = 0.18503 0.19899
# Poissons Ratio (z) = 0.37562 0.32857
#
# Static dielectric constant tensor:
#      x y z
#    x 1.749700 0.000000 0.000000 
#    y 0.000000 1.574460 0.000000 
#    z 0.000000 0.000000 1.655450 
# 
# From -- ./inp_files/34810.got.cif
#   From: 2010.05.17/outbox.cif.g08.bks.cpg/sg71_18_cif.got.tgz:34810.got - 2010.06.03 16:22:01.
