data_PCOD9520339
_publ_section_title
;
Structure prediction by ZEFSAII (Michael W. Deem and Ramdas Pophale) SiO2 
 PCOD9520339
Probable space group: I M M M
;
_chemical_formula_sum "Si O2"
_cell_formula_units_Z 104
_cell_length_a 8.532760
_cell_length_b 27.697571
_cell_length_c 22.994178
_cell_angle_alpha 90.000000
_cell_angle_beta 90.000000
_cell_angle_gamma 90.000000
_cell_volume 5434.368744
_symmetry_space_group_name_H-M "I M M M"
_symmetry_group_IT_number 71
_symmetry_cell_setting 'orthorhombic'
loop_
_space_group_symop_operation_xyz
x,y,z
-x,-y,z
x,-y,-z
-x,y,-z
-x,-y,-z
x,y,-z
-x,y,z
x,-y,z
1/2+x,1/2+y,1/2+z
1/2-x,1/2-y,1/2+z
1/2+x,1/2-y,1/2-z
1/2-x,1/2+y,1/2-z
1/2-x,1/2-y,1/2-z
1/2+x,1/2+y,1/2-z
1/2-x,1/2+y,1/2+z
1/2+x,1/2-y,1/2+z
loop_
_atom_site_type_symbol
_atom_site_label
_atom_site_fract_x
_atom_site_fract_y
_atom_site_fract_z
Si Si1 0.187010 0.294700 0.177320
Si Si2 0.323704 0.942363 0.276229
Si Si3 0.812135 0.000000 0.932306
Si Si4 0.810272 0.412984 0.352637
Si Si5 0.810280 0.154594 0.562376
Si Si6 0.310681 0.187007 0.806709
Si Si7 0.814099 0.946215 0.398777
O O1 0.249464 0.319519 0.119548
O O2 0.246038 0.239529 0.178037
O O3 0.236397 0.320010 0.238523
O O4 0.000000 0.294915 0.176618
O O5 0.500000 0.921608 0.284123
O O6 0.264969 0.928802 0.212722
O O7 0.218814 0.931932 0.331847
O O8 0.337380 0.000000 0.275508
O O9 0.755224 0.048397 0.898525
O O10 0.000000 0.000000 0.931467
O O11 0.759699 0.000000 0.000000
O O12 0.763256 0.356349 0.350275
O O13 0.000000 0.415663 0.356547
O O14 0.762919 0.176090 0.500000
O O15 0.755119 0.098913 0.564911
O O16 0.000000 0.154778 0.564743
O O17 0.500000 0.188464 0.807900
O O18 0.000000 0.949376 0.408075
O O19 0.747854 0.000000 0.409683
#
# Coordination Sequence:
#
# PCOD9520339 Si02
#       7
#    16  16   8  16  16  16  16
#     4  10  20  36  58  84 113 143 178 225 280 331
#     4   9  16  28  48  75 107 137 166 207 258 307
#     4  11  25  41  55  77 113 151 186 231 282 329
#     4  10  19  35  58  82 107 142 184 220 263 327
#     4  10  21  36  53  73 103 146 188 224 264 314
#     4   9  19  35  59  88 115 140 174 223 280 337
#     4   9  18  31  48  74 106 138 178 222 264 311
#
# _framework density 19.137456
#
# number of rings (size 3 to 8) (size 9 to 14) (size 15 to 20)
#    0.000    2.385    0.769    1.615    0.000    4.923 
#    0.000    2.308    0.000    0.923    0.000    3.231 
#    0.000    0.000    0.000    0.000    0.000    0.000 
#
# Total GULP energy -289795.234235 kJ/mol
# GULP energy per Si atom -5572.985274 kJ/mol
# Density = 1.909390 g / cm^3
# Si number density = 19.137456 Si / 1000 Ang^3
#
#
#
# Elastic Constant Matrix: (Units=GPa)
#
#
# Indices 1 2 3 4 5 6 
#
# 1 13.7995 28.7123 19.2414 0.0000 0.0000 0.0000
# 2 28.7123 118.4456 83.6713 0.0000 0.0000 0.0000
# 3 19.2414 83.6713 120.2048 0.0000 0.0000 0.0000
# 4 0.0000 0.0000 0.0000 19.1557 0.0000 0.0000
# 5 0.0000 0.0000 0.0000 0.0000 -8.2419 0.0000
# 6 0.0000 0.0000 0.0000 0.0000 0.0000 19.0989
#
#
#
# Elastic Compliance Matrix: (Units=1/GPa)
#
#
# Indices 1 2 3 4 5 6 
#
# 1 0.146593 -0.037300 0.002498 0.000000 0.000000 0.000000
# 2 -0.037300 0.026101 -0.012198 0.000000 0.000000 0.000000
# 3 0.002498 -0.012198 0.016410 0.000000 0.000000 0.000000
# 4 0.000000 0.000000 0.000000 0.052204 0.000000 0.000000
# 5 0.000000 0.000000 0.000000 0.000000 -0.121331 0.000000
# 6 0.000000 0.000000 0.000000 0.000000 0.000000 0.052359
#
#
# Mechanical properties :
#
#
# Convention : Reuss Voigt Hill
#
# Bulk Modulus (GPa) = 10.51475 57.30000 33.90737
# Shear Modulus (GPa) = 16.77650 14.05752 15.41701
#
# Velocity S-wave (km/s) = 2.96401 2.71321 2.84138
# Velocity P-wave (km/s) = 4.14970 6.31044 5.34049
#
# Compressibility (1/GPa) = 0.09510453
#
# Stress axis : x y z
#
# Youngs Moduli (GPa) = 6.82161 38.31249 60.93987
#
# Poissons Ratio (x) = 1.42907 -0.15225
# Poissons Ratio (y) = 0.25445 0.74332
# Poissons Ratio (z) = -0.01704 0.46732
#
# Static dielectric constant tensor:
#      x y z
#    x 1.667630 0.000000 0.000000 
#    y 0.000000 1.709560 0.000000 
#    z 0.000000 0.000000 1.661040 
# 
# From -- ./inp_files/51155.got.cif
#   From: 2010.05.17/outbox.cif.g08.bks.cpg/sg71_26_cif.got.tgz:51155.got - 2010.06.03 16:22:01.
