data_PCOD9520187
_publ_section_title
;
Structure prediction by ZEFSAII (Michael W. Deem and Ramdas Pophale) SiO2 
 PCOD9520187
Probable space group: I M M M
;
_chemical_formula_sum "Si O2"
_cell_formula_units_Z 72
_cell_length_a 14.130488
_cell_length_b 30.181992
_cell_length_c 7.510515
_cell_angle_alpha 90.000000
_cell_angle_beta 90.000000
_cell_angle_gamma 90.000000
_cell_volume 3203.131571
_symmetry_space_group_name_H-M "I M M M"
_symmetry_group_IT_number 71
_symmetry_cell_setting 'orthorhombic'
loop_
_space_group_symop_operation_xyz
x,y,z
-x,-y,z
x,-y,-z
-x,y,-z
-x,-y,-z
x,y,-z
-x,y,z
x,-y,z
1/2+x,1/2+y,1/2+z
1/2-x,1/2-y,1/2+z
1/2+x,1/2-y,1/2-z
1/2-x,1/2+y,1/2-z
1/2-x,1/2-y,1/2-z
1/2+x,1/2+y,1/2-z
1/2-x,1/2+y,1/2+z
1/2+x,1/2-y,1/2+z
loop_
_atom_site_type_symbol
_atom_site_label
_atom_site_fract_x
_atom_site_fract_y
_atom_site_fract_z
Si Si1 0.105763 0.500000 0.212452
Si Si2 0.791764 0.408085 0.288502
Si Si3 0.895077 0.948807 0.217270
Si Si4 0.107444 0.779045 0.716146
Si Si5 0.687433 0.814154 0.208381
O O1 0.154891 0.545664 0.266457
O O2 0.000000 0.500000 0.284050
O O3 0.103913 0.500000 0.000000
O O4 0.782855 0.400957 0.500000
O O5 0.686938 0.417294 0.216156
O O6 0.835826 0.362719 0.216347
O O7 0.000000 0.936330 0.274852
O O8 0.877021 0.000000 0.269142
O O9 0.893961 0.948568 0.000000
O O10 0.108532 0.779781 0.500000
O O11 0.198663 0.807529 0.775162
O O12 0.134726 0.729240 0.781062
O O13 0.000000 0.791045 0.772230
O O14 0.662177 0.813760 0.000000
#
# Coordination Sequence:
#
# PCOD9520187 Si02
#       5
#     8  16  16  16  16
#     4  11  25  41  54  73 106 146 183 219 262 311
#     4  10  19  34  57  81 104 135 179 226 266 306
#     4   8  13  23  43  71 100 127 157 199 253 306
#     4   9  18  34  53  74 107 146 177 212 266 327
#     4   9  19  33  53  82 108 133 175 227 270 312
#
# _framework density 22.478000999999999
#
# number of rings (size 3 to 8) (size 9 to 14) (size 15 to 20)
#    0.000    2.778    1.111    1.000    0.000    4.000 
#    0.000    4.444    0.000    1.333    0.000    0.000 
#    0.000    0.000    0.000    0.000    0.000    0.000 
#
# Total GULP energy -200797.531842 kJ/mol
# GULP energy per Si atom -5577.709218 kJ/mol
# Density = 2.242684 g / cm^3
# Si number density = 22.478001 Si / 1000 Ang^3
#
#
#
# Elastic Constant Matrix: (Units=GPa)
#
#
# Indices 1 2 3 4 5 6 
#
# 1 34.2085 -1.2002 -18.5599 -0.0018 0.0007 -0.0005
# 2 -1.2002 108.3223 -9.0224 -0.0002 0.0008 0.0003
# 3 -18.5599 -9.0224 60.3271 -0.0133 0.0358 -0.0031
# 4 -0.0018 -0.0002 -0.0133 1.3127 0.0049 -0.0057
# 5 0.0007 0.0008 0.0358 0.0049 16.0378 0.0033
# 6 -0.0005 0.0003 -0.0031 -0.0057 0.0033 19.7771
#
#
#
# Elastic Compliance Matrix: (Units=1/GPa)
#
#
# Indices 1 2 3 4 5 6 
#
# 1 0.035273 0.001311 0.011048 0.000160 -0.000026 0.000003
# 2 0.001311 0.009397 0.001809 0.000022 -0.000005 0.000000
# 3 0.011048 0.001809 0.020246 0.000220 -0.000046 0.000004
# 4 0.000160 0.000022 0.000220 0.761813 -0.000232 0.000221
# 5 -0.000026 -0.000005 -0.000046 -0.000232 0.062353 -0.000010
# 6 0.000003 0.000000 0.000004 0.000221 -0.000010 0.050564
#
#
# Mechanical properties :
#
#
# Convention : Reuss Voigt Hill
#
# Bulk Modulus (GPa) = 10.72379 16.14365 13.43372
# Shear Modulus (GPa) = 5.30564 22.86820 14.08692
#
# Velocity S-wave (km/s) = 1.53802 3.19307 2.50611
# Velocity P-wave (km/s) = 2.81694 4.55980 3.78992
#
# Compressibility (1/GPa) = 0.09325061
#
# Stress axis : x y z
#
# Youngs Moduli (GPa) = 28.35061 106.41818 49.39289
#
# Poissons Ratio (x) = -0.13952 -0.54569
# Poissons Ratio (y) = -0.03717 -0.08934
# Poissons Ratio (z) = -0.31321 -0.19248
#
# Static dielectric constant tensor:
#      x y z
#    x 1.823500 0.000010 0.000000 
#    y 0.000010 2.015630 -0.000020 
#    z 0.000000 -0.000020 1.841150 
# 
# From -- ./inp_files/6441.got.cif
#   From: 2010.05.17/outbox.cif.g08.bks.cpg/sg71_4_cif.got.tgz:6441.got - 2010.06.03 16:22:01.
