data_PCOD9520507
_publ_section_title
;
Structure prediction by ZEFSAII (Michael W. Deem and Ramdas Pophale) SiO2 
 PCOD9520507
Probable space group: I M M M
;
_chemical_formula_sum "Si O2"
_cell_formula_units_Z 100
_cell_length_a 14.414017
_cell_length_b 20.698383
_cell_length_c 17.346109
_cell_angle_alpha 90.000000
_cell_angle_beta 90.000000
_cell_angle_gamma 90.000000
_cell_volume 5175.156883
_symmetry_space_group_name_H-M "I M M M"
_symmetry_group_IT_number 71
_symmetry_cell_setting 'orthorhombic'
loop_
_space_group_symop_operation_xyz
x,y,z
-x,-y,z
x,-y,-z
-x,y,-z
-x,-y,-z
x,y,-z
-x,y,z
x,-y,z
1/2+x,1/2+y,1/2+z
1/2-x,1/2-y,1/2+z
1/2+x,1/2-y,1/2-z
1/2-x,1/2+y,1/2-z
1/2-x,1/2-y,1/2-z
1/2+x,1/2+y,1/2-z
1/2-x,1/2+y,1/2+z
1/2+x,1/2-y,1/2+z
loop_
_atom_site_type_symbol
_atom_site_label
_atom_site_fract_x
_atom_site_fract_y
_atom_site_fract_z
Si Si1 0.107708 0.571417 0.791026
Si Si2 0.111510 0.900233 0.636424
Si Si3 0.775617 0.182384 0.912815
Si Si4 0.390720 0.788896 0.338109
Si Si5 0.160512 0.000000 0.500000
Si Si6 0.390543 0.751169 0.839173
Si Si7 0.207111 0.070579 0.201470
O O1 0.117168 0.500000 0.827983
O O2 0.127326 0.634369 0.842092
O O3 0.183717 0.573774 0.723986
O O4 0.000000 0.577608 0.765431
O O5 0.153641 0.943076 0.568013
O O6 0.128505 0.822815 0.635697
O O7 0.152446 0.922345 0.718366
O O8 0.000000 0.909841 0.633482
O O9 0.833137 0.247423 0.897512
O O10 0.671327 0.200958 0.888986
O O11 0.814269 0.128353 0.855490
O O12 0.781347 0.160952 0.000000
O O13 0.500000 0.778312 0.348659
O O14 0.366845 0.764410 0.251097
O O15 0.500000 0.762735 0.847207
O O16 0.187629 0.000000 0.168238
#
# Coordination Sequence:
#
# PCOD9520507 Si02
#       7
#    16  16  16  16   4  16  16
#     4   9  18  34  60  90 115 146 197 250 297 358
#     4  11  22  38  61  91 126 158 192 237 299 373
#     4  12  25  39  58  87 124 159 206 262 301 351
#     4  10  19  37  64  86 112 156 207 253 301 362
#     4  12  25  40  60  96 135 160 187 240 308 376
#     4  10  21  38  62  89 117 157 203 249 307 369
#     4  11  22  38  61  86 115 161 205 242 299 365
#
# _framework density 19.323086
#
# number of rings (size 3 to 8) (size 9 to 14) (size 15 to 20)
#    0.000    1.440    4.000    2.160    1.120    0.960 
#    0.000    0.000    0.000    0.480    0.000    8.400 
#    0.000    0.000    0.000    0.000    0.000    0.000 
#
# Total GULP energy -278603.371497 kJ/mol
# GULP energy per Si atom -5572.067430 kJ/mol
# Density = 1.927911 g / cm^3
# Si number density = 19.323086 Si / 1000 Ang^3
#
#
#
# Elastic Constant Matrix: (Units=GPa)
#
#
# Indices 1 2 3 4 5 6 
#
# 1 21.6202 7.5154 3.8858 0.0000 0.0000 0.0000
# 2 7.5154 118.2026 27.2851 0.0000 0.0000 0.0000
# 3 3.8858 27.2851 79.4958 0.0000 0.0000 0.0000
# 4 0.0000 0.0000 0.0000 12.5061 0.0000 0.0000
# 5 0.0000 0.0000 0.0000 0.0000 3.0929 0.0000
# 6 0.0000 0.0000 0.0000 0.0000 0.0000 14.4147
#
#
#
# Elastic Compliance Matrix: (Units=1/GPa)
#
#
# Indices 1 2 3 4 5 6 
#
# 1 0.047440 -0.002694 -0.001394 0.000000 0.000000 0.000000
# 2 -0.002694 0.009341 -0.003074 0.000000 0.000000 0.000000
# 3 -0.001394 -0.003074 0.013703 0.000000 0.000000 0.000000
# 4 0.000000 0.000000 0.000000 0.079961 0.000000 0.000000
# 5 0.000000 0.000000 0.000000 0.000000 0.323317 0.000000
# 6 0.000000 0.000000 0.000000 0.000000 0.000000 0.069374
#
#
# Mechanical properties :
#
#
# Convention : Reuss Voigt Hill
#
# Bulk Modulus (GPa) = 17.80691 32.96570 25.38630
# Shear Modulus (GPa) = 8.67783 18.04487 13.36135
#
# Velocity S-wave (km/s) = 2.12148 3.05921 2.63244
# Velocity P-wave (km/s) = 3.90336 5.43835 4.73349
#
# Compressibility (1/GPa) = 0.05615799
#
# Stress axis : x y z
#
# Youngs Moduli (GPa) = 21.07913 107.05440 72.97857
#
# Poissons Ratio (x) = 0.28846 0.10174
# Poissons Ratio (y) = 0.05680 0.22437
# Poissons Ratio (z) = 0.02939 0.32913
#
# Static dielectric constant tensor:
#      x y z
#    x 1.708450 0.000000 0.000000 
#    y 0.000000 1.712430 0.000000 
#    z 0.000000 0.000000 1.629820 
# 
# From -- ./inp_files/44969.got.cif
#   From: 2010.05.17/outbox.cif.g08.bks.cpg/sg71_23_cif.got.tgz:44969.got - 2010.06.03 16:22:01.
