data_PCOD9520879
_publ_section_title
;
Structure prediction by ZEFSAII (Michael W. Deem and Ramdas Pophale) SiO2 
 PCOD9520879
Probable space group: I M M M
;
_chemical_formula_sum "Si O2"
_cell_formula_units_Z 104
_cell_length_a 22.685600
_cell_length_b 7.644287
_cell_length_c 28.998075
_cell_angle_alpha 90.000000
_cell_angle_beta 90.000000
_cell_angle_gamma 90.000000
_cell_volume 5028.708054
_symmetry_space_group_name_H-M "I M M M"
_symmetry_group_IT_number 71
_symmetry_cell_setting 'orthorhombic'
loop_
_space_group_symop_operation_xyz
x,y,z
-x,-y,z
x,-y,-z
-x,y,-z
-x,-y,-z
x,y,-z
-x,y,z
x,-y,z
1/2+x,1/2+y,1/2+z
1/2-x,1/2-y,1/2+z
1/2+x,1/2-y,1/2-z
1/2-x,1/2+y,1/2-z
1/2-x,1/2-y,1/2-z
1/2+x,1/2+y,1/2-z
1/2-x,1/2+y,1/2+z
1/2+x,1/2-y,1/2+z
loop_
_atom_site_type_symbol
_atom_site_label
_atom_site_fract_x
_atom_site_fract_y
_atom_site_fract_z
Si Si1 0.615850 0.711920 0.378061
Si Si2 0.747517 0.213037 0.135565
Si Si3 0.570757 0.000000 0.446368
Si Si4 0.847065 0.302613 0.296870
Si Si5 0.664827 0.788717 0.052076
Si Si6 0.935978 0.792564 0.218340
Si Si7 0.067432 0.207170 0.378713
O O1 0.610459 0.500000 0.384994
O O2 0.684020 0.753161 0.366850
O O3 0.578824 0.768088 0.333077
O O4 0.595130 0.827469 0.420825
O O5 0.711308 0.280083 0.180149
O O6 0.713374 0.272118 0.089323
O O7 0.742843 0.000000 0.136541
O O8 0.500000 0.000000 0.442960
O O9 0.587480 0.000000 0.500000
O O10 0.831496 0.500000 0.284894
O O11 0.882092 0.233706 0.253109
O O12 0.894126 0.296697 0.338893
O O13 0.601940 0.737606 0.073688
O O14 0.667584 0.000000 0.051174
O O15 0.673326 0.725136 0.000000
O O16 0.000000 0.723375 0.234632
O O17 0.941126 0.000000 0.214758
O O18 0.000000 0.266992 0.379877
O O19 0.067800 0.000000 0.368381
#
# Coordination Sequence:
#
# PCOD9520879 Si02
#       7
#    16  16   8  16  16  16  16
#     4  10  22  43  68  93 127 169 202 249 313 367
#     4   8  17  36  58  82 116 153 197 246 298 365
#     4  11  26  46  68 100 134 160 205 263 306 370
#     4  10  20  34  55  83 114 154 199 246 301 355
#     4   9  18  33  53  76 103 139 185 243 303 356
#     4  10  21  36  56  86 121 159 205 249 297 365
#     4  10  20  33  48  69 104 147 191 242 294 350
#
# _framework density 20.681255
#
# number of rings (size 3 to 8) (size 9 to 14) (size 15 to 20)
#    0.000    2.385    0.000    2.769    1.077    6.462 
#    6.923    3.846    0.000    0.000    0.000    0.000 
#    0.000    0.000    0.000    0.000    0.000    0.000 
#
# Total GULP energy -290152.895176 kJ/mol
# GULP energy per Si atom -5579.863369 kJ/mol
# Density = 2.063418 g / cm^3
# Si number density = 20.681255 Si / 1000 Ang^3
#
#
#
# Elastic Constant Matrix: (Units=GPa)
#
#
# Indices 1 2 3 4 5 6 
#
# 1 92.7079 20.9723 34.6303 0.0000 0.0000 0.0000
# 2 20.9723 56.4336 29.2886 0.0000 0.0000 0.0000
# 3 34.6303 29.2886 121.1140 0.0000 0.0000 0.0000
# 4 0.0000 0.0000 0.0000 38.5955 0.0000 0.0000
# 5 0.0000 0.0000 0.0000 0.0000 17.5618 0.0000
# 6 0.0000 0.0000 0.0000 0.0000 0.0000 17.7239
#
#
#
# Elastic Compliance Matrix: (Units=1/GPa)
#
#
# Indices 1 2 3 4 5 6 
#
# 1 0.012564 -0.003207 -0.002817 0.000000 0.000000 0.000000
# 2 -0.003207 0.021082 -0.004181 0.000000 0.000000 0.000000
# 3 -0.002817 -0.004181 0.010073 0.000000 0.000000 0.000000
# 4 0.000000 0.000000 0.000000 0.025910 0.000000 0.000000
# 5 0.000000 0.000000 0.000000 0.000000 0.056942 0.000000
# 6 0.000000 0.000000 0.000000 0.000000 0.000000 0.056421
#
#
# Mechanical properties :
#
#
# Convention : Reuss Voigt Hill
#
# Bulk Modulus (GPa) = 42.90231 48.89310 45.89770
# Shear Modulus (GPa) = 23.67738 27.13388 25.40563
#
# Velocity S-wave (km/s) = 3.38727 3.62609 3.50871
# Velocity P-wave (km/s) = 6.00730 6.42059 6.21738
#
# Compressibility (1/GPa) = 0.02330877
#
# Stress axis : x y z
#
# Youngs Moduli (GPa) = 79.59018 47.43430 99.27310
#
# Poissons Ratio (x) = 0.15214 0.27965
# Poissons Ratio (y) = 0.25527 0.41507
# Poissons Ratio (z) = 0.22420 0.19833
#
# Static dielectric constant tensor:
#      x y z
#    x 1.755640 0.000000 0.000000 
#    y 0.000000 1.798310 0.000000 
#    z 0.000000 0.000000 1.725770 
# 
# From -- ./inp_files/66832.got.cif
#   From: 2010.05.17/outbox.cif.g08.bks.cpg/sg71_34_cif.got.tgz:66832.got - 2010.06.03 16:22:01.
