data_PCOD9520030
_publ_section_title
;
Structure prediction by ZEFSAII (Michael W. Deem and Ramdas Pophale) SiO2 
 PCOD9520030
Probable space group: I M M M
;
_chemical_formula_sum "Si O2"
_cell_formula_units_Z 78
_cell_length_a 11.675378
_cell_length_b 16.595862
_cell_length_c 22.841229
_cell_angle_alpha 90.000000
_cell_angle_beta 90.000000
_cell_angle_gamma 90.000000
_cell_volume 4425.784189
_symmetry_space_group_name_H-M "I M M M"
_symmetry_group_IT_number 71
_symmetry_cell_setting 'orthorhombic'
loop_
_space_group_symop_operation_xyz
x,y,z
-x,-y,z
x,-y,-z
-x,y,-z
-x,-y,-z
x,y,-z
-x,y,z
x,-y,z
1/2+x,1/2+y,1/2+z
1/2-x,1/2-y,1/2+z
1/2+x,1/2-y,1/2-z
1/2-x,1/2+y,1/2-z
1/2-x,1/2-y,1/2-z
1/2+x,1/2+y,1/2-z
1/2-x,1/2+y,1/2+z
1/2+x,1/2-y,1/2+z
loop_
_atom_site_type_symbol
_atom_site_label
_atom_site_fract_x
_atom_site_fract_y
_atom_site_fract_z
Si Si1 0.365975 0.151925 0.195561
Si Si2 0.797223 0.000000 0.000000
Si Si3 0.741819 0.270216 0.890030
Si Si4 0.000000 0.000000 0.500000
Si Si5 0.000000 0.168681 0.563649
Si Si6 0.634196 0.684245 0.500000
Si Si7 0.362573 0.091182 0.325015
Si Si8 0.872538 0.500000 0.391140
O O1 0.500000 0.179510 0.197987
O O2 0.280638 0.216189 0.167365
O O3 0.332295 0.122106 0.259939
O O4 0.363162 0.077053 0.150832
O O5 0.719312 0.000000 0.942024
O O6 0.860346 0.086541 0.000000
O O7 0.616198 0.302469 0.906835
O O8 0.800486 0.220286 0.942829
O O9 0.816939 0.346947 0.872689
O O10 0.000000 0.926906 0.549961
O O11 0.000000 0.210125 0.500000
O O12 0.500000 0.708265 0.500000
O O13 0.500000 0.089271 0.327172
O O14 0.319986 0.000000 0.333698
O O15 0.000000 0.500000 0.417537
#
# Coordination Sequence:
#
# PCOD9520030 Si02
#       8
#    16   4  16   2   8   8  16   8
#     4  10  19  36  61  89 119 150 194 243 293 343
#     4  12  22  38  58  84 124 163 195 234 292 356
#     4  12  22  39  62  88 119 148 198 245 295 349
#     4   8  20  40  52  76 126 150 180 228 300 340
#     4  10  22  38  62  90 113 156 193 242 298 356
#     4  12  26  41  58  84 118 159 198 237 291 353
#     4  10  22  39  60  86 116 157 199 237 288 348
#     4  10  19  33  60  93 120 153 192 243 290 343
#
# _framework density 17.623995000000001
#
# number of rings (size 3 to 8) (size 9 to 14) (size 15 to 20)
#    0.308    1.026    5.128    1.538    1.436    0.000 
#    1.846    0.000    0.000    1.846    0.000    0.000 
#    0.000    0.000    0.000    0.000    0.000    0.000 
#
# Total GULP energy -217206.513979 kJ/mol
# GULP energy per Si atom -5569.397794 kJ/mol
# Density = 1.758388 g / cm^3
# Si number density = 17.623995 Si / 1000 Ang^3
#
#
#
# Elastic Constant Matrix: (Units=GPa)
#
#
# Indices 1 2 3 4 5 6 
#
# 1 66.1210 40.0086 24.0345 0.0000 0.0000 0.0000
# 2 40.0086 123.8363 40.7140 0.0000 0.0000 0.0000
# 3 24.0345 40.7140 68.9532 0.0000 0.0000 0.0000
# 4 0.0000 0.0000 0.0000 -3.6219 0.0000 0.0000
# 5 0.0000 0.0000 0.0000 0.0000 18.2591 0.0000
# 6 0.0000 0.0000 0.0000 0.0000 0.0000 -10.5110
#
#
#
# Elastic Compliance Matrix: (Units=1/GPa)
#
#
# Indices 1 2 3 4 5 6 
#
# 1 0.019583 -0.005066 -0.003835 0.000000 0.000000 0.000000
# 2 -0.005066 0.011331 -0.004925 0.000000 0.000000 0.000000
# 3 -0.003835 -0.004925 0.018747 0.000000 0.000000 0.000000
# 4 0.000000 0.000000 0.000000 -0.276101 0.000000 0.000000
# 5 0.000000 0.000000 0.000000 0.000000 0.054767 0.000000
# 6 0.000000 0.000000 0.000000 0.000000 0.000000 -0.095138
#
#
# Mechanical properties :
#
#
# Convention : Reuss Voigt Hill
#
# Bulk Modulus (GPa) = 45.43314 52.04720 48.74017
# Shear Modulus (GPa) = -21.56811 11.10213 -5.23299
#
# Velocity S-wave (km/s) = -3.50207 2.51259 -1.72502
# Velocity P-wave (km/s) = 3.07936 6.16552 4.87319
#
# Compressibility (1/GPa) = 0.02201036
#
# Stress axis : x y z
#
# Youngs Moduli (GPa) = 51.06457 88.25332 53.34196
#
# Poissons Ratio (x) = 0.44710 0.20454
# Poissons Ratio (y) = 0.25870 0.26269
# Poissons Ratio (z) = 0.19581 0.43462
#
# Static dielectric constant tensor:
#      x y z
#    x 1.623130 0.000000 0.000000 
#    y 0.000000 1.606960 0.000000 
#    z 0.000000 0.000000 1.587230 
# 
# From -- ./inp_files/64412.got.cif
#   From: 2010.05.17/outbox.cif.g08.bks.cpg/sg71_33_cif.got.tgz:64412.got - 2010.06.03 16:22:01.
