data_PCOD9520093
_publ_section_title
;
Structure prediction by ZEFSAII (Michael W. Deem and Ramdas Pophale) SiO2 
 PCOD9520093
Probable space group: I M M M
;
_chemical_formula_sum "Si O2"
_cell_formula_units_Z 120
_cell_length_a 26.332216
_cell_length_b 13.363362
_cell_length_c 18.294424
_cell_angle_alpha 90.000000
_cell_angle_beta 90.000000
_cell_angle_gamma 90.000000
_cell_volume 6437.568783
_symmetry_space_group_name_H-M "I M M M"
_symmetry_group_IT_number 71
_symmetry_cell_setting 'orthorhombic'
loop_
_space_group_symop_operation_xyz
x,y,z
-x,-y,z
x,-y,-z
-x,y,-z
-x,-y,-z
x,y,-z
-x,y,z
x,-y,z
1/2+x,1/2+y,1/2+z
1/2-x,1/2-y,1/2+z
1/2+x,1/2-y,1/2-z
1/2-x,1/2+y,1/2-z
1/2-x,1/2-y,1/2-z
1/2+x,1/2+y,1/2-z
1/2-x,1/2+y,1/2+z
1/2+x,1/2-y,1/2+z
loop_
_atom_site_type_symbol
_atom_site_label
_atom_site_fract_x
_atom_site_fract_y
_atom_site_fract_z
Si Si1 0.058402 0.252188 0.915162
Si Si2 0.896378 0.115752 0.791242
Si Si3 0.273420 0.117200 0.085391
Si Si4 0.656591 0.118394 0.415268
Si Si5 0.558544 0.000000 0.089445
Si Si6 0.058790 0.113957 0.365702
Si Si7 0.205416 0.773329 0.807070
Si Si8 0.120096 0.694282 0.412836
O O1 0.077026 0.165815 0.860860
O O2 0.098848 0.341879 0.906468
O O3 0.000000 0.280056 0.899882
O O4 0.061358 0.220024 0.000000
O O5 0.933313 0.118962 0.721515
O O6 0.845871 0.179988 0.773710
O O7 0.883284 0.000000 0.804584
O O8 0.226490 0.145443 0.135396
O O9 0.322082 0.180350 0.112103
O O10 0.286573 0.000000 0.090584
O O11 0.263153 0.138760 0.000000
O O12 0.671484 0.141088 0.500000
O O13 0.690056 0.177725 0.356309
O O14 0.659633 0.000000 0.404915
O O15 0.586688 0.100709 0.115049
O O16 0.500000 0.000000 0.111844
O O17 0.559421 0.000000 0.000000
O O18 0.094245 0.200324 0.397149
O O19 0.000000 0.132064 0.384999
O O20 0.072003 0.000000 0.388593
O O21 0.250000 0.750000 0.750000
O O22 0.122529 0.681589 0.500000
#
# Coordination Sequence:
#
# PCOD9520093 Si02
#       8
#    16  16  16  16   8  16  16  16
#     4   9  18  33  56  85 111 138 176 219 268 328
#     4  10  21  37  54  75 107 143 180 224 273 326
#     4  10  20  36  57  80 108 142 178 221 276 329
#     4   9  19  36  56  80 112 146 180 222 272 328
#     4   9  16  28  50  78 104 132 167 213 270 320
#     4  10  21  36  54  75 105 149 188 219 267 328
#     4  11  22  36  56  81 106 140 184 231 277 324
#     4  10  19  34  54  80 109 138 178 227 272 320
#
# _framework density 18.640577
#
# number of rings (size 3 to 8) (size 9 to 14) (size 15 to 20)
#    0.000    2.200    0.667    2.400    0.000    4.000 
#    0.000    3.333    1.467    0.800    0.000    0.000 
#    0.000    0.000    0.000    0.000    0.000    0.000 
#
# Total GULP energy -334696.289196 kJ/mol
# GULP energy per Si atom -5578.271487 kJ/mol
# Density = 1.859815 g / cm^3
# Si number density = 18.640577 Si / 1000 Ang^3
#
#
#
# Elastic Constant Matrix: (Units=GPa)
#
#
# Indices 1 2 3 4 5 6 
#
# 1 60.6102 5.8109 18.9815 0.0000 0.0000 0.0000
# 2 5.8109 65.6387 7.8131 0.0000 0.0000 0.0000
# 3 18.9815 7.8131 29.8139 0.0000 0.0000 0.0000
# 4 0.0000 0.0000 0.0000 15.1084 0.0000 0.0000
# 5 0.0000 0.0000 0.0000 0.0000 31.5811 0.0000
# 6 0.0000 0.0000 0.0000 0.0000 0.0000 24.5098
#
#
#
# Elastic Compliance Matrix: (Units=1/GPa)
#
#
# Indices 1 2 3 4 5 6 
#
# 1 0.020612 -0.000271 -0.013052 0.000000 0.000000 0.000000
# 2 -0.000271 0.015729 -0.003949 0.000000 0.000000 0.000000
# 3 -0.013052 -0.003949 0.042886 0.000000 0.000000 0.000000
# 4 0.000000 0.000000 0.000000 0.066188 0.000000 0.000000
# 5 0.000000 0.000000 0.000000 0.000000 0.031664 0.000000
# 6 0.000000 0.000000 0.000000 0.000000 0.000000 0.040800
#
#
# Mechanical properties :
#
#
# Convention : Reuss Voigt Hill
#
# Bulk Modulus (GPa) = 22.38021 24.58599 23.48310
# Shear Modulus (GPa) = 18.70417 22.47035 20.58726
#
# Velocity S-wave (km/s) = 3.17110 3.47573 3.32691
# Velocity P-wave (km/s) = 5.04382 5.41532 5.23287
#
# Compressibility (1/GPa) = 0.04468233
#
# Stress axis : x y z
#
# Youngs Moduli (GPa) = 48.51431 63.57674 23.31746
#
# Poissons Ratio (x) = 0.01724 0.30434
# Poissons Ratio (y) = 0.01315 0.09209
# Poissons Ratio (z) = 0.63322 0.25109
#
# Static dielectric constant tensor:
#      x y z
#    x 1.638480 0.000000 0.000000 
#    y 0.000000 1.623640 0.000000 
#    z 0.000000 0.000000 1.642000 
# 
# From -- ./inp_files/55843.got.cif
#   From: 2010.05.17/outbox.cif.g08.bks.cpg/sg71_28_cif.got.tgz:55843.got - 2010.06.03 16:22:01.
