data_PCOD9520628
_publ_section_title
;
Structure prediction by ZEFSAII (Michael W. Deem and Ramdas Pophale) SiO2 
 PCOD9520628
Probable space group: I M M M
;
_chemical_formula_sum "Si O2"
_cell_formula_units_Z 88
_cell_length_a 20.682479
_cell_length_b 8.094580
_cell_length_c 28.141525
_cell_angle_alpha 90.000000
_cell_angle_beta 90.000000
_cell_angle_gamma 90.000000
_cell_volume 4711.341011
_symmetry_space_group_name_H-M "I M M M"
_symmetry_group_IT_number 71
_symmetry_cell_setting 'orthorhombic'
loop_
_space_group_symop_operation_xyz
x,y,z
-x,-y,z
x,-y,-z
-x,y,-z
-x,-y,-z
x,y,-z
-x,y,z
x,-y,z
1/2+x,1/2+y,1/2+z
1/2-x,1/2-y,1/2+z
1/2+x,1/2-y,1/2-z
1/2-x,1/2+y,1/2-z
1/2-x,1/2-y,1/2-z
1/2+x,1/2+y,1/2-z
1/2-x,1/2+y,1/2+z
1/2+x,1/2-y,1/2+z
loop_
_atom_site_type_symbol
_atom_site_label
_atom_site_fract_x
_atom_site_fract_y
_atom_site_fract_z
Si Si1 0.500000 0.300709 0.690549
Si Si2 0.357143 0.303240 0.324659
Si Si3 0.228687 0.803019 0.636269
Si Si4 0.636646 0.191931 0.781624
Si Si5 0.364172 0.302599 0.946493
Si Si6 0.000000 0.314857 0.406628
Si Si7 0.500000 0.250158 0.203788
O O1 0.500000 0.500000 0.703158
O O2 0.567433 0.267039 0.664665
O O3 0.500000 0.198581 0.740032
O O4 0.350324 0.500000 0.320476
O O5 0.304146 0.238819 0.361126
O O6 0.344444 0.225700 0.272612
O O7 0.194244 0.725119 0.682282
O O8 0.190142 0.740339 0.590084
O O9 0.220866 0.000000 0.639253
O O10 0.575259 0.308087 0.794971
O O11 0.615295 0.000000 0.786923
O O12 0.356175 0.500000 0.949233
O O13 0.434855 0.269708 0.924841
O O14 0.359662 0.235262 0.000000
O O15 0.000000 0.500000 0.425592
O O16 0.000000 0.321505 0.349378
#
# Coordination Sequence:
#
# PCOD9520628 Si02
#       7
#     8  16  16  16  16   8   8
#     4   8  18  34  53  76 104 136 172 205 244 302
#     4  10  20  35  53  76 104 134 167 206 251 304
#     4  11  22  35  52  74  99 132 172 213 260 309
#     4  11  20  33  50  72 104 139 175 213 252 299
#     4  10  23  41  57  74 100 137 180 223 266 312
#     4  12  22  35  54  79 106 135 178 226 269 304
#     4  10  20  31  48  74 105 141 178 216 255 292
#
# _framework density 18.678334
#
# number of rings (size 3 to 8) (size 9 to 14) (size 15 to 20)
#    0.000    1.636    1.818    3.545    0.000    3.636 
#    0.000    1.364    0.000    0.000    0.000    0.636 
#    0.000    5.091    0.000    0.000    0.000    0.000 
#
# Total GULP energy -245088.316759 kJ/mol
# GULP energy per Si atom -5570.189017 kJ/mol
# Density = 1.863582 g / cm^3
# Si number density = 18.678334 Si / 1000 Ang^3
#
#
#
# Elastic Constant Matrix: (Units=GPa)
#
#
# Indices 1 2 3 4 5 6 
#
# 1 156.3821 13.3063 68.5857 0.0000 0.0000 0.0000
# 2 13.3063 45.0820 11.0677 0.0000 0.0000 0.0000
# 3 68.5857 11.0677 86.2034 0.0000 0.0000 0.0000
# 4 0.0000 0.0000 0.0000 2.7018 0.0000 0.0000
# 5 0.0000 0.0000 0.0000 0.0000-1504.2281 0.0000
# 6 0.0000 0.0000 0.0000 0.0000 0.0000 15.7415
#
#
#
# Elastic Compliance Matrix: (Units=1/GPa)
#
#
# Indices 1 2 3 4 5 6 
#
# 1 0.009867 -0.001017 -0.007720 0.000000 0.000000 0.000000
# 2 -0.001017 0.023009 -0.002145 0.000000 0.000000 0.000000
# 3 -0.007720 -0.002145 0.018018 0.000000 0.000000 0.000000
# 4 0.000000 0.000000 0.000000 0.370126 0.000000 0.000000
# 5 0.000000 0.000000 0.000000 0.000000 -0.000665 0.000000
# 6 0.000000 0.000000 0.000000 0.000000 0.000000 0.063526
#
#
# Mechanical properties :
#
#
# Convention : Reuss Voigt Hill
#
# Bulk Modulus (GPa) = 34.32896 52.62077 43.47486
# Shear Modulus (GPa) = 9.70207 -284.17645 -137.23719
#
# Velocity S-wave (km/s) = 2.28157 -12.34798 -8.58100
# Velocity P-wave (km/s) = 5.03584 13.23116 8.65170
#
# Compressibility (1/GPa) = 0.02912993
#
# Stress axis : x y z
#
# Youngs Moduli (GPa) = 101.34956 43.46208 55.50039
#
# Poissons Ratio (x) = 0.04420 0.42845
# Poissons Ratio (y) = 0.10308 0.11904
# Poissons Ratio (z) = 0.78239 0.09322
#
# Static dielectric constant tensor:
#      x y z
#    x 1.691730 0.000000 0.000000 
#    y 0.000000 1.735220 0.000000 
#    z 0.000000 0.000000 1.615400 
# 
# From -- ./inp_files/61169.got.cif
#   From: 2010.05.17/outbox.cif.g08.bks.cpg/sg71_31_cif.got.tgz:61169.got - 2010.06.03 16:22:01.
