data_PCOD9520498
_publ_section_title
;
Structure prediction by ZEFSAII (Michael W. Deem and Ramdas Pophale) SiO2 
 PCOD9520498
Probable space group: I M M M
;
_chemical_formula_sum "Si O2"
_cell_formula_units_Z 68
_cell_length_a 14.617642
_cell_length_b 22.154137
_cell_length_c 11.699190
_cell_angle_alpha 90.000000
_cell_angle_beta 90.000000
_cell_angle_gamma 90.000000
_cell_volume 3788.680237
_symmetry_space_group_name_H-M "I M M M"
_symmetry_group_IT_number 71
_symmetry_cell_setting 'orthorhombic'
loop_
_space_group_symop_operation_xyz
x,y,z
-x,-y,z
x,-y,-z
-x,y,-z
-x,-y,-z
x,y,-z
-x,y,z
x,-y,z
1/2+x,1/2+y,1/2+z
1/2-x,1/2-y,1/2+z
1/2+x,1/2-y,1/2-z
1/2-x,1/2+y,1/2-z
1/2-x,1/2-y,1/2-z
1/2+x,1/2+y,1/2-z
1/2-x,1/2+y,1/2+z
1/2+x,1/2-y,1/2+z
loop_
_atom_site_type_symbol
_atom_site_label
_atom_site_fract_x
_atom_site_fract_y
_atom_site_fract_z
Si Si1 0.893215 0.500000 0.752638
Si Si2 0.607274 0.767652 0.634160
Si Si3 0.284792 0.889213 0.636339
Si Si4 0.143188 0.931503 0.000000
Si Si5 0.895509 0.862654 0.765536
Si Si6 0.823666 0.500000 0.500000
O O1 0.842188 0.558217 0.803635
O O2 0.880231 0.500000 0.615925
O O3 0.000000 0.500000 0.782819
O O4 0.623342 0.752751 0.500000
O O5 0.500000 0.784157 0.644660
O O6 0.668970 0.824729 0.664430
O O7 0.622784 0.707962 0.708420
O O8 0.288064 0.897110 0.500000
O O9 0.181332 0.888270 0.681974
O O10 0.113819 0.896723 0.113166
O O11 0.106273 0.000000 0.000000
O O12 0.253000 0.943184 0.000000
O O13 0.000000 0.869096 0.724756
#
# Coordination Sequence:
#
# PCOD9520498 Si02
#       6
#     8  16  16   8  16   4
#     4  12  24  42  65  87 115 149 189 239 293 350
#     4   9  18  34  58  86 112 148 198 245 289 341
#     4  11  23  39  57  84 119 159 196 237 284 345
#     4  10  19  37  60  87 118 150 186 241 292 349
#     4  11  21  36  60  86 116 154 196 242 290 342
#     4  10  21  42  63  90 118 140 183 236 303 344
#
# _framework density 17.948202999999999
#
# number of rings (size 3 to 8) (size 9 to 14) (size 15 to 20)
#    0.353    1.176    3.529    2.294    0.000    3.294 
#    0.000    0.000    0.000    1.412    0.000    0.000 
#    0.000    0.000    0.000    0.000    0.000    0.000 
#
# Total GULP energy -189807.577486 kJ/mol
# GULP energy per Si atom -5582.575808 kJ/mol
# Density = 1.790735 g / cm^3
# Si number density = 17.948203 Si / 1000 Ang^3
#
#
#
# Elastic Constant Matrix: (Units=GPa)
#
#
# Indices 1 2 3 4 5 6 
#
# 1 138.7054 62.1816 48.7388 0.0000 0.0000 0.0000
# 2 62.1816 100.0629 45.8243 0.0000 0.0000 0.0000
# 3 48.7388 45.8243 78.0216 -0.0004 0.0003 0.0000
# 4 0.0000 0.0000 -0.0004 10.9626 0.0001 0.0000
# 5 0.0000 0.0000 0.0003 0.0001 3.5650 0.0000
# 6 0.0000 0.0000 0.0000 0.0000 0.0000 18.7207
#
#
#
# Elastic Compliance Matrix: (Units=1/GPa)
#
#
# Indices 1 2 3 4 5 6 
#
# 1 0.010768 -0.004940 -0.003825 0.000000 0.000000 0.000000
# 2 -0.004940 0.015937 -0.006274 0.000000 0.000000 0.000000
# 3 -0.003825 -0.006274 0.018892 0.000001 -0.000001 0.000000
# 4 0.000000 0.000000 0.000001 0.091219 -0.000003 0.000000
# 5 0.000000 0.000000 -0.000001 -0.000003 0.280508 0.000000
# 6 0.000000 0.000000 0.000000 0.000000 0.000000 0.053417
#
#
# Mechanical properties :
#
#
# Convention : Reuss Voigt Hill
#
# Bulk Modulus (GPa) = 64.44278 70.03101 67.23690
# Shear Modulus (GPa) = 9.88157 17.31933 13.60045
#
# Velocity S-wave (km/s) = 2.34895 3.10975 2.75573
# Velocity P-wave (km/s) = 6.58328 7.21091 6.90423
#
# Compressibility (1/GPa) = 0.01551764
#
# Stress axis : x y z
#
# Youngs Moduli (GPa) = 92.86588 62.74808 52.93312
#
# Poissons Ratio (x) = 0.30996 0.20249
# Poissons Ratio (y) = 0.45873 0.33212
# Poissons Ratio (z) = 0.35526 0.39370
#
# Static dielectric constant tensor:
#      x y z
#    x 1.610110 0.000000 0.000000 
#    y 0.000000 1.600280 0.000000 
#    z 0.000000 0.000000 1.578050 
# 
# From -- ./inp_files/21607.got.cif
#   From: 2010.05.17/outbox.cif.g08.bks.cpg/sg71_11_cif.got.tgz:21607.got - 2010.06.03 16:22:01.
