data_PCOD9520208
_publ_section_title
;
Structure prediction by ZEFSAII (Michael W. Deem and Ramdas Pophale) SiO2 
 PCOD9520208
Probable space group: I M M M
;
_chemical_formula_sum "Si O2"
_cell_formula_units_Z 64
_cell_length_a 24.464060
_cell_length_b 14.833096
_cell_length_c 9.574287
_cell_angle_alpha 90.000000
_cell_angle_beta 90.000000
_cell_angle_gamma 90.000000
_cell_volume 3474.295729
_symmetry_space_group_name_H-M "I M M M"
_symmetry_group_IT_number 71
_symmetry_cell_setting 'orthorhombic'
loop_
_space_group_symop_operation_xyz
x,y,z
-x,-y,z
x,-y,-z
-x,y,-z
-x,-y,-z
x,y,-z
-x,y,z
x,-y,z
1/2+x,1/2+y,1/2+z
1/2-x,1/2-y,1/2+z
1/2+x,1/2-y,1/2-z
1/2-x,1/2+y,1/2-z
1/2-x,1/2-y,1/2-z
1/2+x,1/2+y,1/2-z
1/2-x,1/2+y,1/2+z
1/2+x,1/2-y,1/2+z
loop_
_atom_site_type_symbol
_atom_site_label
_atom_site_fract_x
_atom_site_fract_y
_atom_site_fract_z
Si Si1 0.500000 0.398457 0.227127
Si Si2 0.401880 0.107227 0.334686
Si Si3 0.500000 0.806645 0.841839
Si Si4 0.620771 0.403378 0.335186
Si Si5 0.806090 0.262737 0.168145
O O1 0.500000 0.500000 0.160280
O O2 0.500000 0.302399 0.150315
O O3 0.556110 0.395151 0.313213
O O4 0.412788 0.125259 0.500000
O O5 0.447218 0.157594 0.242414
O O6 0.341680 0.147382 0.304770
O O7 0.404587 0.000000 0.312606
O O8 0.500000 0.842089 0.000000
O O9 0.630704 0.405782 0.500000
O O10 0.638070 0.500000 0.273413
O O11 0.654178 0.318430 0.283185
O O12 0.750000 0.250000 0.250000
O O13 0.797123 0.257817 0.000000
#
# Coordination Sequence:
#
# PCOD9520208 Si02
#       5
#     8  16   8  16  16
#     4  10  19  34  57  85 117 149 183 225 284 354
#     4  10  22  41  63  85 114 156 201 240 284 345
#     4  12  24  37  59  91 124 151 185 238 297 350
#     4   9  17  31  55  85 111 140 182 232 282 335
#     4  10  21  37  57  82 113 149 193 238 282 336
#
# _framework density 18.420998999999998
#
# number of rings (size 3 to 8) (size 9 to 14) (size 15 to 20)
#    0.000    2.000    2.500    1.125    0.000    6.750 
#    0.000    0.000    0.000    0.000    0.000    0.000 
#    0.000    0.000    0.000    0.000    0.000    0.000 
#
# Total GULP energy -178262.134867 kJ/mol
# GULP energy per Si atom -5570.691715 kJ/mol
# Density = 1.837907 g / cm^3
# Si number density = 18.420999 Si / 1000 Ang^3
#
#
#
# Elastic Constant Matrix: (Units=GPa)
#
#
# Indices 1 2 3 4 5 6 
#
# 1 127.2935 56.3242 42.7867 0.0000 0.0000 0.0000
# 2 56.3242 125.5956 43.7337 0.0000 0.0000 0.0000
# 3 42.7867 43.7337 53.8956 0.0000 0.0000 0.0000
# 4 0.0000 0.0000 0.0000 6.5352 0.0000 0.0000
# 5 0.0000 0.0000 0.0000 0.0000 -7.9844 0.0000
# 6 0.0000 0.0000 0.0000 0.0000 0.0000 15.8749
#
#
#
# Elastic Compliance Matrix: (Units=1/GPa)
#
#
# Indices 1 2 3 4 5 6 
#
# 1 0.011345 -0.002720 -0.006799 0.000000 0.000000 0.000000
# 2 -0.002720 0.011750 -0.007375 0.000000 0.000000 0.000000
# 3 -0.006799 -0.007375 0.029937 0.000000 0.000000 0.000000
# 4 0.000000 0.000000 0.000000 0.153018 0.000000 0.000000
# 5 0.000000 0.000000 0.000000 0.000000 -0.125244 0.000000
# 6 0.000000 0.000000 0.000000 0.000000 0.000000 0.062992
#
#
# Mechanical properties :
#
#
# Convention : Reuss Voigt Hill
#
# Bulk Modulus (GPa) = 51.96786 65.83043 58.89915
# Shear Modulus (GPa) = 27.17377 13.81449 20.49413
#
# Velocity S-wave (km/s) = 3.84494 2.74146 3.33910
# Velocity P-wave (km/s) = 6.92704 6.77016 6.84905
#
# Compressibility (1/GPa) = 0.01924266
#
# Stress axis : x y z
#
# Youngs Moduli (GPa) = 88.14588 85.10639 33.40385
#
# Poissons Ratio (x) = 0.23150 0.22712
# Poissons Ratio (y) = 0.23977 0.24636
# Poissons Ratio (z) = 0.59932 0.62767
#
# Static dielectric constant tensor:
#      x y z
#    x 1.598020 0.000000 0.000000 
#    y 0.000000 1.689190 0.000000 
#    z 0.000000 0.000000 1.616080 
# 
# From -- ./inp_files/5560.got.cif
#   From: 2010.05.17/outbox.cif.g08.bks.cpg/sg71_3_cif.got.tgz:5560.got - 2010.06.03 16:22:01.
