data_PCOD9520106
_publ_section_title
;
Structure prediction by ZEFSAII (Michael W. Deem and Ramdas Pophale) SiO2 
 PCOD9520106
Probable space group: I M M M
;
_chemical_formula_sum "Si O2"
_cell_formula_units_Z 88
_cell_length_a 17.908892
_cell_length_b 7.492186
_cell_length_c 30.587717
_cell_angle_alpha 90.000000
_cell_angle_beta 90.000000
_cell_angle_gamma 90.000000
_cell_volume 4104.160454
_symmetry_space_group_name_H-M "I M M M"
_symmetry_group_IT_number 71
_symmetry_cell_setting 'orthorhombic'
loop_
_space_group_symop_operation_xyz
x,y,z
-x,-y,z
x,-y,-z
-x,y,-z
-x,-y,-z
x,y,-z
-x,y,z
x,-y,z
1/2+x,1/2+y,1/2+z
1/2-x,1/2-y,1/2+z
1/2+x,1/2-y,1/2-z
1/2-x,1/2+y,1/2-z
1/2-x,1/2-y,1/2-z
1/2+x,1/2+y,1/2-z
1/2-x,1/2+y,1/2+z
1/2+x,1/2-y,1/2+z
loop_
_atom_site_type_symbol
_atom_site_label
_atom_site_fract_x
_atom_site_fract_y
_atom_site_fract_z
Si Si1 0.216707 0.787866 0.049191
Si Si2 0.090974 0.291248 0.208309
Si Si3 0.912699 0.281204 0.303276
Si Si4 0.500000 0.285969 0.050353
Si Si5 0.414807 0.784484 0.386458
Si Si6 0.647557 0.210244 0.894067
O O1 0.139447 0.763341 0.074444
O O2 0.283117 0.712513 0.079173
O O3 0.229888 0.000000 0.045647
O O4 0.216245 0.715240 0.000000
O O5 0.112048 0.500000 0.208500
O O6 0.114324 0.217737 0.255519
O O7 0.113769 0.216916 0.161074
O O8 0.000000 0.283774 0.208248
O O9 0.911488 0.500000 0.302568
O O10 0.868188 0.217272 0.345611
O O11 0.000000 0.232113 0.308609
O O12 0.500000 0.500000 0.049453
O O13 0.426745 0.227354 0.076701
O O14 0.500000 0.222008 0.000000
O O15 0.500000 0.723183 0.393029
O O16 0.417097 0.000000 0.383523
O O17 0.662018 0.000000 0.887785
#
# Coordination Sequence:
#
# PCOD9520106 Si02
#       6
#    16  16  16   8  16  16
#     4  10  22  37  51  71 102 137 170 213 267 308
#     4   7  11  22  44  75 104 125 155 200 246 297
#     4   8  12  22  46  78 102 125 164 207 243 284
#     4  11  23  35  49  73 105 139 175 217 264 303
#     4   9  18  34  56  79 100 128 168 209 252 310
#     4  10  19  34  55  77 100 133 179 217 247 296
#
# _framework density 21.441655999999998
#
# number of rings (size 3 to 8) (size 9 to 14) (size 15 to 20)
#    0.000    3.000    0.909    3.000    0.000    3.273 
#    0.000    2.727    0.000    1.091    0.000    0.000 
#    0.000    0.000    0.000    0.000    0.000    0.000 
#
# Total GULP energy -245395.482441 kJ/mol
# GULP energy per Si atom -5577.170055 kJ/mol
# Density = 2.139285 g / cm^3
# Si number density = 21.441656 Si / 1000 Ang^3
#
#
#
# Elastic Constant Matrix: (Units=GPa)
#
#
# Indices 1 2 3 4 5 6 
#
# 1 79.0105 -6.0072 64.1137 0.0000 0.0000 0.0000
# 2 -6.0072 59.7542 4.1237 0.0000 0.0000 0.0000
# 3 64.1137 4.1237 161.4969 0.0000 0.0000 0.0000
# 4 0.0000 0.0000 0.0000 0.0598 0.0000 0.0000
# 5 0.0000 0.0000 0.0000 0.0000 3443.1178 0.0000
# 6 0.0000 0.0000 0.0000 0.0000 0.0000 27.3408
#
#
#
# Elastic Compliance Matrix: (Units=1/GPa)
#
#
# Indices 1 2 3 4 5 6 
#
# 1 0.019019 0.002437 -0.007613 0.000000 0.000000 0.000000
# 2 0.002437 0.017077 -0.001404 0.000000 0.000000 0.000000
# 3 -0.007613 -0.001404 0.009250 0.000000 0.000000 0.000000
# 4 0.000000 0.000000 0.000000 16.729511 0.000000 0.000000
# 5 0.000000 0.000000 0.000000 0.000000 0.000290 0.000000
# 6 0.000000 0.000000 0.000000 0.000000 0.000000 0.036575
#
#
# Mechanical properties :
#
#
# Convention : Reuss Voigt Hill
#
# Bulk Modulus (GPa) = 31.06709 47.19133 39.12921
# Shear Modulus (GPa) = 0.29699 709.97243 355.13471
#
# Velocity S-wave (km/s) = 0.37257 18.21640 12.88363
# Velocity P-wave (km/s) = 3.83480 21.55241 15.47921
#
# Compressibility (1/GPa) = 0.03218840
#
# Stress axis : x y z
#
# Youngs Moduli (GPa) = 52.57799 58.55788 108.10599
#
# Poissons Ratio (x) = -0.14273 0.82299
# Poissons Ratio (y) = -0.12815 0.15175
# Poissons Ratio (z) = 0.40027 0.08220
#
# Static dielectric constant tensor:
#      x y z
#    x 1.746630 0.000000 0.000000 
#    y 0.000000 1.872760 0.000000 
#    z 0.000000 0.000000 1.810730 
# 
# From -- ./inp_files/8848.got.cif
#   From: 2010.05.17/outbox.cif.g08.bks.cpg/sg71_5_cif.got.tgz:8848.got - 2010.06.03 16:22:01.
