data_PCOD9520362
_publ_section_title
;
Structure prediction by ZEFSAII (Michael W. Deem and Ramdas Pophale) SiO2 
 PCOD9520362
Probable space group: I M M M
;
_chemical_formula_sum "Si O2"
_cell_formula_units_Z 36
_cell_length_a 14.951224
_cell_length_b 18.341956
_cell_length_c 7.277339
_cell_angle_alpha 90.000000
_cell_angle_beta 90.000000
_cell_angle_gamma 90.000000
_cell_volume 1995.698825
_symmetry_space_group_name_H-M "I M M M"
_symmetry_group_IT_number 71
_symmetry_cell_setting 'orthorhombic'
loop_
_space_group_symop_operation_xyz
x,y,z
-x,-y,z
x,-y,-z
-x,y,-z
-x,-y,-z
x,y,-z
-x,y,z
x,-y,z
1/2+x,1/2+y,1/2+z
1/2-x,1/2-y,1/2+z
1/2+x,1/2-y,1/2-z
1/2-x,1/2+y,1/2-z
1/2-x,1/2-y,1/2-z
1/2+x,1/2+y,1/2-z
1/2-x,1/2+y,1/2+z
1/2+x,1/2-y,1/2+z
loop_
_atom_site_type_symbol
_atom_site_label
_atom_site_fract_x
_atom_site_fract_y
_atom_site_fract_z
Si Si1 0.341807 0.878848 0.500000
Si Si2 0.850933 0.084626 0.500000
Si Si3 0.607639 0.000000 0.210113
Si Si4 0.000000 0.263495 0.000000
Si Si5 0.000000 0.120646 0.207142
O O1 0.236039 0.864425 0.500000
O O2 0.361389 0.929334 0.677270
O O3 0.411575 0.812908 0.500000
O O4 0.913927 0.097688 0.324072
O O5 0.821099 0.000000 0.500000
O O6 0.500000 0.000000 0.212285
O O7 0.638944 0.000000 0.000000
O O8 0.000000 0.207821 0.172234
O O9 0.000000 0.089920 0.000000
#
# Coordination Sequence:
#
# PCOD9520362 Si02
#       5
#     8   8   8   4   8
#     4  11  20  39  63  91 130 149 197 266 299 355
#     4  11  22  40  67  89 115 161 207 267 300 336
#     4  10  19  35  58  95 119 161 202 237 319 359
#     4  10  22  43  61  84 134 168 184 252 304 372
#     4   9  23  43  56  88 119 166 208 238 301 360
#
# _framework density 18.038792999999998
#
# number of rings (size 3 to 8) (size 9 to 14) (size 15 to 20)
#    0.667    1.111    4.444    2.000    0.000    5.333 
#    8.000    0.000    0.000    0.000    0.000    0.000 
#    0.000    0.000    0.000    0.000    0.000    0.000 
#
# Total GULP energy -100361.503171 kJ/mol
# GULP energy per Si atom -5575.639065 kJ/mol
# Density = 1.799774 g / cm^3
# Si number density = 18.038793 Si / 1000 Ang^3
#
#
#
# Elastic Constant Matrix: (Units=GPa)
#
#
# Indices 1 2 3 4 5 6 
#
# 1 126.0910 21.3774 32.5042 0.0000 0.0000 0.0000
# 2 21.3774 78.2863 16.6749 0.0000 0.0000 0.0000
# 3 32.5042 16.6749 141.7965 0.0000 0.0000 0.0000
# 4 0.0000 0.0000 0.0000 18.4004 0.0000 0.0000
# 5 0.0000 0.0000 0.0000 0.0000 -4.6966 0.0000
# 6 0.0000 0.0000 0.0000 0.0000 0.0000 25.3514
#
#
#
# Elastic Compliance Matrix: (Units=1/GPa)
#
#
# Indices 1 2 3 4 5 6 
#
# 1 0.008726 -0.002007 -0.001764 0.000000 0.000000 0.000000
# 2 -0.002007 0.013563 -0.001135 0.000000 0.000000 0.000000
# 3 -0.001764 -0.001135 0.007590 0.000000 0.000000 0.000000
# 4 0.000000 0.000000 0.000000 0.054347 0.000000 0.000000
# 5 0.000000 0.000000 0.000000 0.000000 -0.212920 0.000000
# 6 0.000000 0.000000 0.000000 0.000000 0.000000 0.039446
#
#
# Mechanical properties :
#
#
# Convention : Reuss Voigt Hill
#
# Bulk Modulus (GPa) = 49.83259 54.14299 51.98779
# Shear Modulus (GPa) = -68.73102 26.18553 -21.27275
#
# Velocity S-wave (km/s) = -6.17936 3.81415 -3.43779
# Velocity P-wave (km/s) = 4.81949 7.03398 3.62281
#
# Compressibility (1/GPa) = 0.02006719
#
# Stress axis : x y z
#
# Youngs Moduli (GPa) = 114.60238 73.72784 131.74805
#
# Poissons Ratio (x) = 0.14797 0.23243
# Poissons Ratio (y) = 0.23000 0.14953
# Poissons Ratio (z) = 0.20218 0.08368
#
# Static dielectric constant tensor:
#      x y z
#    x 1.620610 0.000000 0.000000 
#    y 0.000000 1.608950 0.000000 
#    z 0.000000 0.000000 1.607400 
# 
# From -- ./inp_files/4439.got.cif
#   From: 2010.05.17/outbox.cif.g08.bks.cpg/sg71_3_cif.got.tgz:4439.got - 2010.06.03 16:22:01.
