data_PCOD9520944
_publ_section_title
;
Structure prediction by ZEFSAII (Michael W. Deem and Ramdas Pophale) SiO2 
 PCOD9520944
Probable space group: I M M M
;
_chemical_formula_sum "Si O2"
_cell_formula_units_Z 96
_cell_length_a 25.870701
_cell_length_b 7.302370
_cell_length_c 21.908740
_cell_angle_alpha 90.000000
_cell_angle_beta 90.000000
_cell_angle_gamma 90.000000
_cell_volume 4138.942874
_symmetry_space_group_name_H-M "I M M M"
_symmetry_group_IT_number 71
_symmetry_cell_setting 'orthorhombic'
loop_
_space_group_symop_operation_xyz
x,y,z
-x,-y,z
x,-y,-z
-x,y,-z
-x,-y,-z
x,y,-z
-x,y,z
x,-y,z
1/2+x,1/2+y,1/2+z
1/2-x,1/2-y,1/2+z
1/2+x,1/2-y,1/2-z
1/2-x,1/2+y,1/2-z
1/2-x,1/2-y,1/2-z
1/2+x,1/2+y,1/2-z
1/2-x,1/2+y,1/2+z
1/2+x,1/2-y,1/2+z
loop_
_atom_site_type_symbol
_atom_site_label
_atom_site_fract_x
_atom_site_fract_y
_atom_site_fract_z
Si Si1 0.747844 0.218391 0.176622
Si Si2 0.862485 0.223710 0.831717
Si Si3 0.443072 0.721209 0.766925
Si Si4 0.828016 0.723541 0.432038
Si Si5 0.443287 0.211657 0.909986
Si Si6 0.056925 0.777176 0.069367
O O1 0.750000 0.250000 0.250000
O O2 0.804540 0.286153 0.158202
O O3 0.704200 0.285390 0.128336
O O4 0.745545 0.000000 0.170333
O O5 0.893188 0.282481 0.770950
O O6 0.898617 0.283273 0.886537
O O7 0.860903 0.000000 0.829852
O O8 0.500000 0.775783 0.742142
O O9 0.442419 0.500000 0.766151
O O10 0.440889 0.782441 0.836503
O O11 0.806827 0.771293 0.500000
O O12 0.829128 0.500000 0.429500
O O13 0.887855 0.787411 0.429981
O O14 0.500000 0.290081 0.926926
O O15 0.444174 0.000000 0.929438
O O16 0.000000 0.720523 0.089878
O O17 0.057177 0.000000 0.070072
O O18 0.064262 0.719839 0.000000
#
# Coordination Sequence:
#
# PCOD9520944 Si02
#       6
#    16  16  16  16  16  16
#     4  10  20  33  50  70  93 123 156 192 232 273
#     4   9  16  25  39  60  84 113 149 181 214 263
#     4   9  16  26  42  64  91 120 146 177 218 263
#     4   9  18  32  49  70  95 121 152 192 235 275
#     4   9  17  29  46  67  89 114 146 184 224 267
#     4   8  13  21  34  55  85 116 142 174 218 263
#
# _framework density 23.194327999999999
#
# number of rings (size 3 to 8) (size 9 to 14) (size 15 to 20)
#    0.000    3.000    0.000    2.000    0.000    3.000 
#    0.000    5.000    0.000    2.000    0.000    2.333 
#    0.000    2.000    0.000   11.833    0.000   11.000 
#
# Total GULP energy -267725.537791 kJ/mol
# GULP energy per Si atom -5577.615371 kJ/mol
# Density = 2.314154 g / cm^3
# Si number density = 23.194328 Si / 1000 Ang^3
#
#
#
# Elastic Constant Matrix: (Units=GPa)
#
#
# Indices 1 2 3 4 5 6 
#
# 1 188.2502 10.0889 104.7350 0.0000 0.0000 0.0000
# 2 10.0889 97.5269 -0.9217 0.0000 0.0000 0.0000
# 3 104.7350 -0.9217 153.4474 0.0000 0.0000 0.0000
# 4 0.0000 0.0000 0.0000 0.3958 0.0000 0.0000
# 5 0.0000 0.0000 0.0000 0.0000 38.7085 0.0000
# 6 0.0000 0.0000 0.0000 0.0000 0.0000 -11.9235
#
#
#
# Elastic Compliance Matrix: (Units=1/GPa)
#
#
# Indices 1 2 3 4 5 6 
#
# 1 0.008652 -0.000951 -0.005911 0.000000 0.000000 0.000000
# 2 -0.000951 0.010359 0.000711 0.000000 0.000000 0.000000
# 3 -0.005911 0.000711 0.010556 0.000000 0.000000 0.000000
# 4 0.000000 0.000000 0.000000 2.526658 0.000000 0.000000
# 5 0.000000 0.000000 0.000000 0.000000 0.025834 0.000000
# 6 0.000000 0.000000 0.000000 0.000000 0.000000 -0.083868
#
#
# Mechanical properties :
#
#
# Convention : Reuss Voigt Hill
#
# Bulk Modulus (GPa) = 57.92091 74.11434 66.01762
# Shear Modulus (GPa) = 1.98709 27.12431 14.55570
#
# Velocity S-wave (km/s) = 0.92659 3.42341 2.50782
# Velocity P-wave (km/s) = 5.11576 6.90285 6.07537
#
# Compressibility (1/GPa) = 0.01726492
#
# Stress axis : x y z
#
# Youngs Moduli (GPa) = 115.58575 96.53752 94.73670
#
# Poissons Ratio (x) = 0.09179 0.55997
# Poissons Ratio (y) = 0.10990 -0.06738
# Poissons Ratio (z) = 0.68321 -0.06866
#
# Static dielectric constant tensor:
#      x y z
#    x 1.869420 0.000000 0.000000 
#    y 0.000000 1.892730 0.000000 
#    z 0.000000 0.000000 1.866620 
# 
# From -- ./inp_files/26161.got.cif
#   From: 2010.05.17/outbox.cif.g08.bks.cpg/sg71_14_cif.got.tgz:26161.got - 2010.06.03 16:22:01.
