data_PCOD9520236
_publ_section_title
;
Structure prediction by ZEFSAII (Michael W. Deem and Ramdas Pophale) SiO2 
 PCOD9520236
Probable space group: I M M M
;
_chemical_formula_sum "Si O2"
_cell_formula_units_Z 72
_cell_length_a 8.847192
_cell_length_b 18.054495
_cell_length_c 23.391760
_cell_angle_alpha 90.000000
_cell_angle_beta 90.000000
_cell_angle_gamma 90.000000
_cell_volume 3736.402871
_symmetry_space_group_name_H-M "I M M M"
_symmetry_group_IT_number 71
_symmetry_cell_setting 'orthorhombic'
loop_
_space_group_symop_operation_xyz
x,y,z
-x,-y,z
x,-y,-z
-x,y,-z
-x,-y,-z
x,y,-z
-x,y,z
x,-y,z
1/2+x,1/2+y,1/2+z
1/2-x,1/2-y,1/2+z
1/2+x,1/2-y,1/2-z
1/2-x,1/2+y,1/2-z
1/2-x,1/2-y,1/2-z
1/2+x,1/2+y,1/2-z
1/2-x,1/2+y,1/2+z
1/2+x,1/2-y,1/2+z
loop_
_atom_site_type_symbol
_atom_site_label
_atom_site_fract_x
_atom_site_fract_y
_atom_site_fract_z
Si Si1 0.182719 0.855378 0.137823
Si Si2 0.684090 0.500000 0.434066
Si Si3 0.179878 0.414405 0.882212
Si Si4 0.319647 0.273935 0.935606
Si Si5 0.677836 0.588017 0.760032
O O1 0.231045 0.926460 0.100078
O O2 0.248113 0.782104 0.109675
O O3 0.227461 0.868333 0.203630
O O4 0.000000 0.852887 0.136669
O O5 0.500000 0.500000 0.434354
O O6 0.734675 0.500000 0.500000
O O7 0.223137 0.500000 0.893140
O O8 0.261628 0.356194 0.922608
O O9 0.228521 0.396975 0.817031
O O10 0.000000 0.407851 0.888155
O O11 0.500000 0.271760 0.931383
O O12 0.274794 0.251670 0.000000
O O13 0.500000 0.603254 0.771060
O O14 0.689508 0.500000 0.747066
#
# Coordination Sequence:
#
# PCOD9520236 Si02
#       5
#    16   8  16  16  16
#     4  10  19  34  58  87 117 154 195 236 281 330
#     4   9  16  28  51  83 115 151 196 237 274 321
#     4  10  22  40  63  89 113 143 187 237 292 349
#     4  11  25  42  58  81 115 153 193 237 288 344
#     4   9  17  33  58  88 121 152 188 233 282 338
#
# _framework density 19.269870999999998
#
# number of rings (size 3 to 8) (size 9 to 14) (size 15 to 20)
#    0.000    2.111    1.111    2.000    0.000    6.222 
#    0.000    2.778    0.000    2.000    0.000    0.000 
#    0.000    0.000    0.000    0.000    0.000    0.000 
#
# Total GULP energy -201081.026481 kJ/mol
# GULP energy per Si atom -5585.584069 kJ/mol
# Density = 1.922601 g / cm^3
# Si number density = 19.269871 Si / 1000 Ang^3
#
#
#
# Elastic Constant Matrix: (Units=GPa)
#
#
# Indices 1 2 3 4 5 6 
#
# 1 10.1209 8.5984 0.8531 0.0000 0.0000 0.0000
# 2 8.5984 56.9908 1.7109 0.0000 0.0000 0.0000
# 3 0.8531 1.7109 14.7973 0.0000 0.0000 0.0000
# 4 0.0000 0.0000 0.0000 31.5725 0.0000 0.0000
# 5 0.0000 0.0000 0.0000 0.0000 23.4843 0.0000
# 6 0.0000 0.0000 0.0000 0.0000 0.0000 18.2120
#
#
#
# Elastic Compliance Matrix: (Units=1/GPa)
#
#
# Indices 1 2 3 4 5 6 
#
# 1 0.113641 -0.017008 -0.004585 0.000000 0.000000 0.000000
# 2 -0.017008 0.020153 -0.001350 0.000000 0.000000 0.000000
# 3 -0.004585 -0.001350 0.068000 0.000000 0.000000 0.000000
# 4 0.000000 0.000000 0.000000 0.031673 0.000000 0.000000
# 5 0.000000 0.000000 0.000000 0.000000 0.042582 0.000000
# 6 0.000000 0.000000 0.000000 0.000000 0.000000 0.054909
#
#
# Mechanical properties :
#
#
# Convention : Reuss Voigt Hill
#
# Bulk Modulus (GPa) = 6.41400 11.58155 8.99777
# Shear Modulus (GPa) = 11.66009 19.37020 15.51514
#
# Velocity S-wave (km/s) = 2.46254 3.17394 2.84060
# Velocity P-wave (km/s) = 3.37952 4.41079 3.92914
#
# Compressibility (1/GPa) = 0.15590899
#
# Stress axis : x y z
#
# Youngs Moduli (GPa) = 8.79963 49.61992 14.70585
#
# Poissons Ratio (x) = 0.84392 0.06743
# Poissons Ratio (y) = 0.14966 0.01985
# Poissons Ratio (z) = 0.04035 0.06697
#
# Static dielectric constant tensor:
#      x y z
#    x 1.643280 0.000000 0.000000 
#    y 0.000000 1.660170 0.000000 
#    z 0.000000 0.000000 1.663510 
# 
# From -- ./inp_files/12175.got.cif
#   From: 2010.05.17/outbox.cif.g08.bks.cpg/sg71_7_cif.got.tgz:12175.got - 2010.06.03 16:22:01.
