data_PCOD9520706
_publ_section_title
;
Structure prediction by ZEFSAII (Michael W. Deem and Ramdas Pophale) SiO2 
 PCOD9520706
Probable space group: I M M M
;
_chemical_formula_sum "Si O2"
_cell_formula_units_Z 96
_cell_length_a 14.247295
_cell_length_b 28.996232
_cell_length_c 15.429405
_cell_angle_alpha 90.000000
_cell_angle_beta 90.000000
_cell_angle_gamma 90.000000
_cell_volume 6374.162947
_symmetry_space_group_name_H-M "I M M M"
_symmetry_group_IT_number 71
_symmetry_cell_setting 'orthorhombic'
loop_
_space_group_symop_operation_xyz
x,y,z
-x,-y,z
x,-y,-z
-x,y,-z
-x,-y,-z
x,y,-z
-x,y,z
x,-y,z
1/2+x,1/2+y,1/2+z
1/2-x,1/2-y,1/2+z
1/2+x,1/2-y,1/2-z
1/2-x,1/2+y,1/2-z
1/2-x,1/2-y,1/2-z
1/2+x,1/2+y,1/2-z
1/2-x,1/2+y,1/2+z
1/2+x,1/2-y,1/2+z
loop_
_atom_site_type_symbol
_atom_site_label
_atom_site_fract_x
_atom_site_fract_y
_atom_site_fract_z
Si Si1 0.000000 0.762983 0.400284
Si Si2 0.694449 0.857252 0.257228
Si Si3 0.386032 0.054446 0.192900
Si Si4 0.000000 0.776271 0.900113
Si Si5 0.606084 0.944144 0.000000
Si Si6 0.000000 0.303950 0.758331
Si Si7 0.709916 0.303852 0.398481
Si Si8 0.706367 0.701746 0.898735
O O1 0.000000 0.721112 0.334176
O O2 0.904829 0.791361 0.386420
O O3 0.000000 0.746777 0.500000
O O4 0.672609 0.911482 0.253182
O O5 0.592893 0.833798 0.264973
O O6 0.741988 0.837999 0.169214
O O7 0.754657 0.837463 0.336429
O O8 0.500000 0.061386 0.198814
O O9 0.370095 0.000000 0.206636
O O10 0.355078 0.067440 0.094207
O O11 0.902903 0.803789 0.888488
O O12 0.000000 0.734725 0.832524
O O13 0.000000 0.759164 0.000000
O O14 0.500000 0.925687 0.000000
O O15 0.600643 0.000000 0.000000
O O16 0.733034 0.312909 0.500000
O O17 0.745692 0.251542 0.378671
O O18 0.725211 0.692340 0.000000
#
# Coordination Sequence:
#
# PCOD9520706 Si02
#       8
#     8  16  16   8   8   8  16  16
#     4  10  20  34  48  67 101 133 156 199 249 280
#     4  12  21  30  48  74  97 130 168 198 235 284
#     4   9  18  32  48  69  98 128 159 200 246 288
#     4  10  20  34  48  63  97 136 164 196 234 276
#     4   7  12  26  44  62  88 123 153 183 231 284
#     4  12  20  28  45  72  97 130 167 197 231 278
#     4  10  20  32  47  70  98 128 162 199 235 283
#     4  10  20  34  49  69  97 129 166 202 238 285
#
# _framework density 15.060801
#
# number of rings (size 3 to 8) (size 9 to 14) (size 15 to 20)
#    0.000    1.917    4.167    2.500    1.167    0.000 
#    0.000    0.000    0.000    0.500    0.000    3.500 
#    0.000    4.000    0.000    0.000    0.000    0.000 
#
# Total GULP energy -267522.287009 kJ/mol
# GULP energy per Si atom -5573.380979 kJ/mol
# Density = 1.502652 g / cm^3
# Si number density = 15.060801 Si / 1000 Ang^3
#
#
#
# Elastic Constant Matrix: (Units=GPa)
#
#
# Indices 1 2 3 4 5 6 
#
# 1 46.4742 -2.1795 7.3288 0.0000 0.0000 -0.0001
# 2 -2.1795 49.4872 19.0634 0.0000 0.0000 -0.0001
# 3 7.3288 19.0634 27.5096 0.0001 0.0000 -0.0001
# 4 0.0000 0.0000 0.0001 20.7125 0.0000 0.0000
# 5 0.0000 0.0000 0.0000 0.0000 6.9346 0.0000
# 6 -0.0001 -0.0001 -0.0001 0.0000 0.0000 28.0728
#
#
#
# Elastic Compliance Matrix: (Units=1/GPa)
#
#
# Indices 1 2 3 4 5 6 
#
# 1 0.023218 0.004645 -0.009405 0.000000 0.000000 0.000000
# 2 0.004645 0.028495 -0.020984 0.000000 0.000000 0.000000
# 3 -0.009405 -0.020984 0.053398 0.000000 0.000000 0.000000
# 4 0.000000 0.000000 0.000000 0.048280 0.000000 0.000000
# 5 0.000000 0.000000 0.000000 0.000000 0.144205 0.000000
# 6 0.000000 0.000000 0.000000 0.000000 0.000000 0.035622
#
#
# Mechanical properties :
#
#
# Convention : Reuss Voigt Hill
#
# Bulk Modulus (GPa) = 18.64809 19.09958 18.87384
# Shear Modulus (GPa) = 12.41990 17.76119 15.09055
#
# Velocity S-wave (km/s) = 2.87479 3.43782 3.16883
# Velocity P-wave (km/s) = 4.84024 5.33548 5.09388
#
# Compressibility (1/GPa) = 0.05362478
#
# Stress axis : x y z
#
# Youngs Moduli (GPa) = 43.06949 35.09349 18.72731
#
# Poissons Ratio (x) = -0.16303 0.17613
# Poissons Ratio (y) = -0.20008 0.39298
# Poissons Ratio (z) = 0.40506 0.73641
#
# Static dielectric constant tensor:
#      x y z
#    x 1.504100 0.000000 0.000000 
#    y 0.000000 1.478250 0.000000 
#    z 0.000000 0.000000 1.526580 
# 
# From -- ./inp_files/35070.got.cif
#   From: 2010.05.17/outbox.cif.g08.bks.cpg/sg71_18_cif.got.tgz:35070.got - 2010.06.03 16:22:01.
