data_PCOD9520385
_publ_section_title
;
Structure prediction by ZEFSAII (Michael W. Deem and Ramdas Pophale) SiO2 
 PCOD9520385
Probable space group: I M M M
;
_chemical_formula_sum "Si O2"
_cell_formula_units_Z 100
_cell_length_a 29.618416
_cell_length_b 22.784962
_cell_length_c 7.707025
_cell_angle_alpha 90.000000
_cell_angle_beta 90.000000
_cell_angle_gamma 90.000000
_cell_volume 5201.120372
_symmetry_space_group_name_H-M "I M M M"
_symmetry_group_IT_number 71
_symmetry_cell_setting 'orthorhombic'
loop_
_space_group_symop_operation_xyz
x,y,z
-x,-y,z
x,-y,-z
-x,y,-z
-x,-y,-z
x,y,-z
-x,y,z
x,-y,z
1/2+x,1/2+y,1/2+z
1/2-x,1/2-y,1/2+z
1/2+x,1/2-y,1/2-z
1/2-x,1/2+y,1/2-z
1/2-x,1/2-y,1/2-z
1/2+x,1/2+y,1/2-z
1/2-x,1/2+y,1/2+z
1/2+x,1/2-y,1/2+z
loop_
_atom_site_type_symbol
_atom_site_label
_atom_site_fract_x
_atom_site_fract_y
_atom_site_fract_z
Si Si1 0.206028 0.191579 0.700369
Si Si2 0.109192 0.823764 0.799822
Si Si3 0.947258 0.935359 0.709479
Si Si4 0.948078 0.712720 0.210533
Si Si5 0.887540 0.500000 0.500000
Si Si6 0.698908 0.824923 0.799094
Si Si7 0.114470 0.601453 0.799161
O O1 0.219020 0.197440 0.500000
O O2 0.157066 0.163559 0.712879
O O3 0.248081 0.159289 0.788145
O O4 0.198662 0.257961 0.770369
O O5 0.078721 0.880975 0.786919
O O6 0.081824 0.767840 0.725899
O O7 0.119177 0.810413 0.000000
O O8 0.944108 0.932106 0.500000
O O9 0.000000 0.931477 0.754812
O O10 0.930682 0.000000 0.763062
O O11 0.922053 0.652231 0.246630
O O12 0.000000 0.714012 0.272481
O O13 0.949803 0.717863 0.000000
O O14 0.887208 0.448787 0.654692
O O15 0.663596 0.866984 0.706941
O O16 0.684895 0.823150 0.000000
O O17 0.106186 0.582550 0.000000
#
# Coordination Sequence:
#
# PCOD9520385 Si02
#       7
#    16  16  16  16   4  16  16
#     4  10  20  32  55  88 123 157 194 237 300 364
#     4  11  20  32  55  87 121 154 196 250 304 361
#     4   9  19  36  55  75 107 154 201 242 288 352
#     4   9  19  36  59  88 122 158 197 251 321 382
#     4  12  26  44  65  92 124 160 222 262 301 386
#     4  10  19  35  59  88 122 152 192 250 301 359
#     4  11  22  41  67  89 122 166 208 260 319 373
#
# _framework density 19.226627000000001
#
# number of rings (size 3 to 8) (size 9 to 14) (size 15 to 20)
#    0.000    1.920    2.400    2.640    0.000    2.560 
#    1.440    2.000    1.760    1.920    0.000    0.000 
#    0.000    0.000    0.000    0.000    0.000    0.000 
#
# Total GULP energy -278432.705985 kJ/mol
# GULP energy per Si atom -5568.654120 kJ/mol
# Density = 1.918287 g / cm^3
# Si number density = 19.226627 Si / 1000 Ang^3
#
#
#
# Elastic Constant Matrix: (Units=GPa)
#
#
# Indices 1 2 3 4 5 6 
#
# 1 97.6979 31.1819 12.7303 0.0000 0.0000 0.0000
# 2 31.1819 79.3466 25.4415 0.0000 0.0000 0.0000
# 3 12.7303 25.4415 77.7825 0.0000 0.0000 0.0000
# 4 0.0000 0.0000 0.0000 30.7609 0.0000 0.0000
# 5 0.0000 0.0000 0.0000 0.0000 18.3652 0.0000
# 6 0.0000 0.0000 0.0000 0.0000 0.0000 4.4387
#
#
#
# Elastic Compliance Matrix: (Units=1/GPa)
#
#
# Indices 1 2 3 4 5 6 
#
# 1 0.011718 -0.004458 -0.000460 0.000000 0.000000 0.000000
# 2 -0.004458 0.015775 -0.004430 0.000000 0.000000 0.000000
# 3 -0.000460 -0.004430 0.014381 0.000000 0.000000 0.000000
# 4 0.000000 0.000000 0.000000 0.032509 0.000000 0.000000
# 5 0.000000 0.000000 0.000000 0.000000 0.054451 0.000000
# 6 0.000000 0.000000 0.000000 0.000000 0.000000 0.225290
#
#
# Mechanical properties :
#
#
# Convention : Reuss Voigt Hill
#
# Bulk Modulus (GPa) = 43.14314 43.72606 43.43460
# Shear Modulus (GPa) = 13.13902 23.07785 18.10844
#
# Velocity S-wave (km/s) = 2.61698 3.46830 3.07227
# Velocity P-wave (km/s) = 5.62312 6.23142 5.93507
#
# Compressibility (1/GPa) = 0.02317865
#
# Stress axis : x y z
#
# Youngs Moduli (GPa) = 85.33667 63.39047 69.53764
#
# Poissons Ratio (x) = 0.28257 0.03198
# Poissons Ratio (y) = 0.38040 0.30807
# Poissons Ratio (z) = 0.03924 0.28084
#
# Static dielectric constant tensor:
#      x y z
#    x 1.691600 0.000000 0.000000 
#    y 0.000000 1.648440 0.000000 
#    z 0.000000 0.000000 1.721570 
# 
# From -- ./inp_files/16957.got.cif
#   From: 2010.05.17/outbox.cif.g08.bks.cpg/sg71_9_cif.got.tgz:16957.got - 2010.06.03 16:22:01.
