data_PCOD9520241
_publ_section_title
;
Structure prediction by ZEFSAII (Michael W. Deem and Ramdas Pophale) SiO2 
 PCOD9520241
Probable space group: I M M M
;
_chemical_formula_sum "Si O2"
_cell_formula_units_Z 82
_cell_length_a 21.243132
_cell_length_b 7.415780
_cell_length_c 24.204258
_cell_angle_alpha 90.000000
_cell_angle_beta 90.000000
_cell_angle_gamma 90.000000
_cell_volume 3813.003102
_symmetry_space_group_name_H-M "I M M M"
_symmetry_group_IT_number 71
_symmetry_cell_setting 'orthorhombic'
loop_
_space_group_symop_operation_xyz
x,y,z
-x,-y,z
x,-y,-z
-x,y,-z
-x,-y,-z
x,y,-z
-x,y,z
x,-y,z
1/2+x,1/2+y,1/2+z
1/2-x,1/2-y,1/2+z
1/2+x,1/2-y,1/2-z
1/2-x,1/2+y,1/2-z
1/2-x,1/2-y,1/2-z
1/2+x,1/2+y,1/2-z
1/2-x,1/2+y,1/2+z
1/2+x,1/2-y,1/2+z
loop_
_atom_site_type_symbol
_atom_site_label
_atom_site_fract_x
_atom_site_fract_y
_atom_site_fract_z
Si Si1 0.500000 0.794448 0.102317
Si Si2 0.868080 0.289203 0.111245
Si Si3 0.243796 0.284142 0.185336
Si Si4 0.000000 0.000000 0.500000
Si Si5 0.649140 0.298046 0.000000
Si Si6 0.500000 0.221317 0.434979
Si Si7 0.208070 0.784360 0.000000
Si Si8 0.632620 0.717597 0.878857
O O1 0.437566 0.762751 0.139286
O O2 0.500000 0.000000 0.083032
O O3 0.500000 0.658183 0.050183
O O4 0.877655 0.500000 0.124304
O O5 0.820831 0.213566 0.157816
O O6 0.937150 0.216389 0.096659
O O7 0.829491 0.272072 0.054270
O O8 0.242719 0.500000 0.176860
O O9 0.250000 0.250000 0.250000
O O10 0.306793 0.216375 0.154427
O O11 0.724340 0.308351 0.000000
O O12 0.633782 0.212137 0.941855
O O13 0.617654 0.500000 0.000000
O O14 0.500000 0.275395 0.500000
O O15 0.500000 0.000000 0.435938
O O16 0.216605 0.000000 0.000000
O O17 0.638345 0.500000 0.881780
#
# Coordination Sequence:
#
# PCOD9520241 Si02
#       8
#     8  16  16   2   8   8   8  16
#     4  12  25  39  62  91 125 177 211 249 316 375
#     4  10  19  37  58  83 114 154 195 232 293 367
#     4  10  22  39  63  85 115 160 206 259 312 355
#     4  12  22  44  60  90 144 168 206 258 292 396
#     4  10  19  34  59  83 114 156 193 233 296 369
#     4   9  16  28  59  90 112 142 185 237 281 347
#     4  12  22  30  49  86 123 152 183 242 295 351
#     4  10  20  38  63  86 120 162 200 256 318 372
#
# _framework density 21.505357
#
# number of rings (size 3 to 8) (size 9 to 14) (size 15 to 20)
#    0.000    1.659    3.902    1.610    1.366    2.341 
#    0.000    1.951    0.000    1.171    0.000    0.000 
#    0.000    0.000    0.000    0.000    0.000    0.000 
#
# Total GULP energy -228696.072914 kJ/mol
# GULP energy per Si atom -5577.952998 kJ/mol
# Density = 2.145641 g / cm^3
# Si number density = 21.505357 Si / 1000 Ang^3
#
#
#
# Elastic Constant Matrix: (Units=GPa)
#
#
# Indices 1 2 3 4 5 6 
#
# 1 199.7476 8.8549 82.5289 0.0000 0.0000 0.0000
# 2 8.8549 103.7343 -2.4727 0.0000 0.0000 0.0000
# 3 82.5289 -2.4727 121.7385 0.0000 0.0000 0.0000
# 4 0.0000 0.0000 0.0000 17.7753 0.0000 0.0000
# 5 0.0000 0.0000 0.0000 0.0000 4.5352 0.0000
# 6 0.0000 0.0000 0.0000 0.0000 0.0000 -16.4474
#
#
#
# Elastic Compliance Matrix: (Units=1/GPa)
#
#
# Indices 1 2 3 4 5 6 
#
# 1 0.007006 -0.000712 -0.004764 0.000000 0.000000 0.000000
# 2 -0.000712 0.009717 0.000680 0.000000 0.000000 0.000000
# 3 -0.004764 0.000680 0.011458 0.000000 0.000000 0.000000
# 4 0.000000 0.000000 0.000000 0.056258 0.000000 0.000000
# 5 0.000000 0.000000 0.000000 0.000000 0.220497 0.000000
# 6 0.000000 0.000000 0.000000 0.000000 0.000000 -0.060800
#
#
# Mechanical properties :
#
#
# Convention : Reuss Voigt Hill
#
# Bulk Modulus (GPa) = 53.79491 67.00475 60.39983
# Shear Modulus (GPa) = 19.23637 23.59323 21.41480
#
# Velocity S-wave (km/s) = 2.99405 3.31582 3.15904
# Velocity P-wave (km/s) = 6.08452 6.77381 6.43839
#
# Compressibility (1/GPa) = 0.01858912
#
# Stress axis : x y z
#
# Youngs Moduli (GPa) = 142.72996 102.91282 87.27655
#
# Poissons Ratio (x) = 0.07324 0.41580
# Poissons Ratio (y) = 0.10157 -0.05933
# Poissons Ratio (z) = 0.67998 -0.06996
#
# Static dielectric constant tensor:
#      x y z
#    x 1.696990 0.000000 0.000000 
#    y 0.000000 1.836680 0.000000 
#    z 0.000000 0.000000 1.738770 
# 
# From -- ./inp_files/61079.got.cif
#   From: 2010.05.17/outbox.cif.g08.bks.cpg/sg71_31_cif.got.tgz:61079.got - 2010.06.03 16:22:01.
