data_PCOD9520571
_publ_section_title
;
Structure prediction by ZEFSAII (Michael W. Deem and Ramdas Pophale) SiO2 
 PCOD9520571
Probable space group: I M M M
;
_chemical_formula_sum "Si O2"
_cell_formula_units_Z 88
_cell_length_a 8.736048
_cell_length_b 31.404750
_cell_length_c 20.405976
_cell_angle_alpha 90.000000
_cell_angle_beta 90.000000
_cell_angle_gamma 90.000000
_cell_volume 5598.448966
_symmetry_space_group_name_H-M "I M M M"
_symmetry_group_IT_number 71
_symmetry_cell_setting 'orthorhombic'
loop_
_space_group_symop_operation_xyz
x,y,z
-x,-y,z
x,-y,-z
-x,y,-z
-x,-y,-z
x,y,-z
-x,y,z
x,-y,z
1/2+x,1/2+y,1/2+z
1/2-x,1/2-y,1/2+z
1/2+x,1/2-y,1/2-z
1/2-x,1/2+y,1/2-z
1/2-x,1/2-y,1/2-z
1/2+x,1/2+y,1/2-z
1/2-x,1/2+y,1/2+z
1/2+x,1/2-y,1/2+z
loop_
_atom_site_type_symbol
_atom_site_label
_atom_site_fract_x
_atom_site_fract_y
_atom_site_fract_z
Si Si1 0.684735 0.951230 0.140104
Si Si2 0.326360 0.448349 0.500000
Si Si3 0.182432 0.234804 0.572226
Si Si4 0.317868 0.292291 0.215102
Si Si5 0.819501 0.632470 0.701148
Si Si6 0.180050 0.828193 0.925979
O O1 0.500000 0.950769 0.137304
O O2 0.745654 0.937688 0.068426
O O3 0.733086 0.916626 0.194318
O O4 0.734114 0.000000 0.152661
O O5 0.330168 0.500000 0.500000
O O6 0.500000 0.432203 0.500000
O O7 0.208669 0.215122 0.500000
O O8 0.219784 0.208897 0.637690
O O9 0.278407 0.278251 0.574934
O O10 0.000000 0.245245 0.575764
O O11 0.500000 0.289844 0.222488
O O12 0.250000 0.250000 0.250000
O O13 0.259857 0.335264 0.249036
O O14 0.783268 0.650917 0.629172
O O15 0.000000 0.633333 0.713822
O O16 0.000000 0.834217 0.911418
O O17 0.210262 0.843672 0.000000
#
# Coordination Sequence:
#
# PCOD9520571 Si02
#       6
#    16   8  16  16  16  16
#     4   9  19  35  50  64  86 120 162 201 238 285
#     4   9  17  29  47  69  91 117 151 199 253 289
#     4   9  18  33  51  68  89 122 160 194 230 276
#     4  11  21  33  50  71  98 127 156 194 234 280
#     4  11  22  33  48  68  91 125 161 198 242 286
#     4  10  20  31  44  65  92 123 160 202 240 277
#
# _framework density 15.718639
#
# number of rings (size 3 to 8) (size 9 to 14) (size 15 to 20)
#    0.000    2.091    1.818    1.909    1.273    4.364 
#    0.000    0.000    0.000    0.000    0.000    0.000 
#    0.000    0.727    0.000    9.091    0.000    0.000 
#
# Total GULP energy -245357.078957 kJ/mol
# GULP energy per Si atom -5576.297249 kJ/mol
# Density = 1.568286 g / cm^3
# Si number density = 15.718639 Si / 1000 Ang^3
#
#
#
# Elastic Constant Matrix: (Units=GPa)
#
#
# Indices 1 2 3 4 5 6 
#
# 1 24.3286 23.9668 24.1425 0.0000 0.0000 0.0000
# 2 23.9668 99.2868 59.1366 0.0000 0.0000 0.0000
# 3 24.1425 59.1366 94.5275 0.0000 0.0000 0.0000
# 4 0.0000 0.0000 0.0000 30.3748 0.0000 0.0000
# 5 0.0000 0.0000 0.0000 0.0000 20.4371 0.0000
# 6 0.0000 0.0000 0.0000 0.0000 0.0000 15.9146
#
#
#
# Elastic Compliance Matrix: (Units=1/GPa)
#
#
# Indices 1 2 3 4 5 6 
#
# 1 0.059167 -0.008419 -0.009845 0.000000 0.000000 0.000000
# 2 -0.008419 0.017252 -0.008642 0.000000 0.000000 0.000000
# 3 -0.009845 -0.008642 0.018500 0.000000 0.000000 0.000000
# 4 0.000000 0.000000 0.000000 0.032922 0.000000 0.000000
# 5 0.000000 0.000000 0.000000 0.000000 0.048931 0.000000
# 6 0.000000 0.000000 0.000000 0.000000 0.000000 0.062835
#
#
# Mechanical properties :
#
#
# Convention : Reuss Voigt Hill
#
# Bulk Modulus (GPa) = 24.32685 48.07053 36.19869
# Shear Modulus (GPa) = 16.28028 20.73844 18.50936
#
# Velocity S-wave (km/s) = 3.22177 3.63623 3.43526
# Velocity P-wave (km/s) = 5.41754 6.94822 6.23007
#
# Compressibility (1/GPa) = 0.04110685
#
# Stress axis : x y z
#
# Youngs Moduli (GPa) = 16.90141 57.96570 54.05399
#
# Poissons Ratio (x) = 0.48799 0.53214
# Poissons Ratio (y) = 0.14229 0.46716
# Poissons Ratio (z) = 0.16639 0.50097
#
# Static dielectric constant tensor:
#      x y z
#    x 1.528970 0.000000 0.000000 
#    y 0.000000 1.560170 0.000000 
#    z 0.000000 0.000000 1.527940 
# 
# From -- ./inp_files/11354.got.cif
#   From: 2010.05.17/outbox.cif.g08.bks.cpg/sg71_6_cif.got.tgz:11354.got - 2010.06.03 16:22:01.
