data_PCOD9520351
_publ_section_title
;
Structure prediction by ZEFSAII (Michael W. Deem and Ramdas Pophale) SiO2 
 PCOD9520351
Probable space group: I M M M
;
_chemical_formula_sum "Si O2"
_cell_formula_units_Z 80
_cell_length_a 11.316720
_cell_length_b 27.380320
_cell_length_c 14.418166
_cell_angle_alpha 90.000000
_cell_angle_beta 90.000000
_cell_angle_gamma 90.000000
_cell_volume 4467.546809
_symmetry_space_group_name_H-M "I M M M"
_symmetry_group_IT_number 71
_symmetry_cell_setting 'orthorhombic'
loop_
_space_group_symop_operation_xyz
x,y,z
-x,-y,z
x,-y,-z
-x,y,-z
-x,-y,-z
x,y,-z
-x,y,z
x,-y,z
1/2+x,1/2+y,1/2+z
1/2-x,1/2-y,1/2+z
1/2+x,1/2-y,1/2-z
1/2-x,1/2+y,1/2-z
1/2-x,1/2-y,1/2-z
1/2+x,1/2+y,1/2-z
1/2-x,1/2+y,1/2+z
1/2+x,1/2-y,1/2+z
loop_
_atom_site_type_symbol
_atom_site_label
_atom_site_fract_x
_atom_site_fract_y
_atom_site_fract_z
Si Si1 0.140083 0.624580 0.107643
Si Si2 0.736077 0.911639 0.788504
Si Si3 0.000000 0.558822 0.609331
Si Si4 0.136195 0.165119 0.100474
Si Si5 0.640294 0.500000 0.607741
Si Si6 0.636897 0.765971 0.687326
O O1 0.211727 0.590457 0.178983
O O2 0.152784 0.680549 0.143352
O O3 0.000000 0.612949 0.114222
O O4 0.175092 0.620676 0.000000
O O5 0.612585 0.919023 0.840216
O O6 0.791418 0.860458 0.819427
O O7 0.816647 0.953478 0.833667
O O8 0.000000 0.500000 0.621052
O O9 0.000000 0.569051 0.500000
O O10 0.136664 0.223173 0.110906
O O11 0.000000 0.149012 0.106502
O O12 0.183296 0.149835 0.000000
O O13 0.500000 0.500000 0.601482
O O14 0.687091 0.500000 0.500000
O O15 0.500000 0.764855 0.728048
O O16 0.750000 0.750000 0.750000
#
# Coordination Sequence:
#
# PCOD9520351 Si02
#       6
#    16  16   8  16   8  16
#     4  10  21  38  59  84 116 158 204 239 280 344
#     4  12  21  36  59  84 116 148 188 242 291 341
#     4  11  22  36  55  83 119 151 176 228 308 367
#     4  10  20  34  56  84 113 149 191 231 280 349
#     4  11  24  41  62  87 116 151 189 234 294 364
#     4  10  19  35  58  84 117 155 196 242 293 345
#
# _framework density 17.90692
#
# number of rings (size 3 to 8) (size 9 to 14) (size 15 to 20)
#    0.000    1.400    4.000    3.000    0.000    4.000 
#    0.000    0.500    0.000    9.000    0.000    0.000 
#    0.000    0.000    0.000    0.000    0.000    0.000 
#
# Total GULP energy -222947.786626 kJ/mol
# GULP energy per Si atom -5573.694666 kJ/mol
# Density = 1.786616 g / cm^3
# Si number density = 17.906920 Si / 1000 Ang^3
#
#
#
# Elastic Constant Matrix: (Units=GPa)
#
#
# Indices 1 2 3 4 5 6 
#
# 1 83.9772 18.0200 53.6265 0.0000 0.0000 0.0000
# 2 18.0200 65.3043 34.4493 0.0000 0.0000 0.0000
# 3 53.6265 34.4493 150.8035 0.0000 0.0000 0.0000
# 4 0.0000 0.0000 0.0000 23.2164 0.0000 0.0000
# 5 0.0000 0.0000 0.0000 0.0000 24.6184 0.0000
# 6 0.0000 0.0000 0.0000 0.0000 0.0000 25.4695
#
#
#
# Elastic Compliance Matrix: (Units=1/GPa)
#
#
# Indices 1 2 3 4 5 6 
#
# 1 0.015545 -0.001562 -0.005171 0.000000 0.000000 0.000000
# 2 -0.001562 0.017568 -0.003458 0.000000 0.000000 0.000000
# 3 -0.005171 -0.003458 0.009260 0.000000 0.000000 0.000000
# 4 0.000000 0.000000 0.000000 0.043073 0.000000 0.000000
# 5 0.000000 0.000000 0.000000 0.000000 0.040620 0.000000
# 6 0.000000 0.000000 0.000000 0.000000 0.000000 0.039263
#
#
# Mechanical properties :
#
#
# Convention : Reuss Voigt Hill
#
# Bulk Modulus (GPa) = 45.47155 56.91959 51.19557
# Shear Modulus (GPa) = 25.90122 27.59348 26.74735
#
# Velocity S-wave (km/s) = 3.80733 3.92974 3.86902
# Velocity P-wave (km/s) = 6.69149 7.24195 6.97216
#
# Compressibility (1/GPa) = 0.02199177
#
# Stress axis : x y z
#
# Youngs Moduli (GPa) = 64.32772 56.92187 107.99148
#
# Poissons Ratio (x) = 0.08889 0.55845
# Poissons Ratio (y) = 0.10046 0.37342
# Poissons Ratio (z) = 0.33266 0.19683
#
# Static dielectric constant tensor:
#      x y z
#    x 1.625470 0.000000 0.000000 
#    y 0.000000 1.642150 0.000000 
#    z 0.000000 0.000000 1.614920 
# 
# From -- ./inp_files/20197.got.cif
#   From: 2010.05.17/outbox.cif.g08.bks.cpg/sg71_11_cif.got.tgz:20197.got - 2010.06.03 16:22:01.
