data_PCOD9520700
_publ_section_title
;
Structure prediction by ZEFSAII (Michael W. Deem and Ramdas Pophale) SiO2 
 PCOD9520700
Probable space group: I M M M
;
_chemical_formula_sum "Si O2"
_cell_formula_units_Z 96
_cell_length_a 9.211284
_cell_length_b 25.550692
_cell_length_c 25.381277
_cell_angle_alpha 90.000000
_cell_angle_beta 90.000000
_cell_angle_gamma 90.000000
_cell_volume 5973.602337
_symmetry_space_group_name_H-M "I M M M"
_symmetry_group_IT_number 71
_symmetry_cell_setting 'orthorhombic'
loop_
_space_group_symop_operation_xyz
x,y,z
-x,-y,z
x,-y,-z
-x,y,-z
-x,-y,-z
x,y,-z
-x,y,z
x,-y,z
1/2+x,1/2+y,1/2+z
1/2-x,1/2-y,1/2+z
1/2+x,1/2-y,1/2-z
1/2-x,1/2+y,1/2-z
1/2-x,1/2-y,1/2-z
1/2+x,1/2+y,1/2-z
1/2-x,1/2+y,1/2+z
1/2+x,1/2-y,1/2+z
loop_
_atom_site_type_symbol
_atom_site_label
_atom_site_fract_x
_atom_site_fract_y
_atom_site_fract_z
Si Si1 0.332984 0.251470 0.563973
Si Si2 0.328545 0.437516 0.638992
Si Si3 0.172285 0.358289 0.437183
Si Si4 0.174664 0.438341 0.136410
Si Si5 0.672426 0.355385 0.937165
Si Si6 0.333848 0.936524 0.755498
O O1 0.334409 0.251504 0.500000
O O2 0.500000 0.251514 0.581982
O O3 0.248898 0.304076 0.579544
O O4 0.249364 0.198776 0.579559
O O5 0.500000 0.427853 0.634903
O O6 0.304087 0.500000 0.633388
O O7 0.242786 0.405463 0.595026
O O8 0.268868 0.421203 0.696505
O O9 0.195803 0.364984 0.500000
O O10 0.000000 0.355421 0.428216
O O11 0.209642 0.500000 0.130477
O O12 0.257074 0.402832 0.094737
O O13 0.210994 0.421249 0.196403
O O14 0.000000 0.433284 0.130684
O O15 0.500000 0.352340 0.928464
O O16 0.696365 0.362050 0.000000
O O17 0.500000 0.919196 0.765128
O O18 0.336469 0.000000 0.754464
#
# Coordination Sequence:
#
# PCOD9520700 Si02
#       6
#    16  16  16  16  16  16
#     4   9  17  31  51  71  92 122 161 201 238 280
#     4  10  20  32  48  72 100 129 161 197 237 282
#     4  10  20  33  50  72  98 128 161 197 238 284
#     4   9  18  32  50  72  97 127 163 201 241 285
#     4  10  20  32  47  70 100 131 162 197 238 285
#     4   8  15  30  50  69  91 122 161 201 238 280
#
# _framework density 16.070705
#
# number of rings (size 3 to 8) (size 9 to 14) (size 15 to 20)
#    0.000    2.667    0.000    3.000    0.000    6.667 
#    0.000    5.000    0.000    1.000    0.000    0.000 
#    0.000    0.000    0.000    0.000    0.000    0.000 
#
# Total GULP energy -267531.247840 kJ/mol
# GULP energy per Si atom -5573.567663 kJ/mol
# Density = 1.603413 g / cm^3
# Si number density = 16.070705 Si / 1000 Ang^3
#
#
#
# Elastic Constant Matrix: (Units=GPa)
#
#
# Indices 1 2 3 4 5 6 
#
# 1 111.2962 73.6778 71.2242 0.0000 0.0000 0.0000
# 2 73.6778 85.1641 56.1493 0.0000 0.0000 0.0000
# 3 71.2242 56.1493 72.8873 0.0000 0.0000 0.0000
# 4 0.0000 0.0000 0.0000 -5.6278 0.0000 0.0000
# 5 0.0000 0.0000 0.0000 0.0000 26.2346 0.0000
# 6 0.0000 0.0000 0.0000 0.0000 0.0000 29.6323
#
#
#
# Elastic Compliance Matrix: (Units=1/GPa)
#
#
# Indices 1 2 3 4 5 6 
#
# 1 0.030071 -0.013496 -0.018987 0.000000 0.000000 0.000000
# 2 -0.013496 0.029919 -0.009860 0.000000 0.000000 0.000000
# 3 -0.018987 -0.009860 0.039870 0.000000 0.000000 0.000000
# 4 0.000000 0.000000 0.000000 -0.177691 0.000000 0.000000
# 5 0.000000 0.000000 0.000000 0.000000 0.038118 0.000000
# 6 0.000000 0.000000 0.000000 0.000000 0.000000 0.033747
#
#
# Mechanical properties :
#
#
# Convention : Reuss Voigt Hill
#
# Bulk Modulus (GPa) = 65.91175 74.60558 70.25867
# Shear Modulus (GPa) = 59.68213 14.60091 37.14152
#
# Velocity S-wave (km/s) = 6.10064 3.01747 4.81264
# Velocity P-wave (km/s) = 9.52504 7.65926 8.64265
#
# Compressibility (1/GPa) = 0.01517180
#
# Stress axis : x y z
#
# Youngs Moduli (GPa) = 33.25505 33.42385 25.08183
#
# Poissons Ratio (x) = 0.45110 0.47624
# Poissons Ratio (y) = 0.44882 0.24730
# Poissons Ratio (z) = 0.63143 0.32955
#
# Static dielectric constant tensor:
#      x y z
#    x 1.534630 0.000000 0.000000 
#    y 0.000000 1.518780 0.000000 
#    z 0.000000 0.000000 1.529950 
# 
# From -- ./inp_files/12795.got.cif
#   From: 2010.05.17/outbox.cif.g08.bks.cpg/sg71_7_cif.got.tgz:12795.got - 2010.06.03 16:22:01.
