data_PCOD9520714
_publ_section_title
;
Structure prediction by ZEFSAII (Michael W. Deem and Ramdas Pophale) SiO2 
 PCOD9520714
Probable space group: I M M M
;
_chemical_formula_sum "Si O2"
_cell_formula_units_Z 96
_cell_length_a 30.174525
_cell_length_b 8.332410
_cell_length_c 17.030266
_cell_angle_alpha 90.000000
_cell_angle_beta 90.000000
_cell_angle_gamma 90.000000
_cell_volume 4281.860410
_symmetry_space_group_name_H-M "I M M M"
_symmetry_group_IT_number 71
_symmetry_cell_setting 'orthorhombic'
loop_
_space_group_symop_operation_xyz
x,y,z
-x,-y,z
x,-y,-z
-x,y,-z
-x,-y,-z
x,y,-z
-x,y,z
x,-y,z
1/2+x,1/2+y,1/2+z
1/2-x,1/2-y,1/2+z
1/2+x,1/2-y,1/2-z
1/2-x,1/2+y,1/2-z
1/2-x,1/2-y,1/2-z
1/2+x,1/2+y,1/2-z
1/2-x,1/2+y,1/2+z
1/2+x,1/2-y,1/2+z
loop_
_atom_site_type_symbol
_atom_site_label
_atom_site_fract_x
_atom_site_fract_y
_atom_site_fract_z
Si Si1 0.645965 0.809777 0.635809
Si Si2 0.868840 0.686735 0.591760
Si Si3 0.194326 0.817038 0.289560
Si Si4 0.450725 0.684905 0.628755
Si Si5 0.048988 0.316184 0.701014
Si Si6 0.240298 0.303808 0.085098
O O1 0.662860 0.765089 0.724328
O O2 0.597920 0.750640 0.607073
O O3 0.688728 0.756365 0.586697
O O4 0.643626 0.000000 0.632785
O O5 0.873193 0.708369 0.500000
O O6 0.854845 0.500000 0.606667
O O7 0.834997 0.807374 0.631261
O O8 0.914905 0.711915 0.635877
O O9 0.238953 0.747042 0.331371
O O10 0.201610 0.000000 0.265064
O O11 0.500000 0.754625 0.606214
O O12 0.451783 0.500000 0.605639
O O13 0.448599 0.703991 0.723390
O O14 0.054960 0.500000 0.731292
O O15 0.000000 0.304565 0.666923
O O16 0.242660 0.500000 0.087759
O O17 0.259285 0.251458 0.000000
#
# Coordination Sequence:
#
# PCOD9520714 Si02
#       6
#    16  16  16  16  16  16
#     4  11  21  35  59  86 112 143 183 230 275 325
#     4  10  20  32  47  71 105 143 184 230 276 322
#     4  11  21  35  56  80 109 147 187 226 271 323
#     4  10  20  34  54  81 112 143 178 224 275 328
#     4   9  17  30  48  69  98 138 180 223 273 325
#     4   9  20  38  58  82 112 146 184 228 278 328
#
# _framework density 22.420162000000001
#
# number of rings (size 3 to 8) (size 9 to 14) (size 15 to 20)
#    0.000    2.000    1.667    2.500    0.000    2.333 
#    0.000    4.167    0.000    6.500    0.000    7.000 
#    0.000    0.000    0.000    0.000    0.000    0.000 
#
# Total GULP energy -267486.042679 kJ/mol
# GULP energy per Si atom -5572.625889 kJ/mol
# Density = 2.236913 g / cm^3
# Si number density = 22.420162 Si / 1000 Ang^3
#
#
#
# Elastic Constant Matrix: (Units=GPa)
#
#
# Indices 1 2 3 4 5 6 
#
# 1 126.1382 16.9271 0.8452 0.0000 0.0000 0.0000
# 2 16.9271 28.5128 -1.5396 0.0000 0.0000 0.0000
# 3 0.8452 -1.5396 75.1557 0.0000 0.0000 0.0000
# 4 0.0000 0.0000 0.0000 3.8874 0.0000 0.0000
# 5 0.0000 0.0000 0.0000 0.0000 16.9656 0.0000
# 6 0.0000 0.0000 0.0000 0.0000 0.0000 28.5770
#
#
#
# Elastic Compliance Matrix: (Units=1/GPa)
#
#
# Indices 1 2 3 4 5 6 
#
# 1 0.008617 -0.005127 -0.000202 0.000000 0.000000 0.000000
# 2 -0.005127 0.038161 0.000839 0.000000 0.000000 0.000000
# 3 -0.000202 0.000839 0.013325 0.000000 0.000000 0.000000
# 4 0.000000 0.000000 0.000000 0.257244 0.000000 0.000000
# 5 0.000000 0.000000 0.000000 0.000000 0.058943 0.000000
# 6 0.000000 0.000000 0.000000 0.000000 0.000000 0.034993
#
#
# Mechanical properties :
#
#
# Convention : Reuss Voigt Hill
#
# Bulk Modulus (GPa) = 19.55996 29.14134 24.35065
# Shear Modulus (GPa) = 11.43371 24.12424 17.77898
#
# Velocity S-wave (km/s) = 2.26071 3.28381 2.81906
# Velocity P-wave (km/s) = 3.94432 5.23488 4.63474
#
# Compressibility (1/GPa) = 0.05112484
#
# Stress axis : x y z
#
# Youngs Moduli (GPa) = 116.04786 26.20491 75.04586
#
# Poissons Ratio (x) = 0.13434 0.01515
# Poissons Ratio (y) = 0.59493 -0.06299
# Poissons Ratio (z) = 0.02343 -0.02200
#
# Static dielectric constant tensor:
#      x y z
#    x 1.962290 0.000000 0.000000 
#    y 0.000000 1.827220 0.000000 
#    z 0.000000 0.000000 1.841660 
# 
# From -- ./inp_files/56154.got.cif
#   From: 2010.05.17/outbox.cif.g08.bks.cpg/sg71_29_cif.got.tgz:56154.got - 2010.06.03 16:22:01.
