data_PCOD9520220
_publ_section_title
;
Structure prediction by ZEFSAII (Michael W. Deem and Ramdas Pophale) SiO2 
 PCOD9520220
Probable space group: I M M M
;
_chemical_formula_sum "Si O2"
_cell_formula_units_Z 64
_cell_length_a 17.728232
_cell_length_b 15.182428
_cell_length_c 12.792348
_cell_angle_alpha 90.000000
_cell_angle_beta 90.000000
_cell_angle_gamma 90.000000
_cell_volume 3443.157762
_symmetry_space_group_name_H-M "I M M M"
_symmetry_group_IT_number 71
_symmetry_cell_setting 'orthorhombic'
loop_
_space_group_symop_operation_xyz
x,y,z
-x,-y,z
x,-y,-z
-x,y,-z
-x,-y,-z
x,y,-z
-x,y,z
x,-y,z
1/2+x,1/2+y,1/2+z
1/2-x,1/2-y,1/2+z
1/2+x,1/2-y,1/2-z
1/2-x,1/2+y,1/2-z
1/2-x,1/2-y,1/2-z
1/2+x,1/2+y,1/2-z
1/2-x,1/2+y,1/2+z
1/2+x,1/2-y,1/2+z
loop_
_atom_site_type_symbol
_atom_site_label
_atom_site_fract_x
_atom_site_fract_y
_atom_site_fract_z
Si Si1 0.084059 0.318764 0.500000
Si Si2 0.661124 0.261539 0.617821
Si Si3 0.239000 0.095997 0.373596
Si Si4 0.083774 0.824642 0.684209
Si Si5 0.755166 0.397610 0.500000
O O1 0.090025 0.254291 0.399868
O O2 0.155433 0.382504 0.500000
O O3 0.000000 0.358838 0.500000
O O4 0.632387 0.241479 0.500000
O O5 0.709288 0.178373 0.657752
O O6 0.598387 0.287028 0.700410
O O7 0.717790 0.343969 0.596852
O O8 0.238993 0.097884 0.500000
O O9 0.153266 0.111341 0.338882
O O10 0.266333 0.000000 0.338273
O O11 0.000000 0.863000 0.674109
O O12 0.735844 0.500000 0.500000
#
# Coordination Sequence:
#
# PCOD9520220 Si02
#       5
#     8  16  16  16   8
#     4  10  20  35  54  82 109 135 177 220 271 326
#     4   9  20  38  54  80 108 138 186 223 261 318
#     4  10  19  34  58  84 108 138 177 226 275 322
#     4  11  20  35  57  78 112 148 173 219 272 321
#     4  10  20  37  59  78 106 147 183 225 265 313
#
# _framework density 18.587589999999999
#
# number of rings (size 3 to 8) (size 9 to 14) (size 15 to 20)
#    0.750    1.250    3.750    0.750    0.000    2.250 
#    0.000    1.250    0.000    3.000    0.000    3.500 
#    0.000    0.000    0.000    0.000    0.000    0.000 
#
# Total GULP energy -178338.261306 kJ/mol
# GULP energy per Si atom -5573.070666 kJ/mol
# Density = 1.854528 g / cm^3
# Si number density = 18.587590 Si / 1000 Ang^3
#
#
#
# Elastic Constant Matrix: (Units=GPa)
#
#
# Indices 1 2 3 4 5 6 
#
# 1 32.6673 3.1457 5.0150 0.0000 0.0000 0.0000
# 2 3.1457 95.2477 1.4294 0.0000 0.0000 0.0000
# 3 5.0150 1.4294 65.1846 0.0000 0.0000 0.0000
# 4 0.0000 0.0000 0.0000 4.3087 0.0000 0.0000
# 5 0.0000 0.0000 0.0000 0.0000 5.3587 0.0000
# 6 0.0000 0.0000 0.0000 0.0000 0.0000 5.6106
#
#
#
# Elastic Compliance Matrix: (Units=1/GPa)
#
#
# Indices 1 2 3 4 5 6 
#
# 1 0.031071 -0.000991 -0.002369 0.000000 0.000000 0.000000
# 2 -0.000991 0.010534 -0.000155 0.000000 0.000000 0.000000
# 3 -0.002369 -0.000155 0.015527 0.000000 0.000000 0.000000
# 4 0.000000 0.000000 0.000000 0.232086 0.000000 0.000000
# 5 0.000000 0.000000 0.000000 0.000000 0.186611 0.000000
# 6 0.000000 0.000000 0.000000 0.000000 0.000000 0.178234
#
#
# Mechanical properties :
#
#
# Convention : Reuss Voigt Hill
#
# Bulk Modulus (GPa) = 19.95884 23.58664 21.77274
# Shear Modulus (GPa) = 7.37689 15.28959 11.33324
#
# Velocity S-wave (km/s) = 1.99433 2.87116 2.47193
# Velocity P-wave (km/s) = 4.00801 4.86913 4.45940
#
# Compressibility (1/GPa) = 0.05010311
#
# Stress axis : x y z
#
# Youngs Moduli (GPa) = 32.18473 94.93090 64.40527
#
# Poissons Ratio (x) = 0.09404 0.15256
# Poissons Ratio (y) = 0.03188 0.00997
# Poissons Ratio (z) = 0.07624 0.01469
#
# Static dielectric constant tensor:
#      x y z
#    x 1.612080 0.000000 0.000000 
#    y 0.000000 1.660760 0.000000 
#    z 0.000000 0.000000 1.686840 
# 
# From -- ./inp_files/23231.got.cif
#   From: 2010.05.17/outbox.cif.g08.bks.cpg/sg71_12_cif.got.tgz:23231.got - 2010.06.03 16:22:01.
