data_PCOD9520358
_publ_section_title
;
Structure prediction by ZEFSAII (Michael W. Deem and Ramdas Pophale) SiO2 
 PCOD9520358
Probable space group: I M M M
;
_chemical_formula_sum "Si O2"
_cell_formula_units_Z 92
_cell_length_a 28.312760
_cell_length_b 7.493393
_cell_length_c 23.030099
_cell_angle_alpha 90.000000
_cell_angle_beta 90.000000
_cell_angle_gamma 90.000000
_cell_volume 4886.034428
_symmetry_space_group_name_H-M "I M M M"
_symmetry_group_IT_number 71
_symmetry_cell_setting 'orthorhombic'
loop_
_space_group_symop_operation_xyz
x,y,z
-x,-y,z
x,-y,-z
-x,y,-z
-x,-y,-z
x,y,-z
-x,y,z
x,-y,z
1/2+x,1/2+y,1/2+z
1/2-x,1/2-y,1/2+z
1/2+x,1/2-y,1/2-z
1/2-x,1/2+y,1/2-z
1/2-x,1/2-y,1/2-z
1/2+x,1/2+y,1/2-z
1/2-x,1/2+y,1/2+z
1/2+x,1/2-y,1/2+z
loop_
_atom_site_type_symbol
_atom_site_label
_atom_site_fract_x
_atom_site_fract_y
_atom_site_fract_z
Si Si1 0.696943 0.709410 0.678536
Si Si2 0.785348 0.293633 0.603258
Si Si3 0.052438 0.715219 0.239970
Si Si4 0.054689 0.281623 0.000000
Si Si5 0.290419 0.500000 0.000000
Si Si6 0.901251 0.715458 0.120821
Si Si7 0.849065 0.789441 0.296514
O O1 0.704793 0.500000 0.688133
O O2 0.743420 0.774520 0.646207
O O3 0.651990 0.732028 0.636380
O O4 0.680655 0.784371 0.740982
O O5 0.774984 0.500000 0.585920
O O6 0.789796 0.157545 0.550700
O O7 0.831626 0.293690 0.643902
O O8 0.051396 0.500000 0.238691
O O9 0.066543 0.775922 0.174898
O O10 0.095928 0.765965 0.280989
O O11 0.000000 0.778117 0.255868
O O12 0.080359 0.221778 0.058726
O O13 0.055521 0.500000 0.000000
O O14 0.000000 0.228474 0.000000
O O15 0.903011 0.500000 0.120114
O O16 0.840271 0.000000 0.300598
#
# Coordination Sequence:
#
# PCOD9520358 Si02
#       7
#    16  16  16   8   4  16  16
#     4   9  20  35  54  80 113 149 188 243 299 342
#     4  11  23  41  61  86 118 156 197 239 291 350
#     4   9  17  30  49  77 112 147 185 238 298 352
#     4   9  16  27  43  65  94 136 192 244 283 329
#     4  12  26  42  60  86 119 160 197 240 280 350
#     4   9  17  28  46  71 101 143 193 240 290 340
#     4  10  19  35  58  86 116 149 193 244 296 350
#
# _framework density 18.829176
#
# number of rings (size 3 to 8) (size 9 to 14) (size 15 to 20)
#    0.000    2.348    0.870    1.826    1.217    3.826 
#    1.565    1.304    0.000    2.087    0.000    1.217 
#    0.000    2.783    0.000    0.000    0.000    0.000 
#
# Total GULP energy -256185.378907 kJ/mol
# GULP energy per Si atom -5569.247368 kJ/mol
# Density = 1.878632 g / cm^3
# Si number density = 18.829176 Si / 1000 Ang^3
#
#
#
# Elastic Constant Matrix: (Units=GPa)
#
#
# Indices 1 2 3 4 5 6 
#
# 1 94.3858 15.6613 63.1645 0.0000 0.0000 0.0000
# 2 15.6613 88.7894 30.7852 0.0000 0.0000 0.0000
# 3 63.1645 30.7852 100.1479 0.0000 0.0000 0.0000
# 4 0.0000 0.0000 0.0000 221.1283 0.0000 0.0000
# 5 0.0000 0.0000 0.0000 0.0000 5.2210 0.0000
# 6 0.0000 0.0000 0.0000 0.0000 0.0000 33.9773
#
#
#
# Elastic Compliance Matrix: (Units=1/GPa)
#
#
# Indices 1 2 3 4 5 6 
#
# 1 0.018393 0.000871 -0.011868 0.000000 0.000000 0.000000
# 2 0.000871 0.012647 -0.004437 0.000000 0.000000 0.000000
# 3 -0.011868 -0.004437 0.018835 0.000000 0.000000 0.000000
# 4 0.000000 0.000000 0.000000 0.004522 0.000000 0.000000
# 5 0.000000 0.000000 0.000000 0.000000 0.191535 0.000000
# 6 0.000000 0.000000 0.000000 0.000000 0.000000 0.029431
#
#
# Mechanical properties :
#
#
# Convention : Reuss Voigt Hill
#
# Bulk Modulus (GPa) = 52.61537 55.83835 54.22686
# Shear Modulus (GPa) = 15.99653 63.64611 39.82132
#
# Velocity S-wave (km/s) = 2.91788 5.82024 4.60376
# Velocity P-wave (km/s) = 6.27346 8.65370 7.55787
#
# Compressibility (1/GPa) = 0.01900585
#
# Stress axis : x y z
#
# Youngs Moduli (GPa) = 54.36937 79.06761 53.09392
#
# Poissons Ratio (x) = -0.06885 0.63013
# Poissons Ratio (y) = -0.04734 0.23557
# Poissons Ratio (z) = 0.64527 0.35082
#
# Static dielectric constant tensor:
#      x y z
#    x 1.656100 0.000000 0.000000 
#    y 0.000000 1.713260 0.000000 
#    z 0.000000 0.000000 1.634190 
# 
# From -- ./inp_files/56158.got.cif
#   From: 2010.05.17/outbox.cif.g08.bks.cpg/sg71_29_cif.got.tgz:56158.got - 2010.06.03 16:22:01.
