data_PCOD9520855
_publ_section_title
;
Structure prediction by ZEFSAII (Michael W. Deem and Ramdas Pophale) SiO2 
 PCOD9520855
Probable space group: I M M M
;
_chemical_formula_sum "Si O2"
_cell_formula_units_Z 80
_cell_length_a 33.327522
_cell_length_b 15.579563
_cell_length_c 7.383622
_cell_angle_alpha 90.000000
_cell_angle_beta 90.000000
_cell_angle_gamma 90.000000
_cell_volume 3833.784972
_symmetry_space_group_name_H-M "I M M M"
_symmetry_group_IT_number 71
_symmetry_cell_setting 'orthorhombic'
loop_
_space_group_symop_operation_xyz
x,y,z
-x,-y,z
x,-y,-z
-x,y,-z
-x,-y,-z
x,y,-z
-x,y,z
x,-y,z
1/2+x,1/2+y,1/2+z
1/2-x,1/2-y,1/2+z
1/2+x,1/2-y,1/2-z
1/2-x,1/2+y,1/2-z
1/2-x,1/2-y,1/2-z
1/2+x,1/2+y,1/2-z
1/2-x,1/2+y,1/2+z
1/2+x,1/2-y,1/2+z
loop_
_atom_site_type_symbol
_atom_site_label
_atom_site_fract_x
_atom_site_fract_y
_atom_site_fract_z
Si Si1 0.736086 0.347312 0.285622
Si Si2 0.820213 0.407810 0.720554
Si Si3 0.453781 0.097023 0.779473
Si Si4 0.853470 0.904110 0.290241
Si Si5 0.885539 0.727726 0.278113
O O1 0.732582 0.359881 0.500000
O O2 0.750000 0.250000 0.250000
O O3 0.774316 0.400815 0.219148
O O4 0.693007 0.373598 0.211166
O O5 0.819868 0.404799 0.500000
O O6 0.837524 0.500000 0.773013
O O7 0.846982 0.328269 0.779324
O O8 0.500000 0.110770 0.725701
O O9 0.424068 0.172501 0.720862
O O10 0.441934 0.000000 0.723638
O O11 0.452737 0.096732 0.000000
O O12 0.865317 0.910848 0.500000
O O13 0.879396 0.825050 0.213665
O O14 0.856593 0.000000 0.210967
O O15 0.885580 0.729468 0.500000
#
# Coordination Sequence:
#
# PCOD9520855 Si02
#       5
#    16  16  16  16  16
#     4  11  20  32  48  66  91 121 158 197 236 277
#     4   9  16  25  40  61  82 108 145 185 224 270
#     4   8  13  21  36  61  91 119 146 180 226 279
#     4  10  20  33  47  64  89 124 163 197 233 276
#     4   9  15  25  40  59  86 118 150 185 227 275
#
# _framework density 20.867106
#
# number of rings (size 3 to 8) (size 9 to 14) (size 15 to 20)
#    0.000    2.600    2.000    2.400    0.000    3.600 
#    0.000    0.000    0.000    0.600    0.000    4.200 
#    0.000    0.800    0.000    4.000    0.000    4.000 
#
# Total GULP energy -223226.572649 kJ/mol
# GULP energy per Si atom -5580.664316 kJ/mol
# Density = 2.081961 g / cm^3
# Si number density = 20.867106 Si / 1000 Ang^3
#
#
#
# Elastic Constant Matrix: (Units=GPa)
#
#
# Indices 1 2 3 4 5 6 
#
# 1 113.8768 87.2736 -0.0890 0.0000 0.0000 0.0000
# 2 87.2736 221.6200 3.0802 0.0000 0.0000 0.0000
# 3 -0.0890 3.0802 73.6396 0.0000 0.0000 0.0000
# 4 0.0000 0.0000 0.0000 -6.1074 0.0000 0.0000
# 5 0.0000 0.0000 0.0000 0.0000 4.2558 0.0000
# 6 0.0000 0.0000 0.0000 0.0000 0.0000 34.8763
#
#
#
# Elastic Compliance Matrix: (Units=1/GPa)
#
#
# Indices 1 2 3 4 5 6 
#
# 1 0.012581 -0.004957 0.000223 0.000000 0.000000 0.000000
# 2 -0.004957 0.006468 -0.000277 0.000000 0.000000 0.000000
# 3 0.000223 -0.000277 0.013591 0.000000 0.000000 0.000000
# 4 0.000000 0.000000 0.000000 -0.163735 0.000000 0.000000
# 5 0.000000 0.000000 0.000000 0.000000 0.234973 0.000000
# 6 0.000000 0.000000 0.000000 0.000000 0.000000 0.028673
#
#
# Mechanical properties :
#
#
# Convention : Reuss Voigt Hill
#
# Bulk Modulus (GPa) = 44.21286 65.51844 54.86565
# Shear Modulus (GPa) = 33.30804 27.86305 30.58555
#
# Velocity S-wave (km/s) = 3.99958 3.65809 3.83264
# Velocity P-wave (km/s) = 6.52401 7.02198 6.77757
#
# Compressibility (1/GPa) = 0.02261786
#
# Stress axis : x y z
#
# Youngs Moduli (GPa) = 79.48559 154.60018 73.57551
#
# Poissons Ratio (x) = 0.76642 -0.01638
# Poissons Ratio (y) = 0.39404 0.02035
# Poissons Ratio (z) = -0.01769 0.04275
#
# Static dielectric constant tensor:
#      x y z
#    x 1.710560 0.000000 0.000000 
#    y 0.000000 1.786180 0.000000 
#    z 0.000000 0.000000 1.489830 
# 
# From -- ./inp_files/16532.got.cif
#   From: 2010.05.17/outbox.cif.g08.bks.cpg/sg71_9_cif.got.tgz:16532.got - 2010.06.03 16:22:01.
