data_PCOD9520178
_publ_section_title
;
Structure prediction by ZEFSAII (Michael W. Deem and Ramdas Pophale) SiO2 
 PCOD9520178
Probable space group: I M M M
;
_chemical_formula_sum "Si O2"
_cell_formula_units_Z 96
_cell_length_a 28.950807
_cell_length_b 12.420429
_cell_length_c 13.940248
_cell_angle_alpha 90.000000
_cell_angle_beta 90.000000
_cell_angle_gamma 90.000000
_cell_volume 5012.654489
_symmetry_space_group_name_H-M "I M M M"
_symmetry_group_IT_number 71
_symmetry_cell_setting 'orthorhombic'
loop_
_space_group_symop_operation_xyz
x,y,z
-x,-y,z
x,-y,-z
-x,y,-z
-x,-y,-z
x,y,-z
-x,y,z
x,-y,z
1/2+x,1/2+y,1/2+z
1/2-x,1/2-y,1/2+z
1/2+x,1/2-y,1/2-z
1/2-x,1/2+y,1/2-z
1/2-x,1/2-y,1/2-z
1/2+x,1/2+y,1/2-z
1/2-x,1/2+y,1/2+z
1/2+x,1/2-y,1/2+z
loop_
_atom_site_type_symbol
_atom_site_label
_atom_site_fract_x
_atom_site_fract_y
_atom_site_fract_z
Si Si1 0.738393 0.000000 0.388374
Si Si2 0.604490 0.500000 0.388931
Si Si3 0.800625 0.262919 0.112505
Si Si4 0.055858 0.379080 0.000000
Si Si5 0.135774 0.230637 0.292304
Si Si6 0.710263 0.122438 0.885216
Si Si7 0.835779 0.000000 0.294611
Si Si8 0.555107 0.720461 0.328133
O O1 0.710324 0.110351 0.376365
O O2 0.782171 0.000000 0.318899
O O3 0.755009 0.000000 0.500000
O O4 0.618146 0.500000 0.500000
O O5 0.648076 0.500000 0.316768
O O6 0.573797 0.605139 0.365114
O O7 0.839925 0.232191 0.187104
O O8 0.754744 0.195195 0.139847
O O9 0.811509 0.242111 0.000000
O O10 0.068115 0.310737 0.906480
O O11 0.075055 0.500000 0.000000
O O12 0.000000 0.385916 0.000000
O O13 0.164028 0.319305 0.349790
O O14 0.082186 0.246650 0.269723
O O15 0.144111 0.111803 0.334829
O O16 0.713643 0.000000 0.849394
O O17 0.709674 0.119355 0.000000
O O18 0.500000 0.717523 0.318756
#
# Coordination Sequence:
#
# PCOD9520178 Si02
#       8
#     8   8  16   8  16  16   8  16
#     4  10  20  38  57  77 107 145 184 228 277 329
#     4  10  19  34  56  84 114 148 185 227 275 322
#     4  10  22  36  54  81 114 147 184 223 268 327
#     4   9  18  33  51  71 101 140 181 217 257 319
#     4  11  23  35  57  80 112 145 181 231 273 320
#     4  10  22  39  59  82 109 145 183 223 275 331
#     4  10  22  33  54  82 107 144 188 227 264 328
#     4  10  21  36  55  80 108 145 186 225 274 324
#
# _framework density 19.151530000000001
#
# number of rings (size 3 to 8) (size 9 to 14) (size 15 to 20)
#    0.000    1.917    2.500    0.750    3.500    1.667 
#    0.000    0.000    0.000    0.500    0.000    1.167 
#    0.000    6.667    0.000    0.000    0.000    0.000 
#
# Total GULP energy -268156.994728 kJ/mol
# GULP energy per Si atom -5586.604057 kJ/mol
# Density = 1.910794 g / cm^3
# Si number density = 19.151530 Si / 1000 Ang^3
#
#
#
# Elastic Constant Matrix: (Units=GPa)
#
#
# Indices 1 2 3 4 5 6 
#
# 1 68.6188 36.9106 24.7250 0.0000 0.0000 0.0000
# 2 36.9106 151.1493 22.3594 0.0000 0.0000 0.0000
# 3 24.7250 22.3594 27.8846 0.0000 0.0000 0.0000
# 4 0.0000 0.0000 0.0000 26.5636 0.0000 0.0000
# 5 0.0000 0.0000 0.0000 0.0000 25.6745 0.0000
# 6 0.0000 0.0000 0.0000 0.0000 0.0000 23.1418
#
#
#
# Elastic Compliance Matrix: (Units=1/GPa)
#
#
# Indices 1 2 3 4 5 6 
#
# 1 0.022470 -0.002882 -0.017613 0.000000 0.000000 0.000000
# 2 -0.002882 0.007876 -0.003760 0.000000 0.000000 0.000000
# 3 -0.017613 -0.003760 0.054495 0.000000 0.000000 0.000000
# 4 0.000000 0.000000 0.000000 0.037645 0.000000 0.000000
# 5 0.000000 0.000000 0.000000 0.000000 0.038949 0.000000
# 6 0.000000 0.000000 0.000000 0.000000 0.000000 0.043212
#
#
# Mechanical properties :
#
#
# Convention : Reuss Voigt Hill
#
# Bulk Modulus (GPa) = 27.52515 46.18253 36.85384
# Shear Modulus (GPa) = 18.84896 25.98650 22.41773
#
# Velocity S-wave (km/s) = 3.14060 3.68759 3.42503
# Velocity P-wave (km/s) = 5.24925 6.50367 5.90984
#
# Compressibility (1/GPa) = 0.03633041
#
# Stress axis : x y z
#
# Youngs Moduli (GPa) = 44.50430 126.96942 18.35044
#
# Poissons Ratio (x) = 0.36588 0.32321
# Poissons Ratio (y) = 0.12824 0.06900
# Poissons Ratio (z) = 0.78386 0.47744
#
# Static dielectric constant tensor:
#      x y z
#    x 1.653430 0.000000 0.000000 
#    y 0.000000 1.711490 0.000000 
#    z 0.000000 0.000000 1.690770 
# 
# From -- ./inp_files/40917.got.cif
#   From: 2010.05.17/outbox.cif.g08.bks.cpg/sg71_21_cif.got.tgz:40917.got - 2010.06.03 16:22:01.
