data_PCOD9520674
_publ_section_title
;
Structure prediction by ZEFSAII (Michael W. Deem and Ramdas Pophale) SiO2 
 PCOD9520674
Probable space group: I M M M
;
_chemical_formula_sum "Si O2"
_cell_formula_units_Z 72
_cell_length_a 8.207983
_cell_length_b 14.578472
_cell_length_c 37.150972
_cell_angle_alpha 90.000000
_cell_angle_beta 90.000000
_cell_angle_gamma 90.000000
_cell_volume 4445.479750
_symmetry_space_group_name_H-M "I M M M"
_symmetry_group_IT_number 71
_symmetry_cell_setting 'orthorhombic'
loop_
_space_group_symop_operation_xyz
x,y,z
-x,-y,z
x,-y,-z
-x,y,-z
-x,-y,-z
x,y,-z
-x,y,z
x,-y,z
1/2+x,1/2+y,1/2+z
1/2-x,1/2-y,1/2+z
1/2+x,1/2-y,1/2-z
1/2-x,1/2+y,1/2-z
1/2-x,1/2-y,1/2-z
1/2+x,1/2+y,1/2-z
1/2-x,1/2+y,1/2+z
1/2+x,1/2-y,1/2+z
loop_
_atom_site_type_symbol
_atom_site_label
_atom_site_fract_x
_atom_site_fract_y
_atom_site_fract_z
Si Si1 0.811686 0.605797 0.733534
Si Si2 0.309178 0.389622 0.409924
Si Si3 0.309700 0.395208 0.811221
Si Si4 0.000000 0.611225 0.541174
Si Si5 0.189082 0.790197 0.165133
O O1 0.773101 0.500000 0.724196
O O2 0.710602 0.630337 0.769010
O O3 0.784263 0.666343 0.698561
O O4 0.000000 0.611330 0.744564
O O5 0.500000 0.369458 0.419805
O O6 0.300032 0.500000 0.404776
O O7 0.167458 0.363220 0.438154
O O8 0.271198 0.338766 0.372451
O O9 0.500000 0.394006 0.820140
O O10 0.248402 0.500000 0.814984
O O11 0.221134 0.318266 0.834432
O O12 0.000000 0.500000 0.540372
O O13 0.000000 0.644121 0.500000
O O14 0.000000 0.808229 0.172331
#
# Coordination Sequence:
#
# PCOD9520674 Si02
#       5
#    16  16  16   8  16
#     4  10  20  32  47  66  89 122 162 203 246 291
#     4   9  19  33  49  74 105 133 163 198 236 283
#     4  10  21  35  48  63  87 121 163 209 250 291
#     4   9  18  32  52  76 103 137 167 193 232 284
#     4  11  21  32  48  68  93 125 159 200 248 291
#
# _framework density 16.196228000000001
#
# number of rings (size 3 to 8) (size 9 to 14) (size 15 to 20)
#    0.000    2.111    0.000    3.333    3.111    4.000 
#    0.000    2.222    0.000    0.000    0.000    0.000 
#    0.000    1.778    0.000    4.889    0.000    0.222 
#
# Total GULP energy -200783.332272 kJ/mol
# GULP energy per Si atom -5577.314785 kJ/mol
# Density = 1.615936 g / cm^3
# Si number density = 16.196228 Si / 1000 Ang^3
#
#
#
# Elastic Constant Matrix: (Units=GPa)
#
#
# Indices 1 2 3 4 5 6 
#
# 1 54.0831 23.0590 37.3500 0.0000 0.0000 0.0000
# 2 23.0590 48.7083 39.4751 0.0000 0.0000 0.0000
# 3 37.3500 39.4751 65.1345 0.0000 0.0000 0.0000
# 4 0.0000 0.0000 0.0000 11.8824 0.0000 0.0000
# 5 0.0000 0.0000 0.0000 0.0000 24.7721 0.0000
# 6 0.0000 0.0000 0.0000 0.0000 0.0000 20.5787
#
#
#
# Elastic Compliance Matrix: (Units=1/GPa)
#
#
# Indices 1 2 3 4 5 6 
#
# 1 0.030620 -0.000522 -0.017242 0.000000 0.000000 0.000000
# 2 -0.000522 0.040357 -0.024159 0.000000 0.000000 0.000000
# 3 -0.017242 -0.024159 0.039882 0.000000 0.000000 0.000000
# 4 0.000000 0.000000 0.000000 0.084158 0.000000 0.000000
# 5 0.000000 0.000000 0.000000 0.000000 0.040368 0.000000
# 6 0.000000 0.000000 0.000000 0.000000 0.000000 0.048594
#
#
# Mechanical properties :
#
#
# Convention : Reuss Voigt Hill
#
# Bulk Modulus (GPa) = 37.02042 40.85489 38.93765
# Shear Modulus (GPa) = 13.26861 15.98276 14.62569
#
# Velocity S-wave (km/s) = 2.86534 3.14478 3.00831
# Velocity P-wave (km/s) = 5.81842 6.20209 6.01331
#
# Compressibility (1/GPa) = 0.02701212
#
# Stress axis : x y z
#
# Youngs Moduli (GPa) = 32.65837 24.77877 25.07425
#
# Poissons Ratio (x) = 0.01294 0.43233
# Poissons Ratio (y) = 0.01706 0.60577
# Poissons Ratio (z) = 0.56309 0.59863
#
# Static dielectric constant tensor:
#      x y z
#    x 1.610890 0.000000 0.000000 
#    y 0.000000 1.556670 0.000000 
#    z 0.000000 0.000000 1.514230 
# 
# From -- ./inp_files/6040.got.cif
#   From: 2010.05.17/outbox.cif.g08.bks.cpg/sg71_4_cif.got.tgz:6040.got - 2010.06.03 16:22:01.
