data_PCOD9520254
_publ_section_title
;
Structure prediction by ZEFSAII (Michael W. Deem and Ramdas Pophale) SiO2 
 PCOD9520254
Probable space group: I M M M
;
_chemical_formula_sum "Si O2"
_cell_formula_units_Z 96
_cell_length_a 13.564298
_cell_length_b 21.792293
_cell_length_c 16.608144
_cell_angle_alpha 90.000000
_cell_angle_beta 90.000000
_cell_angle_gamma 90.000000
_cell_volume 4909.320139
_symmetry_space_group_name_H-M "I M M M"
_symmetry_group_IT_number 71
_symmetry_cell_setting 'orthorhombic'
loop_
_space_group_symop_operation_xyz
x,y,z
-x,-y,z
x,-y,-z
-x,y,-z
-x,-y,-z
x,y,-z
-x,y,z
x,-y,z
1/2+x,1/2+y,1/2+z
1/2-x,1/2-y,1/2+z
1/2+x,1/2-y,1/2-z
1/2-x,1/2+y,1/2-z
1/2-x,1/2-y,1/2-z
1/2+x,1/2+y,1/2-z
1/2-x,1/2+y,1/2+z
1/2+x,1/2-y,1/2+z
loop_
_atom_site_type_symbol
_atom_site_label
_atom_site_fract_x
_atom_site_fract_y
_atom_site_fract_z
Si Si1 0.825358 0.234255 0.086902
Si Si2 0.385994 0.402931 0.405906
Si Si3 0.390924 0.746850 0.883889
Si Si4 0.885179 0.100212 0.592196
Si Si5 0.112928 0.320774 0.774116
Si Si6 0.258756 0.567457 0.250119
O O1 0.877731 0.170579 0.106949
O O2 0.707977 0.222571 0.083538
O O3 0.844568 0.289011 0.147211
O O4 0.861346 0.253900 0.000000
O O5 0.354656 0.414808 0.500000
O O6 0.500000 0.421761 0.399679
O O7 0.323415 0.429583 0.332025
O O8 0.500000 0.767059 0.911767
O O9 0.383556 0.674500 0.900276
O O10 0.386572 0.765696 0.790723
O O11 0.852547 0.084639 0.500000
O O12 0.823710 0.075737 0.668332
O O13 0.000000 0.081379 0.599504
O O14 0.181163 0.376972 0.747872
O O15 0.000000 0.340468 0.784698
O O16 0.211915 0.500000 0.246367
#
# Coordination Sequence:
#
# PCOD9520254 Si02
#       6
#    16  16  16  16  16  16
#     4  11  20  35  61  92 124 153 184 234 305 369
#     4  10  22  40  63  93 123 150 188 243 304 364
#     4  10  19  34  60  89 117 150 187 233 297 361
#     4  10  21  37  59  91 126 153 184 235 298 363
#     4  11  23  39  59  85 118 156 198 244 292 350
#     4  12  25  41  61  83 113 161 212 249 287 337
#
# _framework density 19.554642000000001
#
# number of rings (size 3 to 8) (size 9 to 14) (size 15 to 20)
#    0.000    1.333    3.333    3.000    0.000    5.667 
#    0.000    1.667    0.000    0.500    0.000    3.500 
#    0.000    0.000    0.000    0.000    0.000    0.000 
#
# Total GULP energy -267782.368820 kJ/mol
# GULP energy per Si atom -5578.799350 kJ/mol
# Density = 1.951013 g / cm^3
# Si number density = 19.554642 Si / 1000 Ang^3
#
#
#
# Elastic Constant Matrix: (Units=GPa)
#
#
# Indices 1 2 3 4 5 6 
#
# 1 85.1569 16.6103 37.4280 0.0000 0.0000 0.0000
# 2 16.6103 69.2190 47.2543 0.0000 0.0000 0.0000
# 3 37.4280 47.2543 111.1717 0.0000 0.0001 0.0000
# 4 0.0000 0.0000 0.0000 -30.9213 0.0000 0.0000
# 5 0.0000 0.0000 0.0001 0.0000 -6.5668 0.0000
# 6 0.0000 0.0000 0.0000 0.0000 0.0000 -10.0106
#
#
#
# Elastic Compliance Matrix: (Units=1/GPa)
#
#
# Indices 1 2 3 4 5 6 
#
# 1 0.013784 -0.000197 -0.004557 0.000000 0.000000 0.000000
# 2 -0.000197 0.020356 -0.008586 0.000000 0.000000 0.000000
# 3 -0.004557 -0.008586 0.014179 0.000000 0.000000 0.000000
# 4 0.000000 0.000000 0.000000 -0.032340 0.000000 0.000000
# 5 0.000000 0.000000 0.000000 0.000000 -0.152282 0.000000
# 6 0.000000 0.000000 0.000000 0.000000 0.000000 -0.099894
#
#
# Mechanical properties :
#
#
# Convention : Reuss Voigt Hill
#
# Bulk Modulus (GPa) = 46.21283 52.01477 49.11380
# Shear Modulus (GPa) = -24.71526 1.45060 -11.63233
#
# Velocity S-wave (km/s) = -3.55900 0.86222 -2.44163
# Velocity P-wave (km/s) = 2.60678 5.25820 4.14994
#
# Compressibility (1/GPa) = 0.02163901
#
# Stress axis : x y z
#
# Youngs Moduli (GPa) = 72.54608 49.12638 70.52725
#
# Poissons Ratio (x) = 0.00966 0.32140
# Poissons Ratio (y) = 0.01427 0.60555
# Poissons Ratio (z) = 0.33060 0.42180
#
# Static dielectric constant tensor:
#      x y z
#    x 1.697800 0.000000 0.000000 
#    y 0.000000 1.656030 0.000000 
#    z 0.000000 0.000000 1.782950 
# 
# From -- ./inp_files/34493.got.cif
#   From: 2010.05.17/outbox.cif.g08.bks.cpg/sg71_18_cif.got.tgz:34493.got - 2010.06.03 16:22:01.
