data_PCOD9520683
_publ_section_title
;
Structure prediction by ZEFSAII (Michael W. Deem and Ramdas Pophale) SiO2 
 PCOD9520683
Probable space group: I M M M
;
_chemical_formula_sum "Si O2"
_cell_formula_units_Z 116
_cell_length_a 28.529685
_cell_length_b 8.023096
_cell_length_c 26.856468
_cell_angle_alpha 90.000000
_cell_angle_beta 90.000000
_cell_angle_gamma 90.000000
_cell_volume 6147.348885
_symmetry_space_group_name_H-M "I M M M"
_symmetry_group_IT_number 71
_symmetry_cell_setting 'orthorhombic'
loop_
_space_group_symop_operation_xyz
x,y,z
-x,-y,z
x,-y,-z
-x,y,-z
-x,-y,-z
x,y,-z
-x,y,z
x,-y,z
1/2+x,1/2+y,1/2+z
1/2-x,1/2-y,1/2+z
1/2+x,1/2-y,1/2-z
1/2-x,1/2+y,1/2-z
1/2-x,1/2-y,1/2-z
1/2+x,1/2+y,1/2-z
1/2-x,1/2+y,1/2+z
1/2+x,1/2-y,1/2+z
loop_
_atom_site_type_symbol
_atom_site_label
_atom_site_fract_x
_atom_site_fract_y
_atom_site_fract_z
Si Si1 0.200244 0.316320 0.945883
Si Si2 0.270931 0.811840 0.865819
Si Si3 0.336104 0.500000 0.500000
Si Si4 0.146942 0.800254 0.304045
Si Si5 0.805098 0.302696 0.201334
Si Si6 0.448025 0.302231 0.759588
Si Si7 0.401901 0.195328 0.341767
Si Si8 0.556170 0.699195 0.554529
O O1 0.176897 0.500000 0.937873
O O2 0.239887 0.291653 0.904596
O O3 0.224820 0.325530 0.000000
O O4 0.168701 0.151227 0.956443
O O5 0.323093 0.756290 0.851454
O O6 0.240412 0.796156 0.815248
O O7 0.271637 0.000000 0.883943
O O8 0.174417 0.739954 0.254947
O O9 0.093843 0.737359 0.294906
O O10 0.146471 0.000000 0.303504
O O11 0.795506 0.500000 0.197962
O O12 0.847587 0.255797 0.163853
O O13 0.500000 0.230172 0.766399
O O14 0.450702 0.500000 0.768519
O O15 0.431464 0.280509 0.702277
O O16 0.421416 0.227831 0.396269
O O17 0.404034 0.000000 0.330493
O O18 0.571477 0.764153 0.500000
O O19 0.500000 0.722613 0.557430
O O20 0.564928 0.500000 0.553570
#
# Coordination Sequence:
#
# PCOD9520683 Si02
#       8
#    16  16   4  16  16  16  16  16
#     4   9  17  31  50  72  99 129 165 209 247 287
#     4  12  21  33  51  72  98 131 168 206 250 297
#     4   8  14  32  48  74 100 124 167 210 241 294
#     4  10  20  33  49  72  98 127 163 201 245 292
#     4  10  21  35  47  65  94 129 165 203 247 295
#     4   9  18  33  52  71  94 125 159 193 232 287
#     4  10  20  32  47  68  92 118 154 198 246 297
#     4   9  18  32  49  67  88 116 153 197 246 301
#
# _framework density 18.869924000000001
#
# number of rings (size 3 to 8) (size 9 to 14) (size 15 to 20)
#    0.414    1.793    0.690    3.724    0.000    4.690 
#    0.000    1.379    0.000    0.828    0.000    0.000 
#    0.000    0.552    0.000    7.379    0.000    4.414 
#
# Total GULP energy -323080.334308 kJ/mol
# GULP energy per Si atom -5570.350592 kJ/mol
# Density = 1.882697 g / cm^3
# Si number density = 18.869924 Si / 1000 Ang^3
#
#
#
# Elastic Constant Matrix: (Units=GPa)
#
#
# Indices 1 2 3 4 5 6 
#
# 1 109.1583 17.9209 29.1824 0.0000 0.0000 0.0000
# 2 17.9209 71.5234 8.3173 0.0000 0.0000 0.0000
# 3 29.1824 8.3173 34.2527 0.0000 0.0000 0.0000
# 4 0.0000 0.0000 0.0000 44.5263 0.0000 0.0000
# 5 0.0000 0.0000 0.0000 0.0000 23.9420 0.0000
# 6 0.0000 0.0000 0.0000 0.0000 0.0000 17.6670
#
#
#
# Elastic Compliance Matrix: (Units=1/GPa)
#
#
# Indices 1 2 3 4 5 6 
#
# 1 0.012106 -0.001887 -0.009855 0.000000 0.000000 0.000000
# 2 -0.001887 0.014682 -0.001957 0.000000 0.000000 0.000000
# 3 -0.009855 -0.001957 0.038067 0.000000 0.000000 0.000000
# 4 0.000000 0.000000 0.000000 0.022459 0.000000 0.000000
# 5 0.000000 0.000000 0.000000 0.000000 0.041768 0.000000
# 6 0.000000 0.000000 0.000000 0.000000 0.000000 0.056603
#
#
# Mechanical properties :
#
#
# Convention : Reuss Voigt Hill
#
# Bulk Modulus (GPa) = 26.69915 36.19729 31.44822
# Shear Modulus (GPa) = 22.16634 27.86131 25.01382
#
# Velocity S-wave (km/s) = 3.43110 3.84668 3.64482
# Velocity P-wave (km/s) = 5.46592 6.24127 5.86642
#
# Compressibility (1/GPa) = 0.03745437
#
# Stress axis : x y z
#
# Youngs Moduli (GPa) = 82.60670 68.11116 26.26981
#
# Poissons Ratio (x) = 0.12853 0.25890
# Poissons Ratio (y) = 0.15589 0.05142
# Poissons Ratio (z) = 0.81412 0.13332
#
# Static dielectric constant tensor:
#      x y z
#    x 1.720340 0.000000 0.000000 
#    y 0.000000 1.692170 0.000000 
#    z 0.000000 0.000000 1.678710 
# 
# From -- ./inp_files/67378.got.cif
#   From: 2010.05.17/outbox.cif.g08.bks.cpg/sg71_34_cif.got.tgz:67378.got - 2010.06.03 16:22:01.
