data_PCOD9520223
_publ_section_title
;
Structure prediction by ZEFSAII (Michael W. Deem and Ramdas Pophale) SiO2 
 PCOD9520223
Probable space group: I M M M
;
_chemical_formula_sum "Si O2"
_cell_formula_units_Z 88
_cell_length_a 18.347363
_cell_length_b 29.459823
_cell_length_c 8.853763
_cell_angle_alpha 90.000000
_cell_angle_beta 90.000000
_cell_angle_gamma 90.000000
_cell_volume 4785.548028
_symmetry_space_group_name_H-M "I M M M"
_symmetry_group_IT_number 71
_symmetry_cell_setting 'orthorhombic'
loop_
_space_group_symop_operation_xyz
x,y,z
-x,-y,z
x,-y,-z
-x,y,-z
-x,-y,-z
x,y,-z
-x,y,z
x,-y,z
1/2+x,1/2+y,1/2+z
1/2-x,1/2-y,1/2+z
1/2+x,1/2-y,1/2-z
1/2-x,1/2+y,1/2-z
1/2-x,1/2-y,1/2-z
1/2+x,1/2+y,1/2-z
1/2-x,1/2+y,1/2+z
1/2+x,1/2-y,1/2+z
loop_
_atom_site_type_symbol
_atom_site_label
_atom_site_fract_x
_atom_site_fract_y
_atom_site_fract_z
Si Si1 0.171214 0.695540 0.177721
Si Si2 0.216329 0.946747 0.317465
Si Si3 0.641236 0.100668 0.179601
Si Si4 0.155598 0.790579 0.320500
Si Si5 0.082147 0.115952 0.315970
Si Si6 0.000000 0.446021 0.179159
O O1 0.140807 0.652947 0.268240
O O2 0.141341 0.743796 0.234434
O O3 0.259001 0.697183 0.201086
O O4 0.157991 0.689495 0.000000
O O5 0.222464 0.942767 0.500000
O O6 0.285914 0.922548 0.245152
O O7 0.142838 0.920569 0.269834
O O8 0.214037 0.000000 0.279852
O O9 0.571622 0.075426 0.247765
O O10 0.641102 0.097585 0.000000
O O11 0.144701 0.783559 0.500000
O O12 0.108278 0.833688 0.270705
O O13 0.081910 0.115769 0.500000
O O14 0.000000 0.106286 0.264929
O O15 0.000000 0.500000 0.202634
O O16 0.000000 0.437269 0.000000
#
# Coordination Sequence:
#
# PCOD9520223 Si02
#       6
#    16  16  16  16  16   8
#     4  10  19  34  58  84 114 150 193 242 293 350
#     4  10  20  36  59  86 116 152 196 243 294 351
#     4  12  24  39  61  88 119 153 194 239 288 352
#     4   9  17  32  54  82 115 150 193 243 295 347
#     4   9  17  32  55  84 118 155 196 246 295 342
#     4  11  25  45  67  89 117 153 191 239 300 355
#
# _framework density 18.388698000000002
#
# number of rings (size 3 to 8) (size 9 to 14) (size 15 to 20)
#    0.000    1.909    1.818    3.000    0.000    4.364 
#    1.636    1.818    0.000    1.636    0.000    1.273 
#    0.000    0.000    0.000    0.000    0.000    0.000 
#
# Total GULP energy -245758.461699 kJ/mol
# GULP energy per Si atom -5585.419584 kJ/mol
# Density = 1.834684 g / cm^3
# Si number density = 18.388698 Si / 1000 Ang^3
#
#
#
# Elastic Constant Matrix: (Units=GPa)
#
#
# Indices 1 2 3 4 5 6 
#
# 1 113.2582 67.5053 36.9546 0.0000 -0.0001 0.0000
# 2 67.5053 137.9552 56.6417 -0.0001 -0.0001 -0.0001
# 3 36.9546 56.6417 51.7469 -0.0012 -0.0001 -0.0007
# 4 0.0000 -0.0001 -0.0012 28.6705 0.0000 -0.0001
# 5 -0.0001 -0.0001 -0.0001 0.0000 4.8585 -0.0002
# 6 0.0000 -0.0001 -0.0007 -0.0001 -0.0002 9.4246
#
#
#
# Elastic Compliance Matrix: (Units=1/GPa)
#
#
# Indices 1 2 3 4 5 6 
#
# 1 0.012948 -0.004612 -0.004199 0.000000 0.000000 0.000000
# 2 -0.004612 0.014808 -0.012915 0.000000 0.000000 -0.000001
# 3 -0.004199 -0.012915 0.036460 0.000002 0.000000 0.000002
# 4 0.000000 0.000000 0.000002 0.034879 0.000000 0.000000
# 5 0.000000 0.000000 0.000000 0.000000 0.205824 0.000003
# 6 0.000000 -0.000001 0.000002 0.000000 0.000003 0.106106
#
#
# Mechanical properties :
#
#
# Convention : Reuss Voigt Hill
#
# Bulk Modulus (GPa) = 48.15843 69.46263 58.81053
# Shear Modulus (GPa) = 10.83660 18.04795 14.44227
#
# Velocity S-wave (km/s) = 2.43020 3.13624 2.80552
# Velocity P-wave (km/s) = 5.84128 7.13942 6.52272
#
# Compressibility (1/GPa) = 0.02076480
#
# Stress axis : x y z
#
# Youngs Moduli (GPa) = 77.23037 67.52931 27.42716
#
# Poissons Ratio (x) = 0.31145 0.11515
# Poissons Ratio (y) = 0.35620 0.35423
# Poissons Ratio (z) = 0.32425 0.87217
#
# Static dielectric constant tensor:
#      x y z
#    x 1.617180 0.000000 0.000000 
#    y 0.000000 1.614680 0.000000 
#    z 0.000000 0.000000 1.614450 
# 
# From -- ./inp_files/8739.got.cif
#   From: 2010.05.17/outbox.cif.g08.bks.cpg/sg71_5_cif.got.tgz:8739.got - 2010.06.03 16:22:01.
