data_PCOD9520475
_publ_section_title
;
Structure prediction by ZEFSAII (Michael W. Deem and Ramdas Pophale) SiO2 
 PCOD9520475
Probable space group: I M M M
;
_chemical_formula_sum "Si O2"
_cell_formula_units_Z 68
_cell_length_a 14.927817
_cell_length_b 18.992009
_cell_length_c 9.990894
_cell_angle_alpha 90.000000
_cell_angle_beta 90.000000
_cell_angle_gamma 90.000000
_cell_volume 2832.510713
_symmetry_space_group_name_H-M "I M M M"
_symmetry_group_IT_number 71
_symmetry_cell_setting 'orthorhombic'
loop_
_space_group_symop_operation_xyz
x,y,z
-x,-y,z
x,-y,-z
-x,y,-z
-x,-y,-z
x,y,-z
-x,y,z
x,-y,z
1/2+x,1/2+y,1/2+z
1/2-x,1/2-y,1/2+z
1/2+x,1/2-y,1/2-z
1/2-x,1/2+y,1/2-z
1/2-x,1/2-y,1/2-z
1/2+x,1/2+y,1/2-z
1/2-x,1/2+y,1/2+z
1/2+x,1/2-y,1/2+z
loop_
_atom_site_type_symbol
_atom_site_label
_atom_site_fract_x
_atom_site_fract_y
_atom_site_fract_z
Si Si1 0.396988 0.393683 0.000000
Si Si2 0.895616 0.387561 0.707912
Si Si3 0.133753 0.729457 0.500000
Si Si4 0.339749 0.304866 0.500000
Si Si5 0.397223 0.850902 0.500000
Si Si6 0.609158 0.576931 0.706349
Si Si7 0.175364 0.500000 0.500000
O O1 0.395729 0.309387 0.000000
O O2 0.359248 0.418806 0.140788
O O3 0.500000 0.418001 0.000000
O O4 0.897165 0.312690 0.631493
O O5 0.837224 0.438704 0.616625
O O6 0.000000 0.412697 0.706959
O O7 0.860381 0.378002 0.858499
O O8 0.240247 0.724609 0.500000
O O9 0.397028 0.233940 0.500000
O O10 0.357118 0.356365 0.624606
O O11 0.500000 0.874762 0.500000
O O12 0.500000 0.579889 0.702272
O O13 0.635586 0.500000 0.649820
#
# Coordination Sequence:
#
# PCOD9520475 Si02
#       7
#     8  16   8   8   8  16   4
#     4  10  20  37  64  92 118 152 198 255 313 362
#     4  10  20  38  61  87 116 151 199 249 298 350
#     4  11  23  37  58  85 120 164 202 242 289 361
#     4  12  24  38  57  86 125 164 202 240 296 356
#     4  10  22  37  59  89 118 149 195 252 302 351
#     4  10  21  39  63  90 119 154 201 255 309 365
#     4  10  19  36  62  86 112 148 187 236 293 350
#
# _framework density 24.006969999999999
#
# number of rings (size 3 to 8) (size 9 to 14) (size 15 to 20)
#    0.000    1.647    0.000    6.000    0.000   10.353 
#    8.471    1.765    0.000    0.000    0.000    0.000 
#    0.000    0.000    0.000    0.000    0.000    0.000 
#
# Total GULP energy -189792.345765 kJ/mol
# GULP energy per Si atom -5582.127817 kJ/mol
# Density = 2.395233 g / cm^3
# Si number density = 24.006970 Si / 1000 Ang^3
#
#
#
# Elastic Constant Matrix: (Units=GPa)
#
#
# Indices 1 2 3 4 5 6 
#
# 1 72.3684 -8.3085 -6.6219 0.0000 0.0000 0.0000
# 2 -8.3085 137.1663 61.4601 0.0000 0.0000 0.0000
# 3 -6.6219 61.4601 229.0376 0.0000 0.0000 0.0000
# 4 0.0000 0.0000 0.0000 38.4211 0.0000 0.0000
# 5 0.0000 0.0000 0.0000 0.0000 25.1686 0.0000
# 6 0.0000 0.0000 0.0000 0.0000 0.0000 14.0923
#
#
#
# Elastic Compliance Matrix: (Units=1/GPa)
#
#
# Indices 1 2 3 4 5 6 
#
# 1 0.013923 0.000754 0.000200 0.000000 0.000000 0.000000
# 2 0.000754 0.008328 -0.002213 0.000000 0.000000 0.000000
# 3 0.000200 -0.002213 0.004966 0.000000 0.000000 0.000000
# 4 0.000000 0.000000 0.000000 0.026027 0.000000 0.000000
# 5 0.000000 0.000000 0.000000 0.000000 0.039732 0.000000
# 6 0.000000 0.000000 0.000000 0.000000 0.000000 0.070961
#
#
# Mechanical properties :
#
#
# Convention : Reuss Voigt Hill
#
# Bulk Modulus (GPa) = 40.48838 59.07020 49.77929
# Shear Modulus (GPa) = 28.62263 41.67257 35.14760
#
# Velocity S-wave (km/s) = 3.45666 4.17088 3.83045
# Velocity P-wave (km/s) = 5.73003 6.91764 6.35165
#
# Compressibility (1/GPa) = 0.02469844
#
# Stress axis : x y z
#
# Youngs Moduli (GPa) = 71.82338 120.08298 201.38224
#
# Poissons Ratio (x) = -0.09049 -0.04034
# Poissons Ratio (y) = -0.05413 0.44563
# Poissons Ratio (z) = -0.01439 0.26572
#
# Static dielectric constant tensor:
#      x y z
#    x 2.003890 0.000000 0.000000 
#    y 0.000000 1.851080 0.000000 
#    z 0.000000 0.000000 1.912970 
# 
# From -- ./inp_files/7726.got.cif
#   From: 2010.05.17/outbox.cif.g08.bks.cpg/sg71_4_cif.got.tgz:7726.got - 2010.06.03 16:22:01.
