data_PCOD9520802
_publ_section_title
;
Structure prediction by ZEFSAII (Michael W. Deem and Ramdas Pophale) SiO2 
 PCOD9520802
Probable space group: I M M M
;
_chemical_formula_sum "Si O2"
_cell_formula_units_Z 104
_cell_length_a 33.341877
_cell_length_b 8.068891
_cell_length_c 21.031278
_cell_angle_alpha 90.000000
_cell_angle_beta 90.000000
_cell_angle_gamma 90.000000
_cell_volume 5658.086178
_symmetry_space_group_name_H-M "I M M M"
_symmetry_group_IT_number 71
_symmetry_cell_setting 'orthorhombic'
loop_
_space_group_symop_operation_xyz
x,y,z
-x,-y,z
x,-y,-z
-x,y,-z
-x,-y,-z
x,y,-z
-x,y,z
x,-y,z
1/2+x,1/2+y,1/2+z
1/2-x,1/2-y,1/2+z
1/2+x,1/2-y,1/2-z
1/2-x,1/2+y,1/2-z
1/2-x,1/2-y,1/2-z
1/2+x,1/2+y,1/2-z
1/2-x,1/2+y,1/2+z
1/2+x,1/2-y,1/2+z
loop_
_atom_site_type_symbol
_atom_site_label
_atom_site_fract_x
_atom_site_fract_y
_atom_site_fract_z
Si Si1 0.321902 0.699881 0.071018
Si Si2 0.415147 0.695787 0.630997
Si Si3 0.630057 0.803346 0.193887
Si Si4 0.455756 0.698946 0.239605
Si Si5 0.331835 0.807194 0.677614
Si Si6 0.046733 0.301523 0.000000
Si Si7 0.229061 0.702665 0.071956
O O1 0.322358 0.500000 0.071207
O O2 0.350116 0.759364 0.127253
O O3 0.275508 0.750475 0.081077
O O4 0.333922 0.755491 0.000000
O O5 0.406886 0.500000 0.638825
O O6 0.445353 0.746625 0.687573
O O7 0.373919 0.792984 0.640836
O O8 0.433349 0.730107 0.562924
O O9 0.583876 0.748177 0.200677
O O10 0.657008 0.733749 0.252923
O O11 0.629838 0.000000 0.201870
O O12 0.500000 0.763061 0.221054
O O13 0.457633 0.500000 0.237339
O O14 0.298322 0.735470 0.630112
O O15 0.320919 0.000000 0.687358
O O16 0.050961 0.500000 0.000000
O O17 0.000000 0.259075 0.000000
O O18 0.227236 0.500000 0.072016
O O19 0.216645 0.754043 0.000000
#
# Coordination Sequence:
#
# PCOD9520802 Si02
#       7
#    16  16  16  16  16   8  16
#     4   9  18  34  55  76  98 130 174 213 248 299
#     4  10  20  33  49  71  99 130 167 214 261 302
#     4  10  20  32  49  77 109 135 162 203 257 309
#     4   9  18  34  55  75  97 130 169 206 248 300
#     4   9  18  32  49  73 103 135 173 211 251 303
#     4  11  23  35  47  65  91 129 175 217 261 311
#     4   8  15  29  50  73  97 133 179 219 250 289
#
# _framework density 18.380773999999999
#
# number of rings (size 3 to 8) (size 9 to 14) (size 15 to 20)
#    0.000    2.692    0.000    2.538    1.077    3.692 
#    0.000    0.769    0.000    1.385    0.000    3.231 
#    0.000    0.000    0.000    0.000    0.000    0.000 
#
# Total GULP energy -289823.730169 kJ/mol
# GULP energy per Si atom -5573.533272 kJ/mol
# Density = 1.833894 g / cm^3
# Si number density = 18.380774 Si / 1000 Ang^3
#
#
#
# Elastic Constant Matrix: (Units=GPa)
#
#
# Indices 1 2 3 4 5 6 
#
# 1 113.9971 10.6872 98.5032 0.0000 0.0000 0.0000
# 2 10.6872 7.4930 10.9247 0.0000 0.0000 0.0000
# 3 98.5032 10.9247 138.3631 0.0000 0.0000 0.0000
# 4 0.0000 0.0000 0.0000 -15.3307 0.0000 0.0000
# 5 0.0000 0.0000 0.0000 0.0000 15.0410 0.0000
# 6 0.0000 0.0000 0.0000 0.0000 0.0000 13.4936
#
#
#
# Elastic Compliance Matrix: (Units=1/GPa)
#
#
# Indices 1 2 3 4 5 6 
#
# 1 0.023477 -0.010303 -0.015901 0.000000 0.000000 0.000000
# 2 -0.010303 0.155342 -0.004930 0.000000 0.000000 0.000000
# 3 -0.015901 -0.004930 0.018937 0.000000 0.000000 0.000000
# 4 0.000000 0.000000 0.000000 -0.065229 0.000000 0.000000
# 5 0.000000 0.000000 0.000000 0.000000 0.066485 0.000000
# 6 0.000000 0.000000 0.000000 0.000000 0.000000 0.074109
#
#
# Mechanical properties :
#
#
# Convention : Reuss Voigt Hill
#
# Bulk Modulus (GPa) = 7.38074 55.56481 31.47277
# Shear Modulus (GPa) = 13.13882 11.95665 12.54773
#
# Velocity S-wave (km/s) = 2.67650 2.55325 2.61560
# Velocity P-wave (km/s) = 3.68452 6.24401 5.12656
#
# Compressibility (1/GPa) = 0.13548785
#
# Stress axis : x y z
#
# Youngs Moduli (GPa) = 42.59399 6.43742 52.80799
#
# Poissons Ratio (x) = 0.06633 0.83968
# Poissons Ratio (y) = 0.43885 0.26036
# Poissons Ratio (z) = 0.67727 0.03174
#
# Static dielectric constant tensor:
#      x y z
#    x 1.625970 0.000000 0.000000 
#    y 0.000000 1.663130 0.000000 
#    z 0.000000 0.000000 1.636220 
# 
# From -- ./inp_files/11470.got.cif
#   From: 2010.05.17/outbox.cif.g08.bks.cpg/sg71_6_cif.got.tgz:11470.got - 2010.06.03 16:22:01.
