data_PCOD9520282
_publ_section_title
;
Structure prediction by ZEFSAII (Michael W. Deem and Ramdas Pophale) SiO2 
 PCOD9520282
Probable space group: I M M M
;
_chemical_formula_sum "Si O2"
_cell_formula_units_Z 96
_cell_length_a 13.579178
_cell_length_b 24.508492
_cell_length_c 17.310312
_cell_angle_alpha 90.000000
_cell_angle_beta 90.000000
_cell_angle_gamma 90.000000
_cell_volume 5760.961421
_symmetry_space_group_name_H-M "I M M M"
_symmetry_group_IT_number 71
_symmetry_cell_setting 'orthorhombic'
loop_
_space_group_symop_operation_xyz
x,y,z
-x,-y,z
x,-y,-z
-x,y,-z
-x,-y,-z
x,y,-z
-x,y,z
x,-y,z
1/2+x,1/2+y,1/2+z
1/2-x,1/2-y,1/2+z
1/2+x,1/2-y,1/2-z
1/2-x,1/2+y,1/2-z
1/2-x,1/2-y,1/2-z
1/2+x,1/2+y,1/2-z
1/2-x,1/2+y,1/2+z
1/2+x,1/2-y,1/2+z
loop_
_atom_site_type_symbol
_atom_site_label
_atom_site_fract_x
_atom_site_fract_y
_atom_site_fract_z
Si Si1 0.386283 0.246413 0.841598
Si Si2 0.692216 0.630073 0.849650
Si Si3 0.807949 0.795728 0.911939
Si Si4 0.118177 0.896276 0.187209
Si Si5 0.881037 0.065274 0.500000
Si Si6 0.387051 0.806664 0.671415
Si Si7 0.880312 0.000000 0.912429
O O1 0.500000 0.237004 0.861920
O O2 0.363375 0.311045 0.845737
O O3 0.306495 0.217582 0.895980
O O4 0.369949 0.222549 0.754971
O O5 0.659682 0.598615 0.772942
O O6 0.662656 0.596112 0.925014
O O7 0.806899 0.646569 0.843052
O O8 0.843534 0.841465 0.852755
O O9 0.865939 0.740416 0.891178
O O10 0.825266 0.812243 0.000000
O O11 0.000000 0.894219 0.190902
O O12 0.149392 0.946471 0.133888
O O13 0.000000 0.071344 0.500000
O O14 0.859782 0.000000 0.500000
O O15 0.500000 0.824698 0.668654
O O16 0.000000 0.000000 0.914689
O O17 0.844360 0.000000 0.000000
#
# Coordination Sequence:
#
# PCOD9520282 Si02
#       7
#    16  16  16  16   8  16   8
#     4  10  19  35  55  78 112 147 183 223 270 334
#     4  11  21  38  56  81 108 145 185 225 280 329
#     4  11  21  32  49  81 115 144 180 217 264 328
#     4  11  20  34  55  76 105 144 178 217 270 326
#     4  11  26  42  59  85 113 145 194 249 285 324
#     4  10  20  36  56  80 111 145 183 224 271 334
#     4   9  20  34  50  77 106 136 175 215 264 322
#
# _framework density 16.663885000000001
#
# number of rings (size 3 to 8) (size 9 to 14) (size 15 to 20)
#    0.000    1.500    3.333    3.500    5.833    2.333 
#    0.000    0.000    0.000    1.000    0.000    1.750 
#    0.000    4.000    0.000    0.000    0.000    0.000 
#
# Total GULP energy -267960.854289 kJ/mol
# GULP energy per Si atom -5582.517798 kJ/mol
# Density = 1.662596 g / cm^3
# Si number density = 16.663885 Si / 1000 Ang^3
#
#
#
# Elastic Constant Matrix: (Units=GPa)
#
#
# Indices 1 2 3 4 5 6 
#
# 1 104.0296 43.5410 38.2336 0.0000 0.0000 0.0000
# 2 43.5410 85.4761 52.7393 0.0001 0.0000 0.0000
# 3 38.2336 52.7393 141.4015 0.0001 0.0000 0.0000
# 4 0.0000 0.0001 0.0001 17.4623 0.0000 0.0000
# 5 0.0000 0.0000 0.0000 0.0000 17.1340 0.0000
# 6 0.0000 0.0000 0.0000 0.0000 0.0000 20.3971
#
#
#
# Elastic Compliance Matrix: (Units=1/GPa)
#
#
# Indices 1 2 3 4 5 6 
#
# 1 0.012397 -0.005516 -0.001295 0.000000 0.000000 0.000000
# 2 -0.005516 0.017651 -0.005092 0.000000 0.000000 0.000000
# 3 -0.001295 -0.005092 0.009321 0.000000 0.000000 0.000000
# 4 0.000000 0.000000 0.000000 0.057266 0.000000 0.000000
# 5 0.000000 0.000000 0.000000 0.000000 0.058363 0.000000
# 6 0.000000 0.000000 0.000000 0.000000 0.000000 0.049027
#
#
# Mechanical properties :
#
#
# Convention : Reuss Voigt Hill
#
# Bulk Modulus (GPa) = 64.25135 66.65945 65.45540
# Shear Modulus (GPa) = 21.45749 24.09157 22.77453
#
# Velocity S-wave (km/s) = 3.59230 3.80641 3.70090
# Velocity P-wave (km/s) = 7.47309 7.70763 7.59126
#
# Compressibility (1/GPa) = 0.01556387
#
# Stress axis : x y z
#
# Youngs Moduli (GPa) = 80.66281 56.65464 107.28200
#
# Poissons Ratio (x) = 0.31252 0.13889
# Poissons Ratio (y) = 0.44496 0.54625
# Poissons Ratio (z) = 0.10443 0.28847
#
# Static dielectric constant tensor:
#      x y z
#    x 1.559780 0.000000 0.000000 
#    y 0.000000 1.548420 0.000000 
#    z 0.000000 0.000000 1.568860 
# 
# From -- ./inp_files/34778.got.cif
#   From: 2010.05.17/outbox.cif.g08.bks.cpg/sg71_18_cif.got.tgz:34778.got - 2010.06.03 16:22:01.
