data_PCOD9520318
_publ_section_title
;
Structure prediction by ZEFSAII (Michael W. Deem and Ramdas Pophale) SiO2 
 PCOD9520318
Probable space group: I M M M
;
_chemical_formula_sum "Si O2"
_cell_formula_units_Z 104
_cell_length_a 11.186898
_cell_length_b 19.189173
_cell_length_c 23.767857
_cell_angle_alpha 90.000000
_cell_angle_beta 90.000000
_cell_angle_gamma 90.000000
_cell_volume 5102.182189
_symmetry_space_group_name_H-M "I M M M"
_symmetry_group_IT_number 71
_symmetry_cell_setting 'orthorhombic'
loop_
_space_group_symop_operation_xyz
x,y,z
-x,-y,z
x,-y,-z
-x,y,-z
-x,-y,-z
x,y,-z
-x,y,z
x,-y,z
1/2+x,1/2+y,1/2+z
1/2-x,1/2-y,1/2+z
1/2+x,1/2-y,1/2-z
1/2-x,1/2+y,1/2-z
1/2-x,1/2-y,1/2-z
1/2+x,1/2+y,1/2-z
1/2-x,1/2+y,1/2+z
1/2+x,1/2-y,1/2+z
loop_
_atom_site_type_symbol
_atom_site_label
_atom_site_fract_x
_atom_site_fract_y
_atom_site_fract_z
Si Si1 0.360595 0.923448 0.259925
Si Si2 0.134622 0.276211 0.283288
Si Si3 0.000000 0.344168 0.067344
Si Si4 0.367747 0.286308 0.908219
Si Si5 0.754592 0.650925 0.563501
Si Si6 0.500000 0.919065 0.068491
Si Si7 0.233227 0.581460 0.883771
Si Si8 0.000000 0.181674 0.930621
O O1 0.500000 0.923871 0.278704
O O2 0.350079 0.859625 0.217687
O O3 0.282221 0.912696 0.316030
O O4 0.334611 0.000000 0.236105
O O5 0.250000 0.250000 0.250000
O O6 0.136197 0.241541 0.344176
O O7 0.000000 0.262407 0.259166
O O8 0.885925 0.385568 0.090039
O O9 0.000000 0.263233 0.086613
O O10 0.000000 0.344215 0.000000
O O11 0.500000 0.275100 0.931188
O O12 0.277720 0.234220 0.938749
O O13 0.334787 0.367048 0.906419
O O14 0.745580 0.622823 0.500000
O O15 0.876543 0.617597 0.587519
O O16 0.622650 0.645175 0.589510
O O17 0.500000 0.000000 0.084551
O O18 0.500000 0.914237 0.000000
O O19 0.246937 0.500000 0.897329
O O20 0.000000 0.180686 0.000000
#
# Coordination Sequence:
#
# PCOD9520318 Si02
#       8
#    16  16   8  16  16   8  16   8
#     4   9  17  32  54  78 104 137 180 223 271 336
#     4  10  20  35  55  79 108 137 179 233 281 329
#     4  11  21  34  53  82 115 145 191 243 283 330
#     4  11  22  35  54  80 108 140 193 235 277 339
#     4  10  19  35  57  81 114 147 182 227 273 328
#     4   9  18  34  58  83 107 145 185 215 264 332
#     4  11  21  33  52  76 108 148 185 228 284 337
#     4   9  18  31  53  83 108 142 189 231 273 316
#
# _framework density 20.383434999999999
#
# number of rings (size 3 to 8) (size 9 to 14) (size 15 to 20)
#    0.000    1.923    4.615    0.231    0.000    0.923 
#    1.385    1.154    0.000    2.769    0.000    2.154 
#    0.000    0.000    0.000    0.000    0.000    0.000 
#
# Total GULP energy -289928.663584 kJ/mol
# GULP energy per Si atom -5575.551223 kJ/mol
# Density = 2.033704 g / cm^3
# Si number density = 20.383435 Si / 1000 Ang^3
#
#
#
# Elastic Constant Matrix: (Units=GPa)
#
#
# Indices 1 2 3 4 5 6 
#
# 1 142.9980 46.6357 17.3768 0.0000 0.0000 0.0000
# 2 46.6357 111.4551 10.1390 0.0000 0.0000 0.0000
# 3 17.3768 10.1390 38.6399 0.0000 0.0000 0.0000
# 4 0.0000 0.0000 0.0000 20.6798 0.0000 0.0000
# 5 0.0000 0.0000 0.0000 0.0000 7.6977 0.0000
# 6 0.0000 0.0000 0.0000 0.0000 0.0000 27.6620
#
#
#
# Elastic Compliance Matrix: (Units=1/GPa)
#
#
# Indices 1 2 3 4 5 6 
#
# 1 0.008410 -0.003252 -0.002929 0.000000 0.000000 0.000000
# 2 -0.003252 0.010449 -0.001279 0.000000 0.000000 0.000000
# 3 -0.002929 -0.001279 0.027533 0.000000 0.000000 0.000000
# 4 0.000000 0.000000 0.000000 0.048356 0.000000 0.000000
# 5 0.000000 0.000000 0.000000 0.000000 0.129909 0.000000
# 6 0.000000 0.000000 0.000000 0.000000 0.000000 0.036151
#
#
# Mechanical properties :
#
#
# Convention : Reuss Voigt Hill
#
# Bulk Modulus (GPa) = 31.77486 49.04400 40.40943
# Shear Modulus (GPa) = 17.46913 25.80399 21.63656
#
# Velocity S-wave (km/s) = 2.93068 3.56185 3.26157
# Velocity P-wave (km/s) = 5.20329 6.40536 5.83536
#
# Compressibility (1/GPa) = 0.03147142
#
# Stress axis : x y z
#
# Youngs Moduli (GPa) = 118.91061 95.69839 36.32056
#
# Poissons Ratio (x) = 0.31125 0.10636
# Poissons Ratio (y) = 0.38675 0.04646
# Poissons Ratio (z) = 0.34823 0.12242
#
# Static dielectric constant tensor:
#      x y z
#    x 1.771680 0.000000 0.000000 
#    y 0.000000 1.713970 0.000000 
#    z 0.000000 0.000000 1.736480 
# 
# From -- ./inp_files/64705.got.cif
#   From: 2010.05.17/outbox.cif.g08.bks.cpg/sg71_33_cif.got.tgz:64705.got - 2010.06.03 16:22:01.
