data_PCOD9520253
_publ_section_title
;
Structure prediction by ZEFSAII (Michael W. Deem and Ramdas Pophale) SiO2 
 PCOD9520253
Probable space group: I M M M
;
_chemical_formula_sum "Si O2"
_cell_formula_units_Z 88
_cell_length_a 17.822591
_cell_length_b 15.507071
_cell_length_c 15.328635
_cell_angle_alpha 90.000000
_cell_angle_beta 90.000000
_cell_angle_gamma 90.000000
_cell_volume 4236.469648
_symmetry_space_group_name_H-M "I M M M"
_symmetry_group_IT_number 71
_symmetry_cell_setting 'orthorhombic'
loop_
_space_group_symop_operation_xyz
x,y,z
-x,-y,z
x,-y,-z
-x,y,-z
-x,-y,-z
x,y,-z
-x,y,z
x,-y,z
1/2+x,1/2+y,1/2+z
1/2-x,1/2-y,1/2+z
1/2+x,1/2-y,1/2-z
1/2-x,1/2+y,1/2-z
1/2-x,1/2-y,1/2-z
1/2+x,1/2+y,1/2-z
1/2-x,1/2+y,1/2+z
1/2+x,1/2-y,1/2+z
loop_
_atom_site_type_symbol
_atom_site_label
_atom_site_fract_x
_atom_site_fract_y
_atom_site_fract_z
Si Si1 0.500000 0.399212 0.392840
Si Si2 0.859249 0.787298 0.103551
Si Si3 0.814102 0.594274 0.845943
Si Si4 0.838674 0.167797 0.396466
Si Si5 0.000000 0.904765 0.394399
Si Si6 0.197257 0.653561 0.654957
Si Si7 0.414393 0.102295 0.000000
O O1 0.500000 0.500000 0.366493
O O2 0.500000 0.399954 0.500000
O O3 0.571962 0.344308 0.362055
O O4 0.853466 0.685870 0.130175
O O5 0.782462 0.839576 0.121999
O O6 0.867324 0.783560 0.000000
O O7 0.845745 0.500000 0.872153
O O8 0.729791 0.602237 0.884389
O O9 0.808994 0.598854 0.741529
O O10 0.837479 0.193866 0.500000
O O11 0.820455 0.245586 0.331341
O O12 0.921339 0.137930 0.373356
O O13 0.000000 0.909500 0.500000
O O14 0.000000 0.000000 0.357267
O O15 0.135772 0.626200 0.583680
O O16 0.500000 0.140048 0.000000
O O17 0.422111 0.000000 0.000000
#
# Coordination Sequence:
#
# PCOD9520253 Si02
#       7
#     8  16  16  16   8  16   8
#     4   9  20  38  64  97 122 149 196 260 316 367
#     4  10  20  40  65  92 123 162 207 252 310 376
#     4  11  23  38  58  86 125 168 210 258 310 369
#     4  10  19  34  60  88 120 166 211 257 314 371
#     4   9  18  30  51  88 125 156 199 253 303 360
#     4  11  21  40  60  87 120 157 206 255 310 368
#     4  11  24  40  62  89 117 153 204 256 306 374
#
# _framework density 20.772013000000001
#
# number of rings (size 3 to 8) (size 9 to 14) (size 15 to 20)
#    0.000    1.727    1.818    4.909    1.273    3.636 
#    1.636    3.182    0.000    6.000    0.000    0.000 
#    0.000    0.000    0.000    0.000    0.000    0.000 
#
# Total GULP energy -245360.241337 kJ/mol
# GULP energy per Si atom -5576.369121 kJ/mol
# Density = 2.072473 g / cm^3
# Si number density = 20.772013 Si / 1000 Ang^3
#
#
#
# Elastic Constant Matrix: (Units=GPa)
#
#
# Indices 1 2 3 4 5 6 
#
# 1 168.1821 69.9014 24.3892 0.0000 0.0000 0.0000
# 2 69.9014 109.8537 14.3277 0.0000 0.0000 0.0000
# 3 24.3892 14.3277 64.3094 0.0000 0.0000 0.0000
# 4 0.0000 0.0000 0.0000 4.1639 0.0000 0.0000
# 5 0.0000 0.0000 0.0000 0.0000 4.7740 0.0000
# 6 0.0000 0.0000 0.0000 0.0000 0.0000 -40.6022
#
#
#
# Elastic Compliance Matrix: (Units=1/GPa)
#
#
# Indices 1 2 3 4 5 6 
#
# 1 0.008336 -0.005038 -0.002039 0.000000 0.000000 0.000000
# 2 -0.005038 0.012421 -0.000857 0.000000 0.000000 0.000000
# 3 -0.002039 -0.000857 0.016514 0.000000 0.000000 0.000000
# 4 0.000000 0.000000 0.000000 0.240160 0.000000 0.000000
# 5 0.000000 0.000000 0.000000 0.000000 0.209469 0.000000
# 6 0.000000 0.000000 0.000000 0.000000 0.000000 -0.024629
#
#
# Mechanical properties :
#
#
# Convention : Reuss Voigt Hill
#
# Bulk Modulus (GPa) = 46.72216 62.17577 54.44897
# Shear Modulus (GPa) = 10.30351 9.24892 9.77622
#
# Velocity S-wave (km/s) = 2.22959 2.11240 2.17179
# Velocity P-wave (km/s) = 5.40090 5.99559 5.70600
#
# Compressibility (1/GPa) = 0.02140312
#
# Stress axis : x y z
#
# Youngs Moduli (GPa) = 119.96757 80.51172 60.55516
#
# Poissons Ratio (x) = 0.40563 0.12346
# Poissons Ratio (y) = 0.60441 0.05187
# Poissons Ratio (z) = 0.24459 0.06896
#
# Static dielectric constant tensor:
#      x y z
#    x 1.557800 0.000000 0.000000 
#    y 0.000000 1.809850 0.000000 
#    z 0.000000 0.000000 1.769670 
# 
# From -- ./inp_files/45912.got.cif
#   From: 2010.05.17/outbox.cif.g08.bks.cpg/sg71_23_cif.got.tgz:45912.got - 2010.06.03 16:22:01.
