data_PCOD9520705
_publ_section_title
;
Structure prediction by ZEFSAII (Michael W. Deem and Ramdas Pophale) SiO2 
 PCOD9520705
Probable space group: I M M M
;
_chemical_formula_sum "Si O2"
_cell_formula_units_Z 64
_cell_length_a 24.828565
_cell_length_b 8.992326
_cell_length_c 13.167300
_cell_angle_alpha 90.000000
_cell_angle_beta 90.000000
_cell_angle_gamma 90.000000
_cell_volume 2939.817652
_symmetry_space_group_name_H-M "I M M M"
_symmetry_group_IT_number 71
_symmetry_cell_setting 'orthorhombic'
loop_
_space_group_symop_operation_xyz
x,y,z
-x,-y,z
x,-y,-z
-x,y,-z
-x,-y,-z
x,y,-z
-x,y,z
x,-y,z
1/2+x,1/2+y,1/2+z
1/2-x,1/2-y,1/2+z
1/2+x,1/2-y,1/2-z
1/2-x,1/2+y,1/2-z
1/2-x,1/2-y,1/2-z
1/2+x,1/2+y,1/2-z
1/2-x,1/2+y,1/2+z
1/2+x,1/2-y,1/2+z
loop_
_atom_site_type_symbol
_atom_site_label
_atom_site_fract_x
_atom_site_fract_y
_atom_site_fract_z
Si Si1 0.561356 0.675624 0.322844
Si Si2 0.564202 0.167834 0.886940
Si Si3 0.219757 0.676642 0.612126
Si Si4 0.169765 0.676893 0.826130
O O1 0.500000 0.725293 0.351266
O O2 0.564015 0.500000 0.340331
O O3 0.569151 0.716165 0.203877
O O4 0.614077 0.755165 0.367595
O O5 0.500000 0.150423 0.893669
O O6 0.585915 0.000000 0.862703
O O7 0.582223 0.210335 0.000000
O O8 0.198044 0.707773 0.500000
O O9 0.229739 0.500000 0.620119
O O10 0.181254 0.715421 0.706483
O O11 0.276657 0.758931 0.622789
O O12 0.167933 0.500000 0.836515
#
# Coordination Sequence:
#
# PCOD9520705 Si02
#       4
#    16  16  16  16
#     4  10  20  32  47  70 103 143 182 219 263 315
#     4   8  14  25  40  58  84 122 167 211 254 302
#     4   9  19  37  59  81 107 140 177 220 272 326
#     4  10  20  34  55  83 111 140 179 224 269 320
#
# _framework density 21.770057000000001
#
# number of rings (size 3 to 8) (size 9 to 14) (size 15 to 20)
#    0.000    2.750    0.000    2.250    0.000    4.500 
#    0.000    5.000    0.000    0.750    0.000    5.250 
#    0.000    0.000    0.000    0.000    0.000    0.000 
#
# Total GULP energy -178406.059153 kJ/mol
# GULP energy per Si atom -5575.189349 kJ/mol
# Density = 2.172051 g / cm^3
# Si number density = 21.770057 Si / 1000 Ang^3
#
#
#
# Elastic Constant Matrix: (Units=GPa)
#
#
# Indices 1 2 3 4 5 6 
#
# 1 206.2288 59.8499 6.0920 0.0000 0.0000 0.0000
# 2 59.8499 34.3450 10.2005 0.0000 0.0000 0.0000
# 3 6.0920 10.2005 40.9934 0.0000 0.0000 0.0000
# 4 0.0000 0.0000 0.0000 16.3250 0.0000 0.0000
# 5 0.0000 0.0000 0.0000 0.0000 -8.1691 0.0000
# 6 0.0000 0.0000 0.0000 0.0000 0.0000 32.4437
#
#
#
# Elastic Compliance Matrix: (Units=1/GPa)
#
#
# Indices 1 2 3 4 5 6 
#
# 1 0.010169 -0.018650 0.003130 0.000000 0.000000 0.000000
# 2 -0.018650 0.065644 -0.013563 0.000000 0.000000 0.000000
# 3 0.003130 -0.013563 0.027304 0.000000 0.000000 0.000000
# 4 0.000000 0.000000 0.000000 0.061256 0.000000 0.000000
# 5 0.000000 0.000000 0.000000 0.000000 -0.122413 0.000000
# 6 0.000000 0.000000 0.000000 0.000000 0.000000 0.030823
#
#
# Mechanical properties :
#
#
# Convention : Reuss Voigt Hill
#
# Bulk Modulus (GPa) = 22.24672 48.20577 35.22624
# Shear Modulus (GPa) = 34.26224 21.81490 28.03857
#
# Velocity S-wave (km/s) = 3.97145 3.16897 3.59268
# Velocity P-wave (km/s) = 5.59205 5.96498 5.78152
#
# Compressibility (1/GPa) = 0.04495046
#
# Stress axis : x y z
#
# Youngs Moduli (GPa) = 98.33814 15.23363 36.62474
#
# Poissons Ratio (x) = 0.28411 -0.11462
# Poissons Ratio (y) = 1.83401 0.49674
# Poissons Ratio (z) = -0.30775 0.20661
#
# Static dielectric constant tensor:
#      x y z
#    x 1.849550 0.000000 0.000000 
#    y 0.000000 1.740350 0.000000 
#    z 0.000000 0.000000 1.839060 
# 
# From -- ./inp_files/5453.got.cif
#   From: 2010.05.17/outbox.cif.g08.bks.cpg/sg71_3_cif.got.tgz:5453.got - 2010.06.03 16:22:01.
