data_PCOD9520978
_publ_section_title
;
Structure prediction by ZEFSAII (Michael W. Deem and Ramdas Pophale) SiO2 
 PCOD9520978
Probable space group: I M M M
;
_chemical_formula_sum "Si O2"
_cell_formula_units_Z 104
_cell_length_a 20.661128
_cell_length_b 29.197034
_cell_length_c 8.794994
_cell_angle_alpha 90.000000
_cell_angle_beta 90.000000
_cell_angle_gamma 90.000000
_cell_volume 5305.524341
_symmetry_space_group_name_H-M "I M M M"
_symmetry_group_IT_number 71
_symmetry_cell_setting 'orthorhombic'
loop_
_space_group_symop_operation_xyz
x,y,z
-x,-y,z
x,-y,-z
-x,y,-z
-x,-y,-z
x,y,-z
-x,y,z
x,-y,z
1/2+x,1/2+y,1/2+z
1/2-x,1/2-y,1/2+z
1/2+x,1/2-y,1/2-z
1/2-x,1/2+y,1/2-z
1/2-x,1/2-y,1/2-z
1/2+x,1/2+y,1/2-z
1/2-x,1/2+y,1/2+z
1/2+x,1/2-y,1/2+z
loop_
_atom_site_type_symbol
_atom_site_label
_atom_site_fract_x
_atom_site_fract_y
_atom_site_fract_z
Si Si1 0.070673 0.925005 0.820177
Si Si2 0.324042 0.277881 0.326066
Si Si3 0.577835 0.000000 0.183099
Si Si4 0.158063 0.413410 0.820996
Si Si5 0.216722 0.052511 0.170357
Si Si6 0.927050 0.171104 0.332141
Si Si7 0.810623 0.681190 0.680451
O O1 0.140404 0.947692 0.793834
O O2 0.070842 0.882109 0.708291
O O3 0.000000 0.948265 0.799230
O O4 0.071801 0.911920 0.000000
O O5 0.310843 0.264872 0.500000
O O6 0.388262 0.306004 0.302285
O O7 0.265658 0.311943 0.277484
O O8 0.333104 0.231856 0.229417
O O9 0.613979 0.046230 0.245446
O O10 0.500000 0.000000 0.220409
O O11 0.583690 0.000000 0.000000
O O12 0.233512 0.424111 0.783541
O O13 0.152781 0.361338 0.757949
O O14 0.146120 0.414416 0.000000
O O15 0.237653 0.000000 0.163170
O O16 0.224750 0.073030 0.000000
O O17 0.897789 0.178723 0.500000
O O18 0.000000 0.188516 0.334978
O O19 0.815480 0.675042 0.500000
#
# Coordination Sequence:
#
# PCOD9520978 Si02
#       7
#    16  16   8  16  16  16  16
#     4   9  18  32  50  75 108 150 201 249 289 329
#     4  10  20  35  56  85 116 150 193 240 288 338
#     4  11  25  47  73  95 118 151 192 243 307 376
#     4  12  24  39  62  92 122 153 192 240 292 354
#     4  10  20  34  54  79 111 151 193 239 287 338
#     4  10  20  33  50  73 104 145 188 229 277 332
#     4  10  21  37  59  85 118 154 188 232 288 348
#
# _framework density 19.602208999999998
#
# number of rings (size 3 to 8) (size 9 to 14) (size 15 to 20)
#    0.000    1.769    0.769    3.923    0.000    8.000 
#    0.000    2.308    0.000    4.615    0.000    3.231 
#    0.000    0.000    0.000    0.000    0.000    0.000 
#
# Total GULP energy -289584.672947 kJ/mol
# GULP energy per Si atom -5568.936018 kJ/mol
# Density = 1.955759 g / cm^3
# Si number density = 19.602209 Si / 1000 Ang^3
#
#
#
# Elastic Constant Matrix: (Units=GPa)
#
#
# Indices 1 2 3 4 5 6 
#
# 1 61.7895 41.2540 25.6346 0.0000 0.0000 0.0000
# 2 41.2540 97.1656 47.4617 0.0000 0.0000 0.0000
# 3 25.6346 47.4617 69.7926 0.0000 0.0000 0.0000
# 4 0.0000 0.0000 0.0000 24.7121 0.0000 0.0000
# 5 0.0000 0.0000 0.0000 0.0000 21.9752 0.0000
# 6 0.0000 0.0000 0.0000 0.0000 0.0000 22.6739
#
#
#
# Elastic Compliance Matrix: (Units=1/GPa)
#
#
# Indices 1 2 3 4 5 6 
#
# 1 0.022921 -0.008414 -0.002697 0.000000 0.000000 0.000000
# 2 -0.008414 0.018500 -0.009490 0.000000 0.000000 0.000000
# 3 -0.002697 -0.009490 0.021772 0.000000 0.000000 0.000000
# 4 0.000000 0.000000 0.000000 0.040466 0.000000 0.000000
# 5 0.000000 0.000000 0.000000 0.000000 0.045506 0.000000
# 6 0.000000 0.000000 0.000000 0.000000 0.000000 0.044104
#
#
# Mechanical properties :
#
#
# Convention : Reuss Voigt Hill
#
# Bulk Modulus (GPa) = 45.47377 50.82758 48.15067
# Shear Modulus (GPa) = 20.67826 21.49873 21.08849
#
# Velocity S-wave (km/s) = 3.25144 3.31531 3.28353
# Velocity P-wave (km/s) = 6.11101 6.37502 6.24441
#
# Compressibility (1/GPa) = 0.02199070
#
# Stress axis : x y z
#
# Youngs Moduli (GPa) = 43.62903 54.05492 45.93016
#
# Poissons Ratio (x) = 0.45483 0.12385
# Poissons Ratio (y) = 0.36711 0.43588
# Poissons Ratio (z) = 0.11765 0.51298
#
# Static dielectric constant tensor:
#      x y z
#    x 1.716900 0.000000 0.000000 
#    y 0.000000 1.688290 0.000000 
#    z 0.000000 0.000000 1.692020 
# 
# From -- ./inp_files/11107.got.cif
#   From: 2010.05.17/outbox.cif.g08.bks.cpg/sg71_6_cif.got.tgz:11107.got - 2010.06.03 16:22:01.
