data_PCOD9520411
_publ_section_title
;
Structure prediction by ZEFSAII (Michael W. Deem and Ramdas Pophale) SiO2 
 PCOD9520411
Probable space group: I M M M
;
_chemical_formula_sum "Si O2"
_cell_formula_units_Z 104
_cell_length_a 19.481281
_cell_length_b 20.741345
_cell_length_c 14.580865
_cell_angle_alpha 90.000000
_cell_angle_beta 90.000000
_cell_angle_gamma 90.000000
_cell_volume 5891.660525
_symmetry_space_group_name_H-M "I M M M"
_symmetry_group_IT_number 71
_symmetry_cell_setting 'orthorhombic'
loop_
_space_group_symop_operation_xyz
x,y,z
-x,-y,z
x,-y,-z
-x,y,-z
-x,-y,-z
x,y,-z
-x,y,z
x,-y,z
1/2+x,1/2+y,1/2+z
1/2-x,1/2-y,1/2+z
1/2+x,1/2-y,1/2-z
1/2-x,1/2+y,1/2-z
1/2-x,1/2-y,1/2-z
1/2+x,1/2+y,1/2-z
1/2-x,1/2+y,1/2+z
1/2+x,1/2-y,1/2+z
loop_
_atom_site_type_symbol
_atom_site_label
_atom_site_fract_x
_atom_site_fract_y
_atom_site_fract_z
Si Si1 0.921916 0.742388 0.218491
Si Si2 0.718076 0.574480 0.194325
Si Si3 0.418832 0.500000 0.599238
Si Si4 0.657357 0.789852 0.105094
Si Si5 0.422081 0.607115 0.746144
Si Si6 0.277178 0.926248 0.102532
Si Si7 0.712266 0.801277 0.609387
O O1 0.901451 0.726536 0.323077
O O2 0.919484 0.819653 0.213677
O O3 0.860127 0.715020 0.156906
O O4 0.000000 0.721354 0.196442
O O5 0.731019 0.500000 0.167865
O O6 0.637862 0.591906 0.182241
O O7 0.734388 0.579781 0.303553
O O8 0.761917 0.628926 0.143587
O O9 0.500000 0.500000 0.587687
O O10 0.385575 0.500000 0.500000
O O11 0.405387 0.561929 0.659987
O O12 0.671015 0.866401 0.108226
O O13 0.727685 0.751354 0.132243
O O14 0.641935 0.771439 0.000000
O O15 0.500000 0.592773 0.777193
O O16 0.304541 0.000000 0.104132
O O17 0.244639 0.918184 0.000000
O O18 0.704571 0.800269 0.500000
#
# Coordination Sequence:
#
# PCOD9520411 Si02
#       7
#    16  16   8  16  16  16  16
#     4  11  22  37  60  86 118 154 191 238 291 352
#     4  11  20  34  59  82 110 152 195 245 294 346
#     4   9  18  32  48  74 117 159 192 227 277 347
#     4  10  19  35  61  85 113 151 186 233 292 345
#     4  10  20  33  52  81 116 155 189 229 285 353
#     4   9  18  31  52  84 113 139 179 232 287 346
#     4  11  23  39  59  82 113 151 198 249 291 338
#
# _framework density 17.652069000000001
#
# number of rings (size 3 to 8) (size 9 to 14) (size 15 to 20)
#    0.000    1.769    3.846    1.385    0.000    2.154 
#    0.000    1.538    0.000    2.308    0.000    4.308 
#    0.000    0.000    0.000    0.000    0.000    0.000 
#
# Total GULP energy -289697.137426 kJ/mol
# GULP energy per Si atom -5571.098797 kJ/mol
# Density = 1.761189 g / cm^3
# Si number density = 17.652069 Si / 1000 Ang^3
#
#
#
# Elastic Constant Matrix: (Units=GPa)
#
#
# Indices 1 2 3 4 5 6 
#
# 1 83.2859 48.2977 29.7772 0.0000 0.0000 0.0000
# 2 48.2977 104.9341 28.2736 0.0000 0.0000 0.0000
# 3 29.7772 28.2736 56.9236 0.0000 0.0000 0.0000
# 4 0.0000 0.0000 0.0000 -44.0732 0.0000 0.0000
# 5 0.0000 0.0000 0.0000 0.0000 13.3365 0.0000
# 6 0.0000 0.0000 0.0000 0.0000 0.0000 27.1688
#
#
#
# Elastic Compliance Matrix: (Units=1/GPa)
#
#
# Indices 1 2 3 4 5 6 
#
# 1 0.018065 -0.006660 -0.006142 0.000000 0.000000 0.000000
# 2 -0.006660 0.013457 -0.003200 0.000000 0.000000 0.000000
# 3 -0.006142 -0.003200 0.022370 0.000000 0.000000 0.000000
# 4 0.000000 0.000000 0.000000 -0.022690 0.000000 0.000000
# 5 0.000000 0.000000 0.000000 0.000000 0.074982 0.000000
# 6 0.000000 0.000000 0.000000 0.000000 0.000000 0.036807
#
#
# Mechanical properties :
#
#
# Convention : Reuss Voigt Hill
#
# Bulk Modulus (GPa) = 45.68750 50.87118 48.27934
# Shear Modulus (GPa) = 27.42852 8.53942 17.98397
#
# Velocity S-wave (km/s) = 3.94616 2.20185 3.19533
# Velocity P-wave (km/s) = 6.83383 5.94521 6.40495
#
# Compressibility (1/GPa) = 0.02188782
#
# Stress axis : x y z
#
# Youngs Moduli (GPa) = 55.35638 74.30872 44.70272
#
# Poissons Ratio (x) = 0.49487 0.27456
# Poissons Ratio (y) = 0.36866 0.14307
# Poissons Ratio (z) = 0.34000 0.23782
#
# Static dielectric constant tensor:
#      x y z
#    x 1.613880 0.000000 0.000000 
#    y 0.000000 1.606430 0.000000 
#    z 0.000000 0.000000 1.621070 
# 
# From -- ./inp_files/36688.got.cif
#   From: 2010.05.17/outbox.cif.g08.bks.cpg/sg71_19_cif.got.tgz:36688.got - 2010.06.03 16:22:01.
