data_PCOD9520183
_publ_section_title
;
Structure prediction by ZEFSAII (Michael W. Deem and Ramdas Pophale) SiO2 
 PCOD9520183
Probable space group: I M M M
;
_chemical_formula_sum "Si O2"
_cell_formula_units_Z 80
_cell_length_a 21.057101
_cell_length_b 23.850385
_cell_length_c 8.018793
_cell_angle_alpha 90.000000
_cell_angle_beta 90.000000
_cell_angle_gamma 90.000000
_cell_volume 4027.197946
_symmetry_space_group_name_H-M "I M M M"
_symmetry_group_IT_number 71
_symmetry_cell_setting 'orthorhombic'
loop_
_space_group_symop_operation_xyz
x,y,z
-x,-y,z
x,-y,-z
-x,y,-z
-x,-y,-z
x,y,-z
-x,y,z
x,-y,z
1/2+x,1/2+y,1/2+z
1/2-x,1/2-y,1/2+z
1/2+x,1/2-y,1/2-z
1/2-x,1/2+y,1/2-z
1/2-x,1/2-y,1/2-z
1/2+x,1/2+y,1/2-z
1/2-x,1/2+y,1/2+z
1/2+x,1/2-y,1/2+z
loop_
_atom_site_type_symbol
_atom_site_label
_atom_site_fract_x
_atom_site_fract_y
_atom_site_fract_z
Si Si1 0.500000 0.565667 0.295661
Si Si2 0.252659 0.436195 0.704023
Si Si3 0.872655 0.371896 0.298669
Si Si4 0.000000 0.435814 0.198366
Si Si5 0.824524 0.252005 0.699153
Si Si6 0.374724 0.367276 0.700904
O O1 0.500000 0.500000 0.244007
O O2 0.500000 0.564838 0.500000
O O3 0.437772 0.600371 0.240938
O O4 0.253034 0.435393 0.500000
O O5 0.258580 0.500000 0.757647
O O6 0.186660 0.409395 0.758683
O O7 0.312330 0.400064 0.761123
O O8 0.871269 0.370301 0.500000
O O9 0.858434 0.308795 0.238174
O O10 0.937903 0.401065 0.249524
O O11 0.000000 0.500000 0.266604
O O12 0.000000 0.439986 0.000000
O O13 0.824562 0.253815 0.500000
O O14 0.750000 0.250000 0.750000
O O15 0.863420 0.197247 0.753546
O O16 0.375732 0.370373 0.500000
#
# Coordination Sequence:
#
# PCOD9520183 Si02
#       6
#     8  16  16   8  16  16
#     4   9  18  33  57  88 120 155 196 241 282 331
#     4   9  16  29  53  82 110 145 194 242 278 326
#     4  10  21  38  60  84 111 153 201 237 278 341
#     4  11  25  42  59  86 122 153 184 235 300 351
#     4  11  22  38  60  87 117 150 193 242 290 341
#     4  10  19  34  56  86 120 153 192 237 289 340
#
# _framework density 19.864929
#
# number of rings (size 3 to 8) (size 9 to 14) (size 15 to 20)
#    0.000    2.000    2.000    2.100    0.000    6.400 
#    0.000    2.500    0.000    3.000    0.000    0.000 
#    0.000    0.000    0.000    0.000    0.000    0.000 
#
# Total GULP energy -223327.619099 kJ/mol
# GULP energy per Si atom -5583.190477 kJ/mol
# Density = 1.981972 g / cm^3
# Si number density = 19.864929 Si / 1000 Ang^3
#
#
#
# Elastic Constant Matrix: (Units=GPa)
#
#
# Indices 1 2 3 4 5 6 
#
# 1 160.3341 75.6695 14.6605 0.0000 0.0000 0.0000
# 2 75.6695 175.4284 12.0233 0.0000 0.0000 0.0000
# 3 14.6605 12.0233 15.6185 0.0000 0.0000 0.0000
# 4 0.0000 0.0000 0.0000 25.8306 0.0000 0.0000
# 5 0.0000 0.0000 0.0000 0.0000 -5.9442 0.0000
# 6 0.0000 0.0000 0.0000 0.0000 0.0000 22.4562
#
#
#
# Elastic Compliance Matrix: (Units=1/GPa)
#
#
# Indices 1 2 3 4 5 6 
#
# 1 0.008222 -0.003186 -0.005265 0.000000 0.000000 0.000000
# 2 -0.003186 0.007252 -0.002593 0.000000 0.000000 0.000000
# 3 -0.005265 -0.002593 0.070965 0.000000 0.000000 0.000000
# 4 0.000000 0.000000 0.000000 0.038714 0.000000 0.000000
# 5 0.000000 0.000000 0.000000 0.000000 -0.168230 0.000000
# 6 0.000000 0.000000 0.000000 0.000000 0.000000 0.044531
#
#
# Mechanical properties :
#
#
# Convention : Reuss Voigt Hill
#
# Bulk Modulus (GPa) = 15.53953 61.78753 38.66353
# Shear Modulus (GPa) = 111.13360 25.07035 68.10198
#
# Velocity S-wave (km/s) = 7.48773 3.55638 5.86148
# Velocity P-wave (km/s) = 9.08814 6.93074 8.08175
#
# Compressibility (1/GPa) = 0.06435200
#
# Stress axis : x y z
#
# Youngs Moduli (GPa) = 121.62736 137.89153 14.09147
#
# Poissons Ratio (x) = 0.43926 0.07420
# Poissons Ratio (y) = 0.38745 0.03653
# Poissons Ratio (z) = 0.64040 0.35750
#
# Static dielectric constant tensor:
#      x y z
#    x 1.667910 0.000000 0.000000 
#    y 0.000000 1.720540 0.000000 
#    z 0.000000 0.000000 1.718120 
# 
# From -- ./inp_files/10294.got.cif
#   From: 2010.05.17/outbox.cif.g08.bks.cpg/sg71_6_cif.got.tgz:10294.got - 2010.06.03 16:22:01.
