data_PCOD9520037
_publ_section_title
;
Structure prediction by ZEFSAII (Michael W. Deem and Ramdas Pophale) SiO2 
 PCOD9520037
Probable space group: I M M M
;
_chemical_formula_sum "Si O2"
_cell_formula_units_Z 80
_cell_length_a 22.923345
_cell_length_b 19.692752
_cell_length_c 8.299225
_cell_angle_alpha 90.000000
_cell_angle_beta 90.000000
_cell_angle_gamma 90.000000
_cell_volume 3746.467256
_symmetry_space_group_name_H-M "I M M M"
_symmetry_group_IT_number 71
_symmetry_cell_setting 'orthorhombic'
loop_
_space_group_symop_operation_xyz
x,y,z
-x,-y,z
x,-y,-z
-x,y,-z
-x,-y,-z
x,y,-z
-x,y,z
x,-y,z
1/2+x,1/2+y,1/2+z
1/2-x,1/2-y,1/2+z
1/2+x,1/2-y,1/2-z
1/2-x,1/2+y,1/2-z
1/2-x,1/2-y,1/2-z
1/2+x,1/2+y,1/2-z
1/2-x,1/2+y,1/2+z
1/2+x,1/2-y,1/2+z
loop_
_atom_site_type_symbol
_atom_site_label
_atom_site_fract_x
_atom_site_fract_y
_atom_site_fract_z
Si Si1 0.266837 0.647240 0.312315
Si Si2 0.930308 0.073742 0.306945
Si Si3 0.876538 0.787493 0.688671
Si Si4 0.735250 0.500000 0.812899
Si Si5 0.377676 0.000000 0.313764
Si Si6 0.634506 0.145361 0.307648
O O1 0.275252 0.660879 0.500000
O O2 0.307745 0.697617 0.212588
O O3 0.284105 0.569694 0.268741
O O4 0.198994 0.651061 0.267539
O O5 0.917802 0.074005 0.500000
O O6 0.905167 0.144003 0.241061
O O7 0.000000 0.075445 0.289321
O O8 0.909975 0.000000 0.244007
O O9 0.889834 0.782337 0.500000
O O10 0.895020 0.716889 0.768438
O O11 0.806484 0.500000 0.809879
O O12 0.717760 0.500000 0.000000
O O13 0.393552 0.925616 0.246004
O O14 0.397293 0.000000 0.500000
O O15 0.641242 0.138650 0.500000
#
# Coordination Sequence:
#
# PCOD9520037 Si02
#       6
#    16  16  16   8   8  16
#     4  11  21  32  46  69 102 138 175 215 253 299
#     4   8  16  33  55  77 100 130 172 218 261 310
#     4  11  21  31  49  76 102 130 167 212 264 315
#     4   9  17  31  47  65  92 131 174 209 249 296
#     4   7  14  29  49  65  84 123 166 200 237 284
#     4  10  19  34  51  70  99 135 174 214 255 304
#
# _framework density 21.353449000000001
#
# number of rings (size 3 to 8) (size 9 to 14) (size 15 to 20)
#    0.000    2.400    0.000    5.700    1.400    0.000 
#    0.000    1.500    0.000    2.400    0.000    6.300 
#    0.000    5.600    0.000    0.000    0.000    0.000 
#
# Total GULP energy -223164.799253 kJ/mol
# GULP energy per Si atom -5579.119981 kJ/mol
# Density = 2.130485 g / cm^3
# Si number density = 21.353449 Si / 1000 Ang^3
#
#
#
# Elastic Constant Matrix: (Units=GPa)
#
#
# Indices 1 2 3 4 5 6 
#
# 1 9.8262 20.1836 -3.1519 0.0000 0.0000 0.0000
# 2 20.1836 233.0059 14.2862 0.0000 0.0000 0.0000
# 3 -3.1519 14.2862 32.2881 0.0000 0.0000 0.0000
# 4 0.0000 0.0000 0.0000 33.3365 0.0000 0.0000
# 5 0.0000 0.0000 0.0000 0.0000 3.6126 0.0000
# 6 0.0000 0.0000 0.0000 0.0000 0.0000 19.4791
#
#
#
# Elastic Compliance Matrix: (Units=1/GPa)
#
#
# Indices 1 2 3 4 5 6 
#
# 1 0.133968 -0.012752 0.018720 0.000000 0.000000 0.000000
# 2 -0.012752 0.005625 -0.003734 0.000000 0.000000 0.000000
# 3 0.018720 -0.003734 0.034451 0.000000 0.000000 0.000000
# 4 0.000000 0.000000 0.000000 0.029997 0.000000 0.000000
# 5 0.000000 0.000000 0.000000 0.000000 0.276811 0.000000
# 6 0.000000 0.000000 0.000000 0.000000 0.000000 0.051337
#
#
# Mechanical properties :
#
#
# Convention : Reuss Voigt Hill
#
# Bulk Modulus (GPa) = 5.60187 37.52844 21.56515
# Shear Modulus (GPa) = 8.51462 27.53912 18.02687
#
# Velocity S-wave (km/s) = 1.99903 3.59511 2.90869
# Velocity P-wave (km/s) = 2.82086 5.90306 4.62620
#
# Compressibility (1/GPa) = 0.17851185
#
# Stress axis : x y z
#
# Youngs Moduli (GPa) = 7.46446 177.76766 29.02700
#
# Poissons Ratio (x) = 2.26697 -0.54339
# Poissons Ratio (y) = 0.09519 0.10838
# Poissons Ratio (z) = -0.13974 0.66376
#
# Static dielectric constant tensor:
#      x y z
#    x 1.786540 0.000000 0.000000 
#    y 0.000000 1.869370 0.000000 
#    z 0.000000 0.000000 1.740270 
# 
# From -- ./inp_files/16556.got.cif
#   From: 2010.05.17/outbox.cif.g08.bks.cpg/sg71_9_cif.got.tgz:16556.got - 2010.06.03 16:22:01.
