data_PCOD9520752
_publ_section_title
;
Structure prediction by ZEFSAII (Michael W. Deem and Ramdas Pophale) SiO2 
 PCOD9520752
Probable space group: I M M M
;
_chemical_formula_sum "Si O2"
_cell_formula_units_Z 96
_cell_length_a 19.856522
_cell_length_b 30.255113
_cell_length_c 7.609425
_cell_angle_alpha 90.000000
_cell_angle_beta 90.000000
_cell_angle_gamma 90.000000
_cell_volume 4571.448184
_symmetry_space_group_name_H-M "I M M M"
_symmetry_group_IT_number 71
_symmetry_cell_setting 'orthorhombic'
loop_
_space_group_symop_operation_xyz
x,y,z
-x,-y,z
x,-y,-z
-x,y,-z
-x,-y,-z
x,y,-z
-x,y,z
x,-y,z
1/2+x,1/2+y,1/2+z
1/2-x,1/2-y,1/2+z
1/2+x,1/2-y,1/2-z
1/2-x,1/2+y,1/2-z
1/2-x,1/2-y,1/2-z
1/2+x,1/2+y,1/2-z
1/2-x,1/2+y,1/2+z
1/2+x,1/2-y,1/2+z
loop_
_atom_site_type_symbol
_atom_site_label
_atom_site_fract_x
_atom_site_fract_y
_atom_site_fract_z
Si Si1 0.314921 0.877090 0.804921
Si Si2 0.723861 0.701193 0.288338
Si Si3 0.574721 0.324628 0.289102
Si Si4 0.716762 0.452121 0.786810
Si Si5 0.576368 0.049598 0.289902
Si Si6 0.428380 0.428981 0.210500
O O1 0.279043 0.834394 0.718056
O O2 0.254664 0.912402 0.802282
O O3 0.376058 0.908198 0.741739
O O4 0.334653 0.862969 0.000000
O O5 0.720900 0.694443 0.500000
O O6 0.750000 0.750000 0.250000
O O7 0.646508 0.694441 0.223637
O O8 0.573997 0.318756 0.500000
O O9 0.500000 0.308841 0.224937
O O10 0.576897 0.376812 0.248032
O O11 0.746466 0.500000 0.747993
O O12 0.639628 0.451046 0.728594
O O13 0.720418 0.446084 0.000000
O O14 0.574296 0.045962 0.500000
O O15 0.500000 0.057329 0.226079
O O16 0.597075 0.000000 0.225374
O O17 0.500000 0.444694 0.281428
O O18 0.429559 0.435206 0.000000
#
# Coordination Sequence:
#
# PCOD9520752 Si02
#       6
#    16  16  16  16  16  16
#     4  11  22  36  54  80 111 141 177 224 276 327
#     4  10  22  38  56  81 108 138 178 226 280 333
#     4   9  17  33  56  77 101 135 174 216 261 312
#     4  10  20  32  48  73 106 145 184 219 259 310
#     4   9  19  37  60  85 113 147 187 226 268 329
#     4   9  17  29  47  72 101 136 178 219 257 297
#
# _framework density 20.99991
#
# number of rings (size 3 to 8) (size 9 to 14) (size 15 to 20)
#    0.000    2.333    1.667    1.500    0.000    5.333 
#    0.000    3.333    0.000    3.000    0.000    3.500 
#    0.000    0.000    0.000    0.000    0.000    0.000 
#
# Total GULP energy -267390.259973 kJ/mol
# GULP energy per Si atom -5570.630416 kJ/mol
# Density = 2.095211 g / cm^3
# Si number density = 20.999910 Si / 1000 Ang^3
#
#
#
# Elastic Constant Matrix: (Units=GPa)
#
#
# Indices 1 2 3 4 5 6 
#
# 1 180.4032 75.5926 7.4924 0.0000 0.0000 0.0000
# 2 75.5926 126.3678 -0.0425 0.0000 0.0000 0.0000
# 3 7.4924 -0.0425 41.1023 0.0002 -0.0002 0.0000
# 4 0.0000 0.0000 0.0002 -0.0074 0.0001 0.0000
# 5 0.0000 0.0000 -0.0002 0.0001 17.8030 0.0000
# 6 0.0000 0.0000 0.0000 0.0000 0.0000 42.8676
#
#
#
# Elastic Compliance Matrix: (Units=1/GPa)
#
#
# Indices 1 2 3 4 5 6 
#
# 1 0.007473 -0.004471 -0.001367 -0.000016 0.000000 0.000000
# 2 -0.004471 0.010588 0.000826 -0.000021 0.000000 0.000000
# 3 -0.001367 0.000826 0.024580 0.000581 0.000000 0.000000
# 4 -0.000016 -0.000021 0.000581********** 0.000561 -0.000012
# 5 0.000000 0.000000 0.000000 0.000561 0.056170 0.000000
# 6 0.000000 0.000000 0.000000 -0.000012 0.000000 0.023328
#
#
# Mechanical properties :
#
#
# Convention : Reuss Voigt Hill
#
# Bulk Modulus (GPa) = 30.65864 57.10646 43.88255
# Shear Modulus (GPa) = -0.03716 29.78804 14.87544
#
# Velocity S-wave (km/s) = -0.13317 3.77036 2.66439
# Velocity P-wave (km/s) = 3.82197 6.79756 5.51427
#
# Compressibility (1/GPa) = 0.03261724
#
# Stress axis : x y z
#
# Youngs Moduli (GPa) = 133.80909 94.44480 40.68421
#
# Poissons Ratio (x) = 0.42226 0.05561
# Poissons Ratio (y) = 0.59826 -0.03360
# Poissons Ratio (z) = 0.18291 -0.07801
#
# Static dielectric constant tensor:
#      x y z
#    x 1.812460 0.000000 0.000000 
#    y 0.000000 1.701250 0.000000 
#    z 0.000000 0.000000 1.826310 
# 
# From -- ./inp_files/10859.got.cif
#   From: 2010.05.17/outbox.cif.g08.bks.cpg/sg71_6_cif.got.tgz:10859.got - 2010.06.03 16:22:01.
