data_PCOD9520184
_publ_section_title
;
Structure prediction by ZEFSAII (Michael W. Deem and Ramdas Pophale) SiO2 
 PCOD9520184
Probable space group: I M M M
;
_chemical_formula_sum "Si O2"
_cell_formula_units_Z 72
_cell_length_a 7.538020
_cell_length_b 27.102520
_cell_length_c 17.056296
_cell_angle_alpha 90.000000
_cell_angle_beta 90.000000
_cell_angle_gamma 90.000000
_cell_volume 3484.589978
_symmetry_space_group_name_H-M "I M M M"
_symmetry_group_IT_number 71
_symmetry_cell_setting 'orthorhombic'
loop_
_space_group_symop_operation_xyz
x,y,z
-x,-y,z
x,-y,-z
-x,y,-z
-x,-y,-z
x,y,-z
-x,y,z
x,-y,z
1/2+x,1/2+y,1/2+z
1/2-x,1/2-y,1/2+z
1/2+x,1/2-y,1/2-z
1/2-x,1/2+y,1/2-z
1/2-x,1/2-y,1/2-z
1/2+x,1/2+y,1/2-z
1/2-x,1/2+y,1/2+z
1/2+x,1/2-y,1/2+z
loop_
_atom_site_type_symbol
_atom_site_label
_atom_site_fract_x
_atom_site_fract_y
_atom_site_fract_z
Si Si1 0.713125 0.613141 0.685783
Si Si2 0.712288 0.726370 0.335442
Si Si3 0.789347 0.274138 0.000000
Si Si4 0.000000 0.558586 0.588644
Si Si5 0.715535 0.443549 0.842587
Si Si6 0.214707 0.890419 0.500000
O O1 0.500000 0.609277 0.676050
O O2 0.768268 0.669408 0.670658
O O3 0.759839 0.593195 0.772083
O O4 0.823624 0.578853 0.628727
O O5 0.500000 0.726978 0.341966
O O6 0.750000 0.750000 0.250000
O O7 0.780205 0.752033 0.416362
O O8 0.764033 0.333024 0.000000
O O9 0.000000 0.264082 0.000000
O O10 0.000000 0.500000 0.592521
O O11 0.000000 0.575766 0.500000
O O12 0.500000 0.445664 0.845244
O O13 0.777019 0.500000 0.831031
O O14 0.777326 0.419438 0.923308
O O15 0.000000 0.892054 0.500000
#
# Coordination Sequence:
#
# PCOD9520184 Si02
#       6
#    16  16   8   8  16   8
#     4  10  22  41  65  90 126 166 207 255 317 380
#     4  10  22  39  61  90 122 162 209 256 310 375
#     4  10  22  39  57  81 122 161 194 241 305 365
#     4  11  26  44  64  95 125 155 211 270 322 383
#     4   9  17  32  58  88 118 156 198 244 301 360
#     4  10  19  34  56  86 120 154 201 249 289 356
#
# _framework density 20.662402
#
# number of rings (size 3 to 8) (size 9 to 14) (size 15 to 20)
#    0.000    2.111    0.000    2.333    3.111    5.778 
#    2.000    1.111    0.000    0.667    0.000    0.000 
#    0.000    0.000    0.000    0.000    0.000    0.000 
#
# Total GULP energy -200984.173374 kJ/mol
# GULP energy per Si atom -5582.893705 kJ/mol
# Density = 2.061537 g / cm^3
# Si number density = 20.662402 Si / 1000 Ang^3
#
#
#
# Elastic Constant Matrix: (Units=GPa)
#
#
# Indices 1 2 3 4 5 6 
#
# 1 48.1293 -4.3489 10.2825 0.0000 0.0000 0.0000
# 2 -4.3489 67.9460 34.0804 0.0000 0.0000 0.0000
# 3 10.2825 34.0804 109.8575 0.0000 0.0000 0.0000
# 4 0.0000 0.0000 0.0000 45.7193 0.0000 0.0000
# 5 0.0000 0.0000 0.0000 0.0000 37.3994 0.0000
# 6 0.0000 0.0000 0.0000 0.0000 0.0000 24.3284
#
#
#
# Elastic Compliance Matrix: (Units=1/GPa)
#
#
# Indices 1 2 3 4 5 6 
#
# 1 0.021656 0.002846 -0.002910 0.000000 0.000000 0.000000
# 2 0.002846 0.017804 -0.005789 0.000000 0.000000 0.000000
# 3 -0.002910 -0.005789 0.011171 0.000000 0.000000 0.000000
# 4 0.000000 0.000000 0.000000 0.021873 0.000000 0.000000
# 5 0.000000 0.000000 0.000000 0.000000 0.026738 0.000000
# 6 0.000000 0.000000 0.000000 0.000000 0.000000 0.041104
#
#
# Mechanical properties :
#
#
# Convention : Reuss Voigt Hill
#
# Bulk Modulus (GPa) = 25.69135 33.99564 29.84350
# Shear Modulus (GPa) = 30.29792 33.88400 32.09096
#
# Velocity S-wave (km/s) = 3.83342 4.05394 3.94523
# Velocity P-wave (km/s) = 5.66166 6.19687 5.93530
#
# Compressibility (1/GPa) = 0.03892360
#
# Stress axis : x y z
#
# Youngs Moduli (GPa) = 46.17629 56.16845 89.51694
#
# Poissons Ratio (x) = -0.15983 0.26047
# Poissons Ratio (y) = -0.13140 0.51825
# Poissons Ratio (z) = 0.13436 0.32518
#
# Static dielectric constant tensor:
#      x y z
#    x 1.755110 0.000000 0.000000 
#    y 0.000000 1.709050 0.000000 
#    z 0.000000 0.000000 1.763080 
# 
# From -- ./inp_files/31483.got.cif
#   From: 2010.05.17/outbox.cif.g08.bks.cpg/sg71_16_cif.got.tgz:31483.got - 2010.06.03 16:22:01.
