data_PCOD9520448
_publ_section_title
;
Structure prediction by ZEFSAII (Michael W. Deem and Ramdas Pophale) SiO2 
 PCOD9520448
Probable space group: I M M M
;
_chemical_formula_sum "Si O2"
_cell_formula_units_Z 68
_cell_length_a 20.248987
_cell_length_b 7.469410
_cell_length_c 24.982051
_cell_angle_alpha 90.000000
_cell_angle_beta 90.000000
_cell_angle_gamma 90.000000
_cell_volume 3778.484900
_symmetry_space_group_name_H-M "I M M M"
_symmetry_group_IT_number 71
_symmetry_cell_setting 'orthorhombic'
loop_
_space_group_symop_operation_xyz
x,y,z
-x,-y,z
x,-y,-z
-x,y,-z
-x,-y,-z
x,y,-z
-x,y,z
x,-y,z
1/2+x,1/2+y,1/2+z
1/2-x,1/2-y,1/2+z
1/2+x,1/2-y,1/2-z
1/2-x,1/2+y,1/2-z
1/2-x,1/2-y,1/2-z
1/2+x,1/2+y,1/2-z
1/2-x,1/2+y,1/2+z
1/2+x,1/2-y,1/2+z
loop_
_atom_site_type_symbol
_atom_site_label
_atom_site_fract_x
_atom_site_fract_y
_atom_site_fract_z
Si Si1 0.500000 0.500000 0.351990
Si Si2 0.745676 0.710969 0.647099
Si Si3 0.388410 0.788834 0.809067
Si Si4 0.215215 0.000000 0.561798
Si Si5 0.600156 0.209057 0.686892
Si Si6 0.571611 0.500000 0.894042
O O1 0.557336 0.657201 0.348117
O O2 0.744013 0.500000 0.635365
O O3 0.809644 0.744298 0.684556
O O4 0.757808 0.828692 0.594230
O O5 0.677560 0.767476 0.674333
O O6 0.411074 0.742099 0.749349
O O7 0.421783 0.669899 0.854414
O O8 0.400022 0.000000 0.817231
O O9 0.233747 0.000000 0.500000
O O10 0.135667 0.000000 0.568517
O O11 0.583319 0.000000 0.679852
O O12 0.500000 0.500000 0.920555
#
# Coordination Sequence:
#
# PCOD9520448 Si02
#       6
#     4  16  16   8  16   8
#     4  12  24  34  46  80 119 160 181 216 266 340
#     4  10  19  36  58  82 110 144 186 243 294 329
#     4   9  20  32  51  80 114 154 195 229 264 328
#     4  10  22  40  61  85 108 139 199 254 290 334
#     4  11  21  34  52  80 118 156 192 223 271 334
#     4  10  21  35  54  81 119 162 188 228 279 331
#
# _framework density 17.99663
#
# number of rings (size 3 to 8) (size 9 to 14) (size 15 to 20)
#    0.000    1.882    2.353    1.765    3.294    1.176 
#    0.000    0.000    0.000    0.000    0.000    9.059 
#    0.000    0.000    0.000    0.000    0.000    0.000 
#
# Total GULP energy -189319.956346 kJ/mol
# GULP energy per Si atom -5568.234010 kJ/mol
# Density = 1.795567 g / cm^3
# Si number density = 17.996630 Si / 1000 Ang^3
#
#
#
# Elastic Constant Matrix: (Units=GPa)
#
#
# Indices 1 2 3 4 5 6 
#
# 1 62.5589 12.2721 -8.7630 0.0000 0.0000 0.0000
# 2 12.2721 80.5454 6.0806 0.0000 0.0000 0.0000
# 3 -8.7630 6.0806 43.0810 0.0000 0.0000 0.0000
# 4 0.0000 0.0000 0.0000 8.0324 0.0000 0.0000
# 5 0.0000 0.0000 0.0000 0.0000 992.5159 0.0000
# 6 0.0000 0.0000 0.0000 0.0000 0.0000 33.8840
#
#
#
# Elastic Compliance Matrix: (Units=1/GPa)
#
#
# Indices 1 2 3 4 5 6 
#
# 1 0.017098 -0.002899 0.003887 0.000000 0.000000 0.000000
# 2 -0.002899 0.013040 -0.002430 0.000000 0.000000 0.000000
# 3 0.003887 -0.002430 0.024346 0.000000 0.000000 0.000000
# 4 0.000000 0.000000 0.000000 0.124495 0.000000 0.000000
# 5 0.000000 0.000000 0.000000 0.000000 0.001008 0.000000
# 6 0.000000 0.000000 0.000000 0.000000 0.000000 0.029512
#
#
# Mechanical properties :
#
#
# Convention : Reuss Voigt Hill
#
# Bulk Modulus (GPa) = 19.37959 22.81832 21.09896
# Shear Modulus (GPa) = 21.77860 218.65952 120.21906
#
# Velocity S-wave (km/s) = 3.48249 11.03467 8.18205
# Velocity P-wave (km/s) = 5.19251 13.23098 10.05040
#
# Compressibility (1/GPa) = 0.05160067
#
# Stress axis : x y z
#
# Youngs Moduli (GPa) = 58.48639 76.68453 41.07501
#
# Poissons Ratio (x) = 0.22227 -0.15966
# Poissons Ratio (y) = 0.16952 0.09982
# Poissons Ratio (z) = -0.22733 0.18636
#
# Static dielectric constant tensor:
#      x y z
#    x 1.643860 0.000000 0.000000 
#    y 0.000000 1.620710 0.000000 
#    z 0.000000 0.000000 1.569460 
# 
# From -- ./inp_files/60385.got.cif
#   From: 2010.05.17/outbox.cif.g08.bks.cpg/sg71_31_cif.got.tgz:60385.got - 2010.06.03 16:22:01.
