data_PCOD9520250
_publ_section_title
;
Structure prediction by ZEFSAII (Michael W. Deem and Ramdas Pophale) SiO2 
 PCOD9520250
Probable space group: I M M M
;
_chemical_formula_sum "Si O2"
_cell_formula_units_Z 104
_cell_length_a 19.875392
_cell_length_b 10.996678
_cell_length_c 23.662294
_cell_angle_alpha 90.000000
_cell_angle_beta 90.000000
_cell_angle_gamma 90.000000
_cell_volume 5171.708730
_symmetry_space_group_name_H-M "I M M M"
_symmetry_group_IT_number 71
_symmetry_cell_setting 'orthorhombic'
loop_
_space_group_symop_operation_xyz
x,y,z
-x,-y,z
x,-y,-z
-x,y,-z
-x,-y,-z
x,y,-z
-x,y,z
x,-y,z
1/2+x,1/2+y,1/2+z
1/2-x,1/2-y,1/2+z
1/2+x,1/2-y,1/2-z
1/2-x,1/2+y,1/2-z
1/2-x,1/2-y,1/2-z
1/2+x,1/2+y,1/2-z
1/2-x,1/2+y,1/2+z
1/2+x,1/2-y,1/2+z
loop_
_atom_site_type_symbol
_atom_site_label
_atom_site_fract_x
_atom_site_fract_y
_atom_site_fract_z
Si Si1 0.108166 0.233309 0.565339
Si Si2 0.070720 0.860168 0.678854
Si Si3 0.692027 0.352718 0.254440
Si Si4 0.379748 0.000000 0.931456
Si Si5 0.500000 0.647619 0.432032
Si Si6 0.228717 0.000000 0.933326
Si Si7 0.642041 0.708296 0.378064
Si Si8 0.757137 0.639343 0.064747
O O1 0.090571 0.210437 0.500000
O O2 0.076532 0.147294 0.611567
O O3 0.088475 0.370814 0.582489
O O4 0.189370 0.219072 0.569664
O O5 0.139403 0.815359 0.705720
O O6 0.000000 0.801535 0.696885
O O7 0.068512 0.000000 0.696939
O O8 0.710026 0.500000 0.250056
O O9 0.750000 0.250000 0.250000
O O10 0.652979 0.333040 0.313771
O O11 0.303517 0.000000 0.908269
O O12 0.376565 0.000000 0.000000
O O13 0.500000 0.500000 0.425513
O O14 0.500000 0.672044 0.500000
O O15 0.566526 0.700262 0.401448
O O16 0.185706 0.885738 0.914784
O O17 0.235758 0.000000 0.000000
O O18 0.683367 0.830617 0.391925
O O19 0.734902 0.500000 0.071896
O O20 0.781899 0.654016 0.000000
#
# Coordination Sequence:
#
# PCOD9520250 Si02
#       8
#    16  16  16   8   8   8  16  16
#     4  10  19  34  59  90 118 151 195 247 306 366
#     4  10  23  42  62  84 121 163 203 249 304 364
#     4  11  25  44  67  94 122 165 217 270 320 375
#     4   9  18  30  54  88 124 152 181 242 313 369
#     4  11  22  34  55  91 129 159 197 252 315 384
#     4  11  18  31  56  88 122 149 186 245 313 363
#     4  12  22  36  59  87 121 158 204 254 309 368
#     4  10  20  34  56  87 124 161 197 246 307 366
#
# _framework density 20.109408999999999
#
# number of rings (size 3 to 8) (size 9 to 14) (size 15 to 20)
#    0.000    1.462    3.077    2.769    1.077    3.077 
#    0.000    1.538    0.000    2.769    0.000    0.000 
#    0.000    0.000    0.000    0.000    0.000    0.000 
#
# Total GULP energy -289936.166028 kJ/mol
# GULP energy per Si atom -5575.695501 kJ/mol
# Density = 2.006364 g / cm^3
# Si number density = 20.109409 Si / 1000 Ang^3
#
#
#
# Elastic Constant Matrix: (Units=GPa)
#
#
# Indices 1 2 3 4 5 6 
#
# 1 113.7673 20.2496 33.5441 0.0000 0.0000 0.0000
# 2 20.2496 69.5502 15.1890 0.0000 0.0000 0.0000
# 3 33.5441 15.1890 77.2279 0.0000 0.0000 0.0000
# 4 0.0000 0.0000 0.0000 25.0001 0.0000 0.0000
# 5 0.0000 0.0000 0.0000 0.0000 -31.5823 0.0000
# 6 0.0000 0.0000 0.0000 0.0000 0.0000 13.2062
#
#
#
# Elastic Compliance Matrix: (Units=1/GPa)
#
#
# Indices 1 2 3 4 5 6 
#
# 1 0.010374 -0.002128 -0.004087 0.000000 0.000000 0.000000
# 2 -0.002128 0.015460 -0.002116 0.000000 0.000000 0.000000
# 3 -0.004087 -0.002116 0.015140 0.000000 0.000000 0.000000
# 4 0.000000 0.000000 0.000000 0.040000 0.000000 0.000000
# 5 0.000000 0.000000 0.000000 0.000000 -0.031663 0.000000
# 6 0.000000 0.000000 0.000000 0.000000 0.000000 0.075722
#
#
# Mechanical properties :
#
#
# Convention : Reuss Voigt Hill
#
# Bulk Modulus (GPa) = 41.13393 44.27897 42.70645
# Shear Modulus (GPa) = 33.37802 14.09564 23.73683
#
# Velocity S-wave (km/s) = 4.07851 2.65041 3.43940
# Velocity P-wave (km/s) = 6.53288 5.60652 6.08735
#
# Compressibility (1/GPa) = 0.02431083
#
# Stress axis : x y z
#
# Youngs Moduli (GPa) = 96.39725 64.68398 66.04888
#
# Poissons Ratio (x) = 0.13763 0.26997
# Poissons Ratio (y) = 0.20510 0.13979
# Poissons Ratio (z) = 0.39401 0.13690
#
# Static dielectric constant tensor:
#      x y z
#    x 1.780470 0.000000 0.000000 
#    y 0.000000 1.742830 0.000000 
#    z 0.000000 0.000000 1.721940 
# 
# From -- ./inp_files/66053.got.cif
#   From: 2010.05.17/outbox.cif.g08.bks.cpg/sg71_34_cif.got.tgz:66053.got - 2010.06.03 16:22:01.
