data_PCOD9520189
_publ_section_title
;
Structure prediction by ZEFSAII (Michael W. Deem and Ramdas Pophale) SiO2 
 PCOD9520189
Probable space group: I M M M
;
_chemical_formula_sum "Si O2"
_cell_formula_units_Z 112
_cell_length_a 34.936908
_cell_length_b 7.513323
_cell_length_c 19.642763
_cell_angle_alpha 90.000000
_cell_angle_beta 90.000000
_cell_angle_gamma 90.000000
_cell_volume 5156.073536
_symmetry_space_group_name_H-M "I M M M"
_symmetry_group_IT_number 71
_symmetry_cell_setting 'orthorhombic'
loop_
_space_group_symop_operation_xyz
x,y,z
-x,-y,z
x,-y,-z
-x,y,-z
-x,-y,-z
x,y,-z
-x,y,z
x,-y,z
1/2+x,1/2+y,1/2+z
1/2-x,1/2-y,1/2+z
1/2+x,1/2-y,1/2-z
1/2-x,1/2+y,1/2-z
1/2-x,1/2-y,1/2-z
1/2+x,1/2+y,1/2-z
1/2-x,1/2+y,1/2+z
1/2+x,1/2-y,1/2+z
loop_
_atom_site_type_symbol
_atom_site_label
_atom_site_fract_x
_atom_site_fract_y
_atom_site_fract_z
Si Si1 0.178120 0.290160 0.306772
Si Si2 0.188632 0.785158 0.154704
Si Si3 0.113590 0.786181 0.076978
Si Si4 0.956734 0.712777 0.168932
Si Si5 0.593115 0.207303 0.206287
Si Si6 0.543871 0.715158 0.076813
Si Si7 0.235551 0.717871 0.422492
O O1 0.174008 0.500000 0.321405
O O2 0.196218 0.271355 0.232069
O O3 0.135375 0.212442 0.300130
O O4 0.204166 0.219172 0.367792
O O5 0.147432 0.721254 0.126917
O O6 0.222709 0.728320 0.104928
O O7 0.187975 0.000000 0.154813
O O8 0.071864 0.744655 0.106473
O O9 0.117048 0.000000 0.075177
O O10 0.118683 0.720276 0.000000
O O11 0.960069 0.500000 0.177073
O O12 0.934341 0.784916 0.235361
O O13 0.000000 0.782408 0.161878
O O14 0.571802 0.217683 0.134572
O O15 0.598487 0.000000 0.224809
O O16 0.500000 0.770626 0.090380
O O17 0.544561 0.500000 0.078201
O O18 0.553969 0.771200 0.000000
O O19 0.228713 0.774760 0.500000
O O20 0.235289 0.500000 0.422372
#
# Coordination Sequence:
#
# PCOD9520189 Si02
#       7
#    16  16  16  16  16  16  16
#     4  10  20  34  55  81 109 140 177 221 264 311
#     4  10  19  34  57  81 107 142 179 218 262 314
#     4  10  21  36  55  80 107 137 177 222 266 315
#     4  10  21  37  55  76 106 142 178 219 270 324
#     4  10  20  34  53  78 107 140 179 223 266 313
#     4   9  19  35  53  75 104 138 178 224 273 323
#     4   9  18  33  54  81 111 143 179 217 259 310
#
# _framework density 21.721955999999999
#
# number of rings (size 3 to 8) (size 9 to 14) (size 15 to 20)
#    0.000    2.286    1.429    1.714    0.000    5.429 
#    0.000    3.571    0.000    2.571    0.000    0.000 
#    0.000    0.000    0.000    0.000    0.000    0.000 
#
# Total GULP energy -312807.405708 kJ/mol
# GULP energy per Si atom -5585.846530 kJ/mol
# Density = 2.167252 g / cm^3
# Si number density = 21.721956 Si / 1000 Ang^3
#
#
#
# Elastic Constant Matrix: (Units=GPa)
#
#
# Indices 1 2 3 4 5 6 
#
# 1 131.2753 6.4911 83.4575 0.0000 0.0000 0.0000
# 2 6.4911 53.7121 -9.3802 0.0000 0.0000 0.0000
# 3 83.4575 -9.3802 155.0432 0.0000 0.0000 0.0000
# 4 0.0000 0.0000 0.0000 24.0018 0.0000 0.0000
# 5 0.0000 0.0000 0.0000 0.0000 36.3292 0.0000
# 6 0.0000 0.0000 0.0000 0.0000 0.0000 4.8477
#
#
#
# Elastic Compliance Matrix: (Units=1/GPa)
#
#
# Indices 1 2 3 4 5 6 
#
# 1 0.011927 -0.002590 -0.006577 0.000000 0.000000 0.000000
# 2 -0.002590 0.019379 0.002567 0.000000 0.000000 0.000000
# 3 -0.006577 0.002567 0.010145 0.000000 0.000000 0.000000
# 4 0.000000 0.000000 0.000000 0.041664 0.000000 0.000000
# 5 0.000000 0.000000 0.000000 0.000000 0.027526 0.000000
# 6 0.000000 0.000000 0.000000 0.000000 0.000000 0.206285
#
#
# Mechanical properties :
#
#
# Convention : Reuss Voigt Hill
#
# Bulk Modulus (GPa) = 35.39714 55.68528 45.54121
# Shear Modulus (GPa) = 14.72568 30.33321 22.52945
#
# Velocity S-wave (km/s) = 2.60651 3.74094 3.22401
# Velocity P-wave (km/s) = 5.03879 6.65963 5.90509
#
# Compressibility (1/GPa) = 0.02825087
#
# Stress axis : x y z
#
# Youngs Moduli (GPa) = 83.84539 51.60234 98.56862
#
# Poissons Ratio (x) = 0.13364 0.64825
# Poissons Ratio (y) = 0.21715 -0.25298
# Poissons Ratio (z) = 0.55142 -0.13244
#
# Static dielectric constant tensor:
#      x y z
#    x 1.784420 0.000000 0.000000 
#    y 0.000000 1.841000 0.000000 
#    z 0.000000 0.000000 1.754710 
# 
# From -- ./inp_files/40945.got.cif
#   From: 2010.05.17/outbox.cif.g08.bks.cpg/sg71_21_cif.got.tgz:40945.got - 2010.06.03 16:22:01.
