data_PCOD9520516
_publ_section_title
;
Structure prediction by ZEFSAII (Michael W. Deem and Ramdas Pophale) SiO2 
 PCOD9520516
Probable space group: I M M M
;
_chemical_formula_sum "Si O2"
_cell_formula_units_Z 104
_cell_length_a 18.333371
_cell_length_b 15.954306
_cell_length_c 16.701820
_cell_angle_alpha 90.000000
_cell_angle_beta 90.000000
_cell_angle_gamma 90.000000
_cell_volume 4885.219066
_symmetry_space_group_name_H-M "I M M M"
_symmetry_group_IT_number 71
_symmetry_cell_setting 'orthorhombic'
loop_
_space_group_symop_operation_xyz
x,y,z
-x,-y,z
x,-y,-z
-x,y,-z
-x,-y,-z
x,y,-z
-x,y,z
x,-y,z
1/2+x,1/2+y,1/2+z
1/2-x,1/2-y,1/2+z
1/2+x,1/2-y,1/2-z
1/2-x,1/2+y,1/2-z
1/2-x,1/2-y,1/2-z
1/2+x,1/2+y,1/2-z
1/2-x,1/2+y,1/2+z
1/2+x,1/2-y,1/2+z
loop_
_atom_site_type_symbol
_atom_site_label
_atom_site_fract_x
_atom_site_fract_y
_atom_site_fract_z
Si Si1 0.576674 0.403834 0.147822
Si Si2 0.636048 0.181085 0.681721
Si Si3 0.915957 0.871970 0.000000
Si Si4 0.378375 0.378480 0.675907
Si Si5 0.500000 0.099959 0.407057
Si Si6 0.231484 0.097714 0.594467
Si Si7 0.247649 0.897692 0.000000
Si Si8 0.794615 0.596253 0.328078
O O1 0.500000 0.363619 0.124098
O O2 0.576432 0.500000 0.118233
O O3 0.581708 0.406186 0.243943
O O4 0.651735 0.367850 0.115626
O O5 0.617758 0.278059 0.673550
O O6 0.570354 0.131230 0.640863
O O7 0.708315 0.155134 0.634129
O O8 0.657028 0.154559 0.771798
O O9 0.910340 0.909281 0.909306
O O10 0.828295 0.844363 0.000000
O O11 0.000000 0.835195 0.000000
O O12 0.292882 0.400396 0.688716
O O13 0.500000 0.129655 0.500000
O O14 0.500000 0.000000 0.409236
O O15 0.241626 0.095914 0.500000
O O16 0.238237 0.000000 0.623578
O O17 0.294117 0.881069 0.921304
O O18 0.229184 0.000000 0.000000
O O19 0.818058 0.500000 0.316394
#
# Coordination Sequence:
#
# PCOD9520516 Si02
#       8
#    16  16   8  16   8  16   8  16
#     4  10  21  38  60  85 119 157 192 235 289 352
#     4  12  24  37  62  87 117 157 198 248 300 355
#     4  10  22  35  52  78 123 163 190 230 291 357
#     4  11  23  36  56  87 119 155 200 241 294 345
#     4  11  26  44  62  89 122 158 202 252 304 356
#     4  10  21  38  61  88 116 151 195 239 289 352
#     4   8  18  35  58  87 114 146 193 245 284 338
#     4  10  19  38  61  84 116 153 197 241 289 351
#
# _framework density 21.288708
#
# number of rings (size 3 to 8) (size 9 to 14) (size 15 to 20)
#    0.000    1.615    1.538    3.231    4.308    2.308 
#    0.000    1.538    0.000    0.462    0.000    2.154 
#    0.000    0.000    0.000    0.000    0.000    0.000 
#
# Total GULP energy -290056.334747 kJ/mol
# GULP energy per Si atom -5578.006437 kJ/mol
# Density = 2.124025 g / cm^3
# Si number density = 21.288708 Si / 1000 Ang^3
#
#
#
# Elastic Constant Matrix: (Units=GPa)
#
#
# Indices 1 2 3 4 5 6 
#
# 1 117.3997 29.0182 31.9273 0.0000 0.0000 0.0000
# 2 29.0182 89.5149 28.3375 0.0000 0.0000 0.0000
# 3 31.9273 28.3375 109.1813 0.0000 0.0000 0.0000
# 4 0.0000 0.0000 0.0000 22.0685 0.0000 0.0000
# 5 0.0000 0.0000 0.0000 0.0000 19.5631 0.0000
# 6 0.0000 0.0000 0.0000 0.0000 0.0000 -98.4934
#
#
#
# Elastic Compliance Matrix: (Units=1/GPa)
#
#
# Indices 1 2 3 4 5 6 
#
# 1 0.009725 -0.002454 -0.002207 0.000000 0.000000 0.000000
# 2 -0.002454 0.012791 -0.002602 0.000000 0.000000 0.000000
# 3 -0.002207 -0.002602 0.010480 0.000000 0.000000 0.000000
# 4 0.000000 0.000000 0.000000 0.045313 0.000000 0.000000
# 5 0.000000 0.000000 0.000000 0.000000 0.051117 0.000000
# 6 0.000000 0.000000 0.000000 0.000000 0.000000 -0.010153
#
#
# Mechanical properties :
#
#
# Convention : Reuss Voigt Hill
#
# Bulk Modulus (GPa) = 54.14398 54.96244 54.55321
# Shear Modulus (GPa) = 35.72601 3.74850 19.73725
#
# Velocity S-wave (km/s) = 4.10099 1.32839 3.04817
# Velocity P-wave (km/s) = 6.92189 5.31286 6.17005
#
# Compressibility (1/GPa) = 0.01846927
#
# Stress axis : x y z
#
# Youngs Moduli (GPa) = 102.83204 78.18272 95.42175
#
# Poissons Ratio (x) = 0.19185 0.21058
# Poissons Ratio (y) = 0.25233 0.24830
# Poissons Ratio (z) = 0.22693 0.20344
#
# Static dielectric constant tensor:
#      x y z
#    x 1.772370 0.000000 0.000000 
#    y 0.000000 1.791770 0.000000 
#    z 0.000000 0.000000 1.797980 
# 
# From -- ./inp_files/46196.got.cif
#   From: 2010.05.17/outbox.cif.g08.bks.cpg/sg71_24_cif.got.tgz:46196.got - 2010.06.03 16:22:01.
