data_PCOD9520130
_publ_section_title
;
Structure prediction by ZEFSAII (Michael W. Deem and Ramdas Pophale) SiO2 
 PCOD9520130
Probable space group: I M M M
;
_chemical_formula_sum "Si O2"
_cell_formula_units_Z 104
_cell_length_a 13.735897
_cell_length_b 25.075315
_cell_length_c 17.932659
_cell_angle_alpha 90.000000
_cell_angle_beta 90.000000
_cell_angle_gamma 90.000000
_cell_volume 6176.580602
_symmetry_space_group_name_H-M "I M M M"
_symmetry_group_IT_number 71
_symmetry_cell_setting 'orthorhombic'
loop_
_space_group_symop_operation_xyz
x,y,z
-x,-y,z
x,-y,-z
-x,y,-z
-x,-y,-z
x,y,-z
-x,y,z
x,-y,z
1/2+x,1/2+y,1/2+z
1/2-x,1/2-y,1/2+z
1/2+x,1/2-y,1/2-z
1/2-x,1/2+y,1/2-z
1/2-x,1/2-y,1/2-z
1/2+x,1/2+y,1/2-z
1/2-x,1/2+y,1/2+z
1/2+x,1/2-y,1/2+z
loop_
_atom_site_type_symbol
_atom_site_label
_atom_site_fract_x
_atom_site_fract_y
_atom_site_fract_z
Si Si1 0.616924 0.197646 0.000000
Si Si2 0.384854 0.871029 0.147869
Si Si3 0.770633 0.058300 0.087259
Si Si4 0.381953 0.500000 0.911413
Si Si5 0.115149 0.835561 0.084593
Si Si6 0.882040 0.117090 0.350734
Si Si7 0.617810 0.318319 0.000000
Si Si8 0.229868 0.810695 0.228913
O O1 0.638720 0.163993 0.073750
O O2 0.655965 0.257762 0.000000
O O3 0.500000 0.202727 0.000000
O O4 0.500000 0.877730 0.154514
O O5 0.323214 0.924417 0.134421
O O6 0.333327 0.839217 0.213966
O O7 0.853141 0.102798 0.094697
O O8 0.805938 0.000000 0.108258
O O9 0.742282 0.057826 0.000000
O O10 0.500000 0.500000 0.914129
O O11 0.354648 0.555006 0.868047
O O12 0.351051 0.500000 0.000000
O O13 0.170508 0.807383 0.151388
O O14 0.000000 0.829395 0.090780
O O15 0.144444 0.820011 0.000000
O O16 0.856285 0.149467 0.425982
O O17 0.830320 0.150440 0.284609
O O18 0.000000 0.118701 0.340002
O O19 0.500000 0.316024 0.000000
O O20 0.250000 0.750000 0.250000
#
# Coordination Sequence:
#
# PCOD9520130 Si02
#       8
#     8  16  16   8  16  16   8  16
#     4   9  16  28  48  72  95 132 178 222 272 326
#     4  10  20  34  50  70 102 141 181 227 278 323
#     4   9  17  30  50  76 102 130 175 227 266 313
#     4   9  16  32  58  86 118 148 177 222 282 352
#     4   9  19  37  57  77 109 150 186 221 270 329
#     4  10  19  34  55  84 116 148 181 224 288 346
#     4   9  16  27  50  80 107 134 173 216 272 347
#     4  11  23  36  52  81 113 146 186 238 280 334
#
# _framework density 16.837795
#
# number of rings (size 3 to 8) (size 9 to 14) (size 15 to 20)
#    0.000    2.385    1.538    1.385    1.077    3.077 
#    6.923    2.308    0.000    0.000    0.000    0.000 
#    0.000    0.615    0.000    0.000    0.000    0.000 
#
# Total GULP energy -289592.898720 kJ/mol
# GULP energy per Si atom -5569.094206 kJ/mol
# Density = 1.679947 g / cm^3
# Si number density = 16.837795 Si / 1000 Ang^3
#
#
#
# Elastic Constant Matrix: (Units=GPa)
#
#
# Indices 1 2 3 4 5 6 
#
# 1 43.5097 3.2447 27.6801 0.0000 0.0000 0.0000
# 2 3.2447 105.8257 41.5901 0.0000 0.0000 0.0000
# 3 27.6801 41.5901 86.7027 0.0000 0.0000 0.0000
# 4 0.0000 0.0000 0.0000 21.1297 0.0000 0.0000
# 5 0.0000 0.0000 0.0000 0.0000 13.9062 0.0000
# 6 0.0000 0.0000 0.0000 0.0000 0.0000 13.8889
#
#
#
# Elastic Compliance Matrix: (Units=1/GPa)
#
#
# Indices 1 2 3 4 5 6 
#
# 1 0.029850 0.003487 -0.011203 0.000000 0.000000 0.000000
# 2 0.003487 0.012052 -0.006895 0.000000 0.000000 0.000000
# 3 -0.011203 -0.006895 0.018417 0.000000 0.000000 0.000000
# 4 0.000000 0.000000 0.000000 0.047327 0.000000 0.000000
# 5 0.000000 0.000000 0.000000 0.000000 0.071910 0.000000
# 6 0.000000 0.000000 0.000000 0.000000 0.000000 0.072000
#
#
# Mechanical properties :
#
#
# Convention : Reuss Voigt Hill
#
# Bulk Modulus (GPa) = 32.15420 42.34087 37.24754
# Shear Modulus (GPa) = 17.17368 20.68652 18.93010
#
# Velocity S-wave (km/s) = 3.19713 3.50891 3.35664
# Velocity P-wave (km/s) = 5.72422 6.45116 6.09853
#
# Compressibility (1/GPa) = 0.03110014
#
# Stress axis : x y z
#
# Youngs Moduli (GPa) = 33.50062 82.97225 54.29638
#
# Poissons Ratio (x) = -0.28936 0.60826
# Poissons Ratio (y) = -0.11683 0.37436
# Poissons Ratio (z) = 0.37530 0.57207
#
# Static dielectric constant tensor:
#      x y z
#    x 1.554680 0.000000 0.000000 
#    y 0.000000 1.592010 0.000000 
#    z 0.000000 0.000000 1.604480 
# 
# From -- ./inp_files/45168.got.cif
#   From: 2010.05.17/outbox.cif.g08.bks.cpg/sg71_23_cif.got.tgz:45168.got - 2010.06.03 16:22:01.
