data_PCOD9520550
_publ_section_title
;
Structure prediction by ZEFSAII (Michael W. Deem and Ramdas Pophale) SiO2 
 PCOD9520550
Probable space group: I M M M
;
_chemical_formula_sum "Si O2"
_cell_formula_units_Z 120
_cell_length_a 14.956985
_cell_length_b 22.429219
_cell_length_c 22.761371
_cell_angle_alpha 90.000000
_cell_angle_beta 90.000000
_cell_angle_gamma 90.000000
_cell_volume 7635.836615
_symmetry_space_group_name_H-M "I M M M"
_symmetry_group_IT_number 71
_symmetry_cell_setting 'orthorhombic'
loop_
_space_group_symop_operation_xyz
x,y,z
-x,-y,z
x,-y,-z
-x,y,-z
-x,-y,-z
x,y,-z
-x,y,z
x,-y,z
1/2+x,1/2+y,1/2+z
1/2-x,1/2-y,1/2+z
1/2+x,1/2-y,1/2-z
1/2-x,1/2+y,1/2-z
1/2-x,1/2-y,1/2-z
1/2+x,1/2+y,1/2-z
1/2-x,1/2+y,1/2+z
1/2+x,1/2-y,1/2+z
loop_
_atom_site_type_symbol
_atom_site_label
_atom_site_fract_x
_atom_site_fract_y
_atom_site_fract_z
Si Si1 0.894018 0.745471 0.325301
Si Si2 0.753022 0.403424 0.067056
Si Si3 0.735672 0.261552 0.065631
Si Si4 0.895665 0.337692 0.783376
Si Si5 0.102916 0.221691 0.867737
Si Si6 0.739885 0.568472 0.191031
Si Si7 0.402098 0.000000 0.569736
Si Si8 0.605323 0.359097 0.741721
O O1 0.834912 0.746812 0.383437
O O2 0.875455 0.690955 0.280629
O O3 0.875113 0.805312 0.287711
O O4 0.000000 0.744839 0.338225
O O5 0.759040 0.332199 0.067621
O O6 0.698635 0.421106 0.125417
O O7 0.844016 0.440499 0.079904
O O8 0.724676 0.420370 0.000000
O O9 0.826097 0.226635 0.080858
O O10 0.702785 0.248565 0.000000
O O11 0.888478 0.282337 0.828836
O O12 0.824135 0.387674 0.799629
O O13 0.000000 0.357078 0.784305
O O14 0.122899 0.168340 0.822411
O O15 0.000000 0.217487 0.886742
O O16 0.766716 0.500000 0.196069
O O17 0.666864 0.586940 0.238938
O O18 0.500000 0.000000 0.598033
O O19 0.413423 0.000000 0.500000
O O20 0.500000 0.372169 0.745538
#
# Coordination Sequence:
#
# PCOD9520550 Si02
#       8
#    16  16  16  16  16  16   8  16
#     4   9  17  32  53  69  87 120 158 197 239 284
#     4  10  20  31  40  58  89 129 167 195 227 263
#     4  11  20  29  45  70 100 126 151 193 234 274
#     4   9  18  32  49  70  92 118 156 195 237 290
#     4   9  17  31  51  69  89 121 155 192 238 290
#     4  12  21  30  47  68  93 127 160 202 242 268
#     4   9  18  32  44  52  73 121 177 209 225 258
#     4   9  18  33  51  68  86 115 161 204 241 283
#
# _framework density 15.71537
#
# number of rings (size 3 to 8) (size 9 to 14) (size 15 to 20)
#    0.000    2.200    3.333    2.400    0.000    4.267 
#    0.000    1.333    0.000    0.400    0.000    0.933 
#    0.000    8.533    0.000   23.467    0.000    0.000 
#
# Total GULP energy -334223.499228 kJ/mol
# GULP energy per Si atom -5570.391654 kJ/mol
# Density = 1.567960 g / cm^3
# Si number density = 15.715370 Si / 1000 Ang^3
#
#
#
# Elastic Constant Matrix: (Units=GPa)
#
#
# Indices 1 2 3 4 5 6 
#
# 1 23.5220 19.9035 21.8909 0.0000 0.0000 0.0000
# 2 19.9035 47.9789 21.1102 0.0000 0.0000 0.0000
# 3 21.8909 21.1102 57.5841 0.0000 0.0000 0.0000
# 4 0.0000 0.0000 0.0000 13.8710 0.0000 0.0000
# 5 0.0000 0.0000 0.0000 0.0000 14.7659 0.0000
# 6 0.0000 0.0000 0.0000 0.0000 0.0000 -1.6102
#
#
#
# Elastic Compliance Matrix: (Units=1/GPa)
#
#
# Indices 1 2 3 4 5 6 
#
# 1 0.085516 -0.025243 -0.023255 0.000000 0.000000 0.000000
# 2 -0.025243 0.032303 -0.002246 0.000000 0.000000 0.000000
# 3 -0.023255 -0.002246 0.027030 0.000000 0.000000 0.000000
# 4 0.000000 0.000000 0.000000 0.072093 0.000000 0.000000
# 5 0.000000 0.000000 0.000000 0.000000 0.067723 0.000000
# 6 0.000000 0.000000 0.000000 0.000000 0.000000 -0.621041
#
#
# Mechanical properties :
#
#
# Convention : Reuss Voigt Hill
#
# Bulk Modulus (GPa) = 23.06277 28.32158 25.69217
# Shear Modulus (GPa) = -22.68254 9.81736 -6.43259
#
# Velocity S-wave (km/s) = -3.80325 2.50211 -2.02536
# Velocity P-wave (km/s) = 2.13988 5.13888 3.30371
#
# Compressibility (1/GPa) = 0.04335993
#
# Stress axis : x y z
#
# Youngs Moduli (GPa) = 11.69369 30.95729 36.99633
#
# Poissons Ratio (x) = 0.78147 0.86036
# Poissons Ratio (y) = 0.29519 0.08308
# Poissons Ratio (z) = 0.27194 0.06952
#
# Static dielectric constant tensor:
#      x y z
#    x 1.552670 0.000000 0.000000 
#    y 0.000000 1.510760 0.000000 
#    z 0.000000 0.000000 1.539790 
# 
# From -- ./inp_files/60206.got.cif
#   From: 2010.05.17/outbox.cif.g08.bks.cpg/sg71_31_cif.got.tgz:60206.got - 2010.06.03 16:22:01.
