data_PCOD9520745
_publ_section_title
;
Structure prediction by ZEFSAII (Michael W. Deem and Ramdas Pophale) SiO2 
 PCOD9520745
Probable space group: I M M M
;
_chemical_formula_sum "Si O2"
_cell_formula_units_Z 96
_cell_length_a 32.445311
_cell_length_b 12.507014
_cell_length_c 14.520718
_cell_angle_alpha 90.000000
_cell_angle_beta 90.000000
_cell_angle_gamma 90.000000
_cell_volume 5892.419643
_symmetry_space_group_name_H-M "I M M M"
_symmetry_group_IT_number 71
_symmetry_cell_setting 'orthorhombic'
loop_
_space_group_symop_operation_xyz
x,y,z
-x,-y,z
x,-y,-z
-x,y,-z
-x,-y,-z
x,y,-z
-x,y,z
x,-y,z
1/2+x,1/2+y,1/2+z
1/2-x,1/2-y,1/2+z
1/2+x,1/2-y,1/2-z
1/2-x,1/2+y,1/2-z
1/2-x,1/2-y,1/2-z
1/2+x,1/2+y,1/2-z
1/2-x,1/2+y,1/2+z
1/2+x,1/2-y,1/2+z
loop_
_atom_site_type_symbol
_atom_site_label
_atom_site_fract_x
_atom_site_fract_y
_atom_site_fract_z
Si Si1 0.239769 0.197501 0.389284
Si Si2 0.319937 0.500000 0.110847
Si Si3 0.396755 0.871942 0.772257
Si Si4 0.799887 0.627405 0.265318
Si Si5 0.046794 0.370169 0.104235
Si Si6 0.546933 0.724896 0.110688
Si Si7 0.914350 0.000000 0.387633
O O1 0.245005 0.200576 0.500000
O O2 0.206030 0.105645 0.365218
O O3 0.223230 0.307633 0.345843
O O4 0.280317 0.164662 0.331887
O O5 0.366883 0.500000 0.145096
O O6 0.322493 0.500000 0.000000
O O7 0.348403 0.847937 0.770309
O O8 0.419548 0.837319 0.678283
O O9 0.421163 0.811330 0.851862
O O10 0.401309 0.000000 0.782006
O O11 0.794464 0.500000 0.274283
O O12 0.046879 0.500000 0.103180
O O13 0.000000 0.337629 0.128784
O O14 0.055510 0.334603 0.000000
O O15 0.500000 0.745723 0.141206
O O16 0.562179 0.607467 0.140750
O O17 0.547230 0.726278 0.000000
O O18 0.913817 0.000000 0.500000
#
# Coordination Sequence:
#
# PCOD9520745 Si02
#       7
#    16   8  16  16  16  16   8
#     4  10  20  35  54  75 101 134 170 210 260 313
#     4   9  16  29  52  75  95 127 167 207 255 304
#     4  10  20  32  48  73 104 134 163 203 251 305
#     4  10  21  35  51  75 104 132 169 212 259 312
#     4   8  14  26  44  66  93 126 163 199 237 283
#     4  10  20  33  49  71 102 138 174 211 250 294
#     4   9  17  30  49  72  95 124 170 219 250 280
#
# _framework density 16.292117999999999
#
# number of rings (size 3 to 8) (size 9 to 14) (size 15 to 20)
#    0.000    2.500    0.833    2.250    0.000    5.333 
#    0.000    4.167    0.000    0.000    0.000    0.583 
#    0.000    2.667    0.000    0.000    0.000    0.000 
#
# Total GULP energy -267461.086050 kJ/mol
# GULP energy per Si atom -5572.105959 kJ/mol
# Density = 1.625504 g / cm^3
# Si number density = 16.292118 Si / 1000 Ang^3
#
#
#
# Elastic Constant Matrix: (Units=GPa)
#
#
# Indices 1 2 3 4 5 6 
#
# 1 128.2775 57.8028 42.2940 0.0000 0.0000 0.0000
# 2 57.8028 62.4461 33.9276 0.0000 0.0000 0.0000
# 3 42.2940 33.9276 65.1676 0.0000 0.0000 0.0000
# 4 0.0000 0.0000 0.0000 9.5361 0.0000 0.0000
# 5 0.0000 0.0000 0.0000 0.0000 22.8670 0.0000
# 6 0.0000 0.0000 0.0000 0.0000 0.0000 21.0608
#
#
#
# Elastic Compliance Matrix: (Units=1/GPa)
#
#
# Indices 1 2 3 4 5 6 
#
# 1 0.013844 -0.011062 -0.003226 0.000000 0.000000 0.000000
# 2 -0.011062 0.031169 -0.009048 0.000000 0.000000 0.000000
# 3 -0.003226 -0.009048 0.022149 0.000000 0.000000 0.000000
# 4 0.000000 0.000000 0.000000 0.104864 0.000000 0.000000
# 5 0.000000 0.000000 0.000000 0.000000 0.043731 0.000000
# 6 0.000000 0.000000 0.000000 0.000000 0.000000 0.047482
#
#
# Mechanical properties :
#
#
# Convention : Reuss Voigt Hill
#
# Bulk Modulus (GPa) = 48.80236 58.21556 53.50896
# Shear Modulus (GPa) = 15.78585 18.81725 17.30155
#
# Velocity S-wave (km/s) = 3.11613 3.40220 3.26231
# Velocity P-wave (km/s) = 6.55490 7.15844 6.86330
#
# Compressibility (1/GPa) = 0.02049081
#
# Stress axis : x y z
#
# Youngs Moduli (GPa) = 72.23562 32.08329 45.14862
#
# Poissons Ratio (x) = 0.35490 0.14563
# Poissons Ratio (y) = 0.79905 0.40851
# Poissons Ratio (z) = 0.23300 0.29029
#
# Static dielectric constant tensor:
#      x y z
#    x 1.549840 0.000000 0.000000 
#    y 0.000000 1.539980 0.000000 
#    z 0.000000 0.000000 1.544420 
# 
# From -- ./inp_files/33191.got.cif
#   From: 2010.05.17/outbox.cif.g08.bks.cpg/sg71_17_cif.got.tgz:33191.got - 2010.06.03 16:22:01.
