data_PCOD9520895
_publ_section_title
;
Structure prediction by ZEFSAII (Michael W. Deem and Ramdas Pophale) SiO2 
 PCOD9520895
Probable space group: I M M M
;
_chemical_formula_sum "Si O2"
_cell_formula_units_Z 104
_cell_length_a 20.929943
_cell_length_b 8.955733
_cell_length_c 32.899585
_cell_angle_alpha 90.000000
_cell_angle_beta 90.000000
_cell_angle_gamma 90.000000
_cell_volume 6166.796293
_symmetry_space_group_name_H-M "I M M M"
_symmetry_group_IT_number 71
_symmetry_cell_setting 'orthorhombic'
loop_
_space_group_symop_operation_xyz
x,y,z
-x,-y,z
x,-y,-z
-x,y,-z
-x,-y,-z
x,y,-z
-x,y,z
x,-y,z
1/2+x,1/2+y,1/2+z
1/2-x,1/2-y,1/2+z
1/2+x,1/2-y,1/2-z
1/2-x,1/2+y,1/2-z
1/2-x,1/2-y,1/2-z
1/2+x,1/2+y,1/2-z
1/2-x,1/2+y,1/2+z
1/2+x,1/2-y,1/2+z
loop_
_atom_site_type_symbol
_atom_site_label
_atom_site_fract_x
_atom_site_fract_y
_atom_site_fract_z
Si Si1 0.814597 0.319598 0.635662
Si Si2 0.205870 0.679870 0.544560
Si Si3 0.179384 0.675483 0.156865
Si Si4 0.924713 0.168486 0.000000
Si Si5 0.426443 0.678990 0.714787
Si Si6 0.341071 0.825651 0.437313
Si Si7 0.572904 0.178666 0.803175
O O1 0.807909 0.500000 0.636209
O O2 0.823594 0.273143 0.588219
O O3 0.749656 0.249788 0.654032
O O4 0.874869 0.278632 0.663373
O O5 0.179890 0.728261 0.500000
O O6 0.205598 0.500000 0.544480
O O7 0.277972 0.739585 0.548022
O O8 0.185837 0.500000 0.166658
O O9 0.128723 0.751315 0.186844
O O10 0.153260 0.689787 0.110935
O O11 0.899583 0.255148 0.039098
O O12 0.000000 0.162457 0.000000
O O13 0.898467 0.000000 0.000000
O O14 0.500000 0.721009 0.702933
O O15 0.422225 0.500000 0.713521
O O16 0.417081 0.737370 0.760694
O O17 0.333976 0.000000 0.446992
O O18 0.500000 0.207808 0.816728
O O19 0.578575 0.000000 0.796048
#
# Coordination Sequence:
#
# PCOD9520895 Si02
#       7
#    16  16  16   8  16  16  16
#     4   9  18  32  51  77 105 134 171 212 255 303
#     4   9  16  28  49  73  98 129 163 200 244 296
#     4  10  21  35  52  76 104 133 167 211 259 304
#     4  11  23  35  47  65  91 127 168 205 246 297
#     4  10  21  36  54  75  99 132 173 213 256 308
#     4  10  20  33  49  69  94 124 161 206 250 291
#     4   9  18  34  55  76 101 135 172 210 254 305
#
# _framework density 16.864509999999999
#
# number of rings (size 3 to 8) (size 9 to 14) (size 15 to 20)
#    0.000    2.385    0.769    1.615    0.000    5.231 
#    0.000    3.077    0.000    0.462    0.000    3.231 
#    0.000    0.000    0.000   11.538    0.000   12.000 
#
# Total GULP energy -289788.967321 kJ/mol
# GULP energy per Si atom -5572.864756 kJ/mol
# Density = 1.682613 g / cm^3
# Si number density = 16.864510 Si / 1000 Ang^3
#
#
#
# Elastic Constant Matrix: (Units=GPa)
#
#
# Indices 1 2 3 4 5 6 
#
# 1 102.3643 40.3905 83.8762 0.0000 0.0000 0.0000
# 2 40.3905 30.6325 41.0709 0.0000 0.0000 0.0000
# 3 83.8762 41.0709 118.8615 0.0000 0.0000 0.0000
# 4 0.0000 0.0000 0.0000 17.3271 0.0000 0.0000
# 5 0.0000 0.0000 0.0000 0.0000 31.4249 0.0000
# 6 0.0000 0.0000 0.0000 0.0000 0.0000 14.5555
#
#
#
# Elastic Compliance Matrix: (Units=1/GPa)
#
#
# Indices 1 2 3 4 5 6 
#
# 1 0.028361 -0.019679 -0.013213 0.000000 0.000000 0.000000
# 2 -0.019679 0.074479 -0.011848 0.000000 0.000000 0.000000
# 3 -0.013213 -0.011848 0.021831 0.000000 0.000000 0.000000
# 4 0.000000 0.000000 0.000000 0.057713 0.000000 0.000000
# 5 0.000000 0.000000 0.000000 0.000000 0.031822 0.000000
# 6 0.000000 0.000000 0.000000 0.000000 0.000000 0.068702
#
#
# Mechanical properties :
#
#
# Convention : Reuss Voigt Hill
#
# Bulk Modulus (GPa) = 28.41769 64.72595 46.57182
# Shear Modulus (GPa) = 13.01679 18.42954 15.72316
#
# Velocity S-wave (km/s) = 2.78122 3.30934 3.05671
# Velocity P-wave (km/s) = 5.21544 7.28461 6.33508
#
# Compressibility (1/GPa) = 0.03518934
#
# Stress axis : x y z
#
# Youngs Moduli (GPa) = 35.25992 13.42666 45.80592
#
# Poissons Ratio (x) = 0.26423 0.60525
# Poissons Ratio (y) = 0.69389 0.54272
# Poissons Ratio (z) = 0.46590 0.15908
#
# Static dielectric constant tensor:
#      x y z
#    x 1.542720 0.000000 0.000000 
#    y 0.000000 1.572380 0.000000 
#    z 0.000000 0.000000 1.584040 
# 
# From -- ./inp_files/70777.got.cif
#   From: 2010.05.17/outbox.cif.g08.bks.cpg/sg71_36_cif.got.tgz:70777.got - 2010.06.03 16:22:01.
