data_PCOD9520659
_publ_section_title
;
Structure prediction by ZEFSAII (Michael W. Deem and Ramdas Pophale) SiO2 
 PCOD9520659
Probable space group: I M M M
;
_chemical_formula_sum "Si O2"
_cell_formula_units_Z 56
_cell_length_a 39.982113
_cell_length_b 7.306573
_cell_length_c 8.410916
_cell_angle_alpha 90.000000
_cell_angle_beta 90.000000
_cell_angle_gamma 90.000000
_cell_volume 2457.099625
_symmetry_space_group_name_H-M "I M M M"
_symmetry_group_IT_number 71
_symmetry_cell_setting 'orthorhombic'
loop_
_space_group_symop_operation_xyz
x,y,z
-x,-y,z
x,-y,-z
-x,y,-z
-x,-y,-z
x,y,-z
-x,y,z
x,-y,z
1/2+x,1/2+y,1/2+z
1/2-x,1/2-y,1/2+z
1/2+x,1/2-y,1/2-z
1/2-x,1/2+y,1/2-z
1/2-x,1/2-y,1/2-z
1/2+x,1/2+y,1/2-z
1/2-x,1/2+y,1/2+z
1/2+x,1/2-y,1/2+z
loop_
_atom_site_type_symbol
_atom_site_label
_atom_site_fract_x
_atom_site_fract_y
_atom_site_fract_z
Si Si1 0.961199 0.722874 0.000000
Si Si2 0.924068 0.722896 0.676110
Si Si3 0.644364 0.222781 0.678838
Si Si4 0.213544 0.718491 0.321454
O O1 0.943926 0.782156 0.165553
O O2 0.959095 0.500000 0.000000
O O3 0.000000 0.773981 0.000000
O O4 0.935596 0.781734 0.500000
O O5 0.925493 0.500000 0.676109
O O6 0.885354 0.776240 0.703681
O O7 0.635891 0.279463 0.500000
O O8 0.681430 0.286031 0.724795
O O9 0.644718 0.000000 0.679191
O O10 0.212443 0.790429 0.500000
O O11 0.209668 0.500000 0.328268
O O12 0.250000 0.750000 0.250000
#
# Coordination Sequence:
#
# PCOD9520659 Si02
#       4
#     8  16  16  16
#     4   9  16  24  32  46  70  98 131 173 219 263
#     4   9  15  23  35  50  69  96 133 174 214 258
#     4   9  15  25  41  58  77 103 137 179 222 262
#     4  10  20  32  46  66  90 117 152 192 235 281
#
# _framework density 22.7911
#
# number of rings (size 3 to 8) (size 9 to 14) (size 15 to 20)
#    0.000    2.714    1.429    1.714    0.000    5.714 
#    0.000    2.857    0.000    0.000    0.000    0.000 
#    0.000    0.000    0.000    0.000    0.000    2.857 
#
# Total GULP energy -156354.510438 kJ/mol
# GULP energy per Si atom -5584.089658 kJ/mol
# Density = 2.273923 g / cm^3
# Si number density = 22.791100 Si / 1000 Ang^3
#
#
#
# Elastic Constant Matrix: (Units=GPa)
#
#
# Indices 1 2 3 4 5 6 
#
# 1 144.9324 -2.1583 85.2662 0.0000 0.0000 0.0000
# 2 -2.1583 92.2000 3.4344 0.0000 0.0000 0.0000
# 3 85.2662 3.4344 204.0312 0.0000 0.0000 0.0000
# 4 0.0000 0.0000 0.0000 -11.0207 0.0000 0.0000
# 5 0.0000 0.0000 0.0000 0.0000 33.0929 0.0000
# 6 0.0000 0.0000 0.0000 0.0000 0.0000 -0.7871
#
#
#
# Elastic Compliance Matrix: (Units=1/GPa)
#
#
# Indices 1 2 3 4 5 6 
#
# 1 0.009161 0.000357 -0.003834 0.000000 0.000000 0.000000
# 2 0.000357 0.010867 -0.000332 0.000000 0.000000 0.000000
# 3 -0.003834 -0.000332 0.006509 0.000000 0.000000 0.000000
# 4 0.000000 0.000000 0.000000 -0.090738 0.000000 0.000000
# 5 0.000000 0.000000 0.000000 0.000000 0.030218 0.000000
# 6 0.000000 0.000000 0.000000 0.000000 0.000000 -1.270466
#
#
# Mechanical properties :
#
#
# Convention : Reuss Voigt Hill
#
# Bulk Modulus (GPa) = 52.85930 68.24979 60.55455
# Shear Modulus (GPa) = -3.87440 27.89843 12.01202
#
# Velocity S-wave (km/s) = -1.30524 3.50250 2.29824
# Velocity P-wave (km/s) = 4.57950 6.80937 5.80255
#
# Compressibility (1/GPa) = 0.01891815
#
# Stress axis : x y z
#
# Youngs Moduli (GPa) = 109.15879 92.02407 153.62752
#
# Poissons Ratio (x) = -0.03288 0.58908
# Poissons Ratio (y) = -0.03900 0.05104
# Poissons Ratio (z) = 0.41856 0.03057
#
# Static dielectric constant tensor:
#      x y z
#    x 1.819940 0.000000 0.000000 
#    y 0.000000 1.889420 0.000000 
#    z 0.000000 0.000000 1.834270 
# 
# From -- ./inp_files/16079.got.cif
#   From: 2010.05.17/outbox.cif.g08.bks.cpg/sg71_9_cif.got.tgz:16079.got - 2010.06.03 16:22:01.
