data_PCOD9520955
_publ_section_title
;
Structure prediction by ZEFSAII (Michael W. Deem and Ramdas Pophale) SiO2 
 PCOD9520955
Probable space group: I M M M
;
_chemical_formula_sum "Si O2"
_cell_formula_units_Z 112
_cell_length_a 14.374630
_cell_length_b 10.690644
_cell_length_c 36.162300
_cell_angle_alpha 90.000000
_cell_angle_beta 90.000000
_cell_angle_gamma 90.000000
_cell_volume 5557.207169
_symmetry_space_group_name_H-M "I M M M"
_symmetry_group_IT_number 71
_symmetry_cell_setting 'orthorhombic'
loop_
_space_group_symop_operation_xyz
x,y,z
-x,-y,z
x,-y,-z
-x,y,-z
-x,-y,-z
x,y,-z
-x,y,z
x,-y,z
1/2+x,1/2+y,1/2+z
1/2-x,1/2-y,1/2+z
1/2+x,1/2-y,1/2-z
1/2-x,1/2+y,1/2-z
1/2-x,1/2-y,1/2-z
1/2+x,1/2+y,1/2-z
1/2-x,1/2+y,1/2+z
1/2+x,1/2-y,1/2+z
loop_
_atom_site_type_symbol
_atom_site_label
_atom_site_fract_x
_atom_site_fract_y
_atom_site_fract_z
Si Si1 0.888816 0.362013 0.096369
Si Si2 0.887809 0.645623 0.598840
Si Si3 0.604844 0.272462 0.672520
Si Si4 0.113228 0.859943 0.457613
Si Si5 0.196553 0.641214 0.325121
Si Si6 0.607753 0.144270 0.247702
Si Si7 0.113533 0.141222 0.957231
O O1 0.850479 0.500000 0.088509
O O2 0.879741 0.326619 0.139472
O O3 0.854368 0.249119 0.070589
O O4 0.000000 0.367743 0.089615
O O5 0.858672 0.500000 0.593010
O O6 0.858800 0.742669 0.567242
O O7 0.848156 0.694685 0.637846
O O8 0.000000 0.645039 0.600633
O O9 0.500000 0.324239 0.667407
O O10 0.693028 0.361514 0.670255
O O11 0.610500 0.212125 0.713055
O O12 0.144495 0.845506 0.500000
O O13 0.000000 0.858933 0.458003
O O14 0.140240 0.000000 0.444694
O O15 0.158567 0.500000 0.323063
O O16 0.167751 0.700383 0.285920
O O17 0.500000 0.145864 0.235385
O O18 0.636003 0.000000 0.254178
O O19 0.000000 0.140437 0.956296
O O20 0.143112 0.000000 0.946816
O O21 0.139914 0.164457 0.000000
#
# Coordination Sequence:
#
# PCOD9520955 Si02
#       7
#    16  16  16  16  16  16  16
#     4   9  17  29  46  69  96 126 164 210 255 299
#     4   9  17  30  50  77 108 140 176 219 263 308
#     4  10  20  33  50  72 100 135 173 214 259 307
#     4   8  14  26  46  74 109 146 178 208 252 316
#     4  10  20  33  50  74 103 135 174 216 259 311
#     4   9  17  32  55  78 100 129 166 211 263 315
#     4   8  14  25  42  66  95 125 159 202 255 313
#
# _framework density 20.154008999999999
#
# number of rings (size 3 to 8) (size 9 to 14) (size 15 to 20)
#    0.000    3.000    0.000    2.143    0.000    4.857 
#    0.000    5.714    0.000    1.714    0.000    2.000 
#    0.000    0.000    0.000    0.000    0.000    0.000 
#
# Total GULP energy -312078.293345 kJ/mol
# GULP energy per Si atom -5572.826667 kJ/mol
# Density = 2.010814 g / cm^3
# Si number density = 20.154009 Si / 1000 Ang^3
#
#
#
# Elastic Constant Matrix: (Units=GPa)
#
#
# Indices 1 2 3 4 5 6 
#
# 1 67.4639 20.5032 30.0893 0.0000 0.0000 0.0000
# 2 20.5032 108.5993 78.9285 0.0000 0.0000 0.0000
# 3 30.0893 78.9285 126.6525 0.0000 0.0000 0.0000
# 4 0.0000 0.0000 0.0000 12.7480 0.0000 0.0000
# 5 0.0000 0.0000 0.0000 0.0000 -7.5596 0.0000
# 6 0.0000 0.0000 0.0000 0.0000 0.0000 6.3640
#
#
#
# Elastic Compliance Matrix: (Units=1/GPa)
#
#
# Indices 1 2 3 4 5 6 
#
# 1 0.016594 -0.000489 -0.003637 0.000000 0.000000 0.000000
# 2 -0.000489 0.016846 -0.010382 0.000000 0.000000 0.000000
# 3 -0.003637 -0.010382 0.015230 0.000000 0.000000 0.000000
# 4 0.000000 0.000000 0.000000 0.078444 0.000000 0.000000
# 5 0.000000 0.000000 0.000000 0.000000 -0.132282 0.000000
# 6 0.000000 0.000000 0.000000 0.000000 0.000000 0.157134
#
#
# Mechanical properties :
#
#
# Convention : Reuss Voigt Hill
#
# Bulk Modulus (GPa) = 50.88486 62.41752 56.65119
# Shear Modulus (GPa) = 26.66190 13.85679 20.25935
#
# Velocity S-wave (km/s) = 3.64113 2.62495 3.17397
# Velocity P-wave (km/s) = 6.55591 6.34229 6.44998
#
# Compressibility (1/GPa) = 0.01965221
#
# Stress axis : x y z
#
# Youngs Moduli (GPa) = 60.26382 59.36107 65.66107
#
# Poissons Ratio (x) = 0.02905 0.23883
# Poissons Ratio (y) = 0.02949 0.68170
# Poissons Ratio (z) = 0.21920 0.61629
#
# Static dielectric constant tensor:
#      x y z
#    x 1.728510 0.000000 0.000000 
#    y 0.000000 1.472960 0.000000 
#    z 0.000000 0.000000 1.723210 
# 
# From -- ./inp_files/69947.got.cif
#   From: 2010.05.17/outbox.cif.g08.bks.cpg/sg71_35_cif.got.tgz:69947.got - 2010.06.03 16:22:01.
