data_PCOD9520182
_publ_section_title
;
Structure prediction by ZEFSAII (Michael W. Deem and Ramdas Pophale) SiO2 
 PCOD9520182
Probable space group: I M M M
;
_chemical_formula_sum "Si O2"
_cell_formula_units_Z 104
_cell_length_a 26.326720
_cell_length_b 10.104871
_cell_length_c 23.700952
_cell_angle_alpha 90.000000
_cell_angle_beta 90.000000
_cell_angle_gamma 90.000000
_cell_volume 6305.119453
_symmetry_space_group_name_H-M "I M M M"
_symmetry_group_IT_number 71
_symmetry_cell_setting 'orthorhombic'
loop_
_space_group_symop_operation_xyz
x,y,z
-x,-y,z
x,-y,-z
-x,y,-z
-x,-y,-z
x,y,-z
-x,y,z
x,-y,z
1/2+x,1/2+y,1/2+z
1/2-x,1/2-y,1/2+z
1/2+x,1/2-y,1/2-z
1/2-x,1/2+y,1/2-z
1/2-x,1/2-y,1/2-z
1/2+x,1/2+y,1/2-z
1/2-x,1/2+y,1/2+z
1/2+x,1/2-y,1/2+z
loop_
_atom_site_type_symbol
_atom_site_label
_atom_site_fract_x
_atom_site_fract_y
_atom_site_fract_z
Si Si1 0.000000 0.840656 0.936081
Si Si2 0.302722 0.347863 0.689672
Si Si3 0.559431 0.000000 0.067212
Si Si4 0.209332 0.156438 0.676739
Si Si5 0.417161 0.343728 0.343729
Si Si6 0.060787 0.000000 0.434254
Si Si7 0.440844 0.848222 0.240991
Si Si8 0.891741 0.748689 0.626615
O O1 0.949608 0.808188 0.899450
O O2 0.000000 0.000000 0.940183
O O3 0.000000 0.787355 0.000000
O O4 0.285058 0.500000 0.680845
O O5 0.260864 0.240548 0.672771
O O6 0.309531 0.333015 0.757698
O O7 0.356006 0.331330 0.657087
O O8 0.590341 0.125379 0.089569
O O9 0.500000 0.000000 0.087207
O O10 0.557739 0.000000 0.000000
O O11 0.167319 0.218247 0.635457
O O12 0.216212 0.000000 0.665635
O O13 0.427888 0.500000 0.331112
O O14 0.434987 0.245415 0.294819
O O15 0.081661 0.873980 0.401394
O O16 0.076706 0.000000 0.500000
O O17 0.000000 0.000000 0.433069
O O18 0.500000 0.853996 0.226064
O O19 0.412017 0.783932 0.188881
O O20 0.423246 0.000000 0.250982
#
# Coordination Sequence:
#
# PCOD9520182 Si02
#       8
#     8  16   8  16  16   8  16  16
#     4   9  18  34  59  89 119 153 186 221 276 337
#     4   9  19  33  52  79 116 149 184 228 280 343
#     4  11  24  42  60  79 112 156 198 236 285 347
#     4  10  20  35  53  81 112 148 187 230 289 344
#     4  10  19  34  56  86 115 148 186 232 277 336
#     4  11  24  40  58  81 110 150 194 236 283 339
#     4  11  22  33  49  80 121 150 181 227 288 339
#     4  12  22  37  57  83 112 148 190 243 285 342
#
# _framework density 16.494533000000001
#
# number of rings (size 3 to 8) (size 9 to 14) (size 15 to 20)
#    0.000    1.615    3.846    1.846    2.154    1.846 
#    0.000    0.000    0.000    2.769    0.000    0.000 
#    0.000    0.000    0.000    0.000    0.000    0.000 
#
# Total GULP energy -289921.038017 kJ/mol
# GULP energy per Si atom -5575.404577 kJ/mol
# Density = 1.645699 g / cm^3
# Si number density = 16.494533 Si / 1000 Ang^3
#
#
#
# Elastic Constant Matrix: (Units=GPa)
#
#
# Indices 1 2 3 4 5 6 
#
# 1 109.4927 64.8886 43.3853 0.0000 0.0000 0.0000
# 2 64.8886 129.8663 51.8861 0.0000 0.0000 0.0000
# 3 43.3853 51.8861 93.1493 0.0000 0.0000 0.0000
# 4 0.0000 0.0000 0.0000 4.9210 0.0000 0.0000
# 5 0.0000 0.0000 0.0000 0.0000 3.1217 0.0000
# 6 0.0000 0.0000 0.0000 0.0000 0.0000 34.3927
#
#
#
# Elastic Compliance Matrix: (Units=1/GPa)
#
#
# Indices 1 2 3 4 5 6 
#
# 1 0.013725 -0.005536 -0.003309 0.000000 0.000000 0.000000
# 2 -0.005536 0.012137 -0.004182 0.000000 0.000000 0.000000
# 3 -0.003309 -0.004182 0.014606 0.000000 0.000000 0.000000
# 4 0.000000 0.000000 0.000000 0.203210 0.000000 0.000000
# 5 0.000000 0.000000 0.000000 0.000000 0.320341 0.000000
# 6 0.000000 0.000000 0.000000 0.000000 0.000000 0.029076
#
#
# Mechanical properties :
#
#
# Convention : Reuss Voigt Hill
#
# Bulk Modulus (GPa) = 69.37576 72.53646 70.95611
# Shear Modulus (GPa) = 8.01342 19.97697 13.99519
#
# Velocity S-wave (km/s) = 2.20653 3.48390 2.91602
# Velocity P-wave (km/s) = 6.97444 7.76241 7.37895
#
# Compressibility (1/GPa) = 0.01441426
#
# Stress axis : x y z
#
# Youngs Moduli (GPa) = 72.86107 82.39187 68.46347
#
# Poissons Ratio (x) = 0.45609 0.22655
# Poissons Ratio (y) = 0.40333 0.28634
# Poissons Ratio (z) = 0.24110 0.34459
#
# Static dielectric constant tensor:
#      x y z
#    x 1.561340 0.000000 0.000000 
#    y 0.000000 1.571870 0.000000 
#    z 0.000000 0.000000 1.549620 
# 
# From -- ./inp_files/13398.got.cif
#   From: 2010.05.17/outbox.cif.g08.bks.cpg/sg71_7_cif.got.tgz:13398.got - 2010.06.03 16:22:01.
