data_PCOD9520217
_publ_section_title
;
Structure prediction by ZEFSAII (Michael W. Deem and Ramdas Pophale) SiO2 
 PCOD9520217
Probable space group: I M M M
;
_chemical_formula_sum "Si O2"
_cell_formula_units_Z 104
_cell_length_a 15.863754
_cell_length_b 15.148792
_cell_length_c 21.487255
_cell_angle_alpha 90.000000
_cell_angle_beta 90.000000
_cell_angle_gamma 90.000000
_cell_volume 5163.746422
_symmetry_space_group_name_H-M "I M M M"
_symmetry_group_IT_number 71
_symmetry_cell_setting 'orthorhombic'
loop_
_space_group_symop_operation_xyz
x,y,z
-x,-y,z
x,-y,-z
-x,y,-z
-x,-y,-z
x,y,-z
-x,y,z
x,-y,z
1/2+x,1/2+y,1/2+z
1/2-x,1/2-y,1/2+z
1/2+x,1/2-y,1/2-z
1/2-x,1/2+y,1/2-z
1/2-x,1/2-y,1/2-z
1/2+x,1/2+y,1/2-z
1/2-x,1/2+y,1/2+z
1/2+x,1/2-y,1/2+z
loop_
_atom_site_type_symbol
_atom_site_label
_atom_site_fract_x
_atom_site_fract_y
_atom_site_fract_z
Si Si1 0.220855 0.902942 0.663632
Si Si2 0.756900 0.602597 0.404041
Si Si3 0.598336 0.107065 0.000000
Si Si4 0.149354 0.595681 0.724100
Si Si5 0.091260 0.214541 0.267867
Si Si6 0.639350 0.899872 0.426107
Si Si7 0.405484 0.289603 0.379854
O O1 0.299099 0.902275 0.711714
O O2 0.160053 0.828023 0.687767
O O3 0.263678 0.892057 0.596774
O O4 0.180809 0.000000 0.668226
O O5 0.739296 0.500000 0.420911
O O6 0.840900 0.631354 0.441825
O O7 0.783747 0.603603 0.331893
O O8 0.673356 0.661556 0.412406
O O9 0.500000 0.138526 0.000000
O O10 0.592623 0.000000 0.000000
O O11 0.107480 0.500000 0.717620
O O12 0.092355 0.680851 0.722577
O O13 0.107378 0.199077 0.194509
O O14 0.000000 0.176851 0.282688
O O15 0.630612 0.894207 0.500000
O O16 0.596297 0.814457 0.396139
O O17 0.611606 0.000000 0.407490
O O18 0.500000 0.322930 0.395350
#
# Coordination Sequence:
#
# PCOD9520217 Si02
#       7
#    16  16   8  16  16  16  16
#     4  10  19  36  60  84 114 153 201 249 302 363
#     4  10  21  38  60  86 120 159 197 242 295 356
#     4   9  20  40  63  85 112 149 195 243 293 350
#     4  10  19  34  58  82 108 151 196 239 298 358
#     4  11  22  35  55  86 123 154 188 244 304 362
#     4  10  22  40  62  85 110 154 211 261 305 353
#     4  11  23  37  57  88 124 162 201 241 291 361
#
# _framework density 20.140415999999998
#
# number of rings (size 3 to 8) (size 9 to 14) (size 15 to 20)
#    0.000    1.769    3.077    1.385    1.077    2.154 
#    0.000    5.385    0.000    1.846    0.000    2.154 
#    0.000    0.000    0.000    0.000    0.000    0.000 
#
# Total GULP energy -289966.064609 kJ/mol
# GULP energy per Si atom -5576.270473 kJ/mol
# Density = 2.009458 g / cm^3
# Si number density = 20.140416 Si / 1000 Ang^3
#
#
#
# Elastic Constant Matrix: (Units=GPa)
#
#
# Indices 1 2 3 4 5 6 
#
# 1 121.9116 52.1680 11.0860 0.0000 0.0000 0.0000
# 2 52.1680 71.6577 -7.2626 0.0000 0.0000 0.0000
# 3 11.0860 -7.2626 24.4772 0.0000 0.0000 0.0000
# 4 0.0000 0.0000 0.0000 13.5189 0.0000 0.0000
# 5 0.0000 0.0000 0.0000 0.0000 15.6371 0.0000
# 6 0.0000 0.0000 0.0000 0.0000 0.0000 -15.8138
#
#
#
# Elastic Compliance Matrix: (Units=1/GPa)
#
#
# Indices 1 2 3 4 5 6 
#
# 1 0.013766 -0.010984 -0.009494 0.000000 0.000000 0.000000
# 2 -0.010984 0.023153 0.011845 0.000000 0.000000 0.000000
# 3 -0.009494 0.011845 0.048669 0.000000 0.000000 0.000000
# 4 0.000000 0.000000 0.000000 0.073971 0.000000 0.000000
# 5 0.000000 0.000000 0.000000 0.000000 0.063951 0.000000
# 6 0.000000 0.000000 0.000000 0.000000 0.000000 -0.063236
#
#
# Mechanical properties :
#
#
# Convention : Reuss Voigt Hill
#
# Bulk Modulus (GPa) = 14.63709 36.66992 25.65350
# Shear Modulus (GPa) = 24.96076 13.47210 19.21643
#
# Velocity S-wave (km/s) = 3.52424 2.58913 3.09224
# Velocity P-wave (km/s) = 4.88300 5.21390 5.05116
#
# Compressibility (1/GPa) = 0.06831961
#
# Stress axis : x y z
#
# Youngs Moduli (GPa) = 72.64041 43.19171 20.54710
#
# Poissons Ratio (x) = 0.47444 0.19508
# Poissons Ratio (y) = 0.79792 -0.24337
# Poissons Ratio (z) = 0.68966 -0.51159
#
# Static dielectric constant tensor:
#      x y z
#    x 1.697540 0.000000 0.000000 
#    y 0.000000 1.737520 0.000000 
#    z 0.000000 0.000000 1.748700 
# 
# From -- ./inp_files/59917.got.cif
#   From: 2010.05.17/outbox.cif.g08.bks.cpg/sg71_30_cif.got.tgz:59917.got - 2010.06.03 16:22:01.
