data_PCOD9520772
_publ_section_title
;
Structure prediction by ZEFSAII (Michael W. Deem and Ramdas Pophale) SiO2 
 PCOD9520772
Probable space group: I M M M
;
_chemical_formula_sum "Si O2"
_cell_formula_units_Z 88
_cell_length_a 8.550784
_cell_length_b 31.700155
_cell_length_c 18.259170
_cell_angle_alpha 90.000000
_cell_angle_beta 90.000000
_cell_angle_gamma 90.000000
_cell_volume 4949.352133
_symmetry_space_group_name_H-M "I M M M"
_symmetry_group_IT_number 71
_symmetry_cell_setting 'orthorhombic'
loop_
_space_group_symop_operation_xyz
x,y,z
-x,-y,z
x,-y,-z
-x,y,-z
-x,-y,-z
x,y,-z
-x,y,z
x,-y,z
1/2+x,1/2+y,1/2+z
1/2-x,1/2-y,1/2+z
1/2+x,1/2-y,1/2-z
1/2-x,1/2+y,1/2-z
1/2-x,1/2-y,1/2-z
1/2+x,1/2+y,1/2-z
1/2-x,1/2+y,1/2+z
1/2+x,1/2-y,1/2+z
loop_
_atom_site_type_symbol
_atom_site_label
_atom_site_fract_x
_atom_site_fract_y
_atom_site_fract_z
Si Si1 0.687436 0.617867 0.300261
Si Si2 0.686448 0.296107 0.233482
Si Si3 0.315237 0.828402 0.419089
Si Si4 0.180440 0.500000 0.087641
Si Si5 0.309209 0.547904 0.585316
Si Si6 0.316539 0.412094 0.864657
O O1 0.500000 0.621312 0.312277
O O2 0.746339 0.665890 0.286850
O O3 0.747682 0.586110 0.362961
O O4 0.710544 0.596182 0.221345
O O5 0.500000 0.295857 0.239844
O O6 0.750000 0.250000 0.250000
O O7 0.731032 0.307873 0.150274
O O8 0.261755 0.814691 0.500000
O O9 0.500000 0.820395 0.413407
O O10 0.282113 0.878112 0.409894
O O11 0.267208 0.541306 0.115395
O O12 0.000000 0.500000 0.112174
O O13 0.182548 0.500000 0.000000
O O14 0.266361 0.554043 0.500000
O O15 0.500000 0.548006 0.588606
O O16 0.260743 0.500000 0.607289
O O17 0.500000 0.404730 0.879232
#
# Coordination Sequence:
#
# PCOD9520772 Si02
#       6
#    16  16  16   8  16  16
#     4   8  16  29  45  69  99 130 165 206 253 303
#     4  10  20  35  54  76 104 138 175 218 267 316
#     4  10  20  35  55  77 102 133 169 212 263 316
#     4  11  23  35  45  63  96 133 168 210 255 297
#     4   8  13  22  40  67  99 133 163 196 245 303
#     4  10  20  32  49  72  98 133 171 210 254 302
#
# _framework density 17.780104000000001
#
# number of rings (size 3 to 8) (size 9 to 14) (size 15 to 20)
#    0.000    2.636    0.000    4.091    1.273    4.364 
#    0.000    0.909    0.000    3.273    0.000    0.000 
#    0.000   15.273    0.000    0.000    0.000    0.000 
#
# Total GULP energy -245183.694453 kJ/mol
# GULP energy per Si atom -5572.356692 kJ/mol
# Density = 1.773964 g / cm^3
# Si number density = 17.780104 Si / 1000 Ang^3
#
#
#
# Elastic Constant Matrix: (Units=GPa)
#
#
# Indices 1 2 3 4 5 6 
#
# 1 20.2424 15.2527 16.7029 0.0000 0.0000 0.0000
# 2 15.2527 154.8674 68.7501 0.0000 0.0000 0.0000
# 3 16.7029 68.7501 77.0528 0.0000 0.0000 0.0000
# 4 0.0000 0.0000 0.0000 14.3999 0.0000 0.0000
# 5 0.0000 0.0000 0.0000 0.0000 16.4745 0.0000
# 6 0.0000 0.0000 0.0000 0.0000 0.0000 24.6322
#
#
#
# Elastic Compliance Matrix: (Units=1/GPa)
#
#
# Indices 1 2 3 4 5 6 
#
# 1 0.060167 -0.000225 -0.012842 0.000000 0.000000 0.000000
# 2 -0.000225 0.010693 -0.009492 0.000000 0.000000 0.000000
# 3 -0.012842 -0.009492 0.024231 0.000000 0.000000 0.000000
# 4 0.000000 0.000000 0.000000 0.069445 0.000000 0.000000
# 5 0.000000 0.000000 0.000000 0.000000 0.060700 0.000000
# 6 0.000000 0.000000 0.000000 0.000000 0.000000 0.040597
#
#
# Mechanical properties :
#
#
# Convention : Reuss Voigt Hill
#
# Bulk Modulus (GPa) = 20.01060 50.39714 35.20387
# Shear Modulus (GPa) = 15.26208 21.19844 18.23026
#
# Velocity S-wave (km/s) = 2.93299 3.45665 3.20553
# Velocity P-wave (km/s) = 4.76957 6.65864 5.79165
#
# Compressibility (1/GPa) = 0.04997350
#
# Stress axis : x y z
#
# Youngs Moduli (GPa) = 16.62040 93.51796 41.26905
#
# Poissons Ratio (x) = 0.02103 0.52997
# Poissons Ratio (y) = 0.00374 0.39173
# Poissons Ratio (z) = 0.21344 0.88769
#
# Static dielectric constant tensor:
#      x y z
#    x 1.610580 0.000000 0.000000 
#    y 0.000000 1.638860 0.000000 
#    z 0.000000 0.000000 1.606590 
# 
# From -- ./inp_files/42457.got.cif
#   From: 2010.05.17/outbox.cif.g08.bks.cpg/sg71_22_cif.got.tgz:42457.got - 2010.06.03 16:22:01.
