data_PCOD9520556
_publ_section_title
;
Structure prediction by ZEFSAII (Michael W. Deem and Ramdas Pophale) SiO2 
 PCOD9520556
Probable space group: I M M M
;
_chemical_formula_sum "Si O2"
_cell_formula_units_Z 112
_cell_length_a 26.035843
_cell_length_b 7.345920
_cell_length_c 27.347119
_cell_angle_alpha 90.000000
_cell_angle_beta 90.000000
_cell_angle_gamma 90.000000
_cell_volume 5230.333950
_symmetry_space_group_name_H-M "I M M M"
_symmetry_group_IT_number 71
_symmetry_cell_setting 'orthorhombic'
loop_
_space_group_symop_operation_xyz
x,y,z
-x,-y,z
x,-y,-z
-x,y,-z
-x,-y,-z
x,y,-z
-x,y,z
x,-y,z
1/2+x,1/2+y,1/2+z
1/2-x,1/2-y,1/2+z
1/2+x,1/2-y,1/2-z
1/2-x,1/2+y,1/2-z
1/2-x,1/2-y,1/2-z
1/2+x,1/2+y,1/2-z
1/2-x,1/2+y,1/2+z
1/2+x,1/2-y,1/2+z
loop_
_atom_site_type_symbol
_atom_site_label
_atom_site_fract_x
_atom_site_fract_y
_atom_site_fract_z
Si Si1 0.437742 0.215421 0.947573
Si Si2 0.710013 0.710365 0.052640
Si Si3 0.059052 0.719956 0.341773
Si Si4 0.655930 0.709349 0.342580
Si Si5 0.355974 0.287127 0.762798
Si Si6 0.168264 0.221134 0.052762
Si Si7 0.723128 0.277779 0.157948
O O1 0.500000 0.229700 0.946712
O O2 0.421140 0.287929 0.894847
O O3 0.425773 0.000000 0.948389
O O4 0.420672 0.292397 0.000000
O O5 0.693732 0.500000 0.052257
O O6 0.772334 0.716858 0.052669
O O7 0.698154 0.786500 0.106415
O O8 0.694186 0.792177 0.000000
O O9 0.058915 0.500000 0.344180
O O10 0.094563 0.774269 0.297103
O O11 0.000000 0.778224 0.335460
O O12 0.638182 0.500000 0.344194
O O13 0.637324 0.791600 0.291391
O O14 0.643855 0.786826 0.396408
O O15 0.718096 0.715835 0.339293
O O16 0.343874 0.500000 0.755371
O O17 0.309276 0.213586 0.795606
O O18 0.169548 0.000000 0.054376
O O19 0.145866 0.274700 0.000000
O O20 0.723230 0.500000 0.156754
#
# Coordination Sequence:
#
# PCOD9520556 Si02
#       7
#    16  16  16  16  16  16  16
#     4   7  10  20  41  65  83  99 125 167 216 255
#     4   8  13  22  36  52  72 102 138 171 202 236
#     4   9  18  32  49  67  84 105 138 177 212 248
#     4   9  17  28  42  61  85 112 141 172 206 245
#     4  10  20  31  42  60  87 115 141 169 206 253
#     4   8  13  22  37  56  77 102 133 169 206 239
#     4   9  17  28  41  58  81 110 143 174 203 240
#
# _framework density 21.413547999999999
#
# number of rings (size 3 to 8) (size 9 to 14) (size 15 to 20)
#    0.000    3.429    0.000    1.714    0.000    1.429 
#    0.000    0.714    0.000    1.286    0.000    6.000 
#    0.000    0.571    0.000    7.143    0.000    1.143 
#
# Total GULP energy -312072.699303 kJ/mol
# GULP energy per Si atom -5572.726773 kJ/mol
# Density = 2.136481 g / cm^3
# Si number density = 21.413548 Si / 1000 Ang^3
#
#
#
# Elastic Constant Matrix: (Units=GPa)
#
#
# Indices 1 2 3 4 5 6 
#
# 1 31.0868 -8.5151 30.5022 0.0000 0.0000 0.0000
# 2 -8.5151 88.1475 7.5859 0.0000 0.0000 0.0000
# 3 30.5022 7.5859 259.7698 0.0000 0.0000 0.0000
# 4 0.0000 0.0000 0.0000 14.5601 0.0000 0.0000
# 5 0.0000 0.0000 0.0000 0.0000 70.1686 0.0000
# 6 0.0000 0.0000 0.0000 0.0000 0.0000 9.1587
#
#
#
# Elastic Compliance Matrix: (Units=1/GPa)
#
#
# Indices 1 2 3 4 5 6 
#
# 1 0.037737 0.004037 -0.004549 0.000000 0.000000 0.000000
# 2 0.004037 0.011805 -0.000819 0.000000 0.000000 0.000000
# 3 -0.004549 -0.000819 0.004408 0.000000 0.000000 0.000000
# 4 0.000000 0.000000 0.000000 0.068681 0.000000 0.000000
# 5 0.000000 0.000000 0.000000 0.000000 0.014251 0.000000
# 6 0.000000 0.000000 0.000000 0.000000 0.000000 0.109186
#
#
# Mechanical properties :
#
#
# Convention : Reuss Voigt Hill
#
# Bulk Modulus (GPa) = 19.49767 48.68335 34.09051
# Shear Modulus (GPa) = 18.80931 42.07288 30.44109
#
# Velocity S-wave (km/s) = 2.96697 4.43739 3.77448
# Velocity P-wave (km/s) = 4.56752 7.00272 5.91187
#
# Compressibility (1/GPa) = 0.05128818
#
# Stress axis : x y z
#
# Youngs Moduli (GPa) = 26.49907 84.70950 226.88007
#
# Poissons Ratio (x) = -0.34197 1.03208
# Poissons Ratio (y) = -0.10697 0.18576
# Poissons Ratio (z) = 0.12054 0.06936
#
# Static dielectric constant tensor:
#      x y z
#    x 1.725700 0.000000 0.000000 
#    y 0.000000 1.743170 0.000000 
#    z 0.000000 0.000000 1.886400 
# 
# From -- ./inp_files/66587.got.cif
#   From: 2010.05.17/outbox.cif.g08.bks.cpg/sg71_34_cif.got.tgz:66587.got - 2010.06.03 16:22:01.
