data_PCOD9520027
_publ_section_title
;
Structure prediction by ZEFSAII (Michael W. Deem and Ramdas Pophale) SiO2 
 PCOD9520027
Probable space group: I M M M
;
_chemical_formula_sum "Si O2"
_cell_formula_units_Z 64
_cell_length_a 24.088657
_cell_length_b 15.254140
_cell_length_c 8.906488
_cell_angle_alpha 90.000000
_cell_angle_beta 90.000000
_cell_angle_gamma 90.000000
_cell_volume 3272.704569
_symmetry_space_group_name_H-M "I M M M"
_symmetry_group_IT_number 71
_symmetry_cell_setting 'orthorhombic'
loop_
_space_group_symop_operation_xyz
x,y,z
-x,-y,z
x,-y,-z
-x,y,-z
-x,-y,-z
x,y,-z
-x,y,z
x,-y,z
1/2+x,1/2+y,1/2+z
1/2-x,1/2-y,1/2+z
1/2+x,1/2-y,1/2-z
1/2-x,1/2+y,1/2-z
1/2-x,1/2-y,1/2-z
1/2+x,1/2+y,1/2-z
1/2-x,1/2+y,1/2+z
1/2+x,1/2-y,1/2+z
loop_
_atom_site_type_symbol
_atom_site_label
_atom_site_fract_x
_atom_site_fract_y
_atom_site_fract_z
Si Si1 0.000000 0.096419 0.754023
Si Si2 0.500000 0.785674 0.819966
Si Si3 0.601210 0.500000 0.839644
Si Si4 0.725296 0.162348 0.320880
Si Si5 0.288803 0.500000 0.323586
Si Si6 0.611369 0.896586 0.821331
O O1 0.000000 0.199213 0.786008
O O2 0.058293 0.081005 0.669267
O O3 0.000000 0.000000 0.841439
O O4 0.554528 0.844258 0.794180
O O5 0.500000 0.760563 0.000000
O O6 0.645550 0.500000 0.708912
O O7 0.630694 0.500000 0.000000
O O8 0.728647 0.164893 0.500000
O O9 0.750000 0.250000 0.250000
O O10 0.662330 0.144986 0.268545
O O11 0.761663 0.083620 0.254210
O O12 0.277102 0.500000 0.500000
O O13 0.605869 0.000000 0.784722
O O14 0.623557 0.890855 0.000000
#
# Coordination Sequence:
#
# PCOD9520027 Si02
#       6
#     8   8   8  16   8  16
#     4   8  19  33  55  90 129 167 214 263 315 387
#     4  10  19  33  59  92 124 168 215 262 320 384
#     4   9  18  34  58  86 123 165 209 256 309 373
#     4  12  26  44  67  96 130 171 216 266 326 388
#     4  12  25  43  65  95 131 170 215 266 322 386
#     4  10  21  39  63  92 128 167 215 268 319 382
#
# _framework density 19.555690999999999
#
# number of rings (size 3 to 8) (size 9 to 14) (size 15 to 20)
#    0.750    0.750    1.250    5.250    3.500    1.500 
#    0.000    1.875    0.000    3.000    0.000    0.000 
#    0.000    0.000    0.000    0.000    0.000    0.000 
#
# Total GULP energy -178323.641199 kJ/mol
# GULP energy per Si atom -5572.613787 kJ/mol
# Density = 1.951118 g / cm^3
# Si number density = 19.555691 Si / 1000 Ang^3
#
#
#
# Elastic Constant Matrix: (Units=GPa)
#
#
# Indices 1 2 3 4 5 6 
#
# 1 144.3568 76.8274 62.9128 0.0000 0.0000 0.0000
# 2 76.8274 185.6770 75.3410 0.0000 0.0000 0.0000
# 3 62.9128 75.3410 125.5657 0.0000 0.0000 0.0000
# 4 0.0000 0.0000 0.0000 14.2927 0.0000 0.0000
# 5 0.0000 0.0000 0.0000 0.0000 -53.5895 0.0000
# 6 0.0000 0.0000 0.0000 0.0000 0.0000 28.2460
#
#
#
# Elastic Compliance Matrix: (Units=1/GPa)
#
#
# Indices 1 2 3 4 5 6 
#
# 1 0.009807 -0.002728 -0.003277 0.000000 0.000000 0.000000
# 2 -0.002728 0.007878 -0.003360 0.000000 0.000000 0.000000
# 3 -0.003277 -0.003360 0.011622 0.000000 0.000000 0.000000
# 4 0.000000 0.000000 0.000000 0.069966 0.000000 0.000000
# 5 0.000000 0.000000 0.000000 0.000000 -0.018660 0.000000
# 6 0.000000 0.000000 0.000000 0.000000 0.000000 0.035403
#
#
# Mechanical properties :
#
#
# Convention : Reuss Voigt Hill
#
# Bulk Modulus (GPa) = 94.54484 98.41800 96.48142
# Shear Modulus (GPa) = 36.16077 13.82439 24.99258
#
# Velocity S-wave (km/s) = 4.30480 2.66169 3.57882
# Velocity P-wave (km/s) = 8.55335 7.73837 8.15605
#
# Compressibility (1/GPa) = 0.01057699
#
# Stress axis : x y z
#
# Youngs Moduli (GPa) = 101.96358 126.93700 86.04609
#
# Poissons Ratio (x) = 0.34634 0.28195
# Poissons Ratio (y) = 0.27820 0.28910
# Poissons Ratio (z) = 0.33411 0.42649
#
# Static dielectric constant tensor:
#      x y z
#    x 1.661480 0.000000 0.000000 
#    y 0.000000 1.671020 0.000000 
#    z 0.000000 0.000000 1.681020 
# 
# From -- ./inp_files/12055.got.cif
#   From: 2010.05.17/outbox.cif.g08.bks.cpg/sg71_7_cif.got.tgz:12055.got - 2010.06.03 16:22:01.
