data_PCOD9520819
_publ_section_title
;
Structure prediction by ZEFSAII (Michael W. Deem and Ramdas Pophale) SiO2 
 PCOD9520819
Probable space group: I M M M
;
_chemical_formula_sum "Si O2"
_cell_formula_units_Z 88
_cell_length_a 9.997574
_cell_length_b 30.207422
_cell_length_c 17.291563
_cell_angle_alpha 90.000000
_cell_angle_beta 90.000000
_cell_angle_gamma 90.000000
_cell_volume 5222.068225
_symmetry_space_group_name_H-M "I M M M"
_symmetry_group_IT_number 71
_symmetry_cell_setting 'orthorhombic'
loop_
_space_group_symop_operation_xyz
x,y,z
-x,-y,z
x,-y,-z
-x,y,-z
-x,-y,-z
x,y,-z
-x,y,z
x,-y,z
1/2+x,1/2+y,1/2+z
1/2-x,1/2-y,1/2+z
1/2+x,1/2-y,1/2-z
1/2-x,1/2+y,1/2-z
1/2-x,1/2-y,1/2-z
1/2+x,1/2+y,1/2-z
1/2-x,1/2+y,1/2+z
1/2+x,1/2-y,1/2+z
loop_
_atom_site_type_symbol
_atom_site_label
_atom_site_fract_x
_atom_site_fract_y
_atom_site_fract_z
Si Si1 0.341959 0.121088 0.368566
Si Si2 0.346686 0.553031 0.588761
Si Si3 0.838154 0.551003 0.000000
Si Si4 0.157365 0.612913 0.314089
Si Si5 0.346947 0.296915 0.093141
Si Si6 0.162366 0.698666 0.589208
O O1 0.500000 0.130066 0.383791
O O2 0.301367 0.080379 0.424708
O O3 0.327517 0.111054 0.277961
O O4 0.251913 0.163807 0.385199
O O5 0.317198 0.565894 0.500000
O O6 0.500000 0.565923 0.605765
O O7 0.339240 0.500000 0.593093
O O8 0.244082 0.575573 0.645591
O O9 0.788745 0.500000 0.000000
O O10 0.000000 0.548402 0.000000
O O11 0.200560 0.659692 0.352418
O O12 0.000000 0.607341 0.331804
O O13 0.500000 0.304073 0.121220
O O14 0.297402 0.247850 0.116346
O O15 0.353413 0.295230 0.000000
O O16 0.206805 0.690687 0.500000
O O17 0.000000 0.699937 0.586959
#
# Coordination Sequence:
#
# PCOD9520819 Si02
#       6
#    16  16   8  16  16  16
#     4  10  20  33  51  75 101 130 167 215 265 309
#     4   9  19  36  55  74 101 138 172 203 250 309
#     4   9  18  34  53  69  93 133 171 207 264 323
#     4  10  20  32  50  78 106 132 170 217 256 301
#     4   9  17  31  52  72  94 132 175 207 246 310
#     4   8  15  29  48  71 101 135 166 202 253 306
#
# _framework density 16.851562000000001
#
# number of rings (size 3 to 8) (size 9 to 14) (size 15 to 20)
#    0.000    2.818    0.909    2.182    0.000    3.636 
#    0.000    3.636    0.000    2.182    0.000    0.000 
#    0.000    0.000    0.000    0.000    0.000    0.000 
#
# Total GULP energy -245080.045974 kJ/mol
# GULP energy per Si atom -5570.001045 kJ/mol
# Density = 1.681321 g / cm^3
# Si number density = 16.851562 Si / 1000 Ang^3
#
#
#
# Elastic Constant Matrix: (Units=GPa)
#
#
# Indices 1 2 3 4 5 6 
#
# 1 41.8299 38.6672 45.6912 0.0001 0.0000 0.0000
# 2 38.6672 89.9744 62.9955 0.0001 0.0000 0.0000
# 3 45.6912 62.9955 84.2725 0.0004 0.0002 0.0001
# 4 0.0001 0.0001 0.0004 5.4974 0.0001 0.0001
# 5 0.0000 0.0000 0.0002 0.0001 8.4209 0.0001
# 6 0.0000 0.0000 0.0001 0.0001 0.0001 24.5208
#
#
#
# Elastic Compliance Matrix: (Units=1/GPa)
#
#
# Indices 1 2 3 4 5 6 
#
# 1 0.060306 -0.006345 -0.027954 0.000002 0.000001 0.000000
# 2 -0.006345 0.023986 -0.014490 0.000001 0.000000 0.000000
# 3 -0.027954 -0.014490 0.037854 -0.000003 -0.000001 0.000000
# 4 0.000002 0.000001 -0.000003 0.181905 -0.000003 0.000000
# 5 0.000001 0.000000 -0.000001 -0.000003 0.118752 0.000000
# 6 0.000000 0.000000 0.000000 0.000000 0.000000 0.040782
#
#
# Mechanical properties :
#
#
# Convention : Reuss Voigt Hill
#
# Bulk Modulus (GPa) = 40.70285 56.75384 48.72834
# Shear Modulus (GPa) = 8.78189 12.26932 10.52561
#
# Velocity S-wave (km/s) = 2.28531 2.70123 2.50193
# Velocity P-wave (km/s) = 5.58298 6.59398 6.10943
#
# Compressibility (1/GPa) = 0.02456831
#
# Stress axis : x y z
#
# Youngs Moduli (GPa) = 16.58212 41.69027 26.41726
#
# Poissons Ratio (x) = 0.26453 0.73846
# Poissons Ratio (y) = 0.10522 0.38279
# Poissons Ratio (z) = 0.46353 0.60410
#
# Static dielectric constant tensor:
#      x y z
#    x 1.556190 0.000000 0.000000 
#    y 0.000000 1.575060 0.000000 
#    z 0.000000 0.000000 1.566590 
# 
# From -- ./inp_files/8742.got.cif
#   From: 2010.05.17/outbox.cif.g08.bks.cpg/sg71_5_cif.got.tgz:8742.got - 2010.06.03 16:22:01.
