data_PCOD9520771
_publ_section_title
;
Structure prediction by ZEFSAII (Michael W. Deem and Ramdas Pophale) SiO2 
 PCOD9520771
Probable space group: I M M M
;
_chemical_formula_sum "Si O2"
_cell_formula_units_Z 104
_cell_length_a 9.162403
_cell_length_b 20.454901
_cell_length_c 32.807138
_cell_angle_alpha 90.000000
_cell_angle_beta 90.000000
_cell_angle_gamma 90.000000
_cell_volume 6148.584094
_symmetry_space_group_name_H-M "I M M M"
_symmetry_group_IT_number 71
_symmetry_cell_setting 'orthorhombic'
loop_
_space_group_symop_operation_xyz
x,y,z
-x,-y,z
x,-y,-z
-x,y,-z
-x,-y,-z
x,y,-z
-x,y,z
x,-y,z
1/2+x,1/2+y,1/2+z
1/2-x,1/2-y,1/2+z
1/2+x,1/2-y,1/2-z
1/2-x,1/2+y,1/2-z
1/2-x,1/2-y,1/2-z
1/2+x,1/2+y,1/2-z
1/2-x,1/2+y,1/2+z
1/2+x,1/2-y,1/2+z
loop_
_atom_site_type_symbol
_atom_site_label
_atom_site_fract_x
_atom_site_fract_y
_atom_site_fract_z
Si Si1 0.674759 0.761053 0.455205
Si Si2 0.330487 0.816525 0.836848
Si Si3 0.673172 0.423836 0.183234
Si Si4 0.825202 0.311674 0.866687
Si Si5 0.666763 0.500000 0.451124
Si Si6 0.331528 0.131262 0.928524
Si Si7 0.324514 0.074951 0.229461
O O1 0.709718 0.789385 0.500000
O O2 0.500000 0.751196 0.453457
O O3 0.714191 0.801298 0.414519
O O4 0.752798 0.691324 0.450789
O O5 0.500000 0.797822 0.828984
O O6 0.233853 0.751789 0.842200
O O7 0.326617 0.852214 0.880553
O O8 0.284181 0.868940 0.802811
O O9 0.500000 0.411595 0.184780
O O10 0.696194 0.500000 0.172300
O O11 0.750305 0.375155 0.152054
O O12 0.743550 0.414281 0.227870
O O13 0.000000 0.315370 0.863329
O O14 0.500000 0.500000 0.436451
O O15 0.665578 0.500000 0.500000
O O16 0.749321 0.564398 0.436748
O O17 0.500000 0.126788 0.941216
O O18 0.500000 0.078518 0.235367
O O19 0.292234 0.000000 0.215661
#
# Coordination Sequence:
#
# PCOD9520771 Si02
#       7
#    16  16  16  16   8  16  16
#     4   9  18  34  54  75 102 133 165 205 253 304
#     4   9  19  34  52  75 105 137 170 213 262 304
#     4  10  21  37  56  78 105 134 166 207 257 307
#     4  10  20  34  55  80 105 134 172 210 250 305
#     4  11  23  35  45  61  91 133 177 219 265 311
#     4  10  20  32  49  72  98 129 170 217 261 306
#     4   9  18  33  54  76 101 137 179 215 253 303
#
# _framework density 16.914463999999999
#
# number of rings (size 3 to 8) (size 9 to 14) (size 15 to 20)
#    0.000    2.385    0.000    2.077    1.077    6.154 
#    0.000    0.000    0.000    0.462    0.000    3.231 
#    0.000    0.000    0.000    0.000    0.000    0.000 
#
# Total GULP energy -290054.433519 kJ/mol
# GULP energy per Si atom -5577.969875 kJ/mol
# Density = 1.687597 g / cm^3
# Si number density = 16.914464 Si / 1000 Ang^3
#
#
#
# Elastic Constant Matrix: (Units=GPa)
#
#
# Indices 1 2 3 4 5 6 
#
# 1 55.0978 55.6601 49.2137 0.0000 0.0000 0.0000
# 2 55.6601 98.1126 77.1722 0.0000 0.0000 0.0000
# 3 49.2137 77.1722 103.6138 0.0000 0.0000 0.0000
# 4 0.0000 0.0000 0.0000 12.7572 0.0000 0.0000
# 5 0.0000 0.0000 0.0000 0.0000 23.8823 0.0000
# 6 0.0000 0.0000 0.0000 0.0000 0.0000 36.2109
#
#
#
# Elastic Compliance Matrix: (Units=1/GPa)
#
#
# Indices 1 2 3 4 5 6 
#
# 1 0.043795 -0.020484 -0.005545 0.000000 0.000000 0.000000
# 2 -0.020484 0.034191 -0.015736 0.000000 0.000000 0.000000
# 3 -0.005545 -0.015736 0.024005 0.000000 0.000000 0.000000
# 4 0.000000 0.000000 0.000000 0.078387 0.000000 0.000000
# 5 0.000000 0.000000 0.000000 0.000000 0.041872 0.000000
# 6 0.000000 0.000000 0.000000 0.000000 0.000000 0.027616
#
#
# Mechanical properties :
#
#
# Convention : Reuss Voigt Hill
#
# Bulk Modulus (GPa) = 54.16773 68.99070 61.57921
# Shear Modulus (GPa) = 14.72538 19.55530 17.14034
#
# Velocity S-wave (km/s) = 2.95376 3.40388 3.18678
# Velocity P-wave (km/s) = 6.61264 7.50500 7.07291
#
# Compressibility (1/GPa) = 0.01846118
#
# Stress axis : x y z
#
# Youngs Moduli (GPa) = 22.83347 29.24789 41.65760
#
# Poissons Ratio (x) = 0.59911 0.23099
# Poissons Ratio (y) = 0.46772 0.65552
# Poissons Ratio (z) = 0.12661 0.46024
#
# Static dielectric constant tensor:
#      x y z
#    x 1.567370 0.000000 0.000000 
#    y 0.000000 1.520010 0.000000 
#    z 0.000000 0.000000 1.575200 
# 
# From -- ./inp_files/16964.got.cif
#   From: 2010.05.17/outbox.cif.g08.bks.cpg/sg71_9_cif.got.tgz:16964.got - 2010.06.03 16:22:01.
