data_PCOD9520923
_publ_section_title
;
Structure prediction by ZEFSAII (Michael W. Deem and Ramdas Pophale) SiO2 
 PCOD9520923
Probable space group: I M M M
;
_chemical_formula_sum "Si O2"
_cell_formula_units_Z 88
_cell_length_a 28.865285
_cell_length_b 18.243159
_cell_length_c 7.563599
_cell_angle_alpha 90.000000
_cell_angle_beta 90.000000
_cell_angle_gamma 90.000000
_cell_volume 3982.945730
_symmetry_space_group_name_H-M "I M M M"
_symmetry_group_IT_number 71
_symmetry_cell_setting 'orthorhombic'
loop_
_space_group_symop_operation_xyz
x,y,z
-x,-y,z
x,-y,-z
-x,y,-z
-x,-y,-z
x,y,-z
-x,y,z
x,-y,z
1/2+x,1/2+y,1/2+z
1/2-x,1/2-y,1/2+z
1/2+x,1/2-y,1/2-z
1/2-x,1/2+y,1/2-z
1/2-x,1/2-y,1/2-z
1/2+x,1/2+y,1/2-z
1/2-x,1/2+y,1/2+z
1/2+x,1/2-y,1/2+z
loop_
_atom_site_type_symbol
_atom_site_label
_atom_site_fract_x
_atom_site_fract_y
_atom_site_fract_z
Si Si1 0.900294 0.082714 0.709499
Si Si2 0.948296 0.414265 0.715370
Si Si3 0.000000 0.916116 0.210054
Si Si4 0.351883 0.847803 0.216463
Si Si5 0.678878 0.312128 0.788589
Si Si6 0.759856 0.420327 0.287757
O O1 0.892673 0.076698 0.500000
O O2 0.951233 0.116853 0.733527
O O3 0.859850 0.132358 0.783814
O O4 0.900315 0.000000 0.783978
O O5 0.948341 0.411817 0.500000
O O6 0.942610 0.500000 0.763857
O O7 0.903617 0.368447 0.775458
O O8 0.000000 0.390349 0.772848
O O9 0.000000 0.000000 0.283097
O O10 0.000000 0.919685 0.000000
O O11 0.332575 0.769019 0.277112
O O12 0.312546 0.905898 0.269537
O O13 0.352977 0.847690 0.000000
O O14 0.727816 0.351145 0.757450
O O15 0.673744 0.307494 0.000000
O O16 0.759828 0.423295 0.500000
O O17 0.742638 0.500000 0.221858
#
# Coordination Sequence:
#
# PCOD9520923 Si02
#       6
#    16  16   8  16  16  16
#     4   9  17  30  46  64  90 124 160 198 242 290
#     4   8  13  23  42  68  98 131 164 199 241 292
#     4   9  17  29  47  69  89 115 156 203 242 280
#     4   9  17  30  46  69 101 132 163 201 250 300
#     4  10  20  33  49  72 101 132 164 204 251 296
#     4  10  20  33  51  73  98 132 170 207 248 296
#
# _framework density 22.094201000000002
#
# number of rings (size 3 to 8) (size 9 to 14) (size 15 to 20)
#    0.000    2.818    0.000    2.455    0.000    5.091 
#    1.636    1.818    0.000    0.000    0.000    0.000 
#    0.000    0.000    0.000    6.182    0.000    6.909 
#
# Total GULP energy -245446.113637 kJ/mol
# GULP energy per Si atom -5578.320764 kJ/mol
# Density = 2.204391 g / cm^3
# Si number density = 22.094201 Si / 1000 Ang^3
#
#
#
# Elastic Constant Matrix: (Units=GPa)
#
#
# Indices 1 2 3 4 5 6 
#
# 1 169.3100 66.4971 -6.5545 0.0000 0.0000 0.0000
# 2 66.4971 105.7535 4.5441 0.0000 0.0000 0.0000
# 3 -6.5545 4.5441 48.9698 0.0000 0.0000 0.0000
# 4 0.0000 0.0000 0.0000 2.7722 0.0000 0.0000
# 5 0.0000 0.0000 0.0000 0.0000 10.8260 0.0000
# 6 0.0000 0.0000 0.0000 0.0000 0.0000 11.3893
#
#
#
# Elastic Compliance Matrix: (Units=1/GPa)
#
#
# Indices 1 2 3 4 5 6 
#
# 1 0.007957 -0.005069 0.001535 0.000000 0.000000 0.000000
# 2 -0.005069 0.012723 -0.001859 0.000000 0.000000 0.000000
# 3 0.001535 -0.001859 0.020799 0.000000 0.000000 0.000000
# 4 0.000000 0.000000 0.000000 0.360725 0.000000 0.000000
# 5 0.000000 0.000000 0.000000 0.000000 0.092370 0.000000
# 6 0.000000 0.000000 0.000000 0.000000 0.000000 0.087802
#
#
# Mechanical properties :
#
#
# Convention : Reuss Voigt Hill
#
# Bulk Modulus (GPa) = 32.58071 50.33408 41.45740
# Shear Modulus (GPa) = 8.28648 22.30060 15.29354
#
# Velocity S-wave (km/s) = 1.93873 3.18046 2.63382
# Velocity P-wave (km/s) = 4.44858 6.02645 5.29660
#
# Compressibility (1/GPa) = 0.03069300
#
# Stress axis : x y z
#
# Youngs Moduli (GPa) = 125.68095 78.59645 48.07972
#
# Poissons Ratio (x) = 0.39841 -0.07382
# Poissons Ratio (y) = 0.63708 0.08939
# Poissons Ratio (z) = -0.19297 0.14612
#
# Static dielectric constant tensor:
#      x y z
#    x 1.823070 0.000000 0.000000 
#    y 0.000000 1.822520 0.000000 
#    z 0.000000 0.000000 1.844740 
# 
# From -- ./inp_files/16685.got.cif
#   From: 2010.05.17/outbox.cif.g08.bks.cpg/sg71_9_cif.got.tgz:16685.got - 2010.06.03 16:22:01.
