data_PCOD9520327
_publ_section_title
;
Structure prediction by ZEFSAII (Michael W. Deem and Ramdas Pophale) SiO2 
 PCOD9520327
Probable space group: I M M M
;
_chemical_formula_sum "Si O2"
_cell_formula_units_Z 82
_cell_length_a 20.980848
_cell_length_b 7.659933
_cell_length_c 24.300038
_cell_angle_alpha 90.000000
_cell_angle_beta 90.000000
_cell_angle_gamma 90.000000
_cell_volume 3905.305033
_symmetry_space_group_name_H-M "I M M M"
_symmetry_group_IT_number 71
_symmetry_cell_setting 'orthorhombic'
loop_
_space_group_symop_operation_xyz
x,y,z
-x,-y,z
x,-y,-z
-x,y,-z
-x,-y,-z
x,y,-z
-x,y,z
x,-y,z
1/2+x,1/2+y,1/2+z
1/2-x,1/2-y,1/2+z
1/2+x,1/2-y,1/2-z
1/2-x,1/2+y,1/2-z
1/2-x,1/2-y,1/2-z
1/2+x,1/2+y,1/2-z
1/2-x,1/2+y,1/2+z
1/2+x,1/2-y,1/2+z
loop_
_atom_site_type_symbol
_atom_site_label
_atom_site_fract_x
_atom_site_fract_y
_atom_site_fract_z
Si Si1 0.365313 0.795572 0.889409
Si Si2 0.634872 0.297304 0.347262
Si Si3 0.000000 0.713473 0.435308
Si Si4 0.233552 0.785537 0.061690
Si Si5 0.677396 0.291779 0.767329
Si Si6 0.000000 0.500000 0.000000
Si Si7 0.500000 0.808243 0.612925
O O1 0.434736 0.724470 0.905894
O O2 0.304708 0.724914 0.923201
O O3 0.346188 0.782141 0.825310
O O4 0.367942 0.000000 0.903714
O O5 0.653507 0.500000 0.341463
O O6 0.684586 0.222098 0.391573
O O7 0.638632 0.224724 0.285691
O O8 0.564360 0.284896 0.370296
O O9 0.000000 0.500000 0.432498
O O10 0.000000 0.760019 0.500000
O O11 0.232873 0.000000 0.062453
O O12 0.215222 0.732081 0.000000
O O13 0.671141 0.500000 0.773465
O O14 0.750000 0.250000 0.750000
O O15 0.000000 0.350972 0.048587
O O16 0.500000 0.000000 0.640774
#
# Coordination Sequence:
#
# PCOD9520327 Si02
#       7
#    16  16   8  16  16   2   8
#     4  10  19  35  57  87 121 154 197 241 292 347
#     4  10  21  38  59  84 112 153 200 242 281 345
#     4   9  18  33  59  91 122 159 199 244 288 338
#     4   9  17  30  53  82 112 147 193 243 285 334
#     4  11  22  38  60  86 118 152 196 243 296 346
#     4   8  24  44  58  80 128 152 182 226 314 356
#     4  10  23  40  58  81 116 151 184 232 296 344
#
# _framework density 20.997078999999999
#
# number of rings (size 3 to 8) (size 9 to 14) (size 15 to 20)
#    0.293    1.854    1.951    1.463    1.366    4.683 
#    0.000    2.927    0.000    2.927    0.000    0.000 
#    0.000    0.000    0.000    0.000    0.000    0.000 
#
# Total GULP energy -228438.768987 kJ/mol
# GULP energy per Si atom -5571.677292 kJ/mol
# Density = 2.094929 g / cm^3
# Si number density = 20.997079 Si / 1000 Ang^3
#
#
#
# Elastic Constant Matrix: (Units=GPa)
#
#
# Indices 1 2 3 4 5 6 
#
# 1 122.0358 -14.4193 32.3774 0.0000 0.0000 0.0000
# 2 -14.4193 33.9896 -18.2248 0.0000 0.0000 0.0000
# 3 32.3774 -18.2248 104.3087 0.0000 0.0000 0.0000
# 4 0.0000 0.0000 0.0000 19.8783 0.0000 0.0000
# 5 0.0000 0.0000 0.0000 0.0000 15.8566 0.0000
# 6 0.0000 0.0000 0.0000 0.0000 0.0000 -9.5393
#
#
#
# Elastic Compliance Matrix: (Units=1/GPa)
#
#
# Indices 1 2 3 4 5 6 
#
# 1 0.009133 0.002598 -0.002381 0.000000 0.000000 0.000000
# 2 0.002598 0.033201 0.004994 0.000000 0.000000 0.000000
# 3 -0.002381 0.004994 0.011199 0.000000 0.000000 0.000000
# 4 0.000000 0.000000 0.000000 0.050306 0.000000 0.000000
# 5 0.000000 0.000000 0.000000 0.000000 0.063065 0.000000
# 6 0.000000 0.000000 0.000000 0.000000 0.000000 -0.104829
#
#
# Mechanical properties :
#
#
# Convention : Reuss Voigt Hill
#
# Bulk Modulus (GPa) = 15.63601 28.86673 22.25137
# Shear Modulus (GPa) = 68.52128 22.61251 45.56689
#
# Velocity S-wave (km/s) = 5.71879 3.28523 4.66354
# Velocity P-wave (km/s) = 7.14626 5.30737 6.29433
#
# Compressibility (1/GPa) = 0.06395495
#
# Stress axis : x y z
#
# Youngs Moduli (GPa) = 109.49345 30.11978 89.29671
#
# Poissons Ratio (x) = -0.07825 0.21261
# Poissons Ratio (y) = -0.28444 -0.44599
# Poissons Ratio (z) = 0.26070 -0.15043
#
# Static dielectric constant tensor:
#      x y z
#    x 1.746520 0.000000 0.000000 
#    y 0.000000 1.820890 0.000000 
#    z 0.000000 0.000000 1.752290 
# 
# From -- ./inp_files/57493.got.cif
#   From: 2010.05.17/outbox.cif.g08.bks.cpg/sg71_29_cif.got.tgz:57493.got - 2010.06.03 16:22:01.
