data_PCOD9520335
_publ_section_title
;
Structure prediction by ZEFSAII (Michael W. Deem and Ramdas Pophale) SiO2 
 PCOD9520335
Probable space group: I M M M
;
_chemical_formula_sum "Si O2"
_cell_formula_units_Z 96
_cell_length_a 7.490653
_cell_length_b 22.639851
_cell_length_c 25.692162
_cell_angle_alpha 90.000000
_cell_angle_beta 90.000000
_cell_angle_gamma 90.000000
_cell_volume 4357.063558
_symmetry_space_group_name_H-M "I M M M"
_symmetry_group_IT_number 71
_symmetry_cell_setting 'orthorhombic'
loop_
_space_group_symop_operation_xyz
x,y,z
-x,-y,z
x,-y,-z
-x,y,-z
-x,-y,-z
x,y,-z
-x,y,z
x,-y,z
1/2+x,1/2+y,1/2+z
1/2-x,1/2-y,1/2+z
1/2+x,1/2-y,1/2-z
1/2-x,1/2+y,1/2-z
1/2-x,1/2-y,1/2-z
1/2+x,1/2+y,1/2-z
1/2-x,1/2+y,1/2+z
1/2+x,1/2-y,1/2+z
loop_
_atom_site_type_symbol
_atom_site_label
_atom_site_fract_x
_atom_site_fract_y
_atom_site_fract_z
Si Si1 0.709527 0.844496 0.646643
Si Si2 0.718036 0.932840 0.440635
Si Si3 0.215378 0.118540 0.238695
Si Si4 0.745566 0.000000 0.060574
Si Si5 0.213188 0.787697 0.843835
Si Si6 0.218764 0.000000 0.822846
Si Si7 0.287864 0.130688 0.942502
O O1 0.500000 0.837072 0.634558
O O2 0.783987 0.885530 0.601003
O O3 0.724778 0.876297 0.702135
O O4 0.786155 0.778471 0.651554
O O5 0.770549 0.919380 0.500000
O O6 0.500000 0.932915 0.439501
O O7 0.773492 0.000000 0.428219
O O8 0.281964 0.174129 0.204786
O O9 0.266080 0.058359 0.209493
O O10 0.000000 0.119738 0.238874
O O11 0.687615 0.000000 0.121236
O O12 0.812120 0.931999 0.061280
O O13 0.676284 0.000000 0.000000
O O14 0.244663 0.825303 0.896091
O O15 0.000000 0.783347 0.836466
O O16 0.000000 0.000000 0.831550
O O17 0.500000 0.115876 0.939722
O O18 0.252977 0.156288 0.000000
#
# Coordination Sequence:
#
# PCOD9520335 Si02
#       7
#    16  16  16   8  16   8  16
#     4  10  21  35  56  85 108 134 182 231 266 319
#     4   8  15  30  52  77 106 135 163 209 272 323
#     4  10  21  37  54  75 110 149 179 217 273 330
#     4  10  19  35  58  81 108 143 188 238 281 320
#     4  10  21  37  55  77 109 147 185 226 273 325
#     4  10  20  36  55  80 113 145 183 227 272 328
#     4  10  21  36  55  81 112 145 184 231 280 328
#
# _framework density 22.033187999999999
#
# number of rings (size 3 to 8) (size 9 to 14) (size 15 to 20)
#    0.000    2.333    1.667    1.250    1.167    3.500 
#    0.000    3.333    0.000    0.500    0.000    1.167 
#    0.000    0.000    0.000    0.000    0.000    0.000 
#
# Total GULP energy -267629.621265 kJ/mol
# GULP energy per Si atom -5575.617110 kJ/mol
# Density = 2.198304 g / cm^3
# Si number density = 22.033188 Si / 1000 Ang^3
#
#
#
# Elastic Constant Matrix: (Units=GPa)
#
#
# Indices 1 2 3 4 5 6 
#
# 1 67.6766 14.5273 -4.1480 0.0000 0.0000 0.0000
# 2 14.5273 162.5710 104.7681 0.0000 0.0000 0.0000
# 3 -4.1480 104.7681 152.9625 0.0000 0.0000 0.0000
# 4 0.0000 0.0000 0.0000 8.8507 0.0000 0.0000
# 5 0.0000 0.0000 0.0000 0.0000 9.6394 0.0000
# 6 0.0000 0.0000 0.0000 0.0000 0.0000 -0.1338
#
#
#
# Elastic Compliance Matrix: (Units=1/GPa)
#
#
# Indices 1 2 3 4 5 6 
#
# 1 0.015566 -0.002977 0.002461 0.000000 0.000000 0.000000
# 2 -0.002977 0.011581 -0.008013 0.000000 0.000000 0.000000
# 3 0.002461 -0.008013 0.012093 0.000000 0.000000 0.000000
# 4 0.000000 0.000000 0.000000 0.112986 0.000000 0.000001
# 5 0.000000 0.000000 0.000000 0.000000 0.103740 0.000000
# 6 0.000000 0.000000 0.000000 0.000001 0.000000 -7.471940
#
#
# Mechanical properties :
#
#
# Convention : Reuss Voigt Hill
#
# Bulk Modulus (GPa) = 45.08143 68.16720 56.62432
# Shear Modulus (GPa) = -0.69526 21.54210 10.42342
#
# Velocity S-wave (km/s) = -0.56235 3.13023 2.17740
# Velocity P-wave (km/s) = 4.48146 6.63853 5.66363
#
# Compressibility (1/GPa) = 0.02218208
#
# Stress axis : x y z
#
# Youngs Moduli (GPa) = 64.24234 86.34765 82.69539
#
# Poissons Ratio (x) = 0.25706 -0.20353
# Poissons Ratio (y) = 0.19126 0.66263
# Poissons Ratio (z) = -0.15811 0.69190
#
# Static dielectric constant tensor:
#      x y z
#    x 1.947280 0.000000 0.000000 
#    y 0.000000 1.779350 0.000000 
#    z 0.000000 0.000000 1.747360 
# 
# From -- ./inp_files/52042.got.cif
#   From: 2010.05.17/outbox.cif.g08.bks.cpg/sg71_27_cif.got.tgz:52042.got - 2010.06.03 16:22:01.
