data_PCOD9520860
_publ_section_title
;
Structure prediction by ZEFSAII (Michael W. Deem and Ramdas Pophale) SiO2 
 PCOD9520860
Probable space group: I M M M
;
_chemical_formula_sum "Si O2"
_cell_formula_units_Z 56
_cell_length_a 7.536559
_cell_length_b 14.781370
_cell_length_c 21.734934
_cell_angle_alpha 90.000000
_cell_angle_beta 90.000000
_cell_angle_gamma 90.000000
_cell_volume 2421.286147
_symmetry_space_group_name_H-M "I M M M"
_symmetry_group_IT_number 71
_symmetry_cell_setting 'orthorhombic'
loop_
_space_group_symop_operation_xyz
x,y,z
-x,-y,z
x,-y,-z
-x,y,-z
-x,-y,-z
x,y,-z
-x,y,z
x,-y,z
1/2+x,1/2+y,1/2+z
1/2-x,1/2-y,1/2+z
1/2+x,1/2-y,1/2-z
1/2-x,1/2+y,1/2-z
1/2-x,1/2-y,1/2-z
1/2+x,1/2+y,1/2-z
1/2-x,1/2+y,1/2+z
1/2+x,1/2-y,1/2+z
loop_
_atom_site_type_symbol
_atom_site_label
_atom_site_fract_x
_atom_site_fract_y
_atom_site_fract_z
Si Si1 0.782957 0.697962 0.068237
Si Si2 0.207971 0.500000 0.756799
Si Si3 0.282556 0.000000 0.604543
Si Si4 0.783777 0.000000 0.067887
Si Si5 0.211843 0.845477 0.159660
O O1 0.729401 0.593625 0.073381
O O2 0.723839 0.750468 0.130728
O O3 0.000000 0.702510 0.068596
O O4 0.729986 0.733852 0.000000
O O5 0.283761 0.500000 0.825077
O O6 0.246032 0.593562 0.719653
O O7 0.000000 0.500000 0.764425
O O8 0.500000 0.000000 0.603727
O O9 0.731207 0.087135 0.105458
O O10 0.000000 0.000000 0.066749
O O11 0.715805 0.000000 0.000000
O O12 0.000000 0.837386 0.162714
#
# Coordination Sequence:
#
# PCOD9520860 Si02
#       5
#    16   8   8   8  16
#     4   9  16  28  49  75  99 124 158 204 254 293
#     4  10  20  33  47  68 102 139 166 191 236 293
#     4   9  18  30  45  70 103 132 160 199 244 292
#     4   8  12  20  37  62  89 113 142 187 236 273
#     4   9  17  29  48  73  97 123 161 205 242 284
#
# _framework density 23.128205000000001
#
# number of rings (size 3 to 8) (size 9 to 14) (size 15 to 20)
#    0.000    3.000    0.000    2.571    0.000    6.286 
#    0.000    0.000    0.000   17.143    0.000    0.000 
#    0.000    6.857    0.000    0.000    0.000    0.000 
#
# Total GULP energy -155884.178240 kJ/mol
# GULP energy per Si atom -5567.292080 kJ/mol
# Density = 2.307556 g / cm^3
# Si number density = 23.128205 Si / 1000 Ang^3
#
#
#
# Elastic Constant Matrix: (Units=GPa)
#
#
# Indices 1 2 3 4 5 6 
#
# 1 52.7132 5.1567 0.1130 0.0000 0.0000 0.0000
# 2 5.1567 100.4545 14.9528 0.0000 0.0000 0.0000
# 3 0.1130 14.9528 114.7481 0.0000 0.0000 0.0000
# 4 0.0000 0.0000 0.0000 33.0056 0.0000 0.0000
# 5 0.0000 0.0000 0.0000 0.0000 10.7479 0.0000
# 6 0.0000 0.0000 0.0000 0.0000 0.0000 27.4303
#
#
#
# Elastic Compliance Matrix: (Units=1/GPa)
#
#
# Indices 1 2 3 4 5 6 
#
# 1 0.019068 -0.000995 0.000111 0.000000 0.000000 0.000000
# 2 -0.000995 0.010204 -0.001329 0.000000 0.000000 0.000000
# 3 0.000111 -0.001329 0.008888 0.000000 0.000000 0.000000
# 4 0.000000 0.000000 0.000000 0.030298 0.000000 0.000000
# 5 0.000000 0.000000 0.000000 0.000000 0.093041 0.000000
# 6 0.000000 0.000000 0.000000 0.000000 0.000000 0.036456
#
#
# Mechanical properties :
#
#
# Convention : Reuss Voigt Hill
#
# Bulk Modulus (GPa) = 29.64457 34.26231 31.95344
# Shear Modulus (GPa) = 23.40551 30.74965 27.07758
#
# Velocity S-wave (km/s) = 3.18463 3.65023 3.42535
# Velocity P-wave (km/s) = 5.13496 5.71067 5.43045
#
# Compressibility (1/GPa) = 0.03373299
#
# Stress axis : x y z
#
# Youngs Moduli (GPa) = 52.44469 98.00439 112.51414
#
# Poissons Ratio (x) = 0.09755 -0.01248
# Poissons Ratio (y) = 0.05220 0.14949
# Poissons Ratio (z) = -0.00582 0.13021
#
# Static dielectric constant tensor:
#      x y z
#    x 1.892130 0.000000 0.000000 
#    y 0.000000 1.161970 0.000000 
#    z 0.000000 0.000000 1.882880 
# 
# From -- ./inp_files/5114.got.cif
#   From: 2010.05.17/outbox.cif.g08.bks.cpg/sg71_3_cif.got.tgz:5114.got - 2010.06.03 16:22:01.
