data_PCOD9520447
_publ_section_title
;
Structure prediction by ZEFSAII (Michael W. Deem and Ramdas Pophale) SiO2 
 PCOD9520447
Probable space group: I M M M
;
_chemical_formula_sum "Si O2"
_cell_formula_units_Z 104
_cell_length_a 7.764536
_cell_length_b 21.489978
_cell_length_c 30.652216
_cell_angle_alpha 90.000000
_cell_angle_beta 90.000000
_cell_angle_gamma 90.000000
_cell_volume 5114.619806
_symmetry_space_group_name_H-M "I M M M"
_symmetry_group_IT_number 71
_symmetry_cell_setting 'orthorhombic'
loop_
_space_group_symop_operation_xyz
x,y,z
-x,-y,z
x,-y,-z
-x,y,-z
-x,-y,-z
x,y,-z
-x,y,z
x,-y,z
1/2+x,1/2+y,1/2+z
1/2-x,1/2-y,1/2+z
1/2+x,1/2-y,1/2-z
1/2-x,1/2+y,1/2-z
1/2-x,1/2-y,1/2-z
1/2+x,1/2+y,1/2-z
1/2-x,1/2+y,1/2+z
1/2+x,1/2-y,1/2+z
loop_
_atom_site_type_symbol
_atom_site_label
_atom_site_fract_x
_atom_site_fract_y
_atom_site_fract_z
Si Si1 0.797937 0.569399 0.280418
Si Si2 0.292090 0.072790 0.048413
Si Si3 0.294893 0.136886 0.550076
Si Si4 0.211310 0.280006 0.870118
Si Si5 0.207516 0.314448 0.225330
Si Si6 0.294195 0.500000 0.050102
Si Si7 0.801261 0.861246 0.864669
O O1 0.723052 0.500000 0.275799
O O2 0.724237 0.625276 0.251006
O O3 0.786305 0.593372 0.330063
O O4 0.000000 0.564967 0.269410
O O5 0.500000 0.077074 0.051188
O O6 0.212260 0.111155 0.087251
O O7 0.247235 0.000000 0.052665
O O8 0.240083 0.093834 0.000000
O O9 0.225609 0.141840 0.500000
O O10 0.500000 0.145784 0.546982
O O11 0.228570 0.185678 0.585914
O O12 0.264817 0.066649 0.567625
O O13 0.264239 0.312485 0.824973
O O14 0.269649 0.208635 0.865938
O O15 0.000000 0.279720 0.871609
O O16 0.250000 0.250000 0.250000
O O17 0.000000 0.317671 0.225194
O O18 0.500000 0.500000 0.050042
O O19 0.229240 0.500000 0.000000
O O20 0.000000 0.857376 0.850984
#
# Coordination Sequence:
#
# PCOD9520447 Si02
#       7
#    16  16  16  16  16   8  16
#     4  10  21  36  55  79 105 138 182 225 265 319
#     4   9  19  36  54  72 101 141 180 218 260 309
#     4   9  17  32  54  77 102 137 178 214 256 315
#     4   9  19  34  52  78 107 136 173 218 263 310
#     4  10  19  36  58  78 105 140 178 220 268 318
#     4   9  17  31  51  75 105 137 169 213 263 307
#     4  11  21  33  53  80 108 138 174 219 271 319
#
# _framework density 20.333867999999999
#
# number of rings (size 3 to 8) (size 9 to 14) (size 15 to 20)
#    0.000    2.385    1.538    1.615    0.000    4.308 
#    1.385    4.615    0.000    1.846    0.000    0.000 
#    0.000    0.000    0.000    0.000    0.000    0.000 
#
# Total GULP energy -290087.890716 kJ/mol
# GULP energy per Si atom -5578.613283 kJ/mol
# Density = 2.028759 g / cm^3
# Si number density = 20.333868 Si / 1000 Ang^3
#
#
#
# Elastic Constant Matrix: (Units=GPa)
#
#
# Indices 1 2 3 4 5 6 
#
# 1 28.3621 7.5265 4.7831 0.0000 0.0000 0.0000
# 2 7.5265 153.4100 75.8642 0.0000 0.0000 0.0000
# 3 4.7831 75.8642 128.5677 0.0000 0.0000 0.0000
# 4 0.0000 0.0000 0.0000 34.1871 0.0000 0.0000
# 5 0.0000 0.0000 0.0000 0.0000 10.7672 0.0000
# 6 0.0000 0.0000 0.0000 0.0000 0.0000 9.7190
#
#
#
# Elastic Compliance Matrix: (Units=1/GPa)
#
#
# Indices 1 2 3 4 5 6 
#
# 1 0.035739 -0.001547 -0.000417 0.000000 0.000000 0.000000
# 2 -0.001547 0.009271 -0.005413 0.000000 0.000000 0.000000
# 3 -0.000417 -0.005413 0.010988 0.000000 0.000000 0.000000
# 4 0.000000 0.000000 0.000000 0.029251 0.000000 0.000000
# 5 0.000000 0.000000 0.000000 0.000000 0.092875 0.000000
# 6 0.000000 0.000000 0.000000 0.000000 0.000000 0.102892
#
#
# Mechanical properties :
#
#
# Convention : Reuss Voigt Hill
#
# Bulk Modulus (GPa) = 24.24595 54.07637 39.16116
# Shear Modulus (GPa) = 16.15417 25.74571 20.94994
#
# Velocity S-wave (km/s) = 2.82165 3.56216 3.21331
# Velocity P-wave (km/s) = 4.75031 6.60080 5.75048
#
# Compressibility (1/GPa) = 0.04124399
#
# Stress axis : x y z
#
# Youngs Moduli (GPa) = 27.98044 107.85951 91.01112
#
# Poissons Ratio (x) = 0.16691 0.03791
# Poissons Ratio (y) = 0.04330 0.49266
# Poissons Ratio (z) = 0.01165 0.58386
#
# Static dielectric constant tensor:
#      x y z
#    x 1.766480 0.000000 0.000000 
#    y 0.000000 1.724290 0.000000 
#    z 0.000000 0.000000 1.712170 
# 
# From -- ./inp_files/56735.got.cif
#   From: 2010.05.17/outbox.cif.g08.bks.cpg/sg71_29_cif.got.tgz:56735.got - 2010.06.03 16:22:01.
