data_PCOD9520164
_publ_section_title
;
Structure prediction by ZEFSAII (Michael W. Deem and Ramdas Pophale) SiO2 
 PCOD9520164
Probable space group: I M M M
;
_chemical_formula_sum "Si O2"
_cell_formula_units_Z 72
_cell_length_a 7.512226
_cell_length_b 17.166854
_cell_length_c 25.631270
_cell_angle_alpha 90.000000
_cell_angle_beta 90.000000
_cell_angle_gamma 90.000000
_cell_volume 3305.441566
_symmetry_space_group_name_H-M "I M M M"
_symmetry_group_IT_number 71
_symmetry_cell_setting 'orthorhombic'
loop_
_space_group_symop_operation_xyz
x,y,z
-x,-y,z
x,-y,-z
-x,y,-z
-x,-y,-z
x,y,-z
-x,y,z
x,-y,z
1/2+x,1/2+y,1/2+z
1/2-x,1/2-y,1/2+z
1/2+x,1/2-y,1/2-z
1/2-x,1/2+y,1/2-z
1/2-x,1/2-y,1/2-z
1/2+x,1/2+y,1/2-z
1/2-x,1/2+y,1/2+z
1/2+x,1/2-y,1/2+z
loop_
_atom_site_type_symbol
_atom_site_label
_atom_site_fract_x
_atom_site_fract_y
_atom_site_fract_z
Si Si1 0.203876 0.327944 0.783811
Si Si2 0.217251 0.634201 0.441916
Si Si3 0.217709 0.500000 0.754090
Si Si4 0.216638 0.500000 0.366242
Si Si5 0.717576 0.588801 0.000000
Si Si6 0.784496 0.195973 0.595200
O O1 0.250000 0.250000 0.750000
O O2 0.284158 0.415244 0.774821
O O3 0.223716 0.311873 0.845348
O O4 0.000000 0.338853 0.769470
O O5 0.274262 0.611700 0.500000
O O6 0.277568 0.575135 0.397886
O O7 0.271543 0.721147 0.427995
O O8 0.000000 0.632986 0.442078
O O9 0.266430 0.500000 0.693399
O O10 0.000000 0.500000 0.760519
O O11 0.000000 0.500000 0.367165
O O12 0.774345 0.631807 0.946879
O O13 0.774646 0.500000 0.000000
O O14 0.500000 0.591161 0.000000
O O15 0.000000 0.194348 0.596590
#
# Coordination Sequence:
#
# PCOD9520164 Si02
#       6
#    16  16   8   8   8  16
#     4  11  23  40  60  84 115 151 193 239 291 347
#     4   9  15  25  44  74 106 135 169 211 261 319
#     4   9  20  37  55  79 111 146 185 236 290 337
#     4   9  15  24  43  69  99 133 170 214 263 316
#     4   9  18  32  53  82 112 146 189 235 284 339
#     4  10  19  34  56  81 112 146 186 234 283 335
#
# _framework density 21.782266
#
# number of rings (size 3 to 8) (size 9 to 14) (size 15 to 20)
#    0.000    2.333    1.111    2.333    1.556    4.889 
#    0.000    2.222    0.000    0.667    0.000    0.000 
#    0.000    3.556    0.000    0.000    0.000    0.000 
#
# Total GULP energy -200841.928283 kJ/mol
# GULP energy per Si atom -5578.942452 kJ/mol
# Density = 2.173269 g / cm^3
# Si number density = 21.782266 Si / 1000 Ang^3
#
#
#
# Elastic Constant Matrix: (Units=GPa)
#
#
# Indices 1 2 3 4 5 6 
#
# 1 52.3621 11.0144 -15.3806 0.0000 0.0000 0.0000
# 2 11.0144 124.7244 41.2861 0.0000 0.0000 0.0000
# 3 -15.3806 41.2861 109.3335 0.0000 0.0000 0.0000
# 4 0.0000 0.0000 0.0000 41.5644 0.0000 0.0000
# 5 0.0000 0.0000 0.0000 0.0000 19.9694 0.0000
# 6 0.0000 0.0000 0.0000 0.0000 0.0000 -1.6158
#
#
#
# Elastic Compliance Matrix: (Units=1/GPa)
#
#
# Indices 1 2 3 4 5 6 
#
# 1 0.021006 -0.003238 0.004178 0.000000 0.000000 0.000000
# 2 -0.003238 0.009662 -0.004104 0.000000 0.000000 0.000000
# 3 0.004178 -0.004104 0.011284 0.000000 0.000000 0.000000
# 4 0.000000 0.000000 0.000000 0.024059 0.000000 0.000000
# 5 0.000000 0.000000 0.000000 0.000000 0.050077 0.000000
# 6 0.000000 0.000000 0.000000 0.000000 0.000000 -0.618895
#
#
# Mechanical properties :
#
#
# Convention : Reuss Voigt Hill
#
# Bulk Modulus (GPa) = 28.07141 40.02885 34.05013
# Shear Modulus (GPa) = -10.31769 28.61692 9.14962
#
# Velocity S-wave (km/s) = -2.17877 3.62853 2.05173
# Velocity P-wave (km/s) = 2.56630 5.99764 4.61289
#
# Compressibility (1/GPa) = 0.03562343
#
# Stress axis : x y z
#
# Youngs Moduli (GPa) = 47.60534 103.49664 88.62260
#
# Poissons Ratio (x) = 0.33512 -0.37024
# Poissons Ratio (y) = 0.15414 0.36371
# Poissons Ratio (z) = -0.19888 0.42476
#
# Static dielectric constant tensor:
#      x y z
#    x 1.859960 0.000000 0.000000 
#    y 0.000000 1.812470 0.000000 
#    z 0.000000 0.000000 1.730360 
# 
# From -- ./inp_files/62878.got.cif
#   From: 2010.05.17/outbox.cif.g08.bks.cpg/sg71_32_cif.got.tgz:62878.got - 2010.06.03 16:22:01.
