data_PCOD9520218
_publ_section_title
;
Structure prediction by ZEFSAII (Michael W. Deem and Ramdas Pophale) SiO2 
 PCOD9520218
Probable space group: I M M M
;
_chemical_formula_sum "Si O2"
_cell_formula_units_Z 104
_cell_length_a 21.179443
_cell_length_b 8.634733
_cell_length_c 29.808947
_cell_angle_alpha 90.000000
_cell_angle_beta 90.000000
_cell_angle_gamma 90.000000
_cell_volume 5451.425512
_symmetry_space_group_name_H-M "I M M M"
_symmetry_group_IT_number 71
_symmetry_cell_setting 'orthorhombic'
loop_
_space_group_symop_operation_xyz
x,y,z
-x,-y,z
x,-y,-z
-x,y,-z
-x,-y,-z
x,y,-z
-x,y,z
x,-y,z
1/2+x,1/2+y,1/2+z
1/2-x,1/2-y,1/2+z
1/2+x,1/2-y,1/2-z
1/2-x,1/2+y,1/2-z
1/2-x,1/2-y,1/2-z
1/2+x,1/2+y,1/2-z
1/2-x,1/2+y,1/2+z
1/2+x,1/2-y,1/2+z
loop_
_atom_site_type_symbol
_atom_site_label
_atom_site_fract_x
_atom_site_fract_y
_atom_site_fract_z
Si Si1 0.823567 0.312925 0.800220
Si Si2 0.116253 0.186753 0.448291
Si Si3 0.880751 0.312031 0.108107
Si Si4 0.321198 0.315170 0.798474
Si Si5 0.568750 0.815841 0.859376
Si Si6 0.261096 0.811974 0.550715
Si Si7 0.500000 0.314092 0.447293
O O1 0.824783 0.500000 0.798103
O O2 0.871276 0.265881 0.839866
O O3 0.750691 0.266335 0.810593
O O4 0.836957 0.247021 0.751121
O O5 0.101343 0.223993 0.500000
O O6 0.074578 0.267178 0.411115
O O7 0.189295 0.234055 0.439469
O O8 0.112112 0.000000 0.443672
O O9 0.884935 0.500000 0.106548
O O10 0.815608 0.262636 0.084078
O O11 0.939027 0.245591 0.080108
O O12 0.321365 0.500000 0.797952
O O13 0.373163 0.257445 0.832992
O O14 0.500000 0.764190 0.842016
O O15 0.572506 0.000000 0.855279
O O16 0.276580 0.237013 0.500000
O O17 0.260533 0.000000 0.551293
O O18 0.500000 0.500000 0.447427
O O19 0.500000 0.262512 0.500000
#
# Coordination Sequence:
#
# PCOD9520218 Si02
#       7
#    16  16  16  16  16  16   8
#     4   9  19  36  60  90 118 140 173 226 285 338
#     4   9  18  34  57  84 112 142 180 228 278 329
#     4  10  19  34  58  83 106 143 188 226 271 334
#     4  10  20  37  62  88 113 144 182 226 278 338
#     4  11  24  39  54  76 110 152 191 228 272 321
#     4   8  14  27  51  82 110 135 172 224 273 319
#     4  11  25  41  53  73 113 155 191 239 290 333
#
# _framework density 19.077577999999999
#
# number of rings (size 3 to 8) (size 9 to 14) (size 15 to 20)
#    0.000    2.385    0.000    3.462    0.000    6.769 
#    1.385    3.846    0.000    0.923    0.000    0.000 
#    0.000    0.000    0.000    0.000    0.000    0.000 
#
# Total GULP energy -290140.054705 kJ/mol
# GULP energy per Si atom -5579.616437 kJ/mol
# Density = 1.903416 g / cm^3
# Si number density = 19.077578 Si / 1000 Ang^3
#
#
#
# Elastic Constant Matrix: (Units=GPa)
#
#
# Indices 1 2 3 4 5 6 
#
# 1 63.6487 16.4633 66.5123 0.0000 0.0000 0.0000
# 2 16.4633 16.5563 27.8059 0.0000 0.0000 0.0000
# 3 66.5123 27.8059 114.6135 0.0000 0.0000 0.0000
# 4 0.0000 0.0000 0.0000 29.2322 0.0000 0.0000
# 5 0.0000 0.0000 0.0000 0.0000 25.0891 0.0000
# 6 0.0000 0.0000 0.0000 0.0000 0.0000 20.4698
#
#
#
# Elastic Compliance Matrix: (Units=1/GPa)
#
#
# Indices 1 2 3 4 5 6 
#
# 1 0.039937 -0.001331 -0.022853 0.000000 0.000000 0.000000
# 2 -0.001331 0.101977 -0.023968 0.000000 0.000000 0.000000
# 3 -0.022853 -0.023968 0.027802 0.000000 0.000000 0.000000
# 4 0.000000 0.000000 0.000000 0.034209 0.000000 0.000000
# 5 0.000000 0.000000 0.000000 0.000000 0.039858 0.000000
# 6 0.000000 0.000000 0.000000 0.000000 0.000000 0.048852
#
#
# Mechanical properties :
#
#
# Convention : Reuss Voigt Hill
#
# Bulk Modulus (GPa) = 13.62184 46.26460 29.94322
# Shear Modulus (GPa) = 12.09455 20.56070 16.32762
#
# Velocity S-wave (km/s) = 2.52060 3.28646 2.92867
# Velocity P-wave (km/s) = 3.95310 6.22129 5.21208
#
# Compressibility (1/GPa) = 0.07341150
#
# Stress axis : x y z
#
# Youngs Moduli (GPa) = 25.03953 9.80613 35.96906
#
# Poissons Ratio (x) = 0.01306 0.82200
# Poissons Ratio (y) = 0.03334 0.86209
# Poissons Ratio (z) = 0.57223 0.23503
#
# Static dielectric constant tensor:
#      x y z
#    x 1.670700 0.000000 0.000000 
#    y 0.000000 1.648250 0.000000 
#    z 0.000000 0.000000 1.660200 
# 
# From -- ./inp_files/15014.got.cif
#   From: 2010.05.17/outbox.cif.g08.bks.cpg/sg71_8_cif.got.tgz:15014.got - 2010.06.03 16:22:01.
