data_PCOD9520502
_publ_section_title
;
Structure prediction by ZEFSAII (Michael W. Deem and Ramdas Pophale) SiO2 
 PCOD9520502
Probable space group: I M M M
;
_chemical_formula_sum "Si O2"
_cell_formula_units_Z 116
_cell_length_a 7.801196
_cell_length_b 30.492208
_cell_length_c 25.273682
_cell_angle_alpha 90.000000
_cell_angle_beta 90.000000
_cell_angle_gamma 90.000000
_cell_volume 6011.994572
_symmetry_space_group_name_H-M "I M M M"
_symmetry_group_IT_number 71
_symmetry_cell_setting 'orthorhombic'
loop_
_space_group_symop_operation_xyz
x,y,z
-x,-y,z
x,-y,-z
-x,y,-z
-x,-y,-z
x,y,-z
-x,y,z
x,-y,z
1/2+x,1/2+y,1/2+z
1/2-x,1/2-y,1/2+z
1/2+x,1/2-y,1/2-z
1/2-x,1/2+y,1/2-z
1/2-x,1/2-y,1/2-z
1/2+x,1/2+y,1/2-z
1/2-x,1/2+y,1/2+z
1/2+x,1/2-y,1/2+z
loop_
_atom_site_type_symbol
_atom_site_label
_atom_site_fract_x
_atom_site_fract_y
_atom_site_fract_z
Si Si1 0.693604 0.858621 0.415173
Si Si2 0.000000 0.843061 0.500000
Si Si3 0.791952 0.949846 0.369075
Si Si4 0.207051 0.049523 0.753424
Si Si5 0.795212 0.951324 0.940985
Si Si6 0.799709 0.387347 0.651932
Si Si7 0.792165 0.700672 0.695543
Si Si8 0.204386 0.799572 0.682595
O O1 0.500000 0.850886 0.434837
O O2 0.847038 0.844615 0.453939
O O3 0.717304 0.910557 0.403343
O O4 0.714601 0.832292 0.359728
O O5 0.742607 0.942876 0.307486
O O6 0.000000 0.947360 0.371909
O O7 0.743960 0.000000 0.383559
O O8 0.271337 0.084826 0.794774
O O9 0.000000 0.050368 0.754943
O O10 0.261417 0.000000 0.768224
O O11 0.761482 0.915424 0.897263
O O12 0.000000 0.954540 0.944505
O O13 0.730355 0.000000 0.925781
O O14 0.729699 0.940959 0.000000
O O15 0.724972 0.338937 0.659792
O O16 0.000000 0.381426 0.644385
O O17 0.734277 0.748958 0.677793
O O18 0.740275 0.690301 0.755903
O O19 0.000000 0.701880 0.694861
O O20 0.000000 0.801257 0.674539
#
# Coordination Sequence:
#
# PCOD9520502 Si02
#       8
#    16   4  16  16  16  16  16  16
#     4  12  24  41  67  92 120 158 205 254 299 355
#     4  12  26  48  65  92 120 162 210 252 301 346
#     4   9  18  36  60  87 121 159 196 239 298 358
#     4   9  18  31  49  75 111 156 197 230 280 353
#     4   9  19  36  55  71  93 136 190 237 283 336
#     4  11  21  31  47  77 114 145 181 231 288 344
#     4   9  20  35  55  87 122 154 187 230 292 365
#     4  10  19  37  62  87 119 156 193 240 300 356
#
# _framework density 19.294761999999999
#
# number of rings (size 3 to 8) (size 9 to 14) (size 15 to 20)
#    0.000    2.069    1.379    3.517    0.000    7.172 
#    0.000    2.759    1.517    0.828    0.000    0.000 
#    0.000    0.000    0.000    0.000    0.000    0.000 
#
# Total GULP energy -323140.703213 kJ/mol
# GULP energy per Si atom -5571.391435 kJ/mol
# Density = 1.925085 g / cm^3
# Si number density = 19.294762 Si / 1000 Ang^3
#
#
#
# Elastic Constant Matrix: (Units=GPa)
#
#
# Indices 1 2 3 4 5 6 
#
# 1 76.6814 18.0554 20.5269 0.0000 0.0000 0.0000
# 2 18.0554 93.0531 42.6078 0.0000 0.0000 0.0000
# 3 20.5269 42.6078 48.2468 0.0000 0.0000 0.0000
# 4 0.0000 0.0000 0.0000 38.4410 0.0000 0.0000
# 5 0.0000 0.0000 0.0000 0.0000 -26.4417 0.0000
# 6 0.0000 0.0000 0.0000 0.0000 0.0000 12.6817
#
#
#
# Elastic Compliance Matrix: (Units=1/GPa)
#
#
# Indices 1 2 3 4 5 6 
#
# 1 0.014717 0.000019 -0.006278 0.000000 0.000000 0.000000
# 2 0.000019 0.018042 -0.015942 0.000000 0.000000 0.000000
# 3 -0.006278 -0.015942 0.037476 0.000000 0.000000 0.000000
# 4 0.000000 0.000000 0.000000 0.026014 0.000000 0.000000
# 5 0.000000 0.000000 0.000000 0.000000 -0.037819 0.000000
# 6 0.000000 0.000000 0.000000 0.000000 0.000000 0.078854
#
#
# Mechanical properties :
#
#
# Convention : Reuss Voigt Hill
#
# Bulk Modulus (GPa) = 38.70878 42.26240 40.48559
# Shear Modulus (GPa) = 26.27463 14.05562 20.16513
#
# Velocity S-wave (km/s) = 3.69419 2.70194 3.23632
# Velocity P-wave (km/s) = 6.18882 5.62895 5.91551
#
# Compressibility (1/GPa) = 0.02583393
#
# Stress axis : x y z
#
# Youngs Moduli (GPa) = 67.94802 55.42523 26.68344
#
# Poissons Ratio (x) = -0.00106 0.16753
# Poissons Ratio (y) = -0.00131 0.42538
# Poissons Ratio (z) = 0.42661 0.88357
#
# Static dielectric constant tensor:
#      x y z
#    x 1.702790 0.000000 0.000000 
#    y 0.000000 1.714170 0.000000 
#    z 0.000000 0.000000 1.656100 
# 
# From -- ./inp_files/58251.got.cif
#   From: 2010.05.17/outbox.cif.g08.bks.cpg/sg71_30_cif.got.tgz:58251.got - 2010.06.03 16:22:01.
