data_PCOD9520725
_publ_section_title
;
Structure prediction by ZEFSAII (Michael W. Deem and Ramdas Pophale) SiO2 
 PCOD9520725
Probable space group: I M M M
;
_chemical_formula_sum "Si O2"
_cell_formula_units_Z 88
_cell_length_a 20.623317
_cell_length_b 8.630095
_cell_length_c 31.201330
_cell_angle_alpha 90.000000
_cell_angle_beta 90.000000
_cell_angle_gamma 90.000000
_cell_volume 5553.249685
_symmetry_space_group_name_H-M "I M M M"
_symmetry_group_IT_number 71
_symmetry_cell_setting 'orthorhombic'
loop_
_space_group_symop_operation_xyz
x,y,z
-x,-y,z
x,-y,-z
-x,y,-z
-x,-y,-z
x,y,-z
-x,y,z
x,-y,z
1/2+x,1/2+y,1/2+z
1/2-x,1/2-y,1/2+z
1/2+x,1/2-y,1/2-z
1/2-x,1/2+y,1/2-z
1/2-x,1/2-y,1/2-z
1/2+x,1/2+y,1/2-z
1/2-x,1/2+y,1/2+z
1/2+x,1/2-y,1/2+z
loop_
_atom_site_type_symbol
_atom_site_label
_atom_site_fract_x
_atom_site_fract_y
_atom_site_fract_z
Si Si1 0.359808 0.814961 0.549569
Si Si2 0.200738 0.812567 0.870902
Si Si3 0.711266 0.185481 0.791745
Si Si4 0.428149 0.313675 0.773980
Si Si5 0.930587 0.812686 0.172608
Si Si6 0.500000 0.323754 0.552010
O O1 0.349827 0.766744 0.500000
O O2 0.304444 0.751301 0.581133
O O3 0.431295 0.753463 0.563203
O O4 0.361022 0.000000 0.551217
O O5 0.255065 0.765531 0.836524
O O6 0.133365 0.755269 0.849957
O O7 0.200996 0.000000 0.872886
O O8 0.750000 0.250000 0.750000
O O9 0.636583 0.237631 0.792033
O O10 0.715717 0.000000 0.788996
O O11 0.500000 0.265660 0.790075
O O12 0.423690 0.500000 0.778681
O O13 0.427115 0.279674 0.723100
O O14 0.000000 0.755610 0.155966
O O15 0.930224 0.000000 0.168850
O O16 0.500000 0.500000 0.568224
O O17 0.500000 0.325689 0.500000
#
# Coordination Sequence:
#
# PCOD9520725 Si02
#       6
#    16  16  16  16  16   8
#     4  10  21  35  48  66  93 121 155 205 255 290
#     4  10  20  32  48  69  91 125 166 200 241 290
#     4  11  21  33  49  71 101 132 163 201 242 286
#     4   9  17  32  52  70  93 128 165 201 241 283
#     4   8  14  26  43  63  89 121 159 200 234 269
#     4   9  17  31  51  69  87 121 163 199 241 293
#
# _framework density 15.846577
#
# number of rings (size 3 to 8) (size 9 to 14) (size 15 to 20)
#    0.000    2.455    1.818    2.455    1.273    4.000 
#    0.000    0.000    0.000    0.000    0.000    0.000 
#    0.000    0.727    0.000    8.000    0.000    5.818 
#
# Total GULP energy -245201.737343 kJ/mol
# GULP energy per Si atom -5572.766758 kJ/mol
# Density = 1.581051 g / cm^3
# Si number density = 15.846577 Si / 1000 Ang^3
#
#
#
# Elastic Constant Matrix: (Units=GPa)
#
#
# Indices 1 2 3 4 5 6 
#
# 1 114.8039 27.1907 61.3768 0.0000 0.0000 0.0000
# 2 27.1907 29.2269 27.0361 0.0000 0.0000 0.0000
# 3 61.3768 27.0361 93.6737 0.0000 0.0000 0.0000
# 4 0.0000 0.0000 0.0000 18.2809 0.0000 0.0000
# 5 0.0000 0.0000 0.0000 0.0000 31.5191 0.0000
# 6 0.0000 0.0000 0.0000 0.0000 0.0000 24.4205
#
#
#
# Elastic Compliance Matrix: (Units=1/GPa)
#
#
# Indices 1 2 3 4 5 6 
#
# 1 0.014205 -0.006283 -0.007494 0.000000 0.000000 0.000000
# 2 -0.006283 0.049456 -0.010157 0.000000 0.000000 0.000000
# 3 -0.007494 -0.010157 0.018517 0.000000 0.000000 0.000000
# 4 0.000000 0.000000 0.000000 0.054702 0.000000 0.000000
# 5 0.000000 0.000000 0.000000 0.000000 0.031727 0.000000
# 6 0.000000 0.000000 0.000000 0.000000 0.000000 0.040949
#
#
# Mechanical properties :
#
#
# Convention : Reuss Voigt Hill
#
# Bulk Modulus (GPa) = 29.14621 52.10130 40.62376
# Shear Modulus (GPa) = 18.59689 22.98415 20.79052
#
# Velocity S-wave (km/s) = 3.42944 3.81257 3.62607
# Velocity P-wave (km/s) = 5.84073 7.23401 6.57438
#
# Compressibility (1/GPa) = 0.03430978
#
# Stress axis : x y z
#
# Youngs Moduli (GPa) = 70.39719 20.21983 54.00405
#
# Poissons Ratio (x) = 0.12705 0.40471
# Poissons Ratio (y) = 0.44232 0.54853
# Poissons Ratio (z) = 0.52756 0.20538
#
# Static dielectric constant tensor:
#      x y z
#    x 1.538640 0.000000 0.000000 
#    y 0.000000 1.543140 0.000000 
#    z 0.000000 0.000000 1.564990 
# 
# From -- ./inp_files/16889.got.cif
#   From: 2010.05.17/outbox.cif.g08.bks.cpg/sg71_9_cif.got.tgz:16889.got - 2010.06.03 16:22:01.
