data_PCOD9520887
_publ_section_title
;
Structure prediction by ZEFSAII (Michael W. Deem and Ramdas Pophale) SiO2 
 PCOD9520887
Probable space group: I M M M
;
_chemical_formula_sum "Si O2"
_cell_formula_units_Z 72
_cell_length_a 22.851617
_cell_length_b 18.683600
_cell_length_c 10.774931
_cell_angle_alpha 90.000000
_cell_angle_beta 90.000000
_cell_angle_gamma 90.000000
_cell_volume 4600.361870
_symmetry_space_group_name_H-M "I M M M"
_symmetry_group_IT_number 71
_symmetry_cell_setting 'orthorhombic'
loop_
_space_group_symop_operation_xyz
x,y,z
-x,-y,z
x,-y,-z
-x,y,-z
-x,-y,-z
x,y,-z
-x,y,z
x,-y,z
1/2+x,1/2+y,1/2+z
1/2-x,1/2-y,1/2+z
1/2+x,1/2-y,1/2-z
1/2-x,1/2+y,1/2-z
1/2-x,1/2-y,1/2-z
1/2+x,1/2+y,1/2-z
1/2-x,1/2+y,1/2+z
1/2+x,1/2-y,1/2+z
loop_
_atom_site_type_symbol
_atom_site_label
_atom_site_fract_x
_atom_site_fract_y
_atom_site_fract_z
Si Si1 0.428670 0.084084 0.000000
Si Si2 0.262784 0.000000 0.349774
Si Si3 0.216205 0.845229 0.644627
Si Si4 0.567069 0.149163 0.742700
Si Si5 0.395645 0.000000 0.354674
Si Si6 0.666001 0.250511 0.641699
O O1 0.410647 0.129380 0.880405
O O2 0.500000 0.081155 0.000000
O O3 0.409788 0.000000 0.000000
O O4 0.229944 0.926843 0.317880
O O5 0.266072 0.000000 0.500000
O O6 0.329520 0.000000 0.300251
O O7 0.195173 0.842583 0.500000
O O8 0.278143 0.802963 0.645688
O O9 0.176271 0.807529 0.748319
O O10 0.500000 0.173922 0.747030
O O11 0.570548 0.071255 0.680712
O O12 0.609069 0.203667 0.672953
O O13 0.388171 0.000000 0.500000
O O14 0.663020 0.278921 0.500000
#
# Coordination Sequence:
#
# PCOD9520887 Si02
#       6
#     8   8  16  16   8  16
#     4   9  18  32  44  62  94 133 173 207 232 272
#     4   9  16  31  52  72  94 126 168 209 244 288
#     4   9  18  33  52  70  95 130 166 205 251 293
#     4  11  21  32  48  69 100 138 171 202 241 290
#     4  11  19  29  45  70 102 134 168 201 235 285
#     4  10  20  33  48  72 102 129 164 208 246 289
#
# _framework density 15.650942000000001
#
# number of rings (size 3 to 8) (size 9 to 14) (size 15 to 20)
#    0.000    2.111    3.333    1.000    1.556    2.222 
#    0.000    0.556    2.444    0.000    0.000    0.778 
#    0.000    4.444    0.000    0.000    0.000    0.000 
#
# Total GULP energy -200546.052345 kJ/mol
# GULP energy per Si atom -5570.723676 kJ/mol
# Density = 1.561532 g / cm^3
# Si number density = 15.650942 Si / 1000 Ang^3
#
#
#
# Elastic Constant Matrix: (Units=GPa)
#
#
# Indices 1 2 3 4 5 6 
#
# 1 47.8645 18.3625 28.5237 0.0000 0.0000 0.0000
# 2 18.3625 64.6383 35.1139 0.0000 0.0000 0.0000
# 3 28.5237 35.1139 98.8905 0.0000 0.0000 0.0000
# 4 0.0000 0.0000 0.0000 17.7111 0.0000 0.0000
# 5 0.0000 0.0000 0.0000 0.0000 7.7782 0.0000
# 6 0.0000 0.0000 0.0000 0.0000 0.0000 66.0113
#
#
#
# Elastic Compliance Matrix: (Units=1/GPa)
#
#
# Indices 1 2 3 4 5 6 
#
# 1 0.026084 -0.004117 -0.006062 0.000000 0.000000 0.000000
# 2 -0.004117 0.019818 -0.005849 0.000000 0.000000 0.000000
# 3 -0.006062 -0.005849 0.013938 0.000000 0.000000 0.000000
# 4 0.000000 0.000000 0.000000 0.056462 0.000000 0.000000
# 5 0.000000 0.000000 0.000000 0.000000 0.128564 0.000000
# 6 0.000000 0.000000 0.000000 0.000000 0.000000 0.015149
#
#
# Mechanical properties :
#
#
# Convention : Reuss Voigt Hill
#
# Bulk Modulus (GPa) = 35.99291 41.71040 38.85166
# Shear Modulus (GPa) = 16.59298 26.92634 21.75966
#
# Velocity S-wave (km/s) = 3.25959 4.15231 3.73273
# Velocity P-wave (km/s) = 6.10031 7.04962 6.59207
#
# Compressibility (1/GPa) = 0.02778325
#
# Stress axis : x y z
#
# Youngs Moduli (GPa) = 38.33746 50.45952 71.74822
#
# Poissons Ratio (x) = 0.20774 0.43492
# Poissons Ratio (y) = 0.15784 0.41968
# Poissons Ratio (z) = 0.23239 0.29516
#
# Static dielectric constant tensor:
#      x y z
#    x 1.519800 0.000000 0.000000 
#    y 0.000000 1.500850 0.000000 
#    z 0.000000 0.000000 1.595050 
# 
# From -- ./inp_files/23773.got.cif
#   From: 2010.05.17/outbox.cif.g08.bks.cpg/sg71_12_cif.got.tgz:23773.got - 2010.06.03 16:22:01.
