data_PCOD9520523
_publ_section_title
;
Structure prediction by ZEFSAII (Michael W. Deem and Ramdas Pophale) SiO2 
 PCOD9520523
Probable space group: I M M M
;
_chemical_formula_sum "Si O2"
_cell_formula_units_Z 86
_cell_length_a 13.505352
_cell_length_b 14.710990
_cell_length_c 23.021331
_cell_angle_alpha 90.000000
_cell_angle_beta 90.000000
_cell_angle_gamma 90.000000
_cell_volume 4573.811240
_symmetry_space_group_name_H-M "I M M M"
_symmetry_group_IT_number 71
_symmetry_cell_setting 'orthorhombic'
loop_
_space_group_symop_operation_xyz
x,y,z
-x,-y,z
x,-y,-z
-x,y,-z
-x,-y,-z
x,y,-z
-x,y,z
x,-y,z
1/2+x,1/2+y,1/2+z
1/2-x,1/2-y,1/2+z
1/2+x,1/2-y,1/2-z
1/2-x,1/2+y,1/2-z
1/2-x,1/2-y,1/2-z
1/2+x,1/2+y,1/2-z
1/2-x,1/2+y,1/2+z
1/2+x,1/2-y,1/2+z
loop_
_atom_site_type_symbol
_atom_site_label
_atom_site_fract_x
_atom_site_fract_y
_atom_site_fract_z
Si Si1 0.613077 0.208513 0.500000
Si Si2 0.613782 0.894642 0.288086
Si Si3 0.684493 0.394205 0.280441
Si Si4 0.614086 0.318741 0.164040
Si Si5 0.670281 0.500000 0.902682
Si Si6 0.307952 0.741107 0.624809
Si Si7 0.834342 0.500000 0.000000
Si Si8 0.000000 0.000000 0.500000
O O1 0.500000 0.239341 0.500000
O O2 0.665600 0.244428 0.558185
O O3 0.613946 0.098102 0.500000
O O4 0.500000 0.879623 0.268434
O O5 0.699655 0.886365 0.239373
O O6 0.641267 0.823254 0.338408
O O7 0.619722 0.000000 0.308870
O O8 0.656758 0.500000 0.276051
O O9 0.628480 0.332481 0.232774
O O10 0.662777 0.351799 0.343061
O O11 0.500000 0.303810 0.149709
O O12 0.653788 0.412992 0.137097
O O13 0.690379 0.248461 0.136535
O O14 0.768955 0.500000 0.940958
O O15 0.584852 0.500000 0.950016
#
# Coordination Sequence:
#
# PCOD9520523 Si02
#       8
#     8  16  16  16   8  16   4   2
#     4  12  26  41  59  80 112 150 193 232 273 338
#     4   9  18  34  59  88 118 148 179 224 284 343
#     4  10  22  38  59  82 112 147 192 244 291 326
#     4  11  20  35  58  87 119 149 185 228 280 342
#     4  11  19  33  54  84 126 155 181 213 261 340
#     4  11  24  39  54  83 116 149 192 239 280 334
#     4  11  23  39  59  82 120 156 184 210 270 342
#     4  10  20  28  50  84 126 172 172 198 266 328
#
# _framework density 18.802700999999999
#
# number of rings (size 3 to 8) (size 9 to 14) (size 15 to 20)
#    0.000    1.488    3.721    2.930    2.605    3.721 
#    0.000    0.465    0.000    0.558    0.000    0.000 
#    0.000    4.465    0.000    0.000    0.000    0.000 
#
# Total GULP energy -239818.452369 kJ/mol
# GULP energy per Si atom -5577.173311 kJ/mol
# Density = 1.875990 g / cm^3
# Si number density = 18.802701 Si / 1000 Ang^3
#
#
#
# Elastic Constant Matrix: (Units=GPa)
#
#
# Indices 1 2 3 4 5 6 
#
# 1 88.9033 10.9782 15.4344 0.0000 0.0000 0.0000
# 2 10.9782 46.0123 37.3058 0.0000 0.0000 0.0000
# 3 15.4344 37.3058 125.9947 0.0000 0.0000 0.0000
# 4 0.0000 0.0000 0.0000 20.8421 0.0000 0.0000
# 5 0.0000 0.0000 0.0000 0.0000 10.6198 0.0000
# 6 0.0000 0.0000 0.0000 0.0000 0.0000 14.4220
#
#
#
# Elastic Compliance Matrix: (Units=1/GPa)
#
#
# Indices 1 2 3 4 5 6 
#
# 1 0.011650 -0.002135 -0.000795 0.000000 0.000000 0.000000
# 2 -0.002135 0.028990 -0.008322 0.000000 0.000000 0.000000
# 3 -0.000795 -0.008322 0.010498 0.000000 0.000000 0.000000
# 4 0.000000 0.000000 0.000000 0.047980 0.000000 0.000000
# 5 0.000000 0.000000 0.000000 0.000000 0.094164 0.000000
# 6 0.000000 0.000000 0.000000 0.000000 0.000000 0.069338
#
#
# Mechanical properties :
#
#
# Convention : Reuss Voigt Hill
#
# Bulk Modulus (GPa) = 34.92347 43.14967 39.03657
# Shear Modulus (GPa) = 16.96819 22.32292 19.64556
#
# Velocity S-wave (km/s) = 3.00731 3.44934 3.23588
# Velocity P-wave (km/s) = 5.53828 6.23397 5.89640
#
# Compressibility (1/GPa) = 0.02863404
#
# Stress axis : x y z
#
# Youngs Moduli (GPa) = 85.83816 34.49447 95.25330
#
# Poissons Ratio (x) = 0.07365 0.07572
# Poissons Ratio (y) = 0.18327 0.79271
# Poissons Ratio (z) = 0.06824 0.28707
#
# Static dielectric constant tensor:
#      x y z
#    x 1.678900 0.000000 0.000000 
#    y 0.000000 1.661450 0.000000 
#    z 0.000000 0.000000 1.649410 
# 
# From -- ./inp_files/52978.got.cif
#   From: 2010.05.17/outbox.cif.g08.bks.cpg/sg71_27_cif.got.tgz:52978.got - 2010.06.03 16:22:01.
