data_PCOD9520263
_publ_section_title
;
Structure prediction by ZEFSAII (Michael W. Deem and Ramdas Pophale) SiO2 
 PCOD9520263
Probable space group: I M M M
;
_chemical_formula_sum "Si O2"
_cell_formula_units_Z 56
_cell_length_a 15.555978
_cell_length_b 20.136764
_cell_length_c 8.197415
_cell_angle_alpha 90.000000
_cell_angle_beta 90.000000
_cell_angle_gamma 90.000000
_cell_volume 2567.816130
_symmetry_space_group_name_H-M "I M M M"
_symmetry_group_IT_number 71
_symmetry_cell_setting 'orthorhombic'
loop_
_space_group_symop_operation_xyz
x,y,z
-x,-y,z
x,-y,-z
-x,y,-z
-x,-y,-z
x,y,-z
-x,y,z
x,-y,z
1/2+x,1/2+y,1/2+z
1/2-x,1/2-y,1/2+z
1/2+x,1/2-y,1/2-z
1/2-x,1/2+y,1/2-z
1/2-x,1/2-y,1/2-z
1/2+x,1/2+y,1/2-z
1/2-x,1/2+y,1/2+z
1/2+x,1/2-y,1/2+z
loop_
_atom_site_type_symbol
_atom_site_label
_atom_site_fract_x
_atom_site_fract_y
_atom_site_fract_z
Si Si1 0.500000 0.264413 0.800727
Si Si2 0.500000 0.113274 0.308244
Si Si3 0.186592 0.425504 0.306699
Si Si4 0.898088 0.000000 0.688361
Si Si5 0.156098 0.858627 0.696051
O O1 0.500000 0.191643 0.727475
O O2 0.412924 0.303857 0.749886
O O3 0.500000 0.259988 0.000000
O O4 0.500000 0.099986 0.500000
O O5 0.586962 0.084296 0.233170
O O6 0.198293 0.425297 0.500000
O O7 0.211262 0.500000 0.243793
O O8 0.242999 0.364056 0.237271
O O9 0.873065 0.930202 0.765431
O O10 0.866231 0.000000 0.500000
O O11 0.000000 0.000000 0.678837
O O12 0.148114 0.858849 0.500000
#
# Coordination Sequence:
#
# PCOD9520263 Si02
#       5
#     8   8  16   8  16
#     4  10  22  40  63  93 129 168 204 245 300 357
#     4  12  27  45  65  86 115 162 213 259 304 360
#     4  11  24  42  65  93 124 157 197 254 316 364
#     4   9  14  26  53  90 125 156 195 243 292 348
#     4  10  19  34  62  95 126 161 202 246 296 360
#
# _framework density 21.808416000000001
#
# number of rings (size 3 to 8) (size 9 to 14) (size 15 to 20)
#    0.000    1.571    2.857    2.571    0.000    5.714 
#    0.000    0.000    0.000    2.571    0.000    0.000 
#    0.000    0.000    0.000    0.000    0.000    0.000 
#
# Total GULP energy -156200.546056 kJ/mol
# GULP energy per Si atom -5578.590931 kJ/mol
# Density = 2.175878 g / cm^3
# Si number density = 21.808416 Si / 1000 Ang^3
#
#
#
# Elastic Constant Matrix: (Units=GPa)
#
#
# Indices 1 2 3 4 5 6 
#
# 1 112.2728 21.7345 7.4887 0.0000 0.0000 0.0000
# 2 21.7345 71.2764 3.4699 0.0000 0.0000 0.0000
# 3 7.4887 3.4699 31.1324 0.0000 0.0000 0.0000
# 4 0.0000 0.0000 0.0000 20.7847 0.0000 0.0000
# 5 0.0000 0.0000 0.0000 0.0000 10.4163 0.0000
# 6 0.0000 0.0000 0.0000 0.0000 0.0000 17.0917
#
#
#
# Elastic Compliance Matrix: (Units=1/GPa)
#
#
# Indices 1 2 3 4 5 6 
#
# 1 0.009587 -0.002826 -0.001991 0.000000 0.000000 0.000000
# 2 -0.002826 0.014940 -0.000985 0.000000 0.000000 0.000000
# 3 -0.001991 -0.000985 0.032710 0.000000 0.000000 0.000000
# 4 0.000000 0.000000 0.000000 0.048112 0.000000 0.000000
# 5 0.000000 0.000000 0.000000 0.000000 0.096004 0.000000
# 6 0.000000 0.000000 0.000000 0.000000 0.000000 0.058508
#
#
# Mechanical properties :
#
#
# Convention : Reuss Voigt Hill
#
# Bulk Modulus (GPa) = 21.91502 31.11864 26.51683
# Shear Modulus (GPa) = 17.44132 21.79111 19.61622
#
# Velocity S-wave (km/s) = 2.83106 3.16445 3.00239
# Velocity P-wave (km/s) = 4.55601 5.25849 4.91980
#
# Compressibility (1/GPa) = 0.04563081
#
# Stress axis : x y z
#
# Youngs Moduli (GPa) = 104.30965 66.93567 30.57202
#
# Poissons Ratio (x) = 0.18919 0.06087
# Poissons Ratio (y) = 0.29482 0.03012
# Poissons Ratio (z) = 0.20768 0.06595
#
# Static dielectric constant tensor:
#      x y z
#    x 1.888750 0.000000 0.000000 
#    y 0.000000 1.811300 0.000000 
#    z 0.000000 0.000000 1.762140 
# 
# From -- ./inp_files/5106.got.cif
#   From: 2010.05.17/outbox.cif.g08.bks.cpg/sg71_3_cif.got.tgz:5106.got - 2010.06.03 16:22:01.
