data_PCOD9520945
_publ_section_title
;
Structure prediction by ZEFSAII (Michael W. Deem and Ramdas Pophale) SiO2 
 PCOD9520945
Probable space group: I M M M
;
_chemical_formula_sum "Si O2"
_cell_formula_units_Z 96
_cell_length_a 20.274843
_cell_length_b 29.322280
_cell_length_c 9.352676
_cell_angle_alpha 90.000000
_cell_angle_beta 90.000000
_cell_angle_gamma 90.000000
_cell_volume 5560.209123
_symmetry_space_group_name_H-M "I M M M"
_symmetry_group_IT_number 71
_symmetry_cell_setting 'orthorhombic'
loop_
_space_group_symop_operation_xyz
x,y,z
-x,-y,z
x,-y,-z
-x,y,-z
-x,-y,-z
x,y,-z
-x,y,z
x,-y,z
1/2+x,1/2+y,1/2+z
1/2-x,1/2-y,1/2+z
1/2+x,1/2-y,1/2-z
1/2-x,1/2+y,1/2-z
1/2-x,1/2-y,1/2-z
1/2+x,1/2+y,1/2-z
1/2-x,1/2+y,1/2+z
1/2+x,1/2-y,1/2+z
loop_
_atom_site_type_symbol
_atom_site_label
_atom_site_fract_x
_atom_site_fract_y
_atom_site_fract_z
Si Si1 0.600173 0.850003 0.845406
Si Si2 0.424989 0.233781 0.334818
Si Si3 0.306745 0.720400 0.828361
Si Si4 0.072842 0.550995 0.752216
Si Si5 0.756530 0.136329 0.163320
Si Si6 0.278165 0.947459 0.658134
O O1 0.575377 0.818759 0.717463
O O2 0.577352 0.902487 0.837645
O O3 0.679530 0.848827 0.837541
O O4 0.580035 0.830990 0.000000
O O5 0.402888 0.236791 0.500000
O O6 0.500000 0.250643 0.325401
O O7 0.375477 0.260126 0.230928
O O8 0.250000 0.750000 0.750000
O O9 0.295310 0.669457 0.769306
O O10 0.301606 0.723560 0.000000
O O11 0.075821 0.500000 0.682865
O O12 0.141539 0.554070 0.837712
O O13 0.000000 0.552299 0.823142
O O14 0.752293 0.085260 0.223636
O O15 0.780535 0.139246 0.000000
O O16 0.257600 0.932343 0.500000
O O17 0.259945 0.000000 0.679737
#
# Coordination Sequence:
#
# PCOD9520945 Si02
#       6
#    16  16  16  16  16  16
#     4  10  20  33  50  70  95 130 173 222 271 318
#     4  11  24  39  55  77 107 141 176 217 266 320
#     4  12  23  37  59  82 106 138 177 222 268 320
#     4   9  18  30  43  62  91 127 170 221 272 318
#     4  10  20  34  53  77 103 134 174 219 264 315
#     4   9  18  32  49  70  98 132 171 217 266 314
#
# _framework density 17.265536999999998
#
# number of rings (size 3 to 8) (size 9 to 14) (size 15 to 20)
#    0.000    1.833    1.667    3.000    0.000    6.000 
#    0.000    5.833    0.000    0.000    0.000    0.000 
#    0.000    0.667    0.000    7.000    0.000    3.167 
#
# Total GULP energy -267491.781349 kJ/mol
# GULP energy per Si atom -5572.745445 kJ/mol
# Density = 1.722624 g / cm^3
# Si number density = 17.265537 Si / 1000 Ang^3
#
#
#
# Elastic Constant Matrix: (Units=GPa)
#
#
# Indices 1 2 3 4 5 6 
#
# 1 48.0066 31.3666 36.2613 0.0000 0.0000 0.0000
# 2 31.3666 76.6566 47.4105 0.0000 0.0000 0.0000
# 3 36.2613 47.4105 141.7409 0.0000 0.0000 0.0000
# 4 0.0000 0.0000 0.0000 18.0833 0.0000 0.0000
# 5 0.0000 0.0000 0.0000 0.0000 10.2479 0.0000
# 6 0.0000 0.0000 0.0000 0.0000 0.0000 17.5904
#
#
#
# Elastic Compliance Matrix: (Units=1/GPa)
#
#
# Indices 1 2 3 4 5 6 
#
# 1 0.030635 -0.009693 -0.004595 0.000000 0.000000 0.000000
# 2 -0.009693 0.019515 -0.004048 0.000000 0.000000 0.000000
# 3 -0.004595 -0.004048 0.009585 0.000000 0.000000 0.000000
# 4 0.000000 0.000000 0.000000 0.055300 0.000000 0.000000
# 5 0.000000 0.000000 0.000000 0.000000 0.097581 0.000000
# 6 0.000000 0.000000 0.000000 0.000000 0.000000 0.056849
#
#
# Mechanical properties :
#
#
# Convention : Reuss Voigt Hill
#
# Bulk Modulus (GPa) = 43.36084 55.16455 49.26269
# Shear Modulus (GPa) = 15.93253 19.27537 17.60395
#
# Velocity S-wave (km/s) = 3.04105 3.34489 3.19658
# Velocity P-wave (km/s) = 6.12366 6.85111 6.49758
#
# Compressibility (1/GPa) = 0.02306228
#
# Stress axis : x y z
#
# Youngs Moduli (GPa) = 32.64285 51.24284 104.33486
#
# Poissons Ratio (x) = 0.49671 0.47941
# Poissons Ratio (y) = 0.31642 0.42231
# Poissons Ratio (z) = 0.14999 0.20741
#
# Static dielectric constant tensor:
#      x y z
#    x 1.581260 0.000000 0.000000 
#    y 0.000000 1.607820 0.000000 
#    z 0.000000 0.000000 1.605900 
# 
# From -- ./inp_files/10926.got.cif
#   From: 2010.05.17/outbox.cif.g08.bks.cpg/sg71_6_cif.got.tgz:10926.got - 2010.06.03 16:22:01.
