data_PCOD9520633
_publ_section_title
;
Structure prediction by ZEFSAII (Michael W. Deem and Ramdas Pophale) SiO2 
 PCOD9520633
Probable space group: I M M M
;
_chemical_formula_sum "Si O2"
_cell_formula_units_Z 88
_cell_length_a 7.820999
_cell_length_b 14.480462
_cell_length_c 35.932538
_cell_angle_alpha 90.000000
_cell_angle_beta 90.000000
_cell_angle_gamma 90.000000
_cell_volume 4069.420253
_symmetry_space_group_name_H-M "I M M M"
_symmetry_group_IT_number 71
_symmetry_cell_setting 'orthorhombic'
loop_
_space_group_symop_operation_xyz
x,y,z
-x,-y,z
x,-y,-z
-x,y,-z
-x,-y,-z
x,y,-z
-x,y,z
x,-y,z
1/2+x,1/2+y,1/2+z
1/2-x,1/2-y,1/2+z
1/2+x,1/2-y,1/2-z
1/2-x,1/2+y,1/2-z
1/2-x,1/2-y,1/2-z
1/2+x,1/2+y,1/2-z
1/2-x,1/2+y,1/2+z
1/2+x,1/2-y,1/2+z
loop_
_atom_site_type_symbol
_atom_site_label
_atom_site_fract_x
_atom_site_fract_y
_atom_site_fract_z
Si Si1 0.194294 0.500000 0.545087
Si Si2 0.196077 0.106214 0.152839
Si Si3 0.289102 0.797371 0.042680
Si Si4 0.805184 0.388081 0.266444
Si Si5 0.206371 0.892904 0.685392
Si Si6 0.305396 0.715988 0.884843
O O1 0.183078 0.500000 0.500000
O O2 0.272885 0.599327 0.553790
O O3 0.000000 0.500000 0.559894
O O4 0.201442 0.133609 0.196507
O O5 0.305129 0.179462 0.130439
O O6 0.000000 0.110764 0.140291
O O7 0.255822 0.000000 0.149587
O O8 0.500000 0.800456 0.043388
O O9 0.230842 0.724930 0.073808
O O10 0.240310 0.778554 0.000000
O O11 0.792619 0.500000 0.263221
O O12 0.756365 0.352376 0.225658
O O13 0.000000 0.362638 0.274436
O O14 0.275144 0.841699 0.648834
O O15 0.000000 0.889483 0.684624
O O16 0.259466 0.000000 0.683856
O O17 0.500000 0.682088 0.889065
#
# Coordination Sequence:
#
# PCOD9520633 Si02
#       6
#     8  16  16  16  16  16
#     4   7  10  18  34  58  87 117 145 179 227 271
#     4  10  21  35  49  69 102 137 160 188 240 296
#     4   8  14  25  42  67  97 124 155 197 240 280
#     4   9  17  31  52  74  94 123 166 207 238 277
#     4   9  18  33  50  69  97 129 161 201 250 296
#     4  10  20  31  49  75  96 125 167 206 242 281
#
# _framework density 21.624701000000002
#
# number of rings (size 3 to 8) (size 9 to 14) (size 15 to 20)
#    0.000    3.000    0.000    2.182    1.273    4.727 
#    0.000    0.000    0.000    1.091    0.000    5.091 
#    0.000    0.000    0.000    6.182    0.000    6.545 
#
# Total GULP energy -245364.533883 kJ/mol
# GULP energy per Si atom -5576.466679 kJ/mol
# Density = 2.157548 g / cm^3
# Si number density = 21.624701 Si / 1000 Ang^3
#
#
#
# Elastic Constant Matrix: (Units=GPa)
#
#
# Indices 1 2 3 4 5 6 
#
# 1 29.6267 -0.7509 10.8897 0.0000 0.0000 0.0000
# 2 -0.7509 27.1207 18.5239 0.0000 0.0000 0.0000
# 3 10.8897 18.5239 119.3565 0.0000 0.0000 0.0000
# 4 0.0000 0.0000 0.0000 37.6161 0.0000 0.0000
# 5 0.0000 0.0000 0.0000 0.0000 6.0531 0.0000
# 6 0.0000 0.0000 0.0000 0.0000 0.0000 6.2688
#
#
#
# Elastic Compliance Matrix: (Units=1/GPa)
#
#
# Indices 1 2 3 4 5 6 
#
# 1 0.035227 0.003546 -0.003764 0.000000 0.000000 0.000000
# 2 0.003546 0.041601 -0.006780 0.000000 0.000000 0.000000
# 3 -0.003764 -0.006780 0.009774 0.000000 0.000000 0.000000
# 4 0.000000 0.000000 0.000000 0.026584 0.000000 0.000000
# 5 0.000000 0.000000 0.000000 0.000000 0.165206 0.000000
# 6 0.000000 0.000000 0.000000 0.000000 0.000000 0.159520
#
#
# Mechanical properties :
#
#
# Convention : Reuss Voigt Hill
#
# Bulk Modulus (GPa) = 13.77295 25.93660 19.85478
# Shear Modulus (GPa) = 10.50178 19.81701 15.15940
#
# Velocity S-wave (km/s) = 2.20611 3.03050 2.65055
# Velocity P-wave (km/s) = 3.58778 4.92598 4.30914
#
# Compressibility (1/GPa) = 0.07260608
#
# Stress axis : x y z
#
# Youngs Moduli (GPa) = 28.38746 24.03778 102.31272
#
# Poissons Ratio (x) = -0.08525 0.38515
# Poissons Ratio (y) = -0.10067 0.69368
# Poissons Ratio (z) = 0.10686 0.16298
#
# Static dielectric constant tensor:
#      x y z
#    x 1.796620 0.000000 0.000000 
#    y 0.000000 1.813600 0.000000 
#    z 0.000000 0.000000 1.829520 
# 
# From -- ./inp_files/68033.got.cif
#   From: 2010.05.17/outbox.cif.g08.bks.cpg/sg71_35_cif.got.tgz:68033.got - 2010.06.03 16:22:01.
