data_PCOD9520899
_publ_section_title
;
Structure prediction by ZEFSAII (Michael W. Deem and Ramdas Pophale) SiO2 
 PCOD9520899
Probable space group: I M M M
;
_chemical_formula_sum "Si O2"
_cell_formula_units_Z 80
_cell_length_a 24.827775
_cell_length_b 13.233391
_cell_length_c 13.165136
_cell_angle_alpha 90.000000
_cell_angle_beta 90.000000
_cell_angle_gamma 90.000000
_cell_volume 4325.479872
_symmetry_space_group_name_H-M "I M M M"
_symmetry_group_IT_number 71
_symmetry_cell_setting 'orthorhombic'
loop_
_space_group_symop_operation_xyz
x,y,z
-x,-y,z
x,-y,-z
-x,y,-z
-x,-y,-z
x,y,-z
-x,y,z
x,-y,z
1/2+x,1/2+y,1/2+z
1/2-x,1/2-y,1/2+z
1/2+x,1/2-y,1/2-z
1/2-x,1/2+y,1/2-z
1/2-x,1/2-y,1/2-z
1/2+x,1/2+y,1/2-z
1/2-x,1/2+y,1/2+z
1/2+x,1/2-y,1/2+z
loop_
_atom_site_type_symbol
_atom_site_label
_atom_site_fract_x
_atom_site_fract_y
_atom_site_fract_z
Si Si1 0.860694 0.115255 0.183647
Si Si2 0.436681 0.794678 0.613190
Si Si3 0.563736 0.886972 0.171730
Si Si4 0.763024 0.387601 0.378377
Si Si5 0.149597 0.226497 0.615517
O O1 0.899889 0.196926 0.133055
O O2 0.799503 0.129193 0.145696
O O3 0.860206 0.138445 0.303995
O O4 0.876616 0.000000 0.162064
O O5 0.426019 0.835449 0.500000
O O6 0.500000 0.766907 0.617883
O O7 0.427539 0.870195 0.707212
O O8 0.500000 0.876105 0.152154
O O9 0.598406 0.801305 0.118184
O O10 0.580183 0.000000 0.141634
O O11 0.769583 0.390222 0.500000
O O12 0.777775 0.500000 0.338613
O O13 0.801540 0.297243 0.343969
O O14 0.160122 0.193739 0.500000
#
# Coordination Sequence:
#
# PCOD9520899 Si02
#       5
#    16  16  16  16  16
#     4  10  20  33  49  69  95 127 162 199 236 275
#     4   9  18  32  50  73  99 125 154 190 234 284
#     4   9  18  32  50  73  99 125 154 190 234 284
#     4   9  17  30  50  74  95 117 150 192 239 289
#     4  10  20  33  49  69  95 127 162 199 236 275
#
# _framework density 18.495058
#
# number of rings (size 3 to 8) (size 9 to 14) (size 15 to 20)
#    0.000    2.600    0.000    1.800    0.000    4.000 
#    0.000    4.000    0.000    0.000    0.000   11.200 
#    0.000    0.000    0.000    0.000    0.000    0.000 
#
# Total GULP energy -223027.619221 kJ/mol
# GULP energy per Si atom -5575.690481 kJ/mol
# Density = 1.845296 g / cm^3
# Si number density = 18.495058 Si / 1000 Ang^3
#
#
#
# Elastic Constant Matrix: (Units=GPa)
#
#
# Indices 1 2 3 4 5 6 
#
# 1 33.4065 5.4083 -9.9207 0.0000 0.0000 0.0000
# 2 5.4083 30.0869 -18.7198 0.0000 0.0000 0.0000
# 3 -9.9207 -18.7198 41.8082 0.0000 0.0000 0.0000
# 4 0.0000 0.0000 0.0000 5.8532 0.0000 0.0000
# 5 0.0000 0.0000 0.0000 0.0000 20.1395 0.0000
# 6 0.0000 0.0000 0.0000 0.0000 0.0000 16.2383
#
#
#
# Elastic Compliance Matrix: (Units=1/GPa)
#
#
# Indices 1 2 3 4 5 6 
#
# 1 0.032248 -0.001436 0.007009 0.000000 0.000000 0.000000
# 2 -0.001436 0.046136 0.020317 0.000000 0.000000 0.000000
# 3 0.007009 0.020317 0.034679 0.000000 0.000000 0.000000
# 4 0.000000 0.000000 0.000000 0.170846 0.000000 0.000000
# 5 0.000000 0.000000 0.000000 0.000000 0.049654 0.000000
# 6 0.000000 0.000000 0.000000 0.000000 0.000000 0.061583
#
#
# Mechanical properties :
#
#
# Convention : Reuss Voigt Hill
#
# Bulk Modulus (GPa) = 6.06633 6.53749 6.30191
# Shear Modulus (GPa) = 12.55294 17.01511 14.78403
#
# Velocity S-wave (km/s) = 2.60805 3.03641 2.83035
# Velocity P-wave (km/s) = 3.51516 3.97938 3.75445
#
# Compressibility (1/GPa) = 0.16484440
#
# Stress axis : x y z
#
# Youngs Moduli (GPa) = 31.00937 21.67503 28.83591
#
# Poissons Ratio (x) = 0.03112 -0.20212
# Poissons Ratio (y) = 0.04452 -0.58586
# Poissons Ratio (z) = -0.21736 -0.44037
#
# Static dielectric constant tensor:
#      x y z
#    x 1.627800 0.000000 0.000000 
#    y 0.000000 1.621460 0.000000 
#    z 0.000000 0.000000 1.654010 
# 
# From -- ./inp_files/20120.got.cif
#   From: 2010.05.17/outbox.cif.g08.bks.cpg/sg71_11_cif.got.tgz:20120.got - 2010.06.03 16:22:01.
