data_PCOD9520975
_publ_section_title
;
Structure prediction by ZEFSAII (Michael W. Deem and Ramdas Pophale) SiO2 
 PCOD9520975
Probable space group: I M M M
;
_chemical_formula_sum "Si O2"
_cell_formula_units_Z 88
_cell_length_a 24.728946
_cell_length_b 9.781395
_cell_length_c 18.163120
_cell_angle_alpha 90.000000
_cell_angle_beta 90.000000
_cell_angle_gamma 90.000000
_cell_volume 4393.360649
_symmetry_space_group_name_H-M "I M M M"
_symmetry_group_IT_number 71
_symmetry_cell_setting 'orthorhombic'
loop_
_space_group_symop_operation_xyz
x,y,z
-x,-y,z
x,-y,-z
-x,y,-z
-x,-y,-z
x,y,-z
-x,y,z
x,-y,z
1/2+x,1/2+y,1/2+z
1/2-x,1/2-y,1/2+z
1/2+x,1/2-y,1/2-z
1/2-x,1/2+y,1/2-z
1/2-x,1/2-y,1/2-z
1/2+x,1/2+y,1/2-z
1/2-x,1/2+y,1/2+z
1/2+x,1/2-y,1/2+z
loop_
_atom_site_type_symbol
_atom_site_label
_atom_site_fract_x
_atom_site_fract_y
_atom_site_fract_z
Si Si1 0.565344 0.656612 0.500000
Si Si2 0.846223 0.150235 0.585802
Si Si3 0.437960 0.152912 0.909918
Si Si4 0.937843 0.339408 0.858316
Si Si5 0.173327 0.654095 0.794423
Si Si6 0.739991 0.155850 0.141789
O O1 0.586065 0.500000 0.500000
O O2 0.500000 0.648874 0.500000
O O3 0.578487 0.743729 0.572997
O O4 0.858682 0.133770 0.500000
O O5 0.896976 0.233163 0.617532
O O6 0.793754 0.244207 0.590302
O O7 0.838080 0.000000 0.619398
O O8 0.500000 0.174701 0.887715
O O9 0.420780 0.000000 0.886839
O O10 0.437329 0.152551 0.000000
O O11 0.937650 0.500000 0.880719
O O12 0.891096 0.324507 0.797234
O O13 0.000000 0.307737 0.836043
O O14 0.183120 0.500000 0.824859
O O15 0.203616 0.771856 0.839698
O O16 0.202715 0.655614 0.715596
O O17 0.745376 0.000000 0.116373
#
# Coordination Sequence:
#
# PCOD9520975 Si02
#       6
#     8  16  16  16  16  16
#     4   9  17  29  47  75 111 143 169 203 250 303
#     4  10  20  33  50  73 102 135 170 213 263 311
#     4   8  14  26  45  68  94 126 163 202 247 299
#     4   9  17  32  55  80 106 138 174 210 255 313
#     4   9  19  36  56  77 101 133 173 214 257 310
#     4  10  20  35  55  76 100 134 176 218 263 312
#
# _framework density 20.030225000000002
#
# number of rings (size 3 to 8) (size 9 to 14) (size 15 to 20)
#    0.000    2.818    0.000    1.909    0.000    4.000 
#    1.636    2.727    0.000    3.273    0.000    0.000 
#    0.000    0.000    0.000    0.000    0.000    0.000 
#
# Total GULP energy -245127.591561 kJ/mol
# GULP energy per Si atom -5571.081626 kJ/mol
# Density = 1.998463 g / cm^3
# Si number density = 20.030225 Si / 1000 Ang^3
#
#
#
# Elastic Constant Matrix: (Units=GPa)
#
#
# Indices 1 2 3 4 5 6 
#
# 1 102.9474 58.1875 15.9344 0.0000 0.0000 0.0000
# 2 58.1875 140.1000 19.8634 0.0000 0.0000 0.0000
# 3 15.9344 19.8634 17.0703 0.0000 0.0000 0.0000
# 4 0.0000 0.0000 0.0000 15.6992 0.0000 0.0000
# 5 0.0000 0.0000 0.0000 0.0000 21.9957 0.0000
# 6 0.0000 0.0000 0.0000 0.0000 0.0000 30.4837
#
#
#
# Elastic Compliance Matrix: (Units=1/GPa)
#
#
# Indices 1 2 3 4 5 6 
#
# 1 0.013398 -0.004541 -0.007223 0.000000 0.000000 0.000000
# 2 -0.004541 0.010087 -0.007499 0.000000 0.000000 0.000000
# 3 -0.007223 -0.007499 0.074050 0.000000 0.000000 0.000000
# 4 0.000000 0.000000 0.000000 0.063697 0.000000 0.000000
# 5 0.000000 0.000000 0.000000 0.000000 0.045463 0.000000
# 6 0.000000 0.000000 0.000000 0.000000 0.000000 0.032804
#
#
# Mechanical properties :
#
#
# Convention : Reuss Voigt Hill
#
# Bulk Modulus (GPa) = 16.94637 49.78759 33.36698
# Shear Modulus (GPa) = 16.79574 24.71122 20.75348
#
# Velocity S-wave (km/s) = 2.89886 3.51621 3.22236
# Velocity P-wave (km/s) = 4.43659 6.43391 5.52623
#
# Compressibility (1/GPa) = 0.05900967
#
# Stress axis : x y z
#
# Youngs Moduli (GPa) = 74.63771 99.13997 13.50444
#
# Poissons Ratio (x) = 0.45015 0.09754
# Poissons Ratio (y) = 0.33889 0.10127
# Poissons Ratio (z) = 0.53911 0.74344
#
# Static dielectric constant tensor:
#      x y z
#    x 1.707480 0.000000 0.000000 
#    y 0.000000 1.734420 0.000000 
#    z 0.000000 0.000000 1.750030 
# 
# From -- ./inp_files/12549.got.cif
#   From: 2010.05.17/outbox.cif.g08.bks.cpg/sg71_7_cif.got.tgz:12549.got - 2010.06.03 16:22:01.
