data_PCOD9520808
_publ_section_title
;
Structure prediction by ZEFSAII (Michael W. Deem and Ramdas Pophale) SiO2 
 PCOD9520808
Probable space group: I M M M
;
_chemical_formula_sum "Si O2"
_cell_formula_units_Z 88
_cell_length_a 25.496689
_cell_length_b 7.356926
_cell_length_c 20.323339
_cell_angle_alpha 90.000000
_cell_angle_beta 90.000000
_cell_angle_gamma 90.000000
_cell_volume 3812.196126
_symmetry_space_group_name_H-M "I M M M"
_symmetry_group_IT_number 71
_symmetry_cell_setting 'orthorhombic'
loop_
_space_group_symop_operation_xyz
x,y,z
-x,-y,z
x,-y,-z
-x,y,-z
-x,-y,-z
x,y,-z
-x,y,z
x,-y,z
1/2+x,1/2+y,1/2+z
1/2-x,1/2-y,1/2+z
1/2+x,1/2-y,1/2-z
1/2-x,1/2+y,1/2-z
1/2-x,1/2-y,1/2-z
1/2+x,1/2+y,1/2-z
1/2-x,1/2+y,1/2+z
1/2+x,1/2-y,1/2+z
loop_
_atom_site_type_symbol
_atom_site_label
_atom_site_fract_x
_atom_site_fract_y
_atom_site_fract_z
Si Si1 0.755881 0.717850 0.327633
Si Si2 0.061194 0.277479 0.500000
Si Si3 0.670016 0.721582 0.428727
Si Si4 0.634476 0.206601 0.119089
Si Si5 0.942623 0.221167 0.887251
Si Si6 0.941841 0.780809 0.733779
O O1 0.757745 0.500000 0.334243
O O2 0.750000 0.750000 0.250000
O O3 0.705795 0.783533 0.368655
O O4 0.809281 0.788974 0.361629
O O5 0.058863 0.500000 0.500000
O O6 0.095169 0.217344 0.436371
O O7 0.000000 0.218111 0.500000
O O8 0.691790 0.773512 0.500000
O O9 0.669052 0.500000 0.426359
O O10 0.609914 0.782186 0.422481
O O11 0.602184 0.205181 0.186821
O O12 0.644914 0.000000 0.096874
O O13 0.937255 0.269669 0.810173
O O14 0.000000 0.282273 0.910745
O O15 0.943375 0.000000 0.890669
O O16 0.000000 0.726772 0.710622
O O17 0.938609 0.000000 0.731150
#
# Coordination Sequence:
#
# PCOD9520808 Si02
#       6
#    16   8  16  16  16  16
#     4  10  21  35  53  76 101 133 173 215 259 309
#     4   9  18  32  49  71 101 133 164 208 264 313
#     4   9  17  28  45  69  97 128 162 203 248 293
#     4  10  20  32  50  73  98 131 170 211 256 308
#     4   8  14  25  42  66  95 126 159 195 242 296
#     4   9  17  30  49  72 100 133 165 202 250 300
#
# _framework density 23.083805999999999
#
# number of rings (size 3 to 8) (size 9 to 14) (size 15 to 20)
#    0.000    2.818    0.000    2.727    1.273    3.636 
#    0.000    2.273    0.000    2.182    0.000    0.000 
#    0.000    0.000    0.000   15.636    0.000   12.727 
#
# Total GULP energy -245656.926084 kJ/mol
# GULP energy per Si atom -5583.111956 kJ/mol
# Density = 2.303127 g / cm^3
# Si number density = 23.083806 Si / 1000 Ang^3
#
#
#
# Elastic Constant Matrix: (Units=GPa)
#
#
# Indices 1 2 3 4 5 6 
#
# 1 189.7092 6.0962 94.5758 0.0000 0.0000 0.0000
# 2 6.0962 82.9910 -0.0913 0.0000 0.0000 0.0000
# 3 94.5758 -0.0913 129.2856 0.0000 0.0000 0.0000
# 4 0.0000 0.0000 0.0000 10.1341 0.0000 0.0000
# 5 0.0000 0.0000 0.0000 0.0000 38.1387 0.0000
# 6 0.0000 0.0000 0.0000 0.0000 0.0000 0.0286
#
#
#
# Elastic Compliance Matrix: (Units=1/GPa)
#
#
# Indices 1 2 3 4 5 6 
#
# 1 0.008329 -0.000618 -0.006093 0.000000 0.000000 0.000000
# 2 -0.000618 0.012095 0.000461 0.000000 0.000000 0.000000
# 3 -0.006093 0.000461 0.012192 0.000000 0.000000 0.000000
# 4 0.000000 0.000000 0.000000 0.098677 0.000000 0.000000
# 5 0.000000 0.000000 0.000000 0.000000 0.026220 0.000000
# 6 0.000000 0.000000 0.000000 0.000000 0.000000 35.021685
#
#
# Mechanical properties :
#
#
# Convention : Reuss Voigt Hill
#
# Bulk Modulus (GPa) = 49.71332 67.01634 58.36483
# Shear Modulus (GPa) = 0.14205 29.75393 14.94799
#
# Velocity S-wave (km/s) = 0.24834 3.59409 2.54747
# Velocity P-wave (km/s) = 4.65457 6.80574 5.83023
#
# Compressibility (1/GPa) = 0.02011533
#
# Stress axis : x y z
#
# Youngs Moduli (GPa) = 120.06696 82.67576 82.01839
#
# Poissons Ratio (x) = 0.05113 0.49975
# Poissons Ratio (y) = 0.07426 -0.03781
# Poissons Ratio (z) = 0.73158 -0.03811
#
# Static dielectric constant tensor:
#      x y z
#    x 1.857110 0.000000 0.000000 
#    y 0.000000 1.969740 0.000000 
#    z 0.000000 0.000000 1.809040 
# 
# From -- ./inp_files/10477.got.cif
#   From: 2010.05.17/outbox.cif.g08.bks.cpg/sg71_6_cif.got.tgz:10477.got - 2010.06.03 16:22:01.
