data_PCOD9520140
_publ_section_title
;
Structure prediction by ZEFSAII (Michael W. Deem and Ramdas Pophale) SiO2 
 PCOD9520140
Probable space group: I M M M
;
_chemical_formula_sum "Si O2"
_cell_formula_units_Z 88
_cell_length_a 9.222351
_cell_length_b 25.974136
_cell_length_c 20.997866
_cell_angle_alpha 90.000000
_cell_angle_beta 90.000000
_cell_angle_gamma 90.000000
_cell_volume 5029.883397
_symmetry_space_group_name_H-M "I M M M"
_symmetry_group_IT_number 71
_symmetry_cell_setting 'orthorhombic'
loop_
_space_group_symop_operation_xyz
x,y,z
-x,-y,z
x,-y,-z
-x,y,-z
-x,-y,-z
x,y,-z
-x,y,z
x,-y,z
1/2+x,1/2+y,1/2+z
1/2-x,1/2-y,1/2+z
1/2+x,1/2-y,1/2-z
1/2-x,1/2+y,1/2-z
1/2-x,1/2-y,1/2-z
1/2+x,1/2+y,1/2-z
1/2-x,1/2+y,1/2+z
1/2+x,1/2-y,1/2+z
loop_
_atom_site_type_symbol
_atom_site_label
_atom_site_fract_x
_atom_site_fract_y
_atom_site_fract_z
Si Si1 0.337067 0.438389 0.500000
Si Si2 0.175063 0.611803 0.074517
Si Si3 0.327119 0.309234 0.171018
Si Si4 0.823935 0.500000 0.725552
Si Si5 0.823597 0.500000 0.128205
Si Si6 0.669089 0.806322 0.195888
Si Si7 0.330235 0.087441 0.127391
O O1 0.341443 0.500000 0.500000
O O2 0.500000 0.417945 0.500000
O O3 0.255649 0.422023 0.563458
O O4 0.249298 0.653372 0.120864
O O5 0.219109 0.553494 0.094524
O O6 0.000000 0.615250 0.081945
O O7 0.209267 0.620350 0.000000
O O8 0.500000 0.317097 0.168266
O O9 0.296242 0.248059 0.162558
O O10 0.266289 0.317380 0.242361
O O11 0.772733 0.500000 0.798292
O O12 0.780641 0.549853 0.684574
O O13 0.000000 0.500000 0.729291
O O14 0.000000 0.500000 0.127973
O O15 0.500000 0.803182 0.217002
O O16 0.682862 0.854025 0.149127
O O17 0.500000 0.075587 0.116471
#
# Coordination Sequence:
#
# PCOD9520140 Si02
#       7
#     8  16  16   8   8  16  16
#     4  11  23  37  51  73 111 149 175 212 275 334
#     4  10  20  35  56  80 109 146 185 226 267 314
#     4  10  20  35  56  82 112 145 176 219 276 327
#     4   9  16  26  50  82 103 124 165 226 273 303
#     4   9  17  32  55  83 108 134 177 228 269 308
#     4   9  19  36  58  82 107 139 182 228 270 316
#     4  10  19  34  56  79 103 137 183 226 263 314
#
# _framework density 17.495435000000001
#
# number of rings (size 3 to 8) (size 9 to 14) (size 15 to 20)
#    0.000    2.273    0.909    2.182    0.000    6.182 
#    1.636    0.455    0.000    1.091    0.000    0.000 
#    0.000    0.000    0.000    0.000    0.000    0.000 
#
# Total GULP energy -245380.104526 kJ/mol
# GULP energy per Si atom -5576.820557 kJ/mol
# Density = 1.745561 g / cm^3
# Si number density = 17.495435 Si / 1000 Ang^3
#
#
#
# Elastic Constant Matrix: (Units=GPa)
#
#
# Indices 1 2 3 4 5 6 
#
# 1 51.8942 54.5965 56.9457 0.0000 0.0000 0.0000
# 2 54.5965 118.5096 77.5878 0.0000 0.0000 0.0000
# 3 56.9457 77.5878 120.9319 0.0000 0.0000 0.0000
# 4 0.0000 0.0000 0.0000 8.5801 0.0000 0.0000
# 5 0.0000 0.0000 0.0000 0.0000 21.3984 0.0000
# 6 0.0000 0.0000 0.0000 0.0000 0.0000 22.9800
#
#
#
# Elastic Compliance Matrix: (Units=1/GPa)
#
#
# Indices 1 2 3 4 5 6 
#
# 1 0.049181 -0.012924 -0.014867 0.000000 0.000000 0.000000
# 2 -0.012924 0.017946 -0.005428 0.000000 0.000000 0.000000
# 3 -0.014867 -0.005428 0.018752 0.000000 0.000000 0.000000
# 4 0.000000 0.000000 0.000000 0.116549 0.000000 0.000000
# 5 0.000000 0.000000 0.000000 0.000000 0.046733 0.000000
# 6 0.000000 0.000000 0.000000 0.000000 0.000000 0.043516
#
#
# Mechanical properties :
#
#
# Convention : Reuss Voigt Hill
#
# Bulk Modulus (GPa) = 51.43694 74.39953 62.91824
# Shear Modulus (GPa) = 13.67631 17.40540 15.54086
#
# Velocity S-wave (km/s) = 2.79894 3.15755 2.98364
# Velocity P-wave (km/s) = 6.31739 7.47736 6.92172
#
# Compressibility (1/GPa) = 0.01944128
#
# Stress axis : x y z
#
# Youngs Moduli (GPa) = 20.33290 55.72355 53.32647
#
# Poissons Ratio (x) = 0.72017 0.79282
# Poissons Ratio (y) = 0.26278 0.28945
# Poissons Ratio (z) = 0.30229 0.30246
#
# Static dielectric constant tensor:
#      x y z
#    x 1.597380 0.000000 0.000000 
#    y 0.000000 1.599880 0.000000 
#    z 0.000000 0.000000 1.558360 
# 
# From -- ./inp_files/50595.got.cif
#   From: 2010.05.17/outbox.cif.g08.bks.cpg/sg71_26_cif.got.tgz:50595.got - 2010.06.03 16:22:01.
