data_PCOD9520259
_publ_section_title
;
Structure prediction by ZEFSAII (Michael W. Deem and Ramdas Pophale) SiO2 
 PCOD9520259
Probable space group: I M M M
;
_chemical_formula_sum "Si O2"
_cell_formula_units_Z 116
_cell_length_a 17.843981
_cell_length_b 17.526201
_cell_length_c 20.390472
_cell_angle_alpha 90.000000
_cell_angle_beta 90.000000
_cell_angle_gamma 90.000000
_cell_volume 6376.859072
_symmetry_space_group_name_H-M "I M M M"
_symmetry_group_IT_number 71
_symmetry_cell_setting 'orthorhombic'
loop_
_space_group_symop_operation_xyz
x,y,z
-x,-y,z
x,-y,-z
-x,y,-z
-x,-y,-z
x,y,-z
-x,y,z
x,-y,z
1/2+x,1/2+y,1/2+z
1/2-x,1/2-y,1/2+z
1/2+x,1/2-y,1/2-z
1/2-x,1/2+y,1/2-z
1/2-x,1/2-y,1/2-z
1/2+x,1/2+y,1/2-z
1/2-x,1/2+y,1/2+z
1/2+x,1/2-y,1/2+z
loop_
_atom_site_type_symbol
_atom_site_label
_atom_site_fract_x
_atom_site_fract_y
_atom_site_fract_z
Si Si1 0.082083 0.301692 0.375074
Si Si2 0.241488 0.348116 0.927082
Si Si3 0.884407 0.412087 0.258278
Si Si4 0.742041 0.832095 0.073864
Si Si5 0.372312 0.631709 0.169388
Si Si6 0.581208 0.909469 0.606504
Si Si7 0.500000 0.500000 0.158411
Si Si8 0.711045 0.589336 0.293842
O O1 0.083010 0.352972 0.309757
O O2 0.151831 0.333196 0.416915
O O3 0.098973 0.214372 0.354459
O O4 0.000000 0.305993 0.406356
O O5 0.238739 0.257046 0.917416
O O6 0.297532 0.383714 0.873920
O O7 0.156837 0.376719 0.922985
O O8 0.272224 0.362925 0.000000
O O9 0.902493 0.500000 0.275712
O O10 0.911642 0.398202 0.184822
O O11 0.794342 0.404019 0.262967
O O12 0.780590 0.878213 0.132749
O O13 0.761911 0.856373 0.000000
O O14 0.434235 0.567154 0.159452
O O15 0.345807 0.632124 0.245293
O O16 0.500000 0.879250 0.584315
O O17 0.581685 0.000000 0.594400
O O18 0.690767 0.500000 0.295070
#
# Coordination Sequence:
#
# PCOD9520259 Si02
#       8
#    16  16  16  16  16  16   4  16
#     4  10  20  33  54  84 117 152 190 235 292 346
#     4  10  22  39  58  79 114 157 194 235 287 346
#     4   9  18  32  53  83 113 145 182 228 280 344
#     4   9  21  38  57  83 112 149 197 238 283 355
#     4  11  22  38  59  86 115 152 197 246 295 349
#     4  10  20  33  51  78 111 145 183 226 273 332
#     4  12  24  40  61  88 125 142 196 266 286 344
#     4  10  19  34  61  84 110 148 187 241 297 342
#
# _framework density 18.190773
#
# number of rings (size 3 to 8) (size 9 to 14) (size 15 to 20)
#    0.000    2.069    2.759    0.414    2.897    3.586 
#    0.000    1.379    0.000    0.000    0.000    4.345 
#    0.000    0.000    0.000    0.000    0.000    0.000 
#
# Total GULP energy -322983.206828 kJ/mol
# GULP energy per Si atom -5568.675980 kJ/mol
# Density = 1.814937 g / cm^3
# Si number density = 18.190773 Si / 1000 Ang^3
#
#
#
# Elastic Constant Matrix: (Units=GPa)
#
#
# Indices 1 2 3 4 5 6 
#
# 1 77.2333 12.1183 20.5681 0.0000 0.0000 0.0000
# 2 12.1183 26.9218 16.8291 0.0000 0.0000 0.0000
# 3 20.5681 16.8291 72.6786 0.0000 0.0000 0.0000
# 4 0.0000 0.0000 0.0000 6.5566 0.0000 0.0000
# 5 0.0000 0.0000 0.0000 0.0000 -2.5697 0.0000
# 6 0.0000 0.0000 0.0000 0.0000 0.0000 24.9158
#
#
#
# Elastic Compliance Matrix: (Units=1/GPa)
#
#
# Indices 1 2 3 4 5 6 
#
# 1 0.014480 -0.004626 -0.003027 0.000000 0.000000 0.000000
# 2 -0.004626 0.044909 -0.009090 0.000000 0.000000 0.000000
# 3 -0.003027 -0.009090 0.016721 0.000000 0.000000 0.000000
# 4 0.000000 0.000000 0.000000 0.152517 0.000000 0.000000
# 5 0.000000 0.000000 0.000000 0.000000 -0.389147 0.000000
# 6 0.000000 0.000000 0.000000 0.000000 0.000000 0.040135
#
#
# Mechanical properties :
#
#
# Convention : Reuss Voigt Hill
#
# Bulk Modulus (GPa) = 23.46053 30.65164 27.05608
# Shear Modulus (GPa) = -68.78279 14.26842 -27.25719
#
# Velocity S-wave (km/s) = -6.15581 2.80371 -3.87513
# Velocity P-wave (km/s) = 6.13192 5.23142 2.26193
#
# Compressibility (1/GPa) = 0.04262478
#
# Stress axis : x y z
#
# Youngs Moduli (GPa) = 69.06258 22.26725 59.80665
#
# Poissons Ratio (x) = 0.10300 0.18101
# Poissons Ratio (y) = 0.31947 0.54363
# Poissons Ratio (z) = 0.20903 0.20241
#
# Static dielectric constant tensor:
#      x y z
#    x 1.648320 0.000000 0.000000 
#    y 0.000000 1.604640 0.000000 
#    z 0.000000 0.000000 1.625330 
# 
# From -- ./inp_files/46219.got.cif
#   From: 2010.05.17/outbox.cif.g08.bks.cpg/sg71_24_cif.got.tgz:46219.got - 2010.06.03 16:22:01.
