data_PCOD9520219
_publ_section_title
;
Structure prediction by ZEFSAII (Michael W. Deem and Ramdas Pophale) SiO2 
 PCOD9520219
Probable space group: I M M M
;
_chemical_formula_sum "Si O2"
_cell_formula_units_Z 112
_cell_length_a 21.202549
_cell_length_b 15.409719
_cell_length_c 18.492717
_cell_angle_alpha 90.000000
_cell_angle_beta 90.000000
_cell_angle_gamma 90.000000
_cell_volume 6042.038920
_symmetry_space_group_name_H-M "I M M M"
_symmetry_group_IT_number 71
_symmetry_cell_setting 'orthorhombic'
loop_
_space_group_symop_operation_xyz
x,y,z
-x,-y,z
x,-y,-z
-x,y,-z
-x,-y,-z
x,y,-z
-x,y,z
x,-y,z
1/2+x,1/2+y,1/2+z
1/2-x,1/2-y,1/2+z
1/2+x,1/2-y,1/2-z
1/2-x,1/2+y,1/2-z
1/2-x,1/2-y,1/2-z
1/2+x,1/2+y,1/2-z
1/2-x,1/2+y,1/2+z
1/2+x,1/2-y,1/2+z
loop_
_atom_site_type_symbol
_atom_site_label
_atom_site_fract_x
_atom_site_fract_y
_atom_site_fract_z
Si Si1 0.572898 0.591535 0.602707
Si Si2 0.801007 0.096656 0.342718
Si Si3 0.069597 0.866973 0.270629
Si Si4 0.761427 0.739638 0.583049
Si Si5 0.383454 0.783545 0.579076
Si Si6 0.705656 0.101204 0.791888
Si Si7 0.928194 0.663613 0.233345
O O1 0.500000 0.589367 0.581365
O O2 0.603393 0.500000 0.581141
O O3 0.574148 0.597829 0.689230
O O4 0.598979 0.682042 0.576697
O O5 0.871540 0.096509 0.312527
O O6 0.800814 0.174160 0.399866
O O7 0.753130 0.118410 0.275873
O O8 0.783537 0.000000 0.368970
O O9 0.074593 0.762522 0.263018
O O10 0.000000 0.888104 0.299359
O O11 0.768670 0.709756 0.500000
O O12 0.690883 0.777173 0.592383
O O13 0.776746 0.665851 0.642342
O O14 0.396870 0.822308 0.500000
O O15 0.417417 0.828018 0.646725
O O16 0.632943 0.116193 0.766784
O O17 0.714221 0.000000 0.811746
O O18 0.000000 0.630894 0.247226
#
# Coordination Sequence:
#
# PCOD9520219 Si02
#       7
#    16  16  16  16  16  16  16
#     4   9  17  28  43  71 112 150 186 229 277 337
#     4  11  21  35  61  88 115 154 192 238 291 342
#     4   9  17  30  53  83 111 142 183 231 284 343
#     4  11  23  39  59  84 120 158 191 237 295 358
#     4  10  20  33  52  78 113 156 193 233 292 359
#     4  11  22  38  62  88 115 151 201 253 297 346
#     4  10  19  34  58  83 113 152 197 251 298 343
#
# _framework density 18.536788999999999
#
# number of rings (size 3 to 8) (size 9 to 14) (size 15 to 20)
#    0.000    1.857    2.857    3.857    0.000    4.857 
#    0.000    2.143    0.000    2.143    0.000    3.000 
#    0.000    0.000    0.000    0.000    0.000    0.000 
#
# Total GULP energy -312202.105216 kJ/mol
# GULP energy per Si atom -5575.037593 kJ/mol
# Density = 1.849460 g / cm^3
# Si number density = 18.536789 Si / 1000 Ang^3
#
#
#
# Elastic Constant Matrix: (Units=GPa)
#
#
# Indices 1 2 3 4 5 6 
#
# 1 85.3406 -5.0174 8.9131 0.0000 0.0000 0.0000
# 2 -5.0174 50.3376 15.3361 0.0000 0.0000 0.0000
# 3 8.9131 15.3361 39.4792 0.0000 0.0000 0.0000
# 4 0.0000 0.0000 0.0000 -8.1499 0.0000 0.0000
# 5 0.0000 0.0000 0.0000 0.0000 52.0762 0.0000
# 6 0.0000 0.0000 0.0000 0.0000 0.0000 19.1866
#
#
#
# Elastic Compliance Matrix: (Units=1/GPa)
#
#
# Indices 1 2 3 4 5 6 
#
# 1 0.012239 0.002338 -0.003671 0.000000 0.000000 0.000000
# 2 0.002338 0.022979 -0.009455 0.000000 0.000000 0.000000
# 3 -0.003671 -0.009455 0.029831 0.000000 0.000000 0.000000
# 4 0.000000 0.000000 0.000000 -0.122701 0.000000 0.000000
# 5 0.000000 0.000000 0.000000 0.000000 0.019203 0.000000
# 6 0.000000 0.000000 0.000000 0.000000 0.000000 0.052120
#
#
# Mechanical properties :
#
#
# Convention : Reuss Voigt Hill
#
# Bulk Modulus (GPa) = 23.00204 23.73566 23.36885
# Shear Modulus (GPa) = 100.52736 23.01761 61.77248
#
# Velocity S-wave (km/s) = 7.37218 3.52764 5.77898
# Velocity P-wave (km/s) = 9.21418 5.42445 7.56062
#
# Compressibility (1/GPa) = 0.04347440
#
# Stress axis : x y z
#
# Youngs Moduli (GPa) = 81.70810 43.51717 33.52169
#
# Poissons Ratio (x) = -0.10176 0.12307
# Poissons Ratio (y) = -0.19107 0.31693
# Poissons Ratio (z) = 0.29999 0.41144
#
# Static dielectric constant tensor:
#      x y z
#    x 1.067770 0.000000 0.000000 
#    y 0.000000 1.723200 0.000000 
#    z 0.000000 0.000000 1.656340 
# 
# From -- ./inp_files/47522.got.cif
#   From: 2010.05.17/outbox.cif.g08.bks.cpg/sg71_24_cif.got.tgz:47522.got - 2010.06.03 16:22:01.
