data_PCOD9520211
_publ_section_title
;
Structure prediction by ZEFSAII (Michael W. Deem and Ramdas Pophale) SiO2 
 PCOD9520211
Probable space group: I M M M
;
_chemical_formula_sum "Si O2"
_cell_formula_units_Z 62
_cell_length_a 14.688386
_cell_length_b 12.991249
_cell_length_c 15.700757
_cell_angle_alpha 90.000000
_cell_angle_beta 90.000000
_cell_angle_gamma 90.000000
_cell_volume 2996.025986
_symmetry_space_group_name_H-M "I M M M"
_symmetry_group_IT_number 71
_symmetry_cell_setting 'orthorhombic'
loop_
_space_group_symop_operation_xyz
x,y,z
-x,-y,z
x,-y,-z
-x,y,-z
-x,-y,-z
x,y,-z
-x,y,z
x,-y,z
1/2+x,1/2+y,1/2+z
1/2-x,1/2-y,1/2+z
1/2+x,1/2-y,1/2-z
1/2-x,1/2+y,1/2-z
1/2-x,1/2-y,1/2-z
1/2+x,1/2+y,1/2-z
1/2-x,1/2+y,1/2+z
1/2+x,1/2-y,1/2+z
loop_
_atom_site_type_symbol
_atom_site_label
_atom_site_fract_x
_atom_site_fract_y
_atom_site_fract_z
Si Si1 0.193470 0.806418 0.000000
Si Si2 0.331197 0.000000 0.000000
Si Si3 0.105330 0.500000 0.687392
Si Si4 0.359113 0.692720 0.000000
Si Si5 0.109768 0.118046 0.172196
Si Si6 0.000000 0.000000 0.500000
Si Si7 0.391741 0.223093 0.188129
O O1 0.137003 0.824860 0.914480
O O2 0.266361 0.900327 0.000000
O O3 0.248879 0.699402 0.000000
O O4 0.390550 0.000000 0.915231
O O5 0.147291 0.389513 0.710996
O O6 0.000000 0.500000 0.715545
O O7 0.381388 0.749850 0.088901
O O8 0.419513 0.590201 0.000000
O O9 0.142657 0.185089 0.252260
O O10 0.000000 0.112229 0.176607
O O11 0.143779 0.000000 0.171699
O O12 0.500000 0.216671 0.203026
#
# Coordination Sequence:
#
# PCOD9520211 Si02
#       7
#     8   4   8   8  16   2  16
#     4  12  23  40  60  92 123 165 219 268 315 364
#     4  12  19  34  57  88 122 152 198 270 305 365
#     4  10  19  34  57  86 124 155 203 262 316 388
#     4  12  24  39  66  89 129 168 204 262 317 392
#     4  10  22  39  64  91 126 170 219 268 321 375
#     4  12  28  44  64  94 138 174 200 248 318 432
#     4  10  20  36  60  93 121 167 213 257 321 381
#
# _framework density 20.694081000000001
#
# number of rings (size 3 to 8) (size 9 to 14) (size 15 to 20)
#    0.000    1.290    5.161    0.581    1.806    4.129 
#    0.000    1.290    0.000    0.000    0.000    5.419 
#    0.000    0.000    0.000    0.000    0.000    0.000 
#
# Total GULP energy -172659.229996 kJ/mol
# GULP energy per Si atom -5569.652581 kJ/mol
# Density = 2.064698 g / cm^3
# Si number density = 20.694081 Si / 1000 Ang^3
#
#
#
# Elastic Constant Matrix: (Units=GPa)
#
#
# Indices 1 2 3 4 5 6 
#
# 1 47.4541 40.5207 13.5463 0.0000 0.0000 0.0000
# 2 40.5207 141.1477 54.8106 0.0000 0.0000 0.0000
# 3 13.5463 54.8106 107.0130 0.0000 0.0000 0.0000
# 4 0.0000 0.0000 0.0000 11.5199 0.0000 0.0000
# 5 0.0000 0.0000 0.0000 0.0000 94.4882 0.0000
# 6 0.0000 0.0000 0.0000 0.0000 0.0000 33.5599
#
#
#
# Elastic Compliance Matrix: (Units=1/GPa)
#
#
# Indices 1 2 3 4 5 6 
#
# 1 0.027960 -0.008304 0.000714 0.000000 0.000000 0.000000
# 2 -0.008304 0.011310 -0.004742 0.000000 0.000000 0.000000
# 3 0.000714 -0.004742 0.011683 0.000000 0.000000 0.000000
# 4 0.000000 0.000000 0.000000 0.086806 0.000000 0.000000
# 5 0.000000 0.000000 0.000000 0.000000 0.010583 0.000000
# 6 0.000000 0.000000 0.000000 0.000000 0.000000 0.029798
#
#
# Mechanical properties :
#
#
# Convention : Reuss Voigt Hill
#
# Bulk Modulus (GPa) = 38.03834 57.04112 47.53973
# Shear Modulus (GPa) = 23.63327 40.36274 31.99801
#
# Velocity S-wave (km/s) = 3.38306 4.42118 3.93649
# Velocity P-wave (km/s) = 5.80356 7.32709 6.60937
#
# Compressibility (1/GPa) = 0.02628927
#
# Stress axis : x y z
#
# Youngs Moduli (GPa) = 35.76555 88.41781 85.59522
#
# Poissons Ratio (x) = 0.73421 -0.06110
# Poissons Ratio (y) = 0.29699 0.40586
# Poissons Ratio (z) = -0.02553 0.41925
#
# Static dielectric constant tensor:
#      x y z
#    x 1.788680 0.000000 0.000000 
#    y 0.000000 1.791800 0.000000 
#    z 0.000000 0.000000 1.713230 
# 
# From -- ./inp_files/35863.got.cif
#   From: 2010.05.17/outbox.cif.g08.bks.cpg/sg71_18_cif.got.tgz:35863.got - 2010.06.03 16:22:01.
