data_PCOD9520997
_publ_section_title
;
Structure prediction by ZEFSAII (Michael W. Deem and Ramdas Pophale) SiO2 
 PCOD9520997
Probable space group: I M M M
;
_chemical_formula_sum "Si O2"
_cell_formula_units_Z 80
_cell_length_a 17.095909
_cell_length_b 9.765639
_cell_length_c 23.553137
_cell_angle_alpha 90.000000
_cell_angle_beta 90.000000
_cell_angle_gamma 90.000000
_cell_volume 3932.254532
_symmetry_space_group_name_H-M "I M M M"
_symmetry_group_IT_number 71
_symmetry_cell_setting 'orthorhombic'
loop_
_space_group_symop_operation_xyz
x,y,z
-x,-y,z
x,-y,-z
-x,y,-z
-x,-y,-z
x,y,-z
-x,y,z
x,-y,z
1/2+x,1/2+y,1/2+z
1/2-x,1/2-y,1/2+z
1/2+x,1/2-y,1/2-z
1/2-x,1/2+y,1/2-z
1/2-x,1/2-y,1/2-z
1/2+x,1/2+y,1/2-z
1/2-x,1/2+y,1/2+z
1/2+x,1/2-y,1/2+z
loop_
_atom_site_type_symbol
_atom_site_label
_atom_site_fract_x
_atom_site_fract_y
_atom_site_fract_z
Si Si1 0.341136 0.838859 0.612076
Si Si2 0.159942 0.350300 0.500000
Si Si3 0.846077 0.157724 0.000000
Si Si4 0.809514 0.156405 0.691300
Si Si5 0.591638 0.352403 0.086778
Si Si6 0.088381 0.661558 0.231254
O O1 0.361243 0.744459 0.557926
O O2 0.259271 0.806907 0.646011
O O3 0.402811 0.824732 0.663289
O O4 0.336485 0.000000 0.595176
O O5 0.125143 0.500000 0.500000
O O6 0.252501 0.355616 0.500000
O O7 0.131804 0.268453 0.445864
O O8 0.877772 0.000000 0.000000
O O9 0.886840 0.153109 0.652190
O O10 0.838468 0.258341 0.740378
O O11 0.792928 0.000000 0.711196
O O12 0.500000 0.346750 0.076867
O O13 0.621720 0.500000 0.065862
O O14 0.095949 0.500000 0.244999
O O15 0.000000 0.705289 0.247725
#
# Coordination Sequence:
#
# PCOD9520997 Si02
#       6
#    16   8   8  16  16  16
#     4  10  21  39  63  86 113 153 195 234 281 342
#     4  11  22  34  49  73 107 143 183 234 285 331
#     4  11  23  38  59  88 116 144 187 244 294 337
#     4  10  20  35  58  85 113 150 194 233 273 331
#     4  10  20  33  50  74 107 148 190 228 270 327
#     4  10  22  39  59  87 120 151 187 235 291 344
#
# _framework density 20.344563999999998
#
# number of rings (size 3 to 8) (size 9 to 14) (size 15 to 20)
#    0.000    1.800    2.000    2.100    0.000    6.000 
#    0.000    0.500    0.000    3.000    0.000    0.000 
#    0.000    0.000    0.000    0.000    0.000    0.000 
#
# Total GULP energy -222933.070428 kJ/mol
# GULP energy per Si atom -5573.326761 kJ/mol
# Density = 2.029826 g / cm^3
# Si number density = 20.344564 Si / 1000 Ang^3
#
#
#
# Elastic Constant Matrix: (Units=GPa)
#
#
# Indices 1 2 3 4 5 6 
#
# 1 49.5961 8.4224 0.0668 0.0000 0.0000 0.0000
# 2 8.4224 101.3884 52.5465 0.0000 0.0000 0.0000
# 3 0.0668 52.5465 92.7166 0.0000 0.0000 0.0000
# 4 0.0000 0.0000 0.0000 20.0859 0.0000 0.0000
# 5 0.0000 0.0000 0.0000 0.0000 47.3551 0.0000
# 6 0.0000 0.0000 0.0000 0.0000 0.0000 17.3705
#
#
#
# Elastic Compliance Matrix: (Units=1/GPa)
#
#
# Indices 1 2 3 4 5 6 
#
# 1 0.020570 -0.002409 0.001350 0.000000 0.000000 0.000000
# 2 -0.002409 0.014247 -0.008073 0.000000 0.000000 0.000000
# 3 0.001350 -0.008073 0.015360 0.000000 0.000000 0.000000
# 4 0.000000 0.000000 0.000000 0.049786 0.000000 0.000000
# 5 0.000000 0.000000 0.000000 0.000000 0.021117 0.000000
# 6 0.000000 0.000000 0.000000 0.000000 0.000000 0.057569
#
#
# Mechanical properties :
#
#
# Convention : Reuss Voigt Hill
#
# Bulk Modulus (GPa) = 31.33344 40.64139 35.98741
# Shear Modulus (GPa) = 24.09071 29.14000 26.61536
#
# Velocity S-wave (km/s) = 3.44486 3.78871 3.62087
# Velocity P-wave (km/s) = 5.59085 6.25772 5.93366
#
# Compressibility (1/GPa) = 0.03191479
#
# Stress axis : x y z
#
# Youngs Moduli (GPa) = 48.61428 70.19067 65.10561
#
# Poissons Ratio (x) = 0.16906 -0.08790
# Poissons Ratio (y) = 0.11709 0.52557
# Poissons Ratio (z) = -0.06564 0.56662
#
# Static dielectric constant tensor:
#      x y z
#    x 1.760270 0.000000 0.000000 
#    y 0.000000 1.762620 0.000000 
#    z 0.000000 0.000000 1.751930 
# 
# From -- ./inp_files/61037.got.cif
#   From: 2010.05.17/outbox.cif.g08.bks.cpg/sg71_31_cif.got.tgz:61037.got - 2010.06.03 16:22:01.
