data_PCOD9520225
_publ_section_title
;
Structure prediction by ZEFSAII (Michael W. Deem and Ramdas Pophale) SiO2 
 PCOD9520225
Probable space group: I M M M
;
_chemical_formula_sum "Si O2"
_cell_formula_units_Z 96
_cell_length_a 25.229227
_cell_length_b 7.838253
_cell_length_c 22.996531
_cell_angle_alpha 90.000000
_cell_angle_beta 90.000000
_cell_angle_gamma 90.000000
_cell_volume 4547.634472
_symmetry_space_group_name_H-M "I M M M"
_symmetry_group_IT_number 71
_symmetry_cell_setting 'orthorhombic'
loop_
_space_group_symop_operation_xyz
x,y,z
-x,-y,z
x,-y,-z
-x,y,-z
-x,-y,-z
x,y,-z
-x,y,z
x,-y,z
1/2+x,1/2+y,1/2+z
1/2-x,1/2-y,1/2+z
1/2+x,1/2-y,1/2-z
1/2-x,1/2+y,1/2-z
1/2-x,1/2-y,1/2-z
1/2+x,1/2+y,1/2-z
1/2-x,1/2+y,1/2+z
1/2+x,1/2-y,1/2+z
loop_
_atom_site_type_symbol
_atom_site_label
_atom_site_fract_x
_atom_site_fract_y
_atom_site_fract_z
Si Si1 0.500000 0.293026 0.156789
Si Si2 0.000000 0.703292 0.207549
Si Si3 0.180752 0.800303 0.064242
Si Si4 0.885624 0.703195 0.176934
Si Si5 0.799393 0.196842 0.592165
Si Si6 0.806760 0.705149 0.723437
Si Si7 0.414401 0.708496 0.063392
O O1 0.500000 0.500000 0.158733
O O2 0.500000 0.230045 0.222772
O O3 0.550656 0.236537 0.118313
O O4 0.054691 0.772839 0.180603
O O5 0.000000 0.500000 0.196847
O O6 0.146228 0.729568 0.117294
O O7 0.243449 0.780229 0.076837
O O8 0.169025 0.000000 0.062490
O O9 0.169651 0.726265 0.000000
O O10 0.888809 0.500000 0.185411
O O11 0.851029 0.767884 0.231345
O O12 0.808960 0.209209 0.660960
O O13 0.853709 0.268718 0.566207
O O14 0.794430 0.000000 0.574147
O O15 0.810782 0.500000 0.716359
O O16 0.750000 0.750000 0.750000
O O17 0.413379 0.500000 0.065884
O O18 0.436721 0.754681 0.000000
#
# Coordination Sequence:
#
# PCOD9520225 Si02
#       7
#     8   8  16  16  16  16  16
#     4  10  19  34  58  85 111 148 195 239 285 332
#     4  10  22  41  62  86 116 147 183 232 285 342
#     4  11  24  40  59  84 114 148 187 236 290 343
#     4  10  22  40  62  86 114 151 191 230 282 342
#     4  11  21  34  55  84 117 155 194 235 288 343
#     4  11  21  34  55  85 117 151 190 235 285 336
#     4   9  18  32  52  80 114 153 198 242 278 325
#
# _framework density 21.109874999999999
#
# number of rings (size 3 to 8) (size 9 to 14) (size 15 to 20)
#    0.000    1.667    1.667    3.250    0.000    4.333 
#    0.000    1.250    0.000    5.500    0.000    0.000 
#    0.000    0.000    0.000    0.000    0.000    0.000 
#
# Total GULP energy -268158.447863 kJ/mol
# GULP energy per Si atom -5586.634330 kJ/mol
# Density = 2.106183 g / cm^3
# Si number density = 21.109875 Si / 1000 Ang^3
#
#
#
# Elastic Constant Matrix: (Units=GPa)
#
#
# Indices 1 2 3 4 5 6 
#
# 1 144.8757 -4.4982 45.9389 0.0000 0.0000 0.0000
# 2 -4.4982 26.5914 -17.3558 0.0000 0.0000 0.0000
# 3 45.9389 -17.3558 119.5164 0.0000 0.0000 0.0000
# 4 0.0000 0.0000 0.0000 17.9239 0.0000 0.0000
# 5 0.0000 0.0000 0.0000 0.0000 1.0952 0.0000
# 6 0.0000 0.0000 0.0000 0.0000 0.0000 5.6124
#
#
#
# Elastic Compliance Matrix: (Units=1/GPa)
#
#
# Indices 1 2 3 4 5 6 
#
# 1 0.007873 -0.000711 -0.003129 0.000000 0.000000 0.000000
# 2 -0.000711 0.041608 0.006315 0.000000 0.000000 0.000000
# 3 -0.003129 0.006315 0.010487 0.000000 0.000000 0.000000
# 4 0.000000 0.000000 0.000000 0.055792 0.000000 0.000000
# 5 0.000000 0.000000 0.000000 0.000000 0.913096 0.000000
# 6 0.000000 0.000000 0.000000 0.000000 0.000000 0.178176
#
#
# Mechanical properties :
#
#
# Convention : Reuss Voigt Hill
#
# Bulk Modulus (GPa) = 15.40395 37.68368 26.54382
# Shear Modulus (GPa) = 4.08590 22.71953 13.40272
#
# Velocity S-wave (km/s) = 1.39275 3.28419 2.52246
# Velocity P-wave (km/s) = 3.14630 5.68077 4.59186
#
# Compressibility (1/GPa) = 0.06491841
#
# Stress axis : x y z
#
# Youngs Moduli (GPa) = 127.02184 24.03388 95.35662
#
# Poissons Ratio (x) = 0.01708 0.29839
# Poissons Ratio (y) = 0.09027 -0.60221
# Poissons Ratio (z) = 0.39748 -0.15178
#
# Static dielectric constant tensor:
#      x y z
#    x 1.698000 0.000000 0.000000 
#    y 0.000000 1.776470 0.000000 
#    z 0.000000 0.000000 1.769990 
# 
# From -- ./inp_files/61575.got.cif
#   From: 2010.05.17/outbox.cif.g08.bks.cpg/sg71_31_cif.got.tgz:61575.got - 2010.06.03 16:22:01.
