data_PCOD9520625
_publ_section_title
;
Structure prediction by ZEFSAII (Michael W. Deem and Ramdas Pophale) SiO2 
 PCOD9520625
Probable space group: I M M M
;
_chemical_formula_sum "Si O2"
_cell_formula_units_Z 104
_cell_length_a 19.334471
_cell_length_b 12.553130
_cell_length_c 18.735713
_cell_angle_alpha 90.000000
_cell_angle_beta 90.000000
_cell_angle_gamma 90.000000
_cell_volume 4547.309828
_symmetry_space_group_name_H-M "I M M M"
_symmetry_group_IT_number 71
_symmetry_cell_setting 'orthorhombic'
loop_
_space_group_symop_operation_xyz
x,y,z
-x,-y,z
x,-y,-z
-x,y,-z
-x,-y,-z
x,y,-z
-x,y,z
x,-y,z
1/2+x,1/2+y,1/2+z
1/2-x,1/2-y,1/2+z
1/2+x,1/2-y,1/2-z
1/2-x,1/2+y,1/2-z
1/2-x,1/2-y,1/2-z
1/2+x,1/2+y,1/2-z
1/2-x,1/2+y,1/2+z
1/2+x,1/2-y,1/2+z
loop_
_atom_site_type_symbol
_atom_site_label
_atom_site_fract_x
_atom_site_fract_y
_atom_site_fract_z
Si Si1 0.846447 0.869649 0.418553
Si Si2 0.774892 0.628867 0.631936
Si Si3 0.500000 0.623581 0.086346
Si Si4 0.076589 0.626051 0.658759
Si Si5 0.423725 0.689040 0.729444
Si Si6 0.222600 0.121307 0.717019
Si Si7 0.124278 0.871386 0.919806
O O1 0.834900 0.837303 0.500000
O O2 0.923837 0.836939 0.393026
O O3 0.786781 0.835563 0.363513
O O4 0.847549 0.000000 0.418205
O O5 0.769858 0.500000 0.633260
O O6 0.854807 0.648136 0.611506
O O7 0.765876 0.662243 0.715542
O O8 0.705908 0.656146 0.588412
O O9 0.500000 0.500000 0.106467
O O10 0.500000 0.628635 0.000000
O O11 0.079939 0.500000 0.676428
O O12 0.079832 0.696930 0.730819
O O13 0.000000 0.643402 0.625706
O O14 0.500000 0.644334 0.746742
O O15 0.356975 0.623642 0.755501
O O16 0.414521 0.688623 0.644112
O O17 0.246398 0.000000 0.707583
O O18 0.115970 0.000000 0.909166
O O19 0.101190 0.846768 0.000000
#
# Coordination Sequence:
#
# PCOD9520625 Si02
#       7
#    16  16   8  16  16  16  16
#     4   8  13  21  33  52  83 126 168 193 219 270
#     4   8  15  30  51  74  97 125 165 205 249 307
#     4   7  10  16  26  42  66 106 158 190 204 241
#     4   9  18  34  56  76  94 121 162 220 278 312
#     4  10  20  31  47  74 101 130 173 212 246 298
#     4   9  17  26  40  67 102 133 160 200 248 299
#     4   9  18  32  50  76 111 145 170 196 240 301
#
# _framework density 22.870664999999999
#
# number of rings (size 3 to 8) (size 9 to 14) (size 15 to 20)
#    0.000    3.308    0.000    2.308    1.077    4.000 
#    0.000    0.769    0.000    4.615    0.000    9.692 
#    0.000    0.000    0.000    0.000    0.000    0.000 
#
# Total GULP energy -290060.008558 kJ/mol
# GULP energy per Si atom -5578.077088 kJ/mol
# Density = 2.281861 g / cm^3
# Si number density = 22.870665 Si / 1000 Ang^3
#
#
#
# Elastic Constant Matrix: (Units=GPa)
#
#
# Indices 1 2 3 4 5 6 
#
# 1 99.6164 7.4685 12.0107 0.0000 0.0000 0.0000
# 2 7.4685 51.3126 3.4742 0.0000 0.0000 0.0000
# 3 12.0107 3.4742 106.3094 0.0000 0.0000 0.0000
# 4 0.0000 0.0000 0.0000 24.1640 0.0000 0.0000
# 5 0.0000 0.0000 0.0000 0.0000 27.0317 0.0000
# 6 0.0000 0.0000 0.0000 0.0000 0.0000 35.9201
#
#
#
# Elastic Compliance Matrix: (Units=1/GPa)
#
#
# Indices 1 2 3 4 5 6 
#
# 1 0.010279 -0.001421 -0.001115 0.000000 0.000000 0.000000
# 2 -0.001421 0.019728 -0.000484 0.000000 0.000000 0.000000
# 3 -0.001115 -0.000484 0.009548 0.000000 0.000000 0.000000
# 4 0.000000 0.000000 0.000000 0.041384 0.000000 0.000000
# 5 0.000000 0.000000 0.000000 0.000000 0.036994 0.000000
# 6 0.000000 0.000000 0.000000 0.000000 0.000000 0.027840
#
#
# Mechanical properties :
#
#
# Convention : Reuss Voigt Hill
#
# Bulk Modulus (GPa) = 29.83645 33.68281 31.75963
# Shear Modulus (GPa) = 30.67780 33.04217 31.85998
#
# Velocity S-wave (km/s) = 3.66643 3.80510 3.73641
# Velocity P-wave (km/s) = 5.56756 5.83648 5.70360
#
# Compressibility (1/GPa) = 0.03351605
#
# Stress axis : x y z
#
# Youngs Moduli (GPa) = 97.28155 50.68954 104.73072
#
# Poissons Ratio (x) = 0.07201 0.11677
# Poissons Ratio (y) = 0.13821 0.05071
# Poissons Ratio (z) = 0.10846 0.02454
#
# Static dielectric constant tensor:
#      x y z
#    x 1.865350 0.000000 0.000000 
#    y 0.000000 1.982950 0.000000 
#    z 0.000000 0.000000 1.861040 
# 
# From -- ./inp_files/55054.got.cif
#   From: 2010.05.17/outbox.cif.g08.bks.cpg/sg71_28_cif.got.tgz:55054.got - 2010.06.03 16:22:01.
