data_PCOD9520790
_publ_section_title
;
Structure prediction by ZEFSAII (Michael W. Deem and Ramdas Pophale) SiO2 
 PCOD9520790
Probable space group: I M M M
;
_chemical_formula_sum "Si O2"
_cell_formula_units_Z 88
_cell_length_a 9.376622
_cell_length_b 29.161802
_cell_length_c 16.762814
_cell_angle_alpha 90.000000
_cell_angle_beta 90.000000
_cell_angle_gamma 90.000000
_cell_volume 4583.610353
_symmetry_space_group_name_H-M "I M M M"
_symmetry_group_IT_number 71
_symmetry_cell_setting 'orthorhombic'
loop_
_space_group_symop_operation_xyz
x,y,z
-x,-y,z
x,-y,-z
-x,y,-z
-x,-y,-z
x,y,-z
-x,y,z
x,-y,z
1/2+x,1/2+y,1/2+z
1/2-x,1/2-y,1/2+z
1/2+x,1/2-y,1/2-z
1/2-x,1/2+y,1/2-z
1/2-x,1/2-y,1/2-z
1/2+x,1/2+y,1/2-z
1/2-x,1/2+y,1/2+z
1/2+x,1/2-y,1/2+z
loop_
_atom_site_type_symbol
_atom_site_label
_atom_site_fract_x
_atom_site_fract_y
_atom_site_fract_z
Si Si1 0.831462 0.288530 0.657197
Si Si2 0.669604 0.101734 0.403320
Si Si3 0.157268 0.865778 0.907619
Si Si4 0.836857 0.448521 0.402423
Si Si5 0.829831 0.813850 0.678667
Si Si6 0.672872 0.000000 0.593530
O O1 0.762895 0.323175 0.595463
O O2 0.808680 0.235360 0.635086
O O3 0.747246 0.303244 0.737321
O O4 0.000000 0.295347 0.668219
O O5 0.685186 0.103258 0.500000
O O6 0.500000 0.107088 0.386436
O O7 0.757281 0.142896 0.363633
O O8 0.715758 0.050361 0.374969
O O9 0.233263 0.909735 0.869534
O O10 0.000000 0.855790 0.874615
O O11 0.140134 0.877637 0.000000
O O12 0.837419 0.447735 0.500000
O O13 0.796442 0.500000 0.378687
O O14 0.000000 0.439718 0.377776
O O15 0.000000 0.820527 0.687238
O O16 0.500000 0.000000 0.596276
O O17 0.713378 0.000000 0.500000
#
# Coordination Sequence:
#
# PCOD9520790 Si02
#       6
#    16  16  16  16  16   8
#     4  10  21  37  55  72  96 135 177 214 257 312
#     4   9  17  31  54  82 110 141 176 212 251 302
#     4  10  20  32  49  75 104 132 164 209 261 304
#     4   8  14  26  45  68  94 126 163 199 238 291
#     4  10  21  36  54  76 102 133 170 214 263 312
#     4   7  12  26  49  77 107 139 174 207 242 293
#
# _framework density 19.198839
#
# number of rings (size 3 to 8) (size 9 to 14) (size 15 to 20)
#    0.000    2.818    0.000    3.273    0.000    4.727 
#    0.000    5.909    2.000    1.636    0.000    0.000 
#    0.000    0.000    0.000    0.000    0.000    0.000 
#
# Total GULP energy -244971.908022 kJ/mol
# GULP energy per Si atom -5567.543364 kJ/mol
# Density = 1.915514 g / cm^3
# Si number density = 19.198839 Si / 1000 Ang^3
#
#
#
# Elastic Constant Matrix: (Units=GPa)
#
#
# Indices 1 2 3 4 5 6 
#
# 1 101.8407 101.4678 17.9827 0.0003 0.0000 0.0000
# 2 101.4678 184.5651 32.7841 0.0002 0.0000 0.0000
# 3 17.9827 32.7841 10.4733 0.0008 0.0001 0.0000
# 4 0.0003 0.0002 0.0008 -26.2143 0.0000 0.0000
# 5 0.0000 0.0000 0.0001 0.0000 19.9627 0.0000
# 6 0.0000 0.0000 0.0000 0.0000 0.0000 34.6009
#
#
#
# Elastic Compliance Matrix: (Units=1/GPa)
#
#
# Indices 1 2 3 4 5 6 
#
# 1 0.021712 -0.011971 0.000191 0.000000 0.000000 0.000000
# 2 -0.011971 0.018804 -0.038306 -0.000001 0.000000 0.000000
# 3 0.000191 -0.038306 0.215060 0.000007 -0.000001 0.000000
# 4 0.000000 -0.000001 0.000007 -0.038147 0.000000 0.000000
# 5 0.000000 0.000000 -0.000001 0.000000 0.050093 0.000000
# 6 0.000000 0.000000 0.000000 0.000000 0.000000 0.028901
#
#
# Mechanical properties :
#
#
# Convention : Reuss Voigt Hill
#
# Bulk Modulus (GPa) = 6.43480 66.81648 36.62564
# Shear Modulus (GPa) = 11.15085 15.31282 13.23184
#
# Velocity S-wave (km/s) = 2.41261 2.82723 2.62811
# Velocity P-wave (km/s) = 3.33465 6.74800 5.32238
#
# Compressibility (1/GPa) = 0.15540505
#
# Stress axis : x y z
#
# Youngs Moduli (GPa) = 46.05668 53.18153 4.64986
#
# Poissons Ratio (x) = 0.63662 -0.00089
# Poissons Ratio (y) = 0.55133 0.17812
# Poissons Ratio (z) = -0.00881 2.03718
#
# Static dielectric constant tensor:
#      x y z
#    x 1.675230 0.000000 0.000000 
#    y 0.000000 1.699300 0.000000 
#    z 0.000000 0.000000 1.735560 
# 
# From -- ./inp_files/51058.got.cif
#   From: 2010.05.17/outbox.cif.g08.bks.cpg/sg71_26_cif.got.tgz:51058.got - 2010.06.03 16:22:01.
