data_PCOD9520482
_publ_section_title
;
Structure prediction by ZEFSAII (Michael W. Deem and Ramdas Pophale) SiO2 
 PCOD9520482
Probable space group: I M M M
;
_chemical_formula_sum "Si O2"
_cell_formula_units_Z 104
_cell_length_a 7.598630
_cell_length_b 19.868249
_cell_length_c 29.077052
_cell_angle_alpha 90.000000
_cell_angle_beta 90.000000
_cell_angle_gamma 90.000000
_cell_volume 4389.805368
_symmetry_space_group_name_H-M "I M M M"
_symmetry_group_IT_number 71
_symmetry_cell_setting 'orthorhombic'
loop_
_space_group_symop_operation_xyz
x,y,z
-x,-y,z
x,-y,-z
-x,y,-z
-x,-y,-z
x,y,-z
-x,y,z
x,-y,z
1/2+x,1/2+y,1/2+z
1/2-x,1/2-y,1/2+z
1/2+x,1/2-y,1/2-z
1/2-x,1/2+y,1/2-z
1/2-x,1/2-y,1/2-z
1/2+x,1/2+y,1/2-z
1/2-x,1/2+y,1/2+z
1/2+x,1/2-y,1/2+z
loop_
_atom_site_type_symbol
_atom_site_label
_atom_site_fract_x
_atom_site_fract_y
_atom_site_fract_z
Si Si1 0.791748 0.923272 0.000000
Si Si2 0.289330 0.500000 0.073217
Si Si3 0.794639 0.647295 0.951274
Si Si4 0.211858 0.000000 0.318469
Si Si5 0.203514 0.644607 0.224818
Si Si6 0.294268 0.216527 0.362426
Si Si7 0.284652 0.073810 0.189614
Si Si8 0.708758 0.139086 0.098599
O O1 0.746822 0.883418 0.046760
O O2 0.000000 0.929446 0.000000
O O3 0.716740 0.000000 0.000000
O O4 0.500000 0.500000 0.067806
O O5 0.215938 0.567366 0.051235
O O6 0.246905 0.500000 0.127345
O O7 0.712453 0.673677 0.904133
O O8 0.000000 0.668064 0.951263
O O9 0.717707 0.671180 0.000000
O O10 0.285541 0.930341 0.297657
O O11 0.000000 0.000000 0.312960
O O12 0.281612 0.696362 0.187446
O O13 0.280748 0.631506 0.275593
O O14 0.000000 0.663689 0.232385
O O15 0.500000 0.196983 0.358509
O O16 0.284708 0.291626 0.381593
O O17 0.500000 0.074152 0.191678
O O18 0.234485 0.085015 0.136867
O O19 0.225512 0.000000 0.205016
O O20 0.500000 0.146574 0.101853
#
# Coordination Sequence:
#
# PCOD9520482 Si02
#       8
#     8   8  16   8  16  16  16  16
#     4  11  25  47  75 101 127 162 205 258 311 367
#     4  11  22  34  51  78 114 150 191 253 317 362
#     4  10  21  36  55  78 106 149 203 254 303 362
#     4  11  21  32  50  83 118 149 195 262 319 356
#     4  10  19  36  63  86 113 163 215 251 297 366
#     4  10  22  38  58  86 120 165 213 256 304 364
#     4   9  18  35  63  94 121 155 205 259 305 365
#     4  11  24  41  64  96 131 166 201 250 318 381
#
# _framework density 23.691255999999999
#
# number of rings (size 3 to 8) (size 9 to 14) (size 15 to 20)
#    0.000    1.769    2.308    1.846    1.077    4.923 
#    0.000    1.538    0.000    0.000    0.000    0.000 
#    0.000    0.000    0.000    0.000    0.000    0.000 
#
# Total GULP energy -290393.177129 kJ/mol
# GULP energy per Si atom -5584.484176 kJ/mol
# Density = 2.363733 g / cm^3
# Si number density = 23.691256 Si / 1000 Ang^3
#
#
#
# Elastic Constant Matrix: (Units=GPa)
#
#
# Indices 1 2 3 4 5 6 
#
# 1 58.1179 -18.0637 3.2442 0.0000 0.0000 0.0000
# 2 -18.0637 87.8988 42.9998 0.0000 0.0000 0.0000
# 3 3.2442 42.9998 200.0216 0.0000 0.0000 0.0000
# 4 0.0000 0.0000 0.0000 30.8578 0.0000 0.0000
# 5 0.0000 0.0000 0.0000 0.0000 -11.4398 0.0000
# 6 0.0000 0.0000 0.0000 0.0000 0.0000 -36.2824
#
#
#
# Elastic Compliance Matrix: (Units=1/GPa)
#
#
# Indices 1 2 3 4 5 6 
#
# 1 0.018660 0.004451 -0.001259 0.000000 0.000000 0.000000
# 2 0.004451 0.013775 -0.003034 0.000000 0.000000 0.000000
# 3 -0.001259 -0.003034 0.005672 0.000000 0.000000 0.000000
# 4 0.000000 0.000000 0.000000 0.032407 0.000000 0.000000
# 5 0.000000 0.000000 0.000000 0.000000 -0.087414 0.000000
# 6 0.000000 0.000000 0.000000 0.000000 0.000000 -0.027562
#
#
# Mechanical properties :
#
#
# Convention : Reuss Voigt Hill
#
# Bulk Modulus (GPa) = 26.02593 44.71098 35.36846
# Shear Modulus (GPa) = -156.40151 17.81764 -69.29193
#
# Velocity S-wave (km/s) = -8.13387 2.74538 -5.41400
# Velocity P-wave (km/s) = 8.78657 5.38171 4.91127
#
# Compressibility (1/GPa) = 0.03842321
#
# Stress axis : x y z
#
# Youngs Moduli (GPa) = 53.59027 72.59314 176.30371
#
# Poissons Ratio (x) = -0.32310 0.22205
# Poissons Ratio (y) = -0.23852 0.53483
# Poissons Ratio (z) = 0.06750 0.22022
#
# Static dielectric constant tensor:
#      x y z
#    x 1.877250 0.000000 0.000000 
#    y 0.000000 1.906980 0.000000 
#    z 0.000000 0.000000 2.787450 
# 
# From -- ./inp_files/63376.got.cif
#   From: 2010.05.17/outbox.cif.g08.bks.cpg/sg71_32_cif.got.tgz:63376.got - 2010.06.03 16:22:01.
