data_PCOD9520168
_publ_section_title
;
Structure prediction by ZEFSAII (Michael W. Deem and Ramdas Pophale) SiO2 
 PCOD9520168
Probable space group: I M M M
;
_chemical_formula_sum "Si O2"
_cell_formula_units_Z 104
_cell_length_a 9.382381
_cell_length_b 22.417161
_cell_length_c 28.285208
_cell_angle_alpha 90.000000
_cell_angle_beta 90.000000
_cell_angle_gamma 90.000000
_cell_volume 5949.124429
_symmetry_space_group_name_H-M "I M M M"
_symmetry_group_IT_number 71
_symmetry_cell_setting 'orthorhombic'
loop_
_space_group_symop_operation_xyz
x,y,z
-x,-y,z
x,-y,-z
-x,y,-z
-x,-y,-z
x,y,-z
-x,y,z
x,-y,z
1/2+x,1/2+y,1/2+z
1/2-x,1/2-y,1/2+z
1/2+x,1/2-y,1/2-z
1/2-x,1/2+y,1/2-z
1/2-x,1/2-y,1/2-z
1/2+x,1/2+y,1/2-z
1/2-x,1/2+y,1/2+z
1/2+x,1/2-y,1/2+z
loop_
_atom_site_type_symbol
_atom_site_label
_atom_site_fract_x
_atom_site_fract_y
_atom_site_fract_z
Si Si1 0.665737 0.180880 0.703636
Si Si2 0.330814 0.386679 0.398901
Si Si3 0.828332 0.500000 0.443298
Si Si4 0.657691 0.929951 0.556408
Si Si5 0.833522 0.824600 0.798540
Si Si6 0.832316 0.161124 0.388128
Si Si7 0.665791 0.739521 0.555489
O O1 0.500000 0.165021 0.701030
O O2 0.731805 0.163621 0.754166
O O3 0.676381 0.252738 0.695262
O O4 0.758076 0.152833 0.662239
O O5 0.500000 0.401840 0.399468
O O6 0.239597 0.442002 0.417774
O O7 0.297394 0.361099 0.346193
O O8 0.309611 0.329759 0.433056
O O9 0.795014 0.500000 0.500000
O O10 0.000000 0.500000 0.438667
O O11 0.662811 0.922786 0.500000
O O12 0.500000 0.907991 0.572047
O O13 0.782967 0.893680 0.579826
O O14 0.666106 0.000000 0.566764
O O15 0.000000 0.837093 0.787367
O O16 0.766433 0.219234 0.413428
O O17 0.000000 0.166687 0.383481
O O18 0.684949 0.751633 0.500000
O O19 0.500000 0.751974 0.567954
#
# Coordination Sequence:
#
# PCOD9520168 Si02
#       7
#    16  16   8  16  16  16  16
#     4  10  19  34  56  82 114 147 182 221 271 332
#     4  10  20  38  62  84 109 147 192 236 285 342
#     4  11  25  41  57  83 119 155 195 245 294 345
#     4   9  19  37  59  79 103 142 188 228 269 323
#     4   9  18  34  57  85 112 138 178 229 278 329
#     4  12  23  33  51  81 116 149 182 224 276 328
#     4  10  20  35  55  80 111 146 186 230 276 331
#
# _framework density 17.481563999999999
#
# number of rings (size 3 to 8) (size 9 to 14) (size 15 to 20)
#    0.000    1.923    1.538    3.462    0.000    5.846 
#    0.000    0.769    1.692    0.000    0.000    0.000 
#    0.000    0.000    0.000    0.000    0.000    0.000 
#
# Total GULP energy -290216.705058 kJ/mol
# GULP energy per Si atom -5581.090482 kJ/mol
# Density = 1.744177 g / cm^3
# Si number density = 17.481564 Si / 1000 Ang^3
#
#
#
# Elastic Constant Matrix: (Units=GPa)
#
#
# Indices 1 2 3 4 5 6 
#
# 1 105.7597 41.1365 60.3016 0.0000 0.0000 0.0000
# 2 41.1365 51.6866 45.1816 0.0000 0.0000 0.0000
# 3 60.3016 45.1816 71.9230 0.0000 0.0000 0.0000
# 4 0.0000 0.0000 0.0000 37.7782 0.0000 0.0000
# 5 0.0000 0.0000 0.0000 0.0000 30.7327 0.0000
# 6 0.0000 0.0000 0.0000 0.0000 0.0000 -1.0084
#
#
#
# Elastic Compliance Matrix: (Units=1/GPa)
#
#
# Indices 1 2 3 4 5 6 
#
# 1 0.018266 -0.002552 -0.013712 0.000000 0.000000 0.000000
# 2 -0.002552 0.043268 -0.025041 0.000000 0.000000 0.000000
# 3 -0.013712 -0.025041 0.041131 0.000000 0.000000 0.000000
# 4 0.000000 0.000000 0.000000 0.026470 0.000000 0.000000
# 5 0.000000 0.000000 0.000000 0.000000 0.032539 0.000000
# 6 0.000000 0.000000 0.000000 0.000000 0.000000 -0.991626
#
#
# Mechanical properties :
#
#
# Convention : Reuss Voigt Hill
#
# Bulk Modulus (GPa) = 49.86188 58.06765 53.96476
# Shear Modulus (GPa) = -6.75075 19.01714 6.13319
#
# Velocity S-wave (km/s) = -1.96724 3.30182 1.87510
# Velocity P-wave (km/s) = 4.83988 6.91554 5.96863
#
# Compressibility (1/GPa) = 0.02005540
#
# Stress axis : x y z
#
# Youngs Moduli (GPa) = 54.74698 23.11174 24.31275
#
# Poissons Ratio (x) = 0.05897 0.33336
# Poissons Ratio (y) = 0.13969 0.60883
# Poissons Ratio (z) = 0.75066 0.57875
#
# Static dielectric constant tensor:
#      x y z
#    x 1.580490 0.000000 0.000000 
#    y 0.000000 1.587670 0.000000 
#    z 0.000000 0.000000 1.602400 
# 
# From -- ./inp_files/50907.got.cif
#   From: 2010.05.17/outbox.cif.g08.bks.cpg/sg71_26_cif.got.tgz:50907.got - 2010.06.03 16:22:01.
