data_PCOD9520709
_publ_section_title
;
Structure prediction by ZEFSAII (Michael W. Deem and Ramdas Pophale) SiO2 
 PCOD9520709
Probable space group: I M M M
;
_chemical_formula_sum "Si O2"
_cell_formula_units_Z 80
_cell_length_a 20.232414
_cell_length_b 25.863257
_cell_length_c 8.582376
_cell_angle_alpha 90.000000
_cell_angle_beta 90.000000
_cell_angle_gamma 90.000000
_cell_volume 4490.952440
_symmetry_space_group_name_H-M "I M M M"
_symmetry_group_IT_number 71
_symmetry_cell_setting 'orthorhombic'
loop_
_space_group_symop_operation_xyz
x,y,z
-x,-y,z
x,-y,-z
-x,y,-z
-x,-y,-z
x,y,-z
-x,y,z
x,-y,z
1/2+x,1/2+y,1/2+z
1/2-x,1/2-y,1/2+z
1/2+x,1/2-y,1/2-z
1/2-x,1/2+y,1/2-z
1/2-x,1/2-y,1/2-z
1/2+x,1/2+y,1/2-z
1/2-x,1/2+y,1/2+z
1/2+x,1/2-y,1/2+z
loop_
_atom_site_type_symbol
_atom_site_label
_atom_site_fract_x
_atom_site_fract_y
_atom_site_fract_z
Si Si1 0.258573 0.168426 0.685944
Si Si2 0.145683 0.762774 0.813528
Si Si3 0.732637 0.942524 0.816418
Si Si4 0.623520 0.441747 0.819241
Si Si5 0.000000 0.236837 0.676498
Si Si6 0.500000 0.614433 0.178654
O O1 0.354457 0.267085 0.500000
O O2 0.186278 0.187305 0.747920
O O3 0.309715 0.213390 0.734322
O O4 0.285620 0.112628 0.741221
O O5 0.254327 0.832137 0.500000
O O6 0.070762 0.752649 0.756921
O O7 0.810739 0.942341 0.780680
O O8 0.708880 0.000000 0.759125
O O9 0.719529 0.940431 0.000000
O O10 0.596880 0.500000 0.824016
O O11 0.567313 0.405755 0.750193
O O12 0.640423 0.427142 0.000000
O O13 0.000000 0.257829 0.500000
O O14 0.000000 0.174953 0.669461
O O15 0.500000 0.593301 0.000000
#
# Coordination Sequence:
#
# PCOD9520709 Si02
#       6
#    16  16  16  16   8   8
#     4  10  20  35  55  77 101 134 175 215 258 308
#     4  10  21  36  54  76 104 136 171 215 262 305
#     4  10  20  32  47  70  99 128 160 203 254 304
#     4   9  16  27  43  61  85 121 163 203 240 280
#     4  11  21  32  49  74 103 135 171 207 249 306
#     4   9  17  27  40  60  86 119 160 200 233 272
#
# _framework density 17.813593999999998
#
# number of rings (size 3 to 8) (size 9 to 14) (size 15 to 20)
#    0.000    2.200    0.000    3.600    0.000    6.400 
#    0.000    1.500    0.000    2.400    0.000    0.700 
#    0.000    5.600    0.000    0.000    0.000    0.000 
#
# Total GULP energy -222728.539017 kJ/mol
# GULP energy per Si atom -5568.213475 kJ/mol
# Density = 1.777305 g / cm^3
# Si number density = 17.813594 Si / 1000 Ang^3
#
#
#
# Elastic Constant Matrix: (Units=GPa)
#
#
# Indices 1 2 3 4 5 6 
#
# 1 71.3286 19.2728 13.6650 0.0000 0.0000 0.0000
# 2 19.2728 100.0050 15.3812 0.0000 0.0000 0.0000
# 3 13.6650 15.3812 37.4006 0.0000 0.0000 0.0000
# 4 0.0000 0.0000 0.0000 24.9611 0.0000 0.0000
# 5 0.0000 0.0000 0.0000 0.0000 -70.0924 0.0000
# 6 0.0000 0.0000 0.0000 0.0000 0.0000 25.4709
#
#
#
# Elastic Compliance Matrix: (Units=1/GPa)
#
#
# Indices 1 2 3 4 5 6 
#
# 1 0.015541 -0.002265 -0.004747 0.000000 0.000000 0.000000
# 2 -0.002265 0.011005 -0.003698 0.000000 0.000000 0.000000
# 3 -0.004747 -0.003698 0.029993 0.000000 0.000000 0.000000
# 4 0.000000 0.000000 0.000000 0.040062 0.000000 0.000000
# 5 0.000000 0.000000 0.000000 0.000000 -0.014267 0.000000
# 6 0.000000 0.000000 0.000000 0.000000 0.000000 0.039261
#
#
# Mechanical properties :
#
#
# Convention : Reuss Voigt Hill
#
# Bulk Modulus (GPa) = 28.47484 33.93023 31.20253
# Shear Modulus (GPa) = 32.31634 6.76226 19.53930
#
# Velocity S-wave (km/s) = 4.26389 1.95048 3.31550
# Velocity P-wave (km/s) = 6.34513 4.91541 5.67547
#
# Compressibility (1/GPa) = 0.03511872
#
# Stress axis : x y z
#
# Youngs Moduli (GPa) = 64.34602 90.86933 33.34142
#
# Poissons Ratio (x) = 0.20582 0.15826
# Poissons Ratio (y) = 0.14574 0.12330
# Poissons Ratio (z) = 0.30543 0.33606
#
# Static dielectric constant tensor:
#      x y z
#    x 1.614750 0.000000 0.000000 
#    y 0.000000 1.679670 0.000000 
#    z 0.000000 0.000000 1.634140 
# 
# From -- ./inp_files/10247.got.cif
#   From: 2010.05.17/outbox.cif.g08.bks.cpg/sg71_6_cif.got.tgz:10247.got - 2010.06.03 16:22:01.
