data_PCOD9520293
_publ_section_title
;
Structure prediction by ZEFSAII (Michael W. Deem and Ramdas Pophale) SiO2 
 PCOD9520293
Probable space group: I M M M
;
_chemical_formula_sum "Si O2"
_cell_formula_units_Z 92
_cell_length_a 22.129442
_cell_length_b 15.425837
_cell_length_c 16.611412
_cell_angle_alpha 90.000000
_cell_angle_beta 90.000000
_cell_angle_gamma 90.000000
_cell_volume 5670.557401
_symmetry_space_group_name_H-M "I M M M"
_symmetry_group_IT_number 71
_symmetry_cell_setting 'orthorhombic'
loop_
_space_group_symop_operation_xyz
x,y,z
-x,-y,z
x,-y,-z
-x,y,-z
-x,-y,-z
x,y,-z
-x,y,z
x,-y,z
1/2+x,1/2+y,1/2+z
1/2-x,1/2-y,1/2+z
1/2+x,1/2-y,1/2-z
1/2-x,1/2+y,1/2-z
1/2-x,1/2-y,1/2-z
1/2+x,1/2+y,1/2-z
1/2-x,1/2+y,1/2+z
1/2+x,1/2-y,1/2+z
loop_
_atom_site_type_symbol
_atom_site_label
_atom_site_fract_x
_atom_site_fract_y
_atom_site_fract_z
Si Si1 0.347032 0.101320 0.715499
Si Si2 0.780137 0.096320 0.805486
Si Si3 0.713021 0.768947 0.405489
Si Si4 0.356543 0.500000 0.000000
Si Si5 0.659898 0.645201 0.139217
Si Si6 0.072189 0.698393 0.337913
Si Si7 0.426713 0.097861 0.000000
O O1 0.289119 0.106313 0.775328
O O2 0.328048 0.159223 0.639217
O O3 0.402385 0.144292 0.762683
O O4 0.356386 0.000000 0.696074
O O5 0.795429 0.176036 0.863219
O O6 0.819088 0.103916 0.723740
O O7 0.787516 0.000000 0.840515
O O8 0.701322 0.765750 0.500000
O O9 0.782077 0.799107 0.389999
O O10 0.354389 0.575471 0.929032
O O11 0.604527 0.709121 0.156710
O O12 0.090588 0.647480 0.419231
O O13 0.000000 0.705593 0.335479
O O14 0.500000 0.094191 0.000000
O O15 0.403238 0.000000 0.000000
#
# Coordination Sequence:
#
# PCOD9520293 Si02
#       7
#    16  16  16   4  16  16   8
#     4  10  20  34  56  83 111 147 189 233 282 339
#     4  10  19  35  56  78 113 143 178 233 286 334
#     4  11  21  34  57  82 116 145 184 231 290 348
#     4  12  22  32  63  84 112 154 191 224 288 338
#     4  11  20  36  53  82 111 147 184 227 276 340
#     4  11  21  36  55  76 110 154 191 228 274 328
#     4   9  19  32  47  71 103 141 185 224 259 312
#
# _framework density 16.224153999999999
#
# number of rings (size 3 to 8) (size 9 to 14) (size 15 to 20)
#    0.000    1.478    5.217    2.087    1.217    1.739 
#    0.000    0.870    0.000    0.522    0.000    1.217 
#    0.000    1.391    0.000    0.000    0.000    0.000 
#
# Total GULP energy -256143.364892 kJ/mol
# GULP energy per Si atom -5568.334019 kJ/mol
# Density = 1.618723 g / cm^3
# Si number density = 16.224154 Si / 1000 Ang^3
#
#
#
# Elastic Constant Matrix: (Units=GPa)
#
#
# Indices 1 2 3 4 5 6 
#
# 1 63.1872 36.9914 30.8752 0.0000 0.0000 0.0000
# 2 36.9914 152.0831 68.3783 0.0000 0.0000 0.0000
# 3 30.8752 68.3783 108.4697 0.0000 0.0000 0.0000
# 4 0.0000 0.0000 0.0000 28.3340 0.0000 0.0000
# 5 0.0000 0.0000 0.0000 0.0000 13.0520 0.0000
# 6 0.0000 0.0000 0.0000 0.0000 0.0000 7.3484
#
#
#
# Elastic Compliance Matrix: (Units=1/GPa)
#
#
# Indices 1 2 3 4 5 6 
#
# 1 0.019388 -0.003118 -0.003553 0.000000 0.000000 0.000000
# 2 -0.003118 0.009678 -0.005213 0.000000 0.000000 0.000000
# 3 -0.003553 -0.005213 0.013517 0.000000 0.000000 0.000000
# 4 0.000000 0.000000 0.000000 0.035293 0.000000 0.000000
# 5 0.000000 0.000000 0.000000 0.000000 0.076617 0.000000
# 6 0.000000 0.000000 0.000000 0.000000 0.000000 0.136084
#
#
# Mechanical properties :
#
#
# Convention : Reuss Voigt Hill
#
# Bulk Modulus (GPa) = 53.15320 66.24777 59.70048
# Shear Modulus (GPa) = 15.59501 22.24655 18.92078
#
# Velocity S-wave (km/s) = 3.10372 3.70699 3.41869
# Velocity P-wave (km/s) = 6.75848 7.69700 7.24296
#
# Compressibility (1/GPa) = 0.01881354
#
# Stress axis : x y z
#
# Youngs Moduli (GPa) = 51.57958 103.33031 73.98220
#
# Poissons Ratio (x) = 0.32221 0.26284
# Poissons Ratio (y) = 0.16084 0.38568
# Poissons Ratio (z) = 0.18325 0.53867
#
# Static dielectric constant tensor:
#      x y z
#    x 1.527460 0.000000 0.000000 
#    y 0.000000 1.559490 0.000000 
#    z 0.000000 0.000000 1.528210 
# 
# From -- ./inp_files/37852.got.cif
#   From: 2010.05.17/outbox.cif.g08.bks.cpg/sg71_19_cif.got.tgz:37852.got - 2010.06.03 16:22:01.
