data_PCOD9520278
_publ_section_title
;
Structure prediction by ZEFSAII (Michael W. Deem and Ramdas Pophale) SiO2 
 PCOD9520278
Probable space group: I M M M
;
_chemical_formula_sum "Si O2"
_cell_formula_units_Z 116
_cell_length_a 24.729627
_cell_length_b 14.224809
_cell_length_c 17.779001
_cell_angle_alpha 90.000000
_cell_angle_beta 90.000000
_cell_angle_gamma 90.000000
_cell_volume 6254.194222
_symmetry_space_group_name_H-M "I M M M"
_symmetry_group_IT_number 71
_symmetry_cell_setting 'orthorhombic'
loop_
_space_group_symop_operation_xyz
x,y,z
-x,-y,z
x,-y,-z
-x,y,-z
-x,-y,-z
x,y,-z
-x,y,z
x,-y,z
1/2+x,1/2+y,1/2+z
1/2-x,1/2-y,1/2+z
1/2+x,1/2-y,1/2-z
1/2-x,1/2+y,1/2-z
1/2-x,1/2-y,1/2-z
1/2+x,1/2+y,1/2-z
1/2-x,1/2+y,1/2+z
1/2+x,1/2-y,1/2+z
loop_
_atom_site_type_symbol
_atom_site_label
_atom_site_fract_x
_atom_site_fract_y
_atom_site_fract_z
Si Si1 0.105815 0.898231 0.749888
Si Si2 0.937295 0.330134 0.117743
Si Si3 0.070397 0.500000 0.000000
Si Si4 0.747922 0.198323 0.132158
Si Si5 0.361892 0.888661 0.915886
Si Si6 0.062734 0.695271 0.287163
Si Si7 0.731893 0.391219 0.207057
Si Si8 0.367408 0.348901 0.417174
O O1 0.073530 0.806765 0.723906
O O2 0.166818 0.888742 0.717572
O O3 0.111984 0.897504 0.840691
O O4 0.083700 0.000000 0.726695
O O5 0.923881 0.348223 0.205265
O O6 0.897558 0.250682 0.087629
O O7 0.000000 0.296835 0.116194
O O8 0.932454 0.419126 0.065284
O O9 0.695118 0.165016 0.088928
O O10 0.748255 0.310525 0.147854
O O11 0.745140 0.145591 0.213215
O O12 0.803367 0.166457 0.093675
O O13 0.400120 0.846684 0.851860
O O14 0.353298 0.000000 0.903729
O O15 0.384726 0.876377 0.000000
O O16 0.000000 0.678111 0.303396
O O17 0.747433 0.500000 0.191827
O O18 0.377752 0.390123 0.500000
#
# Coordination Sequence:
#
# PCOD9520278 Si02
#       8
#    16  16   4  16  16  16  16  16
#     4   9  18  35  59  84 111 146 189 235 288 348
#     4  10  21  36  55  82 118 160 199 240 291 350
#     4  12  21  36  60  84 120 168 208 244 293 356
#     4  10  19  35  54  82 119 151 197 243 297 353
#     4  11  24  41  62  87 117 155 197 245 303 362
#     4  10  22  40  61  88 118 151 197 249 299 354
#     4   9  17  31  55  82 110 149 191 238 292 353
#     4  10  20  34  52  81 119 155 192 239 284 340
#
# _framework density 18.547553000000001
#
# number of rings (size 3 to 8) (size 9 to 14) (size 15 to 20)
#    0.000    2.069    2.069    1.448    2.897    1.655 
#    1.241    0.690    0.000    2.483    0.000    4.828 
#    0.000    0.000    0.000    0.000    0.000    0.000 
#
# Total GULP energy -323021.209113 kJ/mol
# GULP energy per Si atom -5569.331192 kJ/mol
# Density = 1.850534 g / cm^3
# Si number density = 18.547553 Si / 1000 Ang^3
#
#
#
# Elastic Constant Matrix: (Units=GPa)
#
#
# Indices 1 2 3 4 5 6 
#
# 1 48.7529 20.5641 37.0364 0.0000 0.0000 0.0000
# 2 20.5641 111.5681 43.1302 0.0000 0.0000 0.0000
# 3 37.0364 43.1302 97.8920 0.0000 0.0000 0.0000
# 4 0.0000 0.0000 0.0000 42.9756 0.0000 0.0000
# 5 0.0000 0.0000 0.0000 0.0000 29.5598 0.0000
# 6 0.0000 0.0000 0.0000 0.0000 0.0000 47.0651
#
#
#
# Elastic Compliance Matrix: (Units=1/GPa)
#
#
# Indices 1 2 3 4 5 6 
#
# 1 0.028947 -0.001328 -0.010367 0.000000 0.000000 0.000000
# 2 -0.001328 0.010864 -0.004284 0.000000 0.000000 0.000000
# 3 -0.010367 -0.004284 0.016025 0.000000 0.000000 0.000000
# 4 0.000000 0.000000 0.000000 0.023269 0.000000 0.000000
# 5 0.000000 0.000000 0.000000 0.000000 0.033830 0.000000
# 6 0.000000 0.000000 0.000000 0.000000 0.000000 0.021247
#
#
# Mechanical properties :
#
#
# Convention : Reuss Voigt Hill
#
# Bulk Modulus (GPa) = 41.87867 51.07494 46.47680
# Shear Modulus (GPa) = 28.71922 34.41890 31.56906
#
# Velocity S-wave (km/s) = 3.93925 4.31247 4.13008
# Velocity P-wave (km/s) = 6.58167 7.23834 6.91780
#
# Compressibility (1/GPa) = 0.02387851
#
# Stress axis : x y z
#
# Youngs Moduli (GPa) = 34.54580 92.04638 62.40219
#
# Poissons Ratio (x) = 0.12223 0.64691
# Poissons Ratio (y) = 0.04587 0.26734
# Poissons Ratio (z) = 0.35813 0.39435
#
# Static dielectric constant tensor:
#      x y z
#    x 1.631740 0.000000 0.000000 
#    y 0.000000 1.639200 0.000000 
#    z 0.000000 0.000000 1.646180 
# 
# From -- ./inp_files/48276.got.cif
#   From: 2010.05.17/outbox.cif.g08.bks.cpg/sg71_25_cif.got.tgz:48276.got - 2010.06.03 16:22:01.
