data_PCOD9520122
_publ_section_title
;
Structure prediction by ZEFSAII (Michael W. Deem and Ramdas Pophale) SiO2 
 PCOD9520122
Probable space group: I M M M
;
_chemical_formula_sum "Si O2"
_cell_formula_units_Z 104
_cell_length_a 27.649691
_cell_length_b 9.734646
_cell_length_c 21.610081
_cell_angle_alpha 90.000000
_cell_angle_beta 90.000000
_cell_angle_gamma 90.000000
_cell_volume 5816.568406
_symmetry_space_group_name_H-M "I M M M"
_symmetry_group_IT_number 71
_symmetry_cell_setting 'orthorhombic'
loop_
_space_group_symop_operation_xyz
x,y,z
-x,-y,z
x,-y,-z
-x,y,-z
-x,-y,-z
x,y,-z
-x,y,z
x,-y,z
1/2+x,1/2+y,1/2+z
1/2-x,1/2-y,1/2+z
1/2+x,1/2-y,1/2-z
1/2-x,1/2+y,1/2-z
1/2-x,1/2-y,1/2-z
1/2+x,1/2+y,1/2-z
1/2-x,1/2+y,1/2+z
1/2+x,1/2-y,1/2+z
loop_
_atom_site_type_symbol
_atom_site_label
_atom_site_fract_x
_atom_site_fract_y
_atom_site_fract_z
Si Si1 0.940614 0.153430 0.500000
Si Si2 0.555668 0.149768 0.104559
Si Si3 0.765449 0.655718 0.154219
Si Si4 0.140531 0.662780 0.926427
Si Si5 0.580892 0.836110 0.757309
Si Si6 0.189388 0.344112 0.708230
Si Si7 0.055814 0.164715 0.136922
O O1 0.923548 0.234794 0.560567
O O2 0.000000 0.145817 0.500000
O O3 0.922452 0.000000 0.500000
O O4 0.500000 0.137949 0.084814
O O5 0.555139 0.180343 0.177045
O O6 0.579070 0.000000 0.096208
O O7 0.752599 0.500000 0.135967
O O8 0.810537 0.700011 0.111228
O O9 0.784466 0.652049 0.225010
O O10 0.719139 0.753278 0.159881
O O11 0.130865 0.500000 0.912449
O O12 0.095877 0.757372 0.904556
O O13 0.147606 0.675396 0.000000
O O14 0.635858 0.796780 0.773915
O O15 0.560993 0.740340 0.703345
O O16 0.579151 0.000000 0.740251
O O17 0.185997 0.500000 0.685142
O O18 0.000000 0.182921 0.115517
O O19 0.064858 0.000000 0.140699
#
# Coordination Sequence:
#
# PCOD9520122 Si02
#       7
#     8  16  16  16  16  16  16
#     4   9  17  29  45  65  93 129 167 209 253 303
#     4   9  17  29  48  72  96 129 173 216 258 306
#     4   9  17  32  53  80 107 132 167 214 264 316
#     4  10  21  39  62  83 105 142 192 237 277 329
#     4  10  19  34  55  80 108 141 182 225 269 322
#     4   9  17  30  52  80 107 133 165 210 262 318
#     4  11  24  38  53  79 116 151 183 228 284 336
#
# _framework density 17.879957999999998
#
# number of rings (size 3 to 8) (size 9 to 14) (size 15 to 20)
#    0.000    2.385    1.538    1.154    0.000    5.231 
#    0.000    3.077    1.692    0.000    0.000    0.000 
#    0.000    0.000    0.000    0.000    0.000    0.000 
#
# Total GULP energy -289546.012885 kJ/mol
# GULP energy per Si atom -5568.192555 kJ/mol
# Density = 1.783926 g / cm^3
# Si number density = 17.879958 Si / 1000 Ang^3
#
#
#
# Elastic Constant Matrix: (Units=GPa)
#
#
# Indices 1 2 3 4 5 6 
#
# 1 55.4650 24.4281 3.8790 0.0000 0.0000 0.0000
# 2 24.4281 70.2986 38.4884 0.0000 0.0000 0.0000
# 3 3.8790 38.4884 68.3019 0.0000 0.0000 0.0000
# 4 0.0000 0.0000 0.0000 15.6799 0.0000 0.0000
# 5 0.0000 0.0000 0.0000 0.0000 20.8880 0.0000
# 6 0.0000 0.0000 0.0000 0.0000 0.0000 25.7372
#
#
#
# Elastic Compliance Matrix: (Units=1/GPa)
#
#
# Indices 1 2 3 4 5 6 
#
# 1 0.022189 -0.010153 0.004461 0.000000 0.000000 0.000000
# 2 -0.010153 0.025217 -0.013633 0.000000 0.000000 0.000000
# 3 0.004461 -0.013633 0.022070 0.000000 0.000000 0.000000
# 4 0.000000 0.000000 0.000000 0.063776 0.000000 0.000000
# 5 0.000000 0.000000 0.000000 0.000000 0.047874 0.000000
# 6 0.000000 0.000000 0.000000 0.000000 0.000000 0.038854
#
#
# Mechanical properties :
#
#
# Convention : Reuss Voigt Hill
#
# Bulk Modulus (GPa) = 32.44041 36.40627 34.42334
# Shear Modulus (GPa) = 18.59379 20.94569 19.76974
#
# Velocity S-wave (km/s) = 3.22828 3.42638 3.32880
# Velocity P-wave (km/s) = 5.66380 6.00492 5.83685
#
# Compressibility (1/GPa) = 0.03082575
#
# Stress axis : x y z
#
# Youngs Moduli (GPa) = 45.06753 39.65524 45.31022
#
# Poissons Ratio (x) = 0.40261 -0.20213
# Poissons Ratio (y) = 0.45756 0.61774
# Poissons Ratio (z) = -0.20105 0.54064
#
# Static dielectric constant tensor:
#      x y z
#    x 2.584980 0.000000 0.000000 
#    y 0.000000 1.634310 0.000000 
#    z 0.000000 0.000000 1.604160 
# 
# From -- ./inp_files/56244.got.cif
#   From: 2010.05.17/outbox.cif.g08.bks.cpg/sg71_29_cif.got.tgz:56244.got - 2010.06.03 16:22:01.
