data_PCOD9520922
_publ_section_title
;
Structure prediction by ZEFSAII (Michael W. Deem and Ramdas Pophale) SiO2 
 PCOD9520922
Probable space group: I M M M
;
_chemical_formula_sum "Si O2"
_cell_formula_units_Z 72
_cell_length_a 9.413790
_cell_length_b 16.412818
_cell_length_c 22.798026
_cell_angle_alpha 90.000000
_cell_angle_beta 90.000000
_cell_angle_gamma 90.000000
_cell_volume 3522.450544
_symmetry_space_group_name_H-M "I M M M"
_symmetry_group_IT_number 71
_symmetry_cell_setting 'orthorhombic'
loop_
_space_group_symop_operation_xyz
x,y,z
-x,-y,z
x,-y,-z
-x,y,-z
-x,-y,-z
x,y,-z
-x,y,z
x,-y,z
1/2+x,1/2+y,1/2+z
1/2-x,1/2-y,1/2+z
1/2+x,1/2-y,1/2-z
1/2-x,1/2+y,1/2-z
1/2-x,1/2-y,1/2-z
1/2+x,1/2+y,1/2-z
1/2-x,1/2+y,1/2+z
1/2+x,1/2-y,1/2+z
loop_
_atom_site_type_symbol
_atom_site_label
_atom_site_fract_x
_atom_site_fract_y
_atom_site_fract_z
Si Si1 0.326102 0.000000 0.769139
Si Si2 0.664477 0.500000 0.928130
Si Si3 0.827007 0.500000 0.594477
Si Si4 0.160444 0.672626 0.265730
Si Si5 0.162592 0.322347 0.406853
Si Si6 0.838611 0.340794 0.070251
O O1 0.280863 0.913877 0.743037
O O2 0.500000 0.000000 0.769117
O O3 0.281265 0.000000 0.837366
O O4 0.500000 0.500000 0.909496
O O5 0.747132 0.581656 0.908795
O O6 0.663973 0.500000 0.000000
O O7 0.786144 0.411077 0.569970
O O8 0.000000 0.500000 0.593182
O O9 0.250000 0.750000 0.250000
O O10 0.155329 0.667814 0.336388
O O11 0.000000 0.682532 0.244154
O O12 0.260548 0.245023 0.419031
O O13 0.000000 0.307646 0.427344
O O14 0.000000 0.341564 0.093597
O O15 0.847472 0.349811 0.000000
#
# Coordination Sequence:
#
# PCOD9520922 Si02
#       6
#     8   8   8  16  16  16
#     4   7  12  26  46  65  88 121 156 187 226 275
#     4   9  17  31  52  73  92 121 161 199 234 277
#     4   7  12  26  48  69  88 116 159 203 234 269
#     4   9  17  30  49  71  94 122 157 196 236 280
#     4   9  17  31  51  72  93 122 162 203 240 281
#     4  10  20  33  49  71  99 128 157 192 237 289
#
# _framework density 20.440315999999999
#
# number of rings (size 3 to 8) (size 9 to 14) (size 15 to 20)
#    0.000    3.222    0.000    3.667    0.000    3.556 
#    0.000    2.778    0.000   12.667    0.000    0.000 
#    0.000    0.000    0.000    0.000    0.000    0.000 
#
# Total GULP energy -200564.002566 kJ/mol
# GULP energy per Si atom -5571.222293 kJ/mol
# Density = 2.039379 g / cm^3
# Si number density = 20.440316 Si / 1000 Ang^3
#
#
#
# Elastic Constant Matrix: (Units=GPa)
#
#
# Indices 1 2 3 4 5 6 
#
# 1 115.6495 114.6377 4.7963 0.0000 0.0000 0.0000
# 2 114.6377 268.0005 8.3929 0.0000 0.0000 0.0000
# 3 4.7963 8.3929 37.2578 0.0000 0.0000 0.0000
# 4 0.0000 0.0000 0.0000 23.9360 0.0000 0.0000
# 5 0.0000 0.0000 0.0000 0.0000 15.3983 0.0000
# 6 0.0000 0.0000 0.0000 0.0000 0.0000 25.9859
#
#
#
# Elastic Compliance Matrix: (Units=1/GPa)
#
#
# Indices 1 2 3 4 5 6 
#
# 1 0.015021 -0.006410 -0.000490 0.000000 0.000000 0.000000
# 2 -0.006410 0.006493 -0.000638 0.000000 0.000000 0.000000
# 3 -0.000490 -0.000638 0.027047 0.000000 0.000000 0.000000
# 4 0.000000 0.000000 0.000000 0.041778 0.000000 0.000000
# 5 0.000000 0.000000 0.000000 0.000000 0.064942 0.000000
# 6 0.000000 0.000000 0.000000 0.000000 0.000000 0.038482
#
#
# Mechanical properties :
#
#
# Convention : Reuss Voigt Hill
#
# Bulk Modulus (GPa) = 29.86287 75.17350 52.51819
# Shear Modulus (GPa) = 22.72727 32.60277 27.66502
#
# Velocity S-wave (km/s) = 3.33811 3.99811 3.68292
# Velocity P-wave (km/s) = 5.43128 7.62693 6.62076
#
# Compressibility (1/GPa) = 0.03348640
#
# Stress axis : x y z
#
# Youngs Moduli (GPa) = 66.57367 154.00850 36.97312
#
# Poissons Ratio (x) = 0.98718 0.01811
# Poissons Ratio (y) = 0.42673 0.02357
# Poissons Ratio (z) = 0.03261 0.09818
#
# Static dielectric constant tensor:
#      x y z
#    x 1.699250 0.000000 0.000000 
#    y 0.000000 1.766680 0.000000 
#    z 0.000000 0.000000 1.788180 
# 
# From -- ./inp_files/67876.got.cif
#   From: 2010.05.17/outbox.cif.g08.bks.cpg/sg71_34_cif.got.tgz:67876.got - 2010.06.03 16:22:01.
