data_PCOD9520729
_publ_section_title
;
Structure prediction by ZEFSAII (Michael W. Deem and Ramdas Pophale) SiO2 
 PCOD9520729
Probable space group: I M M M
;
_chemical_formula_sum "Si O2"
_cell_formula_units_Z 88
_cell_length_a 7.506779
_cell_length_b 28.674471
_cell_length_c 19.840588
_cell_angle_alpha 90.000000
_cell_angle_beta 90.000000
_cell_angle_gamma 90.000000
_cell_volume 4270.744437
_symmetry_space_group_name_H-M "I M M M"
_symmetry_group_IT_number 71
_symmetry_cell_setting 'orthorhombic'
loop_
_space_group_symop_operation_xyz
x,y,z
-x,-y,z
x,-y,-z
-x,y,-z
-x,-y,-z
x,y,-z
-x,y,z
x,-y,z
1/2+x,1/2+y,1/2+z
1/2-x,1/2-y,1/2+z
1/2+x,1/2-y,1/2-z
1/2-x,1/2+y,1/2-z
1/2-x,1/2-y,1/2-z
1/2+x,1/2+y,1/2-z
1/2-x,1/2+y,1/2+z
1/2+x,1/2-y,1/2+z
loop_
_atom_site_type_symbol
_atom_site_label
_atom_site_fract_x
_atom_site_fract_y
_atom_site_fract_z
Si Si1 0.214246 0.654100 0.325914
Si Si2 0.289975 0.906713 0.643253
Si Si3 0.717629 0.194539 0.685136
Si Si4 0.288507 0.448399 0.000000
Si Si5 0.789151 0.768847 0.076036
Si Si6 0.282433 0.948394 0.219215
O O1 0.276000 0.687086 0.262964
O O2 0.265883 0.679236 0.394764
O O3 0.273855 0.600284 0.316342
O O4 0.000000 0.653014 0.321843
O O5 0.500000 0.903623 0.655666
O O6 0.224103 0.854430 0.652700
O O7 0.263080 0.923632 0.568453
O O8 0.225015 0.940415 0.702797
O O9 0.500000 0.197970 0.687103
O O10 0.783275 0.234786 0.634930
O O11 0.210431 0.500000 0.000000
O O12 0.500000 0.451355 0.000000
O O13 0.000000 0.759180 0.072013
O O14 0.717448 0.762940 0.000000
O O15 0.500000 0.949196 0.215787
O O16 0.223020 0.000000 0.196158
#
# Coordination Sequence:
#
# PCOD9520729 Si02
#       6
#    16  16  16   8  16  16
#     4   9  17  31  51  74  98 123 155 198 241 282
#     4   9  17  30  51  71  87 116 164 207 233 277
#     4   8  16  31  51  74  95 121 158 199 241 281
#     4  11  23  33  39  57  97 137 161 193 244 287
#     4  10  20  32  48  70  99 133 162 190 233 288
#     4   8  14  27  49  75  96 114 148 201 250 285
#
# _framework density 20.605307
#
# number of rings (size 3 to 8) (size 9 to 14) (size 15 to 20)
#    0.000    3.000    0.000    3.545    1.273    1.818 
#    0.000    4.545    0.000    2.182    0.000    3.818 
#    0.000    0.000    0.000    0.000    0.000    0.000 
#
# Total GULP energy -245165.241402 kJ/mol
# GULP energy per Si atom -5571.937305 kJ/mol
# Density = 2.055841 g / cm^3
# Si number density = 20.605307 Si / 1000 Ang^3
#
#
#
# Elastic Constant Matrix: (Units=GPa)
#
#
# Indices 1 2 3 4 5 6 
#
# 1 48.0311 2.4187 -1.1936 0.0000 0.0001 0.0000
# 2 2.4187 123.5825 60.8574 0.0000 0.0005 0.0000
# 3 -1.1936 60.8574 78.9796 0.0000 0.0020 0.0000
# 4 0.0000 0.0000 0.0000 11.8822 0.0004 0.0000
# 5 0.0001 0.0005 0.0020 0.0004-2610.3956 0.0002
# 6 0.0000 0.0000 0.0000 0.0000 0.0002 10.4809
#
#
#
# Elastic Compliance Matrix: (Units=1/GPa)
#
#
# Indices 1 2 3 4 5 6 
#
# 1 0.020891 -0.000909 0.001016 0.000000 0.000000 0.000000
# 2 -0.000909 0.013079 -0.010092 0.000000 0.000000 0.000000
# 3 0.001016 -0.010092 0.020453 0.000000 0.000000 0.000000
# 4 0.000000 0.000000 0.000000 0.084160 0.000000 0.000000
# 5 0.000000 0.000000 0.000000 0.000000 -0.000383 0.000000
# 6 0.000000 0.000000 0.000000 0.000000 0.000000 0.095411
#
#
# Mechanical properties :
#
#
# Convention : Reuss Voigt Hill
#
# Bulk Modulus (GPa) = 29.02457 41.63978 35.33218
# Shear Modulus (GPa) = 18.86325 -505.03912 -243.08794
#
# Velocity S-wave (km/s) = 3.02893 -15.67270 -10.87334
# Velocity P-wave (km/s) = 5.13314 17.52881 11.85137
#
# Compressibility (1/GPa) = 0.03445357
#
# Stress axis : x y z
#
# Youngs Moduli (GPa) = 47.86773 76.45699 48.89227
#
# Poissons Ratio (x) = 0.06953 -0.04970
# Poissons Ratio (y) = 0.04353 0.49342
# Poissons Ratio (z) = -0.04865 0.77160
#
# Static dielectric constant tensor:
#      x y z
#    x 1.798000 0.000000 0.000000 
#    y 0.000000 1.770210 0.000000 
#    z 0.000000 0.000000 1.750030 
# 
# From -- ./inp_files/8814.got.cif
#   From: 2010.05.17/outbox.cif.g08.bks.cpg/sg71_5_cif.got.tgz:8814.got - 2010.06.03 16:22:01.
