data_PCOD9520901
_publ_section_title
;
Structure prediction by ZEFSAII (Michael W. Deem and Ramdas Pophale) SiO2 
 PCOD9520901
Probable space group: I M M M
;
_chemical_formula_sum "Si O2"
_cell_formula_units_Z 82
_cell_length_a 30.588922
_cell_length_b 19.047607
_cell_length_c 10.061379
_cell_angle_alpha 90.000000
_cell_angle_beta 90.000000
_cell_angle_gamma 90.000000
_cell_volume 5862.219862
_symmetry_space_group_name_H-M "I M M M"
_symmetry_group_IT_number 71
_symmetry_cell_setting 'orthorhombic'
loop_
_space_group_symop_operation_xyz
x,y,z
-x,-y,z
x,-y,-z
-x,y,-z
-x,-y,-z
x,y,-z
-x,y,z
x,-y,z
1/2+x,1/2+y,1/2+z
1/2-x,1/2-y,1/2+z
1/2+x,1/2-y,1/2-z
1/2-x,1/2+y,1/2-z
1/2-x,1/2-y,1/2-z
1/2+x,1/2+y,1/2-z
1/2-x,1/2+y,1/2+z
1/2+x,1/2-y,1/2+z
loop_
_atom_site_type_symbol
_atom_site_label
_atom_site_fract_x
_atom_site_fract_y
_atom_site_fract_z
Si Si1 0.548173 0.147166 0.000000
Si Si2 0.448549 0.084464 0.500000
Si Si3 0.316178 0.763945 0.655437
Si Si4 0.775380 0.845867 0.653575
Si Si5 0.000000 0.500000 0.500000
Si Si6 0.340270 0.000000 0.157449
Si Si7 0.755189 0.500000 0.156243
Si Si8 0.606247 0.862864 0.248813
O O1 0.575819 0.163895 0.130048
O O2 0.537358 0.063049 0.000000
O O3 0.500000 0.180710 0.000000
O O4 0.500000 0.101981 0.500000
O O5 0.424302 0.113649 0.370617
O O6 0.445002 0.000000 0.500000
O O7 0.320112 0.745979 0.500000
O O8 0.273817 0.814885 0.669082
O O9 0.305684 0.696734 0.745816
O O10 0.358420 0.806232 0.703593
O O11 0.788271 0.833239 0.500000
O O12 0.771961 0.928862 0.677215
O O13 0.296592 0.000000 0.246512
O O14 0.367760 0.931034 0.195920
O O15 0.330847 0.000000 0.000000
O O16 0.769728 0.500000 0.000000
#
# Coordination Sequence:
#
# PCOD9520901 Si02
#       8
#     8   8  16  16   2   8   8  16
#     4  10  22  34  50  61  94 127 164 207 253 281
#     4  11  24  32  48  69  93 125 168 208 249 283
#     4  10  20  33  49  69  96 127 161 202 241 285
#     4   9  19  33  50  70  96 124 159 198 245 285
#     4   8  20  36  48  62  96 132 156 216 252 284
#     4  12  23  30  44  72  93 128 171 208 239 286
#     4  10  20  35  53  71  98 127 160 207 247 279
#     4  12  21  34  48  69  92 129 169 211 240 285
#
# _framework density 13.987876
#
# number of rings (size 3 to 8) (size 9 to 14) (size 15 to 20)
#    0.293    1.268    4.878    1.171    2.732    0.780 
#    0.000    0.000    0.000    0.000    0.000    0.000 
#    0.000    0.000    0.000    5.268    0.000    0.098 
#
# Total GULP energy -228462.262958 kJ/mol
# GULP energy per Si atom -5572.250316 kJ/mol
# Density = 1.395604 g / cm^3
# Si number density = 13.987876 Si / 1000 Ang^3
#
#
#
# Elastic Constant Matrix: (Units=GPa)
#
#
# Indices 1 2 3 4 5 6 
#
# 1 95.1932 46.8382 73.7926 0.0000 0.0000 0.0000
# 2 46.8382 85.2558 61.8684 0.0000 0.0000 0.0000
# 3 73.7926 61.8684 132.7014 0.0000 0.0000 0.0000
# 4 0.0000 0.0000 0.0000 14.4338 0.0000 0.0000
# 5 0.0000 0.0000 0.0000 0.0000 39.4726 0.0000
# 6 0.0000 0.0000 0.0000 0.0000 0.0000 26.4397
#
#
#
# Elastic Compliance Matrix: (Units=1/GPa)
#
#
# Indices 1 2 3 4 5 6 
#
# 1 0.019449 -0.004287 -0.008816 0.000000 0.000000 0.000000
# 2 -0.004287 0.018672 -0.006321 0.000000 0.000000 0.000000
# 3 -0.008816 -0.006321 0.015385 0.000000 0.000000 0.000000
# 4 0.000000 0.000000 0.000000 0.069282 0.000000 0.000000
# 5 0.000000 0.000000 0.000000 0.000000 0.025334 0.000000
# 6 0.000000 0.000000 0.000000 0.000000 0.000000 0.037822
#
#
# Mechanical properties :
#
#
# Convention : Reuss Voigt Hill
#
# Bulk Modulus (GPa) = 68.22825 75.34986 71.78906
# Shear Modulus (GPa) = 21.76959 24.77931 23.27445
#
# Velocity S-wave (km/s) = 3.94930 4.21347 4.08352
# Velocity P-wave (km/s) = 8.34737 8.81226 8.58296
#
# Compressibility (1/GPa) = 0.01465669
#
# Stress axis : x y z
#
# Youngs Moduli (GPa) = 51.41783 53.55647 64.99659
#
# Poissons Ratio (x) = 0.22959 0.57303
# Poissons Ratio (y) = 0.22042 0.41087
# Poissons Ratio (z) = 0.45331 0.33855
#
# Static dielectric constant tensor:
#      x y z
#    x 1.443140 0.000000 0.000000 
#    y 0.000000 1.435310 0.000000 
#    z 0.000000 0.000000 1.482500 
# 
# From -- ./inp_files/12490.got.cif
#   From: 2010.05.17/outbox.cif.g08.bks.cpg/sg71_7_cif.got.tgz:12490.got - 2010.06.03 16:22:01.
