data_PCOD9520534
_publ_section_title
;
Structure prediction by ZEFSAII (Michael W. Deem and Ramdas Pophale) SiO2 
 PCOD9520534
Probable space group: I M M M
;
_chemical_formula_sum "Si O2"
_cell_formula_units_Z 112
_cell_length_a 27.686328
_cell_length_b 26.795820
_cell_length_c 7.374059
_cell_angle_alpha 90.000000
_cell_angle_beta 90.000000
_cell_angle_gamma 90.000000
_cell_volume 5470.651122
_symmetry_space_group_name_H-M "I M M M"
_symmetry_group_IT_number 71
_symmetry_cell_setting 'orthorhombic'
loop_
_space_group_symop_operation_xyz
x,y,z
-x,-y,z
x,-y,-z
-x,y,-z
-x,-y,-z
x,y,-z
-x,y,z
x,-y,z
1/2+x,1/2+y,1/2+z
1/2-x,1/2-y,1/2+z
1/2+x,1/2-y,1/2-z
1/2-x,1/2+y,1/2-z
1/2-x,1/2-y,1/2-z
1/2+x,1/2+y,1/2-z
1/2-x,1/2+y,1/2+z
1/2+x,1/2-y,1/2+z
loop_
_atom_site_type_symbol
_atom_site_label
_atom_site_fract_x
_atom_site_fract_y
_atom_site_fract_z
Si Si1 0.776135 0.908070 0.781109
Si Si2 0.056346 0.851846 0.720807
Si Si3 0.763634 0.693533 0.284411
Si Si4 0.444274 0.240411 0.220995
Si Si5 0.131433 0.658723 0.721443
Si Si6 0.881909 0.945020 0.711165
Si Si7 0.830422 0.555231 0.720784
O O1 0.772080 0.850221 0.719593
O O2 0.824788 0.934018 0.718046
O O3 0.725150 0.932852 0.726197
O O4 0.777825 0.910202 0.000000
O O5 0.058159 0.851455 0.500000
O O6 0.072125 0.796052 0.778076
O O7 0.089152 0.897481 0.787103
O O8 0.000000 0.858374 0.770541
O O9 0.765324 0.686884 0.500000
O O10 0.750000 0.750000 0.250000
O O11 0.817549 0.682147 0.219274
O O12 0.500000 0.234498 0.274843
O O13 0.411217 0.194777 0.283076
O O14 0.443197 0.240286 0.000000
O O15 0.130046 0.658887 0.500000
O O16 0.135293 0.600895 0.777678
O O17 0.895885 0.947415 0.500000
O O18 0.891620 0.000000 0.790006
O O19 0.830355 0.555481 0.500000
O O20 0.844188 0.500000 0.781219
#
# Coordination Sequence:
#
# PCOD9520534 Si02
#       7
#    16  16  16  16  16  16  16
#     4   9  18  31  44  61  85 116 151 177 204 253
#     4   8  15  27  41  58  80 107 138 172 217 268
#     4   9  18  29  42  63  89 115 143 174 211 255
#     4   8  13  22  37  56  78 105 136 169 208 255
#     4   8  14  23  36  57  81 104 134 171 207 243
#     4  10  20  30  43  66  88 108 141 184 227 262
#     4   8  13  23  39  55  74 106 145 175 197 233
#
# _framework density 20.472881999999998
#
# number of rings (size 3 to 8) (size 9 to 14) (size 15 to 20)
#    0.000    3.429    0.000    3.000    2.000    1.714 
#    0.000    1.429    0.000    0.857    0.000    4.000 
#    0.000    0.571    0.000    0.000    0.000    0.000 
#
# Total GULP energy -312229.229977 kJ/mol
# GULP energy per Si atom -5575.521964 kJ/mol
# Density = 2.042629 g / cm^3
# Si number density = 20.472882 Si / 1000 Ang^3
#
#
#
# Elastic Constant Matrix: (Units=GPa)
#
#
# Indices 1 2 3 4 5 6 
#
# 1 74.8906 93.5495 -0.4938 0.0000 0.0000 0.0000
# 2 93.5495 239.4810 4.3312 0.0000 0.0000 0.0000
# 3 -0.4938 4.3312 69.2982 0.0000 0.0000 0.0000
# 4 0.0000 0.0000 0.0000 -0.4318 0.0000 0.0000
# 5 0.0000 0.0000 0.0000 0.0000 2.1188 0.0000
# 6 0.0000 0.0000 0.0000 0.0000 0.0000 28.6650
#
#
#
# Elastic Compliance Matrix: (Units=1/GPa)
#
#
# Indices 1 2 3 4 5 6 
#
# 1 0.026125 -0.010220 0.000825 0.000000 0.000000 0.000000
# 2 -0.010220 0.008179 -0.000584 0.000000 0.000000 0.000000
# 3 0.000825 -0.000584 0.014473 0.000000 0.000000 0.000000
# 4 0.000000 0.000000 0.000000 -2.315829 0.000000 0.000000
# 5 0.000000 0.000000 0.000000 0.000000 0.471961 0.000000
# 6 0.000000 0.000000 0.000000 0.000000 0.000000 0.034886
#
#
# Mechanical properties :
#
#
# Convention : Reuss Voigt Hill
#
# Bulk Modulus (GPa) = 34.70090 64.27150 49.48620
# Shear Modulus (GPa) = -2.88910 25.15593 11.13342
#
# Velocity S-wave (km/s) = -1.18922 3.50915 2.33451
# Velocity P-wave (km/s) = 3.88598 6.91957 5.61165
#
# Compressibility (1/GPa) = 0.02881770
#
# Stress axis : x y z
#
# Youngs Moduli (GPa) = 38.27796 122.27055 69.09526
#
# Poissons Ratio (x) = 1.24962 -0.05700
# Poissons Ratio (y) = 0.39121 0.04035
# Poissons Ratio (z) = -0.03158 0.07141
#
# Static dielectric constant tensor:
#      x y z
#    x 1.679920 0.000000 0.000000 
#    y 0.000000 1.779200 0.000000 
#    z 0.000000 0.000000 -0.338910 
# 
# From -- ./inp_files/27962.got.cif
#   From: 2010.05.17/outbox.cif.g08.bks.cpg/sg71_14_cif.got.tgz:27962.got - 2010.06.03 16:22:01.
