data_PCOD9520492
_publ_section_title
;
Structure prediction by ZEFSAII (Michael W. Deem and Ramdas Pophale) SiO2 
 PCOD9520492
Probable space group: I M M M
;
_chemical_formula_sum "Si O2"
_cell_formula_units_Z 104
_cell_length_a 17.682353
_cell_length_b 15.511864
_cell_length_c 22.745725
_cell_angle_alpha 90.000000
_cell_angle_beta 90.000000
_cell_angle_gamma 90.000000
_cell_volume 6238.839726
_symmetry_space_group_name_H-M "I M M M"
_symmetry_group_IT_number 71
_symmetry_cell_setting 'orthorhombic'
loop_
_space_group_symop_operation_xyz
x,y,z
-x,-y,z
x,-y,-z
-x,y,-z
-x,-y,-z
x,y,-z
-x,y,z
x,-y,z
1/2+x,1/2+y,1/2+z
1/2-x,1/2-y,1/2+z
1/2+x,1/2-y,1/2-z
1/2-x,1/2+y,1/2-z
1/2-x,1/2-y,1/2-z
1/2+x,1/2+y,1/2-z
1/2-x,1/2+y,1/2+z
1/2+x,1/2-y,1/2+z
loop_
_atom_site_type_symbol
_atom_site_label
_atom_site_fract_x
_atom_site_fract_y
_atom_site_fract_z
Si Si1 0.413509 0.000000 0.070786
Si Si2 0.410294 0.738834 0.260575
Si Si3 0.811044 0.810168 0.647747
Si Si4 0.314091 0.898271 0.725684
Si Si5 0.582405 0.601815 0.064729
Si Si6 0.787661 0.358738 0.571014
Si Si7 0.812810 0.902682 0.173969
O O1 0.361612 0.917218 0.085547
O O2 0.500000 0.000000 0.094077
O O3 0.419258 0.000000 0.000000
O O4 0.500000 0.726344 0.257960
O O5 0.366917 0.718481 0.199814
O O6 0.387878 0.838480 0.271802
O O7 0.371061 0.671940 0.306716
O O8 0.737321 0.851613 0.676574
O O9 0.854800 0.881136 0.611445
O O10 0.797019 0.733656 0.601744
O O11 0.262138 0.890663 0.784797
O O12 0.326647 0.000000 0.715690
O O13 0.500000 0.637207 0.082451
O O14 0.575600 0.500000 0.059304
O O15 0.600225 0.637851 0.000000
O O16 0.779135 0.356831 0.500000
O O17 0.716365 0.396842 0.607028
O O18 0.841347 0.000000 0.186136
#
# Coordination Sequence:
#
# PCOD9520492 Si02
#       7
#     8  16  16  16  16  16  16
#     4   9  20  34  46  74 115 149 187 223 257 318
#     4  11  22  36  55  81 111 141 180 231 284 332
#     4  11  19  35  52  79 107 138 180 223 266 328
#     4  10  20  36  57  77 104 144 181 226 279 326
#     4   9  18  31  46  70 107 144 176 213 255 304
#     4  11  20  32  55  79 107 150 186 220 270 324
#     4  10  19  37  57  79 111 144 185 231 273 326
#
# _framework density 16.669765999999999
#
# number of rings (size 3 to 8) (size 9 to 14) (size 15 to 20)
#    0.000    1.769    3.846    2.769    0.000    2.462 
#    0.000    1.538    0.000    0.462    0.000    1.077 
#    0.000    1.231    0.000    0.000    0.000    0.000 
#
# Total GULP energy -289614.136409 kJ/mol
# GULP energy per Si atom -5569.502623 kJ/mol
# Density = 1.663183 g / cm^3
# Si number density = 16.669766 Si / 1000 Ang^3
#
#
#
# Elastic Constant Matrix: (Units=GPa)
#
#
# Indices 1 2 3 4 5 6 
#
# 1 45.8804 35.3907 3.3577 0.0000 0.0000 0.0000
# 2 35.3907 108.3319 26.0733 0.0000 0.0000 0.0000
# 3 3.3577 26.0733 56.3143 0.0000 0.0000 0.0000
# 4 0.0000 0.0000 0.0000 25.1605 0.0000 0.0000
# 5 0.0000 0.0000 0.0000 0.0000 8.4068 0.0000
# 6 0.0000 0.0000 0.0000 0.0000 0.0000 25.7659
#
#
#
# Elastic Compliance Matrix: (Units=1/GPa)
#
#
# Indices 1 2 3 4 5 6 
#
# 1 0.029598 -0.010404 0.003052 0.000000 0.000000 0.000000
# 2 -0.010404 0.014046 -0.005883 0.000000 0.000000 0.000000
# 3 0.003052 -0.005883 0.020299 0.000000 0.000000 0.000000
# 4 0.000000 0.000000 0.000000 0.039745 0.000000 0.000000
# 5 0.000000 0.000000 0.000000 0.000000 0.118951 0.000000
# 6 0.000000 0.000000 0.000000 0.000000 0.000000 0.038811
#
#
# Mechanical properties :
#
#
# Convention : Reuss Voigt Hill
#
# Bulk Modulus (GPa) = 26.68540 37.79666 32.24103
# Shear Modulus (GPa) = 16.64396 21.58029 19.11213
#
# Velocity S-wave (km/s) = 3.16326 3.60193 3.38970
# Velocity P-wave (km/s) = 5.42076 6.32625 5.89093
#
# Compressibility (1/GPa) = 0.03747367
#
# Stress axis : x y z
#
# Youngs Moduli (GPa) = 33.78656 71.19715 49.26312
#
# Poissons Ratio (x) = 0.74072 -0.15036
# Poissons Ratio (y) = 0.35151 0.28980
# Poissons Ratio (z) = -0.10312 0.41883
#
# Static dielectric constant tensor:
#      x y z
#    x 1.545190 0.000000 0.000000 
#    y 0.000000 1.618840 0.000000 
#    z 0.000000 0.000000 1.577370 
# 
# From -- ./inp_files/39455.got.cif
#   From: 2010.05.17/outbox.cif.g08.bks.cpg/sg71_20_cif.got.tgz:39455.got - 2010.06.03 16:22:01.
