data_PCOD9520531
_publ_section_title
;
Structure prediction by ZEFSAII (Michael W. Deem and Ramdas Pophale) SiO2 
 PCOD9520531
Probable space group: I M M M
;
_chemical_formula_sum "Si O2"
_cell_formula_units_Z 104
_cell_length_a 9.804409
_cell_length_b 25.929549
_cell_length_c 28.702817
_cell_angle_alpha 90.000000
_cell_angle_beta 90.000000
_cell_angle_gamma 90.000000
_cell_volume 7296.942182
_symmetry_space_group_name_H-M "I M M M"
_symmetry_group_IT_number 71
_symmetry_cell_setting 'orthorhombic'
loop_
_space_group_symop_operation_xyz
x,y,z
-x,-y,z
x,-y,-z
-x,y,-z
-x,-y,-z
x,y,-z
-x,y,z
x,-y,z
1/2+x,1/2+y,1/2+z
1/2-x,1/2-y,1/2+z
1/2+x,1/2-y,1/2-z
1/2-x,1/2+y,1/2-z
1/2-x,1/2-y,1/2-z
1/2+x,1/2+y,1/2-z
1/2-x,1/2+y,1/2+z
1/2+x,1/2-y,1/2+z
loop_
_atom_site_type_symbol
_atom_site_label
_atom_site_fract_x
_atom_site_fract_y
_atom_site_fract_z
Si Si1 0.337719 0.642950 0.698194
Si Si2 0.335985 0.200909 0.268822
Si Si3 0.850137 0.439919 0.650985
Si Si4 0.159053 0.723264 0.447474
Si Si5 0.843734 0.247506 0.136896
Si Si6 0.000000 0.058180 0.944629
Si Si7 0.791691 0.601036 0.446211
O O1 0.500000 0.637002 0.707718
O O2 0.244765 0.654788 0.743700
O O3 0.268645 0.595042 0.672184
O O4 0.323990 0.693137 0.664459
O O5 0.500000 0.203065 0.257580
O O6 0.250000 0.250000 0.250000
O O7 0.325175 0.207790 0.324505
O O8 0.827123 0.500000 0.660049
O O9 0.857254 0.430729 0.595391
O O10 0.000000 0.424704 0.669949
O O11 0.206176 0.735851 0.500000
O O12 0.244000 0.748933 0.406546
O O13 0.172414 0.661115 0.442547
O O14 0.000000 0.736109 0.443573
O O15 0.000000 0.248356 0.120849
O O16 0.867018 0.091304 0.935457
O O17 0.000000 0.000000 0.923715
O O18 0.000000 0.050929 0.000000
O O19 0.820054 0.584970 0.500000
#
# Coordination Sequence:
#
# PCOD9520531 Si02
#       7
#    16  16  16  16  16   8  16
#     4  10  20  33  48  65  83 107 139 175 220 267
#     4   9  17  30  48  69  89 105 130 169 214 262
#     4  11  23  34  45  62  83 110 142 181 231 273
#     4  10  20  30  42  61  85 113 142 174 214 254
#     4   9  18  30  46  67  85 106 136 170 211 258
#     4   9  18  30  42  56  70  90 128 178 226 264
#     4  10  20  32  45  58  75 104 144 186 227 267
#
# _framework density 14.252545
#
# number of rings (size 3 to 8) (size 9 to 14) (size 15 to 20)
#    0.000    2.231    1.538    2.769    2.154    5.538 
#    0.000    0.769    0.000    0.000    0.000    0.000 
#    0.000    0.000    0.000    0.000    0.000    0.769 
#
# Total GULP energy -289536.332474 kJ/mol
# GULP energy per Si atom -5568.006394 kJ/mol
# Density = 1.422011 g / cm^3
# Si number density = 14.252545 Si / 1000 Ang^3
#
#
#
# Elastic Constant Matrix: (Units=GPa)
#
#
# Indices 1 2 3 4 5 6 
#
# 1 111.8709 26.1157 57.8300 0.0000 0.0000 0.0000
# 2 26.1157 29.7440 27.8118 0.0000 0.0000 0.0000
# 3 57.8300 27.8118 77.4311 0.0000 0.0000 0.0000
# 4 0.0000 0.0000 0.0000 9.7986 0.0000 0.0000
# 5 0.0000 0.0000 0.0000 0.0000 15.1045 0.0000
# 6 0.0000 0.0000 0.0000 0.0000 0.0000 41.7598
#
#
#
# Elastic Compliance Matrix: (Units=1/GPa)
#
#
# Indices 1 2 3 4 5 6 
#
# 1 0.014873 -0.004024 -0.009663 0.000000 0.000000 0.000000
# 2 -0.004024 0.051710 -0.015568 0.000000 0.000000 0.000000
# 3 -0.009663 -0.015568 0.025723 0.000000 0.000000 0.000000
# 4 0.000000 0.000000 0.000000 0.102056 0.000000 0.000000
# 5 0.000000 0.000000 0.000000 0.000000 0.066206 0.000000
# 6 0.000000 0.000000 0.000000 0.000000 0.000000 0.023946
#
#
# Mechanical properties :
#
#
# Convention : Reuss Voigt Hill
#
# Bulk Modulus (GPa) = 29.58847 49.17344 39.38096
# Shear Modulus (GPa) = 14.11276 20.48514 17.29895
#
# Velocity S-wave (km/s) = 3.15015 3.79528 3.48766
# Velocity P-wave (km/s) = 5.83407 7.33362 6.62640
#
# Compressibility (1/GPa) = 0.03379695
#
# Stress axis : x y z
#
# Youngs Moduli (GPa) = 67.23435 19.33867 38.87520
#
# Poissons Ratio (x) = 0.07781 0.37565
# Poissons Ratio (y) = 0.27053 0.60521
# Poissons Ratio (z) = 0.64969 0.30107
#
# Static dielectric constant tensor:
#      x y z
#    x 1.448310 0.000000 0.000000 
#    y 0.000000 1.482670 0.000000 
#    z 0.000000 0.000000 1.493680 
# 
# From -- ./inp_files/58184.got.cif
#   From: 2010.05.17/outbox.cif.g08.bks.cpg/sg71_30_cif.got.tgz:58184.got - 2010.06.03 16:22:01.
