data_PCOD9520076
_publ_section_title
;
Structure prediction by ZEFSAII (Michael W. Deem and Ramdas Pophale) SiO2 
 PCOD9520076
Probable space group: I M M M
;
_chemical_formula_sum "Si O2"
_cell_formula_units_Z 120
_cell_length_a 9.691237
_cell_length_b 25.146121
_cell_length_c 29.536654
_cell_angle_alpha 90.000000
_cell_angle_beta 90.000000
_cell_angle_gamma 90.000000
_cell_volume 7197.994509
_symmetry_space_group_name_H-M "I M M M"
_symmetry_group_IT_number 71
_symmetry_cell_setting 'orthorhombic'
loop_
_space_group_symop_operation_xyz
x,y,z
-x,-y,z
x,-y,-z
-x,y,-z
-x,-y,-z
x,y,-z
-x,y,z
x,-y,z
1/2+x,1/2+y,1/2+z
1/2-x,1/2-y,1/2+z
1/2+x,1/2-y,1/2-z
1/2-x,1/2+y,1/2-z
1/2-x,1/2-y,1/2-z
1/2+x,1/2+y,1/2-z
1/2-x,1/2+y,1/2+z
1/2+x,1/2-y,1/2+z
loop_
_atom_site_type_symbol
_atom_site_label
_atom_site_fract_x
_atom_site_fract_y
_atom_site_fract_z
Si Si1 0.836898 0.265616 0.553943
Si Si2 0.165081 0.438019 0.053523
Si Si3 0.163145 0.152758 0.602710
Si Si4 0.652221 0.935677 0.000000
Si Si5 0.343909 0.809141 0.788186
Si Si6 0.659859 0.331014 0.625142
Si Si7 0.155456 0.181218 0.292530
Si Si8 0.655914 0.439442 0.582506
O O1 0.812686 0.268768 0.500000
O O2 0.812497 0.205932 0.572917
O O3 0.738170 0.303845 0.582890
O O4 0.000000 0.277660 0.562329
O O5 0.198387 0.500000 0.063730
O O6 0.247531 0.395802 0.083572
O O7 0.000000 0.431509 0.059418
O O8 0.195140 0.429311 0.000000
O O9 0.190323 0.166758 0.655553
O O10 0.000000 0.140349 0.599027
O O11 0.737474 0.922460 0.044218
O O12 0.500000 0.912302 0.000000
O O13 0.643153 0.000000 0.000000
O O14 0.500000 0.829084 0.794819
O O15 0.244322 0.818209 0.830292
O O16 0.271908 0.833731 0.743754
O O17 0.353275 0.744991 0.786345
O O18 0.500000 0.313386 0.626885
O O19 0.661034 0.394670 0.620004
O O20 0.000000 0.160348 0.282779
O O21 0.500000 0.438981 0.563304
O O22 0.684708 0.500000 0.596955
#
# Coordination Sequence:
#
# PCOD9520076 Si02
#       8
#    16  16  16   8  16  16  16  16
#     4  10  21  36  51  72 107 145 173 207 261 313
#     4   9  19  35  53  76 109 147 185 225 266 306
#     4  10  19  34  55  79 107 139 175 215 259 313
#     4   9  17  29  47  71  93 117 159 209 250 291
#     4  10  19  34  54  76 104 135 168 209 261 313
#     4  11  22  34  52  75 101 133 175 217 255 309
#     4   9  18  33  53  77 106 134 167 209 256 311
#     4   9  19  35  51  67  93 130 168 209 255 298
#
# _framework density 16.671310999999999
#
# number of rings (size 3 to 8) (size 9 to 14) (size 15 to 20)
#    0.000    2.333    1.333    1.800    0.933    4.800 
#    0.000    0.667    0.000    0.800    0.000    1.867 
#    0.000    0.000    0.000    0.000    0.000    0.000 
#
# Total GULP energy -334317.583848 kJ/mol
# GULP energy per Si atom -5571.959731 kJ/mol
# Density = 1.663337 g / cm^3
# Si number density = 16.671311 Si / 1000 Ang^3
#
#
#
# Elastic Constant Matrix: (Units=GPa)
#
#
# Indices 1 2 3 4 5 6 
#
# 1 109.5504 44.7204 65.5452 0.0000 0.0000 0.0000
# 2 44.7204 62.0833 31.8687 0.0000 0.0000 0.0000
# 3 65.5452 31.8687 96.2702 0.0000 0.0000 0.0000
# 4 0.0000 0.0000 0.0000 20.1495 0.0000 0.0000
# 5 0.0000 0.0000 0.0000 0.0000 27.4863 0.0000
# 6 0.0000 0.0000 0.0000 0.0000 0.0000 24.2233
#
#
#
# Elastic Compliance Matrix: (Units=1/GPa)
#
#
# Indices 1 2 3 4 5 6 
#
# 1 0.018302 -0.008176 -0.009754 0.000000 0.000000 0.000000
# 2 -0.008176 0.023058 -0.002066 0.000000 0.000000 0.000000
# 3 -0.009754 -0.002066 0.017712 0.000000 0.000000 0.000000
# 4 0.000000 0.000000 0.000000 0.049629 0.000000 0.000000
# 5 0.000000 0.000000 0.000000 0.000000 0.036382 0.000000
# 6 0.000000 0.000000 0.000000 0.000000 0.000000 0.041283
#
#
# Mechanical properties :
#
#
# Convention : Reuss Voigt Hill
#
# Bulk Modulus (GPa) = 52.41389 61.35250 56.88320
# Shear Modulus (GPa) = 21.48522 22.75647 22.12084
#
# Velocity S-wave (km/s) = 3.59382 3.69861 3.64659
# Velocity P-wave (km/s) = 6.98058 7.42434 7.20587
#
# Compressibility (1/GPa) = 0.01907891
#
# Stress axis : x y z
#
# Youngs Moduli (GPa) = 54.63873 43.36960 56.45751
#
# Poissons Ratio (x) = 0.35461 0.55070
# Poissons Ratio (y) = 0.44675 0.11664
# Poissons Ratio (z) = 0.53296 0.08960
#
# Static dielectric constant tensor:
#      x y z
#    x 1.582550 0.000000 0.000000 
#    y 0.000000 1.555110 0.000000 
#    z 0.000000 0.000000 1.550070 
# 
# From -- ./inp_files/63846.got.cif
#   From: 2010.05.17/outbox.cif.g08.bks.cpg/sg71_32_cif.got.tgz:63846.got - 2010.06.03 16:22:01.
