data_PCOD9520631
_publ_section_title
;
Structure prediction by ZEFSAII (Michael W. Deem and Ramdas Pophale) SiO2 
 PCOD9520631
Probable space group: I M M M
;
_chemical_formula_sum "Si O2"
_cell_formula_units_Z 88
_cell_length_a 17.181700
_cell_length_b 20.368611
_cell_length_c 14.992808
_cell_angle_alpha 90.000000
_cell_angle_beta 90.000000
_cell_angle_gamma 90.000000
_cell_volume 5246.993489
_symmetry_space_group_name_H-M "I M M M"
_symmetry_group_IT_number 71
_symmetry_cell_setting 'orthorhombic'
loop_
_space_group_symop_operation_xyz
x,y,z
-x,-y,z
x,-y,-z
-x,y,-z
-x,-y,-z
x,y,-z
-x,y,z
x,-y,z
1/2+x,1/2+y,1/2+z
1/2-x,1/2-y,1/2+z
1/2+x,1/2-y,1/2-z
1/2-x,1/2+y,1/2-z
1/2-x,1/2-y,1/2-z
1/2+x,1/2+y,1/2-z
1/2-x,1/2+y,1/2+z
1/2+x,1/2-y,1/2+z
loop_
_atom_site_type_symbol
_atom_site_label
_atom_site_fract_x
_atom_site_fract_y
_atom_site_fract_z
Si Si1 0.094035 0.326855 0.601463
Si Si2 0.682090 0.422649 0.775796
Si Si3 0.590448 0.321066 0.893090
Si Si4 0.634704 0.077305 0.739538
Si Si5 0.500000 0.920391 0.397608
Si Si6 0.089513 0.079583 0.100579
O O1 0.120846 0.340268 0.500000
O O2 0.118090 0.252974 0.628425
O O3 0.119206 0.380312 0.672646
O O4 0.000000 0.325858 0.599184
O O5 0.662916 0.500000 0.787939
O O6 0.639854 0.376923 0.846586
O O7 0.774686 0.415871 0.783658
O O8 0.649286 0.402128 0.678243
O O9 0.500000 0.327301 0.865917
O O10 0.593441 0.326748 0.000000
O O11 0.576095 0.098211 0.660272
O O12 0.619453 0.000000 0.757128
O O13 0.500000 0.896307 0.500000
O O14 0.500000 0.000000 0.402207
O O15 0.000000 0.099595 0.120853
O O16 0.089442 0.000000 0.098001
O O17 0.109036 0.102201 0.000000
#
# Coordination Sequence:
#
# PCOD9520631 Si02
#       6
#    16  16  16  16   8  16
#     4   9  18  34  55  76 101 135 172 212 260 312
#     4  10  20  31  48  77 107 134 171 219 259 300
#     4   9  19  35  53  74 101 137 175 209 255 311
#     4  10  20  33  52  79 104 131 171 214 262 315
#     4   9  18  34  53  71  97 133 169 206 254 312
#     4   8  14  26  44  65  93 132 171 203 244 299
#
# _framework density 16.771508999999998
#
# number of rings (size 3 to 8) (size 9 to 14) (size 15 to 20)
#    0.000    2.818    0.909    2.182    0.000    4.000 
#    0.000    5.455    0.000    1.091    0.000    0.000 
#    0.000    0.000    0.000    0.000    0.000    0.000 
#
# Total GULP energy -245078.880965 kJ/mol
# GULP energy per Si atom -5569.974567 kJ/mol
# Density = 1.673334 g / cm^3
# Si number density = 16.771509 Si / 1000 Ang^3
#
#
#
# Elastic Constant Matrix: (Units=GPa)
#
#
# Indices 1 2 3 4 5 6 
#
# 1 78.3035 46.0568 55.6328 0.0000 0.0000 0.0000
# 2 46.0568 73.4506 60.5794 0.0000 0.0000 0.0000
# 3 55.6328 60.5794 93.0380 0.0000 0.0000 0.0000
# 4 0.0000 0.0000 0.0000 24.9490 0.0000 0.0000
# 5 0.0000 0.0000 0.0000 0.0000 5.9209 0.0000
# 6 0.0000 0.0000 0.0000 0.0000 0.0000 8.7491
#
#
#
# Elastic Compliance Matrix: (Units=1/GPa)
#
#
# Indices 1 2 3 4 5 6 
#
# 1 0.023700 -0.006853 -0.009709 0.000000 0.000000 0.000000
# 2 -0.006853 0.031388 -0.016340 0.000000 0.000000 0.000000
# 3 -0.009709 -0.016340 0.027193 0.000000 0.000000 0.000000
# 4 0.000000 0.000000 0.000000 0.040082 0.000000 0.000000
# 5 0.000000 0.000000 0.000000 0.000000 0.168892 0.000000
# 6 0.000000 0.000000 0.000000 0.000000 0.000000 0.114297
#
#
# Mechanical properties :
#
#
# Convention : Reuss Voigt Hill
#
# Bulk Modulus (GPa) = 60.69041 63.25890 61.97465
# Shear Modulus (GPa) = 10.48550 13.42536 11.95543
#
# Velocity S-wave (km/s) = 2.50311 2.83236 2.67281
# Velocity P-wave (km/s) = 6.67976 6.96393 6.82332
#
# Compressibility (1/GPa) = 0.01647707
#
# Stress axis : x y z
#
# Youngs Moduli (GPa) = 42.19428 31.85905 36.77361
#
# Poissons Ratio (x) = 0.21833 0.35705
# Poissons Ratio (y) = 0.28916 0.60088
# Poissons Ratio (z) = 0.40968 0.52057
#
# Static dielectric constant tensor:
#      x y z
#    x 1.566510 0.000000 0.000000 
#    y 0.000000 1.553330 0.000000 
#    z 0.000000 0.000000 1.564390 
# 
# From -- ./inp_files/23971.got.cif
#   From: 2010.05.17/outbox.cif.g08.bks.cpg/sg71_12_cif.got.tgz:23971.got - 2010.06.03 16:22:01.
