data_PCOD9520900
_publ_section_title
;
Structure prediction by ZEFSAII (Michael W. Deem and Ramdas Pophale) SiO2 
 PCOD9520900
Probable space group: I M M M
;
_chemical_formula_sum "Si O2"
_cell_formula_units_Z 104
_cell_length_a 9.248072
_cell_length_b 24.192583
_cell_length_c 27.781388
_cell_angle_alpha 90.000000
_cell_angle_beta 90.000000
_cell_angle_gamma 90.000000
_cell_volume 6215.661884
_symmetry_space_group_name_H-M "I M M M"
_symmetry_group_IT_number 71
_symmetry_cell_setting 'orthorhombic'
loop_
_space_group_symop_operation_xyz
x,y,z
-x,-y,z
x,-y,-z
-x,y,-z
-x,-y,-z
x,y,-z
-x,y,z
x,-y,z
1/2+x,1/2+y,1/2+z
1/2-x,1/2-y,1/2+z
1/2+x,1/2-y,1/2-z
1/2-x,1/2+y,1/2-z
1/2-x,1/2-y,1/2-z
1/2+x,1/2+y,1/2-z
1/2-x,1/2+y,1/2+z
1/2+x,1/2-y,1/2+z
loop_
_atom_site_type_symbol
_atom_site_label
_atom_site_fract_x
_atom_site_fract_y
_atom_site_fract_z
Si Si1 0.669447 0.764595 0.299234
Si Si2 0.163220 0.933561 0.000000
Si Si3 0.835231 0.266450 0.443661
Si Si4 0.824082 0.935721 0.445116
Si Si5 0.171792 0.564061 0.401212
Si Si6 0.833810 0.161889 0.871526
Si Si7 0.330732 0.660768 0.875254
O O1 0.500000 0.776630 0.291359
O O2 0.750000 0.750000 0.250000
O O3 0.679780 0.708842 0.331162
O O4 0.743068 0.813947 0.330259
O O5 0.252951 0.921230 0.952051
O O6 0.000000 0.910463 0.000000
O O7 0.150388 0.000000 0.000000
O O8 0.811153 0.259841 0.500000
O O9 0.723193 0.307252 0.419084
O O10 0.826065 0.208244 0.416225
O O11 0.000000 0.287497 0.436262
O O12 0.778610 0.920114 0.500000
O O13 0.776466 0.894381 0.402666
O O14 0.000000 0.932934 0.445187
O O15 0.784260 0.000000 0.437316
O O16 0.206153 0.500000 0.390095
O O17 0.236253 0.607996 0.364049
O O18 0.000000 0.568940 0.405493
O O19 0.000000 0.145188 0.876103
O O20 0.500000 0.653426 0.861568
#
# Coordination Sequence:
#
# PCOD9520900 Si02
#       7
#    16   8  16  16  16  16  16
#     4  10  21  37  56  76  96 121 157 204 258 309
#     4   9  17  29  45  65  91 127 167 201 232 265
#     4   9  17  28  43  65  95 130 164 199 239 285
#     4   8  13  22  41  73 110 144 177 210 240 276
#     4  10  20  33  49  69  95 128 164 199 235 280
#     4  10  21  34  49  71  96 123 158 199 247 298
#     4   9  16  28  48  73 100 131 167 205 246 292
#
# _framework density 16.731926999999999
#
# number of rings (size 3 to 8) (size 9 to 14) (size 15 to 20)
#    0.000    2.692    0.000    2.538    1.077    5.846 
#    0.000    0.000    0.000    2.769    0.000    3.231 
#    0.000    0.000    0.000    0.000    0.000    0.000 
#
# Total GULP energy -289725.162835 kJ/mol
# GULP energy per Si atom -5571.637747 kJ/mol
# Density = 1.669384 g / cm^3
# Si number density = 16.731927 Si / 1000 Ang^3
#
#
#
# Elastic Constant Matrix: (Units=GPa)
#
#
# Indices 1 2 3 4 5 6 
#
# 1 80.9386 38.4316 46.6724 0.0000 0.0000 0.0000
# 2 38.4316 82.7275 35.1929 0.0000 0.0000 0.0000
# 3 46.6724 35.1929 90.3264 0.0000 0.0000 0.0000
# 4 0.0000 0.0000 0.0000 18.5292 0.0000 0.0000
# 5 0.0000 0.0000 0.0000 0.0000 17.1278 0.0000
# 6 0.0000 0.0000 0.0000 0.0000 0.0000 21.3406
#
#
#
# Elastic Compliance Matrix: (Units=1/GPa)
#
#
# Indices 1 2 3 4 5 6 
#
# 1 0.019653 -0.005766 -0.007909 0.000000 0.000000 0.000000
# 2 -0.005766 0.016181 -0.003325 0.000000 0.000000 0.000000
# 3 -0.007909 -0.003325 0.016453 0.000000 0.000000 0.000000
# 4 0.000000 0.000000 0.000000 0.053969 0.000000 0.000000
# 5 0.000000 0.000000 0.000000 0.000000 0.058385 0.000000
# 6 0.000000 0.000000 0.000000 0.000000 0.000000 0.046859
#
#
# Mechanical properties :
#
#
# Convention : Reuss Voigt Hill
#
# Bulk Modulus (GPa) = 54.68018 54.95402 54.81710
# Shear Modulus (GPa) = 19.87327 20.31256 20.09292
#
# Velocity S-wave (km/s) = 3.45011 3.48803 3.46912
# Velocity P-wave (km/s) = 6.97295 7.00977 6.99139
#
# Compressibility (1/GPa) = 0.01828816
#
# Stress axis : x y z
#
# Youngs Moduli (GPa) = 50.88266 61.80122 60.77940
#
# Poissons Ratio (x) = 0.35632 0.48067
# Poissons Ratio (y) = 0.29337 0.20211
# Poissons Ratio (z) = 0.40241 0.20551
#
# Static dielectric constant tensor:
#      x y z
#    x 1.571440 0.000000 0.000000 
#    y 0.000000 1.592600 0.000000 
#    z 0.000000 0.000000 1.553110 
# 
# From -- ./inp_files/63570.got.cif
#   From: 2010.05.17/outbox.cif.g08.bks.cpg/sg71_32_cif.got.tgz:63570.got - 2010.06.03 16:22:01.
