data_PCOD9520747
_publ_section_title
;
Structure prediction by ZEFSAII (Michael W. Deem and Ramdas Pophale) SiO2 
 PCOD9520747
Probable space group: I M M M
;
_chemical_formula_sum "Si O2"
_cell_formula_units_Z 104
_cell_length_a 15.956717
_cell_length_b 14.142596
_cell_length_c 25.551895
_cell_angle_alpha 90.000000
_cell_angle_beta 90.000000
_cell_angle_gamma 90.000000
_cell_volume 5766.280865
_symmetry_space_group_name_H-M "I M M M"
_symmetry_group_IT_number 71
_symmetry_cell_setting 'orthorhombic'
loop_
_space_group_symop_operation_xyz
x,y,z
-x,-y,z
x,-y,-z
-x,y,-z
-x,-y,-z
x,y,-z
-x,y,z
x,-y,z
1/2+x,1/2+y,1/2+z
1/2-x,1/2-y,1/2+z
1/2+x,1/2-y,1/2-z
1/2-x,1/2+y,1/2-z
1/2-x,1/2-y,1/2-z
1/2+x,1/2+y,1/2-z
1/2-x,1/2+y,1/2+z
1/2+x,1/2-y,1/2+z
loop_
_atom_site_type_symbol
_atom_site_label
_atom_site_fract_x
_atom_site_fract_y
_atom_site_fract_z
Si Si1 0.841985 0.612530 0.940157
Si Si2 0.407325 0.890319 0.760943
Si Si3 0.593734 0.236101 0.655641
Si Si4 0.500000 0.387466 0.059692
Si Si5 0.237218 0.285550 0.308595
Si Si6 0.828618 0.801883 0.596097
Si Si7 0.597201 0.892998 0.063216
O O1 0.847641 0.500000 0.929591
O O2 0.889905 0.673462 0.896207
O O3 0.745329 0.646969 0.935414
O O4 0.870695 0.628741 0.000000
O O5 0.500000 0.870929 0.783723
O O6 0.402127 0.831693 0.706850
O O7 0.334358 0.863578 0.801248
O O8 0.401725 0.000000 0.747759
O O9 0.500000 0.277183 0.653703
O O10 0.672748 0.306031 0.664887
O O11 0.500000 0.500000 0.058012
O O12 0.416187 0.352052 0.086836
O O13 0.500000 0.349822 0.000000
O O14 0.250000 0.250000 0.250000
O O15 0.199571 0.201503 0.343801
O O16 0.843106 0.691982 0.580947
O O17 0.500000 0.874180 0.078807
O O18 0.618811 0.000000 0.080628
O O19 0.598409 0.893205 0.000000
#
# Coordination Sequence:
#
# PCOD9520747 Si02
#       7
#    16  16  16   8  16  16  16
#     4  10  20  32  48  73 104 136 173 217 263 313
#     4   9  17  30  52  79 105 131 165 212 267 325
#     4   9  18  34  53  73  98 136 177 215 265 318
#     4  11  22  34  51  77 109 149 190 218 254 327
#     4   9  20  35  50  74  99 135 174 221 272 313
#     4  11  20  32  51  71 104 142 180 217 264 321
#     4   9  17  29  46  71 103 135 167 206 255 311
#
# _framework density 18.035888
#
# number of rings (size 3 to 8) (size 9 to 14) (size 15 to 20)
#    0.000    2.385    0.769    2.769    1.077    3.077 
#    0.000    3.077    0.000    0.462    0.000    0.000 
#    0.000    0.000    0.000   16.308    0.000    0.154 
#
# Total GULP energy -289735.997945 kJ/mol
# GULP energy per Si atom -5571.846114 kJ/mol
# Density = 1.799484 g / cm^3
# Si number density = 18.035888 Si / 1000 Ang^3
#
#
#
# Elastic Constant Matrix: (Units=GPa)
#
#
# Indices 1 2 3 4 5 6 
#
# 1 121.1097 14.0039 24.9722 0.0000 0.0000 0.0000
# 2 14.0039 38.6309 5.6647 0.0000 0.0000 0.0000
# 3 24.9722 5.6647 82.5780 0.0000 0.0000 0.0000
# 4 0.0000 0.0000 0.0000 18.0664 0.0000 0.0000
# 5 0.0000 0.0000 0.0000 0.0000 17.0502 0.0000
# 6 0.0000 0.0000 0.0000 0.0000 0.0000 17.7664
#
#
#
# Elastic Compliance Matrix: (Units=1/GPa)
#
#
# Indices 1 2 3 4 5 6 
#
# 1 0.009123 -0.002932 -0.002558 0.000000 0.000000 0.000000
# 2 -0.002932 0.027091 -0.000972 0.000000 0.000000 0.000000
# 3 -0.002558 -0.000972 0.012950 0.000000 0.000000 0.000000
# 4 0.000000 0.000000 0.000000 0.055351 0.000000 0.000000
# 5 0.000000 0.000000 0.000000 0.000000 0.058650 0.000000
# 6 0.000000 0.000000 0.000000 0.000000 0.000000 0.056286
#
#
# Mechanical properties :
#
#
# Convention : Reuss Voigt Hill
#
# Bulk Modulus (GPa) = 27.59283 36.84446 32.21864
# Shear Modulus (GPa) = 20.45355 23.75513 22.10434
#
# Velocity S-wave (km/s) = 3.37121 3.63313 3.50462
# Velocity P-wave (km/s) = 5.52137 6.17027 5.85482
#
# Compressibility (1/GPa) = 0.03624130
#
# Stress axis : x y z
#
# Youngs Moduli (GPa) = 109.60773 36.91198 77.22051
#
# Poissons Ratio (x) = 0.10823 0.19752
# Poissons Ratio (y) = 0.32140 0.07503
# Poissons Ratio (z) = 0.28036 0.03587
#
# Static dielectric constant tensor:
#      x y z
#    x 1.671370 0.000000 0.000000 
#    y 0.000000 1.596540 0.000000 
#    z 0.000000 0.000000 1.650510 
# 
# From -- ./inp_files/59930.got.cif
#   From: 2010.05.17/outbox.cif.g08.bks.cpg/sg71_30_cif.got.tgz:59930.got - 2010.06.03 16:22:01.
