data_PCOD9520009
_publ_section_title
;
Structure prediction by ZEFSAII (Michael W. Deem and Ramdas Pophale) SiO2 
 PCOD9520009
Probable space group: I M M M
;
_chemical_formula_sum "Si O2"
_cell_formula_units_Z 104
_cell_length_a 18.241892
_cell_length_b 11.629131
_cell_length_c 28.399378
_cell_angle_alpha 90.000000
_cell_angle_beta 90.000000
_cell_angle_gamma 90.000000
_cell_volume 6024.568840
_symmetry_space_group_name_H-M "I M M M"
_symmetry_group_IT_number 71
_symmetry_cell_setting 'orthorhombic'
loop_
_space_group_symop_operation_xyz
x,y,z
-x,-y,z
x,-y,-z
-x,y,-z
-x,-y,-z
x,y,-z
-x,y,z
x,-y,z
1/2+x,1/2+y,1/2+z
1/2-x,1/2-y,1/2+z
1/2+x,1/2-y,1/2-z
1/2-x,1/2+y,1/2-z
1/2-x,1/2-y,1/2-z
1/2+x,1/2+y,1/2-z
1/2-x,1/2+y,1/2+z
1/2+x,1/2-y,1/2+z
loop_
_atom_site_type_symbol
_atom_site_label
_atom_site_fract_x
_atom_site_fract_y
_atom_site_fract_z
Si Si1 0.180913 0.363265 0.701785
Si Si2 0.500000 0.863079 0.055236
Si Si3 0.847608 0.214577 0.213628
Si Si4 0.777555 0.863613 0.944289
Si Si5 0.415764 0.636022 0.379282
Si Si6 0.914119 0.000000 0.620354
Si Si7 0.639008 0.752534 0.894129
Si Si8 0.415494 0.500000 0.233276
O O1 0.179730 0.500000 0.695137
O O2 0.151713 0.326201 0.753211
O O3 0.264327 0.316715 0.699824
O O4 0.139329 0.299542 0.659437
O O5 0.427993 0.811471 0.078906
O O6 0.500000 0.000000 0.060930
O O7 0.500000 0.836203 0.000000
O O8 0.894967 0.210938 0.166301
O O9 0.876146 0.111564 0.246412
O O10 0.856140 0.842741 0.919867
O O11 0.714611 0.791999 0.918238
O O12 0.760867 0.000000 0.938022
O O13 0.779084 0.840150 0.000000
O O14 0.500000 0.654047 0.393524
O O15 0.408209 0.500000 0.365813
O O16 0.874385 0.883680 0.604547
O O17 0.913445 0.000000 0.677112
O O18 0.000000 0.000000 0.605510
O O19 0.500000 0.500000 0.249021
#
# Coordination Sequence:
#
# PCOD9520009 Si02
#       8
#    16   8  16  16  16   8  16   8
#     4  11  22  35  56  84 121 155 193 240 286 348
#     4  11  24  41  63  87 115 154 199 241 298 365
#     4  11  20  34  54  85 118 154 196 231 284 344
#     4  10  21  38  60  88 120 151 192 245 297 355
#     4  10  19  33  57  87 120 156 194 238 291 350
#     4  11  24  42  58  86 119 151 200 250 294 349
#     4  12  22  40  62  86 115 156 195 247 301 347
#     4  11  20  34  56  80 115 156 193 232 280 344
#
# _framework density 17.262647000000001
#
# number of rings (size 3 to 8) (size 9 to 14) (size 15 to 20)
#    0.000    1.154    5.385    2.308    0.000    1.538 
#    1.385    3.462    0.000    0.000    0.000    0.000 
#    0.000    1.231    0.000    0.000    0.000    0.000 
#
# Total GULP energy -290416.784290 kJ/mol
# GULP energy per Si atom -5584.938159 kJ/mol
# Density = 1.722336 g / cm^3
# Si number density = 17.262647 Si / 1000 Ang^3
#
#
#
# Elastic Constant Matrix: (Units=GPa)
#
#
# Indices 1 2 3 4 5 6 
#
# 1 102.3755 42.3683 51.7247 0.0000 0.0000 0.0000
# 2 42.3683 80.1118 54.8601 0.0000 0.0000 0.0000
# 3 51.7247 54.8601 95.0373 0.0000 0.0000 0.0000
# 4 0.0000 0.0000 0.0000 21.6244 0.0000 0.0000
# 5 0.0000 0.0000 0.0000 0.0000 20.3448 0.0000
# 6 0.0000 0.0000 0.0000 0.0000 0.0000 11.4988
#
#
#
# Elastic Compliance Matrix: (Units=1/GPa)
#
#
# Indices 1 2 3 4 5 6 
#
# 1 0.014086 -0.003638 -0.005567 0.000000 0.000000 0.000000
# 2 -0.003638 0.021582 -0.010478 0.000000 0.000000 0.000000
# 3 -0.005567 -0.010478 0.019600 0.000000 0.000000 0.000000
# 4 0.000000 0.000000 0.000000 0.046244 0.000000 0.000000
# 5 0.000000 0.000000 0.000000 0.000000 0.049153 0.000000
# 6 0.000000 0.000000 0.000000 0.000000 0.000000 0.086966
#
#
# Mechanical properties :
#
#
# Convention : Reuss Voigt Hill
#
# Bulk Modulus (GPa) = 62.88023 63.93675 63.40849
# Shear Modulus (GPa) = 17.71187 19.26502 18.48844
#
# Velocity S-wave (km/s) = 3.20663 3.34427 3.27618
# Velocity P-wave (km/s) = 7.08623 7.21320 7.15000
#
# Compressibility (1/GPa) = 0.01590325
#
# Stress axis : x y z
#
# Youngs Moduli (GPa) = 70.99325 46.33522 51.01935
#
# Poissons Ratio (x) = 0.16855 0.28400
# Poissons Ratio (y) = 0.25824 0.53460
# Poissons Ratio (z) = 0.39519 0.48552
#
# Static dielectric constant tensor:
#      x y z
#    x 1.585030 0.000000 0.000000 
#    y 0.000000 1.562990 0.000000 
#    z 0.000000 0.000000 1.585410 
# 
# From -- ./inp_files/66052.got.cif
#   From: 2010.05.17/outbox.cif.g08.bks.cpg/sg71_34_cif.got.tgz:66052.got - 2010.06.03 16:22:01.
