data_PCOD9520565
_publ_section_title
;
Structure prediction by ZEFSAII (Michael W. Deem and Ramdas Pophale) SiO2 
 PCOD9520565
Probable space group: I M M M
;
_chemical_formula_sum "Si O2"
_cell_formula_units_Z 112
_cell_length_a 33.800106
_cell_length_b 14.232210
_cell_length_c 14.137338
_cell_angle_alpha 90.000000
_cell_angle_beta 90.000000
_cell_angle_gamma 90.000000
_cell_volume 6800.769366
_symmetry_space_group_name_H-M "I M M M"
_symmetry_group_IT_number 71
_symmetry_cell_setting 'orthorhombic'
loop_
_space_group_symop_operation_xyz
x,y,z
-x,-y,z
x,-y,-z
-x,y,-z
-x,-y,-z
x,y,-z
-x,y,z
x,-y,z
1/2+x,1/2+y,1/2+z
1/2-x,1/2-y,1/2+z
1/2+x,1/2-y,1/2-z
1/2-x,1/2+y,1/2-z
1/2-x,1/2-y,1/2-z
1/2+x,1/2+y,1/2-z
1/2-x,1/2+y,1/2+z
1/2+x,1/2-y,1/2+z
loop_
_atom_site_type_symbol
_atom_site_label
_atom_site_fract_x
_atom_site_fract_y
_atom_site_fract_z
Si Si1 0.455498 0.612134 0.261641
Si Si2 0.118014 0.113949 0.891606
Si Si3 0.909746 0.787690 0.387353
Si Si4 0.828376 0.105078 0.614682
Si Si5 0.362986 0.106260 0.884837
Si Si6 0.783587 0.286411 0.384550
Si Si7 0.794974 0.109452 0.884393
O O1 0.500000 0.628132 0.297290
O O2 0.451597 0.500000 0.243844
O O3 0.420450 0.640890 0.332738
O O4 0.446718 0.670561 0.167428
O O5 0.161275 0.141432 0.852430
O O6 0.119124 0.000000 0.893256
O O7 0.114455 0.146218 0.000000
O O8 0.915427 0.788021 0.500000
O O9 0.872129 0.855191 0.365573
O O10 0.895574 0.683661 0.357366
O O11 0.825972 0.101345 0.500000
O O12 0.796149 0.181708 0.645235
O O13 0.823300 0.000000 0.651817
O O14 0.319830 0.145361 0.856337
O O15 0.369693 0.000000 0.852331
O O16 0.362864 0.105699 0.000000
O O17 0.783270 0.286694 0.500000
O O18 0.741413 0.325932 0.353914
O O19 0.788068 0.000000 0.859687
O O20 0.796552 0.111574 0.000000
#
# Coordination Sequence:
#
# PCOD9520565 Si02
#       7
#    16  16  16  16  16  16  16
#     4  10  20  31  44  63  84 108 139 172 208 252
#     4   8  15  28  44  62  84 109 136 168 210 256
#     4   9  17  28  42  61  86 115 144 173 204 241
#     4   8  13  21  33  50  77 116 154 177 193 222
#     4   8  13  22  38  60  85 113 143 173 205 239
#     4   8  12  17  30  56  83 106 138 174 202 233
#     4   8  12  19  34  56  81 105 128 161 207 252
#
# _framework density 16.468726
#
# number of rings (size 3 to 8) (size 9 to 14) (size 15 to 20)
#    0.000    3.571    0.000    3.429    0.000    3.143 
#    0.000    2.143    0.000    3.857    0.000    5.000 
#    0.000    1.714    0.000    1.286    0.000    0.143 
#
# Total GULP energy -311900.062928 kJ/mol
# GULP energy per Si atom -5569.643981 kJ/mol
# Density = 1.643124 g / cm^3
# Si number density = 16.468726 Si / 1000 Ang^3
#
#
#
# Elastic Constant Matrix: (Units=GPa)
#
#
# Indices 1 2 3 4 5 6 
#
# 1 85.4535 37.5516 8.7226 0.0000 0.0000 0.0000
# 2 37.5516 91.3687 6.3133 0.0000 0.0000 0.0000
# 3 8.7226 6.3133 28.0885 0.0000 0.0000 0.0000
# 4 0.0000 0.0000 0.0000 3.9129 0.0000 0.0000
# 5 0.0000 0.0000 0.0000 0.0000 22.2555 0.0000
# 6 0.0000 0.0000 0.0000 0.0000 0.0000 -16.1503
#
#
#
# Elastic Compliance Matrix: (Units=1/GPa)
#
#
# Indices 1 2 3 4 5 6 
#
# 1 0.014564 -0.005763 -0.003227 0.000000 0.000000 0.000000
# 2 -0.005763 0.013397 -0.001222 0.000000 0.000000 0.000000
# 3 -0.003227 -0.001222 0.036879 0.000000 0.000000 0.000000
# 4 0.000000 0.000000 0.000000 0.255564 0.000000 0.000000
# 5 0.000000 0.000000 0.000000 0.000000 0.044933 0.000000
# 6 0.000000 0.000000 0.000000 0.000000 0.000000 -0.061918
#
#
# Mechanical properties :
#
#
# Convention : Reuss Voigt Hill
#
# Bulk Modulus (GPa) = 22.51423 34.45395 28.48409
# Shear Modulus (GPa) = 14.76460 12.15850 13.46155
#
# Velocity S-wave (km/s) = 2.99745 2.72008 2.86212
# Velocity P-wave (km/s) = 5.06756 5.55260 5.31561
#
# Compressibility (1/GPa) = 0.04441635
#
# Stress axis : x y z
#
# Youngs Moduli (GPa) = 68.66223 74.64086 27.11603
#
# Poissons Ratio (x) = 0.43013 0.08752
# Poissons Ratio (y) = 0.39568 0.03313
# Poissons Ratio (z) = 0.22160 0.09119
#
# Static dielectric constant tensor:
#      x y z
#    x 1.555440 0.000000 0.000000 
#    y 0.000000 1.546760 0.000000 
#    z 0.000000 0.000000 1.597660 
# 
# From -- ./inp_files/41109.got.cif
#   From: 2010.05.17/outbox.cif.g08.bks.cpg/sg71_21_cif.got.tgz:41109.got - 2010.06.03 16:22:01.
