data_PCOD9520884
_publ_section_title
;
Structure prediction by ZEFSAII (Michael W. Deem and Ramdas Pophale) SiO2 
 PCOD9520884
Probable space group: I M M M
;
_chemical_formula_sum "Si O2"
_cell_formula_units_Z 116
_cell_length_a 29.048665
_cell_length_b 24.781645
_cell_length_c 7.966023
_cell_angle_alpha 90.000000
_cell_angle_beta 90.000000
_cell_angle_gamma 90.000000
_cell_volume 5734.530481
_symmetry_space_group_name_H-M "I M M M"
_symmetry_group_IT_number 71
_symmetry_cell_setting 'orthorhombic'
loop_
_space_group_symop_operation_xyz
x,y,z
-x,-y,z
x,-y,-z
-x,y,-z
-x,-y,-z
x,y,-z
-x,y,z
x,-y,z
1/2+x,1/2+y,1/2+z
1/2-x,1/2-y,1/2+z
1/2+x,1/2-y,1/2-z
1/2-x,1/2+y,1/2-z
1/2-x,1/2-y,1/2-z
1/2+x,1/2+y,1/2-z
1/2-x,1/2+y,1/2+z
1/2+x,1/2-y,1/2+z
loop_
_atom_site_type_symbol
_atom_site_label
_atom_site_fract_x
_atom_site_fract_y
_atom_site_fract_z
Si Si1 0.950517 0.119040 0.797426
Si Si2 0.816234 0.755457 0.185589
Si Si3 0.000000 0.616254 0.000000
Si Si4 0.928419 0.644056 0.703504
Si Si5 0.357813 0.561161 0.298034
Si Si6 0.775128 0.137457 0.308249
Si Si7 0.085409 0.230144 0.696797
Si Si8 0.178092 0.639086 0.688784
O O1 0.904689 0.089254 0.734059
O O2 0.947483 0.181475 0.744619
O O3 0.000000 0.096401 0.741588
O O4 0.949526 0.116661 0.000000
O O5 0.786050 0.852118 0.500000
O O6 0.782724 0.804910 0.219111
O O7 0.867875 0.778367 0.199135
O O8 0.817152 0.704264 0.306128
O O9 0.960290 0.618455 0.153027
O O10 0.937133 0.633646 0.500000
O O11 0.932764 0.709272 0.726270
O O12 0.874804 0.629259 0.739058
O O13 0.361337 0.559514 0.500000
O O14 0.354125 0.500000 0.235326
O O15 0.312584 0.595435 0.257075
O O16 0.722497 0.118629 0.288211
O O17 0.807516 0.266710 0.000000
O O18 0.096730 0.226601 0.500000
O O19 0.183411 0.619295 0.500000
#
# Coordination Sequence:
#
# PCOD9520884 Si02
#       8
#    16  16   4  16  16  16  16  16
#     4  10  21  34  54  78 100 133 180 232 286 346
#     4  11  20  32  52  76 107 140 178 221 274 337
#     4  12  22  32  60  70 112 160 200 228 278 312
#     4   9  22  36  50  78 110 151 196 237 272 323
#     4  10  22  41  60  79 105 138 179 229 287 349
#     4  12  23  35  56  81 106 139 177 220 281 346
#     4  10  20  33  48  70 105 139 182 234 282 327
#     4  10  21  37  54  77 113 144 181 230 275 323
#
# _framework density 20.228335000000001
#
# number of rings (size 3 to 8) (size 9 to 14) (size 15 to 20)
#    0.000    1.655    1.379    4.759    6.759    0.828 
#    0.000    1.379    0.000    0.000    0.000    1.931 
#    0.000    0.000    0.000    1.241    0.000   10.414 
#
# Total GULP energy -323071.479929 kJ/mol
# GULP energy per Si atom -5570.197930 kJ/mol
# Density = 2.018229 g / cm^3
# Si number density = 20.228335 Si / 1000 Ang^3
#
#
#
# Elastic Constant Matrix: (Units=GPa)
#
#
# Indices 1 2 3 4 5 6 
#
# 1 129.2441 21.9753 24.3498 0.0000 0.0000 0.0000
# 2 21.9753 19.5738 -5.2575 0.0000 0.0000 0.0000
# 3 24.3498 -5.2575 63.0716 0.0000 0.0000 0.0000
# 4 0.0000 0.0000 0.0000 2.7501 0.0000 0.0000
# 5 0.0000 0.0000 0.0000 0.0000 31.0175 0.0000
# 6 0.0000 0.0000 0.0000 0.0000 0.0000 0.7414
#
#
#
# Elastic Compliance Matrix: (Units=1/GPa)
#
#
# Indices 1 2 3 4 5 6 
#
# 1 0.011145 -0.013981 -0.005468 0.000000 0.000000 0.000000
# 2 -0.013981 0.069797 0.011215 0.000000 0.000000 0.000000
# 3 -0.005468 0.011215 0.018901 0.000000 0.000000 0.000000
# 4 0.000000 0.000000 0.000000 0.363619 0.000000 0.000000
# 5 0.000000 0.000000 0.000000 0.000000 0.032240 0.000000
# 6 0.000000 0.000000 0.000000 0.000000 0.000000 1.348754
#
#
# Mechanical properties :
#
#
# Convention : Reuss Voigt Hill
#
# Bulk Modulus (GPa) = 11.99379 32.66941 22.33160
# Shear Modulus (GPa) = 2.64731 18.28994 10.46862
#
# Velocity S-wave (km/s) = 1.14523 3.01021 2.27738
# Velocity P-wave (km/s) = 2.77323 5.31669 4.24017
#
# Compressibility (1/GPa) = 0.08337647
#
# Stress axis : x y z
#
# Youngs Moduli (GPa) = 89.72987 14.32726 52.90765
#
# Poissons Ratio (x) = 0.20030 0.28929
# Poissons Ratio (y) = 1.25447 -0.59338
# Poissons Ratio (z) = 0.49063 -0.16069
#
# Static dielectric constant tensor:
#      x y z
#    x 1.791310 0.000000 0.000000 
#    y 0.000000 1.708730 0.000000 
#    z 0.000000 0.000000 1.716620 
# 
# From -- ./inp_files/17314.got.cif
#   From: 2010.05.17/outbox.cif.g08.bks.cpg/sg71_9_cif.got.tgz:17314.got - 2010.06.03 16:22:01.
