data_PCOD9520605
_publ_section_title
;
Structure prediction by ZEFSAII (Michael W. Deem and Ramdas Pophale) SiO2 
 PCOD9520605
Probable space group: I M M M
;
_chemical_formula_sum "Si O2"
_cell_formula_units_Z 80
_cell_length_a 7.816549
_cell_length_b 18.729020
_cell_length_c 28.570605
_cell_angle_alpha 90.000000
_cell_angle_beta 90.000000
_cell_angle_gamma 90.000000
_cell_volume 4182.630934
_symmetry_space_group_name_H-M "I M M M"
_symmetry_group_IT_number 71
_symmetry_cell_setting 'orthorhombic'
loop_
_space_group_symop_operation_xyz
x,y,z
-x,-y,z
x,-y,-z
-x,y,-z
-x,-y,-z
x,y,-z
-x,y,z
x,-y,z
1/2+x,1/2+y,1/2+z
1/2-x,1/2-y,1/2+z
1/2+x,1/2-y,1/2-z
1/2-x,1/2+y,1/2-z
1/2-x,1/2-y,1/2-z
1/2+x,1/2+y,1/2-z
1/2-x,1/2+y,1/2+z
1/2+x,1/2-y,1/2+z
loop_
_atom_site_type_symbol
_atom_site_label
_atom_site_fract_x
_atom_site_fract_y
_atom_site_fract_z
Si Si1 0.292471 0.862210 0.310356
Si Si2 0.701873 0.230170 0.551117
Si Si3 0.297302 0.421159 0.089444
Si Si4 0.294244 0.920016 0.210371
Si Si5 0.294132 0.713266 0.351176
O O1 0.500000 0.863696 0.310378
O O2 0.233956 0.906933 0.355415
O O3 0.231087 0.892941 0.261087
O O4 0.236287 0.780429 0.319382
O O5 0.776865 0.245620 0.500000
O O6 0.500000 0.246422 0.549187
O O7 0.718748 0.146065 0.562623
O O8 0.772760 0.271710 0.596355
O O9 0.500000 0.419535 0.080773
O O10 0.231822 0.500000 0.076879
O O11 0.500000 0.923054 0.213521
O O12 0.251862 0.861508 0.171555
O O13 0.231079 0.000000 0.200556
O O14 0.500000 0.717811 0.352990
#
# Coordination Sequence:
#
# PCOD9520605 Si02
#       5
#    16  16  16  16  16
#     4   9  18  33  51  70  96 133 171 199 228 275
#     4   9  19  36  55  72  91 121 163 205 244 290
#     4  10  20  31  45  71 105 134 161 197 238 279
#     4  10  20  32  48  72 101 132 163 195 235 285
#     4   9  18  32  51  74  96 121 157 201 245 286
#
# _framework density 19.126718
#
# number of rings (size 3 to 8) (size 9 to 14) (size 15 to 20)
#    0.000    2.600    0.000    3.000    0.000    7.600 
#    0.000    2.000    0.000    0.600    0.000    4.200 
#    0.000    0.000    0.000    0.000    0.000    0.000 
#
# Total GULP energy -223174.628764 kJ/mol
# GULP energy per Si atom -5579.365719 kJ/mol
# Density = 1.908318 g / cm^3
# Si number density = 19.126718 Si / 1000 Ang^3
#
#
#
# Elastic Constant Matrix: (Units=GPa)
#
#
# Indices 1 2 3 4 5 6 
#
# 1 20.9275 2.1787 1.5007 0.0000 0.0000 0.0000
# 2 2.1787 67.8756 10.5742 0.0000 0.0000 0.0000
# 3 1.5007 10.5742 56.6780 0.0000 0.0000 0.0000
# 4 0.0000 0.0000 0.0000 3.2143 0.0000 0.0000
# 5 0.0000 0.0000 0.0000 0.0000 11.8743 0.0000
# 6 0.0000 0.0000 0.0000 0.0000 0.0000 23.0385
#
#
#
# Elastic Compliance Matrix: (Units=1/GPa)
#
#
# Indices 1 2 3 4 5 6 
#
# 1 0.048001 -0.001383 -0.001013 0.000000 0.000000 0.000000
# 2 -0.001383 0.015214 -0.002802 0.000000 0.000000 0.000000
# 3 -0.001013 -0.002802 0.018193 0.000000 0.000000 0.000000
# 4 0.000000 0.000000 0.000000 0.311111 0.000000 0.000000
# 5 0.000000 0.000000 0.000000 0.000000 0.084216 0.000000
# 6 0.000000 0.000000 0.000000 0.000000 0.000000 0.043406
#
#
# Mechanical properties :
#
#
# Convention : Reuss Voigt Hill
#
# Bulk Modulus (GPa) = 14.08209 19.33203 16.70706
# Shear Modulus (GPa) = 9.02192 16.37391 12.69791
#
# Velocity S-wave (km/s) = 2.17420 2.92905 2.57939
# Velocity P-wave (km/s) = 3.69884 4.64418 4.19820
#
# Compressibility (1/GPa) = 0.07101218
#
# Stress axis : x y z
#
# Youngs Moduli (GPa) = 20.83303 65.73025 54.96601
#
# Poissons Ratio (x) = 0.09090 0.05568
# Poissons Ratio (y) = 0.02881 0.15400
# Poissons Ratio (z) = 0.02110 0.18416
#
# Static dielectric constant tensor:
#      x y z
#    x 1.702630 0.000000 0.000000 
#    y 0.000000 1.658240 0.000000 
#    z 0.000000 0.000000 1.679070 
# 
# From -- ./inp_files/8267.got.cif
#   From: 2010.05.17/outbox.cif.g08.bks.cpg/sg71_5_cif.got.tgz:8267.got - 2010.06.03 16:22:01.
