data_PCOD9520285
_publ_section_title
;
Structure prediction by ZEFSAII (Michael W. Deem and Ramdas Pophale) SiO2 
 PCOD9520285
Probable space group: I M M M
;
_chemical_formula_sum "Si O2"
_cell_formula_units_Z 96
_cell_length_a 24.998501
_cell_length_b 7.436912
_cell_length_c 23.479807
_cell_angle_alpha 90.000000
_cell_angle_beta 90.000000
_cell_angle_gamma 90.000000
_cell_volume 4365.169710
_symmetry_space_group_name_H-M "I M M M"
_symmetry_group_IT_number 71
_symmetry_cell_setting 'orthorhombic'
loop_
_space_group_symop_operation_xyz
x,y,z
-x,-y,z
x,-y,-z
-x,y,-z
-x,-y,-z
x,y,-z
-x,y,z
x,-y,z
1/2+x,1/2+y,1/2+z
1/2-x,1/2-y,1/2+z
1/2+x,1/2-y,1/2-z
1/2-x,1/2+y,1/2-z
1/2-x,1/2-y,1/2-z
1/2+x,1/2+y,1/2-z
1/2-x,1/2+y,1/2+z
1/2+x,1/2-y,1/2+z
loop_
_atom_site_type_symbol
_atom_site_label
_atom_site_fract_x
_atom_site_fract_y
_atom_site_fract_z
Si Si1 0.500000 0.219542 0.155138
Si Si2 0.000000 0.721464 0.213524
Si Si3 0.189804 0.720311 0.065490
Si Si4 0.889757 0.706413 0.161334
Si Si5 0.806043 0.216286 0.609175
Si Si6 0.811923 0.786477 0.736509
Si Si7 0.418224 0.787588 0.061503
O O1 0.500000 0.279873 0.220365
O O2 0.550570 0.280103 0.117063
O O3 0.500000 0.000000 0.158074
O O4 0.053706 0.783051 0.181641
O O5 0.000000 0.500000 0.214427
O O6 0.190183 0.500000 0.067232
O O7 0.143826 0.784346 0.108654
O O8 0.248151 0.779258 0.088009
O O9 0.182088 0.773026 0.000000
O O10 0.900930 0.500000 0.145456
O O11 0.850272 0.707151 0.215697
O O12 0.820393 0.282177 0.672503
O O13 0.855108 0.262902 0.568920
O O14 0.802551 0.000000 0.612321
O O15 0.750000 0.750000 0.750000
O O16 0.820932 0.000000 0.737628
O O17 0.429581 0.000000 0.060052
O O18 0.434985 0.712974 0.000000
#
# Coordination Sequence:
#
# PCOD9520285 Si02
#       7
#     8   8  16  16  16  16  16
#     4   9  17  32  50  71 100 137 174 213 266 314
#     4   9  18  31  54  80 105 139 178 221 268 312
#     4   9  17  31  51  73 103 142 175 208 258 316
#     4  10  19  35  55  80 109 140 179 220 263 316
#     4  10  20  34  51  74 104 140 175 207 258 320
#     4  11  21  34  54  81 108 139 175 218 268 316
#     4  10  20  33  51  75 102 136 179 222 257 299
#
# _framework density 21.992273000000001
#
# number of rings (size 3 to 8) (size 9 to 14) (size 15 to 20)
#    0.000    2.167    1.667    2.250    0.000    4.667 
#    0.000    1.250    0.000    7.000    0.000    0.000 
#    0.000    1.333    0.000    0.000    0.000    0.000 
#
# Total GULP energy -268195.244790 kJ/mol
# GULP energy per Si atom -5587.400933 kJ/mol
# Density = 2.194222 g / cm^3
# Si number density = 21.992273 Si / 1000 Ang^3
#
#
#
# Elastic Constant Matrix: (Units=GPa)
#
#
# Indices 1 2 3 4 5 6 
#
# 1 174.4817 -7.3846 89.8878 0.0000 0.0000 0.0000
# 2 -7.3846 70.8298 2.4776 0.0000 0.0000 0.0000
# 3 89.8878 2.4776 183.9957 0.0000 0.0000 0.0000
# 4 0.0000 0.0000 0.0000 5.6471 0.0000 0.0000
# 5 0.0000 0.0000 0.0000 0.0000 66.8403 0.0000
# 6 0.0000 0.0000 0.0000 0.0000 0.0000 10.6639
#
#
#
# Elastic Compliance Matrix: (Units=1/GPa)
#
#
# Indices 1 2 3 4 5 6 
#
# 1 0.007721 0.000937 -0.003784 0.000000 0.000000 0.000000
# 2 0.000937 0.014239 -0.000650 0.000000 0.000000 0.000000
# 3 -0.003784 -0.000650 0.007292 0.000000 0.000000 0.000000
# 4 0.000000 0.000000 0.000000 0.177082 0.000000 0.000000
# 5 0.000000 0.000000 0.000000 0.000000 0.014961 0.000000
# 6 0.000000 0.000000 0.000000 0.000000 0.000000 0.093774
#
#
# Mechanical properties :
#
#
# Convention : Reuss Voigt Hill
#
# Bulk Modulus (GPa) = 44.92689 66.58542 55.75615
# Shear Modulus (GPa) = 15.17533 39.58536 27.38035
#
# Velocity S-wave (km/s) = 2.62969 4.24720 3.53228
# Velocity P-wave (km/s) = 5.44915 7.37524 6.48411
#
# Compressibility (1/GPa) = 0.02225839
#
# Stress axis : x y z
#
# Youngs Moduli (GPa) = 129.52516 70.23070 137.12859
#
# Poissons Ratio (x) = -0.06583 0.51894
# Poissons Ratio (y) = -0.12140 0.08908
# Poissons Ratio (z) = 0.49017 0.04562
#
# Static dielectric constant tensor:
#      x y z
#    x 1.779810 0.000000 0.000000 
#    y 0.000000 1.855590 0.000000 
#    z 0.000000 0.000000 1.794630 
# 
# From -- ./inp_files/61554.got.cif
#   From: 2010.05.17/outbox.cif.g08.bks.cpg/sg71_31_cif.got.tgz:61554.got - 2010.06.03 16:22:01.
