data_PCOD9520105
_publ_section_title
;
Structure prediction by ZEFSAII (Michael W. Deem and Ramdas Pophale) SiO2 
 PCOD9520105
Probable space group: I M M M
;
_chemical_formula_sum "Si O2"
_cell_formula_units_Z 100
_cell_length_a 8.234495
_cell_length_b 28.165945
_cell_length_c 23.281387
_cell_angle_alpha 90.000000
_cell_angle_beta 90.000000
_cell_angle_gamma 90.000000
_cell_volume 5399.706409
_symmetry_space_group_name_H-M "I M M M"
_symmetry_group_IT_number 71
_symmetry_cell_setting 'orthorhombic'
loop_
_space_group_symop_operation_xyz
x,y,z
-x,-y,z
x,-y,-z
-x,y,-z
-x,-y,-z
x,y,-z
-x,y,z
x,-y,z
1/2+x,1/2+y,1/2+z
1/2-x,1/2-y,1/2+z
1/2+x,1/2-y,1/2-z
1/2-x,1/2+y,1/2-z
1/2-x,1/2-y,1/2-z
1/2+x,1/2+y,1/2-z
1/2-x,1/2+y,1/2+z
1/2+x,1/2-y,1/2+z
loop_
_atom_site_type_symbol
_atom_site_label
_atom_site_fract_x
_atom_site_fract_y
_atom_site_fract_z
Si Si1 0.309237 0.915861 0.417683
Si Si2 0.195568 0.835061 0.500000
Si Si3 0.307431 0.554822 0.795490
Si Si4 0.805541 0.365778 0.724112
Si Si5 0.708467 0.500000 0.000000
Si Si6 0.305744 0.297933 0.378102
Si Si7 0.193462 0.274804 0.500000
Si Si8 0.695571 0.783933 0.698211
O O1 0.500000 0.923356 0.430094
O O2 0.257675 0.865583 0.445166
O O3 0.278974 0.921529 0.350414
O O4 0.215559 0.958040 0.450532
O O5 0.253284 0.780381 0.500000
O O6 0.000000 0.835824 0.500000
O O7 0.500000 0.557039 0.805128
O O8 0.257163 0.500000 0.792514
O O9 0.264583 0.582807 0.737347
O O10 0.755942 0.337694 0.666537
O O11 0.744967 0.334294 0.778950
O O12 0.000000 0.367625 0.725325
O O13 0.500000 0.298375 0.374667
O O14 0.251128 0.301715 0.443155
O O15 0.246297 0.245449 0.356748
O O16 0.000000 0.272664 0.500000
O O17 0.500000 0.786892 0.694885
O O18 0.750000 0.750000 0.750000
#
# Coordination Sequence:
#
# PCOD9520105 Si02
#       8
#    16   8  16  16   4  16   8  16
#     4  11  21  36  56  77 104 143 194 242 288 338
#     4  10  23  39  52  76 110 149 191 235 283 330
#     4  11  24  39  55  81 113 147 189 241 292 339
#     4  10  20  36  58  83 110 145 187 231 284 343
#     4  10  19  34  55  76  99 138 191 244 289 334
#     4  10  20  36  57  82 112 147 185 229 281 338
#     4  11  24  39  55  80 115 151 188 231 275 331
#     4   8  16  30  50  77 104 135 175 217 264 321
#
# _framework density 18.519524000000001
#
# number of rings (size 3 to 8) (size 9 to 14) (size 15 to 20)
#    0.000    1.920    0.800    3.600    2.240    3.520 
#    0.000    1.200    0.000    0.000    0.000    0.560 
#    0.000    4.480    0.000    0.000    0.000    0.000 
#
# Total GULP energy -278427.731353 kJ/mol
# GULP energy per Si atom -5568.554627 kJ/mol
# Density = 1.847737 g / cm^3
# Si number density = 18.519524 Si / 1000 Ang^3
#
#
#
# Elastic Constant Matrix: (Units=GPa)
#
#
# Indices 1 2 3 4 5 6 
#
# 1 35.5958 13.3878 11.0565 0.0000 0.0000 0.0000
# 2 13.3878 89.6567 50.3839 0.0000 0.0000 0.0000
# 3 11.0565 50.3839 114.3873 0.0000 0.0000 0.0000
# 4 0.0000 0.0000 0.0000 13.3774 0.0000 0.0000
# 5 0.0000 0.0000 0.0000 0.0000 18.3495 0.0000
# 6 0.0000 0.0000 0.0000 0.0000 0.0000 10.5989
#
#
#
# Elastic Compliance Matrix: (Units=1/GPa)
#
#
# Indices 1 2 3 4 5 6 
#
# 1 0.029894 -0.003774 -0.001227 0.000000 0.000000 0.000000
# 2 -0.003774 0.015299 -0.006374 0.000000 0.000000 0.000000
# 3 -0.001227 -0.006374 0.011668 0.000000 0.000000 0.000000
# 4 0.000000 0.000000 0.000000 0.074753 0.000000 0.000000
# 5 0.000000 0.000000 0.000000 0.000000 0.054497 0.000000
# 6 0.000000 0.000000 0.000000 0.000000 0.000000 0.094349
#
#
# Mechanical properties :
#
#
# Convention : Reuss Voigt Hill
#
# Bulk Modulus (GPa) = 29.31625 43.25514 36.28569
# Shear Modulus (GPa) = 15.89412 19.45261 17.67336
#
# Velocity S-wave (km/s) = 2.93274 3.24448 3.09254
# Velocity P-wave (km/s) = 5.22803 6.11905 5.69100
#
# Compressibility (1/GPa) = 0.03411078
#
# Stress axis : x y z
#
# Youngs Moduli (GPa) = 33.45173 65.36288 85.70181
#
# Poissons Ratio (x) = 0.24670 0.10516
# Poissons Ratio (y) = 0.12626 0.54626
# Poissons Ratio (z) = 0.04105 0.41662
#
# Static dielectric constant tensor:
#      x y z
#    x 1.662460 0.000000 0.000000 
#    y 0.000000 1.651930 0.000000 
#    z 0.000000 0.000000 1.638570 
# 
# From -- ./inp_files/50982.got.cif
#   From: 2010.05.17/outbox.cif.g08.bks.cpg/sg71_26_cif.got.tgz:50982.got - 2010.06.03 16:22:01.
