data_PCOD9520823
_publ_section_title
;
Structure prediction by ZEFSAII (Michael W. Deem and Ramdas Pophale) SiO2 
 PCOD9520823
Probable space group: I M M M
;
_chemical_formula_sum "Si O2"
_cell_formula_units_Z 88
_cell_length_a 22.705109
_cell_length_b 29.429935
_cell_length_c 7.864572
_cell_angle_alpha 90.000000
_cell_angle_beta 90.000000
_cell_angle_gamma 90.000000
_cell_volume 5255.184728
_symmetry_space_group_name_H-M "I M M M"
_symmetry_group_IT_number 71
_symmetry_cell_setting 'orthorhombic'
loop_
_space_group_symop_operation_xyz
x,y,z
-x,-y,z
x,-y,-z
-x,y,-z
-x,-y,-z
x,y,-z
-x,y,z
x,-y,z
1/2+x,1/2+y,1/2+z
1/2-x,1/2-y,1/2+z
1/2+x,1/2-y,1/2-z
1/2-x,1/2+y,1/2-z
1/2-x,1/2-y,1/2-z
1/2+x,1/2+y,1/2-z
1/2-x,1/2+y,1/2+z
1/2+x,1/2-y,1/2+z
loop_
_atom_site_type_symbol
_atom_site_label
_atom_site_fract_x
_atom_site_fract_y
_atom_site_fract_z
Si Si1 0.571308 0.772628 0.806544
Si Si2 0.245674 0.053143 0.000000
Si Si3 0.663852 0.947791 0.692305
Si Si4 0.373149 0.393058 0.500000
Si Si5 0.932054 0.375155 0.705741
Si Si6 0.928384 0.794696 0.000000
Si Si7 0.070889 0.052498 0.306422
O O1 0.500000 0.774080 0.813540
O O2 0.588574 0.823798 0.753521
O O3 0.586051 0.735248 0.666634
O O4 0.591912 0.763352 0.000000
O O5 0.286406 0.059345 0.834121
O O6 0.193873 0.089777 0.000000
O O7 0.224596 0.000000 0.000000
O O8 0.686869 0.942963 0.500000
O O9 0.610899 0.912866 0.720850
O O10 0.642931 0.000000 0.712744
O O11 0.390704 0.340470 0.500000
O O12 0.401968 0.415346 0.666810
O O13 0.931471 0.378373 0.500000
O O14 0.000000 0.380726 0.761590
O O15 0.000000 0.803732 0.000000
O O16 0.088084 0.063897 0.500000
O O17 0.000000 0.054748 0.297130
O O18 0.087730 0.000000 0.273888
#
# Coordination Sequence:
#
# PCOD9520823 Si02
#       7
#    16   8  16   8  16   8  16
#     4   8  16  31  49  74 107 139 170 203 251 317
#     4  10  22  40  55  71 102 142 185 230 265 303
#     4  10  21  36  54  78 107 141 177 215 265 316
#     4  12  22  33  54  77 100 137 191 228 263 309
#     4   9  17  31  55  85 111 139 173 208 256 322
#     4  10  20  32  50  79 110 137 168 216 274 322
#     4   9  18  32  50  76 108 135 162 207 272 337
#
# _framework density 16.745367999999999
#
# number of rings (size 3 to 8) (size 9 to 14) (size 15 to 20)
#    0.000    2.545    0.909    3.273    1.273    2.909 
#    0.000    5.455    0.000    1.091    0.000    0.000 
#    0.000    0.000    0.000    0.000    0.000    0.000 
#
# Total GULP energy -245297.643423 kJ/mol
# GULP energy per Si atom -5574.946441 kJ/mol
# Density = 1.670725 g / cm^3
# Si number density = 16.745368 Si / 1000 Ang^3
#
#
#
# Elastic Constant Matrix: (Units=GPa)
#
#
# Indices 1 2 3 4 5 6 
#
# 1 53.9184 64.8776 46.1695 0.0000 0.0000 0.0000
# 2 64.8776 145.7435 92.8192 0.0000 0.0000 0.0000
# 3 46.1695 92.8192 114.0628 0.0000 0.0000 0.0000
# 4 0.0000 0.0000 0.0000 44.7544 0.0000 0.0000
# 5 0.0000 0.0000 0.0000 0.0000 7.9680 0.0000
# 6 0.0000 0.0000 0.0000 0.0000 0.0000 29.8575
#
#
#
# Elastic Compliance Matrix: (Units=1/GPa)
#
#
# Indices 1 2 3 4 5 6 
#
# 1 0.040634 -0.015804 -0.003587 0.000000 0.000000 0.000000
# 2 -0.015804 0.020389 -0.010195 0.000000 0.000000 0.000000
# 3 -0.003587 -0.010195 0.018515 0.000000 0.000000 0.000000
# 4 0.000000 0.000000 0.000000 0.022344 0.000000 0.000000
# 5 0.000000 0.000000 0.000000 0.000000 0.125502 0.000000
# 6 0.000000 0.000000 0.000000 0.000000 0.000000 0.033492
#
#
# Mechanical properties :
#
#
# Convention : Reuss Voigt Hill
#
# Bulk Modulus (GPa) = 49.09929 80.16191 64.63060
# Shear Modulus (GPa) = 15.29812 23.83987 19.56899
#
# Velocity S-wave (km/s) = 3.02582 3.77725 3.42222
# Velocity P-wave (km/s) = 6.44920 8.18526 7.36854
#
# Compressibility (1/GPa) = 0.02036689
#
# Stress axis : x y z
#
# Youngs Moduli (GPa) = 24.60993 49.04582 54.00934
#
# Poissons Ratio (x) = 0.77510 0.19375
# Poissons Ratio (y) = 0.38892 0.55062
# Poissons Ratio (z) = 0.08828 0.50002
#
# Static dielectric constant tensor:
#      x y z
#    x 1.539030 0.000000 0.000000 
#    y 0.000000 1.560560 0.000000 
#    z 0.000000 0.000000 1.587590 
# 
# From -- ./inp_files/10562.got.cif
#   From: 2010.05.17/outbox.cif.g08.bks.cpg/sg71_6_cif.got.tgz:10562.got - 2010.06.03 16:22:01.
