data_PCOD9520977
_publ_section_title
;
Structure prediction by ZEFSAII (Michael W. Deem and Ramdas Pophale) SiO2 
 PCOD9520977
Probable space group: I M M M
;
_chemical_formula_sum "Si O2"
_cell_formula_units_Z 88
_cell_length_a 21.324413
_cell_length_b 14.050118
_cell_length_c 17.000343
_cell_angle_alpha 90.000000
_cell_angle_beta 90.000000
_cell_angle_gamma 90.000000
_cell_volume 5093.481588
_symmetry_space_group_name_H-M "I M M M"
_symmetry_group_IT_number 71
_symmetry_cell_setting 'orthorhombic'
loop_
_space_group_symop_operation_xyz
x,y,z
-x,-y,z
x,-y,-z
-x,y,-z
-x,-y,-z
x,y,-z
-x,y,z
x,-y,z
1/2+x,1/2+y,1/2+z
1/2-x,1/2-y,1/2+z
1/2+x,1/2-y,1/2-z
1/2-x,1/2+y,1/2-z
1/2-x,1/2-y,1/2-z
1/2+x,1/2+y,1/2-z
1/2-x,1/2+y,1/2+z
1/2+x,1/2-y,1/2+z
loop_
_atom_site_type_symbol
_atom_site_label
_atom_site_fract_x
_atom_site_fract_y
_atom_site_fract_z
Si Si1 0.858830 0.889238 0.361080
Si Si2 0.067810 0.612221 0.594954
Si Si3 0.197768 0.704240 0.409590
Si Si4 0.567400 0.384767 0.592188
Si Si5 0.689441 0.387176 0.317545
Si Si6 0.000000 0.115107 0.590926
O O1 0.816858 0.816263 0.409978
O O2 0.831081 0.881057 0.273120
O O3 0.932838 0.861242 0.369397
O O4 0.854534 0.000000 0.385282
O O5 0.067512 0.621510 0.500000
O O6 0.070062 0.500000 0.612732
O O7 0.132127 0.659686 0.620458
O O8 0.000000 0.649963 0.623141
O O9 0.210779 0.672219 0.500000
O O10 0.251800 0.671154 0.350404
O O11 0.570575 0.362715 0.500000
O O12 0.500000 0.351411 0.623712
O O13 0.567516 0.500000 0.599182
O O14 0.628557 0.350991 0.635701
O O15 0.700365 0.500000 0.334762
O O16 0.000000 0.150141 0.500000
O O17 0.000000 0.000000 0.588551
#
# Coordination Sequence:
#
# PCOD9520977 Si02
#       6
#    16  16  16  16  16   8
#     4  10  22  36  51  72 102 139 175 220 265 309
#     4   8  15  28  45  67  95 126 163 207 254 302
#     4  11  21  32  51  74 101 135 174 217 262 315
#     4   8  14  25  43  67  95 127 162 200 243 298
#     4  10  20  33  50  73 104 136 170 209 260 322
#     4   9  18  34  54  74  96 128 176 221 254 294
#
# _framework density 17.276983999999999
#
# number of rings (size 3 to 8) (size 9 to 14) (size 15 to 20)
#    0.000    2.636    0.000    3.273    2.545    2.909 
#    0.000    0.000    0.000    0.000    0.000    0.000 
#    0.000    0.727    0.000    3.818    0.000    0.182 
#
# Total GULP energy -245035.165443 kJ/mol
# GULP energy per Si atom -5568.981033 kJ/mol
# Density = 1.723766 g / cm^3
# Si number density = 17.276984 Si / 1000 Ang^3
#
#
#
# Elastic Constant Matrix: (Units=GPa)
#
#
# Indices 1 2 3 4 5 6 
#
# 1 149.8543 48.6094 55.5744 0.0000 0.0000 0.0000
# 2 48.6094 51.1539 20.7265 0.0000 0.0000 0.0000
# 3 55.5744 20.7265 40.8772 0.0000 0.0000 0.0000
# 4 0.0000 0.0000 0.0000 14.8220 0.0000 0.0000
# 5 0.0000 0.0000 0.0000 0.0000 36.2426 0.0000
# 6 0.0000 0.0000 0.0000 0.0000 0.0000 20.7142
#
#
#
# Elastic Compliance Matrix: (Units=1/GPa)
#
#
# Indices 1 2 3 4 5 6 
#
# 1 0.015618 -0.007851 -0.017253 0.000000 0.000000 0.000000
# 2 -0.007851 0.028550 -0.003803 0.000000 0.000000 0.000000
# 3 -0.017253 -0.003803 0.049848 0.000000 0.000000 0.000000
# 4 0.000000 0.000000 0.000000 0.067467 0.000000 0.000000
# 5 0.000000 0.000000 0.000000 0.000000 0.027592 0.000000
# 6 0.000000 0.000000 0.000000 0.000000 0.000000 0.048276
#
#
# Mechanical properties :
#
#
# Convention : Reuss Voigt Hill
#
# Bulk Modulus (GPa) = 27.62181 54.63401 41.12791
# Shear Modulus (GPa) = 16.27441 22.15410 19.21426
#
# Velocity S-wave (km/s) = 3.07248 3.58479 3.33848
# Velocity P-wave (km/s) = 5.34876 6.98752 6.22232
#
# Compressibility (1/GPa) = 0.03620327
#
# Stress axis : x y z
#
# Youngs Moduli (GPa) = 64.02828 35.02650 20.06109
#
# Poissons Ratio (x) = 0.27498 0.34611
# Poissons Ratio (y) = 0.50267 0.07628
# Poissons Ratio (z) = 1.10467 0.13319
#
# Static dielectric constant tensor:
#      x y z
#    x 1.636740 0.000000 0.000000 
#    y 0.000000 1.614380 0.000000 
#    z 0.000000 0.000000 1.600650 
# 
# From -- ./inp_files/34370.got.cif
#   From: 2010.05.17/outbox.cif.g08.bks.cpg/sg71_18_cif.got.tgz:34370.got - 2010.06.03 16:22:01.
