data_PCOD9520002
_publ_section_title
;
Structure prediction by ZEFSAII (Michael W. Deem and Ramdas Pophale) SiO2 
 PCOD9520002
Probable space group: I M M M
;
_chemical_formula_sum "Si O2"
_cell_formula_units_Z 88
_cell_length_a 31.957077
_cell_length_b 18.137727
_cell_length_c 8.319378
_cell_angle_alpha 90.000000
_cell_angle_beta 90.000000
_cell_angle_gamma 90.000000
_cell_volume 4822.150574
_symmetry_space_group_name_H-M "I M M M"
_symmetry_group_IT_number 71
_symmetry_cell_setting 'orthorhombic'
loop_
_space_group_symop_operation_xyz
x,y,z
-x,-y,z
x,-y,-z
-x,y,-z
-x,-y,-z
x,y,-z
-x,y,z
x,-y,z
1/2+x,1/2+y,1/2+z
1/2-x,1/2-y,1/2+z
1/2+x,1/2-y,1/2-z
1/2-x,1/2+y,1/2-z
1/2-x,1/2-y,1/2-z
1/2+x,1/2+y,1/2-z
1/2-x,1/2+y,1/2+z
1/2+x,1/2-y,1/2+z
loop_
_atom_site_type_symbol
_atom_site_label
_atom_site_fract_x
_atom_site_fract_y
_atom_site_fract_z
Si Si1 0.165770 0.581842 0.188666
Si Si2 0.547323 0.414704 0.306635
Si Si3 0.119633 0.806514 0.683699
Si Si4 0.703637 0.231133 0.805835
Si Si5 0.583757 0.141033 0.175899
Si Si6 0.548741 0.081741 0.500000
O O1 0.183754 0.500000 0.208678
O O2 0.194272 0.650249 0.236161
O O3 0.125272 0.592068 0.300001
O O4 0.153815 0.590374 0.000000
O O5 0.545995 0.414952 0.500000
O O6 0.500000 0.391243 0.251591
O O7 0.553367 0.500000 0.253653
O O8 0.586284 0.362995 0.259067
O O9 0.125625 0.831152 0.500000
O O10 0.166326 0.787313 0.750438
O O11 0.098037 0.725962 0.682214
O O12 0.750000 0.250000 0.750000
O O13 0.700930 0.228903 0.000000
O O14 0.558734 0.123674 0.336031
O O15 0.564701 0.126578 0.000000
O O16 0.500000 0.071853 0.500000
O O17 0.569138 0.000000 0.500000
#
# Coordination Sequence:
#
# PCOD9520002 Si02
#       6
#    16  16  16  16  16   8
#     4  10  19  33  57  85 109 139 184 234 282 338
#     4   9  19  35  55  82 114 148 190 240 292 347
#     4   9  20  36  56  83 110 143 188 233 288 351
#     4  10  21  37  56  81 114 150 189 237 292 351
#     4  10  21  37  56  80 110 144 188 240 285 334
#     4  11  24  38  52  76 109 147 189 229 284 346
#
# _framework density 18.249119
#
# number of rings (size 3 to 8) (size 9 to 14) (size 15 to 20)
#    0.000    2.273    0.909    3.273    1.273    5.818 
#    0.000    4.545    0.000    1.091    0.000    0.000 
#    0.000    0.000    0.000    0.000    0.000    0.000 
#
# Total GULP energy -244985.306219 kJ/mol
# GULP energy per Si atom -5567.847869 kJ/mol
# Density = 1.820758 g / cm^3
# Si number density = 18.249119 Si / 1000 Ang^3
#
#
#
# Elastic Constant Matrix: (Units=GPa)
#
#
# Indices 1 2 3 4 5 6 
#
# 1 128.8969 68.1222 40.6244 0.0000 0.0000 0.0000
# 2 68.1222 91.3917 29.9787 0.0000 0.0000 0.0000
# 3 40.6244 29.9787 91.7119 0.0000 0.0000 0.0000
# 4 0.0000 0.0000 0.0000 18.0330 0.0000 0.0000
# 5 0.0000 0.0000 0.0000 0.0000 2.9425 0.0000
# 6 0.0000 0.0000 0.0000 0.0000 0.0000 16.1460
#
#
#
# Elastic Compliance Matrix: (Units=1/GPa)
#
#
# Indices 1 2 3 4 5 6 
#
# 1 0.013506 -0.009078 -0.003015 0.000000 0.000000 0.000000
# 2 -0.009078 0.018358 -0.001980 0.000000 0.000000 0.000000
# 3 -0.003015 -0.001980 0.012886 0.000000 0.000000 0.000000
# 4 0.000000 0.000000 0.000000 0.055454 0.000000 0.000000
# 5 0.000000 0.000000 0.000000 0.000000 0.339851 0.000000
# 6 0.000000 0.000000 0.000000 0.000000 0.000000 0.061935
#
#
# Mechanical properties :
#
#
# Convention : Reuss Voigt Hill
#
# Bulk Modulus (GPa) = 60.22425 65.49456 62.85940
# Shear Modulus (GPa) = 9.33408 18.97598 14.15503
#
# Velocity S-wave (km/s) = 2.26405 3.22814 2.78808
# Velocity P-wave (km/s) = 6.31723 7.06127 6.69959
#
# Compressibility (1/GPa) = 0.01660461
#
# Stress axis : x y z
#
# Youngs Moduli (GPa) = 74.03892 54.47152 77.60127
#
# Poissons Ratio (x) = 0.49452 0.23398
# Poissons Ratio (y) = 0.67216 0.15362
# Poissons Ratio (z) = 0.22324 0.10783
#
# Static dielectric constant tensor:
#      x y z
#    x 1.644030 0.000000 0.000000 
#    y 0.000000 1.658640 0.000000 
#    z 0.000000 0.000000 1.887750 
# 
# From -- ./inp_files/16706.got.cif
#   From: 2010.05.17/outbox.cif.g08.bks.cpg/sg71_9_cif.got.tgz:16706.got - 2010.06.03 16:22:01.
