data_PCOD9520999
_publ_section_title
;
Structure prediction by ZEFSAII (Michael W. Deem and Ramdas Pophale) SiO2 
 PCOD9520999
Probable space group: I M M M
;
_chemical_formula_sum "Si O2"
_cell_formula_units_Z 104
_cell_length_a 30.130236
_cell_length_b 7.676417
_cell_length_c 22.225511
_cell_angle_alpha 90.000000
_cell_angle_beta 90.000000
_cell_angle_gamma 90.000000
_cell_volume 5140.588576
_symmetry_space_group_name_H-M "I M M M"
_symmetry_group_IT_number 71
_symmetry_cell_setting 'orthorhombic'
loop_
_space_group_symop_operation_xyz
x,y,z
-x,-y,z
x,-y,-z
-x,y,-z
-x,-y,-z
x,y,-z
-x,y,z
x,-y,z
1/2+x,1/2+y,1/2+z
1/2-x,1/2-y,1/2+z
1/2+x,1/2-y,1/2-z
1/2-x,1/2+y,1/2-z
1/2-x,1/2-y,1/2-z
1/2+x,1/2+y,1/2-z
1/2-x,1/2+y,1/2+z
1/2+x,1/2-y,1/2+z
loop_
_atom_site_type_symbol
_atom_site_label
_atom_site_fract_x
_atom_site_fract_y
_atom_site_fract_z
Si Si1 0.949068 0.290222 0.252264
Si Si2 0.551104 0.000000 0.071788
Si Si3 0.450536 0.212342 0.387613
Si Si4 0.193161 0.794248 0.310507
Si Si5 0.356973 0.789993 0.434308
Si Si6 0.706440 0.293262 0.676933
Si Si7 0.605480 0.699047 0.864921
O O1 0.943568 0.500000 0.256598
O O2 0.943267 0.241651 0.182518
O O3 0.915790 0.202449 0.298116
O O4 0.000000 0.249240 0.268601
O O5 0.576079 0.170134 0.096342
O O6 0.500000 0.000000 0.093241
O O7 0.551363 0.000000 0.000000
O O8 0.500000 0.271305 0.406017
O O9 0.407505 0.272031 0.423611
O O10 0.451437 0.000000 0.390413
O O11 0.243367 0.771118 0.332598
O O12 0.190755 0.721620 0.242174
O O13 0.155226 0.728525 0.355059
O O14 0.183850 0.000000 0.306704
O O15 0.340949 0.729562 0.500000
O O16 0.326069 0.744326 0.378063
O O17 0.358489 0.000000 0.435488
O O18 0.709538 0.500000 0.683573
O O19 0.605343 0.500000 0.887770
#
# Coordination Sequence:
#
# PCOD9520999 Si02
#       7
#    16   8  16  16  16  16  16
#     4   9  16  28  49  79 114 147 183 232 287 339
#     4  11  26  46  64  86 120 160 205 253 298 360
#     4   8  15  28  48  76 108 146 193 240 286 333
#     4   9  20  37  58  90 120 141 179 238 297 356
#     4  10  20  33  50  74 108 151 195 237 279 327
#     4  10  20  35  58  85 115 150 188 231 290 355
#     4  11  22  37  62  91 120 154 194 242 300 360
#
# _framework density 20.231145999999999
#
# number of rings (size 3 to 8) (size 9 to 14) (size 15 to 20)
#    0.000    2.385    0.769    2.769    1.077    2.769 
#    0.000    3.077    0.000    2.308    0.000    1.077 
#    0.000    0.000    0.000    0.000    0.000    0.000 
#
# Total GULP energy -290268.797611 kJ/mol
# GULP energy per Si atom -5582.092262 kJ/mol
# Density = 2.018510 g / cm^3
# Si number density = 20.231146 Si / 1000 Ang^3
#
#
#
# Elastic Constant Matrix: (Units=GPa)
#
#
# Indices 1 2 3 4 5 6 
#
# 1 122.9683 22.5666 61.5705 0.0000 0.0000 0.0000
# 2 22.5666 58.7719 10.2900 0.0000 0.0000 0.0000
# 3 61.5705 10.2900 64.5563 0.0000 0.0000 0.0000
# 4 0.0000 0.0000 0.0000 6.4803 0.0000 0.0000
# 5 0.0000 0.0000 0.0000 0.0000 24.0435 0.0000
# 6 0.0000 0.0000 0.0000 0.0000 0.0000 4.0415
#
#
#
# Elastic Compliance Matrix: (Units=1/GPa)
#
#
# Indices 1 2 3 4 5 6 
#
# 1 0.016287 -0.003635 -0.014954 0.000000 0.000000 0.000000
# 2 -0.003635 0.018315 0.000548 0.000000 0.000000 0.000000
# 3 -0.014954 0.000548 0.029666 0.000000 0.000000 0.000000
# 4 0.000000 0.000000 0.000000 0.154313 0.000000 0.000000
# 5 0.000000 0.000000 0.000000 0.000000 0.041591 0.000000
# 6 0.000000 0.000000 0.000000 0.000000 0.000000 0.247434
#
#
# Mechanical properties :
#
#
# Convention : Reuss Voigt Hill
#
# Bulk Modulus (GPa) = 35.48099 48.35008 41.91553
# Shear Modulus (GPa) = 9.04022 17.03769 13.03896
#
# Velocity S-wave (km/s) = 2.11617 2.90513 2.54145
# Velocity P-wave (km/s) = 4.85250 5.93328 5.41990
#
# Compressibility (1/GPa) = 0.02818411
#
# Stress axis : x y z
#
# Youngs Moduli (GPa) = 61.39897 54.60039 33.70918
#
# Poissons Ratio (x) = 0.19850 0.50409
# Poissons Ratio (y) = 0.22321 -0.01847
# Poissons Ratio (z) = 0.91817 -0.02992
#
# Static dielectric constant tensor:
#      x y z
#    x 1.729760 0.000000 0.000000 
#    y 0.000000 1.758380 0.000000 
#    z 0.000000 0.000000 1.706260 
# 
# From -- ./inp_files/56238.got.cif
#   From: 2010.05.17/outbox.cif.g08.bks.cpg/sg71_29_cif.got.tgz:56238.got - 2010.06.03 16:22:01.
