data_PCOD9520366
_publ_section_title
;
Structure prediction by ZEFSAII (Michael W. Deem and Ramdas Pophale) SiO2 
 PCOD9520366
Probable space group: I M M M
;
_chemical_formula_sum "Si O2"
_cell_formula_units_Z 104
_cell_length_a 26.870278
_cell_length_b 21.862739
_cell_length_c 9.614933
_cell_angle_alpha 90.000000
_cell_angle_beta 90.000000
_cell_angle_gamma 90.000000
_cell_volume 5648.368106
_symmetry_space_group_name_H-M "I M M M"
_symmetry_group_IT_number 71
_symmetry_cell_setting 'orthorhombic'
loop_
_space_group_symop_operation_xyz
x,y,z
-x,-y,z
x,-y,-z
-x,y,-z
-x,-y,-z
x,y,-z
-x,y,z
x,-y,z
1/2+x,1/2+y,1/2+z
1/2-x,1/2-y,1/2+z
1/2+x,1/2-y,1/2-z
1/2-x,1/2+y,1/2-z
1/2-x,1/2-y,1/2-z
1/2+x,1/2+y,1/2-z
1/2-x,1/2+y,1/2+z
1/2+x,1/2-y,1/2+z
loop_
_atom_site_type_symbol
_atom_site_label
_atom_site_fract_x
_atom_site_fract_y
_atom_site_fract_z
Si Si1 0.722103 0.303902 0.833044
Si Si2 0.940853 0.500000 0.658396
Si Si3 0.056911 0.276738 0.840235
Si Si4 0.393726 0.674830 0.164343
Si Si5 0.441909 0.572648 0.663224
Si Si6 0.113369 0.401154 0.162483
Si Si7 0.271757 0.069047 0.332194
O O1 0.750000 0.250000 0.750000
O O2 0.662795 0.302932 0.811682
O O3 0.740491 0.371683 0.786950
O O4 0.731971 0.297838 0.000000
O O5 0.922832 0.500000 0.500000
O O6 0.920570 0.441811 0.739921
O O7 0.000000 0.500000 0.658686
O O8 0.069555 0.223717 0.733615
O O9 0.096088 0.331462 0.822389
O O10 0.000000 0.298948 0.822732
O O11 0.061224 0.254279 0.000000
O O12 0.405708 0.611365 0.240470
O O13 0.401324 0.669240 0.000000
O O14 0.433546 0.586255 0.500000
O O15 0.500000 0.587570 0.693690
O O16 0.435870 0.500000 0.682420
O O17 0.170604 0.415094 0.196861
O O18 0.106037 0.417755 0.000000
O O19 0.266500 0.066644 0.500000
O O20 0.259957 0.000000 0.280251
#
# Coordination Sequence:
#
# PCOD9520366 Si02
#       7
#    16   8  16  16  16  16  16
#     4  10  22  39  59  83 112 147 188 235 287 343
#     4  11  23  35  49  75 113 149 175 211 272 331
#     4  10  21  36  56  82 111 148 192 234 276 326
#     4  11  23  36  54  84 117 149 184 230 290 345
#     4   9  19  37  60  84 112 150 193 233 276 333
#     4  10  19  35  59  82 102 135 188 235 268 313
#     4   9  17  33  59  85 106 136 181 230 280 328
#
# _framework density 18.412396999999999
#
# number of rings (size 3 to 8) (size 9 to 14) (size 15 to 20)
#    0.000    2.077    0.769    3.000    0.000    7.692 
#    0.000    3.077    0.000    0.000    0.000    0.000 
#    0.000    0.000    0.000    0.000    0.000    0.000 
#
# Total GULP energy -290159.413826 kJ/mol
# GULP energy per Si atom -5579.988727 kJ/mol
# Density = 1.837049 g / cm^3
# Si number density = 18.412397 Si / 1000 Ang^3
#
#
#
# Elastic Constant Matrix: (Units=GPa)
#
#
# Indices 1 2 3 4 5 6 
#
# 1 39.3097 32.1179 32.9408 0.0000 0.0000 0.0000
# 2 32.1179 95.7041 38.9016 0.0000 0.0000 0.0000
# 3 32.9408 38.9016 62.0396 0.0000 0.0000 0.0000
# 4 0.0000 0.0000 0.0000 6.6608 0.0000 0.0000
# 5 0.0000 0.0000 0.0000 0.0000 14.1117 0.0000
# 6 0.0000 0.0000 0.0000 0.0000 0.0000 38.2734
#
#
#
# Elastic Compliance Matrix: (Units=1/GPa)
#
#
# Indices 1 2 3 4 5 6 
#
# 1 0.050058 -0.008046 -0.021534 0.000000 0.000000 0.000000
# 2 -0.008046 0.015316 -0.005332 0.000000 0.000000 0.000000
# 3 -0.021534 -0.005332 0.030896 0.000000 0.000000 0.000000
# 4 0.000000 0.000000 0.000000 0.150132 0.000000 0.000000
# 5 0.000000 0.000000 0.000000 0.000000 0.070863 0.000000
# 6 0.000000 0.000000 0.000000 0.000000 0.000000 0.026128
#
#
# Mechanical properties :
#
#
# Convention : Reuss Voigt Hill
#
# Bulk Modulus (GPa) = 37.81207 44.99714 41.40461
# Shear Modulus (GPa) = 11.84745 18.01538 14.93141
#
# Velocity S-wave (km/s) = 2.53938 3.13139 2.85080
# Velocity P-wave (km/s) = 5.40173 6.12909 5.77687
#
# Compressibility (1/GPa) = 0.02644658
#
# Stress axis : x y z
#
# Youngs Moduli (GPa) = 19.97684 65.28928 32.36710
#
# Poissons Ratio (x) = 0.52534 0.69698
# Poissons Ratio (y) = 0.16074 0.17257
# Poissons Ratio (z) = 0.43017 0.34811
#
# Static dielectric constant tensor:
#      x y z
#    x 1.634800 0.000000 0.000000 
#    y 0.000000 1.645630 0.000000 
#    z 0.000000 0.000000 1.605910 
# 
# From -- ./inp_files/15051.got.cif
#   From: 2010.05.17/outbox.cif.g08.bks.cpg/sg71_8_cif.got.tgz:15051.got - 2010.06.03 16:22:01.
