data_PCOD9520721
_publ_section_title
;
Structure prediction by ZEFSAII (Michael W. Deem and Ramdas Pophale) SiO2 
 PCOD9520721
Probable space group: I M M M
;
_chemical_formula_sum "Si O2"
_cell_formula_units_Z 104
_cell_length_a 22.290033
_cell_length_b 26.491977
_cell_length_c 7.641748
_cell_angle_alpha 90.000000
_cell_angle_beta 90.000000
_cell_angle_gamma 90.000000
_cell_volume 4512.506004
_symmetry_space_group_name_H-M "I M M M"
_symmetry_group_IT_number 71
_symmetry_cell_setting 'orthorhombic'
loop_
_space_group_symop_operation_xyz
x,y,z
-x,-y,z
x,-y,-z
-x,y,-z
-x,-y,-z
x,y,-z
-x,y,z
x,-y,z
1/2+x,1/2+y,1/2+z
1/2-x,1/2-y,1/2+z
1/2+x,1/2-y,1/2-z
1/2-x,1/2+y,1/2-z
1/2-x,1/2-y,1/2-z
1/2+x,1/2+y,1/2-z
1/2-x,1/2+y,1/2+z
1/2+x,1/2-y,1/2+z
loop_
_atom_site_type_symbol
_atom_site_label
_atom_site_fract_x
_atom_site_fract_y
_atom_site_fract_z
Si Si1 0.848398 0.057211 0.711434
Si Si2 0.564802 0.208619 0.795079
Si Si3 0.432353 0.358257 0.293981
Si Si4 0.381815 0.891082 0.292964
Si Si5 0.250112 0.139187 0.285518
Si Si6 0.165040 0.777844 0.301397
Si Si7 0.068216 0.500000 0.291592
O O1 0.847228 0.056458 0.500000
O O2 0.909076 0.084890 0.769113
O O3 0.794659 0.094217 0.769005
O O4 0.842404 0.000000 0.773845
O O5 0.500000 0.224451 0.719778
O O6 0.571313 0.148599 0.784064
O O7 0.625607 0.233163 0.716809
O O8 0.564531 0.222943 0.000000
O O9 0.429723 0.345863 0.500000
O O10 0.500000 0.351636 0.231227
O O11 0.385037 0.322477 0.197961
O O12 0.382190 0.883111 0.500000
O O13 0.316261 0.875061 0.225658
O O14 0.398056 0.948937 0.260848
O O15 0.249517 0.140769 0.500000
O O16 0.222801 0.193028 0.224836
O O17 0.180436 0.763391 0.500000
O O18 0.064733 0.500000 0.500000
O O19 0.000000 0.500000 0.220769
#
# Coordination Sequence:
#
# PCOD9520721 Si02
#       7
#    16  16  16  16  16  16   8
#     4   9  18  33  54  74  97 137 185 231 276 331
#     4  10  21  37  58  85 117 152 191 236 281 327
#     4  10  20  32  47  72 108 144 178 227 289 337
#     4  11  23  38  61  90 118 150 186 231 290 350
#     4   8  17  34  56  83 112 142 182 232 282 330
#     4   9  18  36  60  81 106 148 195 232 270 327
#     4  11  25  45  65  85 115 153 194 241 286 331
#
# _framework density 23.047062
#
# number of rings (size 3 to 8) (size 9 to 14) (size 15 to 20)
#    0.000    2.385    0.000    3.000    1.077    6.462 
#    0.000    7.692    0.000    0.000    0.000    0.000 
#    0.000    0.000    0.000    0.000    0.000    0.000 
#
# Total GULP energy -290451.617998 kJ/mol
# GULP energy per Si atom -5585.608038 kJ/mol
# Density = 2.299461 g / cm^3
# Si number density = 23.047062 Si / 1000 Ang^3
#
#
#
# Elastic Constant Matrix: (Units=GPa)
#
#
# Indices 1 2 3 4 5 6 
#
# 1 139.1572 47.2505 7.2553 0.0000 0.0000 0.0000
# 2 47.2505 146.3764 0.0295 0.0000 0.0000 0.0000
# 3 7.2553 0.0295 61.9256 0.0000 0.0000 0.0000
# 4 0.0000 0.0000 0.0000 -36.9373 0.0000 0.0000
# 5 0.0000 0.0000 0.0000 0.0000 12.2389 0.0000
# 6 0.0000 0.0000 0.0000 0.0000 0.0000 28.9074
#
#
#
# Elastic Compliance Matrix: (Units=1/GPa)
#
#
# Indices 1 2 3 4 5 6 
#
# 1 0.008126 -0.002623 -0.000951 0.000000 0.000000 0.000000
# 2 -0.002623 0.007678 0.000304 0.000000 0.000000 0.000000
# 3 -0.000951 0.000304 0.016260 0.000000 0.000000 0.000000
# 4 0.000000 0.000000 0.000000 -0.027073 0.000000 0.000000
# 5 0.000000 0.000000 0.000000 0.000000 0.081706 0.000000
# 6 0.000000 0.000000 0.000000 0.000000 0.000000 0.034593
#
#
# Mechanical properties :
#
#
# Convention : Reuss Voigt Hill
#
# Bulk Modulus (GPa) = 39.17884 50.72552 44.95218
# Shear Modulus (GPa) = 36.67315 20.37005 28.52160
#
# Velocity S-wave (km/s) = 3.99335 2.97618 3.52168
# Velocity P-wave (km/s) = 6.18861 5.81958 6.00693
#
# Compressibility (1/GPa) = 0.02552398
#
# Stress axis : x y z
#
# Youngs Moduli (GPa) = 123.05682 130.23633 61.50183
#
# Poissons Ratio (x) = 0.34161 0.05848
# Poissons Ratio (y) = 0.32278 -0.01868
# Poissons Ratio (z) = 0.11701 -0.03955
#
# Static dielectric constant tensor:
#      x y z
#    x 1.895180 0.000000 0.000000 
#    y 0.000000 1.887650 0.000000 
#    z 0.000000 0.000000 1.877270 
# 
# From -- ./inp_files/11045.got.cif
#   From: 2010.05.17/outbox.cif.g08.bks.cpg/sg71_6_cif.got.tgz:11045.got - 2010.06.03 16:22:01.
