data_PCOD9520075
_publ_section_title
;
Structure prediction by ZEFSAII (Michael W. Deem and Ramdas Pophale) SiO2 
 PCOD9520075
Probable space group: I M M M
;
_chemical_formula_sum "Si O2"
_cell_formula_units_Z 104
_cell_length_a 7.655665
_cell_length_b 22.827776
_cell_length_c 28.066921
_cell_angle_alpha 90.000000
_cell_angle_beta 90.000000
_cell_angle_gamma 90.000000
_cell_volume 4905.025796
_symmetry_space_group_name_H-M "I M M M"
_symmetry_group_IT_number 71
_symmetry_cell_setting 'orthorhombic'
loop_
_space_group_symop_operation_xyz
x,y,z
-x,-y,z
x,-y,-z
-x,y,-z
-x,-y,-z
x,y,-z
-x,y,z
x,-y,z
1/2+x,1/2+y,1/2+z
1/2-x,1/2-y,1/2+z
1/2+x,1/2-y,1/2-z
1/2-x,1/2+y,1/2-z
1/2-x,1/2-y,1/2-z
1/2+x,1/2+y,1/2-z
1/2-x,1/2+y,1/2+z
1/2+x,1/2-y,1/2+z
loop_
_atom_site_type_symbol
_atom_site_label
_atom_site_fract_x
_atom_site_fract_y
_atom_site_fract_z
Si Si1 0.701020 0.905543 0.947187
Si Si2 0.800975 0.223971 0.943149
Si Si3 0.214180 0.562640 0.346544
Si Si4 0.288133 0.180970 0.795893
Si Si5 0.706692 0.433506 0.000000
Si Si6 0.710922 0.849567 0.589014
Si Si7 0.793170 0.310744 0.187682
O O1 0.500000 0.924623 0.950651
O O2 0.703074 0.836435 0.934371
O O3 0.778386 0.935600 0.901035
O O4 0.780257 0.913070 0.000000
O O5 0.723923 0.285336 0.926593
O O6 0.000000 0.217625 0.924962
O O7 0.810698 0.229141 0.000000
O O8 0.262604 0.500000 0.324564
O O9 0.271927 0.621421 0.320535
O O10 0.000000 0.564950 0.347495
O O11 0.500000 0.181786 0.795549
O O12 0.232564 0.241175 0.821566
O O13 0.222452 0.180991 0.741124
O O14 0.749790 0.397232 0.048316
O O15 0.781128 0.500000 0.000000
O O16 0.500000 0.438612 0.000000
O O17 0.500000 0.846635 0.589733
O O18 0.771509 0.851658 0.644289
O O19 0.000000 0.321362 0.190796
#
# Coordination Sequence:
#
# PCOD9520075 Si02
#       7
#    16  16  16  16   8  16  16
#     4   9  17  27  41  65  93 121 161 205 240 280
#     4   9  16  27  44  67  94 122 150 185 234 286
#     4   9  17  29  45  64  91 129 166 202 244 287
#     4   9  17  31  50  75 105 135 169 209 258 312
#     4  11  25  41  55  75 105 139 174 213 262 323
#     4  10  19  34  54  76 101 132 171 208 251 309
#     4   9  18  31  52  80 105 129 164 213 263 310
#
# _framework density 21.202742000000001
#
# number of rings (size 3 to 8) (size 9 to 14) (size 15 to 20)
#    0.000    2.692    0.769    1.154    0.000    2.154 
#    0.000    2.308    0.000    4.615    0.000    2.154 
#    0.000    0.000    0.000    0.000    0.000    0.000 
#
# Total GULP energy -289799.695068 kJ/mol
# GULP energy per Si atom -5573.071059 kJ/mol
# Density = 2.115448 g / cm^3
# Si number density = 21.202742 Si / 1000 Ang^3
#
#
#
# Elastic Constant Matrix: (Units=GPa)
#
#
# Indices 1 2 3 4 5 6 
#
# 1 40.9783 -8.8571 4.7910 0.0000 0.0000 0.0000
# 2 -8.8571 114.0971 78.9843 0.0000 0.0000 0.0000
# 3 4.7910 78.9843 125.5457 0.0000 0.0000 0.0000
# 4 0.0000 0.0000 0.0000 17.1824 0.0000 0.0000
# 5 0.0000 0.0000 0.0000 0.0000 7.9837 0.0000
# 6 0.0000 0.0000 0.0000 0.0000 0.0000 27.4287
#
#
#
# Elastic Compliance Matrix: (Units=1/GPa)
#
#
# Indices 1 2 3 4 5 6 
#
# 1 0.025902 0.004774 -0.003992 0.000000 0.000000 0.000000
# 2 0.004774 0.016407 -0.010504 0.000000 0.000000 0.000000
# 3 -0.003992 -0.010504 0.014726 0.000000 0.000000 0.000000
# 4 0.000000 0.000000 0.000000 0.058199 0.000000 0.000000
# 5 0.000000 0.000000 0.000000 0.000000 0.125255 0.000000
# 6 0.000000 0.000000 0.000000 0.000000 0.000000 0.036458
#
#
# Mechanical properties :
#
#
# Convention : Reuss Voigt Hill
#
# Bulk Modulus (GPa) = 26.60238 47.82860 37.21549
# Shear Modulus (GPa) = 16.18540 24.23249 20.20895
#
# Velocity S-wave (km/s) = 2.76590 3.38434 3.09063
# Velocity P-wave (km/s) = 4.77223 6.15454 5.50693
#
# Compressibility (1/GPa) = 0.03759062
#
# Stress axis : x y z
#
# Youngs Moduli (GPa) = 38.60737 60.95132 67.90740
#
# Poissons Ratio (x) = -0.29099 0.27109
# Poissons Ratio (y) = -0.18432 0.71330
# Poissons Ratio (z) = 0.15412 0.64023
#
# Static dielectric constant tensor:
#      x y z
#    x 1.797820 0.000000 0.000000 
#    y 0.000000 1.765500 0.000000 
#    z 0.000000 0.000000 1.819660 
# 
# From -- ./inp_files/63531.got.cif
#   From: 2010.05.17/outbox.cif.g08.bks.cpg/sg71_32_cif.got.tgz:63531.got - 2010.06.03 16:22:01.
