data_PCOD9520871
_publ_section_title
;
Structure prediction by ZEFSAII (Michael W. Deem and Ramdas Pophale) SiO2 
 PCOD9520871
Probable space group: I M M M
;
_chemical_formula_sum "Si O2"
_cell_formula_units_Z 88
_cell_length_a 7.511157
_cell_length_b 19.341521
_cell_length_c 29.364568
_cell_angle_alpha 90.000000
_cell_angle_beta 90.000000
_cell_angle_gamma 90.000000
_cell_volume 4266.002243
_symmetry_space_group_name_H-M "I M M M"
_symmetry_group_IT_number 71
_symmetry_cell_setting 'orthorhombic'
loop_
_space_group_symop_operation_xyz
x,y,z
-x,-y,z
x,-y,-z
-x,y,-z
-x,-y,-z
x,y,-z
-x,y,z
x,-y,z
1/2+x,1/2+y,1/2+z
1/2-x,1/2-y,1/2+z
1/2+x,1/2-y,1/2-z
1/2-x,1/2+y,1/2-z
1/2-x,1/2-y,1/2-z
1/2+x,1/2+y,1/2-z
1/2-x,1/2+y,1/2+z
1/2+x,1/2-y,1/2+z
loop_
_atom_site_type_symbol
_atom_site_label
_atom_site_fract_x
_atom_site_fract_y
_atom_site_fract_z
Si Si1 0.793454 0.670091 0.587356
Si Si2 0.781368 0.580236 0.328362
Si Si3 0.214275 0.079173 0.000000
Si Si4 0.293502 0.915959 0.728428
Si Si5 0.281362 0.080242 0.629241
Si Si6 0.707105 0.819237 0.551241
O O1 0.720572 0.630975 0.631740
O O2 0.777912 0.618375 0.544862
O O3 0.712400 0.742503 0.571997
O O4 0.000000 0.684606 0.596260
O O5 0.729477 0.500000 0.336515
O O6 0.718945 0.602685 0.277932
O O7 0.000000 0.580102 0.328024
O O8 0.000000 0.081156 0.000000
O O9 0.273361 0.000000 0.000000
O O10 0.500000 0.893888 0.728925
O O11 0.218599 0.894942 0.679350
O O12 0.291733 0.000000 0.727785
O O13 0.500000 0.082240 0.630734
O O14 0.216709 0.127476 0.587989
O O15 0.232296 0.000000 0.623058
O O16 0.783979 0.819406 0.500000
O O17 0.500000 0.838444 0.546858
#
# Coordination Sequence:
#
# PCOD9520871 Si02
#       6
#    16  16   8  16  16  16
#     4  11  21  33  50  71  97 131 169 202 234 286
#     4   8  14  25  43  68  95 122 156 201 245 280
#     4  11  23  37  53  73  98 127 162 205 249 286
#     4   7  10  20  40  66  95 121 149 195 249 290
#     4   8  14  26  47  73  95 121 162 205 245 295
#     4  10  20  33  48  67  98 134 163 201 253 296
#
# _framework density 20.628212999999999
#
# number of rings (size 3 to 8) (size 9 to 14) (size 15 to 20)
#    0.000    3.000    0.909    3.545    0.000    1.818 
#    0.000    2.727    0.000    0.545    0.000    2.545 
#    0.000    8.727    0.000    0.000    0.000    0.000 
#
# Total GULP energy -245284.843924 kJ/mol
# GULP energy per Si atom -5574.655544 kJ/mol
# Density = 2.058126 g / cm^3
# Si number density = 20.628213 Si / 1000 Ang^3
#
#
#
# Elastic Constant Matrix: (Units=GPa)
#
#
# Indices 1 2 3 4 5 6 
#
# 1 52.3586 -9.2658 4.2102 0.0000 0.0000 0.0000
# 2 -9.2658 80.2670 98.1343 0.0000 0.0000 0.0000
# 3 4.2102 98.1343 246.5781 0.0000 0.0000 0.0000
# 4 0.0000 0.0000 0.0000 83.0461 0.0000 0.0000
# 5 0.0000 0.0000 0.0000 0.0000 -8.8920 0.0000
# 6 0.0000 0.0000 0.0000 0.0000 0.0000 -69.7543
#
#
#
# Elastic Compliance Matrix: (Units=1/GPa)
#
#
# Indices 1 2 3 4 5 6 
#
# 1 0.020250 0.005376 -0.002485 0.000000 0.000000 0.000000
# 2 0.005376 0.025693 -0.010317 0.000000 0.000000 0.000000
# 3 -0.002485 -0.010317 0.008204 0.000000 0.000000 0.000000
# 4 0.000000 0.000000 0.000000 0.012042 0.000000 0.000000
# 5 0.000000 0.000000 0.000000 0.000000 -0.112461 0.000000
# 6 0.000000 0.000000 0.000000 0.000000 0.000000 -0.014336
#
#
# Mechanical properties :
#
#
# Convention : Reuss Voigt Hill
#
# Bulk Modulus (GPa) = 25.44876 62.81790 44.13333
# Shear Modulus (GPa) = -153.10457 19.95496 -66.57481
#
# Velocity S-wave (km/s) = -8.62450 3.11362 -5.68715
# Velocity P-wave (km/s) = 9.31732 6.59126 4.65660
#
# Compressibility (1/GPa) = 0.03929464
#
# Stress axis : x y z
#
# Youngs Moduli (GPa) = 49.38184 38.92158 121.89195
#
# Poissons Ratio (x) = -0.20926 0.30296
# Poissons Ratio (y) = -0.26549 1.25757
# Poissons Ratio (z) = 0.12274 0.40156
#
# Static dielectric constant tensor:
#      x y z
#    x 1.847520 0.000000 0.000000 
#    y 0.000000 1.683920 0.000000 
#    z 0.000000 0.000000 1.771050 
# 
# From -- ./inp_files/68021.got.cif
#   From: 2010.05.17/outbox.cif.g08.bks.cpg/sg71_35_cif.got.tgz:68021.got - 2010.06.03 16:22:01.
