data_PCOD9520573
_publ_section_title
;
Structure prediction by ZEFSAII (Michael W. Deem and Ramdas Pophale) SiO2 
 PCOD9520573
Probable space group: I M M M
;
_chemical_formula_sum "Si O2"
_cell_formula_units_Z 104
_cell_length_a 25.072113
_cell_length_b 13.776009
_cell_length_c 19.197369
_cell_angle_alpha 90.000000
_cell_angle_beta 90.000000
_cell_angle_gamma 90.000000
_cell_volume 6630.649433
_symmetry_space_group_name_H-M "I M M M"
_symmetry_group_IT_number 71
_symmetry_cell_setting 'orthorhombic'
loop_
_space_group_symop_operation_xyz
x,y,z
-x,-y,z
x,-y,-z
-x,y,-z
-x,-y,-z
x,y,-z
-x,y,z
x,-y,z
1/2+x,1/2+y,1/2+z
1/2-x,1/2-y,1/2+z
1/2+x,1/2-y,1/2-z
1/2-x,1/2+y,1/2-z
1/2-x,1/2-y,1/2-z
1/2+x,1/2+y,1/2-z
1/2-x,1/2+y,1/2+z
1/2+x,1/2-y,1/2+z
loop_
_atom_site_type_symbol
_atom_site_label
_atom_site_fract_x
_atom_site_fract_y
_atom_site_fract_z
Si Si1 0.778978 0.116379 0.000000
Si Si2 0.437355 0.107639 0.842656
Si Si3 0.329980 0.386418 0.646684
Si Si4 0.192735 0.110971 0.367749
Si Si5 0.062547 0.320155 0.500000
Si Si6 0.226446 0.391486 0.745397
Si Si7 0.181207 0.757438 0.500000
Si Si8 0.867099 0.236594 0.735262
O O1 0.812924 0.142374 0.931127
O O2 0.720106 0.164034 0.000000
O O3 0.772369 0.000000 0.000000
O O4 0.500000 0.107588 0.828146
O O5 0.432012 0.124020 0.926232
O O6 0.411620 0.193907 0.797668
O O7 0.415736 0.000000 0.826118
O O8 0.347698 0.500000 0.647357
O O9 0.274773 0.383359 0.690652
O O10 0.369295 0.314275 0.688807
O O11 0.245713 0.115673 0.320597
O O12 0.195965 0.181560 0.432253
O O13 0.145588 0.149401 0.317954
O O14 0.183910 0.000000 0.388526
O O15 0.117039 0.256948 0.500000
O O16 0.000000 0.282180 0.500000
O O17 0.203650 0.500000 0.737971
O O18 0.184305 0.307375 0.735272
#
# Coordination Sequence:
#
# PCOD9520573 Si02
#       8
#     8  16  16  16   8  16   8  16
#     4  10  20  31  47  77 106 126 157 197 242 295
#     4  10  21  35  51  73  99 125 159 206 251 283
#     4   9  18  30  45  68 100 127 152 194 240 287
#     4  10  20  31  44  65  94 127 165 203 239 282
#     4  10  21  36  50  66  94 129 166 207 247 275
#     4   9  17  28  43  67  95 123 156 197 241 286
#     4  12  19  32  48  69  90 136 171 202 237 283
#     4  11  17  30  50  68  90 127 164 196 240 294
#
# _framework density 15.684739
#
# number of rings (size 3 to 8) (size 9 to 14) (size 15 to 20)
#    0.000    2.000    1.538    6.000    0.000    1.538 
#    0.000    0.000    0.000    3.692    0.000    0.538 
#    0.000    3.077    0.000    0.000    0.000    0.000 
#
# Total GULP energy -289548.431584 kJ/mol
# GULP energy per Si atom -5568.239069 kJ/mol
# Density = 1.564904 g / cm^3
# Si number density = 15.684739 Si / 1000 Ang^3
#
#
#
# Elastic Constant Matrix: (Units=GPa)
#
#
# Indices 1 2 3 4 5 6 
#
# 1 48.0170 28.0792 28.6092 0.0000 0.0000 0.0000
# 2 28.0792 73.6227 26.6244 0.0000 0.0000 0.0000
# 3 28.6092 26.6244 101.0524 0.0000 0.0000 0.0000
# 4 0.0000 0.0000 0.0000 -110.9838 0.0000 0.0000
# 5 0.0000 0.0000 0.0000 0.0000 12.9369 0.0000
# 6 0.0000 0.0000 0.0000 0.0000 0.0000 20.8697
#
#
#
# Elastic Compliance Matrix: (Units=1/GPa)
#
#
# Indices 1 2 3 4 5 6 
#
# 1 0.029777 -0.009183 -0.006011 0.000000 0.000000 0.000000
# 2 -0.009183 0.017845 -0.002102 0.000000 0.000000 0.000000
# 3 -0.006011 -0.002102 0.012151 0.000000 0.000000 0.000000
# 4 0.000000 0.000000 0.000000 -0.009010 0.000000 0.000000
# 5 0.000000 0.000000 0.000000 0.000000 0.077298 0.000000
# 6 0.000000 0.000000 0.000000 0.000000 0.000000 0.047916
#
#
# Mechanical properties :
#
#
# Convention : Reuss Voigt Hill
#
# Bulk Modulus (GPa) = 39.71042 43.25752 41.48397
# Shear Modulus (GPa) = 22.83478 -6.14348 8.34565
#
# Velocity S-wave (km/s) = 3.81971 -1.98125 2.30920
# Velocity P-wave (km/s) = 6.69526 4.73344 5.79793
#
# Compressibility (1/GPa) = 0.02518230
#
# Stress axis : x y z
#
# Youngs Moduli (GPa) = 33.58250 56.03722 82.29524
#
# Poissons Ratio (x) = 0.51460 0.49466
# Poissons Ratio (y) = 0.30839 0.17297
# Poissons Ratio (z) = 0.20186 0.11778
#
# Static dielectric constant tensor:
#      x y z
#    x 1.510490 0.000000 0.000000 
#    y 0.000000 1.557990 0.000000 
#    z 0.000000 0.000000 1.549460 
# 
# From -- ./inp_files/48266.got.cif
#   From: 2010.05.17/outbox.cif.g08.bks.cpg/sg71_25_cif.got.tgz:48266.got - 2010.06.03 16:22:01.
