data_PCOD9520010
_publ_section_title
;
Structure prediction by ZEFSAII (Michael W. Deem and Ramdas Pophale) SiO2 
 PCOD9520010
Probable space group: I M M M
;
_chemical_formula_sum "Si O2"
_cell_formula_units_Z 80
_cell_length_a 20.405156
_cell_length_b 24.014561
_cell_length_c 8.282876
_cell_angle_alpha 90.000000
_cell_angle_beta 90.000000
_cell_angle_gamma 90.000000
_cell_volume 4058.782050
_symmetry_space_group_name_H-M "I M M M"
_symmetry_group_IT_number 71
_symmetry_cell_setting 'orthorhombic'
loop_
_space_group_symop_operation_xyz
x,y,z
-x,-y,z
x,-y,-z
-x,y,-z
-x,-y,-z
x,y,-z
-x,y,z
x,-y,z
1/2+x,1/2+y,1/2+z
1/2-x,1/2-y,1/2+z
1/2+x,1/2-y,1/2-z
1/2-x,1/2+y,1/2-z
1/2-x,1/2-y,1/2-z
1/2+x,1/2+y,1/2-z
1/2-x,1/2+y,1/2+z
1/2+x,1/2-y,1/2+z
loop_
_atom_site_type_symbol
_atom_site_label
_atom_site_fract_x
_atom_site_fract_y
_atom_site_fract_z
Si Si1 0.568318 0.433977 0.189136
Si Si2 0.194765 0.878259 0.304761
Si Si3 0.075569 0.339509 0.306733
Si Si4 0.324788 0.743176 0.308080
Si Si5 0.830425 0.434830 0.195358
O O1 0.500000 0.411845 0.261706
O O2 0.564736 0.500000 0.189958
O O3 0.638497 0.419153 0.256372
O O4 0.569146 0.416322 0.000000
O O5 0.200207 0.877610 0.500000
O O6 0.164941 0.819426 0.251102
O O7 0.265713 0.900201 0.247872
O O8 0.074593 0.340397 0.500000
O O9 0.123968 0.288970 0.255480
O O10 0.107790 0.397411 0.247191
O O11 0.000000 0.332569 0.249597
O O12 0.325950 0.747016 0.500000
O O13 0.250000 0.750000 0.250000
O O14 0.830620 0.500000 0.248511
O O15 0.828610 0.435953 0.000000
#
# Coordination Sequence:
#
# PCOD9520010 Si02
#       5
#    16  16  16  16  16
#     4   8  14  26  47  78 116 155 194 236 280 329
#     4  10  19  33  57  88 121 157 200 248 293 351
#     4  11  25  44  65  90 121 159 205 257 311 366
#     4  12  24  40  63  89 119 156 197 245 301 363
#     4  10  21  37  60  90 123 163 208 253 303 363
#
# _framework density 19.710346000000001
#
# number of rings (size 3 to 8) (size 9 to 14) (size 15 to 20)
#    0.000    1.800    2.000    3.600    0.000    5.600 
#    0.000    4.000    0.000    1.800    0.000    1.400 
#    0.000    0.000    0.000    0.000    0.000    0.000 
#
# Total GULP energy -222743.015143 kJ/mol
# GULP energy per Si atom -5568.575379 kJ/mol
# Density = 1.966548 g / cm^3
# Si number density = 19.710346 Si / 1000 Ang^3
#
#
#
# Elastic Constant Matrix: (Units=GPa)
#
#
# Indices 1 2 3 4 5 6 
#
# 1 164.0361 69.2039 25.7789 0.0000 0.0000 0.0000
# 2 69.2039 125.6988 20.6920 0.0000 0.0000 0.0000
# 3 25.7789 20.6920 36.2776 0.0000 0.0000 0.0000
# 4 0.0000 0.0000 0.0000 23.7459 0.0000 0.0000
# 5 0.0000 0.0000 0.0000 0.0000 19.2023 0.0000
# 6 0.0000 0.0000 0.0000 0.0000 0.0000 32.3367
#
#
#
# Elastic Compliance Matrix: (Units=1/GPa)
#
#
# Indices 1 2 3 4 5 6 
#
# 1 0.008358 -0.004000 -0.003658 0.000000 0.000000 0.000000
# 2 -0.004000 0.010694 -0.003257 0.000000 0.000000 0.000000
# 3 -0.003658 -0.003257 0.032023 0.000000 0.000000 0.000000
# 4 0.000000 0.000000 0.000000 0.042113 0.000000 0.000000
# 5 0.000000 0.000000 0.000000 0.000000 0.052077 0.000000
# 6 0.000000 0.000000 0.000000 0.000000 0.000000 0.030925
#
#
# Mechanical properties :
#
#
# Convention : Reuss Voigt Hill
#
# Bulk Modulus (GPa) = 34.19451 61.92912 48.06181
# Shear Modulus (GPa) = 24.06533 29.07949 26.57241
#
# Velocity S-wave (km/s) = 3.49800 3.84518 3.67569
# Velocity P-wave (km/s) = 5.80524 7.15554 6.51546
#
# Compressibility (1/GPa) = 0.02924446
#
# Stress axis : x y z
#
# Youngs Moduli (GPa) = 119.63894 93.51278 31.22784
#
# Poissons Ratio (x) = 0.37401 0.11424
# Poissons Ratio (y) = 0.47851 0.10172
# Poissons Ratio (z) = 0.43767 0.30461
#
# Static dielectric constant tensor:
#      x y z
#    x 1.763050 0.000000 0.000000 
#    y 0.000000 3.931430 0.000000 
#    z 0.000000 0.000000 1.749460 
# 
# From -- ./inp_files/8370.got.cif
#   From: 2010.05.17/outbox.cif.g08.bks.cpg/sg71_5_cif.got.tgz:8370.got - 2010.06.03 16:22:01.
