data_PCOD9520848
_publ_section_title
;
Structure prediction by ZEFSAII (Michael W. Deem and Ramdas Pophale) SiO2 
 PCOD9520848
Probable space group: I M M M
;
_chemical_formula_sum "Si O2"
_cell_formula_units_Z 62
_cell_length_a 11.916365
_cell_length_b 28.160576
_cell_length_c 10.138362
_cell_angle_alpha 90.000000
_cell_angle_beta 90.000000
_cell_angle_gamma 90.000000
_cell_volume 3402.147394
_symmetry_space_group_name_H-M "I M M M"
_symmetry_group_IT_number 71
_symmetry_cell_setting 'orthorhombic'
loop_
_space_group_symop_operation_xyz
x,y,z
-x,-y,z
x,-y,-z
-x,y,-z
-x,-y,-z
x,y,-z
-x,y,z
x,-y,z
1/2+x,1/2+y,1/2+z
1/2-x,1/2-y,1/2+z
1/2+x,1/2-y,1/2-z
1/2-x,1/2+y,1/2-z
1/2-x,1/2-y,1/2-z
1/2+x,1/2+y,1/2-z
1/2-x,1/2+y,1/2+z
1/2+x,1/2-y,1/2+z
loop_
_atom_site_type_symbol
_atom_site_label
_atom_site_fract_x
_atom_site_fract_y
_atom_site_fract_z
Si Si1 0.500000 0.500000 0.000000
Si Si2 0.500000 0.579046 0.229845
Si Si3 0.500000 0.653594 0.000000
Si Si4 0.630887 0.204620 0.000000
Si Si5 0.631398 0.856393 0.734801
Si Si6 0.243772 0.802325 0.500000
Si Si7 0.239147 0.944012 0.844180
O O1 0.500000 0.540209 0.115237
O O2 0.388705 0.571664 0.315905
O O3 0.500000 0.626005 0.140640
O O4 0.616388 0.680480 0.000000
O O5 0.642914 0.172008 0.128391
O O6 0.725386 0.245624 0.000000
O O7 0.500000 0.222151 0.000000
O O8 0.500000 0.860866 0.702271
O O9 0.693824 0.825141 0.625113
O O10 0.685189 0.908333 0.758137
O O11 0.251676 0.000000 0.809843
O O12 0.264879 0.939007 0.000000
#
# Coordination Sequence:
#
# PCOD9520848 Si02
#       7
#     2   8   4   8  16   8  16
#     4  10  20  32  58  84 122 164 200 246 310 370
#     4  11  20  37  57  93 124 160 205 255 310 356
#     4  11  22  33  64  92 118 158 197 250 305 376
#     4  10  22  42  68  91 118 160 209 253 305 367
#     4  11  24  42  63  91 127 163 204 251 306 370
#     4  12  22  42  66  93 123 157 204 255 314 370
#     4  11  22  38  63  89 122 164 207 256 305 361
#
# _framework density 18.223783999999998
#
# number of rings (size 3 to 8) (size 9 to 14) (size 15 to 20)
#    0.000    1.032    5.806    1.548    0.000    1.548 
#    0.000    1.290    2.839    1.548    0.000    0.000 
#    0.000    0.000    0.000    0.000    0.000    0.000 
#
# Total GULP energy -172686.315279 kJ/mol
# GULP energy per Si atom -5570.526299 kJ/mol
# Density = 1.818231 g / cm^3
# Si number density = 18.223784 Si / 1000 Ang^3
#
#
#
# Elastic Constant Matrix: (Units=GPa)
#
#
# Indices 1 2 3 4 5 6 
#
# 1 121.0740 53.9762 25.8521 0.0000 -0.0002 0.0000
# 2 53.9762 97.9370 18.7369 0.0000 -0.0001 0.0000
# 3 25.8521 18.7369 77.1921 0.0003 -0.0005 0.0003
# 4 0.0000 0.0000 0.0003 16.8677 -0.0002 0.0000
# 5 -0.0002 -0.0001 -0.0005 -0.0002 26.1151 0.0000
# 6 0.0000 0.0000 0.0003 0.0000 0.0000 28.1517
#
#
#
# Elastic Compliance Matrix: (Units=1/GPa)
#
#
# Indices 1 2 3 4 5 6 
#
# 1 0.011357 -0.005801 -0.002395 0.000000 0.000000 0.000000
# 2 -0.005801 0.013671 -0.001376 0.000000 0.000000 0.000000
# 3 -0.002395 -0.001376 0.014091 0.000000 0.000000 0.000000
# 4 0.000000 0.000000 0.000000 0.059285 0.000000 0.000000
# 5 0.000000 0.000000 0.000000 0.000000 0.038292 0.000000
# 6 0.000000 0.000000 0.000000 0.000000 0.000000 0.035522
#
#
# Mechanical properties :
#
#
# Convention : Reuss Voigt Hill
#
# Bulk Modulus (GPa) = 50.06307 54.81483 52.43895
# Shear Modulus (GPa) = 25.25000 27.40276 26.32638
#
# Velocity S-wave (km/s) = 3.72634 3.88194 3.80493
# Velocity P-wave (km/s) = 6.78565 7.08778 6.93836
#
# Compressibility (1/GPa) = 0.01997480
#
# Stress axis : x y z
#
# Youngs Moduli (GPa) = 88.05130 73.14819 70.96807
#
# Poissons Ratio (x) = 0.42433 0.17000
# Poissons Ratio (y) = 0.51078 0.09762
# Poissons Ratio (z) = 0.21092 0.10062
#
# Static dielectric constant tensor:
#      x y z
#    x 1.609620 0.000000 0.000000 
#    y 0.000000 1.638480 0.000000 
#    z 0.000000 0.000000 1.602090 
# 
# From -- ./inp_files/3884.got.cif
#   From: 2010.05.17/outbox.cif.g08.bks.cpg/sg71_2_cif.got.tgz:3884.got - 2010.06.03 16:22:01.
