data_PCOD9520228
_publ_section_title
;
Structure prediction by ZEFSAII (Michael W. Deem and Ramdas Pophale) SiO2 
 PCOD9520228
Probable space group: I M M M
;
_chemical_formula_sum "Si O2"
_cell_formula_units_Z 116
_cell_length_a 18.499644
_cell_length_b 12.778731
_cell_length_c 25.275214
_cell_angle_alpha 90.000000
_cell_angle_beta 90.000000
_cell_angle_gamma 90.000000
_cell_volume 5975.110490
_symmetry_space_group_name_H-M "I M M M"
_symmetry_group_IT_number 71
_symmetry_cell_setting 'orthorhombic'
loop_
_space_group_symop_operation_xyz
x,y,z
-x,-y,z
x,-y,-z
-x,y,-z
-x,-y,-z
x,y,-z
-x,y,z
x,-y,z
1/2+x,1/2+y,1/2+z
1/2-x,1/2-y,1/2+z
1/2+x,1/2-y,1/2-z
1/2-x,1/2+y,1/2-z
1/2-x,1/2-y,1/2-z
1/2+x,1/2+y,1/2-z
1/2-x,1/2+y,1/2+z
1/2+x,1/2-y,1/2+z
loop_
_atom_site_type_symbol
_atom_site_label
_atom_site_fract_x
_atom_site_fract_y
_atom_site_fract_z
Si Si1 0.217635 0.122015 0.657234
Si Si2 0.920389 0.376019 0.596045
Si Si3 0.622292 0.347734 0.560336
Si Si4 0.128370 0.619008 0.793904
Si Si5 0.273584 0.218217 0.060293
Si Si6 0.416136 0.114131 0.584927
Si Si7 0.000000 0.000000 0.900439
Si Si8 0.580707 0.265163 0.200449
O O1 0.287100 0.140098 0.694563
O O2 0.226756 0.191652 0.604638
O O3 0.144347 0.154540 0.686844
O O4 0.217129 0.000000 0.643460
O O5 0.915960 0.500000 0.602431
O O6 0.851523 0.335949 0.564176
O O7 0.917111 0.319239 0.652863
O O8 0.000000 0.350930 0.572927
O O9 0.606519 0.380764 0.500000
O O10 0.707273 0.361370 0.572322
O O11 0.614486 0.221985 0.563214
O O12 0.564286 0.408517 0.595492
O O13 0.120136 0.500000 0.773192
O O14 0.091775 0.621433 0.851571
O O15 0.096395 0.703081 0.754217
O O16 0.262609 0.255346 0.000000
O O17 0.500000 0.112364 0.570267
O O18 0.384269 0.000000 0.569569
O O19 0.500000 0.311431 0.201729
#
# Coordination Sequence:
#
# PCOD9520228 Si02
#       8
#    16  16  16  16  16  16   4  16
#     4  10  21  38  59  84 116 153 190 236 293 345
#     4   9  19  36  57  84 116 145 181 235 298 354
#     4  11  22  37  56  78 110 153 203 245 290 354
#     4  10  19  34  58  86 112 145 188 234 287 343
#     4  10  22  37  57  86 114 150 197 243 288 347
#     4  10  20  34  55  83 113 145 190 246 296 338
#     4  12  25  40  58  78 110 166 212 242 294 364
#     4  10  20  35  58  85 114 150 189 231 281 350
#
# _framework density 19.413868000000001
#
# number of rings (size 3 to 8) (size 9 to 14) (size 15 to 20)
#    0.000    1.931    2.069    1.862    0.966    2.759 
#    0.000    2.759    1.517    0.000    0.000    3.862 
#    0.000    0.000    0.000    0.000    0.000    0.000 
#
# Total GULP energy -323075.918751 kJ/mol
# GULP energy per Si atom -5570.274461 kJ/mol
# Density = 1.936968 g / cm^3
# Si number density = 19.413868 Si / 1000 Ang^3
#
#
#
# Elastic Constant Matrix: (Units=GPa)
#
#
# Indices 1 2 3 4 5 6 
#
# 1 125.2864 30.1819 10.7582 0.0000 0.0000 0.0000
# 2 30.1819 71.0301 1.5289 0.0000 0.0000 0.0000
# 3 10.7582 1.5289 32.1533 0.0000 0.0000 0.0000
# 4 0.0000 0.0000 0.0000 -59.6084 0.0000 0.0000
# 5 0.0000 0.0000 0.0000 0.0000 1.5380 0.0000
# 6 0.0000 0.0000 0.0000 0.0000 0.0000 16.0743
#
#
#
# Elastic Compliance Matrix: (Units=1/GPa)
#
#
# Indices 1 2 3 4 5 6 
#
# 1 0.009151 -0.003826 -0.002880 0.000000 0.000000 0.000000
# 2 -0.003826 0.015693 0.000534 0.000000 0.000000 0.000000
# 3 -0.002880 0.000534 0.032039 0.000000 0.000000 0.000000
# 4 0.000000 0.000000 0.000000 -0.016776 0.000000 0.000000
# 5 0.000000 0.000000 0.000000 0.000000 0.650194 0.000000
# 6 0.000000 0.000000 0.000000 0.000000 0.000000 0.062211
#
#
# Mechanical properties :
#
#
# Convention : Reuss Voigt Hill
#
# Bulk Modulus (GPa) = 22.45242 34.82310 28.63776
# Shear Modulus (GPa) = 6.41270 4.00083 5.20677
#
# Velocity S-wave (km/s) = 1.81943 1.43711 1.63945
# Velocity P-wave (km/s) = 4.00050 4.55301 4.28567
#
# Compressibility (1/GPa) = 0.04453863
#
# Stress axis : x y z
#
# Youngs Moduli (GPa) = 109.28032 63.72296 31.21181
#
# Poissons Ratio (x) = 0.24383 0.08988
# Poissons Ratio (y) = 0.41814 -0.01667
# Poissons Ratio (z) = 0.31471 -0.03403
#
# Static dielectric constant tensor:
#      x y z
#    x 1.723220 0.000000 0.000000 
#    y 0.000000 1.670940 0.000000 
#    z 0.000000 0.000000 1.669050 
# 
# From -- ./inp_files/66081.got.cif
#   From: 2010.05.17/outbox.cif.g08.bks.cpg/sg71_34_cif.got.tgz:66081.got - 2010.06.03 16:22:01.
