data_PCOD9520021
_publ_section_title
;
Structure prediction by ZEFSAII (Michael W. Deem and Ramdas Pophale) SiO2 
 PCOD9520021
Probable space group: I M M M
;
_chemical_formula_sum "Si O2"
_cell_formula_units_Z 88
_cell_length_a 15.660145
_cell_length_b 13.993966
_cell_length_c 20.195515
_cell_angle_alpha 90.000000
_cell_angle_beta 90.000000
_cell_angle_gamma 90.000000
_cell_volume 4425.797364
_symmetry_space_group_name_H-M "I M M M"
_symmetry_group_IT_number 71
_symmetry_cell_setting 'orthorhombic'
loop_
_space_group_symop_operation_xyz
x,y,z
-x,-y,z
x,-y,-z
-x,y,-z
-x,-y,-z
x,y,-z
-x,y,z
x,-y,z
1/2+x,1/2+y,1/2+z
1/2-x,1/2-y,1/2+z
1/2+x,1/2-y,1/2-z
1/2-x,1/2+y,1/2-z
1/2-x,1/2-y,1/2-z
1/2+x,1/2+y,1/2-z
1/2-x,1/2+y,1/2+z
1/2+x,1/2-y,1/2+z
loop_
_atom_site_type_symbol
_atom_site_label
_atom_site_fract_x
_atom_site_fract_y
_atom_site_fract_z
Si Si1 0.657166 0.112097 0.635088
Si Si2 0.602089 0.890051 0.211422
Si Si3 0.598921 0.707915 0.428328
Si Si4 0.899043 0.113665 0.205326
Si Si5 0.000000 0.113708 0.420899
Si Si6 0.660134 0.698150 0.157764
O O1 0.624369 0.123157 0.710804
O O2 0.602833 0.179683 0.587491
O O3 0.751811 0.156221 0.631232
O O4 0.655833 0.000000 0.619223
O O5 0.500000 0.875593 0.203832
O O6 0.651069 0.811595 0.168211
O O7 0.622675 0.000000 0.194627
O O8 0.638423 0.687400 0.500000
O O9 0.500000 0.677663 0.431125
O O10 0.634662 0.655504 0.363660
O O11 0.851793 0.155718 0.268438
O O12 0.000000 0.139440 0.212160
O O13 0.892525 0.000000 0.205467
O O14 0.917136 0.160064 0.387159
O O15 0.000000 0.127010 0.500000
O O16 0.000000 0.000000 0.406743
#
# Coordination Sequence:
#
# PCOD9520021 Si02
#       6
#    16  16  16  16   8  16
#     4  11  23  36  57  89 121 156 199 251 303 351
#     4  10  20  36  60  90 121 154 196 248 301 351
#     4  10  22  39  57  82 120 162 202 247 299 354
#     4  10  19  33  58  87 114 151 198 245 292 347
#     4  11  24  40  61  89 122 160 198 243 299 355
#     4  12  21  39  61  89 122 154 200 249 297 352
#
# _framework density 19.883424000000002
#
# number of rings (size 3 to 8) (size 9 to 14) (size 15 to 20)
#    0.000    1.364    3.636    2.727    0.000    2.545 
#    0.000    2.727    0.000    1.091    0.000    0.000 
#    0.000    0.000    0.000    0.000    0.000    0.000 
#
# Total GULP energy -245899.204969 kJ/mol
# GULP energy per Si atom -5588.618295 kJ/mol
# Density = 1.983817 g / cm^3
# Si number density = 19.883424 Si / 1000 Ang^3
#
#
#
# Elastic Constant Matrix: (Units=GPa)
#
#
# Indices 1 2 3 4 5 6 
#
# 1 43.7877 -4.0125 9.3812 0.0000 0.0000 0.0000
# 2 -4.0125 64.4765 20.3402 0.0000 0.0000 0.0000
# 3 9.3812 20.3402 78.5745 0.0000 0.0000 0.0000
# 4 0.0000 0.0000 0.0000 16.9387 0.0000 0.0000
# 5 0.0000 0.0000 0.0000 0.0000 -1.0238 0.0000
# 6 0.0000 0.0000 0.0000 0.0000 0.0000 25.4668
#
#
#
# Elastic Compliance Matrix: (Units=1/GPa)
#
#
# Indices 1 2 3 4 5 6 
#
# 1 0.023828 0.002592 -0.003516 0.000000 0.000000 0.000000
# 2 0.002592 0.017171 -0.004754 0.000000 0.000000 0.000000
# 3 -0.003516 -0.004754 0.014377 0.000000 0.000000 0.000000
# 4 0.000000 0.000000 0.000000 0.059036 0.000000 0.000000
# 5 0.000000 0.000000 0.000000 0.000000 -0.976729 0.000000
# 6 0.000000 0.000000 0.000000 0.000000 0.000000 0.039267
#
#
# Mechanical properties :
#
#
# Convention : Reuss Voigt Hill
#
# Bulk Modulus (GPa) = 22.71709 26.47295 24.59502
# Shear Modulus (GPa) = -6.27337 19.01833 6.37248
#
# Velocity S-wave (km/s) = -1.77818 3.09608 1.79217
# Velocity P-wave (km/s) = 2.68962 5.11115 4.08399
#
# Compressibility (1/GPa) = 0.04401973
#
# Stress axis : x y z
#
# Youngs Moduli (GPa) = 41.96703 58.23885 69.55417
#
# Poissons Ratio (x) = -0.15096 0.24455
# Poissons Ratio (y) = -0.10878 0.33069
# Poissons Ratio (z) = 0.14755 0.27689
#
# Static dielectric constant tensor:
#      x y z
#    x 1.728910 0.000000 0.000000 
#    y 0.000000 1.705030 0.000000 
#    z 0.000000 0.000000 1.702830 
# 
# From -- ./inp_files/45861.got.cif
#   From: 2010.05.17/outbox.cif.g08.bks.cpg/sg71_23_cif.got.tgz:45861.got - 2010.06.03 16:22:01.
