data_PCOD9520905
_publ_section_title
;
Structure prediction by ZEFSAII (Michael W. Deem and Ramdas Pophale) SiO2 
 PCOD9520905
Probable space group: I M M M
;
_chemical_formula_sum "Si O2"
_cell_formula_units_Z 104
_cell_length_a 33.240549
_cell_length_b 20.510700
_cell_length_c 9.320983
_cell_angle_alpha 90.000000
_cell_angle_beta 90.000000
_cell_angle_gamma 90.000000
_cell_volume 6354.924369
_symmetry_space_group_name_H-M "I M M M"
_symmetry_group_IT_number 71
_symmetry_cell_setting 'orthorhombic'
loop_
_space_group_symop_operation_xyz
x,y,z
-x,-y,z
x,-y,-z
-x,y,-z
-x,-y,-z
x,y,-z
-x,y,z
x,-y,z
1/2+x,1/2+y,1/2+z
1/2-x,1/2-y,1/2+z
1/2+x,1/2-y,1/2-z
1/2-x,1/2+y,1/2-z
1/2-x,1/2-y,1/2-z
1/2+x,1/2+y,1/2-z
1/2-x,1/2+y,1/2+z
1/2+x,1/2-y,1/2+z
loop_
_atom_site_type_symbol
_atom_site_label
_atom_site_fract_x
_atom_site_fract_y
_atom_site_fract_z
Si Si1 0.545422 0.767618 0.828881
Si Si2 0.547640 0.500000 0.339471
Si Si3 0.183944 0.425160 0.172086
Si Si4 0.157154 0.833017 0.828959
Si Si5 0.731677 0.424867 0.671343
Si Si6 0.422212 0.375747 0.830364
Si Si7 0.625689 0.190666 0.328839
O O1 0.500000 0.785674 0.782933
O O2 0.552214 0.690158 0.806012
O O3 0.582880 0.801130 0.749227
O O4 0.548610 0.779101 0.000000
O O5 0.500000 0.500000 0.351441
O O6 0.565530 0.500000 0.500000
O O7 0.560037 0.436415 0.252904
O O8 0.172237 0.500000 0.203966
O O9 0.226597 0.412820 0.247521
O O10 0.150510 0.372908 0.216721
O O11 0.189019 0.419385 0.000000
O O12 0.198248 0.870668 0.793015
O O13 0.121650 0.863042 0.734874
O O14 0.153103 0.755307 0.803275
O O15 0.149912 0.843176 0.000000
O O16 0.738319 0.421977 0.500000
O O17 0.718589 0.500000 0.704475
O O18 0.420592 0.387600 0.000000
O O19 0.618590 0.187455 0.500000
#
# Coordination Sequence:
#
# PCOD9520905 Si02
#       7
#    16   8  16  16  16  16  16
#     4   9  18  33  52  73  98 126 156 195 244 294
#     4  11  23  35  47  65  91 127 169 209 251 295
#     4   9  18  33  51  71  97 128 160 199 245 292
#     4   9  18  32  48  69  98 129 162 203 246 290
#     4   9  18  31  47  68  95 130 166 199 239 289
#     4  10  20  33  49  70  95 126 163 205 248 291
#     4   9  18  32  50  73  98 125 161 201 243 291
#
# _framework density 16.365262000000001
#
# number of rings (size 3 to 8) (size 9 to 14) (size 15 to 20)
#    0.000    2.692    0.000    1.154    1.077    4.000 
#    0.000    0.000    0.000    0.462    0.000    3.231 
#    0.000    0.000    0.000    0.000    0.000    0.000 
#
# Total GULP energy -289783.153257 kJ/mol
# GULP energy per Si atom -5572.752947 kJ/mol
# Density = 1.632801 g / cm^3
# Si number density = 16.365262 Si / 1000 Ang^3
#
#
#
# Elastic Constant Matrix: (Units=GPa)
#
#
# Indices 1 2 3 4 5 6 
#
# 1 130.6319 90.9185 50.7927 0.0000 0.0000 0.0000
# 2 90.9185 101.3985 49.9531 0.0000 0.0000 0.0000
# 3 50.7927 49.9531 40.4636 0.0000 0.0000 0.0000
# 4 0.0000 0.0000 0.0000 19.2374 0.0000 0.0000
# 5 0.0000 0.0000 0.0000 0.0000 28.5870 0.0000
# 6 0.0000 0.0000 0.0000 0.0000 0.0000 9.8731
#
#
#
# Elastic Compliance Matrix: (Units=1/GPa)
#
#
# Indices 1 2 3 4 5 6 
#
# 1 0.021350 -0.015162 -0.008083 0.000000 0.000000 0.000000
# 2 -0.015162 0.035936 -0.025332 0.000000 0.000000 0.000000
# 3 -0.008083 -0.025332 0.066133 0.000000 0.000000 0.000000
# 4 0.000000 0.000000 0.000000 0.051982 0.000000 0.000000
# 5 0.000000 0.000000 0.000000 0.000000 0.034981 0.000000
# 6 0.000000 0.000000 0.000000 0.000000 0.000000 0.101286
#
#
# Mechanical properties :
#
#
# Convention : Reuss Voigt Hill
#
# Bulk Modulus (GPa) = 38.07206 72.86917 55.47062
# Shear Modulus (GPa) = 11.97380 16.92813 14.45097
#
# Velocity S-wave (km/s) = 2.70786 3.21969 2.97480
# Velocity P-wave (km/s) = 5.75249 7.64495 6.76522
#
# Compressibility (1/GPa) = 0.02626598
#
# Stress axis : x y z
#
# Youngs Moduli (GPa) = 46.83769 27.82691 15.12097
#
# Poissons Ratio (x) = 0.42190 0.12222
# Poissons Ratio (y) = 0.71013 0.38305
# Poissons Ratio (z) = 0.37859 0.70492
#
# Static dielectric constant tensor:
#      x y z
#    x 1.526080 0.000000 0.000000 
#    y 0.000000 1.540700 0.000000 
#    z 0.000000 0.000000 1.547110 
# 
# From -- ./inp_files/11524.got.cif
#   From: 2010.05.17/outbox.cif.g08.bks.cpg/sg71_6_cif.got.tgz:11524.got - 2010.06.03 16:22:01.
