data_PCOD9520053
_publ_section_title
;
Structure prediction by ZEFSAII (Michael W. Deem and Ramdas Pophale) SiO2 
 PCOD9520053
Probable space group: I M M M
;
_chemical_formula_sum "Si O2"
_cell_formula_units_Z 88
_cell_length_a 18.638185
_cell_length_b 9.110822
_cell_length_c 28.211131
_cell_angle_alpha 90.000000
_cell_angle_beta 90.000000
_cell_angle_gamma 90.000000
_cell_volume 4790.509190
_symmetry_space_group_name_H-M "I M M M"
_symmetry_group_IT_number 71
_symmetry_cell_setting 'orthorhombic'
loop_
_space_group_symop_operation_xyz
x,y,z
-x,-y,z
x,-y,-z
-x,y,-z
-x,-y,-z
x,y,-z
-x,y,z
x,-y,z
1/2+x,1/2+y,1/2+z
1/2-x,1/2-y,1/2+z
1/2+x,1/2-y,1/2-z
1/2-x,1/2+y,1/2-z
1/2-x,1/2-y,1/2-z
1/2+x,1/2+y,1/2-z
1/2-x,1/2+y,1/2+z
1/2+x,1/2-y,1/2+z
loop_
_atom_site_type_symbol
_atom_site_label
_atom_site_fract_x
_atom_site_fract_y
_atom_site_fract_z
Si Si1 0.081056 0.823320 0.752819
Si Si2 0.850094 0.824719 0.849109
Si Si3 0.160981 0.827492 0.416970
Si Si4 0.827400 0.673259 0.053594
Si Si5 0.915465 0.665146 0.500000
Si Si6 0.187827 0.324287 0.320160
O O1 0.093064 0.788414 0.808313
O O2 0.143436 0.747310 0.722460
O O3 0.000000 0.782070 0.738107
O O4 0.088312 0.000000 0.747820
O O5 0.860629 0.751002 0.900279
O O6 0.772178 0.784315 0.826305
O O7 0.849103 0.000000 0.856186
O O8 0.241716 0.811692 0.437745
O O9 0.109367 0.755534 0.454764
O O10 0.154717 0.739410 0.368358
O O11 0.147883 0.000000 0.409657
O O12 0.844018 0.500000 0.055170
O O13 0.844502 0.726733 0.000000
O O14 0.883852 0.500000 0.500000
O O15 0.000000 0.653173 0.500000
O O16 0.183240 0.500000 0.317364
#
# Coordination Sequence:
#
# PCOD9520053 Si02
#       6
#    16  16  16  16   8  16
#     4  10  21  37  55  75 104 141 178 216 260 315
#     4   9  19  34  53  80 107 135 174 217 263 310
#     4  10  19  34  53  73  99 132 172 213 256 307
#     4   9  17  31  52  79 106 130 163 209 259 307
#     4  11  23  35  47  67  99 137 174 215 260 303
#     4  10  20  34  54  80 106 133 171 220 267 310
#
# _framework density 18.369654000000001
#
# number of rings (size 3 to 8) (size 9 to 14) (size 15 to 20)
#    0.000    2.273    0.909    1.909    0.000    4.364 
#    0.000    0.000    0.000    0.545    0.000    3.818 
#    0.000    0.000    0.000    0.000    0.000    0.000 
#
# Total GULP energy -245351.217683 kJ/mol
# GULP energy per Si atom -5576.164038 kJ/mol
# Density = 1.832784 g / cm^3
# Si number density = 18.369654 Si / 1000 Ang^3
#
#
#
# Elastic Constant Matrix: (Units=GPa)
#
#
# Indices 1 2 3 4 5 6 
#
# 1 19.8848 12.7069 17.5852 0.0000 0.0000 0.0000
# 2 12.7069 21.4089 21.7615 0.0000 0.0000 0.0000
# 3 17.5852 21.7615 121.8003 0.0000 0.0000 0.0000
# 4 0.0000 0.0000 0.0000 35.2912 0.0000 0.0000
# 5 0.0000 0.0000 0.0000 0.0000 -1.9506 0.0000
# 6 0.0000 0.0000 0.0000 0.0000 0.0000 14.7655
#
#
#
# Elastic Compliance Matrix: (Units=1/GPa)
#
#
# Indices 1 2 3 4 5 6 
#
# 1 0.082480 -0.045028 -0.003863 0.000000 0.000000 0.000000
# 2 -0.045028 0.081657 -0.008088 0.000000 0.000000 0.000000
# 3 -0.003863 -0.008088 0.010213 0.000000 0.000000 0.000000
# 4 0.000000 0.000000 0.000000 0.028336 0.000000 0.000000
# 5 0.000000 0.000000 0.000000 0.000000 -0.512662 0.000000
# 6 0.000000 0.000000 0.000000 0.000000 0.000000 0.067726
#
#
# Mechanical properties :
#
#
# Convention : Reuss Voigt Hill
#
# Bulk Modulus (GPa) = 16.55878 29.68904 23.12391
# Shear Modulus (GPa) = -46.22683 17.02389 -14.60147
#
# Velocity S-wave (km/s) = -5.02189 3.04754 -2.82240
# Velocity P-wave (km/s) = 4.95904 5.34607 1.41215
#
# Compressibility (1/GPa) = 0.06039093
#
# Stress axis : x y z
#
# Youngs Moduli (GPa) = 12.12415 12.24641 97.91416
#
# Poissons Ratio (x) = 0.55143 0.37828
# Poissons Ratio (y) = 0.54592 0.79195
# Poissons Ratio (z) = 0.04684 0.09905
#
# Static dielectric constant tensor:
#      x y z
#    x 1.628510 0.000000 0.000000 
#    y 0.000000 1.615410 0.000000 
#    z 0.000000 0.000000 1.609640 
# 
# From -- ./inp_files/10406.got.cif
#   From: 2010.05.17/outbox.cif.g08.bks.cpg/sg71_6_cif.got.tgz:10406.got - 2010.06.03 16:22:01.
