data_PCOD9520062
_publ_section_title
;
Structure prediction by ZEFSAII (Michael W. Deem and Ramdas Pophale) SiO2 
 PCOD9520062
Probable space group: I M M M
;
_chemical_formula_sum "Si O2"
_cell_formula_units_Z 56
_cell_length_a 22.054007
_cell_length_b 7.327491
_cell_length_c 17.173438
_cell_angle_alpha 90.000000
_cell_angle_beta 90.000000
_cell_angle_gamma 90.000000
_cell_volume 2775.236817
_symmetry_space_group_name_H-M "I M M M"
_symmetry_group_IT_number 71
_symmetry_cell_setting 'orthorhombic'
loop_
_space_group_symop_operation_xyz
x,y,z
-x,-y,z
x,-y,-z
-x,y,-z
-x,-y,-z
x,y,-z
-x,y,z
x,-y,z
1/2+x,1/2+y,1/2+z
1/2-x,1/2-y,1/2+z
1/2+x,1/2-y,1/2-z
1/2-x,1/2+y,1/2-z
1/2-x,1/2-y,1/2-z
1/2+x,1/2+y,1/2-z
1/2-x,1/2+y,1/2+z
1/2+x,1/2-y,1/2+z
loop_
_atom_site_type_symbol
_atom_site_label
_atom_site_fract_x
_atom_site_fract_y
_atom_site_fract_z
Si Si1 0.751413 0.000000 0.092971
Si Si2 0.066066 0.789132 0.228496
Si Si3 0.156144 0.218834 0.355138
Si Si4 0.930591 0.219980 0.500000
Si Si5 0.604937 0.500000 0.409012
O O1 0.717817 0.174685 0.128824
O O2 0.823125 0.000000 0.105681
O O3 0.741387 0.000000 0.000000
O O4 0.123052 0.718133 0.275906
O O5 0.000000 0.706111 0.241951
O O6 0.062098 0.000000 0.258852
O O7 0.078218 0.825509 0.137406
O O8 0.108443 0.268056 0.423878
O O9 0.166548 0.000000 0.355964
O O10 0.000000 0.287307 0.500000
O O11 0.934009 0.000000 0.500000
O O12 0.592077 0.500000 0.500000
#
# Coordination Sequence:
#
# PCOD9520062 Si02
#       5
#     8  16  16   8   8
#     4  11  22  35  52  81 120 152 192 221 262 340
#     4   8  16  32  54  79 106 137 183 234 280 328
#     4  10  19  34  53  79 113 151 185 227 274 322
#     4   9  16  27  49  73 102 147 183 213 262 313
#     4   9  19  34  55  81 110 146 183 241 285 325
#
# _framework density 20.178459
#
# number of rings (size 3 to 8) (size 9 to 14) (size 15 to 20)
#    0.857    1.857    1.429    0.857    0.000    5.714 
#    0.000    3.571    0.000    0.000    0.000    0.000 
#    0.000    2.286    0.000    0.286    0.000    0.000 
#
# Total GULP energy -155931.813650 kJ/mol
# GULP energy per Si atom -5568.993345 kJ/mol
# Density = 2.013253 g / cm^3
# Si number density = 20.178459 Si / 1000 Ang^3
#
#
#
# Elastic Constant Matrix: (Units=GPa)
#
#
# Indices 1 2 3 4 5 6 
#
# 1 59.8326 18.4367 3.6870 0.0000 0.0000 0.0000
# 2 18.4367 79.3423 4.8096 0.0000 0.0000 0.0000
# 3 3.6870 4.8096 81.7610 0.0000 0.0000 0.0000
# 4 0.0000 0.0000 0.0000 -4.9550 0.0000 0.0000
# 5 0.0000 0.0000 0.0000 0.0000 26.8273 0.0000
# 6 0.0000 0.0000 0.0000 0.0000 0.0000 66.0664
#
#
#
# Elastic Compliance Matrix: (Units=1/GPa)
#
#
# Indices 1 2 3 4 5 6 
#
# 1 0.018029 -0.004155 -0.000569 0.000000 0.000000 0.000000
# 2 -0.004155 0.013606 -0.000613 0.000000 0.000000 0.000000
# 3 -0.000569 -0.000613 0.012292 0.000000 0.000000 0.000000
# 4 0.000000 0.000000 0.000000 -0.201818 0.000000 0.000000
# 5 0.000000 0.000000 0.000000 0.000000 0.037276 0.000000
# 6 0.000000 0.000000 0.000000 0.000000 0.000000 0.015136
#
#
# Mechanical properties :
#
#
# Convention : Reuss Voigt Hill
#
# Bulk Modulus (GPa) = 30.07118 30.53360 30.30239
# Shear Modulus (GPa) = -59.72201 30.52124 -14.60038
#
# Velocity S-wave (km/s) = -5.44621 3.89339 -2.69283
# Velocity P-wave (km/s) = 4.96117 5.94777 2.31977
#
# Compressibility (1/GPa) = 0.03325443
#
# Stress axis : x y z
#
# Youngs Moduli (GPa) = 55.46743 73.49574 81.35064
#
# Poissons Ratio (x) = 0.30536 0.04626
# Poissons Ratio (y) = 0.23046 0.04987
# Poissons Ratio (z) = 0.03154 0.04505
#
# Static dielectric constant tensor:
#      x y z
#    x 1.705060 0.000000 0.000000 
#    y 0.000000 1.763580 0.000000 
#    z 0.000000 0.000000 1.733890 
# 
# From -- ./inp_files/37355.got.cif
#   From: 2010.05.17/outbox.cif.g08.bks.cpg/sg71_19_cif.got.tgz:37355.got - 2010.06.03 16:22:01.
