data_PCOD9520952
_publ_section_title
;
Structure prediction by ZEFSAII (Michael W. Deem and Ramdas Pophale) SiO2 
 PCOD9520952
Probable space group: I M M M
;
_chemical_formula_sum "Si O2"
_cell_formula_units_Z 104
_cell_length_a 20.440343
_cell_length_b 9.554892
_cell_length_c 30.892839
_cell_angle_alpha 90.000000
_cell_angle_beta 90.000000
_cell_angle_gamma 90.000000
_cell_volume 6033.534256
_symmetry_space_group_name_H-M "I M M M"
_symmetry_group_IT_number 71
_symmetry_cell_setting 'orthorhombic'
loop_
_space_group_symop_operation_xyz
x,y,z
-x,-y,z
x,-y,-z
-x,y,-z
-x,-y,-z
x,y,-z
-x,y,z
x,-y,z
1/2+x,1/2+y,1/2+z
1/2-x,1/2-y,1/2+z
1/2+x,1/2-y,1/2-z
1/2-x,1/2+y,1/2-z
1/2-x,1/2-y,1/2-z
1/2+x,1/2+y,1/2-z
1/2-x,1/2+y,1/2+z
1/2+x,1/2-y,1/2+z
loop_
_atom_site_type_symbol
_atom_site_label
_atom_site_fract_x
_atom_site_fract_y
_atom_site_fract_z
Si Si1 0.146256 0.660034 0.188320
Si Si2 0.389212 0.839729 0.549858
Si Si3 0.500000 0.661669 0.782611
Si Si4 0.368610 0.831666 0.787745
Si Si5 0.743504 0.834096 0.856330
Si Si6 0.000000 0.155116 0.908913
Si Si7 0.500000 0.255812 0.684084
Si Si8 0.256604 0.664940 0.547608
O O1 0.166794 0.500000 0.182484
O O2 0.155737 0.700406 0.238887
O O3 0.190078 0.754987 0.157103
O O4 0.068085 0.671443 0.181588
O O5 0.412532 0.842994 0.500000
O O6 0.437791 0.744085 0.576587
O O7 0.319136 0.765567 0.549222
O O8 0.386301 0.000000 0.565638
O O9 0.500000 0.500000 0.796557
O O10 0.434940 0.745961 0.796021
O O11 0.500000 0.668079 0.730168
O O12 0.313353 0.795992 0.822652
O O13 0.381295 0.000000 0.789022
O O14 0.722346 0.808842 0.906238
O O15 0.755394 0.000000 0.851773
O O16 0.000000 0.147279 0.857458
O O17 0.000000 0.000000 0.928260
O O18 0.224462 0.686883 0.500000
O O19 0.276164 0.500000 0.548447
#
# Coordination Sequence:
#
# PCOD9520952 Si02
#       8
#    16  16   8  16  16   8   8  16
#     4  10  20  33  50  71  98 133 171 208 244 287
#     4  10  21  35  48  63  86 117 154 199 249 293
#     4  10  20  35  55  76  98 127 162 198 234 282
#     4   9  19  35  52  73 103 135 162 194 242 295
#     4  10  20  33  51  75 102 131 163 201 247 293
#     4  12  23  32  45  64  85 115 158 204 246 287
#     4  10  22  35  47  67  97 132 167 204 247 290
#     4   9  18  33  51  70  93 122 157 196 237 284
#
# _framework density 17.236995
#
# number of rings (size 3 to 8) (size 9 to 14) (size 15 to 20)
#    0.000    2.154    0.000    3.000    0.000   11.692 
#    0.000    0.000    0.000    0.000    0.000    0.538 
#    0.000    4.308    0.000    0.000    0.000    0.000 
#
# Total GULP energy -289905.139025 kJ/mol
# GULP energy per Si atom -5575.098827 kJ/mol
# Density = 1.719776 g / cm^3
# Si number density = 17.236995 Si / 1000 Ang^3
#
#
#
# Elastic Constant Matrix: (Units=GPa)
#
#
# Indices 1 2 3 4 5 6 
#
# 1 55.6554 18.6130 39.3262 0.0000 0.0000 0.0000
# 2 18.6130 55.2284 27.3746 0.0000 0.0000 0.0000
# 3 39.3262 27.3746 111.3969 0.0000 0.0000 0.0000
# 4 0.0000 0.0000 0.0000 17.4982 0.0000 0.0000
# 5 0.0000 0.0000 0.0000 0.0000 18.3932 0.0000
# 6 0.0000 0.0000 0.0000 0.0000 0.0000 14.5635
#
#
#
# Elastic Compliance Matrix: (Units=1/GPa)
#
#
# Indices 1 2 3 4 5 6 
#
# 1 0.024925 -0.004599 -0.007669 0.000000 0.000000 0.000000
# 2 -0.004599 0.021467 -0.003652 0.000000 0.000000 0.000000
# 3 -0.007669 -0.003652 0.012582 0.000000 0.000000 0.000000
# 4 0.000000 0.000000 0.000000 0.057149 0.000000 0.000000
# 5 0.000000 0.000000 0.000000 0.000000 0.054368 0.000000
# 6 0.000000 0.000000 0.000000 0.000000 0.000000 0.068665
#
#
# Mechanical properties :
#
#
# Convention : Reuss Voigt Hill
#
# Bulk Modulus (GPa) = 36.85439 43.65650 40.25544
# Shear Modulus (GPa) = 17.85473 19.22210 18.53841
#
# Velocity S-wave (km/s) = 3.22193 3.34303 3.28304
# Velocity P-wave (km/s) = 5.93873 6.34692 6.14621
#
# Compressibility (1/GPa) = 0.02713381
#
# Stress axis : x y z
#
# Youngs Moduli (GPa) = 40.12097 46.58417 79.48097
#
# Poissons Ratio (x) = 0.21423 0.60954
# Poissons Ratio (y) = 0.18451 0.29024
# Poissons Ratio (z) = 0.30769 0.17011
#
# Static dielectric constant tensor:
#      x y z
#    x 1.560380 0.000000 0.000000 
#    y 0.000000 1.584250 0.000000 
#    z 0.000000 0.000000 1.635340 
# 
# From -- ./inp_files/70790.got.cif
#   From: 2010.05.17/outbox.cif.g08.bks.cpg/sg71_36_cif.got.tgz:70790.got - 2010.06.03 16:22:01.
