data_PCOD9520694
_publ_section_title
;
Structure prediction by ZEFSAII (Michael W. Deem and Ramdas Pophale) SiO2 
 PCOD9520694
Probable space group: I M M M
;
_chemical_formula_sum "Si O2"
_cell_formula_units_Z 120
_cell_length_a 22.558637
_cell_length_b 24.550060
_cell_length_c 14.189993
_cell_angle_alpha 90.000000
_cell_angle_beta 90.000000
_cell_angle_gamma 90.000000
_cell_volume 7858.643629
_symmetry_space_group_name_H-M "I M M M"
_symmetry_group_IT_number 71
_symmetry_cell_setting 'orthorhombic'
loop_
_space_group_symop_operation_xyz
x,y,z
-x,-y,z
x,-y,-z
-x,y,-z
-x,-y,-z
x,y,-z
-x,y,z
x,-y,z
1/2+x,1/2+y,1/2+z
1/2-x,1/2-y,1/2+z
1/2+x,1/2-y,1/2-z
1/2-x,1/2+y,1/2-z
1/2-x,1/2-y,1/2-z
1/2+x,1/2+y,1/2-z
1/2-x,1/2+y,1/2+z
1/2+x,1/2-y,1/2+z
loop_
_atom_site_type_symbol
_atom_site_label
_atom_site_fract_x
_atom_site_fract_y
_atom_site_fract_z
Si Si1 0.170498 0.563987 0.111108
Si Si2 0.434228 0.244678 0.719921
Si Si3 0.798363 0.326259 0.391484
Si Si4 0.000000 0.565384 0.611410
Si Si5 0.185545 0.237377 0.886399
Si Si6 0.626227 0.713243 0.892256
Si Si7 0.740538 0.343319 0.886072
Si Si8 0.397258 0.122024 0.230380
O O1 0.179011 0.500000 0.125887
O O2 0.228913 0.599498 0.134453
O O3 0.119158 0.587222 0.177758
O O4 0.157469 0.573171 0.000000
O O5 0.500000 0.253295 0.681448
O O6 0.379495 0.264782 0.656580
O O7 0.425740 0.275205 0.819678
O O8 0.423993 0.180356 0.739084
O O9 0.796376 0.345326 0.500000
O O10 0.732033 0.310154 0.359930
O O11 0.834210 0.268784 0.392271
O O12 0.836644 0.365658 0.326732
O O13 0.943054 0.591239 0.662782
O O14 0.000000 0.500000 0.621186
O O15 0.000000 0.578704 0.500000
O O16 0.215894 0.294395 0.854032
O O17 0.182834 0.238080 0.000000
O O18 0.673206 0.668151 0.856786
O O19 0.607815 0.702971 0.000000
O O20 0.738253 0.337808 0.000000
#
# Coordination Sequence:
#
# PCOD9520694 Si02
#       8
#    16  16  16   8  16  16  16  16
#     4  10  20  32  47  69  95 121 155 199 239 273
#     4  11  21  29  42  67  92 125 158 186 228 282
#     4   8  16  29  48  72  89 112 152 196 239 283
#     4  11  24  40  53  65  89 127 168 210 248 282
#     4   9  17  30  46  65  92 119 152 193 232 280
#     4   8  16  28  43  64  90 116 146 184 227 281
#     4   8  14  27  46  64  84 116 150 183 228 274
#     4  11  20  33  51  68  91 124 163 199 235 278
#
# _framework density 15.26981
#
# number of rings (size 3 to 8) (size 9 to 14) (size 15 to 20)
#    0.000    2.600    2.000    2.400    1.867    2.667 
#    0.000    0.333    0.000    1.200    0.000    0.000 
#    0.000    0.533    0.000    5.200    0.000    4.533 
#
# Total GULP energy -334353.050396 kJ/mol
# GULP energy per Si atom -5572.550840 kJ/mol
# Density = 1.523506 g / cm^3
# Si number density = 15.269810 Si / 1000 Ang^3
#
#
#
# Elastic Constant Matrix: (Units=GPa)
#
#
# Indices 1 2 3 4 5 6 
#
# 1 90.6392 44.4983 33.5350 0.0000 0.0000 0.0000
# 2 44.4983 58.0104 39.7741 0.0000 0.0000 0.0000
# 3 33.5350 39.7741 62.8883 0.0000 0.0000 0.0000
# 4 0.0000 0.0000 0.0000 17.1553 0.0000 0.0000
# 5 0.0000 0.0000 0.0000 0.0000 20.9584 0.0000
# 6 0.0000 0.0000 0.0000 0.0000 0.0000 7.3408
#
#
#
# Elastic Compliance Matrix: (Units=1/GPa)
#
#
# Indices 1 2 3 4 5 6 
#
# 1 0.017778 -0.012602 -0.001510 0.000000 0.000000 0.000000
# 2 -0.012602 0.039369 -0.018180 0.000000 0.000000 0.000000
# 3 -0.001510 -0.018180 0.028204 0.000000 0.000000 0.000000
# 4 0.000000 0.000000 0.000000 0.058291 0.000000 0.000000
# 5 0.000000 0.000000 0.000000 0.000000 0.047714 0.000000
# 6 0.000000 0.000000 0.000000 0.000000 0.000000 0.136224
#
#
# Mechanical properties :
#
#
# Convention : Reuss Voigt Hill
#
# Bulk Modulus (GPa) = 48.14882 49.68362 48.91622
# Shear Modulus (GPa) = 12.52861 15.33961 13.93411
#
# Velocity S-wave (km/s) = 2.86751 3.17294 3.02408
# Velocity P-wave (km/s) = 6.52411 6.78463 6.65564
#
# Compressibility (1/GPa) = 0.02076894
#
# Stress axis : x y z
#
# Youngs Moduli (GPa) = 56.24877 25.40041 35.45574
#
# Poissons Ratio (x) = 0.32009 0.05354
# Poissons Ratio (y) = 0.70884 0.64457
# Poissons Ratio (z) = 0.08494 0.46177
#
# Static dielectric constant tensor:
#      x y z
#    x 1.515180 0.000000 0.000000 
#    y 0.000000 1.487630 0.000000 
#    z 0.000000 0.000000 1.556460 
# 
# From -- ./inp_files/38415.got.cif
#   From: 2010.05.17/outbox.cif.g08.bks.cpg/sg71_20_cif.got.tgz:38415.got - 2010.06.03 16:22:01.
