data_PCOD9520538
_publ_section_title
;
Structure prediction by ZEFSAII (Michael W. Deem and Ramdas Pophale) SiO2 
 PCOD9520538
Probable space group: I M M M
;
_chemical_formula_sum "Si O2"
_cell_formula_units_Z 88
_cell_length_a 21.773721
_cell_length_b 8.298082
_cell_length_c 24.797986
_cell_angle_alpha 90.000000
_cell_angle_beta 90.000000
_cell_angle_gamma 90.000000
_cell_volume 4480.503143
_symmetry_space_group_name_H-M "I M M M"
_symmetry_group_IT_number 71
_symmetry_cell_setting 'orthorhombic'
loop_
_space_group_symop_operation_xyz
x,y,z
-x,-y,z
x,-y,-z
-x,y,-z
-x,-y,-z
x,y,-z
-x,y,z
x,-y,z
1/2+x,1/2+y,1/2+z
1/2-x,1/2-y,1/2+z
1/2+x,1/2-y,1/2-z
1/2-x,1/2+y,1/2-z
1/2-x,1/2-y,1/2-z
1/2+x,1/2+y,1/2-z
1/2-x,1/2+y,1/2+z
1/2+x,1/2-y,1/2+z
loop_
_atom_site_type_symbol
_atom_site_label
_atom_site_fract_x
_atom_site_fract_y
_atom_site_fract_z
Si Si1 0.301010 0.191101 0.708566
Si Si2 0.933082 0.693385 0.822296
Si Si3 0.404983 0.687894 0.441353
Si Si4 0.364491 0.319925 0.937490
Si Si5 0.776551 0.311025 0.084224
Si Si6 0.072178 0.500000 0.565362
O O1 0.250000 0.250000 0.750000
O O2 0.371371 0.256814 0.707261
O O3 0.276733 0.219326 0.648102
O O4 0.306020 0.000000 0.716466
O O5 0.932883 0.500000 0.816017
O O6 0.926660 0.727957 0.886444
O O7 0.000000 0.755169 0.804337
O O8 0.426220 0.750069 0.500000
O O9 0.421415 0.500000 0.437800
O O10 0.331125 0.707487 0.440135
O O11 0.374086 0.500000 0.913634
O O12 0.291756 0.286106 0.936802
O O13 0.398288 0.165445 0.913009
O O14 0.384320 0.330079 0.000000
O O15 0.792299 0.500000 0.075218
O O16 0.082346 0.500000 0.500000
O O17 0.000000 0.500000 0.574863
#
# Coordination Sequence:
#
# PCOD9520538 Si02
#       6
#    16  16  16  16  16   8
#     4   9  18  33  53  77 100 124 162 212 263 311
#     4   9  19  36  55  73  98 137 180 216 252 303
#     4  10  20  30  44  72 108 141 170 207 253 299
#     4   9  17  29  47  70  96 130 168 207 254 305
#     4   9  18  32  49  70  97 130 168 209 254 303
#     4   9  18  30  44  66  96 128 165 207 247 301
#
# _framework density 19.640650999999998
#
# number of rings (size 3 to 8) (size 9 to 14) (size 15 to 20)
#    0.000    2.818    0.000    2.182    1.273    6.182 
#    0.000    3.636    0.000    1.091    0.000    2.545 
#    0.000    0.000    0.000    0.000    0.000    0.000 
#
# Total GULP energy -245083.995167 kJ/mol
# GULP energy per Si atom -5570.090799 kJ/mol
# Density = 1.959595 g / cm^3
# Si number density = 19.640651 Si / 1000 Ang^3
#
#
#
# Elastic Constant Matrix: (Units=GPa)
#
#
# Indices 1 2 3 4 5 6 
#
# 1 108.3614 44.1977 46.6344 0.0000 0.0000 0.0000
# 2 44.1977 46.7033 12.8539 0.0000 0.0000 0.0000
# 3 46.6344 12.8539 45.1107 0.0000 0.0000 0.0000
# 4 0.0000 0.0000 0.0000 15.1557 0.0000 0.0000
# 5 0.0000 0.0000 0.0000 0.0000 17.5514 0.0000
# 6 0.0000 0.0000 0.0000 0.0000 0.0000 18.7701
#
#
#
# Elastic Compliance Matrix: (Units=1/GPa)
#
#
# Indices 1 2 3 4 5 6 
#
# 1 0.026348 -0.018922 -0.021846 0.000000 0.000000 0.000000
# 2 -0.018922 0.036822 0.009069 0.000000 0.000000 0.000000
# 3 -0.021846 0.009069 0.042168 0.000000 0.000000 0.000000
# 4 0.000000 0.000000 0.000000 0.065982 0.000000 0.000000
# 5 0.000000 0.000000 0.000000 0.000000 0.056975 0.000000
# 6 0.000000 0.000000 0.000000 0.000000 0.000000 0.053276
#
#
# Mechanical properties :
#
#
# Convention : Reuss Voigt Hill
#
# Bulk Modulus (GPa) = 23.84392 45.28304 34.56348
# Shear Modulus (GPa) = 13.92955 16.72807 15.32881
#
# Velocity S-wave (km/s) = 2.66601 2.92157 2.79671
# Velocity P-wave (km/s) = 4.65223 5.87253 5.29763
#
# Compressibility (1/GPa) = 0.04193940
#
# Stress axis : x y z
#
# Youngs Moduli (GPa) = 37.95403 27.15747 23.71480
#
# Poissons Ratio (x) = 0.51386 0.51808
# Poissons Ratio (y) = 0.71815 -0.21506
# Poissons Ratio (z) = 0.82915 -0.24628
#
# Static dielectric constant tensor:
#      x y z
#    x 1.713190 0.000000 0.000000 
#    y 0.000000 1.717760 0.000000 
#    z 0.000000 0.000000 1.681370 
# 
# From -- ./inp_files/70667.got.cif
#   From: 2010.05.17/outbox.cif.g08.bks.cpg/sg71_36_cif.got.tgz:70667.got - 2010.06.03 16:22:01.
