data_PCOD9520993
_publ_section_title
;
Structure prediction by ZEFSAII (Michael W. Deem and Ramdas Pophale) SiO2 
 PCOD9520993
Probable space group: I M M M
;
_chemical_formula_sum "Si O2"
_cell_formula_units_Z 104
_cell_length_a 28.774432
_cell_length_b 24.415129
_cell_length_c 8.956471
_cell_angle_alpha 90.000000
_cell_angle_beta 90.000000
_cell_angle_gamma 90.000000
_cell_volume 6292.202730
_symmetry_space_group_name_H-M "I M M M"
_symmetry_group_IT_number 71
_symmetry_cell_setting 'orthorhombic'
loop_
_space_group_symop_operation_xyz
x,y,z
-x,-y,z
x,-y,-z
-x,y,-z
-x,-y,-z
x,y,-z
-x,y,z
x,-y,z
1/2+x,1/2+y,1/2+z
1/2-x,1/2-y,1/2+z
1/2+x,1/2-y,1/2-z
1/2-x,1/2+y,1/2-z
1/2-x,1/2-y,1/2-z
1/2+x,1/2+y,1/2-z
1/2-x,1/2+y,1/2+z
1/2+x,1/2-y,1/2+z
loop_
_atom_site_type_symbol
_atom_site_label
_atom_site_fract_x
_atom_site_fract_y
_atom_site_fract_z
Si Si1 0.500000 0.065657 0.324766
Si Si2 0.445587 0.351474 0.178228
Si Si3 0.411740 0.875565 0.178041
Si Si4 0.770324 0.066440 0.171709
Si Si5 0.125537 0.064180 0.819564
Si Si6 0.675066 0.065565 0.675930
Si Si7 0.555367 0.766014 0.322970
O O1 0.500000 0.081242 0.500000
O O2 0.545609 0.089990 0.247369
O O3 0.500000 0.000000 0.314734
O O4 0.500000 0.363114 0.210521
O O5 0.412810 0.398310 0.243803
O O6 0.434198 0.293295 0.254179
O O7 0.440334 0.347302 0.000000
O O8 0.364138 0.902983 0.232599
O O9 0.417347 0.814421 0.241933
O O10 0.414885 0.875519 0.000000
O O11 0.822016 0.082742 0.222116
O O12 0.726650 0.082500 0.271712
O O13 0.771474 0.000000 0.170041
O O14 0.763154 0.084183 0.000000
O O15 0.119965 0.000000 0.779830
O O16 0.122513 0.067821 0.000000
O O17 0.668800 0.075193 0.500000
O O18 0.670527 0.000000 0.702027
O O19 0.564200 0.766444 0.500000
O O20 0.500000 0.776022 0.300324
#
# Coordination Sequence:
#
# PCOD9520993 Si02
#       7
#     8  16  16  16  16  16  16
#     4  11  23  37  51  71 103 139 174 215 264 315
#     4  10  21  35  52  77 109 140 174 215 256 303
#     4  12  23  34  52  75 102 135 173 218 264 312
#     4   8  15  30  51  74 101 133 171 214 256 303
#     4   9  18  33  54  80 109 141 175 210 254 309
#     4  10  20  33  50  74 104 137 174 215 259 310
#     4  10  20  36  57  75  97 132 176 219 260 309
#
# _framework density 16.528393000000001
#
# number of rings (size 3 to 8) (size 9 to 14) (size 15 to 20)
#    0.000    2.077    0.769    4.385    0.000    6.154 
#    0.000    3.077    0.000    0.923    0.000    0.000 
#    0.000    0.000    0.000    0.000    0.000    0.000 
#
# Total GULP energy -290220.722129 kJ/mol
# GULP energy per Si atom -5581.167733 kJ/mol
# Density = 1.649077 g / cm^3
# Si number density = 16.528393 Si / 1000 Ang^3
#
#
#
# Elastic Constant Matrix: (Units=GPa)
#
#
# Indices 1 2 3 4 5 6 
#
# 1 116.6728 68.7605 71.7102 0.0000 0.0000 0.0000
# 2 68.7605 85.2685 64.0316 0.0000 0.0000 0.0000
# 3 71.7102 64.0316 104.3910 0.0000 0.0000 0.0000
# 4 0.0000 0.0000 0.0000 24.4586 0.0000 0.0000
# 5 0.0000 0.0000 0.0000 0.0000 30.0212 0.0000
# 6 0.0000 0.0000 0.0000 0.0000 0.0000 -0.8992
#
#
#
# Elastic Compliance Matrix: (Units=1/GPa)
#
#
# Indices 1 2 3 4 5 6 
#
# 1 0.018496 -0.009963 -0.006594 0.000000 0.000000 0.000000
# 2 -0.009963 0.027109 -0.009784 0.000000 0.000000 0.000000
# 3 -0.006594 -0.009784 0.020111 0.000000 0.000000 0.000000
# 4 0.000000 0.000000 0.000000 0.040885 0.000000 0.000000
# 5 0.000000 0.000000 0.000000 0.000000 0.033310 0.000000
# 6 0.000000 0.000000 0.000000 0.000000 0.000000 -1.112141
#
#
# Mechanical properties :
#
#
# Convention : Reuss Voigt Hill
#
# Bulk Modulus (GPa) = 76.73150 79.48189 78.10669
# Shear Modulus (GPa) = -5.46327 17.50479 6.02076
#
# Velocity S-wave (km/s) = -1.82004 3.25787 1.91065
# Velocity P-wave (km/s) = 6.48907 7.89583 7.22676
#
# Compressibility (1/GPa) = 0.01303246
#
# Stress axis : x y z
#
# Youngs Moduli (GPa) = 54.06696 36.88774 49.72459
#
# Poissons Ratio (x) = 0.36751 0.32790
# Poissons Ratio (y) = 0.53867 0.48653
# Poissons Ratio (z) = 0.35653 0.36092
#
# Static dielectric constant tensor:
#      x y z
#    x 1.548610 0.000000 0.000000 
#    y 0.000000 1.534250 0.000000 
#    z 0.000000 0.000000 1.548910 
# 
# From -- ./inp_files/15247.got.cif
#   From: 2010.05.17/outbox.cif.g08.bks.cpg/sg71_8_cif.got.tgz:15247.got - 2010.06.03 16:22:01.
