data_PCOD9520698
_publ_section_title
;
Structure prediction by ZEFSAII (Michael W. Deem and Ramdas Pophale) SiO2 
 PCOD9520698
Probable space group: I M M M
;
_chemical_formula_sum "Si O2"
_cell_formula_units_Z 104
_cell_length_a 21.134256
_cell_length_b 8.542772
_cell_length_c 29.313067
_cell_angle_alpha 90.000000
_cell_angle_beta 90.000000
_cell_angle_gamma 90.000000
_cell_volume 5292.331504
_symmetry_space_group_name_H-M "I M M M"
_symmetry_group_IT_number 71
_symmetry_cell_setting 'orthorhombic'
loop_
_space_group_symop_operation_xyz
x,y,z
-x,-y,z
x,-y,-z
-x,y,-z
-x,-y,-z
x,y,-z
-x,y,z
x,-y,z
1/2+x,1/2+y,1/2+z
1/2-x,1/2-y,1/2+z
1/2+x,1/2-y,1/2-z
1/2-x,1/2+y,1/2-z
1/2-x,1/2-y,1/2-z
1/2+x,1/2+y,1/2-z
1/2-x,1/2+y,1/2+z
1/2+x,1/2-y,1/2+z
loop_
_atom_site_type_symbol
_atom_site_label
_atom_site_fract_x
_atom_site_fract_y
_atom_site_fract_z
Si Si1 0.686112 0.313252 0.226500
Si Si2 0.617728 0.682360 0.312365
Si Si3 0.703712 0.315340 0.948708
Si Si4 0.068928 0.681797 0.555251
Si Si5 0.076922 0.000000 0.946597
Si Si6 0.256222 0.820509 0.858875
Si Si7 0.573703 0.174999 0.400300
O O1 0.687763 0.500000 0.228266
O O2 0.750000 0.250000 0.250000
O O3 0.628613 0.265529 0.259996
O O4 0.692523 0.259107 0.174546
O O5 0.596270 0.500000 0.313766
O O6 0.688063 0.687747 0.334640
O O7 0.578058 0.789766 0.346208
O O8 0.710470 0.500000 0.951240
O O9 0.632051 0.274404 0.933316
O O10 0.747324 0.252114 0.908753
O O11 0.713936 0.249844 0.000000
O O12 0.066694 0.684593 0.500000
O O13 0.075531 0.500000 0.568846
O O14 0.000000 0.740070 0.571405
O O15 0.099216 0.164167 0.923767
O O16 0.000000 0.000000 0.942021
O O17 0.092675 0.000000 0.000000
O O18 0.274158 0.000000 0.863563
O O19 0.500000 0.167665 0.413861
O O20 0.601023 0.000000 0.410105
#
# Coordination Sequence:
#
# PCOD9520698 Si02
#       7
#    16  16  16  16   8  16  16
#     4   9  17  30  50  76 102 127 161 203 249 299
#     4   9  18  33  53  76 103 135 168 209 265 317
#     4  10  20  32  47  69  99 134 169 207 253 303
#     4   8  14  26  45  67  89 117 157 201 242 285
#     4   9  18  34  54  74 104 140 174 222 268 310
#     4  10  20  33  51  74 101 135 175 213 255 308
#     4  10  20  33  54  82 107 138 180 222 270 325
#
# _framework density 19.651074999999999
#
# number of rings (size 3 to 8) (size 9 to 14) (size 15 to 20)
#    0.000    2.692    0.769    2.769    0.000    5.231 
#    0.000    3.846    0.000    0.923    0.000    4.308 
#    0.000    0.000    0.000    0.000    0.000    0.000 
#
# Total GULP energy -289527.594055 kJ/mol
# GULP energy per Si atom -5567.838347 kJ/mol
# Density = 1.960635 g / cm^3
# Si number density = 19.651075 Si / 1000 Ang^3
#
#
#
# Elastic Constant Matrix: (Units=GPa)
#
#
# Indices 1 2 3 4 5 6 
#
# 1 14.6042 11.7687 8.7385 0.0000 0.0000 0.0000
# 2 11.7687 95.8213 38.2175 0.0000 0.0000 0.0000
# 3 8.7385 38.2175 92.6563 0.0000 0.0000 0.0000
# 4 0.0000 0.0000 0.0000 26.9427 0.0000 0.0000
# 5 0.0000 0.0000 0.0000 0.0000 21.4169 0.0000
# 6 0.0000 0.0000 0.0000 0.0000 0.0000 11.4735
#
#
#
# Elastic Compliance Matrix: (Units=1/GPa)
#
#
# Indices 1 2 3 4 5 6 
#
# 1 0.077235 -0.007876 -0.004035 0.000000 0.000000 0.000000
# 2 -0.007876 0.013294 -0.004741 0.000000 0.000000 0.000000
# 3 -0.004035 -0.004741 0.013128 0.000000 0.000000 0.000000
# 4 0.000000 0.000000 0.000000 0.037116 0.000000 0.000000
# 5 0.000000 0.000000 0.000000 0.000000 0.046692 0.000000
# 6 0.000000 0.000000 0.000000 0.000000 0.000000 0.087157
#
#
# Mechanical properties :
#
#
# Convention : Reuss Voigt Hill
#
# Bulk Modulus (GPa) = 14.21405 35.61457 24.91431
# Shear Modulus (GPa) = 15.08847 21.59042 18.33945
#
# Velocity S-wave (km/s) = 2.77396 3.31824 3.05823
# Velocity P-wave (km/s) = 4.18434 5.73095 5.01760
#
# Compressibility (1/GPa) = 0.07035293
#
# Stress axis : x y z
#
# Youngs Moduli (GPa) = 12.94750 75.22075 76.17044
#
# Poissons Ratio (x) = 0.59248 0.30737
# Poissons Ratio (y) = 0.10198 0.36109
# Poissons Ratio (z) = 0.05225 0.35659
#
# Static dielectric constant tensor:
#      x y z
#    x 1.731310 0.000000 0.000000 
#    y 0.000000 1.696800 0.000000 
#    z 0.000000 0.000000 1.749440 
# 
# From -- ./inp_files/67081.got.cif
#   From: 2010.05.17/outbox.cif.g08.bks.cpg/sg71_34_cif.got.tgz:67081.got - 2010.06.03 16:22:01.
