data_PCOD9520600
_publ_section_title
;
Structure prediction by ZEFSAII (Michael W. Deem and Ramdas Pophale) SiO2 
 PCOD9520600
Probable space group: I M M M
;
_chemical_formula_sum "Si O2"
_cell_formula_units_Z 96
_cell_length_a 13.496362
_cell_length_b 27.925282
_cell_length_c 14.054840
_cell_angle_alpha 90.000000
_cell_angle_beta 90.000000
_cell_angle_gamma 90.000000
_cell_volume 5297.124639
_symmetry_space_group_name_H-M "I M M M"
_symmetry_group_IT_number 71
_symmetry_cell_setting 'orthorhombic'
loop_
_space_group_symop_operation_xyz
x,y,z
-x,-y,z
x,-y,-z
-x,y,-z
-x,-y,-z
x,y,-z
-x,y,z
x,-y,z
1/2+x,1/2+y,1/2+z
1/2-x,1/2-y,1/2+z
1/2+x,1/2-y,1/2-z
1/2-x,1/2+y,1/2-z
1/2-x,1/2-y,1/2-z
1/2+x,1/2+y,1/2-z
1/2-x,1/2+y,1/2+z
1/2+x,1/2-y,1/2+z
loop_
_atom_site_type_symbol
_atom_site_label
_atom_site_fract_x
_atom_site_fract_y
_atom_site_fract_z
Si Si1 0.882598 0.702592 0.207840
Si Si2 0.614763 0.299972 0.611811
Si Si3 0.691927 0.945042 0.791490
Si Si4 0.183684 0.349286 0.609976
Si Si5 0.889545 0.057364 0.893292
Si Si6 0.879950 0.605102 0.890939
O O1 0.848739 0.754398 0.172601
O O2 0.862747 0.688367 0.316482
O O3 0.845237 0.657629 0.145125
O O4 0.000000 0.704011 0.191754
O O5 0.614666 0.286449 0.500000
O O6 0.500000 0.311661 0.636301
O O7 0.697123 0.341123 0.622199
O O8 0.648979 0.902130 0.856793
O O9 0.808552 0.937769 0.811625
O O10 0.661681 0.932846 0.684324
O O11 0.666128 0.000000 0.816401
O O12 0.159809 0.341051 0.500000
O O13 0.000000 0.076671 0.876136
O O14 0.898543 0.000000 0.901213
O O15 0.856299 0.073442 0.000000
O O16 0.000000 0.603936 0.885358
O O17 0.851641 0.596853 0.000000
#
# Coordination Sequence:
#
# PCOD9520600 Si02
#       6
#    16  16  16  16  16  16
#     4   9  17  31  51  72  96 126 156 190 238 292
#     4   9  17  30  50  75  99 121 149 190 239 286
#     4  10  20  32  47  69  98 131 166 204 246 287
#     4  10  20  31  45  69  99 129 161 196 233 279
#     4   8  14  26  45  66  86 114 155 196 230 270
#     4   9  18  33  53  75  96 121 160 208 252 296
#
# _framework density 18.12304
#
# number of rings (size 3 to 8) (size 9 to 14) (size 15 to 20)
#    0.000    2.833    0.000    2.000    0.000    4.667 
#    0.000    2.500    0.000    2.000    0.000   11.667 
#    0.000    0.000    0.000    0.000    0.000    0.000 
#
# Total GULP energy -267222.144737 kJ/mol
# GULP energy per Si atom -5567.128015 kJ/mol
# Density = 1.808179 g / cm^3
# Si number density = 18.123040 Si / 1000 Ang^3
#
#
#
# Elastic Constant Matrix: (Units=GPa)
#
#
# Indices 1 2 3 4 5 6 
#
# 1 8.4122 5.3314 14.1939 0.0000 0.0000 0.0000
# 2 5.3314 120.7183 39.9815 0.0000 0.0000 0.0000
# 3 14.1939 39.9815 103.6087 0.0001 -0.0001 0.0000
# 4 0.0000 0.0000 0.0001 18.8068 -0.0001 0.0000
# 5 0.0000 0.0000 -0.0001 -0.0001 24.3832 0.0000
# 6 0.0000 0.0000 0.0000 0.0000 0.0000 17.8714
#
#
#
# Elastic Compliance Matrix: (Units=1/GPa)
#
#
# Indices 1 2 3 4 5 6 
#
# 1 0.154620 0.000214 -0.021265 0.000000 0.000000 0.000000
# 2 0.000214 0.009498 -0.003694 0.000000 0.000000 0.000000
# 3 -0.021265 -0.003694 0.013991 0.000000 0.000000 0.000000
# 4 0.000000 0.000000 0.000000 0.053172 0.000000 0.000000
# 5 0.000000 0.000000 0.000000 0.000000 0.041012 0.000000
# 6 0.000000 0.000000 0.000000 0.000000 0.000000 0.055955
#
#
# Mechanical properties :
#
#
# Convention : Reuss Voigt Hill
#
# Bulk Modulus (GPa) = 7.77497 39.08367 23.42932
# Shear Modulus (GPa) = 11.88748 23.76110 17.82429
#
# Velocity S-wave (km/s) = 2.56389 3.62484 3.13951
# Velocity P-wave (km/s) = 3.61444 6.25554 5.10862
#
# Compressibility (1/GPa) = 0.12861791
#
# Stress axis : x y z
#
# Youngs Moduli (GPa) = 6.46748 105.28657 71.47678
#
# Poissons Ratio (x) = -0.02255 1.51995
# Poissons Ratio (y) = -0.00139 0.26407
# Poissons Ratio (z) = 0.13753 0.38898
#
# Static dielectric constant tensor:
#      x y z
#    x 1.661560 0.000000 0.000000 
#    y 0.000000 1.699490 0.000000 
#    z 0.000000 0.000000 1.593920 
# 
# From -- ./inp_files/24472.got.cif
#   From: 2010.05.17/outbox.cif.g08.bks.cpg/sg71_13_cif.got.tgz:24472.got - 2010.06.03 16:22:01.
