data_PCOD9520352
_publ_section_title
;
Structure prediction by ZEFSAII (Michael W. Deem and Ramdas Pophale) SiO2 
 PCOD9520352
Probable space group: I M M M
;
_chemical_formula_sum "Si O2"
_cell_formula_units_Z 100
_cell_length_a 21.425009
_cell_length_b 7.455565
_cell_length_c 29.851468
_cell_angle_alpha 90.000000
_cell_angle_beta 90.000000
_cell_angle_gamma 90.000000
_cell_volume 4768.340576
_symmetry_space_group_name_H-M "I M M M"
_symmetry_group_IT_number 71
_symmetry_cell_setting 'orthorhombic'
loop_
_space_group_symop_operation_xyz
x,y,z
-x,-y,z
x,-y,-z
-x,y,-z
-x,-y,-z
x,y,-z
-x,y,z
x,-y,z
1/2+x,1/2+y,1/2+z
1/2-x,1/2-y,1/2+z
1/2+x,1/2-y,1/2-z
1/2-x,1/2+y,1/2-z
1/2-x,1/2-y,1/2-z
1/2+x,1/2+y,1/2-z
1/2-x,1/2+y,1/2+z
1/2+x,1/2-y,1/2+z
loop_
_atom_site_type_symbol
_atom_site_label
_atom_site_fract_x
_atom_site_fract_y
_atom_site_fract_z
Si Si1 0.391201 0.707828 0.450939
Si Si2 0.067299 0.219472 0.856549
Si Si3 0.693759 0.214121 0.144795
Si Si4 0.747085 0.287408 0.950170
Si Si5 0.106935 0.707829 0.719270
Si Si6 0.000000 0.000000 0.739305
Si Si7 0.813418 0.217579 0.200111
O O1 0.402532 0.788379 0.500000
O O2 0.410547 0.500000 0.453210
O O3 0.424265 0.783496 0.407435
O O4 0.316556 0.710347 0.442577
O O5 0.126096 0.276013 0.828181
O O6 0.000000 0.273375 0.838576
O O7 0.068422 0.000000 0.856474
O O8 0.703526 0.250750 0.092315
O O9 0.630847 0.270407 0.170151
O O10 0.753551 0.283506 0.172692
O O11 0.694962 0.000000 0.149367
O O12 0.755393 0.500000 0.952054
O O13 0.725987 0.226826 0.000000
O O14 0.086316 0.500000 0.717953
O O15 0.169313 0.716344 0.750461
O O16 0.055163 0.843000 0.737533
O O17 0.811181 0.000000 0.201563
#
# Coordination Sequence:
#
# PCOD9520352 Si02
#       7
#    16  16  16  16  16   4  16
#     4   9  16  29  47  67  98 144 195 248 302 351
#     4   9  17  27  45  73 105 149 201 246 296 356
#     4  10  21  38  61  92 124 158 205 259 311 370
#     4  10  20  32  52  83 118 155 197 247 312 378
#     4  11  25  42  65  94 123 164 214 253 308 380
#     4  12  26  48  68  90 129 170 201 264 310 376
#     4  10  19  35  58  84 123 167 206 259 315 359
#
# _framework density 20.971655999999999
#
# number of rings (size 3 to 8) (size 9 to 14) (size 15 to 20)
#    0.000    2.080    2.400    1.200    2.240    1.920 
#    0.000    1.600    0.000    1.440    0.000    3.360 
#    0.000    2.560    0.000    0.000    0.000    0.000 
#
# Total GULP energy -278675.353708 kJ/mol
# GULP energy per Si atom -5573.507074 kJ/mol
# Density = 2.092392 g / cm^3
# Si number density = 20.971656 Si / 1000 Ang^3
#
#
#
# Elastic Constant Matrix: (Units=GPa)
#
#
# Indices 1 2 3 4 5 6 
#
# 1 33.0294 15.9638 28.5661 0.0000 0.0000 0.0000
# 2 15.9638 93.9205 2.6423 0.0000 0.0000 0.0000
# 3 28.5661 2.6423 114.7520 0.0000 0.0000 0.0000
# 4 0.0000 0.0000 0.0000 13.5399 0.0000 0.0000
# 5 0.0000 0.0000 0.0000 0.0000 15.4801 0.0000
# 6 0.0000 0.0000 0.0000 0.0000 0.0000 54.3602
#
#
#
# Elastic Compliance Matrix: (Units=1/GPa)
#
#
# Indices 1 2 3 4 5 6 
#
# 1 0.042694 -0.006962 -0.010468 0.000000 0.000000 0.000000
# 2 -0.006962 0.011790 0.001462 0.000000 0.000000 0.000000
# 3 -0.010468 0.001462 0.011287 0.000000 0.000000 0.000000
# 4 0.000000 0.000000 0.000000 0.073856 0.000000 0.000000
# 5 0.000000 0.000000 0.000000 0.000000 0.064599 0.000000
# 6 0.000000 0.000000 0.000000 0.000000 0.000000 0.018396
#
#
# Mechanical properties :
#
#
# Convention : Reuss Voigt Hill
#
# Bulk Modulus (GPa) = 29.55642 37.33845 33.44744
# Shear Modulus (GPa) = 18.80857 29.64470 24.22663
#
# Velocity S-wave (km/s) = 2.99801 3.76381 3.40252
# Velocity P-wave (km/s) = 5.10961 6.06063 5.60533
#
# Compressibility (1/GPa) = 0.03383359
#
# Stress axis : x y z
#
# Youngs Moduli (GPa) = 23.42223 84.82064 88.60018
#
# Poissons Ratio (x) = 0.59055 0.92746
# Poissons Ratio (y) = 0.16307 -0.12951
# Poissons Ratio (z) = 0.24518 -0.12398
#
# Static dielectric constant tensor:
#      x y z
#    x 1.734160 0.000000 0.000000 
#    y 0.000000 1.791060 0.000000 
#    z 0.000000 0.000000 1.831360 
# 
# From -- ./inp_files/70773.got.cif
#   From: 2010.05.17/outbox.cif.g08.bks.cpg/sg71_36_cif.got.tgz:70773.got - 2010.06.03 16:22:01.
