data_PCOD9520408
_publ_section_title
;
Structure prediction by ZEFSAII (Michael W. Deem and Ramdas Pophale) SiO2 
 PCOD9520408
Probable space group: I M M M
;
_chemical_formula_sum "Si O2"
_cell_formula_units_Z 90
_cell_length_a 28.428482
_cell_length_b 21.290430
_cell_length_c 8.125501
_cell_angle_alpha 90.000000
_cell_angle_beta 90.000000
_cell_angle_gamma 90.000000
_cell_volume 4917.996907
_symmetry_space_group_name_H-M "I M M M"
_symmetry_group_IT_number 71
_symmetry_cell_setting 'orthorhombic'
loop_
_space_group_symop_operation_xyz
x,y,z
-x,-y,z
x,-y,-z
-x,y,-z
-x,-y,-z
x,y,-z
-x,y,z
x,-y,z
1/2+x,1/2+y,1/2+z
1/2-x,1/2-y,1/2+z
1/2+x,1/2-y,1/2-z
1/2-x,1/2+y,1/2-z
1/2-x,1/2-y,1/2-z
1/2+x,1/2+y,1/2-z
1/2-x,1/2+y,1/2+z
1/2+x,1/2-y,1/2+z
loop_
_atom_site_type_symbol
_atom_site_label
_atom_site_fract_x
_atom_site_fract_y
_atom_site_fract_z
Si Si1 0.087983 0.194956 0.695441
Si Si2 0.000000 0.897877 0.302957
Si Si3 0.053022 0.330682 0.302587
Si Si4 0.000000 0.000000 0.000000
Si Si5 0.713073 0.842876 0.806623
Si Si6 0.311492 0.294751 0.305623
Si Si7 0.130736 0.429086 0.194152
O O1 0.096449 0.200876 0.500000
O O2 0.071954 0.263445 0.759967
O O3 0.137544 0.176574 0.774618
O O4 0.046098 0.145795 0.716592
O O5 0.000000 0.946254 0.150998
O O6 0.000000 0.919374 0.500000
O O7 0.050330 0.324757 0.500000
O O8 0.089567 0.385497 0.264874
O O9 0.000000 0.342573 0.241138
O O10 0.691220 0.773511 0.778876
O O11 0.766958 0.835759 0.747057
O O12 0.680159 0.894186 0.723953
O O13 0.713286 0.856630 0.000000
O O14 0.304622 0.284181 0.500000
O O15 0.130598 0.500000 0.261725
O O16 0.122983 0.432234 0.000000
#
# Coordination Sequence:
#
# PCOD9520408 Si02
#       7
#    16   8  16   2  16  16  16
#     4  10  19  35  60  91 122 155 194 247 303 353
#     4  10  23  43  67  94 128 166 203 246 305 365
#     4  10  20  36  58  86 118 152 197 248 295 348
#     4  12  26  44  68  98 124 168 208 248 280 394
#     4  10  20  35  54  81 113 152 192 240 299 356
#     4  10  20  32  55  88 119 143 187 248 301 352
#     4  11  24  39  55  78 113 159 205 247 297 358
#
# _framework density 18.300132999999999
#
# number of rings (size 3 to 8) (size 9 to 14) (size 15 to 20)
#    0.000    1.778    2.667    1.733    1.244    4.267 
#    0.000    1.778    1.956    0.000    0.000    0.000 
#    0.000    0.000    0.000    0.000    0.000    0.000 
#
# Total GULP energy -250776.357314 kJ/mol
# GULP energy per Si atom -5572.807940 kJ/mol
# Density = 1.825848 g / cm^3
# Si number density = 18.300133 Si / 1000 Ang^3
#
#
#
# Elastic Constant Matrix: (Units=GPa)
#
#
# Indices 1 2 3 4 5 6 
#
# 1 140.5416 52.3092 19.1483 0.0000 0.0000 0.0000
# 2 52.3092 95.5660 25.5476 0.0000 0.0000 0.0000
# 3 19.1483 25.5476 40.7732 0.0000 0.0000 0.0000
# 4 0.0000 0.0000 0.0000 24.6886 0.0000 0.0000
# 5 0.0000 0.0000 0.0000 0.0000 23.7990 0.0000
# 6 0.0000 0.0000 0.0000 0.0000 0.0000 -4.9894
#
#
#
# Elastic Compliance Matrix: (Units=1/GPa)
#
#
# Indices 1 2 3 4 5 6 
#
# 1 0.008999 -0.004560 -0.001369 0.000000 0.000000 0.000000
# 2 -0.004560 0.014880 -0.007182 0.000000 0.000000 0.000000
# 3 -0.001369 -0.007182 0.029669 0.000000 0.000000 0.000000
# 4 0.000000 0.000000 0.000000 0.040504 0.000000 0.000000
# 5 0.000000 0.000000 0.000000 0.000000 0.042019 0.000000
# 6 0.000000 0.000000 0.000000 0.000000 0.000000 -0.200426
#
#
# Mechanical properties :
#
#
# Convention : Reuss Voigt Hill
#
# Bulk Modulus (GPa) = 36.59514 52.32123 44.45819
# Shear Modulus (GPa) = -172.26696 20.69137 -75.78779
#
# Velocity S-wave (km/s) = -9.71281 3.36619 -6.44234
# Velocity P-wave (km/s) = 10.28320 6.61521 5.56701
#
# Compressibility (1/GPa) = 0.02732603
#
# Stress axis : x y z
#
# Youngs Moduli (GPa) = 111.12382 67.20558 33.70522
#
# Poissons Ratio (x) = 0.30644 0.04615
# Poissons Ratio (y) = 0.50669 0.24207
# Poissons Ratio (z) = 0.15215 0.48267
#
# Static dielectric constant tensor:
#      x y z
#    x 1.646010 0.000000 0.000000 
#    y 0.000000 1.616180 0.000000 
#    z 0.000000 0.000000 1.647920 
# 
# From -- ./inp_files/14919.got.cif
#   From: 2010.05.17/outbox.cif.g08.bks.cpg/sg71_8_cif.got.tgz:14919.got - 2010.06.03 16:22:01.
