data_PCOD9520917
_publ_section_title
;
Structure prediction by ZEFSAII (Michael W. Deem and Ramdas Pophale) SiO2 
 PCOD9520917
Probable space group: I M M M
;
_chemical_formula_sum "Si O2"
_cell_formula_units_Z 120
_cell_length_a 27.799688
_cell_length_b 28.724969
_cell_length_c 7.902028
_cell_angle_alpha 90.000000
_cell_angle_beta 90.000000
_cell_angle_gamma 90.000000
_cell_volume 6310.126340
_symmetry_space_group_name_H-M "I M M M"
_symmetry_group_IT_number 71
_symmetry_cell_setting 'orthorhombic'
loop_
_space_group_symop_operation_xyz
x,y,z
-x,-y,z
x,-y,-z
-x,y,-z
-x,-y,-z
x,y,-z
-x,y,z
x,-y,z
1/2+x,1/2+y,1/2+z
1/2-x,1/2-y,1/2+z
1/2+x,1/2-y,1/2-z
1/2-x,1/2+y,1/2-z
1/2-x,1/2-y,1/2-z
1/2+x,1/2+y,1/2-z
1/2-x,1/2+y,1/2+z
1/2+x,1/2-y,1/2+z
loop_
_atom_site_type_symbol
_atom_site_label
_atom_site_fract_x
_atom_site_fract_y
_atom_site_fract_z
Si Si1 0.291679 0.552454 0.297160
Si Si2 0.408870 0.887155 0.796636
Si Si3 0.054068 0.812352 0.704562
Si Si4 0.349629 0.640346 0.296634
Si Si5 0.817337 0.446996 0.797589
Si Si6 0.500000 0.053405 0.792536
Si Si7 0.803849 0.236860 0.797601
Si Si8 0.600272 0.783545 0.799503
O O1 0.297664 0.550248 0.500000
O O2 0.299360 0.500000 0.229416
O O3 0.327163 0.592352 0.230796
O O4 0.236200 0.565460 0.262939
O O5 0.358261 0.911573 0.758945
O O6 0.452491 0.919320 0.735408
O O7 0.411570 0.834413 0.729201
O O8 0.413208 0.884509 0.000000
O O9 0.053658 0.810586 0.500000
O O10 0.095081 0.848944 0.754500
O O11 0.071476 0.761355 0.768351
O O12 0.000000 0.822587 0.762711
O O13 0.345333 0.639512 0.500000
O O14 0.319305 0.685342 0.235885
O O15 0.827740 0.500000 0.736462
O O16 0.816764 0.447817 0.000000
O O17 0.500000 0.000000 0.736871
O O18 0.500000 0.053107 0.000000
O O19 0.750000 0.250000 0.750000
O O20 0.843549 0.272160 0.725844
O O21 0.808301 0.237514 0.000000
O O22 0.590249 0.784873 0.000000
#
# Coordination Sequence:
#
# PCOD9520917 Si02
#       8
#    16  16  16  16  16   8  16  16
#     4   9  18  34  56  79 103 133 169 209 253 300
#     4  10  20  33  53  75  98 129 169 217 262 305
#     4   9  18  33  54  77 103 134 168 207 251 304
#     4   9  19  34  52  76 103 132 168 208 251 301
#     4  10  21  35  50  72 102 134 169 209 255 307
#     4   9  18  32  51  75  97 123 167 219 266 307
#     4  10  20  33  49  71 103 136 167 204 247 299
#     4   9  19  33  49  73 101 131 168 208 253 299
#
# _framework density 19.017052
#
# number of rings (size 3 to 8) (size 9 to 14) (size 15 to 20)
#    0.000    2.600    0.000    1.200    2.800    3.200 
#    0.000    0.333    0.000    1.600    0.000    2.800 
#    0.000    0.000    0.000    0.000    0.000    0.000 
#
# Total GULP energy -334755.339993 kJ/mol
# GULP energy per Si atom -5579.255667 kJ/mol
# Density = 1.897377 g / cm^3
# Si number density = 19.017052 Si / 1000 Ang^3
#
#
#
# Elastic Constant Matrix: (Units=GPa)
#
#
# Indices 1 2 3 4 5 6 
#
# 1 145.0092 97.2270 -7.4857 0.0000 0.0000 0.0000
# 2 97.2270 146.2615 7.5354 0.0000 0.0000 0.0000
# 3 -7.4857 7.5354 15.6118 0.0000 0.0000 0.0000
# 4 0.0000 0.0000 0.0000 14.5284 0.0000 0.0000
# 5 0.0000 0.0000 0.0000 0.0000 6.7017 0.0000
# 6 0.0000 0.0000 0.0000 0.0000 0.0000 6.0481
#
#
#
# Elastic Compliance Matrix: (Units=1/GPa)
#
#
# Indices 1 2 3 4 5 6 
#
# 1 0.014261 -0.010083 0.011705 0.000000 0.000000 0.000000
# 2 -0.010083 0.014140 -0.011660 0.000000 0.000000 0.000000
# 3 0.011705 -0.011660 0.075294 0.000000 0.000000 0.000000
# 4 0.000000 0.000000 0.000000 0.068831 0.000000 0.000000
# 5 0.000000 0.000000 0.000000 0.000000 0.149216 0.000000
# 6 0.000000 0.000000 0.000000 0.000000 0.000000 0.165341
#
#
# Mechanical properties :
#
#
# Convention : Reuss Voigt Hill
#
# Bulk Modulus (GPa) = 11.95894 55.71510 33.83702
# Shear Modulus (GPa) = 9.34522 19.42936 14.38729
#
# Velocity S-wave (km/s) = 2.21919 3.19984 2.75352
# Velocity P-wave (km/s) = 3.58728 6.55843 5.28591
#
# Compressibility (1/GPa) = 0.08361943
#
# Stress axis : x y z
#
# Youngs Moduli (GPa) = 70.12258 70.71981 13.28121
#
# Poissons Ratio (x) = 0.71305 -0.15545
# Poissons Ratio (y) = 0.70703 0.15486
# Poissons Ratio (z) = -0.82076 0.82458
#
# Static dielectric constant tensor:
#      x y z
#    x 1.641600 0.000000 0.000000 
#    y 0.000000 1.679870 0.000000 
#    z 0.000000 0.000000 1.697870 
# 
# From -- ./inp_files/15609.got.cif
#   From: 2010.05.17/outbox.cif.g08.bks.cpg/sg71_8_cif.got.tgz:15609.got - 2010.06.03 16:22:01.
