data_PCOD9520431
_publ_section_title
;
Structure prediction by ZEFSAII (Michael W. Deem and Ramdas Pophale) SiO2 
 PCOD9520431
Probable space group: I M M M
;
_chemical_formula_sum "Si O2"
_cell_formula_units_Z 88
_cell_length_a 16.775106
_cell_length_b 22.543885
_cell_length_c 11.985721
_cell_angle_alpha 90.000000
_cell_angle_beta 90.000000
_cell_angle_gamma 90.000000
_cell_volume 4532.712750
_symmetry_space_group_name_H-M "I M M M"
_symmetry_group_IT_number 71
_symmetry_cell_setting 'orthorhombic'
loop_
_space_group_symop_operation_xyz
x,y,z
-x,-y,z
x,-y,-z
-x,y,-z
-x,-y,-z
x,y,-z
-x,y,z
x,-y,z
1/2+x,1/2+y,1/2+z
1/2-x,1/2-y,1/2+z
1/2+x,1/2-y,1/2-z
1/2-x,1/2+y,1/2-z
1/2-x,1/2-y,1/2-z
1/2+x,1/2+y,1/2-z
1/2-x,1/2+y,1/2+z
1/2+x,1/2-y,1/2+z
loop_
_atom_site_type_symbol
_atom_site_label
_atom_site_fract_x
_atom_site_fract_y
_atom_site_fract_z
Si Si1 0.628772 0.223318 0.291691
Si Si2 0.805716 0.816388 0.368107
Si Si3 0.238930 0.118502 0.000000
Si Si4 0.235487 0.066037 0.247503
Si Si5 0.914006 0.618612 0.500000
Si Si6 0.915699 0.798592 0.000000
Si Si7 0.585853 0.910034 0.754765
O O1 0.717198 0.206890 0.336334
O O2 0.636529 0.268852 0.189646
O O3 0.587423 0.257017 0.392288
O O4 0.590139 0.161206 0.258767
O O5 0.814952 0.819774 0.500000
O O6 0.809850 0.881109 0.310728
O O7 0.235037 0.081952 0.115314
O O8 0.326856 0.149909 0.000000
O O9 0.164439 0.162640 0.000000
O O10 0.328716 0.067461 0.286864
O O11 0.204031 0.000000 0.265461
O O12 0.913937 0.579957 0.387869
O O13 0.000000 0.651491 0.500000
O O14 0.000000 0.832712 0.000000
O O15 0.500000 0.930442 0.709098
#
# Coordination Sequence:
#
# PCOD9520431 Si02
#       7
#    16  16   8  16   8   8  16
#     4  10  20  33  53  81 113 149 184 228 283 339
#     4  10  20  33  55  82 109 141 192 233 282 339
#     4  10  19  36  54  82 110 145 193 243 284 335
#     4  10  20  34  55  78 107 147 189 236 281 334
#     4   8  16  29  49  75 112 147 180 226 274 330
#     4  12  22  35  57  85 117 149 187 233 287 343
#     4   9  18  31  48  78 113 147 182 221 275 338
#
# _framework density 19.414421999999998
#
# number of rings (size 3 to 8) (size 9 to 14) (size 15 to 20)
#    0.000    2.182    2.727    0.818    3.818    0.727 
#    0.000    0.000    0.000    6.545    0.000    2.545 
#    0.000    1.455    0.000    0.000    0.000    0.000 
#
# Total GULP energy -245240.825921 kJ/mol
# GULP energy per Si atom -5573.655135 kJ/mol
# Density = 1.937023 g / cm^3
# Si number density = 19.414422 Si / 1000 Ang^3
#
#
#
# Elastic Constant Matrix: (Units=GPa)
#
#
# Indices 1 2 3 4 5 6 
#
# 1 57.2821 30.9384 -3.0057 0.0000 0.0000 0.0000
# 2 30.9384 122.4490 41.9223 0.0000 0.0000 0.0000
# 3 -3.0057 41.9223 102.2521 0.0000 0.0000 0.0000
# 4 0.0000 0.0000 0.0000 7.9920 0.0000 0.0000
# 5 0.0000 0.0000 0.0000 0.0000 -28.7931 0.0000
# 6 0.0000 0.0000 0.0000 0.0000 0.0000 -2.0173
#
#
#
# Elastic Compliance Matrix: (Units=1/GPa)
#
#
# Indices 1 2 3 4 5 6 
#
# 1 0.021114 -0.006453 0.003266 0.000000 0.000000 0.000000
# 2 -0.006453 0.011472 -0.004893 0.000000 0.000000 0.000000
# 3 0.003266 -0.004893 0.011882 0.000000 0.000000 0.000000
# 4 0.000000 0.000000 0.000000 0.125124 0.000000 0.000000
# 5 0.000000 0.000000 0.000000 0.000000 -0.034730 0.000000
# 6 0.000000 0.000000 0.000000 0.000000 0.000000 -0.495709
#
#
# Mechanical properties :
#
#
# Convention : Reuss Voigt Hill
#
# Bulk Modulus (GPa) = 35.32497 46.85479 41.08988
# Shear Modulus (GPa) = -14.91423 9.57820 -2.66802
#
# Velocity S-wave (km/s) = -2.77466 2.22357 -1.17355
# Velocity P-wave (km/s) = 2.82308 5.54786 4.40162
#
# Compressibility (1/GPa) = 0.02830859
#
# Stress axis : x y z
#
# Youngs Moduli (GPa) = 47.36156 87.16567 84.16119
#
# Poissons Ratio (x) = 0.56249 -0.27490
# Poissons Ratio (y) = 0.30563 0.41182
# Poissons Ratio (z) = -0.15470 0.42652
#
# Static dielectric constant tensor:
#      x y z
#    x 1.717810 0.000000 0.000000 
#    y 0.000000 1.682320 0.000000 
#    z 0.000000 0.000000 1.675660 
# 
# From -- ./inp_files/23991.got.cif
#   From: 2010.05.17/outbox.cif.g08.bks.cpg/sg71_12_cif.got.tgz:23991.got - 2010.06.03 16:22:01.
