data_PCOD9520677
_publ_section_title
;
Structure prediction by ZEFSAII (Michael W. Deem and Ramdas Pophale) SiO2 
 PCOD9520677
Probable space group: I M M M
;
_chemical_formula_sum "Si O2"
_cell_formula_units_Z 56
_cell_length_a 37.004845
_cell_length_b 7.314273
_cell_length_c 9.690475
_cell_angle_alpha 90.000000
_cell_angle_beta 90.000000
_cell_angle_gamma 90.000000
_cell_volume 2622.858255
_symmetry_space_group_name_H-M "I M M M"
_symmetry_group_IT_number 71
_symmetry_cell_setting 'orthorhombic'
loop_
_space_group_symop_operation_xyz
x,y,z
-x,-y,z
x,-y,-z
-x,y,-z
-x,-y,-z
x,y,-z
-x,y,z
x,-y,z
1/2+x,1/2+y,1/2+z
1/2-x,1/2-y,1/2+z
1/2+x,1/2-y,1/2-z
1/2-x,1/2+y,1/2-z
1/2-x,1/2-y,1/2-z
1/2+x,1/2+y,1/2-z
1/2-x,1/2+y,1/2+z
1/2+x,1/2-y,1/2+z
loop_
_atom_site_type_symbol
_atom_site_label
_atom_site_fract_x
_atom_site_fract_y
_atom_site_fract_z
Si Si1 0.214973 0.281750 0.843715
Si Si2 0.932838 0.277586 0.658157
Si Si3 0.851025 0.277258 0.658509
Si Si4 0.000000 0.276589 0.158282
O O1 0.210837 0.500000 0.853544
O O2 0.250000 0.250000 0.750000
O O3 0.179535 0.213036 0.763447
O O4 0.218966 0.211630 0.000000
O O5 0.940290 0.222907 0.500000
O O6 0.932952 0.500000 0.659471
O O7 0.891960 0.221082 0.693818
O O8 0.964155 0.217359 0.760524
O O9 0.843327 0.222636 0.500000
O O10 0.850684 0.500000 0.659343
O O11 0.000000 0.500000 0.159583
O O12 0.000000 0.218894 0.000000
#
# Coordination Sequence:
#
# PCOD9520677 Si02
#       4
#    16  16  16   8
#     4  10  20  32  47  67  89 115 147 182 221 264
#     4   8  13  21  32  45  64  94 130 164 200 245
#     4   8  14  25  40  56  75 102 136 173 212 254
#     4   9  15  19  25  41  65  93 126 165 204 239
#
# _framework density 21.350753000000001
#
# number of rings (size 3 to 8) (size 9 to 14) (size 15 to 20)
#    0.000    3.286    0.000    3.000    0.000    4.571 
#    0.000    5.714    0.000    0.000    0.000    0.000 
#    0.000    0.000    0.000    1.286    0.000   26.286 
#
# Total GULP energy -156331.310227 kJ/mol
# GULP energy per Si atom -5583.261080 kJ/mol
# Density = 2.130216 g / cm^3
# Si number density = 21.350753 Si / 1000 Ang^3
#
#
#
# Elastic Constant Matrix: (Units=GPa)
#
#
# Indices 1 2 3 4 5 6 
#
# 1 217.9143 4.4414 177.4736 0.0000 0.0000 0.0000
# 2 4.4414 86.8724 7.5963 0.0000 0.0000 0.0000
# 3 177.4736 7.5963 214.0643 0.0000 0.0000 0.0000
# 4 0.0000 0.0000 0.0000 -5.5222 0.0000 0.0000
# 5 0.0000 0.0000 0.0000 0.0000 43.9793 0.0000
# 6 0.0000 0.0000 0.0000 0.0000 0.0000 -0.5329
#
#
#
# Elastic Compliance Matrix: (Units=1/GPa)
#
#
# Indices 1 2 3 4 5 6 
#
# 1 0.014137 0.000303 -0.011731 0.000000 0.000000 0.000000
# 2 0.000303 0.011553 -0.000661 0.000000 0.000000 0.000000
# 3 -0.011731 -0.000661 0.014421 0.000000 0.000000 0.000000
# 4 0.000000 0.000000 0.000000 -0.181088 0.000000 0.000000
# 5 0.000000 0.000000 0.000000 0.000000 0.022738 0.000000
# 6 0.000000 0.000000 0.000000 0.000000 0.000000 -1.876529
#
#
# Mechanical properties :
#
#
# Convention : Reuss Voigt Hill
#
# Bulk Modulus (GPa) = 62.76478 99.76375 81.26427
# Shear Modulus (GPa) = -2.54417 29.54084 13.49833
#
# Velocity S-wave (km/s) = -1.09279 3.72371 2.51712
# Velocity P-wave (km/s) = 5.27907 8.08180 6.82584
#
# Compressibility (1/GPa) = 0.01593250
#
# Stress axis : x y z
#
# Youngs Moduli (GPa) = 70.73702 86.55418 69.34392
#
# Poissons Ratio (x) = -0.02623 0.81348
# Poissons Ratio (y) = -0.02144 0.04585
# Poissons Ratio (z) = 0.82983 0.05723
#
# Static dielectric constant tensor:
#      x y z
#    x 1.730510 0.000000 0.000000 
#    y 0.000000 2.264930 0.000000 
#    z 0.000000 0.000000 1.705220 
# 
# From -- ./inp_files/16072.got.cif
#   From: 2010.05.17/outbox.cif.g08.bks.cpg/sg71_9_cif.got.tgz:16072.got - 2010.06.03 16:22:01.
