data_PCOD9520647
_publ_section_title
;
Structure prediction by ZEFSAII (Michael W. Deem and Ramdas Pophale) SiO2 
 PCOD9520647
Probable space group: I M M M
;
_chemical_formula_sum "Si O2"
_cell_formula_units_Z 104
_cell_length_a 9.498285
_cell_length_b 21.625500
_cell_length_c 23.540447
_cell_angle_alpha 90.000000
_cell_angle_beta 90.000000
_cell_angle_gamma 90.000000
_cell_volume 4835.329336
_symmetry_space_group_name_H-M "I M M M"
_symmetry_group_IT_number 71
_symmetry_cell_setting 'orthorhombic'
loop_
_space_group_symop_operation_xyz
x,y,z
-x,-y,z
x,-y,-z
-x,y,-z
-x,-y,-z
x,y,-z
-x,y,z
x,-y,z
1/2+x,1/2+y,1/2+z
1/2-x,1/2-y,1/2+z
1/2+x,1/2-y,1/2-z
1/2-x,1/2+y,1/2-z
1/2-x,1/2-y,1/2-z
1/2+x,1/2+y,1/2-z
1/2-x,1/2+y,1/2+z
1/2+x,1/2-y,1/2+z
loop_
_atom_site_type_symbol
_atom_site_label
_atom_site_fract_x
_atom_site_fract_y
_atom_site_fract_z
Si Si1 0.170300 0.101689 0.440077
Si Si2 0.159413 0.924204 0.891713
Si Si3 0.169980 0.248718 0.436465
Si Si4 0.156422 0.428502 0.289625
Si Si5 0.663042 0.740864 0.191114
Si Si6 0.659980 0.075539 0.000000
Si Si7 0.661882 0.407644 0.181729
O O1 0.222111 0.076018 0.500000
O O2 0.200965 0.175063 0.439292
O O3 0.213498 0.073236 0.380561
O O4 0.000000 0.096832 0.439574
O O5 0.233861 0.901871 0.834561
O O6 0.000000 0.902142 0.897244
O O7 0.152790 0.000000 0.891963
O O8 0.256762 0.905640 0.944058
O O9 0.216361 0.272982 0.500000
O O10 0.215295 0.266489 0.371312
O O11 0.000000 0.256029 0.435513
O O12 0.141578 0.500000 0.306729
O O13 0.229943 0.427253 0.229295
O O14 0.000000 0.401326 0.290473
O O15 0.500000 0.760762 0.199272
O O16 0.750000 0.750000 0.250000
O O17 0.658736 0.666780 0.182842
O O18 0.500000 0.097525 0.000000
O O19 0.656291 0.000000 0.000000
O O20 0.500000 0.428304 0.192250
#
# Coordination Sequence:
#
# PCOD9520647 Si02
#       7
#    16  16  16  16  16   8  16
#     4   7  10  19  38  63  87 108 136 181 228 262
#     4   9  16  26  41  61  84 110 142 180 222 267
#     4   7  10  19  37  61  87 114 146 182 218 257
#     4  10  20  32  45  63  88 118 152 189 231 276
#     4   9  17  28  44  69  97 122 149 184 227 273
#     4   9  15  23  37  59  87 113 137 173 221 267
#     4   9  17  29  46  68  91 117 150 186 226 272
#
# _framework density 21.508358000000001
#
# number of rings (size 3 to 8) (size 9 to 14) (size 15 to 20)
#    0.000    3.462    0.000    3.923    0.000    4.308 
#    0.000    0.000    0.000    1.385    2.000    7.538 
#    0.000    0.000    0.000    0.000    0.000    0.000 
#
# Total GULP energy -289569.771461 kJ/mol
# GULP energy per Si atom -5568.649451 kJ/mol
# Density = 2.145940 g / cm^3
# Si number density = 21.508358 Si / 1000 Ang^3
#
#
#
# Elastic Constant Matrix: (Units=GPa)
#
#
# Indices 1 2 3 4 5 6 
#
# 1 122.6761 -0.4882 91.4858 0.0000 0.0000 0.0000
# 2 -0.4882 64.7921 6.2182 0.0000 0.0000 0.0000
# 3 91.4858 6.2182 236.6736 0.0000 0.0000 0.0000
# 4 0.0000 0.0000 0.0000 -3.7237 0.0000 0.0000
# 5 0.0000 0.0000 0.0000 0.0000 0.1790 0.0000
# 6 0.0000 0.0000 0.0000 0.0000 0.0000 6.2340
#
#
#
# Elastic Compliance Matrix: (Units=1/GPa)
#
#
# Indices 1 2 3 4 5 6 
#
# 1 0.011470 0.000513 -0.004447 0.000000 0.000000 0.000000
# 2 0.000513 0.015496 -0.000606 0.000000 0.000000 0.000000
# 3 -0.004447 -0.000606 0.005960 0.000000 0.000000 0.000000
# 4 0.000000 0.000000 0.000000 -0.268547 0.000001 0.000000
# 5 0.000000 0.000000 0.000000 0.000001 5.585754 0.000000
# 6 0.000000 0.000000 0.000000 0.000000 0.000000 0.160410
#
#
# Mechanical properties :
#
#
# Convention : Reuss Voigt Hill
#
# Bulk Modulus (GPa) = 41.93358 68.73037 55.33197
# Shear Modulus (GPa) = 0.90456 22.33294 11.61875
#
# Velocity S-wave (km/s) = 0.64921 3.22582 2.32673
# Velocity P-wave (km/s) = 4.48338 6.77489 5.74455
#
# Compressibility (1/GPa) = 0.02384724
#
# Stress axis : x y z
#
# Youngs Moduli (GPa) = 87.18304 64.53297 167.77933
#
# Poissons Ratio (x) = -0.03312 0.74615
# Poissons Ratio (y) = -0.04475 0.10159
# Poissons Ratio (z) = 0.38772 0.03908
#
# Static dielectric constant tensor:
#      x y z
#    x 1.722210 0.000000 0.000000 
#    y 0.000000 1.916970 0.000000 
#    z 0.000000 0.000000 1.851350 
# 
# From -- ./inp_files/58003.got.cif
#   From: 2010.05.17/outbox.cif.g08.bks.cpg/sg71_30_cif.got.tgz:58003.got - 2010.06.03 16:22:01.
