data_PCOD9520878
_publ_section_title
;
Structure prediction by ZEFSAII (Michael W. Deem and Ramdas Pophale) SiO2 
 PCOD9520878
Probable space group: I M M M
;
_chemical_formula_sum "Si O2"
_cell_formula_units_Z 96
_cell_length_a 12.748012
_cell_length_b 15.190907
_cell_length_c 30.298703
_cell_angle_alpha 90.000000
_cell_angle_beta 90.000000
_cell_angle_gamma 90.000000
_cell_volume 5867.460932
_symmetry_space_group_name_H-M "I M M M"
_symmetry_group_IT_number 71
_symmetry_cell_setting 'orthorhombic'
loop_
_space_group_symop_operation_xyz
x,y,z
-x,-y,z
x,-y,-z
-x,y,-z
-x,-y,-z
x,y,-z
-x,y,z
x,-y,z
1/2+x,1/2+y,1/2+z
1/2-x,1/2-y,1/2+z
1/2+x,1/2-y,1/2-z
1/2-x,1/2+y,1/2-z
1/2-x,1/2-y,1/2-z
1/2+x,1/2+y,1/2-z
1/2-x,1/2+y,1/2+z
1/2+x,1/2-y,1/2+z
loop_
_atom_site_type_symbol
_atom_site_label
_atom_site_fract_x
_atom_site_fract_y
_atom_site_fract_z
Si Si1 0.000000 0.893683 0.899600
Si Si2 0.216641 0.895988 0.052699
Si Si3 0.380170 0.096556 0.810582
Si Si4 0.000000 0.106390 0.797852
Si Si5 0.290121 0.650925 0.245559
Si Si6 0.374360 0.398983 0.150319
Si Si7 0.624597 0.219702 0.893245
O O1 0.893440 0.869019 0.924705
O O2 0.000000 0.864189 0.848803
O O3 0.000000 0.000000 0.898902
O O4 0.306681 0.832622 0.071456
O O5 0.236353 0.000000 0.063325
O O6 0.208233 0.889557 0.000000
O O7 0.500000 0.110590 0.795752
O O8 0.300637 0.097922 0.770357
O O9 0.355011 0.170481 0.846526
O O10 0.374333 0.000000 0.832307
O O11 0.897017 0.138697 0.772790
O O12 0.000000 0.000000 0.796678
O O13 0.250000 0.750000 0.250000
O O14 0.313953 0.621801 0.195753
O O15 0.500000 0.391470 0.159516
O O16 0.354137 0.500000 0.136729
O O17 0.350003 0.322457 0.114976
O O18 0.500000 0.211542 0.902350
#
# Coordination Sequence:
#
# PCOD9520878 Si02
#       7
#     8  16  16   8  16  16  16
#     4   9  19  34  53  78 108 142 178 213 255 310
#     4  10  20  35  56  82 112 142 171 211 267 327
#     4  10  20  33  48  69 102 140 173 211 264 318
#     4  11  22  35  54  79 108 147 190 230 267 311
#     4  12  22  32  51  74 105 140 186 232 265 306
#     4  10  20  36  55  74 101 140 185 228 272 313
#     4  10  20  34  52  77 104 135 173 216 263 320
#
# _framework density 16.361422000000001
#
# number of rings (size 3 to 8) (size 9 to 14) (size 15 to 20)
#    0.000    1.667    2.500    3.250    1.167    3.667 
#    0.000    0.833    0.000    0.500    0.000    2.333 
#    0.000    1.333    0.000    0.000    0.000    0.000 
#
# Total GULP energy -267769.432236 kJ/mol
# GULP energy per Si atom -5578.529838 kJ/mol
# Density = 1.632418 g / cm^3
# Si number density = 16.361422 Si / 1000 Ang^3
#
#
#
# Elastic Constant Matrix: (Units=GPa)
#
#
# Indices 1 2 3 4 5 6 
#
# 1 71.2807 36.7838 43.5237 0.0000 0.0000 0.0000
# 2 36.7838 115.1560 30.0123 0.0000 0.0000 0.0000
# 3 43.5237 30.0123 66.7021 0.0000 0.0000 0.0000
# 4 0.0000 0.0000 0.0000 23.8445 0.0000 0.0000
# 5 0.0000 0.0000 0.0000 0.0000 18.2992 0.0000
# 6 0.0000 0.0000 0.0000 0.0000 0.0000 27.2988
#
#
#
# Elastic Compliance Matrix: (Units=1/GPa)
#
#
# Indices 1 2 3 4 5 6 
#
# 1 0.025018 -0.004233 -0.014420 0.000000 0.000000 0.000000
# 2 -0.004233 0.010554 -0.001986 0.000000 0.000000 0.000000
# 3 -0.014420 -0.001986 0.025295 0.000000 0.000000 0.000000
# 4 0.000000 0.000000 0.000000 0.041938 0.000000 0.000000
# 5 0.000000 0.000000 0.000000 0.000000 0.054647 0.000000
# 6 0.000000 0.000000 0.000000 0.000000 0.000000 0.036632
#
#
# Mechanical properties :
#
#
# Convention : Reuss Voigt Hill
#
# Bulk Modulus (GPa) = 51.05208 52.64205 51.84707
# Shear Modulus (GPa) = 20.67031 23.40977 22.04004
#
# Velocity S-wave (km/s) = 3.55823 3.78668 3.67423
# Velocity P-wave (km/s) = 6.93915 7.16680 7.05389
#
# Compressibility (1/GPa) = 0.01958784
#
# Stress axis : x y z
#
# Youngs Moduli (GPa) = 39.97059 94.75268 39.53367
#
# Poissons Ratio (x) = 0.40112 0.57007
# Poissons Ratio (y) = 0.16921 0.07853
# Poissons Ratio (z) = 0.57637 0.18821
#
# Static dielectric constant tensor:
#      x y z
#    x 1.547120 0.000000 0.000000 
#    y 0.000000 1.480030 0.000000 
#    z 0.000000 0.000000 1.531410 
# 
# From -- ./inp_files/33193.got.cif
#   From: 2010.05.17/outbox.cif.g08.bks.cpg/sg71_17_cif.got.tgz:33193.got - 2010.06.03 16:22:01.
