data_PCOD9520007
_publ_section_title
;
Structure prediction by ZEFSAII (Michael W. Deem and Ramdas Pophale) SiO2 
 PCOD9520007
Probable space group: I M M M
;
_chemical_formula_sum "Si O2"
_cell_formula_units_Z 80
_cell_length_a 23.765327
_cell_length_b 21.856203
_cell_length_c 7.500453
_cell_angle_alpha 90.000000
_cell_angle_beta 90.000000
_cell_angle_gamma 90.000000
_cell_volume 3895.883882
_symmetry_space_group_name_H-M "I M M M"
_symmetry_group_IT_number 71
_symmetry_cell_setting 'orthorhombic'
loop_
_space_group_symop_operation_xyz
x,y,z
-x,-y,z
x,-y,-z
-x,y,-z
-x,-y,-z
x,y,-z
-x,y,z
x,-y,z
1/2+x,1/2+y,1/2+z
1/2-x,1/2-y,1/2+z
1/2+x,1/2-y,1/2-z
1/2-x,1/2+y,1/2-z
1/2-x,1/2-y,1/2-z
1/2+x,1/2+y,1/2-z
1/2-x,1/2+y,1/2+z
1/2+x,1/2-y,1/2+z
loop_
_atom_site_type_symbol
_atom_site_label
_atom_site_fract_x
_atom_site_fract_y
_atom_site_fract_z
Si Si1 0.130642 0.381073 0.214813
Si Si2 0.565032 0.244093 0.211178
Si Si3 0.367738 0.635820 0.214576
Si Si4 0.061004 0.928240 0.000000
Si Si5 0.563796 0.000000 0.282036
Si Si6 0.751421 0.072013 0.716900
O O1 0.097638 0.319570 0.262132
O O2 0.095050 0.439231 0.276839
O O3 0.194327 0.394145 0.276661
O O4 0.132671 0.382228 0.000000
O O5 0.500000 0.244316 0.282098
O O6 0.607290 0.298161 0.272429
O O7 0.559528 0.253350 0.000000
O O8 0.407252 0.590129 0.321255
O O9 0.304882 0.614032 0.264980
O O10 0.371795 0.631215 0.000000
O O11 0.000000 0.897799 0.000000
O O12 0.056071 0.000000 0.000000
O O13 0.500000 0.000000 0.223638
O O14 0.564652 0.000000 0.500000
O O15 0.750195 0.069311 0.500000
O O16 0.754661 0.000000 0.774972
#
# Coordination Sequence:
#
# PCOD9520007 Si02
#       6
#    16  16  16   8   8  16
#     4  10  19  33  57  87 114 151 201 251 305 361
#     4  10  22  39  56  80 118 160 204 249 300 367
#     4  10  22  41  64  89 122 168 204 248 309 367
#     4  11  24  40  62  96 128 155 205 263 303 361
#     4   9  16  28  49  81 117 149 193 250 304 357
#     4   9  17  34  60  87 118 154 197 249 305 369
#
# _framework density 20.534493999999999
#
# number of rings (size 3 to 8) (size 9 to 14) (size 15 to 20)
#    0.000    2.200    1.000    1.800    1.400    4.400 
#    1.800    1.500    0.000    1.800    0.000    0.000 
#    0.000    0.000    0.000    0.000    0.000    0.000 
#
# Total GULP energy -223056.522761 kJ/mol
# GULP energy per Si atom -5576.413069 kJ/mol
# Density = 2.048776 g / cm^3
# Si number density = 20.534494 Si / 1000 Ang^3
#
#
#
# Elastic Constant Matrix: (Units=GPa)
#
#
# Indices 1 2 3 4 5 6 
#
# 1 237.9767 108.3388 20.3036 0.0000 0.0000 0.0000
# 2 108.3388 178.9213 7.0125 0.0000 0.0000 0.0000
# 3 20.3036 7.0125 45.8151 0.0000 0.0000 0.0000
# 4 0.0000 0.0000 0.0000 -35.2353 0.0000 0.0000
# 5 0.0000 0.0000 0.0000 0.0000 -1.3146 0.0000
# 6 0.0000 0.0000 0.0000 0.0000 0.0000 27.2095
#
#
#
# Elastic Compliance Matrix: (Units=1/GPa)
#
#
# Indices 1 2 3 4 5 6 
#
# 1 0.005998 -0.003549 -0.002115 0.000000 0.000000 0.000000
# 2 -0.003549 0.007723 0.000391 0.000000 0.000000 0.000000
# 3 -0.002115 0.000391 0.022704 0.000000 0.000000 0.000000
# 4 0.000000 0.000000 0.000000 -0.028381 0.000000 0.000000
# 5 0.000000 0.000000 0.000000 0.000000 -0.760702 0.000000
# 6 0.000000 0.000000 0.000000 0.000000 0.000000 0.036752
#
#
# Mechanical properties :
#
#
# Convention : Reuss Voigt Hill
#
# Bulk Modulus (GPa) = 38.64178 81.55813 60.09995
# Shear Modulus (GPa) = -7.17636 19.93581 6.37973
#
# Velocity S-wave (km/s) = -1.87146 3.11922 1.76453
# Velocity P-wave (km/s) = 3.76683 7.26475 5.78643
#
# Compressibility (1/GPa) = 0.02587873
#
# Stress axis : x y z
#
# Youngs Moduli (GPa) = 166.71459 129.48727 44.04444
#
# Poissons Ratio (x) = 0.45957 0.09315
# Poissons Ratio (y) = 0.59169 -0.01721
# Poissons Ratio (z) = 0.35260 -0.05060
#
# Static dielectric constant tensor:
#      x y z
#    x 1.744900 0.000000 0.000000 
#    y 0.000000 1.712140 0.000000 
#    z 0.000000 0.000000 1.791880 
# 
# From -- ./inp_files/12398.got.cif
#   From: 2010.05.17/outbox.cif.g08.bks.cpg/sg71_7_cif.got.tgz:12398.got - 2010.06.03 16:22:01.
