data_PCOD9520604
_publ_section_title
;
Structure prediction by ZEFSAII (Michael W. Deem and Ramdas Pophale) SiO2 
 PCOD9520604
Probable space group: I M M M
;
_chemical_formula_sum "Si O2"
_cell_formula_units_Z 96
_cell_length_a 9.812365
_cell_length_b 15.245564
_cell_length_c 32.297946
_cell_angle_alpha 90.000000
_cell_angle_beta 90.000000
_cell_angle_gamma 90.000000
_cell_volume 4831.612479
_symmetry_space_group_name_H-M "I M M M"
_symmetry_group_IT_number 71
_symmetry_cell_setting 'orthorhombic'
loop_
_space_group_symop_operation_xyz
x,y,z
-x,-y,z
x,-y,-z
-x,y,-z
-x,-y,-z
x,y,-z
-x,y,z
x,-y,z
1/2+x,1/2+y,1/2+z
1/2-x,1/2-y,1/2+z
1/2+x,1/2-y,1/2-z
1/2-x,1/2+y,1/2-z
1/2-x,1/2-y,1/2-z
1/2+x,1/2+y,1/2-z
1/2-x,1/2+y,1/2+z
1/2+x,1/2-y,1/2+z
loop_
_atom_site_type_symbol
_atom_site_label
_atom_site_fract_x
_atom_site_fract_y
_atom_site_fract_z
Si Si1 0.346984 0.103986 0.376951
Si Si2 0.157765 0.107747 0.697404
Si Si3 0.165950 0.898323 0.211921
Si Si4 0.844999 0.894609 0.877332
Si Si5 0.655368 0.149661 0.953941
Si Si6 0.346280 0.639150 0.046838
O O1 0.500000 0.140889 0.378635
O O2 0.256007 0.138705 0.339083
O O3 0.264782 0.114336 0.419487
O O4 0.358554 0.000000 0.369763
O O5 0.203716 0.138749 0.743140
O O6 0.000000 0.133090 0.690215
O O7 0.158236 0.000000 0.698119
O O8 0.207518 0.860206 0.167373
O O9 0.000000 0.898921 0.211295
O O10 0.211725 0.000000 0.212620
O O11 0.751360 0.875542 0.916321
O O12 0.000000 0.863264 0.884229
O O13 0.851585 0.000000 0.872945
O O14 0.500000 0.118342 0.947745
O O15 0.651034 0.255292 0.954627
O O16 0.700830 0.120396 0.000000
O O17 0.500000 0.609618 0.058306
O O18 0.317249 0.608312 0.000000
#
# Coordination Sequence:
#
# PCOD9520604 Si02
#       6
#    16  16  16  16  16  16
#     4  10  20  31  45  71 103 125 144 182 235 280
#     4   8  13  24  44  66  89 122 159 187 216 262
#     4   7  11  22  41  65  92 121 153 188 223 261
#     4   9  17  29  47  73 101 125 153 191 232 274
#     4   9  19  35  51  67  90 121 157 196 236 276
#     4   9  19  36  54  68  85 117 161 199 229 271
#
# _framework density 19.869143000000001
#
# number of rings (size 3 to 8) (size 9 to 14) (size 15 to 20)
#    0.000    3.333    0.000    3.500    0.000    3.333 
#    0.000    5.833    0.000    4.000    0.000    0.000 
#    0.000    0.000    0.000    0.000    0.000    0.000 
#
# Total GULP energy -267379.343050 kJ/mol
# GULP energy per Si atom -5570.402980 kJ/mol
# Density = 1.982392 g / cm^3
# Si number density = 19.869143 Si / 1000 Ang^3
#
#
#
# Elastic Constant Matrix: (Units=GPa)
#
#
# Indices 1 2 3 4 5 6 
#
# 1 116.8853 5.7209 121.6114 0.0000 0.0000 0.0000
# 2 5.7209 31.8866 4.1173 0.0000 0.0000 0.0000
# 3 121.6114 4.1173 207.0324 0.0000 0.0000 0.0000
# 4 0.0000 0.0000 0.0000 49.5271 0.0000 0.0000
# 5 0.0000 0.0000 0.0000 0.0000 14.7512 0.0000
# 6 0.0000 0.0000 0.0000 0.0000 0.0000 26.3791
#
#
#
# Elastic Compliance Matrix: (Units=1/GPa)
#
#
# Indices 1 2 3 4 5 6 
#
# 1 0.022169 -0.002302 -0.012976 0.000000 0.000000 0.000000
# 2 -0.002302 0.031681 0.000722 0.000000 0.000000 0.000000
# 3 -0.012976 0.000722 0.012438 0.000000 0.000000 0.000000
# 4 0.000000 0.000000 0.000000 0.020191 0.000000 0.000000
# 5 0.000000 0.000000 0.000000 0.000000 0.067791 0.000000
# 6 0.000000 0.000000 0.000000 0.000000 0.000000 0.037909
#
#
# Mechanical properties :
#
#
# Convention : Reuss Voigt Hill
#
# Bulk Modulus (GPa) = 26.89927 68.74483 47.82205
# Shear Modulus (GPa) = 21.39645 33.08846 27.24245
#
# Velocity S-wave (km/s) = 3.28513 4.08526 3.70685
# Velocity P-wave (km/s) = 5.28744 7.54496 6.51473
#
# Compressibility (1/GPa) = 0.03717573
#
# Stress axis : x y z
#
# Youngs Moduli (GPa) = 45.10753 31.56480 80.39728
#
# Poissons Ratio (x) = 0.07266 1.04328
# Poissons Ratio (y) = 0.10383 -0.05806
# Poissons Ratio (z) = 0.58534 -0.02279
#
# Static dielectric constant tensor:
#      x y z
#    x 1.678400 0.000000 0.000000 
#    y 0.000000 1.745620 0.000000 
#    z 0.000000 0.000000 1.729070 
# 
# From -- ./inp_files/63461.got.cif
#   From: 2010.05.17/outbox.cif.g08.bks.cpg/sg71_32_cif.got.tgz:63461.got - 2010.06.03 16:22:01.
