data_PCOD9520597
_publ_section_title
;
Structure prediction by ZEFSAII (Michael W. Deem and Ramdas Pophale) SiO2 
 PCOD9520597
Probable space group: I M M M
;
_chemical_formula_sum "Si O2"
_cell_formula_units_Z 96
_cell_length_a 7.394808
_cell_length_b 30.625661
_cell_length_c 18.095229
_cell_angle_alpha 90.000000
_cell_angle_beta 90.000000
_cell_angle_gamma 90.000000
_cell_volume 4098.042489
_symmetry_space_group_name_H-M "I M M M"
_symmetry_group_IT_number 71
_symmetry_cell_setting 'orthorhombic'
loop_
_space_group_symop_operation_xyz
x,y,z
-x,-y,z
x,-y,-z
-x,y,-z
-x,-y,-z
x,y,-z
-x,y,z
x,-y,z
1/2+x,1/2+y,1/2+z
1/2-x,1/2-y,1/2+z
1/2+x,1/2-y,1/2-z
1/2-x,1/2+y,1/2-z
1/2-x,1/2-y,1/2-z
1/2+x,1/2+y,1/2-z
1/2-x,1/2+y,1/2+z
1/2+x,1/2-y,1/2+z
loop_
_atom_site_type_symbol
_atom_site_label
_atom_site_fract_x
_atom_site_fract_y
_atom_site_fract_z
Si Si1 0.716486 0.766722 0.081838
Si Si2 0.796043 0.799114 0.296983
Si Si3 0.715334 0.646564 0.656416
Si Si4 0.792802 0.950811 0.161202
Si Si5 0.782026 0.547347 0.833121
Si Si6 0.780734 0.367903 0.917249
O O1 0.500000 0.760528 0.082176
O O2 0.785008 0.741812 0.156370
O O3 0.755428 0.818001 0.092575
O O4 0.782630 0.752229 0.000000
O O5 0.712452 0.827332 0.229393
O O6 0.801358 0.833676 0.362364
O O7 0.000000 0.786433 0.275404
O O8 0.500000 0.641069 0.669306
O O9 0.785425 0.597301 0.640837
O O10 0.791719 0.948087 0.250473
O O11 0.000000 0.951744 0.134126
O O12 0.716423 0.000000 0.143617
O O13 0.731780 0.500000 0.861919
O O14 0.726950 0.584967 0.887750
O O15 0.000000 0.549285 0.825414
O O16 0.000000 0.364577 0.913608
O O17 0.723643 0.360181 0.000000
#
# Coordination Sequence:
#
# PCOD9520597 Si02
#       6
#    16  16  16  16  16  16
#     4  10  22  38  55  77 107 142 175 212 263 315
#     4  10  20  36  55  77 104 136 176 216 258 308
#     4  10  20  34  56  84 107 134 174 215 258 308
#     4   9  17  31  52  78 107 134 165 211 262 309
#     4   9  17  29  45  66  95 133 175 216 259 305
#     4  10  20  31  45  69 101 138 179 220 261 304
#
# _framework density 23.425818
#
# number of rings (size 3 to 8) (size 9 to 14) (size 15 to 20)
#    0.000    2.333    1.667    1.000    0.000    3.667 
#    0.000    1.667    0.000    0.500    0.000    7.000 
#    0.000    0.000    0.000    0.000    0.000    0.000 
#
# Total GULP energy -267642.591603 kJ/mol
# GULP energy per Si atom -5575.887325 kJ/mol
# Density = 2.337250 g / cm^3
# Si number density = 23.425818 Si / 1000 Ang^3
#
#
#
# Elastic Constant Matrix: (Units=GPa)
#
#
# Indices 1 2 3 4 5 6 
#
# 1 80.1190 10.8065 21.4254 0.0000 0.0000 0.0000
# 2 10.8065 188.8992 -65.7276 0.0001 0.0000 0.0000
# 3 21.4254 -65.7276 533.2552 -0.0008 0.0000 0.0002
# 4 0.0000 0.0001 -0.0008 100.4227 0.0000 0.0000
# 5 0.0000 0.0000 0.0000 0.0000 17.5045 0.0000
# 6 0.0000 0.0000 0.0002 0.0000 0.0000 -7.6579
#
#
#
# Elastic Compliance Matrix: (Units=1/GPa)
#
#
# Indices 1 2 3 4 5 6 
#
# 1 0.012778 -0.000950 -0.000631 0.000000 0.000000 0.000000
# 2 -0.000950 0.005602 0.000729 0.000000 0.000000 0.000000
# 3 -0.000631 0.000729 0.001990 0.000000 0.000000 0.000000
# 4 0.000000 0.000000 0.000000 0.009958 0.000000 0.000000
# 5 0.000000 0.000000 0.000000 0.000000 0.057128 0.000000
# 6 0.000000 0.000000 0.000000 0.000000 0.000000 -0.130584
#
#
# Mechanical properties :
#
#
# Convention : Reuss Voigt Hill
#
# Bulk Modulus (GPa) = 53.57411 81.69799 67.63605
# Shear Modulus (GPa) = -142.04086 77.77181 -32.13452
#
# Velocity S-wave (km/s) = -7.79525 5.76812 -3.70774
# Velocity P-wave (km/s) = 7.62246 8.90576 3.25658
#
# Compressibility (1/GPa) = 0.01866573
#
# Stress axis : x y z
#
# Youngs Moduli (GPa) = 78.25801 178.51625 502.40656
#
# Poissons Ratio (x) = 0.16966 0.31680
# Poissons Ratio (y) = 0.07438 -0.36607
# Poissons Ratio (z) = 0.04935 -0.13007
#
# Static dielectric constant tensor:
#      x y z
#    x 1.881330 0.000000 0.000000 
#    y 0.000000 1.957050 0.000000 
#    z 0.000000 0.000000 1.826990 
# 
# From -- ./inp_files/14850.got.cif
#   From: 2010.05.17/outbox.cif.g08.bks.cpg/sg71_8_cif.got.tgz:14850.got - 2010.06.03 16:22:01.
