data_PCOD9520665
_publ_section_title
;
Structure prediction by ZEFSAII (Michael W. Deem and Ramdas Pophale) SiO2 
 PCOD9520665
Probable space group: I M M M
;
_chemical_formula_sum "Si O2"
_cell_formula_units_Z 88
_cell_length_a 31.715876
_cell_length_b 7.728409
_cell_length_c 18.858197
_cell_angle_alpha 90.000000
_cell_angle_beta 90.000000
_cell_angle_gamma 90.000000
_cell_volume 4622.394173
_symmetry_space_group_name_H-M "I M M M"
_symmetry_group_IT_number 71
_symmetry_cell_setting 'orthorhombic'
loop_
_space_group_symop_operation_xyz
x,y,z
-x,-y,z
x,-y,-z
-x,y,-z
-x,-y,-z
x,y,-z
-x,y,z
x,-y,z
1/2+x,1/2+y,1/2+z
1/2-x,1/2-y,1/2+z
1/2+x,1/2-y,1/2-z
1/2-x,1/2+y,1/2-z
1/2-x,1/2-y,1/2-z
1/2+x,1/2+y,1/2-z
1/2-x,1/2+y,1/2+z
1/2+x,1/2-y,1/2+z
loop_
_atom_site_type_symbol
_atom_site_label
_atom_site_fract_x
_atom_site_fract_y
_atom_site_fract_z
Si Si1 0.545134 0.291562 0.583215
Si Si2 0.635921 0.796870 0.580952
Si Si3 0.114606 0.295162 0.585357
Si Si4 0.951386 0.000000 0.413925
Si Si5 0.300666 0.801298 0.839014
Si Si6 0.209166 0.799630 0.818501
O O1 0.544995 0.238676 0.500000
O O2 0.500000 0.233992 0.613787
O O3 0.545911 0.500000 0.584972
O O4 0.589261 0.227671 0.613111
O O5 0.635165 0.730359 0.500000
O O6 0.672111 0.709191 0.625550
O O7 0.644958 0.000000 0.579253
O O8 0.119642 0.283855 0.500000
O O9 0.107712 0.500000 0.602597
O O10 0.075783 0.170355 0.606150
O O11 0.157775 0.230574 0.622817
O O12 0.953085 0.000000 0.500000
O O13 0.000000 0.000000 0.388511
O O14 0.253401 0.727447 0.849246
O O15 0.304802 0.792332 0.753845
O O16 0.299028 0.000000 0.863934
O O17 0.217162 0.000000 0.799111
#
# Coordination Sequence:
#
# PCOD9520665 Si02
#       6
#    16  16  16   8  16  16
#     4   8  14  26  45  67  90 119 157 200 245 294
#     4  10  20  32  46  69 101 132 166 209 256 304
#     4   9  18  33  54  81 111 143 178 218 266 316
#     4   9  18  32  52  82 114 142 177 219 266 324
#     4   9  19  35  53  74 102 134 172 213 253 310
#     4  10  20  33  52  74  98 134 174 213 259 310
#
# _framework density 19.037754
#
# number of rings (size 3 to 8) (size 9 to 14) (size 15 to 20)
#    0.000    2.818    0.000    1.636    1.273    3.273 
#    0.000    5.455    0.000    1.091    0.000    2.545 
#    0.000    0.000    0.000    0.000    0.000    0.000 
#
# Total GULP energy -244981.613843 kJ/mol
# GULP energy per Si atom -5567.763951 kJ/mol
# Density = 1.899442 g / cm^3
# Si number density = 19.037754 Si / 1000 Ang^3
#
#
#
# Elastic Constant Matrix: (Units=GPa)
#
#
# Indices 1 2 3 4 5 6 
#
# 1 184.2359 38.4564 50.6911 0.0000 0.0000 0.0000
# 2 38.4564 62.6791 9.3136 0.0000 0.0000 0.0000
# 3 50.6911 9.3136 22.7745 0.0000 0.0000 0.0000
# 4 0.0000 0.0000 0.0000 14.4240 0.0000 0.0000
# 5 0.0000 0.0000 0.0000 0.0000 -32.4280 0.0000
# 6 0.0000 0.0000 0.0000 0.0000 0.0000 18.9652
#
#
#
# Elastic Compliance Matrix: (Units=1/GPa)
#
#
# Indices 1 2 3 4 5 6 
#
# 1 0.015135 -0.004557 -0.031824 0.000000 0.000000 0.000000
# 2 -0.004557 0.018359 0.002636 0.000000 0.000000 0.000000
# 3 -0.031824 0.002636 0.113665 0.000000 0.000000 0.000000
# 4 0.000000 0.000000 0.000000 0.069329 0.000000 0.000000
# 5 0.000000 0.000000 0.000000 0.000000 -0.030838 0.000000
# 6 0.000000 0.000000 0.000000 0.000000 0.000000 0.052728
#
#
# Mechanical properties :
#
#
# Convention : Reuss Voigt Hill
#
# Bulk Modulus (GPa) = 12.55217 51.84577 32.19897
# Shear Modulus (GPa) = 15.04095 11.60746 13.32421
#
# Velocity S-wave (km/s) = 2.81385 2.47190 2.64840
# Velocity P-wave (km/s) = 4.14302 5.95309 5.12854
#
# Compressibility (1/GPa) = 0.07966752
#
# Stress axis : x y z
#
# Youngs Moduli (GPa) = 66.07065 54.46995 8.79778
#
# Poissons Ratio (x) = 0.24824 0.27998
# Poissons Ratio (y) = 0.30111 -0.02319
# Poissons Ratio (z) = 2.10265 -0.14358
#
# Static dielectric constant tensor:
#      x y z
#    x 1.701790 0.000000 0.000000 
#    y 0.000000 1.711040 0.000000 
#    z 0.000000 0.000000 1.634620 
# 
# From -- ./inp_files/8864.got.cif
#   From: 2010.05.17/outbox.cif.g08.bks.cpg/sg71_5_cif.got.tgz:8864.got - 2010.06.03 16:22:01.
