data_PCOD9520090
_publ_section_title
;
Structure prediction by ZEFSAII (Michael W. Deem and Ramdas Pophale) SiO2 
 PCOD9520090
Probable space group: I M M M
;
_chemical_formula_sum "Si O2"
_cell_formula_units_Z 88
_cell_length_a 23.141935
_cell_length_b 7.406718
_cell_length_c 23.712143
_cell_angle_alpha 90.000000
_cell_angle_beta 90.000000
_cell_angle_gamma 90.000000
_cell_volume 4064.398521
_symmetry_space_group_name_H-M "I M M M"
_symmetry_group_IT_number 71
_symmetry_cell_setting 'orthorhombic'
loop_
_space_group_symop_operation_xyz
x,y,z
-x,-y,z
x,-y,-z
-x,y,-z
-x,-y,-z
x,y,-z
-x,y,z
x,-y,z
1/2+x,1/2+y,1/2+z
1/2-x,1/2-y,1/2+z
1/2+x,1/2-y,1/2-z
1/2-x,1/2+y,1/2-z
1/2-x,1/2-y,1/2-z
1/2+x,1/2+y,1/2-z
1/2-x,1/2+y,1/2+z
1/2+x,1/2-y,1/2+z
loop_
_atom_site_type_symbol
_atom_site_label
_atom_site_fract_x
_atom_site_fract_y
_atom_site_fract_z
Si Si1 0.316965 0.214029 0.731621
Si Si2 0.934402 0.719967 0.437797
Si Si3 0.000000 0.779664 0.066866
Si Si4 0.338981 0.779214 0.147633
Si Si5 0.123771 0.789597 0.112041
Si Si6 0.259462 0.279201 0.562457
O O1 0.250000 0.250000 0.750000
O O2 0.347234 0.280738 0.788607
O O3 0.348217 0.282737 0.675091
O O4 0.321589 0.000000 0.726399
O O5 0.914936 0.774765 0.500000
O O6 0.934077 0.500000 0.437174
O O7 0.891604 0.781172 0.390374
O O8 0.000000 0.777582 0.429624
O O9 0.940590 0.718280 0.098390
O O10 0.000000 0.000000 0.068555
O O11 0.000000 0.729835 0.000000
O O12 0.281144 0.721881 0.114381
O O13 0.337021 0.000000 0.148975
O O14 0.175437 0.714973 0.073296
O O15 0.119670 0.000000 0.097400
O O16 0.238922 0.226503 0.500000
O O17 0.258867 0.500000 0.563525
#
# Coordination Sequence:
#
# PCOD9520090 Si02
#       6
#    16  16   8  16  16  16
#     4  11  21  35  53  75 104 140 177 216 265 321
#     4   8  13  22  37  59  90 123 151 188 242 295
#     4   9  18  34  59  87 111 141 188 241 284 330
#     4   9  16  26  41  65  94 125 164 205 248 302
#     4  10  19  34  54  79 108 138 176 222 273 326
#     4   9  15  24  44  72  97 122 161 214 263 307
#
# _framework density 21.651422
#
# number of rings (size 3 to 8) (size 9 to 14) (size 15 to 20)
#    0.000    2.636    1.818    2.182    0.000    4.364 
#    1.636    0.455    0.000    2.727    0.000    0.000 
#    0.000    0.000    0.000    8.000    0.000    7.273 
#
# Total GULP energy -245274.766112 kJ/mol
# GULP energy per Si atom -5574.426503 kJ/mol
# Density = 2.160214 g / cm^3
# Si number density = 21.651422 Si / 1000 Ang^3
#
#
#
# Elastic Constant Matrix: (Units=GPa)
#
#
# Indices 1 2 3 4 5 6 
#
# 1 95.9583 -7.8903 63.3038 0.0000 0.0000 0.0000
# 2 -7.8903 71.1844 -12.8456 0.0000 0.0000 0.0000
# 3 63.3038 -12.8456 120.5896 0.0000 0.0000 0.0000
# 4 0.0000 0.0000 0.0000 10.9046 0.0000 0.0000
# 5 0.0000 0.0000 0.0000 0.0000 -14.1960 0.0000
# 6 0.0000 0.0000 0.0000 0.0000 0.0000 -4.6530
#
#
#
# Elastic Compliance Matrix: (Units=1/GPa)
#
#
# Indices 1 2 3 4 5 6 
#
# 1 0.015947 0.000262 -0.008343 0.000000 0.000000 0.000000
# 2 0.000262 0.014328 0.001389 0.000000 0.000000 0.000000
# 3 -0.008343 0.001389 0.012820 0.000000 0.000000 0.000000
# 4 0.000000 0.000000 0.000000 0.091705 0.000000 0.000000
# 5 0.000000 0.000000 0.000000 0.000000 -0.070442 0.000000
# 6 0.000000 0.000000 0.000000 0.000000 0.000000 -0.214916
#
#
# Mechanical properties :
#
#
# Convention : Reuss Voigt Hill
#
# Bulk Modulus (GPa) = 33.65932 41.42979 37.54456
# Shear Modulus (GPa) = -39.28672 14.75540 -12.26566
#
# Velocity S-wave (km/s) = -4.26433 2.61338 -2.38272
# Velocity P-wave (km/s) = 2.94385 5.31816 3.13182
#
# Compressibility (1/GPa) = 0.02970945
#
# Stress axis : x y z
#
# Youngs Moduli (GPa) = 62.70792 69.79507 78.00032
#
# Poissons Ratio (x) = -0.01828 0.65079
# Poissons Ratio (y) = -0.01643 -0.10832
# Poissons Ratio (z) = 0.52320 -0.09693
#
# Static dielectric constant tensor:
#      x y z
#    x 1.820090 0.000000 0.000000 
#    y 0.000000 1.862740 0.000000 
#    z 0.000000 0.000000 1.797600 
# 
# From -- ./inp_files/55533.got.cif
#   From: 2010.05.17/outbox.cif.g08.bks.cpg/sg71_28_cif.got.tgz:55533.got - 2010.06.03 16:22:01.
