data_PCOD9520682
_publ_section_title
;
Structure prediction by ZEFSAII (Michael W. Deem and Ramdas Pophale) SiO2 
 PCOD9520682
Probable space group: I M M M
;
_chemical_formula_sum "Si O2"
_cell_formula_units_Z 72
_cell_length_a 19.889629
_cell_length_b 7.278354
_cell_length_c 21.133959
_cell_angle_alpha 90.000000
_cell_angle_beta 90.000000
_cell_angle_gamma 90.000000
_cell_volume 3059.431385
_symmetry_space_group_name_H-M "I M M M"
_symmetry_group_IT_number 71
_symmetry_cell_setting 'orthorhombic'
loop_
_space_group_symop_operation_xyz
x,y,z
-x,-y,z
x,-y,-z
-x,y,-z
-x,-y,-z
x,y,-z
-x,y,z
x,-y,z
1/2+x,1/2+y,1/2+z
1/2-x,1/2-y,1/2+z
1/2+x,1/2-y,1/2-z
1/2-x,1/2+y,1/2-z
1/2-x,1/2-y,1/2-z
1/2+x,1/2+y,1/2-z
1/2-x,1/2+y,1/2+z
1/2+x,1/2-y,1/2+z
loop_
_atom_site_type_symbol
_atom_site_label
_atom_site_fract_x
_atom_site_fract_y
_atom_site_fract_z
Si Si1 0.850452 0.224620 0.571355
Si Si2 0.080540 0.779039 0.932133
Si Si3 0.309997 0.281680 0.201685
Si Si4 0.500000 0.294475 0.923477
Si Si5 0.577451 0.724300 0.705819
O O1 0.834117 0.285738 0.500000
O O2 0.803754 0.284067 0.629485
O O3 0.926615 0.284870 0.589710
O O4 0.852278 0.000000 0.568337
O O5 0.104838 0.715731 0.863384
O O6 0.000000 0.742949 0.931823
O O7 0.087933 0.000000 0.932787
O O8 0.107470 0.710968 0.000000
O O9 0.317650 0.500000 0.196286
O O10 0.250000 0.250000 0.250000
O O11 0.376302 0.211962 0.237299
O O12 0.500000 0.500000 0.894894
O O13 0.500000 0.308881 0.000000
O O14 0.500000 0.779723 0.712464
O O15 0.577928 0.500000 0.705286
#
# Coordination Sequence:
#
# PCOD9520682 Si02
#       5
#    16  16  16   8  16
#     4   8  14  25  43  67  93 121 155 196 240 283
#     4   7   9  15  29  50  78 108 134 167 214 260
#     4  10  20  32  47  67  96 128 155 189 235 287
#     4   7  10  18  36  66  95 111 138 195 250 278
#     4   8  14  24  40  63  85 108 146 191 230 267
#
# _framework density 23.533784000000001
#
# number of rings (size 3 to 8) (size 9 to 14) (size 15 to 20)
#    0.000    3.889    0.000    3.333    1.556    0.000 
#    0.000    1.111    0.000    2.667    0.000    0.000 
#    0.000    2.667    0.000   11.111    0.000    4.444 
#
# Total GULP energy -200585.678019 kJ/mol
# GULP energy per Si atom -5571.824389 kJ/mol
# Density = 2.348022 g / cm^3
# Si number density = 23.533784 Si / 1000 Ang^3
#
#
#
# Elastic Constant Matrix: (Units=GPa)
#
#
# Indices 1 2 3 4 5 6 
#
# 1 51.0716 -4.5919 70.1005 0.0000 0.0000 0.0000
# 2 -4.5919 98.5705 9.3526 0.0000 0.0000 0.0000
# 3 70.1005 9.3526 242.4158 0.0000 0.0000 0.0000
# 4 0.0000 0.0000 0.0000 -11.2614 0.0000 0.0000
# 5 0.0000 0.0000 0.0000 0.0000 29.3896 0.0000
# 6 0.0000 0.0000 0.0000 0.0000 0.0000 -23.1280
#
#
#
# Elastic Compliance Matrix: (Units=1/GPa)
#
#
# Indices 1 2 3 4 5 6 
#
# 1 0.033049 0.002455 -0.009652 0.000000 0.000000 0.000000
# 2 0.002455 0.010365 -0.001110 0.000000 0.000000 0.000000
# 3 -0.009652 -0.001110 0.006959 0.000000 0.000000 0.000000
# 4 0.000000 0.000000 0.000000 -0.088799 0.000000 0.000000
# 5 0.000000 0.000000 0.000000 0.000000 0.034026 0.000000
# 6 0.000000 0.000000 0.000000 0.000000 0.000000 -0.043238
#
#
# Mechanical properties :
#
#
# Convention : Reuss Voigt Hill
#
# Bulk Modulus (GPa) = 29.62069 60.19781 44.90925
# Shear Modulus (GPa) = -252.87692 20.14648 -116.36522
#
# Velocity S-wave (km/s) = -10.37719 2.92904 -7.03942
# Velocity P-wave (km/s) = 11.44411 6.08883 6.85178
#
# Compressibility (1/GPa) = 0.03376019
#
# Stress axis : x y z
#
# Youngs Moduli (GPa) = 30.25820 96.48119 143.69936
#
# Poissons Ratio (x) = -0.23689 1.38693
# Poissons Ratio (y) = -0.07429 0.15949
# Poissons Ratio (z) = 0.29204 0.10708
#
# Static dielectric constant tensor:
#      x y z
#    x 1.810590 0.000000 0.000000 
#    y 0.000000 1.983700 0.000000 
#    z 0.000000 0.000000 2.124950 
# 
# From -- ./inp_files/53822.got.cif
#   From: 2010.05.17/outbox.cif.g08.bks.cpg/sg71_27_cif.got.tgz:53822.got - 2010.06.03 16:22:01.
