data_PCOD9520707
_publ_section_title
;
Structure prediction by ZEFSAII (Michael W. Deem and Ramdas Pophale) SiO2 
 PCOD9520707
Probable space group: I M M M
;
_chemical_formula_sum "Si O2"
_cell_formula_units_Z 88
_cell_length_a 21.309641
_cell_length_b 24.704498
_cell_length_c 9.105287
_cell_angle_alpha 90.000000
_cell_angle_beta 90.000000
_cell_angle_gamma 90.000000
_cell_volume 4793.423559
_symmetry_space_group_name_H-M "I M M M"
_symmetry_group_IT_number 71
_symmetry_cell_setting 'orthorhombic'
loop_
_space_group_symop_operation_xyz
x,y,z
-x,-y,z
x,-y,-z
-x,y,-z
-x,-y,-z
x,y,-z
-x,y,z
x,-y,z
1/2+x,1/2+y,1/2+z
1/2-x,1/2-y,1/2+z
1/2+x,1/2-y,1/2-z
1/2-x,1/2+y,1/2-z
1/2-x,1/2-y,1/2-z
1/2+x,1/2+y,1/2-z
1/2-x,1/2+y,1/2+z
1/2+x,1/2-y,1/2+z
loop_
_atom_site_type_symbol
_atom_site_label
_atom_site_fract_x
_atom_site_fract_y
_atom_site_fract_z
Si Si1 0.801559 0.215171 0.167205
Si Si2 0.929776 0.170397 0.822730
Si Si3 0.237253 0.089587 0.832654
Si Si4 0.500000 0.937604 0.679024
Si Si5 0.363987 0.065498 0.668901
Si Si6 0.887496 0.060051 0.324501
O O1 0.750000 0.250000 0.250000
O O2 0.872751 0.209235 0.227444
O O3 0.777996 0.153271 0.166302
O O4 0.805530 0.235325 0.000000
O O5 0.920440 0.110883 0.753261
O O6 0.000000 0.189963 0.790229
O O7 0.923209 0.165071 0.000000
O O8 0.306241 0.080992 0.769812
O O9 0.184618 0.062852 0.730022
O O10 0.231606 0.069596 0.000000
O O11 0.500000 0.938943 0.500000
O O12 0.567531 0.913666 0.720335
O O13 0.500000 0.000000 0.730672
O O14 0.353153 0.083145 0.500000
O O15 0.367831 0.000000 0.666241
O O16 0.890649 0.066512 0.500000
O O17 0.912487 0.000000 0.287289
#
# Coordination Sequence:
#
# PCOD9520707 Si02
#       6
#    16  16  16   8  16  16
#     4   9  19  35  55  76  96 123 161 206 253 301
#     4   9  19  36  56  78 105 136 169 207 253 305
#     4  10  20  32  47  70  98 128 163 205 253 301
#     4   7  12  24  41  61  87 121 159 197 235 277
#     4   9  16  27  45  68  94 126 164 203 242 288
#     4  10  20  32  47  72 106 140 174 209 242 284
#
# _framework density 18.358485999999999
#
# number of rings (size 3 to 8) (size 9 to 14) (size 15 to 20)
#    0.000    2.818    0.000    3.818    0.000    8.364 
#    0.000    2.273    2.000    1.636    0.000    0.000 
#    0.000    0.000    0.000    0.000    0.000    0.000 
#
# Total GULP energy -245100.861484 kJ/mol
# GULP energy per Si atom -5570.474125 kJ/mol
# Density = 1.831670 g / cm^3
# Si number density = 18.358486 Si / 1000 Ang^3
#
#
#
# Elastic Constant Matrix: (Units=GPa)
#
#
# Indices 1 2 3 4 5 6 
#
# 1 147.2498 24.9267 26.0846 0.0000 0.0000 0.0000
# 2 24.9267 37.2173 15.0828 0.0000 0.0000 0.0000
# 3 26.0846 15.0828 33.0583 0.0000 0.0000 0.0000
# 4 0.0000 0.0000 0.0000 24.2031 0.0000 0.0000
# 5 0.0000 0.0000 0.0000 0.0000 25.4104 0.0000
# 6 0.0000 0.0000 0.0000 0.0000 0.0000 7.5845
#
#
#
# Elastic Compliance Matrix: (Units=1/GPa)
#
#
# Indices 1 2 3 4 5 6 
#
# 1 0.008259 -0.003546 -0.004899 0.000000 0.000000 0.000000
# 2 -0.003546 0.034487 -0.012936 0.000000 0.000000 0.000000
# 3 -0.004899 -0.012936 0.040017 0.000000 0.000000 0.000000
# 4 0.000000 0.000000 0.000000 0.041317 0.000000 0.000000
# 5 0.000000 0.000000 0.000000 0.000000 0.039354 0.000000
# 6 0.000000 0.000000 0.000000 0.000000 0.000000 0.131847
#
#
# Mechanical properties :
#
#
# Convention : Reuss Voigt Hill
#
# Bulk Modulus (GPa) = 24.99988 38.85706 31.92847
# Shear Modulus (GPa) = 14.22965 21.53502 17.88233
#
# Velocity S-wave (km/s) = 2.78708 3.42867 3.12439
# Velocity P-wave (km/s) = 4.89942 6.07338 5.51771
#
# Compressibility (1/GPa) = 0.04000019
#
# Stress axis : x y z
#
# Youngs Moduli (GPa) = 121.07489 28.99629 24.98917
#
# Poissons Ratio (x) = 0.10283 0.12242
# Poissons Ratio (y) = 0.42938 0.32327
# Poissons Ratio (z) = 0.59314 0.37511
#
# Static dielectric constant tensor:
#      x y z
#    x 1.680970 0.000000 0.000000 
#    y 0.000000 1.625350 0.000000 
#    z 0.000000 0.000000 1.627730 
# 
# From -- ./inp_files/10504.got.cif
#   From: 2010.05.17/outbox.cif.g08.bks.cpg/sg71_6_cif.got.tgz:10504.got - 2010.06.03 16:22:01.
