data_PCOD9520525
_publ_section_title
;
Structure prediction by ZEFSAII (Michael W. Deem and Ramdas Pophale) SiO2 
 PCOD9520525
Probable space group: I M M M
;
_chemical_formula_sum "Si O2"
_cell_formula_units_Z 96
_cell_length_a 30.253542
_cell_length_b 7.440739
_cell_length_c 27.417215
_cell_angle_alpha 90.000000
_cell_angle_beta 90.000000
_cell_angle_gamma 90.000000
_cell_volume 6171.853896
_symmetry_space_group_name_H-M "I M M M"
_symmetry_group_IT_number 71
_symmetry_cell_setting 'orthorhombic'
loop_
_space_group_symop_operation_xyz
x,y,z
-x,-y,z
x,-y,-z
-x,y,-z
-x,-y,-z
x,y,-z
-x,y,z
x,-y,z
1/2+x,1/2+y,1/2+z
1/2-x,1/2-y,1/2+z
1/2+x,1/2-y,1/2-z
1/2-x,1/2+y,1/2-z
1/2-x,1/2-y,1/2-z
1/2+x,1/2+y,1/2-z
1/2-x,1/2+y,1/2+z
1/2+x,1/2-y,1/2+z
loop_
_atom_site_type_symbol
_atom_site_label
_atom_site_fract_x
_atom_site_fract_y
_atom_site_fract_z
Si Si1 0.857374 0.289243 0.946523
Si Si2 0.276530 0.285298 0.800124
Si Si3 0.808314 0.281575 0.149478
Si Si4 0.450792 0.283133 0.403046
Si Si5 0.950630 0.219493 0.210114
Si Si6 0.360551 0.711239 0.250460
O O1 0.846169 0.500000 0.948404
O O2 0.830592 0.215115 0.900217
O O3 0.909420 0.276509 0.934631
O O4 0.848332 0.211580 0.000000
O O5 0.280471 0.500000 0.806190
O O6 0.250000 0.250000 0.750000
O O7 0.242306 0.221016 0.841264
O O8 0.325632 0.213289 0.788941
O O9 0.808720 0.500000 0.149604
O O10 0.837267 0.226081 0.196405
O O11 0.500000 0.224211 0.418530
O O12 0.450747 0.500000 0.403593
O O13 0.444221 0.226887 0.346551
O O14 0.909780 0.285012 0.242449
O O15 0.000000 0.274237 0.225081
O O16 0.949747 0.000000 0.210209
O O17 0.365156 0.500000 0.239538
#
# Coordination Sequence:
#
# PCOD9520525 Si02
#       6
#    16  16  16  16  16  16
#     4  10  20  30  38  48  63  86 112 137 169 204
#     4   8  14  22  34  52  67  80  98 123 157 191
#     4   9  16  26  36  47  66  84 101 131 164 192
#     4   9  17  29  42  52  62  80 108 141 175 204
#     4   8  13  21  34  51  68  84 102 126 156 190
#     4   9  14  22  38  54  66  81 103 127 154 192
#
# _framework density 15.554484
#
# number of rings (size 3 to 8) (size 9 to 14) (size 15 to 20)
#    0.000    3.167    1.667    1.000    0.000    1.000 
#    0.000    1.667    0.000    0.500    0.000    0.000 
#    0.000    0.000    0.000    0.000    0.000    0.833 
#
# Total GULP energy -267234.098903 kJ/mol
# GULP energy per Si atom -5567.377060 kJ/mol
# Density = 1.551908 g / cm^3
# Si number density = 15.554484 Si / 1000 Ang^3
#
#
#
# Elastic Constant Matrix: (Units=GPa)
#
#
# Indices 1 2 3 4 5 6 
#
# 1 111.4112 -4.4924 48.1183 0.0000 0.0000 0.0000
# 2 -4.4924 47.7483 -2.7842 0.0000 0.0000 0.0000
# 3 48.1183 -2.7842 51.0865 0.0000 0.0000 0.0000
# 4 0.0000 0.0000 0.0000 -8.0854 0.0000 0.0000
# 5 0.0000 0.0000 0.0000 0.0000 13.1093 0.0000
# 6 0.0000 0.0000 0.0000 0.0000 0.0000 4.7959
#
#
#
# Elastic Compliance Matrix: (Units=1/GPa)
#
#
# Indices 1 2 3 4 5 6 
#
# 1 0.015148 0.000595 -0.014235 0.000000 0.000000 0.000000
# 2 0.000595 0.021033 0.000586 0.000000 0.000000 0.000000
# 3 -0.014235 0.000586 0.033015 0.000000 0.000000 0.000000
# 4 0.000000 0.000000 0.000000 -0.123680 0.000000 0.000000
# 5 0.000000 0.000000 0.000000 0.000000 0.076282 0.000000
# 6 0.000000 0.000000 0.000000 0.000000 0.000000 0.208511
#
#
# Mechanical properties :
#
#
# Convention : Reuss Voigt Hill
#
# Bulk Modulus (GPa) = 23.20880 32.43660 27.82270
# Shear Modulus (GPa) = 18.46512 13.25759 15.86135
#
# Velocity S-wave (km/s) = 3.44921 2.92264 3.19678
# Velocity P-wave (km/s) = 5.55122 5.68225 5.61712
#
# Compressibility (1/GPa) = 0.04308711
#
# Stress axis : x y z
#
# Youngs Moduli (GPa) = 66.01523 47.54364 30.28934
#
# Poissons Ratio (x) = -0.02829 0.43118
# Poissons Ratio (y) = -0.03929 -0.01774
# Poissons Ratio (z) = 0.93976 -0.02785
#
# Static dielectric constant tensor:
#      x y z
#    x 1.570210 0.000000 0.000000 
#    y 0.000000 1.633900 0.000000 
#    z 0.000000 0.000000 1.503000 
# 
# From -- ./inp_files/62092.got.cif
#   From: 2010.05.17/outbox.cif.g08.bks.cpg/sg71_32_cif.got.tgz:62092.got - 2010.06.03 16:22:01.
