data_PCOD9520427
_publ_section_title
;
Structure prediction by ZEFSAII (Michael W. Deem and Ramdas Pophale) SiO2 
 PCOD9520427
Probable space group: I M M M
;
_chemical_formula_sum "Si O2"
_cell_formula_units_Z 62
_cell_length_a 19.938727
_cell_length_b 13.851822
_cell_length_c 11.279677
_cell_angle_alpha 90.000000
_cell_angle_beta 90.000000
_cell_angle_gamma 90.000000
_cell_volume 3115.308017
_symmetry_space_group_name_H-M "I M M M"
_symmetry_group_IT_number 71
_symmetry_cell_setting 'orthorhombic'
loop_
_space_group_symop_operation_xyz
x,y,z
-x,-y,z
x,-y,-z
-x,y,-z
-x,-y,-z
x,y,-z
-x,y,z
x,-y,z
1/2+x,1/2+y,1/2+z
1/2-x,1/2-y,1/2+z
1/2+x,1/2-y,1/2-z
1/2-x,1/2+y,1/2-z
1/2-x,1/2-y,1/2-z
1/2+x,1/2+y,1/2-z
1/2-x,1/2+y,1/2+z
1/2+x,1/2-y,1/2+z
loop_
_atom_site_type_symbol
_atom_site_label
_atom_site_fract_x
_atom_site_fract_y
_atom_site_fract_z
Si Si1 0.322824 0.709544 0.211187
Si Si2 0.132185 0.500000 0.856620
Si Si3 0.783495 0.000000 0.733012
Si Si4 0.871667 0.344730 0.500000
Si Si5 0.746602 0.000000 0.000000
Si Si6 0.927210 0.295868 0.141118
Si Si7 0.500000 0.000000 0.000000
O O1 0.250000 0.750000 0.250000
O O2 0.313544 0.597965 0.180347
O O3 0.360146 0.774390 0.112920
O O4 0.370610 0.721568 0.323609
O O5 0.204565 0.500000 0.797786
O O6 0.093100 0.403967 0.819855
O O7 0.139332 0.500000 0.000000
O O8 0.787267 0.000000 0.876651
O O9 0.804753 0.410499 0.500000
O O10 0.938408 0.413263 0.500000
O O11 0.000000 0.270550 0.189854
O O12 0.930711 0.300862 0.000000
#
# Coordination Sequence:
#
# PCOD9520427 Si02
#       7
#    16   8   8   8   4  16   2
#     4  12  25  41  67  98 139 187 235 297 362 432
#     4  10  19  35  63  95 130 170 218 285 351 419
#     4  12  25  39  64 100 134 186 227 292 356 433
#     4  11  25  45  72 105 144 180 237 304 366 432
#     4  11  20  39  64 102 135 175 226 286 363 408
#     4  10  22  40  63  94 132 175 224 286 352 421
#     4  10  28  52  80 114 142 190 246 308 374 440
#
# _framework density 19.901724000000002
#
# number of rings (size 3 to 8) (size 9 to 14) (size 15 to 20)
#    0.000    1.032    5.161    0.387    7.226    2.581 
#    0.000    0.645    0.000    2.323    0.000    0.000 
#    0.000    0.000    0.000    0.000    0.000    0.000 
#
# Total GULP energy -172791.719281 kJ/mol
# GULP energy per Si atom -5573.926428 kJ/mol
# Density = 1.985643 g / cm^3
# Si number density = 19.901724 Si / 1000 Ang^3
#
#
#
# Elastic Constant Matrix: (Units=GPa)
#
#
# Indices 1 2 3 4 5 6 
#
# 1 140.2597 54.4870 19.7472 0.0000 0.0000 0.0000
# 2 54.4870 137.6928 21.3012 0.0000 0.0000 0.0000
# 3 19.7472 21.3012 56.5819 0.0000 0.0000 0.0000
# 4 0.0000 0.0000 0.0000 23.0721 0.0000 0.0000
# 5 0.0000 0.0000 0.0000 0.0000 23.9774 0.0000
# 6 0.0000 0.0000 0.0000 0.0000 0.0000 46.9793
#
#
#
# Elastic Compliance Matrix: (Units=1/GPa)
#
#
# Indices 1 2 3 4 5 6 
#
# 1 0.008599 -0.003120 -0.001826 0.000000 0.000000 0.000000
# 2 -0.003120 0.008844 -0.002240 0.000000 0.000000 0.000000
# 3 -0.001826 -0.002240 0.019154 0.000000 0.000000 0.000000
# 4 0.000000 0.000000 0.000000 0.043342 0.000000 0.000000
# 5 0.000000 0.000000 0.000000 0.000000 0.041706 0.000000
# 6 0.000000 0.000000 0.000000 0.000000 0.000000 0.021286
#
#
# Mechanical properties :
#
#
# Convention : Reuss Voigt Hill
#
# Bulk Modulus (GPa) = 44.99832 58.40059 51.69946
# Shear Modulus (GPa) = 30.35580 34.73901 32.54741
#
# Velocity S-wave (km/s) = 3.90973 4.18248 4.04840
# Velocity P-wave (km/s) = 6.56054 7.26171 6.92001
#
# Compressibility (1/GPa) = 0.02222305
#
# Stress axis : x y z
#
# Youngs Moduli (GPa) = 116.29446 113.07306 52.20737
#
# Poissons Ratio (x) = 0.35280 0.09535
# Poissons Ratio (y) = 0.36286 0.11697
# Poissons Ratio (z) = 0.21240 0.25334
#
# Static dielectric constant tensor:
#      x y z
#    x 1.670170 0.000000 0.000000 
#    y 0.000000 2.077010 0.000000 
#    z 0.000000 0.000000 1.798400 
# 
# From -- ./inp_files/23290.got.cif
#   From: 2010.05.17/outbox.cif.g08.bks.cpg/sg71_12_cif.got.tgz:23290.got - 2010.06.03 16:22:01.
