data_PCOD9520555
_publ_section_title
;
Structure prediction by ZEFSAII (Michael W. Deem and Ramdas Pophale) SiO2 
 PCOD9520555
Probable space group: I M M M
;
_chemical_formula_sum "Si O2"
_cell_formula_units_Z 72
_cell_length_a 9.119871
_cell_length_b 28.847563
_cell_length_c 17.439758
_cell_angle_alpha 90.000000
_cell_angle_beta 90.000000
_cell_angle_gamma 90.000000
_cell_volume 4588.157101
_symmetry_space_group_name_H-M "I M M M"
_symmetry_group_IT_number 71
_symmetry_cell_setting 'orthorhombic'
loop_
_space_group_symop_operation_xyz
x,y,z
-x,-y,z
x,-y,-z
-x,y,-z
-x,-y,-z
x,y,-z
-x,y,z
x,-y,z
1/2+x,1/2+y,1/2+z
1/2-x,1/2-y,1/2+z
1/2+x,1/2-y,1/2-z
1/2-x,1/2+y,1/2-z
1/2-x,1/2-y,1/2-z
1/2+x,1/2+y,1/2-z
1/2-x,1/2+y,1/2+z
1/2+x,1/2-y,1/2+z
loop_
_atom_site_type_symbol
_atom_site_label
_atom_site_fract_x
_atom_site_fract_y
_atom_site_fract_z
Si Si1 0.324596 0.777176 0.820639
Si Si2 0.674696 0.863781 0.728117
Si Si3 0.824667 0.703752 0.086240
Si Si4 0.665636 0.056151 0.500000
Si Si5 0.825633 0.945761 0.341705
O O1 0.500000 0.771019 0.818557
O O2 0.250000 0.750000 0.750000
O O3 0.294312 0.830943 0.801190
O O4 0.256466 0.751881 0.893930
O O5 0.500000 0.872254 0.725065
O O6 0.713877 0.833318 0.652222
O O7 0.761434 0.911399 0.721716
O O8 0.000000 0.710837 0.091812
O O9 0.789984 0.688017 0.000000
O O10 0.500000 0.075308 0.500000
O O11 0.750283 0.067964 0.577596
O O12 0.656641 0.000000 0.500000
O O13 0.000000 0.941149 0.348305
O O14 0.791666 0.000000 0.327481
#
# Coordination Sequence:
#
# PCOD9520555 Si02
#       5
#    16  16  16   8  16
#     4   9  17  30  46  64  86 113 144 179 218 260
#     4   9  18  30  45  63  85 117 151 180 214 257
#     4   9  18  31  46  66  91 116 144 181 217 255
#     4   9  17  29  43  55  73 107 143 175 215 255
#     4  10  20  31  42  60  85 110 143 186 222 253
#
# _framework density 15.692575
#
# number of rings (size 3 to 8) (size 9 to 14) (size 15 to 20)
#    0.000    2.778    0.000    3.000    1.556    7.556 
#    0.000    0.000    0.000    0.000    0.000    0.000 
#    0.000    0.889    0.000    9.778    0.000    7.111 
#
# Total GULP energy -200531.713973 kJ/mol
# GULP energy per Si atom -5570.325388 kJ/mol
# Density = 1.565686 g / cm^3
# Si number density = 15.692575 Si / 1000 Ang^3
#
#
#
# Elastic Constant Matrix: (Units=GPa)
#
#
# Indices 1 2 3 4 5 6 
#
# 1 37.6528 38.3758 5.2027 0.0000 0.0000 0.0000
# 2 38.3758 81.3578 10.7446 0.0000 0.0000 0.0000
# 3 5.2027 10.7446 17.7858 0.0001 0.0000 0.0000
# 4 0.0000 0.0000 0.0001 24.7305 0.0000 0.0000
# 5 0.0000 0.0000 0.0000 0.0000 19.9509 0.0000
# 6 0.0000 0.0000 0.0000 0.0000 0.0000 26.3997
#
#
#
# Elastic Compliance Matrix: (Units=1/GPa)
#
#
# Indices 1 2 3 4 5 6 
#
# 1 0.051150 -0.024072 -0.000421 0.000000 0.000000 0.000000
# 2 -0.024072 0.024685 -0.007871 0.000000 0.000000 0.000000
# 3 -0.000421 -0.007871 0.061103 0.000000 0.000000 0.000000
# 4 0.000000 0.000000 0.000000 0.040436 0.000000 0.000000
# 5 0.000000 0.000000 0.000000 0.000000 0.050123 0.000000
# 6 0.000000 0.000000 0.000000 0.000000 0.000000 0.037879
#
#
# Mechanical properties :
#
#
# Convention : Reuss Voigt Hill
#
# Bulk Modulus (GPa) = 13.84819 27.27139 20.55979
# Shear Modulus (GPa) = 14.11734 19.71444 16.91589
#
# Velocity S-wave (km/s) = 3.00262 3.54826 3.28678
# Velocity P-wave (km/s) = 4.56780 5.84835 5.24728
#
# Compressibility (1/GPa) = 0.07221160
#
# Stress axis : x y z
#
# Youngs Moduli (GPa) = 19.55017 40.51000 16.36584
#
# Poissons Ratio (x) = 0.97514 0.00689
# Poissons Ratio (y) = 0.47060 0.12882
# Poissons Ratio (z) = 0.00822 0.31886
#
# Static dielectric constant tensor:
#      x y z
#    x 1.521980 0.000000 0.000000 
#    y 0.000000 1.562960 0.000000 
#    z 0.000000 0.000000 1.531690 
# 
# From -- ./inp_files/8165.got.cif
#   From: 2010.05.17/outbox.cif.g08.bks.cpg/sg71_5_cif.got.tgz:8165.got - 2010.06.03 16:22:01.
