data_PCOD9520699
_publ_section_title
;
Structure prediction by ZEFSAII (Michael W. Deem and Ramdas Pophale) SiO2 
 PCOD9520699
Probable space group: I M M M
;
_chemical_formula_sum "Si O2"
_cell_formula_units_Z 104
_cell_length_a 9.109021
_cell_length_b 24.396204
_cell_length_c 27.745123
_cell_angle_alpha 90.000000
_cell_angle_beta 90.000000
_cell_angle_gamma 90.000000
_cell_volume 6165.674790
_symmetry_space_group_name_H-M "I M M M"
_symmetry_group_IT_number 71
_symmetry_cell_setting 'orthorhombic'
loop_
_space_group_symop_operation_xyz
x,y,z
-x,-y,z
x,-y,-z
-x,y,-z
-x,-y,-z
x,y,-z
-x,y,z
x,-y,z
1/2+x,1/2+y,1/2+z
1/2-x,1/2-y,1/2+z
1/2+x,1/2-y,1/2-z
1/2-x,1/2+y,1/2-z
1/2-x,1/2-y,1/2-z
1/2+x,1/2+y,1/2-z
1/2-x,1/2+y,1/2+z
1/2+x,1/2-y,1/2+z
loop_
_atom_site_type_symbol
_atom_site_label
_atom_site_fract_x
_atom_site_fract_y
_atom_site_fract_z
Si Si1 0.170985 0.755525 0.942838
Si Si2 0.324114 0.065074 0.444217
Si Si3 0.174633 0.935960 0.899511
Si Si4 0.328704 0.735970 0.200421
Si Si5 0.676982 0.659230 0.885687
Si Si6 0.334537 0.065797 0.000000
Si Si7 0.671599 0.835812 0.125940
O O1 0.261075 0.703756 0.923365
O O2 0.243222 0.808130 0.918379
O O3 0.000000 0.750592 0.928524
O O4 0.178569 0.758734 0.000000
O O5 0.282598 0.079387 0.500000
O O6 0.500000 0.073868 0.440458
O O7 0.242643 0.102059 0.404668
O O8 0.296712 0.000000 0.438109
O O9 0.244809 0.922461 0.951642
O O10 0.251519 0.893531 0.863555
O O11 0.000000 0.928318 0.900858
O O12 0.204350 0.000000 0.889124
O O13 0.500000 0.726303 0.210369
O O14 0.250000 0.750000 0.250000
O O15 0.277952 0.684734 0.166645
O O16 0.316084 0.790272 0.167418
O O17 0.500000 0.658149 0.886748
O O18 0.500000 0.089243 0.000000
O O19 0.348863 0.000000 0.000000
O O20 0.500000 0.843817 0.115306
#
# Coordination Sequence:
#
# PCOD9520699 Si02
#       7
#    16  16  16  16  16   8  16
#     4  10  20  32  47  69  99 135 171 206 247 296
#     4   9  18  32  50  75 109 148 186 217 246 292
#     4  10  20  33  49  70  98 132 170 208 244 290
#     4   9  20  37  56  78 100 125 161 209 263 317
#     4  10  20  33  50  76 106 133 168 212 258 308
#     4   9  17  29  45  65  91 129 171 205 240 277
#     4  10  21  35  51  74 101 128 164 207 256 307
#
# _framework density 16.867577000000001
#
# number of rings (size 3 to 8) (size 9 to 14) (size 15 to 20)
#    0.000    2.385    0.000    3.923    1.077    9.231 
#    0.000    0.769    0.000    0.923    0.000    0.000 
#    0.000    0.000    0.000    0.000    0.000    0.000 
#
# Total GULP energy -289829.830152 kJ/mol
# GULP energy per Si atom -5573.650580 kJ/mol
# Density = 1.682919 g / cm^3
# Si number density = 16.867577 Si / 1000 Ang^3
#
#
#
# Elastic Constant Matrix: (Units=GPa)
#
#
# Indices 1 2 3 4 5 6 
#
# 1 73.6902 47.1659 45.6340 0.0000 0.0000 0.0000
# 2 47.1659 90.8784 38.6965 0.0000 0.0000 0.0000
# 3 45.6340 38.6965 78.3701 0.0000 0.0000 0.0000
# 4 0.0000 0.0000 0.0000 15.3120 0.0000 0.0000
# 5 0.0000 0.0000 0.0000 0.0000 27.7308 0.0000
# 6 0.0000 0.0000 0.0000 0.0000 0.0000 32.4099
#
#
#
# Elastic Compliance Matrix: (Units=1/GPa)
#
#
# Indices 1 2 3 4 5 6 
#
# 1 0.025864 -0.008877 -0.010677 0.000000 0.000000 0.000000
# 2 -0.008877 0.016980 -0.003215 0.000000 0.000000 0.000000
# 3 -0.010677 -0.003215 0.020565 0.000000 0.000000 0.000000
# 4 0.000000 0.000000 0.000000 0.065308 0.000000 0.000000
# 5 0.000000 0.000000 0.000000 0.000000 0.036061 0.000000
# 6 0.000000 0.000000 0.000000 0.000000 0.000000 0.030855
#
#
# Mechanical properties :
#
#
# Convention : Reuss Voigt Hill
#
# Bulk Modulus (GPa) = 55.95963 56.21461 56.08712
# Shear Modulus (GPa) = 20.23241 22.52004 21.37623
#
# Velocity S-wave (km/s) = 3.46712 3.65788 3.56377
# Velocity P-wave (km/s) = 7.01967 7.15817 7.08926
#
# Compressibility (1/GPa) = 0.01787003
#
# Stress axis : x y z
#
# Youngs Moduli (GPa) = 38.66342 58.89298 48.62714
#
# Poissons Ratio (x) = 0.52280 0.51920
# Poissons Ratio (y) = 0.34322 0.15634
# Poissons Ratio (z) = 0.41282 0.18934
#
# Static dielectric constant tensor:
#      x y z
#    x 1.568820 0.000000 0.000000 
#    y 0.000000 1.606060 0.000000 
#    z 0.000000 0.000000 1.562430 
# 
# From -- ./inp_files/63541.got.cif
#   From: 2010.05.17/outbox.cif.g08.bks.cpg/sg71_32_cif.got.tgz:63541.got - 2010.06.03 16:22:01.
