data_PCOD9520160
_publ_section_title
;
Structure prediction by ZEFSAII (Michael W. Deem and Ramdas Pophale) SiO2 
 PCOD9520160
Probable space group: I M M M
;
_chemical_formula_sum "Si O2"
_cell_formula_units_Z 82
_cell_length_a 10.390442
_cell_length_b 20.675734
_cell_length_c 23.960200
_cell_angle_alpha 90.000000
_cell_angle_beta 90.000000
_cell_angle_gamma 90.000000
_cell_volume 5147.370124
_symmetry_space_group_name_H-M "I M M M"
_symmetry_group_IT_number 71
_symmetry_cell_setting 'orthorhombic'
loop_
_space_group_symop_operation_xyz
x,y,z
-x,-y,z
x,-y,-z
-x,y,-z
-x,-y,-z
x,y,-z
-x,y,z
x,-y,z
1/2+x,1/2+y,1/2+z
1/2-x,1/2-y,1/2+z
1/2+x,1/2-y,1/2-z
1/2-x,1/2+y,1/2-z
1/2-x,1/2-y,1/2-z
1/2+x,1/2+y,1/2-z
1/2-x,1/2+y,1/2+z
1/2+x,1/2-y,1/2+z
loop_
_atom_site_type_symbol
_atom_site_label
_atom_site_fract_x
_atom_site_fract_y
_atom_site_fract_z
Si Si1 0.852060 0.237651 0.826376
Si Si2 0.500000 0.576770 0.172719
Si Si3 0.000000 0.500000 0.500000
Si Si4 0.500000 0.922849 0.778736
Si Si5 0.286232 0.223551 0.063521
Si Si6 0.500000 0.882675 0.909144
Si Si7 0.738565 0.359051 0.764502
Si Si8 0.500000 0.665230 0.936538
O O1 0.824738 0.228134 0.891196
O O2 0.768905 0.297860 0.804266
O O3 0.811163 0.173967 0.792448
O O4 0.000000 0.251444 0.814005
O O5 0.500000 0.500000 0.165201
O O6 0.626698 0.598926 0.207186
O O7 0.500000 0.613862 0.113243
O O8 0.000000 0.443216 0.450723
O O9 0.500000 0.901281 0.843806
O O10 0.628886 0.895761 0.749167
O O11 0.500000 0.000000 0.776264
O O12 0.377036 0.162610 0.077856
O O13 0.377491 0.286825 0.068382
O O14 0.241711 0.218492 0.000000
O O15 0.500000 0.638280 0.000000
#
# Coordination Sequence:
#
# PCOD9520160 Si02
#       8
#    16   8   2   8  16   8  16   8
#     4  11  21  34  59  81 111 146 185 245 288 334
#     4  12  23  39  59  83 117 159 186 228 294 352
#     4  12  20  36  52  92 122 140 190 236 290 334
#     4  12  23  37  56  82 113 157 192 226 271 351
#     4  10  19  34  56  81 110 141 189 240 285 328
#     4  11  20  32  56  85 111 145 185 238 285 332
#     4  11  23  37  55  86 114 143 195 233 287 339
#     4   9  19  35  58  85 108 137 185 241 279 329
#
# _framework density 15.930465
#
# number of rings (size 3 to 8) (size 9 to 14) (size 15 to 20)
#    0.000    1.171    7.317    1.171    0.000    0.585 
#    0.000    0.000    0.000    0.000    0.000    0.683 
#    0.000    6.244    0.000    0.000    0.000    0.000 
#
# Total GULP energy -228508.564357 kJ/mol
# GULP energy per Si atom -5573.379618 kJ/mol
# Density = 1.589421 g / cm^3
# Si number density = 15.930465 Si / 1000 Ang^3
#
#
#
# Elastic Constant Matrix: (Units=GPa)
#
#
# Indices 1 2 3 4 5 6 
#
# 1 71.2891 29.2663 35.8227 0.0000 0.0000 0.0000
# 2 29.2663 111.3508 53.9566 0.0000 0.0000 0.0000
# 3 35.8227 53.9566 123.3356 0.0000 0.0000 0.0000
# 4 0.0000 0.0000 0.0000 23.5217 0.0000 0.0000
# 5 0.0000 0.0000 0.0000 0.0000 26.2204 0.0000
# 6 0.0000 0.0000 0.0000 0.0000 0.0000 16.4812
#
#
#
# Elastic Compliance Matrix: (Units=1/GPa)
#
#
# Indices 1 2 3 4 5 6 
#
# 1 0.017013 -0.002636 -0.003788 0.000000 0.000000 0.000000
# 2 -0.002636 0.011805 -0.004399 0.000000 0.000000 0.000000
# 3 -0.003788 -0.004399 0.011133 0.000000 0.000000 0.000000
# 4 0.000000 0.000000 0.000000 0.042514 0.000000 0.000000
# 5 0.000000 0.000000 0.000000 0.000000 0.038138 0.000000
# 6 0.000000 0.000000 0.000000 0.000000 0.000000 0.060675
#
#
# Mechanical properties :
#
#
# Convention : Reuss Voigt Hill
#
# Bulk Modulus (GPa) = 54.63074 60.45186 57.54130
# Shear Modulus (GPa) = 23.92051 25.70664 24.81358
#
# Velocity S-wave (km/s) = 3.87920 4.02142 3.95095
# Velocity P-wave (km/s) = 7.37780 7.71959 7.55063
#
# Compressibility (1/GPa) = 0.01830471
#
# Stress axis : x y z
#
# Youngs Moduli (GPa) = 58.77818 84.71042 89.82586
#
# Poissons Ratio (x) = 0.22329 0.34029
# Poissons Ratio (y) = 0.15493 0.39513
# Poissons Ratio (z) = 0.22267 0.37263
#
# Static dielectric constant tensor:
#      x y z
#    x 1.511800 0.000000 0.000000 
#    y 0.000000 1.505960 0.000000 
#    z 0.000000 0.000000 1.531920 
# 
# From -- ./inp_files/57517.got.cif
#   From: 2010.05.17/outbox.cif.g08.bks.cpg/sg71_29_cif.got.tgz:57517.got - 2010.06.03 16:22:01.
