data_PCOD9520558
_publ_section_title
;
Structure prediction by ZEFSAII (Michael W. Deem and Ramdas Pophale) SiO2 
 PCOD9520558
Probable space group: I M M M
;
_chemical_formula_sum "Si O2"
_cell_formula_units_Z 128
_cell_length_a 15.182358
_cell_length_b 20.229968
_cell_length_c 20.140175
_cell_angle_alpha 90.000000
_cell_angle_beta 90.000000
_cell_angle_gamma 90.000000
_cell_volume 6185.825486
_symmetry_space_group_name_H-M "I M M M"
_symmetry_group_IT_number 71
_symmetry_cell_setting 'orthorhombic'
loop_
_space_group_symop_operation_xyz
x,y,z
-x,-y,z
x,-y,-z
-x,y,-z
-x,-y,-z
x,y,-z
-x,y,z
x,-y,z
1/2+x,1/2+y,1/2+z
1/2-x,1/2-y,1/2+z
1/2+x,1/2-y,1/2-z
1/2-x,1/2+y,1/2-z
1/2-x,1/2-y,1/2-z
1/2+x,1/2+y,1/2-z
1/2-x,1/2+y,1/2+z
1/2+x,1/2-y,1/2+z
loop_
_atom_site_type_symbol
_atom_site_label
_atom_site_fract_x
_atom_site_fract_y
_atom_site_fract_z
Si Si1 0.100404 0.284497 0.199798
Si Si2 0.898034 0.429264 0.351011
Si Si3 0.102920 0.428510 0.191820
Si Si4 0.108478 0.161341 0.718868
Si Si5 0.159086 0.305881 0.573108
Si Si6 0.138778 0.199744 0.925834
Si Si7 0.600807 0.338671 0.926354
Si Si8 0.393396 0.574932 0.655309
O O1 0.142045 0.355161 0.180585
O O2 0.138122 0.234468 0.255750
O O3 0.095918 0.240900 0.133218
O O4 0.000000 0.299365 0.222292
O O5 0.862385 0.500000 0.375524
O O6 0.897022 0.431285 0.271675
O O7 0.851677 0.363625 0.374872
O O8 0.000000 0.424448 0.372163
O O9 0.140304 0.500000 0.168493
O O10 0.000000 0.427469 0.169050
O O11 0.138756 0.140816 0.645256
O O12 0.135591 0.109803 0.775970
O O13 0.000000 0.163140 0.718205
O O14 0.141447 0.334593 0.500000
O O15 0.258945 0.280939 0.574731
O O16 0.100417 0.241100 0.580713
O O17 0.132974 0.123101 0.904508
O O18 0.104117 0.209912 0.000000
O O19 0.500000 0.362685 0.928298
O O20 0.640015 0.353169 0.000000
O O21 0.500000 0.573881 0.656463
O O22 0.361501 0.500000 0.650040
#
# Coordination Sequence:
#
# PCOD9520558 Si02
#       8
#    16  16  16  16  16  16  16  16
#     4   9  16  28  48  69  90 119 153 191 233 277
#     4   9  17  29  45  64  88 121 157 187 218 267
#     4   8  14  26  46  71  95 118 146 183 226 268
#     4   8  14  26  45  69  93 115 145 186 227 264
#     4  10  20  31  42  60  90 124 153 187 230 268
#     4  10  21  34  46  64  91 121 154 192 236 280
#     4   9  16  27  46  69  91 118 151 183 215 259
#     4   9  18  33  52  70  88 115 150 188 232 279
#
# _framework density 20.69247
#
# number of rings (size 3 to 8) (size 9 to 14) (size 15 to 20)
#    0.000    3.000    0.000    3.000    0.000    4.750 
#    0.000    8.125    0.000    0.750    0.000    4.375 
#    0.000    3.000    0.000    0.125    0.000    0.125 
#
# Total GULP energy -356336.406359 kJ/mol
# GULP energy per Si atom -5567.756349 kJ/mol
# Density = 2.064537 g / cm^3
# Si number density = 20.692470 Si / 1000 Ang^3
#
#
#
# Elastic Constant Matrix: (Units=GPa)
#
#
# Indices 1 2 3 4 5 6 
#
# 1 33.1884 -10.8354 -5.7483 0.0000 0.0000 0.0000
# 2 -10.8354 63.7459 -5.2177 0.0000 0.0000 0.0000
# 3 -5.7483 -5.2177 83.5422 0.0000 0.0000 0.0000
# 4 0.0000 0.0000 0.0000 14.1302 0.0000 0.0000
# 5 0.0000 0.0000 0.0000 0.0000 18.1184 0.0000
# 6 0.0000 0.0000 0.0000 0.0000 0.0000 -7.9370
#
#
#
# Elastic Compliance Matrix: (Units=1/GPa)
#
#
# Indices 1 2 3 4 5 6 
#
# 1 0.032450 0.005728 0.002591 0.000000 0.000000 0.000000
# 2 0.005728 0.016779 0.001442 0.000000 0.000000 0.000000
# 3 0.002591 0.001442 0.012238 0.000000 0.000000 0.000000
# 4 0.000000 0.000000 0.000000 0.070770 0.000000 0.000000
# 5 0.000000 0.000000 0.000000 0.000000 0.055193 0.000000
# 6 0.000000 0.000000 0.000000 0.000000 0.000000 -0.125993
#
#
# Mechanical properties :
#
#
# Convention : Reuss Voigt Hill
#
# Bulk Modulus (GPa) = 12.34757 15.20820 13.77789
# Shear Modulus (GPa) = 72.55592 18.34752 45.45172
#
# Velocity S-wave (km/s) = 5.92790 2.98094 4.69180
# Velocity P-wave (km/s) = 7.26867 4.38333 6.00196
#
# Compressibility (1/GPa) = 0.08098757
#
# Stress axis : x y z
#
# Youngs Moduli (GPa) = 30.81692 59.59862 81.71069
#
# Poissons Ratio (x) = -0.34137 -0.21167
# Poissons Ratio (y) = -0.17651 -0.11783
# Poissons Ratio (z) = -0.07983 -0.08594
#
# Static dielectric constant tensor:
#      x y z
#    x 1.815940 0.000000 0.000000 
#    y 0.000000 1.769800 0.000000 
#    z 0.000000 0.000000 1.760800 
# 
# From -- ./inp_files/54453.got.cif
#   From: 2010.05.17/outbox.cif.g08.bks.cpg/sg71_28_cif.got.tgz:54453.got - 2010.06.03 16:22:01.
