data_PCOD9520210
_publ_section_title
;
Structure prediction by ZEFSAII (Michael W. Deem and Ramdas Pophale) SiO2 
 PCOD9520210
Probable space group: I M M M
;
_chemical_formula_sum "Si O2"
_cell_formula_units_Z 82
_cell_length_a 20.779242
_cell_length_b 24.741876
_cell_length_c 7.448359
_cell_angle_alpha 90.000000
_cell_angle_beta 90.000000
_cell_angle_gamma 90.000000
_cell_volume 3829.331179
_symmetry_space_group_name_H-M "I M M M"
_symmetry_group_IT_number 71
_symmetry_cell_setting 'orthorhombic'
loop_
_space_group_symop_operation_xyz
x,y,z
-x,-y,z
x,-y,-z
-x,y,-z
-x,-y,-z
x,y,-z
-x,y,z
x,-y,z
1/2+x,1/2+y,1/2+z
1/2-x,1/2-y,1/2+z
1/2+x,1/2-y,1/2-z
1/2-x,1/2+y,1/2-z
1/2-x,1/2-y,1/2-z
1/2+x,1/2+y,1/2-z
1/2-x,1/2+y,1/2+z
1/2+x,1/2-y,1/2+z
loop_
_atom_site_type_symbol
_atom_site_label
_atom_site_fract_x
_atom_site_fract_y
_atom_site_fract_z
Si Si1 0.865801 0.116042 0.216251
Si Si2 0.134400 0.651801 0.216021
Si Si3 0.000000 0.063005 0.780516
Si Si4 0.267603 0.060362 0.713414
Si Si5 0.500000 0.000000 0.000000
Si Si6 0.500000 0.095071 0.289135
Si Si7 0.176081 0.765563 0.214720
O O1 0.806548 0.076468 0.259854
O O2 0.846273 0.175978 0.284184
O O3 0.934580 0.093149 0.278431
O O4 0.869426 0.118587 0.000000
O O5 0.187345 0.608787 0.285258
O O6 0.064108 0.628905 0.244867
O O7 0.139676 0.712708 0.284971
O O8 0.145088 0.655110 0.000000
O O9 0.000000 0.000000 0.726223
O O10 0.000000 0.063447 0.000000
O O11 0.279622 0.058026 0.500000
O O12 0.281262 0.000000 0.785209
O O13 0.500000 0.954046 0.843655
O O14 0.500000 0.079080 0.500000
O O15 0.250000 0.750000 0.250000
O O16 0.167548 0.768801 0.000000
#
# Coordination Sequence:
#
# PCOD9520210 Si02
#       7
#    16  16   8  16   2   8  16
#     4  10  20  34  55  85 110 146 192 240 294 348
#     4   9  19  37  60  82 112 156 199 236 302 372
#     4   9  18  33  52  75 116 153 182 226 283 344
#     4  10  20  34  54  80 111 148 194 239 286 357
#     4  12  26  44  64  98 128 160 226 254 306 390
#     4  10  23  44  65  88 127 172 205 258 320 367
#     4  10  19  34  57  86 114 147 192 242 297 361
#
# _framework density 21.413661000000001
#
# number of rings (size 3 to 8) (size 9 to 14) (size 15 to 20)
#    0.000    2.244    1.951    0.732    1.366    1.951 
#    3.512    4.390    0.000    1.756    0.000    0.000 
#    0.000    0.000    0.000    0.000    0.000    0.000 
#
# Total GULP energy -228685.507310 kJ/mol
# GULP energy per Si atom -5577.695300 kJ/mol
# Density = 2.136492 g / cm^3
# Si number density = 21.413661 Si / 1000 Ang^3
#
#
#
# Elastic Constant Matrix: (Units=GPa)
#
#
# Indices 1 2 3 4 5 6 
#
# 1 104.8160 48.3601 4.1202 0.0000 0.0000 0.0000
# 2 48.3601 174.1692 18.0901 0.0000 0.0000 0.0000
# 3 4.1202 18.0901 68.6401 0.0000 0.0000 0.0000
# 4 0.0000 0.0000 0.0000 27.2848 0.0000 0.0000
# 5 0.0000 0.0000 0.0000 0.0000 16.9248 0.0000
# 6 0.0000 0.0000 0.0000 0.0000 0.0000 30.6451
#
#
#
# Elastic Compliance Matrix: (Units=1/GPa)
#
#
# Indices 1 2 3 4 5 6 
#
# 1 0.010944 -0.003054 0.000148 0.000000 0.000000 0.000000
# 2 -0.003054 0.006755 -0.001597 0.000000 0.000000 0.000000
# 3 0.000148 -0.001597 0.014981 0.000000 0.000000 0.000000
# 4 0.000000 0.000000 0.000000 0.036650 0.000000 0.000000
# 5 0.000000 0.000000 0.000000 0.000000 0.059085 0.000000
# 6 0.000000 0.000000 0.000000 0.000000 0.000000 0.032632
#
#
# Mechanical properties :
#
#
# Convention : Reuss Voigt Hill
#
# Bulk Modulus (GPa) = 42.24096 54.30735 48.27415
# Shear Modulus (GPa) = 28.09865 33.44126 30.76996
#
# Velocity S-wave (km/s) = 3.62634 3.95610 3.79480
# Velocity P-wave (km/s) = 6.10760 6.80321 6.46477
#
# Compressibility (1/GPa) = 0.02367370
#
# Stress axis : x y z
#
# Youngs Moduli (GPa) = 91.37605 148.02953 66.75229
#
# Poissons Ratio (x) = 0.45209 -0.00988
# Poissons Ratio (y) = 0.27907 0.10661
# Poissons Ratio (z) = -0.01352 0.23641
#
# Static dielectric constant tensor:
#      x y z
#    x 1.731130 0.000000 0.000000 
#    y 0.000000 1.788590 0.000000 
#    z 0.000000 0.000000 1.827450 
# 
# From -- ./inp_files/10332.got.cif
#   From: 2010.05.17/outbox.cif.g08.bks.cpg/sg71_6_cif.got.tgz:10332.got - 2010.06.03 16:22:01.
