data_PCOD9520302
_publ_section_title
;
Structure prediction by ZEFSAII (Michael W. Deem and Ramdas Pophale) SiO2 
 PCOD9520302
Probable space group: I M M M
;
_chemical_formula_sum "Si O2"
_cell_formula_units_Z 104
_cell_length_a 25.618218
_cell_length_b 26.379001
_cell_length_c 8.975566
_cell_angle_alpha 90.000000
_cell_angle_beta 90.000000
_cell_angle_gamma 90.000000
_cell_volume 6065.534902
_symmetry_space_group_name_H-M "I M M M"
_symmetry_group_IT_number 71
_symmetry_cell_setting 'orthorhombic'
loop_
_space_group_symop_operation_xyz
x,y,z
-x,-y,z
x,-y,-z
-x,y,-z
-x,-y,-z
x,y,-z
-x,y,z
x,-y,z
1/2+x,1/2+y,1/2+z
1/2-x,1/2-y,1/2+z
1/2+x,1/2-y,1/2-z
1/2-x,1/2+y,1/2-z
1/2-x,1/2-y,1/2-z
1/2+x,1/2+y,1/2-z
1/2-x,1/2+y,1/2+z
1/2+x,1/2-y,1/2+z
loop_
_atom_site_type_symbol
_atom_site_label
_atom_site_fract_x
_atom_site_fract_y
_atom_site_fract_z
Si Si1 0.808872 0.313347 0.820719
Si Si2 0.400171 0.347554 0.671969
Si Si3 0.938665 0.500000 0.180763
Si Si4 0.000000 0.776295 0.175319
Si Si5 0.099126 0.611240 0.180848
Si Si6 0.000000 0.332083 0.322304
Si Si7 0.809436 0.793980 0.324083
Si Si8 0.937192 0.057627 0.331572
O O1 0.847297 0.359349 0.775620
O O2 0.824831 0.258834 0.755071
O O3 0.747631 0.314901 0.777169
O O4 0.811449 0.310911 0.000000
O O5 0.385144 0.341111 0.500000
O O6 0.449229 0.310745 0.701759
O O7 0.353086 0.333282 0.778344
O O8 0.417165 0.404217 0.708829
O O9 0.909316 0.447855 0.224694
O O10 0.000000 0.500000 0.229931
O O11 0.940170 0.500000 0.000000
O O12 0.000000 0.726631 0.275298
O O13 0.000000 0.761308 0.000000
O O14 0.050970 0.641744 0.251373
O O15 0.095499 0.613445 0.000000
O O16 0.000000 0.337747 0.500000
O O17 0.807526 0.784997 0.500000
O O18 0.922111 0.073746 0.500000
O O19 0.000000 0.057825 0.327554
O O20 0.919555 0.000000 0.309532
#
# Coordination Sequence:
#
# PCOD9520302 Si02
#       8
#    16  16   8   8  16   8  16  16
#     4   9  19  35  55  78 103 135 175 219 265 315
#     4  11  21  34  52  76 104 139 177 215 258 309
#     4   9  16  30  56  84 102 130 176 213 254 305
#     4  10  22  36  48  70 106 141 175 211 254 307
#     4  10  19  35  57  77 102 136 174 216 258 310
#     4  12  24  33  47  77 110 138 168 206 258 313
#     4  10  20  34  53  77 107 138 174 218 267 320
#     4   9  18  33  53  76 102 133 168 209 259 308
#
# _framework density 17.146055
#
# number of rings (size 3 to 8) (size 9 to 14) (size 15 to 20)
#    0.000    2.077    1.538    3.000    0.000    6.462 
#    0.000    1.538    1.692    0.000    0.000    0.000 
#    0.000    0.000    0.000    0.000    0.000    0.000 
#
# Total GULP energy -289922.024650 kJ/mol
# GULP energy per Si atom -5575.423551 kJ/mol
# Density = 1.710703 g / cm^3
# Si number density = 17.146055 Si / 1000 Ang^3
#
#
#
# Elastic Constant Matrix: (Units=GPa)
#
#
# Indices 1 2 3 4 5 6 
#
# 1 68.4493 45.8169 15.4908 0.0000 0.0000 0.0000
# 2 45.8169 102.3599 22.7027 0.0000 0.0000 0.0000
# 3 15.4908 22.7027 8.7498 0.0000 0.0000 0.0000
# 4 0.0000 0.0000 0.0000 24.2536 0.0000 0.0000
# 5 0.0000 0.0000 0.0000 0.0000 18.9380 0.0000
# 6 0.0000 0.0000 0.0000 0.0000 0.0000 11.1702
#
#
#
# Elastic Compliance Matrix: (Units=1/GPa)
#
#
# Indices 1 2 3 4 5 6 
#
# 1 0.024816 -0.003212 -0.035602 0.000000 0.000000 0.000000
# 2 -0.003212 0.023428 -0.055102 0.000000 0.000000 0.000000
# 3 -0.035602 -0.055102 0.320288 0.000000 0.000000 0.000000
# 4 0.000000 0.000000 0.000000 0.041231 0.000000 0.000000
# 5 0.000000 0.000000 0.000000 0.000000 0.052804 0.000000
# 6 0.000000 0.000000 0.000000 0.000000 0.000000 0.089524
#
#
# Mechanical properties :
#
#
# Convention : Reuss Voigt Hill
#
# Bulk Modulus (GPa) = 5.53399 38.61996 22.07698
# Shear Modulus (GPa) = 6.24879 17.24227 11.74553
#
# Velocity S-wave (km/s) = 1.91111 3.17458 2.62014
# Velocity P-wave (km/s) = 2.84682 6.00086 4.69652
#
# Compressibility (1/GPa) = 0.18070134
#
# Stress axis : x y z
#
# Youngs Moduli (GPa) = 40.29638 42.68356 3.12219
#
# Poissons Ratio (x) = 0.13708 0.11116
# Poissons Ratio (y) = 0.12942 0.17204
# Poissons Ratio (z) = 1.43462 2.35195
#
# Static dielectric constant tensor:
#      x y z
#    x 1.585390 0.000000 0.000000 
#    y 0.000000 1.579460 0.000000 
#    z 0.000000 0.000000 1.585440 
# 
# From -- ./inp_files/15357.got.cif
#   From: 2010.05.17/outbox.cif.g08.bks.cpg/sg71_8_cif.got.tgz:15357.got - 2010.06.03 16:22:01.
