data_PCOD9520805
_publ_section_title
;
Structure prediction by ZEFSAII (Michael W. Deem and Ramdas Pophale) SiO2 
 PCOD9520805
Probable space group: I M M M
;
_chemical_formula_sum "Si O2"
_cell_formula_units_Z 112
_cell_length_a 18.942763
_cell_length_b 17.764133
_cell_length_c 17.734289
_cell_angle_alpha 90.000000
_cell_angle_beta 90.000000
_cell_angle_gamma 90.000000
_cell_volume 5967.619484
_symmetry_space_group_name_H-M "I M M M"
_symmetry_group_IT_number 71
_symmetry_cell_setting 'orthorhombic'
loop_
_space_group_symop_operation_xyz
x,y,z
-x,-y,z
x,-y,-z
-x,y,-z
-x,-y,-z
x,y,-z
-x,y,z
x,-y,z
1/2+x,1/2+y,1/2+z
1/2-x,1/2-y,1/2+z
1/2+x,1/2-y,1/2-z
1/2-x,1/2+y,1/2-z
1/2-x,1/2-y,1/2-z
1/2+x,1/2+y,1/2-z
1/2-x,1/2+y,1/2+z
1/2+x,1/2-y,1/2+z
loop_
_atom_site_type_symbol
_atom_site_label
_atom_site_fract_x
_atom_site_fract_y
_atom_site_fract_z
Si Si1 0.132376 0.910399 0.916608
Si Si2 0.419629 0.811985 0.691000
Si Si3 0.080378 0.589617 0.333906
Si Si4 0.222402 0.913296 0.290055
Si Si5 0.284551 0.816273 0.410447
Si Si6 0.079546 0.148369 0.760394
Si Si7 0.224627 0.342400 0.638235
O O1 0.090615 0.872269 0.848531
O O2 0.214700 0.889508 0.905008
O O3 0.123965 0.000000 0.910621
O O4 0.110048 0.885750 0.000000
O O5 0.500000 0.807134 0.662764
O O6 0.414258 0.883010 0.746803
O O7 0.362441 0.810285 0.625500
O O8 0.407767 0.737937 0.742968
O O9 0.089089 0.500000 0.339076
O O10 0.145195 0.630168 0.375936
O O11 0.000000 0.608902 0.358482
O O12 0.250422 0.888626 0.370803
O O13 0.139331 0.896940 0.283048
O O14 0.258000 0.860453 0.226081
O O15 0.237418 0.000000 0.271903
O O16 0.285934 0.818431 0.500000
O O17 0.240300 0.743565 0.382439
O O18 0.000000 0.131324 0.737231
#
# Coordination Sequence:
#
# PCOD9520805 Si02
#       7
#    16  16  16  16  16  16  16
#     4  10  20  32  49  79 116 150 184 226 281 345
#     4  10  20  35  56  84 119 152 188 231 277 342
#     4  10  20  34  57  88 116 145 187 242 297 338
#     4  11  22  37  60  86 114 150 197 248 290 337
#     4  12  24  38  59  85 118 159 196 236 288 347
#     4  10  20  35  58  85 114 149 191 236 286 347
#     4  11  19  35  59  82 110 149 195 240 283 337
#
# _framework density 18.767952999999999
#
# number of rings (size 3 to 8) (size 9 to 14) (size 15 to 20)
#    0.000    1.429    4.286    4.286    0.000    2.000 
#    0.000    2.143    0.000    3.000    0.000    9.000 
#    0.000    0.000    0.000    0.000    0.000    0.000 
#
# Total GULP energy -312670.909897 kJ/mol
# GULP energy per Si atom -5583.409105 kJ/mol
# Density = 1.872524 g / cm^3
# Si number density = 18.767953 Si / 1000 Ang^3
#
#
#
# Elastic Constant Matrix: (Units=GPa)
#
#
# Indices 1 2 3 4 5 6 
#
# 1 96.9684 7.1977 5.8368 0.0000 0.0000 0.0000
# 2 7.1977 23.6141 7.7426 0.0000 0.0000 0.0000
# 3 5.8368 7.7426 39.3456 0.0000 0.0000 0.0000
# 4 0.0000 0.0000 0.0000 17.2066 0.0000 0.0000
# 5 0.0000 0.0000 0.0000 0.0000 11.6357 0.0000
# 6 0.0000 0.0000 0.0000 0.0000 0.0000 19.1168
#
#
#
# Elastic Compliance Matrix: (Units=1/GPa)
#
#
# Indices 1 2 3 4 5 6 
#
# 1 0.010588 -0.002899 -0.001000 0.000000 0.000000 0.000000
# 2 -0.002899 0.046062 -0.008634 0.000000 0.000000 0.000000
# 3 -0.001000 -0.008634 0.027263 0.000000 0.000000 0.000000
# 4 0.000000 0.000000 0.000000 0.058117 0.000000 0.000000
# 5 0.000000 0.000000 0.000000 0.000000 0.085942 0.000000
# 6 0.000000 0.000000 0.000000 0.000000 0.000000 0.052310
#
#
# Mechanical properties :
#
#
# Convention : Reuss Voigt Hill
#
# Bulk Modulus (GPa) = 16.99347 22.38691 19.69019
# Shear Modulus (GPa) = 15.38622 18.86856 17.12739
#
# Velocity S-wave (km/s) = 2.86634 3.17418 3.02418
# Velocity P-wave (km/s) = 4.47535 5.03866 4.76533
#
# Compressibility (1/GPa) = 0.05884615
#
# Stress axis : x y z
#
# Youngs Moduli (GPa) = 94.44613 21.70974 36.67942
#
# Poissons Ratio (x) = 0.06294 0.03668
# Poissons Ratio (y) = 0.27383 0.31670
# Poissons Ratio (z) = 0.09446 0.18745
#
# Static dielectric constant tensor:
#      x y z
#    x 1.687340 0.000000 0.000000 
#    y 0.000000 1.669940 0.000000 
#    z 0.000000 0.000000 1.647840 
# 
# From -- ./inp_files/54285.got.cif
#   From: 2010.05.17/outbox.cif.g08.bks.cpg/sg71_28_cif.got.tgz:54285.got - 2010.06.03 16:22:01.
