data_PCOD9520097
_publ_section_title
;
Structure prediction by ZEFSAII (Michael W. Deem and Ramdas Pophale) SiO2 
 PCOD9520097
Probable space group: I M M M
;
_chemical_formula_sum "Si O2"
_cell_formula_units_Z 104
_cell_length_a 23.888777
_cell_length_b 24.401392
_cell_length_c 7.476650
_cell_angle_alpha 90.000000
_cell_angle_beta 90.000000
_cell_angle_gamma 90.000000
_cell_volume 4358.284422
_symmetry_space_group_name_H-M "I M M M"
_symmetry_group_IT_number 71
_symmetry_cell_setting 'orthorhombic'
loop_
_space_group_symop_operation_xyz
x,y,z
-x,-y,z
x,-y,-z
-x,y,-z
-x,-y,-z
x,y,-z
-x,y,z
x,-y,z
1/2+x,1/2+y,1/2+z
1/2-x,1/2-y,1/2+z
1/2+x,1/2-y,1/2-z
1/2-x,1/2+y,1/2-z
1/2-x,1/2-y,1/2-z
1/2+x,1/2+y,1/2-z
1/2-x,1/2+y,1/2+z
1/2+x,1/2-y,1/2+z
loop_
_atom_site_type_symbol
_atom_site_label
_atom_site_fract_x
_atom_site_fract_y
_atom_site_fract_z
Si Si1 0.564529 0.000000 0.211520
Si Si2 0.159197 0.588959 0.214115
Si Si3 0.000000 0.729827 0.209271
Si Si4 0.596383 0.439567 0.218081
Si Si5 0.500000 0.357950 0.783327
Si Si6 0.296856 0.704810 0.711784
Si Si7 0.220060 0.918520 0.703400
Si Si8 0.619945 0.206419 0.719364
O O1 0.604344 0.051945 0.256889
O O2 0.500000 0.000000 0.284498
O O3 0.558945 0.000000 0.000000
O O4 0.219186 0.567123 0.283574
O O5 0.150225 0.651089 0.279584
O O6 0.166052 0.591893 0.000000
O O7 0.056743 0.705751 0.284290
O O8 0.000000 0.795420 0.223262
O O9 0.000000 0.715450 0.000000
O O10 0.574314 0.500000 0.263035
O O11 0.554972 0.391519 0.277330
O O12 0.660376 0.435160 0.284186
O O13 0.598325 0.436022 0.000000
O O14 0.500000 0.357925 0.000000
O O15 0.300199 0.694698 0.500000
O O16 0.250000 0.750000 0.750000
O O17 0.283146 0.647550 0.800438
O O18 0.352444 0.736223 0.774382
O O19 0.219643 0.939377 0.500000
O O20 0.621773 0.206465 0.500000
#
# Coordination Sequence:
#
# PCOD9520097 Si02
#       8
#     8  16   8  16   8  16  16  16
#     4  11  27  47  63  85 119 150 185 236 298 353
#     4  10  21  39  63  88 113 146 194 239 280 342
#     4  10  20  35  57  80 109 146 179 227 282 329
#     4   9  18  32  55  82 112 151 194 238 283 328
#     4  10  19  34  54  82 115 149 194 237 275 333
#     4  11  20  34  54  80 116 152 186 227 280 342
#     4  10  20  35  57  86 117 149 191 241 287 338
#     4   9  19  35  56  83 111 143 188 232 273 335
#
# _framework density 23.862598999999999
#
# number of rings (size 3 to 8) (size 9 to 14) (size 15 to 20)
#    0.000    2.077    1.538    1.846    2.154    2.154 
#    0.000    1.538    0.000    1.846    0.000    0.000 
#    0.000    0.000    0.000    0.000    0.000    0.000 
#
# Total GULP energy -290554.625704 kJ/mol
# GULP energy per Si atom -5587.588956 kJ/mol
# Density = 2.380829 g / cm^3
# Si number density = 23.862599 Si / 1000 Ang^3
#
#
#
# Elastic Constant Matrix: (Units=GPa)
#
#
# Indices 1 2 3 4 5 6 
#
# 1 165.6625 19.7247 5.1335 0.0000 0.0000 0.0000
# 2 19.7247 103.1186 -2.6381 0.0000 0.0000 0.0000
# 3 5.1335 -2.6381 79.0667 0.0000 0.0000 0.0000
# 4 0.0000 0.0000 0.0000 11.9180 0.0000 0.0000
# 5 0.0000 0.0000 0.0000 0.0000 2.4819 0.0000
# 6 0.0000 0.0000 0.0000 0.0000 0.0000 47.3729
#
#
#
# Elastic Compliance Matrix: (Units=1/GPa)
#
#
# Indices 1 2 3 4 5 6 
#
# 1 0.006192 -0.001196 -0.000442 0.000000 0.000000 0.000000
# 2 -0.001196 0.009937 0.000409 0.000000 0.000000 0.000000
# 3 -0.000442 0.000409 0.012690 0.000000 0.000000 0.000000
# 4 0.000000 0.000000 0.000000 0.083907 0.000000 0.000000
# 5 0.000000 0.000000 0.000000 0.000000 0.402924 0.000000
# 6 0.000000 0.000000 0.000000 0.000000 0.000000 0.021109
#
#
# Mechanical properties :
#
#
# Convention : Reuss Voigt Hill
#
# Bulk Modulus (GPa) = 37.93342 43.58754 40.76048
# Shear Modulus (GPa) = 9.12404 34.06306 21.59355
#
# Velocity S-wave (km/s) = 1.95752 3.78228 3.01144
# Velocity P-wave (km/s) = 4.58697 6.11391 5.40464
#
# Compressibility (1/GPa) = 0.02636198
#
# Stress axis : x y z
#
# Youngs Moduli (GPa) = 161.48711 100.63624 78.80283
#
# Poissons Ratio (x) = 0.12034 0.03483
# Poissons Ratio (y) = 0.19311 -0.03225
# Poissons Ratio (z) = 0.07137 -0.04118
#
# Static dielectric constant tensor:
#      x y z
#    x 1.950850 0.000000 0.000000 
#    y 0.000000 1.855070 0.000000 
#    z 0.000000 0.000000 1.908420 
# 
# From -- ./inp_files/11216.got.cif
#   From: 2010.05.17/outbox.cif.g08.bks.cpg/sg71_6_cif.got.tgz:11216.got - 2010.06.03 16:22:01.
