data_PCOD9520593
_publ_section_title
;
Structure prediction by ZEFSAII (Michael W. Deem and Ramdas Pophale) SiO2 
 PCOD9520593
Probable space group: I M M M
;
_chemical_formula_sum "Si O2"
_cell_formula_units_Z 96
_cell_length_a 21.864278
_cell_length_b 9.347973
_cell_length_c 22.367929
_cell_angle_alpha 90.000000
_cell_angle_beta 90.000000
_cell_angle_gamma 90.000000
_cell_volume 4571.706756
_symmetry_space_group_name_H-M "I M M M"
_symmetry_group_IT_number 71
_symmetry_cell_setting 'orthorhombic'
loop_
_space_group_symop_operation_xyz
x,y,z
-x,-y,z
x,-y,-z
-x,y,-z
-x,-y,-z
x,y,-z
-x,y,z
x,-y,z
1/2+x,1/2+y,1/2+z
1/2-x,1/2-y,1/2+z
1/2+x,1/2-y,1/2-z
1/2-x,1/2+y,1/2-z
1/2-x,1/2-y,1/2-z
1/2+x,1/2+y,1/2-z
1/2-x,1/2+y,1/2+z
1/2+x,1/2-y,1/2+z
loop_
_atom_site_type_symbol
_atom_site_label
_atom_site_fract_x
_atom_site_fract_y
_atom_site_fract_z
Si Si1 0.933913 0.171464 0.604235
Si Si2 0.311830 0.663801 0.237116
Si Si3 0.696115 0.339385 0.093599
Si Si4 0.931698 0.328805 0.268022
Si Si5 0.183621 0.159440 0.071411
Si Si6 0.432491 0.835300 0.427035
O O1 0.870956 0.204202 0.570301
O O2 0.934779 0.266667 0.664282
O O3 0.000000 0.192511 0.574254
O O4 0.930324 0.000000 0.619127
O O5 0.309866 0.500000 0.258894
O O6 0.250000 0.750000 0.250000
O O7 0.313282 0.657077 0.164995
O O8 0.372802 0.747069 0.258394
O O9 0.710996 0.500000 0.072869
O O10 0.752456 0.237861 0.081058
O O11 0.921924 0.500000 0.267993
O O12 0.000000 0.301523 0.241908
O O13 0.125297 0.246522 0.094670
O O14 0.185282 0.000000 0.096096
O O15 0.175278 0.150909 0.000000
O O16 0.431041 0.837131 0.500000
O O17 0.500000 0.780446 0.410268
O O18 0.427412 0.000000 0.407227
#
# Coordination Sequence:
#
# PCOD9520593 Si02
#       6
#    16  16  16  16  16  16
#     4   8  14  26  44  66  91 117 150 194 237 274
#     4  10  20  33  50  72  97 125 157 193 235 281
#     4   9  18  31  48  70  94 123 156 189 229 277
#     4   9  16  26  43  68  95 122 154 191 230 273
#     4  10  20  31  45  68  96 125 156 191 231 273
#     4   8  14  26  45  67  89 115 149 188 229 273
#
# _framework density 20.998722999999998
#
# number of rings (size 3 to 8) (size 9 to 14) (size 15 to 20)
#    0.000    3.000    0.000    3.000    0.000    5.667 
#    0.000    1.667    0.000    1.500    0.000   10.500 
#    0.000    0.000    0.000    0.000    0.000    0.000 
#
# Total GULP energy -267535.590769 kJ/mol
# GULP energy per Si atom -5573.658141 kJ/mol
# Density = 2.095093 g / cm^3
# Si number density = 20.998723 Si / 1000 Ang^3
#
#
#
# Elastic Constant Matrix: (Units=GPa)
#
#
# Indices 1 2 3 4 5 6 
#
# 1 264.2525 128.7264 5.0614 0.0000 0.0000 0.0000
# 2 128.7264 130.8884 5.0119 0.0000 0.0000 0.0000
# 3 5.0614 5.0119 52.9185 0.0000 0.0000 0.0000
# 4 0.0000 0.0000 0.0000 8.7264 0.0000 0.0000
# 5 0.0000 0.0000 0.0000 0.0000 19.0756 0.0000
# 6 0.0000 0.0000 0.0000 0.0000 0.0000 26.1249
#
#
#
# Elastic Compliance Matrix: (Units=1/GPa)
#
#
# Indices 1 2 3 4 5 6 
#
# 1 0.007265 -0.007144 -0.000018 0.000000 0.000000 0.000000
# 2 -0.007144 0.014693 -0.000708 0.000000 0.000000 0.000000
# 3 -0.000018 -0.000708 0.018966 0.000000 0.000000 0.000000
# 4 0.000000 0.000000 0.000000 0.114594 0.000000 0.000000
# 5 0.000000 0.000000 0.000000 0.000000 0.052423 0.000000
# 6 0.000000 0.000000 0.000000 0.000000 0.000000 0.038278
#
#
# Mechanical properties :
#
#
# Convention : Reuss Voigt Hill
#
# Bulk Modulus (GPa) = 39.70986 80.62877 60.16931
# Shear Modulus (GPa) = 18.49428 31.40270 24.94849
#
# Velocity S-wave (km/s) = 2.97094 3.87131 3.45062
# Velocity P-wave (km/s) = 5.54259 7.64611 6.67770
#
# Compressibility (1/GPa) = 0.02518266
#
# Stress axis : x y z
#
# Youngs Moduli (GPa) = 137.65207 68.05866 52.72644
#
# Poissons Ratio (x) = 0.48621 0.00096
# Poissons Ratio (y) = 0.98339 0.03735
# Poissons Ratio (z) = 0.00251 0.04821
#
# Static dielectric constant tensor:
#      x y z
#    x 1.798920 0.000000 0.000000 
#    y 0.000000 1.719000 0.000000 
#    z 0.000000 0.000000 1.836430 
# 
# From -- ./inp_files/10884.got.cif
#   From: 2010.05.17/outbox.cif.g08.bks.cpg/sg71_6_cif.got.tgz:10884.got - 2010.06.03 16:22:01.
