data_PCOD9520357
_publ_section_title
;
Structure prediction by ZEFSAII (Michael W. Deem and Ramdas Pophale) SiO2 
 PCOD9520357
Probable space group: I M M M
;
_chemical_formula_sum "Si O2"
_cell_formula_units_Z 88
_cell_length_a 18.886405
_cell_length_b 25.256506
_cell_length_c 9.828889
_cell_angle_alpha 90.000000
_cell_angle_beta 90.000000
_cell_angle_gamma 90.000000
_cell_volume 4688.425278
_symmetry_space_group_name_H-M "I M M M"
_symmetry_group_IT_number 71
_symmetry_cell_setting 'orthorhombic'
loop_
_space_group_symop_operation_xyz
x,y,z
-x,-y,z
x,-y,-z
-x,y,-z
-x,-y,-z
x,y,-z
-x,y,z
x,-y,z
1/2+x,1/2+y,1/2+z
1/2-x,1/2-y,1/2+z
1/2+x,1/2-y,1/2-z
1/2-x,1/2+y,1/2-z
1/2-x,1/2-y,1/2-z
1/2+x,1/2+y,1/2-z
1/2-x,1/2+y,1/2+z
1/2+x,1/2-y,1/2+z
loop_
_atom_site_type_symbol
_atom_site_label
_atom_site_fract_x
_atom_site_fract_y
_atom_site_fract_z
Si Si1 0.689583 0.102836 0.233002
Si Si2 0.419083 0.692930 0.280669
Si Si3 0.417689 0.936298 0.000000
Si Si4 0.769264 0.938030 0.500000
Si Si5 0.922112 0.898447 0.000000
Si Si6 0.587638 0.364142 0.000000
Si Si7 0.720659 0.559879 0.500000
Si Si8 0.306726 0.779861 0.342669
O O1 0.718851 0.074545 0.369503
O O2 0.678164 0.163304 0.276123
O O3 0.624063 0.082584 0.137601
O O4 0.753636 0.092914 0.128806
O O5 0.500000 0.710446 0.282653
O O6 0.413453 0.640944 0.373406
O O7 0.372708 0.740430 0.336044
O O8 0.401111 0.672591 0.130954
O O9 0.500000 0.918749 0.000000
O O10 0.417062 0.000000 0.000000
O O11 0.845662 0.906238 0.500000
O O12 0.786832 0.000000 0.500000
O O13 0.862684 0.941689 0.000000
O O14 0.000000 0.921333 0.000000
O O15 0.500000 0.380077 0.000000
O O16 0.750270 0.500000 0.500000
O O17 0.284244 0.786955 0.500000
O O18 0.250000 0.750000 0.250000
#
# Coordination Sequence:
#
# PCOD9520357 Si02
#       8
#    16  16   8   8   8   8   8  16
#     4  11  24  40  62  94 124 159 206 264 316 374
#     4  10  22  39  60  84 120 164 201 244 303 364
#     4  10  23  47  73  93 120 163 212 264 330 402
#     4  12  22  38  63  92 128 168 211 263 318 364
#     4  10  19  35  58  85 118 161 208 251 297 353
#     4  10  22  39  59  91 129 169 214 252 293 359
#     4  11  22  39  61  85 120 164 206 255 311 370
#     4  12  25  39  62  92 127 163 206 254 306 374
#
# _framework density 18.769628999999998
#
# number of rings (size 3 to 8) (size 9 to 14) (size 15 to 20)
#    0.000    1.182    1.818    5.455    3.818    1.091 
#    0.000    1.364    0.000    7.091    0.000    0.000 
#    0.000    0.000    0.000    0.000    0.000    0.000 
#
# Total GULP energy -245244.454571 kJ/mol
# GULP energy per Si atom -5573.737604 kJ/mol
# Density = 1.872691 g / cm^3
# Si number density = 18.769629 Si / 1000 Ang^3
#
#
#
# Elastic Constant Matrix: (Units=GPa)
#
#
# Indices 1 2 3 4 5 6 
#
# 1 131.7897 51.5518 44.2036 0.0000 0.0000 0.0000
# 2 51.5518 78.4258 30.1294 0.0000 0.0000 0.0000
# 3 44.2036 30.1294 165.8806 0.0000 0.0000 0.0000
# 4 0.0000 0.0000 0.0000 30.5321 0.0000 0.0000
# 5 0.0000 0.0000 0.0000 0.0000 23.0998 0.0000
# 6 0.0000 0.0000 0.0000 0.0000 0.0000 31.6295
#
#
#
# Elastic Compliance Matrix: (Units=1/GPa)
#
#
# Indices 1 2 3 4 5 6 
#
# 1 0.010633 -0.006344 -0.001681 0.000000 0.000000 0.000000
# 2 -0.006344 0.017492 -0.001487 0.000000 0.000000 0.000000
# 3 -0.001681 -0.001487 0.006746 0.000000 0.000000 0.000000
# 4 0.000000 0.000000 0.000000 0.032752 0.000000 0.000000
# 5 0.000000 0.000000 0.000000 0.000000 0.043290 0.000000
# 6 0.000000 0.000000 0.000000 0.000000 0.000000 0.031616
#
#
# Mechanical properties :
#
#
# Convention : Reuss Voigt Hill
#
# Bulk Modulus (GPa) = 63.09785 69.76287 66.43036
# Shear Modulus (GPa) = 29.96945 33.73301 31.85123
#
# Velocity S-wave (km/s) = 4.00021 4.24395 4.12388
# Velocity P-wave (km/s) = 7.41792 7.82710 7.62525
#
# Compressibility (1/GPa) = 0.01584840
#
# Stress axis : x y z
#
# Youngs Moduli (GPa) = 94.04508 57.16924 148.22509
#
# Poissons Ratio (x) = 0.36266 0.24921
# Poissons Ratio (y) = 0.59659 0.22036
# Poissons Ratio (z) = 0.15812 0.08499
#
# Static dielectric constant tensor:
#      x y z
#    x 1.734810 0.000000 0.000000 
#    y 0.000000 1.608710 0.000000 
#    z 0.000000 0.000000 1.666580 
# 
# From -- ./inp_files/10589.got.cif
#   From: 2010.05.17/outbox.cif.g08.bks.cpg/sg71_6_cif.got.tgz:10589.got - 2010.06.03 16:22:01.
