data_PCOD9520481
_publ_section_title
;
Structure prediction by ZEFSAII (Michael W. Deem and Ramdas Pophale) SiO2 
 PCOD9520481
Probable space group: I M M M
;
_chemical_formula_sum "Si O2"
_cell_formula_units_Z 104
_cell_length_a 29.772942
_cell_length_b 7.525185
_cell_length_c 20.262615
_cell_angle_alpha 90.000000
_cell_angle_beta 90.000000
_cell_angle_gamma 90.000000
_cell_volume 4539.776007
_symmetry_space_group_name_H-M "I M M M"
_symmetry_group_IT_number 71
_symmetry_cell_setting 'orthorhombic'
loop_
_space_group_symop_operation_xyz
x,y,z
-x,-y,z
x,-y,-z
-x,y,-z
-x,-y,-z
x,y,-z
-x,y,z
x,-y,z
1/2+x,1/2+y,1/2+z
1/2-x,1/2-y,1/2+z
1/2+x,1/2-y,1/2-z
1/2-x,1/2+y,1/2-z
1/2-x,1/2-y,1/2-z
1/2+x,1/2+y,1/2-z
1/2-x,1/2+y,1/2+z
1/2+x,1/2-y,1/2+z
loop_
_atom_site_type_symbol
_atom_site_label
_atom_site_fract_x
_atom_site_fract_y
_atom_site_fract_z
Si Si1 0.903490 0.785895 0.627260
Si Si2 0.271979 0.211471 0.894212
Si Si3 0.653409 0.254493 0.000000
Si Si4 0.672826 0.213825 0.377266
Si Si5 0.000000 0.715056 0.172717
Si Si6 0.423185 0.217164 0.426752
Si Si7 0.000000 0.209217 0.672873
Si Si8 0.675888 0.211689 0.771852
O O1 0.882932 0.716672 0.559131
O O2 0.869983 0.744645 0.687891
O O3 0.953275 0.719251 0.644179
O O4 0.904284 0.000000 0.619439
O O5 0.307980 0.292536 0.943294
O O6 0.220273 0.241862 0.909925
O O7 0.284299 0.275163 0.820291
O O8 0.280788 0.000000 0.899194
O O9 0.627694 0.275694 0.412738
O O10 0.674457 0.283810 0.301970
O O11 0.669839 0.000000 0.375240
O O12 0.043478 0.774173 0.131190
O O13 0.000000 0.500000 0.173489
O O14 0.000000 0.773495 0.248057
O O15 0.437777 0.272239 0.500000
O O16 0.423795 0.000000 0.426312
O O17 0.000000 0.000000 0.657172
O O18 0.681420 0.000000 0.765914
#
# Coordination Sequence:
#
# PCOD9520481 Si02
#       8
#    16  16   8  16   8  16   8  16
#     4  10  21  37  59  85 113 147 187 230 282 341
#     4  10  21  36  55  77 108 149 189 232 287 340
#     4  10  22  39  57  78 107 147 191 230 272 336
#     4  10  20  33  53  81 113 146 187 237 282 328
#     4  10  19  36  63  85 107 149 196 228 272 338
#     4   9  18  32  52  82 114 144 184 235 279 319
#     4  10  22  38  57  87 120 143 174 232 292 337
#     4   9  19  36  55  79 112 148 186 235 285 332
#
# _framework density 22.908619999999999
#
# number of rings (size 3 to 8) (size 9 to 14) (size 15 to 20)
#    0.000    2.308    0.000    2.077    1.077    7.385 
#    0.000    1.923    0.000    1.846    0.000    5.923 
#    0.000    0.000    0.000    0.000    0.000    0.000 
#
# Total GULP energy -289595.390364 kJ/mol
# GULP energy per Si atom -5569.142122 kJ/mol
# Density = 2.285648 g / cm^3
# Si number density = 22.908620 Si / 1000 Ang^3
#
#
#
# Elastic Constant Matrix: (Units=GPa)
#
#
# Indices 1 2 3 4 5 6 
#
# 1 176.8451 -18.1271 55.5130 0.0000 0.0000 0.0000
# 2 -18.1271 54.8006 -8.6387 0.0000 0.0000 0.0000
# 3 55.5130 -8.6387 132.2611 0.0000 0.0000 0.0000
# 4 0.0000 0.0000 0.0000 2.3369 0.0000 0.0000
# 5 0.0000 0.0000 0.0000 0.0000 20.1564 0.0000
# 6 0.0000 0.0000 0.0000 0.0000 0.0000 8.0950
#
#
#
# Elastic Compliance Matrix: (Units=1/GPa)
#
#
# Indices 1 2 3 4 5 6 
#
# 1 0.006681 0.001786 -0.002688 0.000000 0.000000 0.000000
# 2 0.001786 0.018915 0.000486 0.000000 0.000000 0.000000
# 3 -0.002688 0.000486 0.008721 0.000000 0.000000 0.000000
# 4 0.000000 0.000000 0.000000 0.427926 0.000000 0.000000
# 5 0.000000 0.000000 0.000000 0.000000 0.049612 0.000000
# 6 0.000000 0.000000 0.000000 0.000000 0.000000 0.123533
#
#
# Mechanical properties :
#
#
# Convention : Reuss Voigt Hill
#
# Bulk Modulus (GPa) = 29.86288 46.82234 38.34261
# Shear Modulus (GPa) = 7.72342 28.46162 18.09252
#
# Velocity S-wave (km/s) = 1.83813 3.52859 2.81333
# Velocity P-wave (km/s) = 4.19153 6.08969 5.22749
#
# Compressibility (1/GPa) = 0.03348638
#
# Stress axis : x y z
#
# Youngs Moduli (GPa) = 149.66779 52.86680 114.67089
#
# Poissons Ratio (x) = -0.09444 0.30820
# Poissons Ratio (y) = -0.26737 -0.05569
# Poissons Ratio (z) = 0.40226 -0.02568
#
# Static dielectric constant tensor:
#      x y z
#    x 1.833090 0.000000 0.000000 
#    y 0.000000 1.927690 0.000000 
#    z 0.000000 0.000000 1.821170 
# 
# From -- ./inp_files/56334.got.cif
#   From: 2010.05.17/outbox.cif.g08.bks.cpg/sg71_29_cif.got.tgz:56334.got - 2010.06.03 16:22:01.
