data_PCOD9520825
_publ_section_title
;
Structure prediction by ZEFSAII (Michael W. Deem and Ramdas Pophale) SiO2 
 PCOD9520825
Probable space group: I M M M
;
_chemical_formula_sum "Si O2"
_cell_formula_units_Z 116
_cell_length_a 28.571237
_cell_length_b 29.028476
_cell_length_c 7.552682
_cell_angle_alpha 90.000000
_cell_angle_beta 90.000000
_cell_angle_gamma 90.000000
_cell_volume 6264.039376
_symmetry_space_group_name_H-M "I M M M"
_symmetry_group_IT_number 71
_symmetry_cell_setting 'orthorhombic'
loop_
_space_group_symop_operation_xyz
x,y,z
-x,-y,z
x,-y,-z
-x,y,-z
-x,-y,-z
x,y,-z
-x,y,z
x,-y,z
1/2+x,1/2+y,1/2+z
1/2-x,1/2-y,1/2+z
1/2+x,1/2-y,1/2-z
1/2-x,1/2+y,1/2-z
1/2-x,1/2-y,1/2-z
1/2+x,1/2+y,1/2-z
1/2-x,1/2+y,1/2+z
1/2+x,1/2-y,1/2+z
loop_
_atom_site_type_symbol
_atom_site_label
_atom_site_fract_x
_atom_site_fract_y
_atom_site_fract_z
Si Si1 0.423632 0.687113 0.216828
Si Si2 0.285899 0.551351 0.711371
Si Si3 0.824670 0.854487 0.708945
Si Si4 0.447382 0.792834 0.788411
Si Si5 0.265177 0.198045 0.712611
Si Si6 0.500000 0.657499 0.500000
Si Si7 0.142401 0.352230 0.211623
Si Si8 0.822191 0.448456 0.207899
O O1 0.371712 0.670395 0.267482
O O2 0.431320 0.741188 0.260472
O O3 0.459654 0.660512 0.341790
O O4 0.430221 0.681628 0.000000
O O5 0.282847 0.550680 0.500000
O O6 0.298530 0.500000 0.773691
O O7 0.321769 0.590980 0.763321
O O8 0.233432 0.561561 0.779390
O O9 0.823018 0.845805 0.500000
O O10 0.776743 0.833641 0.784780
O O11 0.500000 0.801149 0.717997
O O12 0.407940 0.829752 0.741545
O O13 0.450359 0.792962 0.000000
O O14 0.267011 0.193330 0.500000
O O15 0.250000 0.250000 0.750000
O O16 0.315794 0.181106 0.779256
O O17 0.150746 0.404079 0.282221
O O18 0.148188 0.355427 0.000000
O O19 0.829839 0.500000 0.284207
O O20 0.833799 0.451460 0.000000
#
# Coordination Sequence:
#
# PCOD9520825 Si02
#       8
#    16  16  16  16  16   4  16  16
#     4  10  22  38  57  85 113 147 192 237 276 333
#     4  10  20  32  50  79 112 142 180 227 269 324
#     4  10  20  36  55  76 111 147 182 221 270 330
#     4  10  21  38  55  73 105 140 180 232 278 322
#     4  10  20  34  47  71 108 144 176 211 260 324
#     4  12  22  36  64  82 113 150 191 236 294 316
#     4  10  20  32  51  78 103 133 181 224 265 330
#     4   9  17  33  54  74 102 141 179 220 274 329
#
# _framework density 18.518401999999998
#
# number of rings (size 3 to 8) (size 9 to 14) (size 15 to 20)
#    0.000    2.069    2.069    1.448    1.931    3.862 
#    0.000    0.000    0.000    0.414    0.000    3.862 
#    0.000    2.207    0.000    0.000    0.000    0.000 
#
# Total GULP energy -322894.411490 kJ/mol
# GULP energy per Si atom -5567.145026 kJ/mol
# Density = 1.847625 g / cm^3
# Si number density = 18.518402 Si / 1000 Ang^3
#
#
#
# Elastic Constant Matrix: (Units=GPa)
#
#
# Indices 1 2 3 4 5 6 
#
# 1 148.2512 86.1578 18.1764 0.0000 0.0000 0.0000
# 2 86.1578 108.7366 -1.0510 0.0000 0.0000 0.0000
# 3 18.1764 -1.0510 48.1700 0.0000 0.0000 0.0000
# 4 0.0000 0.0000 0.0000 17.6993 0.0000 0.0000
# 5 0.0000 0.0000 0.0000 0.0000 13.9961 0.0000
# 6 0.0000 0.0000 0.0000 0.0000 0.0000-1948.8347
#
#
#
# Elastic Compliance Matrix: (Units=1/GPa)
#
#
# Indices 1 2 3 4 5 6 
#
# 1 0.013797 -0.010985 -0.005446 0.000000 0.000000 0.000000
# 2 -0.010985 0.017944 0.004536 0.000000 0.000000 0.000000
# 3 -0.005446 0.004536 0.022914 0.000000 0.000000 0.000000
# 4 0.000000 0.000000 0.000000 0.056500 0.000000 0.000000
# 5 0.000000 0.000000 0.000000 0.000000 0.071448 0.000000
# 6 0.000000 0.000000 0.000000 0.000000 0.000000 -0.000513
#
#
# Mechanical properties :
#
#
# Convention : Reuss Voigt Hill
#
# Bulk Modulus (GPa) = 32.39737 56.85826 44.62781
# Shear Modulus (GPa) = 23.13039 -369.96956 -173.41958
#
# Velocity S-wave (km/s) = 3.53802 -14.14986 -9.68765
# Velocity P-wave (km/s) = 5.85003 15.36840 10.04900
#
# Compressibility (1/GPa) = 0.03086670
#
# Stress axis : x y z
#
# Youngs Moduli (GPa) = 72.48073 55.72885 43.64212
#
# Poissons Ratio (x) = 0.61216 0.23766
# Poissons Ratio (y) = 0.79617 -0.19798
# Poissons Ratio (z) = 0.39471 -0.25281
#
# Static dielectric constant tensor:
#      x y z
#    x 1.612500 0.000000 0.000000 
#    y 0.000000 1.663410 0.000000 
#    z 0.000000 0.000000 1.723560 
# 
# From -- ./inp_files/15674.got.cif
#   From: 2010.05.17/outbox.cif.g08.bks.cpg/sg71_8_cif.got.tgz:15674.got - 2010.06.03 16:22:01.
