data_PCOD9520340
_publ_section_title
;
Structure prediction by ZEFSAII (Michael W. Deem and Ramdas Pophale) SiO2 
 PCOD9520340
Probable space group: I M M M
;
_chemical_formula_sum "Si O2"
_cell_formula_units_Z 88
_cell_length_a 29.743472
_cell_length_b 7.556492
_cell_length_c 17.192626
_cell_angle_alpha 90.000000
_cell_angle_beta 90.000000
_cell_angle_gamma 90.000000
_cell_volume 3864.151148
_symmetry_space_group_name_H-M "I M M M"
_symmetry_group_IT_number 71
_symmetry_cell_setting 'orthorhombic'
loop_
_space_group_symop_operation_xyz
x,y,z
-x,-y,z
x,-y,-z
-x,y,-z
-x,-y,-z
x,y,-z
-x,y,z
x,-y,z
1/2+x,1/2+y,1/2+z
1/2-x,1/2-y,1/2+z
1/2+x,1/2-y,1/2-z
1/2-x,1/2+y,1/2-z
1/2-x,1/2-y,1/2-z
1/2+x,1/2+y,1/2-z
1/2-x,1/2+y,1/2+z
1/2+x,1/2-y,1/2+z
loop_
_atom_site_type_symbol
_atom_site_label
_atom_site_fract_x
_atom_site_fract_y
_atom_site_fract_z
Si Si1 0.900081 0.707976 0.161915
Si Si2 0.362933 0.287187 0.911672
Si Si3 0.551739 0.287625 0.500000
Si Si4 0.050469 0.287850 0.314182
Si Si5 0.186861 0.283468 0.913575
Si Si6 0.774046 0.788258 0.668342
O O1 0.894751 0.500000 0.178464
O O2 0.928920 0.783071 0.232808
O O3 0.849923 0.780896 0.148385
O O4 0.924762 0.725245 0.079151
O O5 0.359397 0.500000 0.913916
O O6 0.412262 0.246433 0.879343
O O7 0.323559 0.220087 0.853596
O O8 0.356349 0.222672 0.000000
O O9 0.553016 0.500000 0.500000
O O10 0.500000 0.228820 0.500000
O O11 0.046781 0.500000 0.307018
O O12 0.000000 0.220114 0.328766
O O13 0.186131 0.500000 0.912304
O O14 0.237128 0.227138 0.894323
O O15 0.173399 0.228024 0.000000
O O16 0.750000 0.750000 0.750000
O O17 0.776730 0.000000 0.663755
#
# Coordination Sequence:
#
# PCOD9520340 Si02
#       6
#    16  16   8  16  16  16
#     4  10  19  35  58  82 108 144 193 238 281 342
#     4  10  22  40  61  87 118 155 198 241 291 354
#     4  11  23  35  49  75 113 153 191 235 288 339
#     4  10  22  39  60  87 115 147 193 249 304 353
#     4   9  16  29  53  81 105 136 179 221 265 320
#     4  10  20  35  57  84 115 148 185 230 280 339
#
# _framework density 22.773434999999999
#
# number of rings (size 3 to 8) (size 9 to 14) (size 15 to 20)
#    0.000    2.091    0.909    2.455    0.000    7.636 
#    0.000    2.727    0.000    1.091    0.000    0.000 
#    0.000    0.000    0.000    0.000    0.000    0.000 
#
# Total GULP energy -245777.544216 kJ/mol
# GULP energy per Si atom -5585.853278 kJ/mol
# Density = 2.272160 g / cm^3
# Si number density = 22.773435 Si / 1000 Ang^3
#
#
#
# Elastic Constant Matrix: (Units=GPa)
#
#
# Indices 1 2 3 4 5 6 
#
# 1 194.5787 9.0640 65.9914 0.0000 0.0000 0.0000
# 2 9.0640 57.1957 -1.5018 0.0000 0.0000 0.0000
# 3 65.9914 -1.5018 115.7037 0.0000 0.0000 0.0000
# 4 0.0000 0.0000 0.0000 11.5648 0.0000 0.0000
# 5 0.0000 0.0000 0.0000 0.0000 24.4149 0.0000
# 6 0.0000 0.0000 0.0000 0.0000 0.0000 8.3312
#
#
#
# Elastic Compliance Matrix: (Units=1/GPa)
#
#
# Indices 1 2 3 4 5 6 
#
# 1 0.006442 -0.001118 -0.003689 0.000000 0.000000 0.000000
# 2 -0.001118 0.017684 0.000867 0.000000 0.000000 0.000000
# 3 -0.003689 0.000867 0.010758 0.000000 0.000000 0.000000
# 4 0.000000 0.000000 0.000000 0.086469 0.000000 0.000000
# 5 0.000000 0.000000 0.000000 0.000000 0.040959 0.000000
# 6 0.000000 0.000000 0.000000 0.000000 0.000000 0.120031
#
#
# Mechanical properties :
#
#
# Convention : Reuss Voigt Hill
#
# Bulk Modulus (GPa) = 37.03046 57.17617 47.10331
# Shear Modulus (GPa) = 16.70988 28.45715 22.58351
#
# Velocity S-wave (km/s) = 2.71171 3.53877 3.15248
# Velocity P-wave (km/s) = 5.10883 6.46979 5.82917
#
# Compressibility (1/GPa) = 0.02700480
#
# Stress axis : x y z
#
# Youngs Moduli (GPa) = 155.21927 56.54914 92.95391
#
# Poissons Ratio (x) = 0.06321 0.34290
# Poissons Ratio (y) = 0.17351 -0.08060
# Poissons Ratio (z) = 0.57260 -0.04903
#
# Static dielectric constant tensor:
#      x y z
#    x 1.801630 0.000000 0.000000 
#    y 0.000000 1.869640 0.000000 
#    z 0.000000 0.000000 1.851620 
# 
# From -- ./inp_files/49223.got.cif
#   From: 2010.05.17/outbox.cif.g08.bks.cpg/sg71_25_cif.got.tgz:49223.got - 2010.06.03 16:22:01.
