data_PCOD9520091
_publ_section_title
;
Structure prediction by ZEFSAII (Michael W. Deem and Ramdas Pophale) SiO2 
 PCOD9520091
Probable space group: I M M M
;
_chemical_formula_sum "Si O2"
_cell_formula_units_Z 104
_cell_length_a 27.046309
_cell_length_b 10.044804
_cell_length_c 21.979492
_cell_angle_alpha 90.000000
_cell_angle_beta 90.000000
_cell_angle_gamma 90.000000
_cell_volume 5971.275694
_symmetry_space_group_name_H-M "I M M M"
_symmetry_group_IT_number 71
_symmetry_cell_setting 'orthorhombic'
loop_
_space_group_symop_operation_xyz
x,y,z
-x,-y,z
x,-y,-z
-x,y,-z
-x,-y,-z
x,y,-z
-x,y,z
x,-y,z
1/2+x,1/2+y,1/2+z
1/2-x,1/2-y,1/2+z
1/2+x,1/2-y,1/2-z
1/2-x,1/2+y,1/2-z
1/2-x,1/2-y,1/2-z
1/2+x,1/2+y,1/2-z
1/2-x,1/2+y,1/2+z
1/2+x,1/2-y,1/2+z
loop_
_atom_site_type_symbol
_atom_site_label
_atom_site_fract_x
_atom_site_fract_y
_atom_site_fract_z
Si Si1 0.193540 0.849105 0.685404
Si Si2 0.440634 0.500000 0.928670
Si Si3 0.558560 0.151154 0.750308
Si Si4 0.232091 0.155596 0.500000
Si Si5 0.636041 0.344993 0.311261
Si Si6 0.602902 0.770985 0.122867
Si Si7 0.141661 0.357924 0.500000
Si Si8 0.793595 0.343934 0.876759
O O1 0.173835 0.845984 0.753869
O O2 0.158504 0.751637 0.647656
O O3 0.250905 0.823707 0.674149
O O4 0.185097 0.000000 0.661896
O O5 0.500000 0.500000 0.927158
O O6 0.420361 0.629170 0.894541
O O7 0.425221 0.500000 0.000000
O O8 0.500000 0.167744 0.742876
O O9 0.588924 0.262659 0.713478
O O10 0.572741 0.166914 0.821510
O O11 0.572375 0.000000 0.731579
O O12 0.182668 0.242730 0.500000
O O13 0.265376 0.179494 0.559677
O O14 0.217907 0.000000 0.500000
O O15 0.625786 0.500000 0.326274
O O16 0.662649 0.258711 0.363368
O O17 0.608099 0.847226 0.059805
O O18 0.168057 0.500000 0.500000
O O19 0.809088 0.500000 0.874542
#
# Coordination Sequence:
#
# PCOD9520091 Si02
#       8
#    16   8  16   8  16  16   8  16
#     4   9  17  30  51  77 102 140 179 221 265 317
#     4  11  22  32  50  76  98 136 194 249 288 326
#     4  10  22  40  59  79 106 142 183 230 284 337
#     4  10  22  36  58  80 110 152 197 230 266 323
#     4  10  21  35  54  82 111 142 178 226 277 328
#     4  11  20  35  53  74 108 142 186 233 283 327
#     4  12  24  34  50  77 110 149 191 238 284 324
#     4  10  19  34  54  79 109 144 186 221 270 324
#
# _framework density 17.416715
#
# number of rings (size 3 to 8) (size 9 to 14) (size 15 to 20)
#    0.000    1.769    3.077    1.846    2.154    0.923 
#    0.000    0.769    0.000    1.846    0.000    0.538 
#    0.000    4.308    0.000    0.000    0.000    0.000 
#
# Total GULP energy -290093.278625 kJ/mol
# GULP energy per Si atom -5578.716897 kJ/mol
# Density = 1.737707 g / cm^3
# Si number density = 17.416715 Si / 1000 Ang^3
#
#
#
# Elastic Constant Matrix: (Units=GPa)
#
#
# Indices 1 2 3 4 5 6 
#
# 1 69.8362 57.7314 22.4865 0.0000 0.0000 0.0000
# 2 57.7314 119.7956 28.8175 0.0000 0.0000 0.0000
# 3 22.4865 28.8175 27.7027 0.0000 0.0000 0.0000
# 4 0.0000 0.0000 0.0000 20.4071 0.0000 0.0000
# 5 0.0000 0.0000 0.0000 0.0000 20.0811 0.0000
# 6 0.0000 0.0000 0.0000 0.0000 0.0000 20.3905
#
#
#
# Elastic Compliance Matrix: (Units=1/GPa)
#
#
# Indices 1 2 3 4 5 6 
#
# 1 0.026005 -0.009942 -0.010766 0.000000 0.000000 0.000000
# 2 -0.009942 0.014935 -0.007466 0.000000 0.000000 0.000000
# 3 -0.010766 -0.007466 0.052602 0.000000 0.000000 0.000000
# 4 0.000000 0.000000 0.000000 0.049002 0.000000 0.000000
# 5 0.000000 0.000000 0.000000 0.000000 0.049798 0.000000
# 6 0.000000 0.000000 0.000000 0.000000 0.000000 0.049042
#
#
# Mechanical properties :
#
#
# Convention : Reuss Voigt Hill
#
# Bulk Modulus (GPa) = 26.88574 48.37835 37.63204
# Shear Modulus (GPa) = 16.12227 19.39569 17.75898
#
# Velocity S-wave (km/s) = 3.04580 3.34072 3.19666
# Velocity P-wave (km/s) = 5.27631 6.53589 5.93958
#
# Compressibility (1/GPa) = 0.03719444
#
# Stress axis : x y z
#
# Youngs Moduli (GPa) = 38.45468 66.95786 19.01057
#
# Poissons Ratio (x) = 0.66571 0.20466
# Poissons Ratio (y) = 0.38233 0.14192
# Poissons Ratio (z) = 0.41400 0.49988
#
# Static dielectric constant tensor:
#      x y z
#    x 1.574650 0.000000 0.000000 
#    y 0.000000 1.613540 0.000000 
#    z 0.000000 0.000000 1.599590 
# 
# From -- ./inp_files/62041.got.cif
#   From: 2010.05.17/outbox.cif.g08.bks.cpg/sg71_32_cif.got.tgz:62041.got - 2010.06.03 16:22:01.
