data_PCOD9520519
_publ_section_title
;
Structure prediction by ZEFSAII (Michael W. Deem and Ramdas Pophale) SiO2 
 PCOD9520519
Probable space group: I M M M
;
_chemical_formula_sum "Si O2"
_cell_formula_units_Z 68
_cell_length_a 23.916841
_cell_length_b 8.083717
_cell_length_c 18.749410
_cell_angle_alpha 90.000000
_cell_angle_beta 90.000000
_cell_angle_gamma 90.000000
_cell_volume 3624.954197
_symmetry_space_group_name_H-M "I M M M"
_symmetry_group_IT_number 71
_symmetry_cell_setting 'orthorhombic'
loop_
_space_group_symop_operation_xyz
x,y,z
-x,-y,z
x,-y,-z
-x,y,-z
-x,-y,-z
x,y,-z
-x,y,z
x,-y,z
1/2+x,1/2+y,1/2+z
1/2-x,1/2-y,1/2+z
1/2+x,1/2-y,1/2-z
1/2-x,1/2+y,1/2-z
1/2-x,1/2-y,1/2-z
1/2+x,1/2+y,1/2-z
1/2-x,1/2+y,1/2+z
1/2+x,1/2-y,1/2+z
loop_
_atom_site_type_symbol
_atom_site_label
_atom_site_fract_x
_atom_site_fract_y
_atom_site_fract_z
Si Si1 0.123576 0.805728 0.686826
Si Si2 0.500000 0.000000 0.364292
Si Si3 0.879082 0.500000 0.919245
Si Si4 0.500000 0.185324 0.777406
Si Si5 0.322089 0.701000 0.337795
Si Si6 0.710588 0.195647 0.919778
O O1 0.160544 0.759743 0.756473
O O2 0.151323 0.727167 0.617283
O O3 0.058610 0.765512 0.700745
O O4 0.129078 0.000000 0.678138
O O5 0.445378 0.000000 0.411009
O O6 0.500000 0.846196 0.308192
O O7 0.858892 0.329641 0.882945
O O8 0.859589 0.500000 0.000000
O O9 0.500000 0.000000 0.808564
O O10 0.330904 0.500000 0.348062
O O11 0.259618 0.745375 0.364551
O O12 0.717491 0.000000 0.926616
O O13 0.715877 0.267475 0.000000
#
# Coordination Sequence:
#
# PCOD9520519 Si02
#       6
#    16   4   8   8  16  16
#     4  11  22  37  62  90 118 157 203 252 303 358
#     4  10  21  40  60  86 123 156 204 260 289 358
#     4  12  23  38  64  92 126 167 202 247 305 357
#     4  10  19  38  63  82 114 156 200 253 296 350
#     4  10  22  40  62  91 124 163 205 248 299 364
#     4  10  22  39  59  87 124 160 197 248 307 366
#
# _framework density 18.758856999999999
#
# number of rings (size 3 to 8) (size 9 to 14) (size 15 to 20)
#    0.353    1.176    2.353    2.647    3.294    1.882 
#    0.000    1.176    0.000    4.941    0.000    0.000 
#    0.000    0.000    0.000    0.000    0.000    0.000 
#
# Total GULP energy -189398.350688 kJ/mol
# GULP energy per Si atom -5570.539726 kJ/mol
# Density = 1.871616 g / cm^3
# Si number density = 18.758857 Si / 1000 Ang^3
#
#
#
# Elastic Constant Matrix: (Units=GPa)
#
#
# Indices 1 2 3 4 5 6 
#
# 1 94.9673 2.0778 57.0786 0.0000 0.0000 0.0000
# 2 2.0778 16.7530 12.4424 0.0000 0.0000 0.0000
# 3 57.0786 12.4424 80.7715 0.0000 0.0000 0.0000
# 4 0.0000 0.0000 0.0000 16.2962 0.0000 0.0000
# 5 0.0000 0.0000 0.0000 0.0000 332.6236 0.0000
# 6 0.0000 0.0000 0.0000 0.0000 0.0000 14.6231
#
#
#
# Elastic Compliance Matrix: (Units=1/GPa)
#
#
# Indices 1 2 3 4 5 6 
#
# 1 0.019383 0.008773 -0.015048 0.000000 0.000000 0.000000
# 2 0.008773 0.071373 -0.017194 0.000000 0.000000 0.000000
# 3 -0.015048 -0.017194 0.025664 0.000000 0.000000 0.000000
# 4 0.000000 0.000000 0.000000 0.061364 0.000000 0.000000
# 5 0.000000 0.000000 0.000000 0.000000 0.003006 0.000000
# 6 0.000000 0.000000 0.000000 0.000000 0.000000 0.068385
#
#
# Mechanical properties :
#
#
# Convention : Reuss Voigt Hill
#
# Bulk Modulus (GPa) = 14.39278 37.29882 25.84580
# Shear Modulus (GPa) = 15.66055 80.76811 48.21433
#
# Velocity S-wave (km/s) = 2.89249 6.56882 5.07523
# Velocity P-wave (km/s) = 4.34102 8.80108 6.93915
#
# Compressibility (1/GPa) = 0.06947930
#
# Stress axis : x y z
#
# Youngs Moduli (GPa) = 51.59246 14.01095 38.96578
#
# Poissons Ratio (x) = -0.12291 0.58638
# Poissons Ratio (y) = -0.45260 0.66998
# Poissons Ratio (z) = 0.77639 0.24090
#
# Static dielectric constant tensor:
#      x y z
#    x 1.746650 0.000000 0.000000 
#    y 0.000000 1.657040 0.000000 
#    z 0.000000 0.000000 1.652930 
# 
# From -- ./inp_files/46875.got.cif
#   From: 2010.05.17/outbox.cif.g08.bks.cpg/sg71_24_cif.got.tgz:46875.got - 2010.06.03 16:22:01.
