data_PCOD9520473
_publ_section_title
;
Structure prediction by ZEFSAII (Michael W. Deem and Ramdas Pophale) SiO2 
 PCOD9520473
Probable space group: I M M M
;
_chemical_formula_sum "Si O2"
_cell_formula_units_Z 104
_cell_length_a 18.802803
_cell_length_b 14.705685
_cell_length_c 21.014106
_cell_angle_alpha 90.000000
_cell_angle_beta 90.000000
_cell_angle_gamma 90.000000
_cell_volume 5810.570482
_symmetry_space_group_name_H-M "I M M M"
_symmetry_group_IT_number 71
_symmetry_cell_setting 'orthorhombic'
loop_
_space_group_symop_operation_xyz
x,y,z
-x,-y,z
x,-y,-z
-x,y,-z
-x,-y,-z
x,y,-z
-x,y,z
x,-y,z
1/2+x,1/2+y,1/2+z
1/2-x,1/2-y,1/2+z
1/2+x,1/2-y,1/2-z
1/2-x,1/2+y,1/2-z
1/2-x,1/2-y,1/2-z
1/2+x,1/2+y,1/2-z
1/2-x,1/2+y,1/2+z
1/2+x,1/2-y,1/2+z
loop_
_atom_site_type_symbol
_atom_site_label
_atom_site_fract_x
_atom_site_fract_y
_atom_site_fract_z
Si Si1 0.581135 0.196885 0.612988
Si Si2 0.212314 0.795422 0.071423
Si Si3 0.279483 0.891503 0.193960
Si Si4 0.710614 0.600828 0.070336
Si Si5 0.920773 0.713490 0.264570
Si Si6 0.150329 0.102844 0.290583
Si Si7 0.082197 0.500000 0.075631
O O1 0.500000 0.202004 0.589254
O O2 0.629517 0.275838 0.584469
O O3 0.581494 0.201862 0.688808
O O4 0.611150 0.096775 0.597091
O O5 0.245835 0.853296 0.128564
O O6 0.245044 0.693551 0.073559
O O7 0.224013 0.831868 0.000000
O O8 0.354672 0.842403 0.206644
O O9 0.223089 0.873397 0.251570
O O10 0.289161 0.000000 0.190983
O O11 0.746852 0.500000 0.072352
O O12 0.664164 0.603025 0.133921
O O13 0.675262 0.603448 0.000000
O O14 0.906148 0.819611 0.276578
O O15 0.000000 0.686679 0.287065
O O16 0.130723 0.000000 0.271222
O O17 0.000000 0.500000 0.099564
O O18 0.081998 0.500000 0.000000
#
# Coordination Sequence:
#
# PCOD9520473 Si02
#       7
#    16  16  16  16  16  16   8
#     4  10  21  34  52  82 120 156 192 235 288 358
#     4  11  21  35  58  81 110 153 199 246 296 345
#     4  11  23  39  59  83 113 151 200 251 293 338
#     4   9  18  31  52  84 114 140 179 232 289 348
#     4  11  22  37  59  87 119 152 191 239 293 357
#     4  10  19  36  62  85 113 151 186 235 292 345
#     4   9  18  32  48  74 118 162 192 224 280 351
#
# _framework density 17.898415
#
# number of rings (size 3 to 8) (size 9 to 14) (size 15 to 20)
#    0.000    1.769    3.077    1.846    2.154    1.846 
#    0.000    0.000    0.000    2.308    0.000    4.308 
#    0.000    0.000    0.000    0.000    0.000    0.000 
#
# Total GULP energy -289828.238212 kJ/mol
# GULP energy per Si atom -5573.619966 kJ/mol
# Density = 1.785768 g / cm^3
# Si number density = 17.898415 Si / 1000 Ang^3
#
#
#
# Elastic Constant Matrix: (Units=GPa)
#
#
# Indices 1 2 3 4 5 6 
#
# 1 56.4281 25.5774 27.9318 0.0000 0.0000 0.0000
# 2 25.5774 67.8531 30.5852 0.0000 0.0000 0.0000
# 3 27.9318 30.5852 101.2524 0.0000 0.0000 0.0000
# 4 0.0000 0.0000 0.0000 30.1167 0.0000 0.0000
# 5 0.0000 0.0000 0.0000 0.0000 -35.4981 0.0000
# 6 0.0000 0.0000 0.0000 0.0000 0.0000 58.3432
#
#
#
# Elastic Compliance Matrix: (Units=1/GPa)
#
#
# Indices 1 2 3 4 5 6 
#
# 1 0.022878 -0.006690 -0.004290 0.000000 0.000000 0.000000
# 2 -0.006690 0.019017 -0.003899 0.000000 0.000000 0.000000
# 3 -0.004290 -0.003899 0.012238 0.000000 0.000000 0.000000
# 4 0.000000 0.000000 0.000000 0.033204 0.000000 0.000000
# 5 0.000000 0.000000 0.000000 0.000000 -0.028171 0.000000
# 6 0.000000 0.000000 0.000000 0.000000 0.000000 0.017140
#
#
# Mechanical properties :
#
#
# Convention : Reuss Voigt Hill
#
# Bulk Modulus (GPa) = 41.02738 43.74693 42.38715
# Shear Modulus (GPa) = 43.78709 20.02164 31.90436
#
# Velocity S-wave (km/s) = 4.95150 3.34822 4.22658
# Velocity P-wave (km/s) = 7.46069 6.28031 6.89580
#
# Compressibility (1/GPa) = 0.02437397
#
# Stress axis : x y z
#
# Youngs Moduli (GPa) = 43.71062 52.58459 81.71540
#
# Poissons Ratio (x) = 0.35179 0.35058
# Poissons Ratio (y) = 0.29242 0.31860
# Poissons Ratio (z) = 0.18753 0.20502
#
# Static dielectric constant tensor:
#      x y z
#    x 1.638330 0.000000 0.000000 
#    y 0.000000 1.623670 0.000000 
#    z 0.000000 0.000000 1.608740 
# 
# From -- ./inp_files/53202.got.cif
#   From: 2010.05.17/outbox.cif.g08.bks.cpg/sg71_27_cif.got.tgz:53202.got - 2010.06.03 16:22:01.
