data_PCOD9520179
_publ_section_title
;
Structure prediction by ZEFSAII (Michael W. Deem and Ramdas Pophale) SiO2 
 PCOD9520179
Probable space group: I M M M
;
_chemical_formula_sum "Si O2"
_cell_formula_units_Z 88
_cell_length_a 8.679103
_cell_length_b 28.032252
_cell_length_c 18.021209
_cell_angle_alpha 90.000000
_cell_angle_beta 90.000000
_cell_angle_gamma 90.000000
_cell_volume 4384.466483
_symmetry_space_group_name_H-M "I M M M"
_symmetry_group_IT_number 71
_symmetry_cell_setting 'orthorhombic'
loop_
_space_group_symop_operation_xyz
x,y,z
-x,-y,z
x,-y,-z
-x,y,-z
-x,-y,-z
x,y,-z
-x,y,z
x,-y,z
1/2+x,1/2+y,1/2+z
1/2-x,1/2-y,1/2+z
1/2+x,1/2-y,1/2-z
1/2-x,1/2+y,1/2-z
1/2-x,1/2-y,1/2-z
1/2+x,1/2+y,1/2-z
1/2-x,1/2+y,1/2+z
1/2+x,1/2-y,1/2+z
loop_
_atom_site_type_symbol
_atom_site_label
_atom_site_fract_x
_atom_site_fract_y
_atom_site_fract_z
Si Si1 0.185305 0.824183 0.083969
Si Si2 0.186301 0.555460 0.843004
Si Si3 0.184051 0.144970 0.583191
Si Si4 0.814147 0.409022 0.679478
Si Si5 0.684087 0.231214 0.672178
Si Si6 0.187813 0.500000 0.584067
O O1 0.249223 0.861002 0.144303
O O2 0.224968 0.770983 0.110502
O O3 0.000000 0.827873 0.083729
O O4 0.241163 0.834070 0.000000
O O5 0.232537 0.500000 0.849261
O O6 0.257123 0.591541 0.901974
O O7 0.231922 0.576782 0.762597
O O8 0.000000 0.556859 0.847339
O O9 0.231486 0.160087 0.500000
O O10 0.252346 0.180788 0.644299
O O11 0.000000 0.146182 0.587854
O O12 0.764399 0.452700 0.627041
O O13 0.000000 0.406211 0.678652
O O14 0.500000 0.228123 0.678374
O O15 0.750000 0.250000 0.750000
O O16 0.242326 0.500000 0.500000
O O17 0.000000 0.500000 0.583823
#
# Coordination Sequence:
#
# PCOD9520179 Si02
#       6
#    16  16  16  16  16   8
#     4  10  22  38  55  80 117 156 193 236 289 349
#     4  10  21  39  63  90 120 156 201 252 306 370
#     4  11  25  43  63  90 124 160 203 255 307 364
#     4  10  19  34  56  84 115 150 196 244 290 346
#     4  11  23  41  65  91 121 158 200 248 303 364
#     4   9  16  28  49  77 110 147 188 236 287 337
#
# _framework density 20.070855999999999
#
# number of rings (size 3 to 8) (size 9 to 14) (size 15 to 20)
#    0.000    1.727    0.909    3.273    0.000    9.091 
#    0.000    2.273    0.000    1.636    0.000    0.000 
#    0.000    0.000    0.000    0.000    0.000    0.000 
#
# Total GULP energy -245873.622306 kJ/mol
# GULP energy per Si atom -5588.036871 kJ/mol
# Density = 2.002517 g / cm^3
# Si number density = 20.070856 Si / 1000 Ang^3
#
#
#
# Elastic Constant Matrix: (Units=GPa)
#
#
# Indices 1 2 3 4 5 6 
#
# 1 19.0722 28.9612 25.7053 0.0000 0.0000 0.0000
# 2 28.9612 131.1253 35.3521 0.0000 0.0000 0.0000
# 3 25.7053 35.3521 94.8315 0.0002 0.0000 0.0000
# 4 0.0000 0.0000 0.0002 44.5976 0.0000 0.0000
# 5 0.0000 0.0000 0.0000 0.0000 25.6019 0.0000
# 6 0.0000 0.0000 0.0000 0.0000 0.0000 27.8633
#
#
#
# Elastic Compliance Matrix: (Units=1/GPa)
#
#
# Indices 1 2 3 4 5 6 
#
# 1 0.112100 -0.018418 -0.023520 0.000000 0.000000 0.000000
# 2 -0.018418 0.011505 0.000704 0.000000 0.000000 0.000000
# 3 -0.023520 0.000704 0.016658 0.000000 0.000000 0.000000
# 4 0.000000 0.000000 0.000000 0.022423 0.000000 0.000000
# 5 0.000000 0.000000 0.000000 0.000000 0.039060 0.000000
# 6 0.000000 0.000000 0.000000 0.000000 0.000000 0.035889
#
#
# Mechanical properties :
#
#
# Convention : Reuss Voigt Hill
#
# Bulk Modulus (GPa) = 17.30287 47.22956 32.26622
# Shear Modulus (GPa) = 14.73325 29.94659 22.33992
#
# Velocity S-wave (km/s) = 2.71230 3.86689 3.33986
# Velocity P-wave (km/s) = 4.29515 6.59694 5.56632
#
# Compressibility (1/GPa) = 0.05779388
#
# Stress axis : x y z
#
# Youngs Moduli (GPa) = 8.92058 86.92246 60.03069
#
# Poissons Ratio (x) = 1.60094 1.41193
# Poissons Ratio (y) = 0.16430 -0.04224
# Poissons Ratio (z) = 0.20981 -0.06117
#
# Static dielectric constant tensor:
#      x y z
#    x 1.679660 0.000000 0.000000 
#    y 0.000000 1.692380 0.000000 
#    z 0.000000 0.000000 1.710540 
# 
# From -- ./inp_files/42503.got.cif
#   From: 2010.05.17/outbox.cif.g08.bks.cpg/sg71_22_cif.got.tgz:42503.got - 2010.06.03 16:22:01.
