data_PCOD9520224
_publ_section_title
;
Structure prediction by ZEFSAII (Michael W. Deem and Ramdas Pophale) SiO2 
 PCOD9520224
Probable space group: I M M M
;
_chemical_formula_sum "Si O2"
_cell_formula_units_Z 88
_cell_length_a 7.456963
_cell_length_b 17.167987
_cell_length_c 27.489819
_cell_angle_alpha 90.000000
_cell_angle_beta 90.000000
_cell_angle_gamma 90.000000
_cell_volume 3519.275323
_symmetry_space_group_name_H-M "I M M M"
_symmetry_group_IT_number 71
_symmetry_cell_setting 'orthorhombic'
loop_
_space_group_symop_operation_xyz
x,y,z
-x,-y,z
x,-y,-z
-x,y,-z
-x,-y,-z
x,y,-z
-x,y,z
x,-y,z
1/2+x,1/2+y,1/2+z
1/2-x,1/2-y,1/2+z
1/2+x,1/2-y,1/2-z
1/2-x,1/2+y,1/2-z
1/2-x,1/2-y,1/2-z
1/2+x,1/2+y,1/2-z
1/2-x,1/2+y,1/2+z
1/2+x,1/2-y,1/2+z
loop_
_atom_site_type_symbol
_atom_site_label
_atom_site_fract_x
_atom_site_fract_y
_atom_site_fract_z
Si Si1 0.291427 0.913157 0.610346
Si Si2 0.285408 0.750591 0.632652
Si Si3 0.199377 0.093636 0.500000
Si Si4 0.713586 0.136982 0.054207
Si Si5 0.781069 0.500000 0.624283
Si Si6 0.796415 0.000000 0.762517
Si Si7 0.714753 0.666971 0.725183
O O1 0.500000 0.918410 0.623771
O O2 0.213099 0.838337 0.638006
O O3 0.285122 0.891976 0.552653
O O4 0.212981 0.000000 0.617385
O O5 0.500000 0.754153 0.639455
O O6 0.248699 0.719353 0.578992
O O7 0.215082 0.686969 0.671008
O O8 0.000000 0.128608 0.500000
O O9 0.185766 0.000000 0.500000
O O10 0.500000 0.125638 0.051270
O O11 0.780096 0.072933 0.092003
O O12 0.786493 0.129921 0.000000
O O13 0.704135 0.500000 0.678363
O O14 0.000000 0.500000 0.628715
O O15 0.714261 0.914136 0.752006
O O16 0.000000 0.000000 0.743038
O O17 0.500000 0.655849 0.723310
O O18 0.750000 0.750000 0.750000
#
# Coordination Sequence:
#
# PCOD9520224 Si02
#       7
#    16  16   8  16   8   8  16
#     4   9  18  33  51  71 101 142 186 229 274 322
#     4  10  21  37  57  82 111 147 190 237 286 342
#     4   9  17  29  47  71  99 136 185 232 275 327
#     4  10  21  35  53  82 119 157 194 236 284 335
#     4  10  19  34  58  84 116 158 200 233 273 337
#     4  10  20  39  65  89 120 158 193 239 300 355
#     4  10  22  41  64  90 118 149 189 239 294 355
#
# _framework density 25.005148999999999
#
# number of rings (size 3 to 8) (size 9 to 14) (size 15 to 20)
#    0.000    2.273    1.818    0.545    1.273    4.727 
#    1.636    0.000    0.000    1.636    0.000    0.000 
#    0.000    0.000    0.000    0.000    0.000    0.000 
#
# Total GULP energy -245580.311479 kJ/mol
# GULP energy per Si atom -5581.370715 kJ/mol
# Density = 2.494824 g / cm^3
# Si number density = 25.005149 Si / 1000 Ang^3
#
#
#
# Elastic Constant Matrix: (Units=GPa)
#
#
# Indices 1 2 3 4 5 6 
#
# 1 85.1692 -5.4949 -12.6634 0.0000 0.0000 0.0000
# 2 -5.4949 190.0896 20.3232 0.0000 0.0000 0.0000
# 3 -12.6634 20.3232 47.9745 0.0000 0.0000 0.0000
# 4 0.0000 0.0000 0.0000 34.0814 0.0000 0.0000
# 5 0.0000 0.0000 0.0000 0.0000 3.4547 0.0000
# 6 0.0000 0.0000 0.0000 0.0000 0.0000 39.1169
#
#
#
# Elastic Compliance Matrix: (Units=1/GPa)
#
#
# Indices 1 2 3 4 5 6 
#
# 1 0.012221 0.000009 0.003222 0.000000 0.000000 0.000000
# 2 0.000009 0.005510 -0.002332 0.000000 0.000000 0.000000
# 3 0.003222 -0.002332 0.022683 0.000000 0.000000 0.000000
# 4 0.000000 0.000000 0.000000 0.029342 0.000000 0.000000
# 5 0.000000 0.000000 0.000000 0.000000 0.289458 0.000000
# 6 0.000000 0.000000 0.000000 0.000000 0.000000 0.025564
#
#
# Mechanical properties :
#
#
# Convention : Reuss Voigt Hill
#
# Bulk Modulus (GPa) = 23.68997 36.39589 30.04293
# Shear Modulus (GPa) = 12.59286 36.73518 24.66402
#
# Velocity S-wave (km/s) = 2.24656 3.83705 3.14404
# Velocity P-wave (km/s) = 4.02790 5.84958 5.02203
#
# Compressibility (1/GPa) = 0.04221195
#
# Stress axis : x y z
#
# Youngs Moduli (GPa) = 81.82649 181.47998 44.08630
#
# Poissons Ratio (x) = -0.00159 -0.14205
# Poissons Ratio (y) = -0.00072 0.10281
# Poissons Ratio (z) = -0.26366 0.42320
#
# Static dielectric constant tensor:
#      x y z
#    x 1.972320 0.000000 0.000000 
#    y 0.000000 2.067560 0.000000 
#    z 0.000000 0.000000 1.999150 
# 
# From -- ./inp_files/68078.got.cif
#   From: 2010.05.17/outbox.cif.g08.bks.cpg/sg71_35_cif.got.tgz:68078.got - 2010.06.03 16:22:01.
