data_PCOD9520329
_publ_section_title
;
Structure prediction by ZEFSAII (Michael W. Deem and Ramdas Pophale) SiO2 
 PCOD9520329
Probable space group: I M M M
;
_chemical_formula_sum "Si O2"
_cell_formula_units_Z 88
_cell_length_a 17.851520
_cell_length_b 7.761184
_cell_length_c 31.616811
_cell_angle_alpha 90.000000
_cell_angle_beta 90.000000
_cell_angle_gamma 90.000000
_cell_volume 4380.475378
_symmetry_space_group_name_H-M "I M M M"
_symmetry_group_IT_number 71
_symmetry_cell_setting 'orthorhombic'
loop_
_space_group_symop_operation_xyz
x,y,z
-x,-y,z
x,-y,-z
-x,y,-z
-x,-y,-z
x,y,-z
-x,y,z
x,-y,z
1/2+x,1/2+y,1/2+z
1/2-x,1/2-y,1/2+z
1/2+x,1/2-y,1/2-z
1/2-x,1/2+y,1/2-z
1/2-x,1/2-y,1/2-z
1/2+x,1/2+y,1/2-z
1/2-x,1/2+y,1/2+z
1/2+x,1/2-y,1/2+z
loop_
_atom_site_type_symbol
_atom_site_label
_atom_site_fract_x
_atom_site_fract_y
_atom_site_fract_z
Si Si1 0.308153 0.200326 0.185305
Si Si2 0.911327 0.500000 0.449262
Si Si3 0.187368 0.198354 0.590490
Si Si4 0.843010 0.707498 0.951835
Si Si5 0.000000 0.195186 0.088686
Si Si6 0.000000 0.696966 0.818655
Si Si7 0.350933 0.789676 0.276417
O O1 0.319572 0.294626 0.141176
O O2 0.352614 0.260259 0.227036
O O3 0.222465 0.218571 0.200681
O O4 0.325717 0.000000 0.177818
O O5 0.902965 0.500000 0.500000
O O6 0.870253 0.331678 0.430295
O O7 0.000000 0.500000 0.439238
O O8 0.272076 0.253995 0.577298
O O9 0.176942 0.000000 0.576032
O O10 0.848020 0.500000 0.951023
O O11 0.923803 0.773523 0.937016
O O12 0.827996 0.763081 0.000000
O O13 0.000000 0.305898 0.131020
O O14 0.000000 0.000000 0.103776
O O15 0.923934 0.773102 0.800718
O O16 0.000000 0.500000 0.802839
O O17 0.344637 0.000000 0.278061
#
# Coordination Sequence:
#
# PCOD9520329 Si02
#       7
#    16   8  16  16   8   8  16
#     4  10  19  35  57  88 122 160 205 256 312 366
#     4  11  26  48  72  99 129 163 203 264 336 396
#     4  11  23  42  69  99 128 167 214 263 318 389
#     4  10  22  40  61  86 120 165 212 259 309 369
#     4  12  25  35  52  87 128 168 210 262 313 365
#     4  10  20  37  55  76 108 159 208 245 297 360
#     4   9  19  34  55  82 116 161 209 258 309 368
#
# _framework density 20.089144999999998
#
# number of rings (size 3 to 8) (size 9 to 14) (size 15 to 20)
#    0.000    1.727    0.909    3.273    1.273    8.727 
#    1.636    0.909    0.000    0.000    0.000    0.000 
#    0.000    0.000    0.000    0.000    0.000    0.000 
#
# Total GULP energy -245748.966870 kJ/mol
# GULP energy per Si atom -5585.203793 kJ/mol
# Density = 2.004342 g / cm^3
# Si number density = 20.089145 Si / 1000 Ang^3
#
#
#
# Elastic Constant Matrix: (Units=GPa)
#
#
# Indices 1 2 3 4 5 6 
#
# 1 66.3092 31.0102 25.0919 0.0000 0.0000 0.0000
# 2 31.0102 73.7706 18.7930 0.0000 0.0000 0.0000
# 3 25.0919 18.7930 95.1823 0.0000 0.0000 0.0000
# 4 0.0000 0.0000 0.0000 21.0447 0.0000 0.0000
# 5 0.0000 0.0000 0.0000 0.0000 26.8538 0.0000
# 6 0.0000 0.0000 0.0000 0.0000 0.0000 19.1691
#
#
#
# Elastic Compliance Matrix: (Units=1/GPa)
#
#
# Indices 1 2 3 4 5 6 
#
# 1 0.019998 -0.007438 -0.003803 0.000000 0.000000 0.000000
# 2 -0.007438 0.017040 -0.001404 0.000000 0.000000 0.000000
# 3 -0.003803 -0.001404 0.011786 0.000000 0.000000 0.000000
# 4 0.000000 0.000000 0.000000 0.047518 0.000000 0.000000
# 5 0.000000 0.000000 0.000000 0.000000 0.037239 0.000000
# 6 0.000000 0.000000 0.000000 0.000000 0.000000 0.052167
#
#
# Mechanical properties :
#
#
# Convention : Reuss Voigt Hill
#
# Bulk Modulus (GPa) = 42.49077 42.78360 42.63719
# Shear Modulus (GPa) = 22.84338 24.10467 23.47403
#
# Velocity S-wave (km/s) = 3.37575 3.46769 3.42203
# Velocity P-wave (km/s) = 6.03252 6.11362 6.07320
#
# Compressibility (1/GPa) = 0.02353452
#
# Stress axis : x y z
#
# Youngs Moduli (GPa) = 50.00407 58.68691 84.84671
#
# Poissons Ratio (x) = 0.43649 0.32271
# Poissons Ratio (y) = 0.37191 0.11909
# Poissons Ratio (z) = 0.19019 0.08238
#
# Static dielectric constant tensor:
#      x y z
#    x 1.683410 0.000000 0.000000 
#    y 0.000000 1.723990 0.000000 
#    z 0.000000 0.000000 1.690750 
# 
# From -- ./inp_files/70393.got.cif
#   From: 2010.05.17/outbox.cif.g08.bks.cpg/sg71_36_cif.got.tgz:70393.got - 2010.06.03 16:22:01.
