data_PCOD9520528
_publ_section_title
;
Structure prediction by ZEFSAII (Michael W. Deem and Ramdas Pophale) SiO2 
 PCOD9520528
Probable space group: I M M M
;
_chemical_formula_sum "Si O2"
_cell_formula_units_Z 104
_cell_length_a 25.393878
_cell_length_b 7.938437
_cell_length_c 34.660373
_cell_angle_alpha 90.000000
_cell_angle_beta 90.000000
_cell_angle_gamma 90.000000
_cell_volume 6987.104898
_symmetry_space_group_name_H-M "I M M M"
_symmetry_group_IT_number 71
_symmetry_cell_setting 'orthorhombic'
loop_
_space_group_symop_operation_xyz
x,y,z
-x,-y,z
x,-y,-z
-x,y,-z
-x,-y,-z
x,y,-z
-x,y,z
x,-y,z
1/2+x,1/2+y,1/2+z
1/2-x,1/2-y,1/2+z
1/2+x,1/2-y,1/2-z
1/2-x,1/2+y,1/2-z
1/2-x,1/2-y,1/2-z
1/2+x,1/2+y,1/2-z
1/2-x,1/2+y,1/2+z
1/2+x,1/2-y,1/2+z
loop_
_atom_site_type_symbol
_atom_site_label
_atom_site_fract_x
_atom_site_fract_y
_atom_site_fract_z
Si Si1 0.670750 0.203540 0.767749
Si Si2 0.000000 0.807202 0.953023
Si Si3 0.057645 0.704259 0.247609
Si Si4 0.835008 0.694305 0.118216
Si Si5 0.941225 0.199568 0.842173
Si Si6 0.114509 0.798897 0.956703
Si Si7 0.771492 0.298239 0.189549
O O1 0.610131 0.258820 0.769927
O O2 0.711047 0.261373 0.800536
O O3 0.694853 0.263905 0.726586
O O4 0.671899 0.000000 0.767376
O O5 0.056881 0.729869 0.943634
O O6 0.000000 0.000000 0.937828
O O7 0.000000 0.815259 0.000000
O O8 0.058470 0.500000 0.245950
O O9 0.061625 0.768456 0.203684
O O10 0.000000 0.756113 0.262711
O O11 0.821468 0.500000 0.112910
O O12 0.892168 0.710749 0.138330
O O13 0.842418 0.768541 0.075816
O O14 0.794326 0.770061 0.149367
O O15 0.000000 0.253932 0.854874
O O16 0.936444 0.000000 0.849728
O O17 0.107279 0.000000 0.959385
O O18 0.126465 0.736618 0.000000
O O19 0.778863 0.500000 0.188721
#
# Coordination Sequence:
#
# PCOD9520528 Si02
#       7
#    16   8  16  16  16  16  16
#     4   9  16  28  43  59  79 104 133 162 197 236
#     4   7  12  26  45  59  73  95 121 153 195 241
#     4   9  16  28  44  60  81 105 129 162 204 244
#     4  11  21  32  44  59  80 101 130 167 206 247
#     4  10  20  30  40  56  77 102 133 166 202 243
#     4   9  18  32  47  61  78 100 127 161 201 245
#     4   9  18  30  41  57  78 104 134 165 199 233
#
# _framework density 14.884563999999999
#
# number of rings (size 3 to 8) (size 9 to 14) (size 15 to 20)
#    0.000    2.692    1.538    1.846    1.077    3.077 
#    0.000    0.000    0.000    1.385    0.000    0.000 
#    0.000    0.000    0.000    0.000    0.000    0.769 
#
# Total GULP energy -289735.536045 kJ/mol
# GULP energy per Si atom -5571.837232 kJ/mol
# Density = 1.485069 g / cm^3
# Si number density = 14.884564 Si / 1000 Ang^3
#
#
#
# Elastic Constant Matrix: (Units=GPa)
#
#
# Indices 1 2 3 4 5 6 
#
# 1 88.4384 2.3574 50.4565 0.0000 0.0000 0.0000
# 2 2.3574 10.8164 5.6134 0.0000 0.0000 0.0000
# 3 50.4565 5.6134 84.4775 0.0000 0.0000 0.0000
# 4 0.0000 0.0000 0.0000 14.2785 0.0000 0.0000
# 5 0.0000 0.0000 0.0000 0.0000 25.7049 0.0000
# 6 0.0000 0.0000 0.0000 0.0000 0.0000 12.2369
#
#
#
# Elastic Compliance Matrix: (Units=1/GPa)
#
#
# Indices 1 2 3 4 5 6 
#
# 1 0.017180 0.001637 -0.010370 0.000000 0.000000 0.000000
# 2 0.001637 0.095910 -0.007351 0.000000 0.000000 0.000000
# 3 -0.010370 -0.007351 0.018520 0.000000 0.000000 0.000000
# 4 0.000000 0.000000 0.000000 0.070035 0.000000 0.000000
# 5 0.000000 0.000000 0.000000 0.000000 0.038903 0.000000
# 6 0.000000 0.000000 0.000000 0.000000 0.000000 0.081720
#
#
# Mechanical properties :
#
#
# Convention : Reuss Voigt Hill
#
# Bulk Modulus (GPa) = 10.05605 33.39854 21.72729
# Shear Modulus (GPa) = 12.90044 18.79772 15.84908
#
# Velocity S-wave (km/s) = 2.94717 3.55759 3.26667
# Velocity P-wave (km/s) = 4.28390 6.27394 5.37187
#
# Compressibility (1/GPa) = 0.09944262
#
# Stress axis : x y z
#
# Youngs Moduli (GPa) = 58.20695 10.42642 53.99638
#
# Poissons Ratio (x) = -0.01707 0.55995
# Poissons Ratio (y) = -0.09531 0.39693
# Poissons Ratio (z) = 0.60361 0.07665
#
# Static dielectric constant tensor:
#      x y z
#    x 1.518000 0.000000 0.000000 
#    y 0.000000 1.540200 0.000000 
#    z 0.000000 0.000000 1.505320 
# 
# From -- ./inp_files/62294.got.cif
#   From: 2010.05.17/outbox.cif.g08.bks.cpg/sg71_32_cif.got.tgz:62294.got - 2010.06.03 16:22:01.
