data_PCOD9520474
_publ_section_title
;
Structure prediction by ZEFSAII (Michael W. Deem and Ramdas Pophale) SiO2 
 PCOD9520474
Probable space group: I M M M
;
_chemical_formula_sum "Si O2"
_cell_formula_units_Z 96
_cell_length_a 24.873715
_cell_length_b 8.022701
_cell_length_c 23.029844
_cell_angle_alpha 90.000000
_cell_angle_beta 90.000000
_cell_angle_gamma 90.000000
_cell_volume 4595.706200
_symmetry_space_group_name_H-M "I M M M"
_symmetry_group_IT_number 71
_symmetry_cell_setting 'orthorhombic'
loop_
_space_group_symop_operation_xyz
x,y,z
-x,-y,z
x,-y,-z
-x,y,-z
-x,-y,-z
x,y,-z
-x,y,z
x,-y,z
1/2+x,1/2+y,1/2+z
1/2-x,1/2-y,1/2+z
1/2+x,1/2-y,1/2-z
1/2-x,1/2+y,1/2-z
1/2-x,1/2-y,1/2-z
1/2+x,1/2+y,1/2-z
1/2-x,1/2+y,1/2+z
1/2+x,1/2-y,1/2+z
loop_
_atom_site_type_symbol
_atom_site_label
_atom_site_fract_x
_atom_site_fract_y
_atom_site_fract_z
Si Si1 0.500000 0.696537 0.208814
Si Si2 0.798209 0.691923 0.907026
Si Si3 0.382124 0.197845 0.178490
Si Si4 0.805255 0.805949 0.220255
Si Si5 0.085864 0.296336 0.936992
Si Si6 0.679304 0.802556 0.935589
Si Si7 0.000000 0.702678 0.843020
O O1 0.500000 0.500000 0.199062
O O2 0.554528 0.770896 0.182256
O O3 0.500000 0.731087 0.278007
O O4 0.792057 0.500000 0.925141
O O5 0.809549 0.702082 0.838431
O O6 0.852712 0.761974 0.934145
O O7 0.742410 0.779079 0.922087
O O8 0.352868 0.277777 0.234050
O O9 0.354950 0.263601 0.118993
O O10 0.371584 0.000000 0.182123
O O11 0.750000 0.750000 0.250000
O O12 0.802091 0.000000 0.204444
O O13 0.086670 0.500000 0.934705
O O14 0.051111 0.243421 0.881757
O O15 0.062984 0.250313 0.000000
O O16 0.668353 0.000000 0.937833
O O17 0.667695 0.732761 0.000000
O O18 0.000000 0.500000 0.839537
#
# Coordination Sequence:
#
# PCOD9520474 Si02
#       7
#     8  16  16  16  16  16   8
#     4  12  26  43  64  90 122 157 199 252 309 370
#     4  11  21  34  56  87 124 164 206 252 306 365
#     4  11  23  42  66  91 122 159 202 250 306 370
#     4  12  23  37  59  90 126 162 203 253 307 363
#     4   9  18  32  53  84 118 156 204 252 294 345
#     4  10  22  40  62  88 119 156 199 250 309 370
#     4  10  19  36  62  85 113 156 205 253 303 356
#
# _framework density 20.889064000000001
#
# number of rings (size 3 to 8) (size 9 to 14) (size 15 to 20)
#    0.000    1.333    1.667    5.000    0.000    4.000 
#    0.000    1.250    0.000    5.500    0.000    0.000 
#    0.000    0.000    0.000    0.000    0.000    0.000 
#
# Total GULP energy -268314.363004 kJ/mol
# GULP energy per Si atom -5589.882563 kJ/mol
# Density = 2.084152 g / cm^3
# Si number density = 20.889064 Si / 1000 Ang^3
#
#
#
# Elastic Constant Matrix: (Units=GPa)
#
#
# Indices 1 2 3 4 5 6 
#
# 1 115.3529 -14.0199 39.3079 0.0000 0.0000 0.0000
# 2 -14.0199 35.8006 -10.5459 0.0000 0.0000 0.0000
# 3 39.3079 -10.5459 129.5466 0.0000 0.0000 0.0000
# 4 0.0000 0.0000 0.0000 12.3530 0.0000 0.0000
# 5 0.0000 0.0000 0.0000 0.0000 -28.9994 0.0000
# 6 0.0000 0.0000 0.0000 0.0000 0.0000 24.2850
#
#
#
# Elastic Compliance Matrix: (Units=1/GPa)
#
#
# Indices 1 2 3 4 5 6 
#
# 1 0.009992 0.003094 -0.002780 0.000000 0.000000 0.000000
# 2 0.003094 0.029577 0.001469 0.000000 0.000000 0.000000
# 3 -0.002780 0.001469 0.008682 0.000000 0.000000 0.000000
# 4 0.000000 0.000000 0.000000 0.080952 0.000000 0.000000
# 5 0.000000 0.000000 0.000000 0.000000 -0.034483 0.000000
# 6 0.000000 0.000000 0.000000 0.000000 0.000000 0.041178
#
#
# Mechanical properties :
#
#
# Convention : Reuss Voigt Hill
#
# Bulk Modulus (GPa) = 19.29840 34.46491 26.88165
# Shear Modulus (GPa) = 33.42149 19.25827 26.33988
#
# Velocity S-wave (km/s) = 4.00428 3.03962 3.55483
# Velocity P-wave (km/s) = 5.53512 5.37159 5.45397
#
# Compressibility (1/GPa) = 0.05181778
#
# Stress axis : x y z
#
# Youngs Moduli (GPa) = 100.07532 33.81015 115.17603
#
# Poissons Ratio (x) = -0.10462 0.32020
# Poissons Ratio (y) = -0.30966 -0.16918
# Poissons Ratio (z) = 0.27822 -0.04966
#
# Static dielectric constant tensor:
#      x y z
#    x 1.631240 0.000000 0.000000 
#    y 0.000000 1.757150 0.000000 
#    z 0.000000 0.000000 1.833300 
# 
# From -- ./inp_files/61567.got.cif
#   From: 2010.05.17/outbox.cif.g08.bks.cpg/sg71_31_cif.got.tgz:61567.got - 2010.06.03 16:22:01.
