data_PCOD9520581
_publ_section_title
;
Structure prediction by ZEFSAII (Michael W. Deem and Ramdas Pophale) SiO2 
 PCOD9520581
Probable space group: I M M M
;
_chemical_formula_sum "Si O2"
_cell_formula_units_Z 80
_cell_length_a 21.327671
_cell_length_b 29.770814
_cell_length_c 7.742251
_cell_angle_alpha 90.000000
_cell_angle_beta 90.000000
_cell_angle_gamma 90.000000
_cell_volume 4915.881313
_symmetry_space_group_name_H-M "I M M M"
_symmetry_group_IT_number 71
_symmetry_cell_setting 'orthorhombic'
loop_
_space_group_symop_operation_xyz
x,y,z
-x,-y,z
x,-y,-z
-x,y,-z
-x,-y,-z
x,y,-z
-x,y,z
x,-y,z
1/2+x,1/2+y,1/2+z
1/2-x,1/2-y,1/2+z
1/2+x,1/2-y,1/2-z
1/2-x,1/2+y,1/2-z
1/2-x,1/2-y,1/2-z
1/2+x,1/2+y,1/2-z
1/2-x,1/2+y,1/2+z
1/2+x,1/2-y,1/2+z
loop_
_atom_site_type_symbol
_atom_site_label
_atom_site_fract_x
_atom_site_fract_y
_atom_site_fract_z
Si Si1 0.238479 0.379062 0.798507
Si Si2 0.568442 0.750969 0.291835
Si Si3 0.932510 0.421928 0.500000
Si Si4 0.201515 0.210363 0.298215
Si Si5 0.906294 0.646800 0.800930
Si Si6 0.288995 0.948348 0.000000
O O1 0.281878 0.338829 0.725729
O O2 0.168915 0.357422 0.799109
O O3 0.234490 0.421036 0.668792
O O4 0.253063 0.390997 0.000000
O O5 0.568945 0.750033 0.500000
O O6 0.500000 0.734365 0.232204
O O7 0.630437 0.725191 0.234372
O O8 0.575160 0.803335 0.243055
O O9 0.930535 0.390067 0.331464
O O10 0.865580 0.446904 0.500000
O O11 0.000000 0.446123 0.500000
O O12 0.211131 0.204208 0.500000
O O13 0.250000 0.250000 0.250000
O O14 0.926542 0.640111 0.000000
O O15 0.268931 0.000000 0.000000
#
# Coordination Sequence:
#
# PCOD9520581 Si02
#       6
#    16  16   8  16  16   8
#     4   9  19  34  52  76  99 127 171 215 259 309
#     4  10  20  31  44  67 103 142 178 211 248 294
#     4  10  20  31  48  70  96 129 171 216 262 306
#     4  11  21  31  50  74 103 141 176 213 256 307
#     4   9  17  31  46  65  96 133 172 211 248 293
#     4  10  22  37  56  74  95 130 170 223 277 308
#
# _framework density 16.273786000000001
#
# number of rings (size 3 to 8) (size 9 to 14) (size 15 to 20)
#    0.000    2.200    2.000    1.200    4.200    2.200 
#    0.000    0.000    0.000    0.000    0.000    5.600 
#    0.000    1.600    0.000    4.400    0.000    0.000 
#
# Total GULP energy -222933.287344 kJ/mol
# GULP energy per Si atom -5573.332184 kJ/mol
# Density = 1.623675 g / cm^3
# Si number density = 16.273786 Si / 1000 Ang^3
#
#
#
# Elastic Constant Matrix: (Units=GPa)
#
#
# Indices 1 2 3 4 5 6 
#
# 1 78.6050 47.7097 17.3217 0.0000 0.0000 0.0000
# 2 47.7097 109.7164 40.7267 0.0000 0.0000 0.0000
# 3 17.3217 40.7267 65.2833 0.0000 0.0000 0.0000
# 4 0.0000 0.0000 0.0000 12.7691 0.0000 0.0000
# 5 0.0000 0.0000 0.0000 0.0000 130.5831 0.0000
# 6 0.0000 0.0000 0.0000 0.0000 0.0000 -4.6822
#
#
#
# Elastic Compliance Matrix: (Units=1/GPa)
#
#
# Indices 1 2 3 4 5 6 
#
# 1 0.017284 -0.007566 0.000134 0.000000 0.000000 0.000000
# 2 -0.007566 0.015173 -0.007458 0.000000 0.000000 0.000000
# 3 0.000134 -0.007458 0.019935 0.000000 0.000000 0.000000
# 4 0.000000 0.000000 0.000000 0.078314 0.000000 0.000000
# 5 0.000000 0.000000 0.000000 0.000000 0.007658 0.000000
# 6 0.000000 0.000000 0.000000 0.000000 0.000000 -0.213577
#
#
# Mechanical properties :
#
#
# Convention : Reuss Voigt Hill
#
# Bulk Modulus (GPa) = 44.22396 51.68011 47.95204
# Shear Modulus (GPa) = -131.94398 37.59044 -47.17677
#
# Velocity S-wave (km/s) = -9.01408 4.81133 -5.39002
# Velocity P-wave (km/s) = 9.00579 7.91775 3.03425
#
# Compressibility (1/GPa) = 0.02261217
#
# Stress axis : x y z
#
# Youngs Moduli (GPa) = 57.85563 65.90774 50.16299
#
# Poissons Ratio (x) = 0.49864 -0.00671
# Poissons Ratio (y) = 0.43772 0.37412
# Poissons Ratio (z) = -0.00774 0.49154
#
# Static dielectric constant tensor:
#      x y z
#    x 1.586440 0.000000 0.000000 
#    y 0.000000 1.543670 0.000000 
#    z 0.000000 0.000000 1.573060 
# 
# From -- ./inp_files/8412.got.cif
#   From: 2010.05.17/outbox.cif.g08.bks.cpg/sg71_5_cif.got.tgz:8412.got - 2010.06.03 16:22:01.
