data_PCOD9520289
_publ_section_title
;
Structure prediction by ZEFSAII (Michael W. Deem and Ramdas Pophale) SiO2 
 PCOD9520289
Probable space group: I M M M
;
_chemical_formula_sum "Si O2"
_cell_formula_units_Z 96
_cell_length_a 24.274327
_cell_length_b 25.886062
_cell_length_c 8.677030
_cell_angle_alpha 90.000000
_cell_angle_beta 90.000000
_cell_angle_gamma 90.000000
_cell_volume 5452.357000
_symmetry_space_group_name_H-M "I M M M"
_symmetry_group_IT_number 71
_symmetry_cell_setting 'orthorhombic'
loop_
_space_group_symop_operation_xyz
x,y,z
-x,-y,z
x,-y,-z
-x,y,-z
-x,-y,-z
x,y,-z
-x,y,z
x,-y,z
1/2+x,1/2+y,1/2+z
1/2-x,1/2-y,1/2+z
1/2+x,1/2-y,1/2-z
1/2-x,1/2+y,1/2-z
1/2-x,1/2-y,1/2-z
1/2+x,1/2+y,1/2-z
1/2-x,1/2+y,1/2+z
1/2+x,1/2-y,1/2+z
loop_
_atom_site_type_symbol
_atom_site_label
_atom_site_fract_x
_atom_site_fract_y
_atom_site_fract_z
Si Si1 0.687225 0.310488 0.815586
Si Si2 0.000000 0.060390 0.684786
Si Si3 0.810584 0.000000 0.814290
Si Si4 0.500000 0.060054 0.187689
Si Si5 0.880730 0.595934 0.313475
Si Si6 0.385089 0.598618 0.684567
Si Si7 0.312076 0.000000 0.683418
Si Si8 0.192574 0.308650 0.314204
O O1 0.643178 0.349113 0.743261
O O2 0.748835 0.323831 0.758593
O O3 0.678922 0.250364 0.770570
O O4 0.684825 0.314220 0.000000
O O5 0.945051 0.087592 0.746518
O O6 0.000000 0.061466 0.500000
O O7 0.000000 0.000000 0.734972
O O8 0.845396 0.050720 0.770872
O O9 0.750859 0.000000 0.738954
O O10 0.804008 0.000000 0.000000
O O11 0.556414 0.087164 0.237673
O O12 0.500000 0.000000 0.235948
O O13 0.500000 0.060149 0.000000
O O14 0.879711 0.592527 0.500000
O O15 0.843284 0.550082 0.248656
O O16 0.854059 0.650527 0.269416
O O17 0.388842 0.599346 0.500000
O O18 0.314447 0.000000 0.500000
O O19 0.198729 0.310041 0.500000
#
# Coordination Sequence:
#
# PCOD9520289 Si02
#       8
#    16   8   8   8  16  16   8  16
#     4  10  20  35  55  82 114 145 182 229 279 330
#     4  11  23  39  60  85 114 148 185 231 285 332
#     4  10  22  37  54  77 107 142 180 222 267 324
#     4   9  16  30  55  80  97 129 178 220 258 303
#     4  10  19  35  56  76 103 139 182 223 265 326
#     4  11  22  38  59  82 110 147 189 227 272 333
#     4  12  24  33  48  79 113 140 172 222 281 328
#     4   9  19  35  56  81 109 145 185 227 279 333
#
# _framework density 17.607064000000001
#
# number of rings (size 3 to 8) (size 9 to 14) (size 15 to 20)
#    0.000    1.833    1.667    3.000    0.000    7.000 
#    0.000    1.667    0.000    3.000    0.000    0.000 
#    0.000    0.000    0.000    0.000    0.000    0.000 
#
# Total GULP energy -268087.041737 kJ/mol
# GULP energy per Si atom -5585.146703 kJ/mol
# Density = 1.756699 g / cm^3
# Si number density = 17.607064 Si / 1000 Ang^3
#
#
#
# Elastic Constant Matrix: (Units=GPa)
#
#
# Indices 1 2 3 4 5 6 
#
# 1 195.2903 105.2903 45.2942 0.0000 0.0000 0.0000
# 2 105.2903 119.6398 34.7325 0.0000 0.0000 0.0000
# 3 45.2942 34.7325 27.5826 0.0000 0.0000 0.0000
# 4 0.0000 0.0000 0.0000 22.0410 0.0000 0.0000
# 5 0.0000 0.0000 0.0000 0.0000 13.0620 0.0000
# 6 0.0000 0.0000 0.0000 0.0000 0.0000 21.2466
#
#
#
# Elastic Compliance Matrix: (Units=1/GPa)
#
#
# Indices 1 2 3 4 5 6 
#
# 1 0.011082 -0.007045 -0.009327 0.000000 0.000000 0.000000
# 2 -0.007045 0.017654 -0.010660 0.000000 0.000000 0.000000
# 3 -0.009327 -0.010660 0.064994 0.000000 0.000000 0.000000
# 4 0.000000 0.000000 0.000000 0.045370 0.000000 0.000000
# 5 0.000000 0.000000 0.000000 0.000000 0.076558 0.000000
# 6 0.000000 0.000000 0.000000 0.000000 0.000000 0.047066
#
#
# Mechanical properties :
#
#
# Convention : Reuss Voigt Hill
#
# Bulk Modulus (GPa) = 25.21115 79.23853 52.22484
# Shear Modulus (GPa) = 15.15103 21.74964 18.45034
#
# Velocity S-wave (km/s) = 2.93663 3.51847 3.24063
# Velocity P-wave (km/s) = 5.08411 7.84906 6.61271
#
# Compressibility (1/GPa) = 0.03966499
#
# Stress axis : x y z
#
# Youngs Moduli (GPa) = 90.23388 56.64577 15.38606
#
# Poissons Ratio (x) = 0.39909 0.14350
# Poissons Ratio (y) = 0.63574 0.16402
# Poissons Ratio (z) = 0.84160 0.60385
#
# Static dielectric constant tensor:
#      x y z
#    x 1.568710 0.000000 0.000000 
#    y 0.000000 1.592220 0.000000 
#    z 0.000000 0.000000 1.592990 
# 
# From -- ./inp_files/12968.got.cif
#   From: 2010.05.17/outbox.cif.g08.bks.cpg/sg71_7_cif.got.tgz:12968.got - 2010.06.03 16:22:01.
