data_PCOD9520463
_publ_section_title
;
Structure prediction by ZEFSAII (Michael W. Deem and Ramdas Pophale) SiO2 
 PCOD9520463
Probable space group: I M M M
;
_chemical_formula_sum "Si O2"
_cell_formula_units_Z 50
_cell_length_a 7.888543
_cell_length_b 15.441316
_cell_length_c 20.948192
_cell_angle_alpha 90.000000
_cell_angle_beta 90.000000
_cell_angle_gamma 90.000000
_cell_volume 2551.688484
_symmetry_space_group_name_H-M "I M M M"
_symmetry_group_IT_number 71
_symmetry_cell_setting 'orthorhombic'
loop_
_space_group_symop_operation_xyz
x,y,z
-x,-y,z
x,-y,-z
-x,y,-z
-x,-y,-z
x,y,-z
-x,y,z
x,-y,z
1/2+x,1/2+y,1/2+z
1/2-x,1/2-y,1/2+z
1/2+x,1/2-y,1/2-z
1/2-x,1/2+y,1/2-z
1/2-x,1/2-y,1/2-z
1/2+x,1/2+y,1/2-z
1/2-x,1/2+y,1/2+z
1/2+x,1/2-y,1/2+z
loop_
_atom_site_type_symbol
_atom_site_label
_atom_site_fract_x
_atom_site_fract_y
_atom_site_fract_z
Si Si1 0.000000 0.500000 0.500000
Si Si2 0.184015 0.000000 0.097069
Si Si3 0.707112 0.000000 0.425159
Si Si4 0.705162 0.157030 0.332429
Si Si5 0.199255 0.647699 0.685070
O O1 0.150599 0.500000 0.553890
O O2 0.198319 0.083791 0.141284
O O3 0.000000 0.000000 0.066089
O O4 0.759744 0.085301 0.384364
O O5 0.500000 0.000000 0.425529
O O6 0.760658 0.000000 0.500000
O O7 0.500000 0.160898 0.335068
O O8 0.774051 0.254225 0.339227
O O9 0.751533 0.135458 0.259053
O O10 0.000000 0.627168 0.681798
#
# Coordination Sequence:
#
# PCOD9520463 Si02
#       5
#     2   8   8  16  16
#     4  12  26  48  60  90 128 158 212 252 304 382
#     4  12  24  42  66  89 122 166 207 254 313 373
#     4   9  17  32  52  80 116 154 198 248 301 368
#     4   9  18  33  57  87 119 158 204 254 313 367
#     4  10  19  36  59  87 120 154 202 264 310 356
#
# _framework density 19.594868999999999
#
# number of rings (size 3 to 8) (size 9 to 14) (size 15 to 20)
#    0.000    2.080    1.600    2.160    0.000    3.840 
#    2.880    0.800    0.000    0.960    0.000    0.000 
#    0.000    0.000    0.000    0.000    0.000    0.000 
#
# Total GULP energy -139196.092732 kJ/mol
# GULP energy per Si atom -5567.843709 kJ/mol
# Density = 1.955027 g / cm^3
# Si number density = 19.594869 Si / 1000 Ang^3
#
#
#
# Elastic Constant Matrix: (Units=GPa)
#
#
# Indices 1 2 3 4 5 6 
#
# 1 92.4247 34.8994 47.1159 0.0000 0.0000 0.0000
# 2 34.8994 105.6525 100.6909 0.0000 0.0000 0.0000
# 3 47.1159 100.6909 140.9767 0.0000 0.0000 0.0000
# 4 0.0000 0.0000 0.0000 6.6330 0.0000 0.0000
# 5 0.0000 0.0000 0.0000 0.0000 -66.1616 0.0000
# 6 0.0000 0.0000 0.0000 0.0000 0.0000 26.5217
#
#
#
# Elastic Compliance Matrix: (Units=1/GPa)
#
#
# Indices 1 2 3 4 5 6 
#
# 1 0.013049 -0.000483 -0.004017 0.000000 0.000000 0.000000
# 2 -0.000483 0.029660 -0.021023 0.000000 0.000000 0.000000
# 3 -0.004017 -0.021023 0.023451 0.000000 0.000000 0.000000
# 4 0.000000 0.000000 0.000000 0.150762 0.000000 0.000000
# 5 0.000000 0.000000 0.000000 0.000000 -0.015115 0.000000
# 6 0.000000 0.000000 0.000000 0.000000 0.000000 0.037705
#
#
# Mechanical properties :
#
#
# Convention : Reuss Voigt Hill
#
# Bulk Modulus (GPa) = 66.15372 78.27402 72.21387
# Shear Modulus (GPa) = 16.91490 3.82180 10.36835
#
# Velocity S-wave (km/s) = 2.94127 1.39809 2.30279
# Velocity P-wave (km/s) = 6.73563 6.52986 6.63355
#
# Compressibility (1/GPa) = 0.01511631
#
# Stress axis : x y z
#
# Youngs Moduli (GPa) = 76.63195 33.71499 42.64134
#
# Poissons Ratio (x) = 0.01627 0.17127
# Poissons Ratio (y) = 0.03698 0.89646
# Poissons Ratio (z) = 0.30780 0.70880
#
# Static dielectric constant tensor:
#      x y z
#    x 1.683890 0.000000 0.000000 
#    y 0.000000 1.670630 0.000000 
#    z 0.000000 0.000000 1.665990 
# 
# From -- ./inp_files/4914.got.cif
#   From: 2010.05.17/outbox.cif.g08.bks.cpg/sg71_3_cif.got.tgz:4914.got - 2010.06.03 16:22:01.
