data_PCOD9520462
_publ_section_title
;
Structure prediction by ZEFSAII (Michael W. Deem and Ramdas Pophale) SiO2 
 PCOD9520462
Probable space group: I M M M
;
_chemical_formula_sum "Si O2"
_cell_formula_units_Z 116
_cell_length_a 28.928186
_cell_length_b 7.300827
_cell_length_c 24.129766
_cell_angle_alpha 90.000000
_cell_angle_beta 90.000000
_cell_angle_gamma 90.000000
_cell_volume 5096.198892
_symmetry_space_group_name_H-M "I M M M"
_symmetry_group_IT_number 71
_symmetry_cell_setting 'orthorhombic'
loop_
_space_group_symop_operation_xyz
x,y,z
-x,-y,z
x,-y,-z
-x,y,-z
-x,-y,-z
x,y,-z
-x,y,z
x,-y,z
1/2+x,1/2+y,1/2+z
1/2-x,1/2-y,1/2+z
1/2+x,1/2-y,1/2-z
1/2-x,1/2+y,1/2-z
1/2-x,1/2-y,1/2-z
1/2+x,1/2+y,1/2-z
1/2-x,1/2+y,1/2+z
1/2+x,1/2-y,1/2+z
loop_
_atom_site_type_symbol
_atom_site_label
_atom_site_fract_x
_atom_site_fract_y
_atom_site_fract_z
Si Si1 0.308332 0.205137 0.289690
Si Si2 0.445248 0.721791 0.559401
Si Si3 0.331736 0.500000 0.500000
Si Si4 0.190472 0.721323 0.440335
Si Si5 0.450322 0.719541 0.210384
Si Si6 0.910960 0.777567 0.823509
Si Si7 0.204718 0.285498 0.088132
Si Si8 0.155247 0.284105 0.676691
O O1 0.362473 0.199110 0.304938
O O2 0.289429 0.283023 0.347736
O O3 0.313185 0.289984 0.227960
O O4 0.288969 0.000000 0.284142
O O5 0.427474 0.787231 0.500000
O O6 0.500000 0.758037 0.561527
O O7 0.439871 0.500000 0.558719
O O8 0.423430 0.787743 0.615747
O O9 0.327349 0.340637 0.549591
O O10 0.171492 0.783375 0.500000
O O11 0.187322 0.500000 0.439996
O O12 0.244358 0.770097 0.437570
O O13 0.167622 0.789589 0.383757
O O14 0.500000 0.786362 0.187797
O O15 0.451306 0.500000 0.206965
O O16 0.446850 0.769269 0.275389
O O17 0.400081 0.769101 0.186062
O O18 0.907269 0.000000 0.824331
O O19 0.190803 0.500000 0.089561
O O20 0.165474 0.500000 0.677216
#
# Coordination Sequence:
#
# PCOD9520462 Si02
#       8
#    16  16   4  16  16  16  16  16
#     4   9  20  36  50  74 109 143 180 228 283 337
#     4   8  13  22  36  58  85 111 149 204 260 315
#     4  12  22  40  60  86 112 152 202 248 284 336
#     4  10  19  36  59  85 113 145 186 233 285 344
#     4   9  17  30  49  75 105 137 179 229 279 334
#     4   9  16  27  46  68  92 129 172 217 271 329
#     4  11  22  38  60  84 115 153 194 243 290 337
#     4   9  19  35  56  81 114 147 181 230 286 344
#
# _framework density 22.762062
#
# number of rings (size 3 to 8) (size 9 to 14) (size 15 to 20)
#    0.000    2.621    1.379    1.034    0.966    3.034 
#    1.241    0.000    0.000    1.655    0.000    3.862 
#    0.000    0.000    0.000    0.000    0.000    0.000 
#
# Total GULP energy -323077.288464 kJ/mol
# GULP energy per Si atom -5570.298077 kJ/mol
# Density = 2.271025 g / cm^3
# Si number density = 22.762062 Si / 1000 Ang^3
#
#
#
# Elastic Constant Matrix: (Units=GPa)
#
#
# Indices 1 2 3 4 5 6 
#
# 1 50.9224 1.6871 43.4261 0.0000 0.0000 0.0000
# 2 1.6871 113.9549 27.5541 0.0000 0.0000 0.0000
# 3 43.4261 27.5541 209.1086 0.0000 0.0000 0.0000
# 4 0.0000 0.0000 0.0000 2.3134 0.0000 0.0000
# 5 0.0000 0.0000 0.0000 0.0000 14.9081 0.0000
# 6 0.0000 0.0000 0.0000 0.0000 0.0000 12.4000
#
#
#
# Elastic Compliance Matrix: (Units=1/GPa)
#
#
# Indices 1 2 3 4 5 6 
#
# 1 0.023948 0.000876 -0.005089 0.000000 0.000000 0.000000
# 2 0.000876 0.009096 -0.001381 0.000000 0.000000 0.000000
# 3 -0.005089 -0.001381 0.006021 0.000000 0.000000 0.000000
# 4 0.000000 0.000000 0.000000 0.432255 0.000000 0.000000
# 5 0.000000 0.000000 0.000000 0.000000 0.067078 0.000000
# 6 0.000000 0.000000 0.000000 0.000000 0.000000 0.080645
#
#
# Mechanical properties :
#
#
# Convention : Reuss Voigt Hill
#
# Bulk Modulus (GPa) = 35.86966 57.70228 46.78597
# Shear Modulus (GPa) = 7.81832 26.01221 16.91526
#
# Velocity S-wave (km/s) = 1.85533 3.38418 2.72901
# Velocity P-wave (km/s) = 4.51469 6.37773 5.52530
#
# Compressibility (1/GPa) = 0.02787872
#
# Stress axis : x y z
#
# Youngs Moduli (GPa) = 41.75641 109.93556 166.08733
#
# Poissons Ratio (x) = -0.09630 0.84519
# Poissons Ratio (y) = -0.03658 0.22929
# Poissons Ratio (z) = 0.21249 0.15177
#
# Static dielectric constant tensor:
#      x y z
#    x 1.850770 0.000000 0.000000 
#    y 0.000000 1.903250 0.000000 
#    z 0.000000 0.000000 1.923510 
# 
# From -- ./inp_files/62363.got.cif
#   From: 2010.05.17/outbox.cif.g08.bks.cpg/sg71_32_cif.got.tgz:62363.got - 2010.06.03 16:22:01.
