data_PCOD9520601
_publ_section_title
;
Structure prediction by ZEFSAII (Michael W. Deem and Ramdas Pophale) SiO2 
 PCOD9520601
Probable space group: I M M M
;
_chemical_formula_sum "Si O2"
_cell_formula_units_Z 80
_cell_length_a 27.618187
_cell_length_b 7.677598
_cell_length_c 19.474446
_cell_angle_alpha 90.000000
_cell_angle_beta 90.000000
_cell_angle_gamma 90.000000
_cell_volume 4129.387573
_symmetry_space_group_name_H-M "I M M M"
_symmetry_group_IT_number 71
_symmetry_cell_setting 'orthorhombic'
loop_
_space_group_symop_operation_xyz
x,y,z
-x,-y,z
x,-y,-z
-x,y,-z
-x,-y,-z
x,y,-z
-x,y,z
x,-y,z
1/2+x,1/2+y,1/2+z
1/2-x,1/2-y,1/2+z
1/2+x,1/2-y,1/2-z
1/2-x,1/2+y,1/2-z
1/2-x,1/2-y,1/2-z
1/2+x,1/2+y,1/2-z
1/2-x,1/2+y,1/2+z
1/2+x,1/2-y,1/2+z
loop_
_atom_site_type_symbol
_atom_site_label
_atom_site_fract_x
_atom_site_fract_y
_atom_site_fract_z
Si Si1 0.943525 0.212330 0.575249
Si Si2 0.446371 0.205832 0.640475
Si Si3 0.600239 0.288858 0.217108
Si Si4 0.199062 0.790705 0.215670
Si Si5 0.844307 0.794692 0.923985
O O1 0.925682 0.269348 0.500000
O O2 0.915733 0.274233 0.642470
O O3 0.000000 0.260174 0.580979
O O4 0.941763 0.000000 0.575611
O O5 0.500000 0.275134 0.623489
O O6 0.435239 0.235151 0.721112
O O7 0.400349 0.279879 0.599732
O O8 0.446450 0.000000 0.627289
O O9 0.599833 0.500000 0.216017
O O10 0.653822 0.229314 0.238430
O O11 0.250000 0.750000 0.250000
O O12 0.188395 0.723037 0.138491
O O13 0.195322 0.000000 0.212248
O O14 0.833524 0.000000 0.928367
O O15 0.837654 0.718577 0.000000
#
# Coordination Sequence:
#
# PCOD9520601 Si02
#       5
#    16  16  16  16  16
#     4   8  13  22  40  67  94 118 147 187 232 271
#     4  10  20  31  45  70 102 131 158 191 234 284
#     4   9  17  30  48  68  91 123 164 202 233 276
#     4   9  18  32  50  71  92 117 152 193 235 276
#     4   9  19  36  55  73  94 123 161 200 234 275
#
# _framework density 19.373332999999999
#
# number of rings (size 3 to 8) (size 9 to 14) (size 15 to 20)
#    0.000    3.000    0.000    3.000    0.000    6.400 
#    0.000    3.000    0.000    1.800    0.000    2.800 
#    0.000    0.000    0.000    0.000    0.000    0.000 
#
# Total GULP energy -222955.967897 kJ/mol
# GULP energy per Si atom -5573.899197 kJ/mol
# Density = 1.932924 g / cm^3
# Si number density = 19.373333 Si / 1000 Ang^3
#
#
#
# Elastic Constant Matrix: (Units=GPa)
#
#
# Indices 1 2 3 4 5 6 
#
# 1 101.0623 -2.1915 66.1792 0.0000 0.0000 0.0000
# 2 -2.1915 32.7349 4.5954 0.0000 0.0000 0.0000
# 3 66.1792 4.5954 182.4712 0.0000 0.0000 0.0000
# 4 0.0000 0.0000 0.0000 1.5943 0.0000 0.0000
# 5 0.0000 0.0000 0.0000 0.0000 11.0534 0.0000
# 6 0.0000 0.0000 0.0000 0.0000 0.0000 20.5538
#
#
#
# Elastic Compliance Matrix: (Units=1/GPa)
#
#
# Indices 1 2 3 4 5 6 
#
# 1 0.013054 0.001544 -0.004773 0.000000 0.000000 0.000000
# 2 0.001544 0.030839 -0.001337 0.000000 0.000000 0.000000
# 3 -0.004773 -0.001337 0.007245 0.000000 0.000000 0.000000
# 4 0.000000 0.000000 0.000000 0.627243 0.000000 0.000000
# 5 0.000000 0.000000 0.000000 0.000000 0.090470 0.000000
# 6 0.000000 0.000000 0.000000 0.000000 0.000000 0.048653
#
#
# Mechanical properties :
#
#
# Convention : Reuss Voigt Hill
#
# Bulk Modulus (GPa) = 23.80566 50.38163 37.09365
# Shear Modulus (GPa) = 5.94786 23.15263 14.55025
#
# Velocity S-wave (km/s) = 1.75408 3.46074 2.74349
# Velocity P-wave (km/s) = 4.05178 6.48314 5.40592
#
# Compressibility (1/GPa) = 0.04200681
#
# Stress axis : x y z
#
# Youngs Moduli (GPa) = 76.60387 32.42595 138.02211
#
# Poissons Ratio (x) = -0.05007 0.65884
# Poissons Ratio (y) = -0.11828 0.18449
# Poissons Ratio (z) = 0.36566 0.04334
#
# Static dielectric constant tensor:
#      x y z
#    x 1.654140 0.000000 0.000000 
#    y 0.000000 1.705540 0.000000 
#    z 0.000000 0.000000 1.704850 
# 
# From -- ./inp_files/11247.got.cif
#   From: 2010.05.17/outbox.cif.g08.bks.cpg/sg71_6_cif.got.tgz:11247.got - 2010.06.03 16:22:01.
