data_PCOD9520577
_publ_section_title
;
Structure prediction by ZEFSAII (Michael W. Deem and Ramdas Pophale) SiO2 
 PCOD9520577
Probable space group: I M M M
;
_chemical_formula_sum "Si O2"
_cell_formula_units_Z 104
_cell_length_a 24.899320
_cell_length_b 28.117939
_cell_length_c 9.117073
_cell_angle_alpha 90.000000
_cell_angle_beta 90.000000
_cell_angle_gamma 90.000000
_cell_volume 6383.022911
_symmetry_space_group_name_H-M "I M M M"
_symmetry_group_IT_number 71
_symmetry_cell_setting 'orthorhombic'
loop_
_space_group_symop_operation_xyz
x,y,z
-x,-y,z
x,-y,-z
-x,y,-z
-x,-y,-z
x,y,-z
-x,y,z
x,-y,z
1/2+x,1/2+y,1/2+z
1/2-x,1/2-y,1/2+z
1/2+x,1/2-y,1/2-z
1/2-x,1/2+y,1/2-z
1/2-x,1/2-y,1/2-z
1/2+x,1/2+y,1/2-z
1/2-x,1/2+y,1/2+z
1/2+x,1/2-y,1/2+z
loop_
_atom_site_type_symbol
_atom_site_label
_atom_site_fract_x
_atom_site_fract_y
_atom_site_fract_z
Si Si1 0.434676 0.446782 0.330776
Si Si2 0.064280 0.854174 0.335256
Si Si3 0.259032 0.301445 0.824312
Si Si4 0.142034 0.324986 0.175617
Si Si5 0.364521 0.713060 0.673362
Si Si6 0.936357 0.400790 0.675885
Si Si7 0.935006 0.500000 0.168714
O O1 0.419235 0.437621 0.500000
O O2 0.500000 0.446931 0.328019
O O3 0.417194 0.500000 0.289555
O O4 0.416148 0.404917 0.225549
O O5 0.083841 0.844731 0.500000
O O6 0.082481 0.813418 0.225016
O O7 0.000000 0.856091 0.339237
O O8 0.250000 0.250000 0.750000
O O9 0.205705 0.332146 0.791352
O O10 0.316280 0.314352 0.756591
O O11 0.261987 0.296529 0.000000
O O12 0.132575 0.269100 0.211604
O O13 0.101720 0.359664 0.259528
O O14 0.134569 0.330678 0.000000
O O15 0.355489 0.710332 0.500000
O O16 0.931562 0.403184 0.500000
O O17 0.920251 0.451448 0.747540
O O18 0.000000 0.392341 0.710006
O O19 0.000000 0.500000 0.165548
O O20 0.915927 0.500000 0.000000
#
# Coordination Sequence:
#
# PCOD9520577 Si02
#       7
#    16  16  16  16  16  16   8
#     4   8  14  26  44  64  86 114 150 191 231 273
#     4  10  20  31  44  66  96 128 160 195 239 290
#     4   9  17  31  50  71  94 120 157 202 241 281
#     4   9  19  33  49  71  96 125 161 198 238 286
#     4  10  20  33  49  69  95 129 166 203 244 289
#     4  10  20  32  48  73 103 132 163 201 243 287
#     4   9  17  31  51  71  95 129 165 201 240 285
#
# _framework density 16.293220999999999
#
# number of rings (size 3 to 8) (size 9 to 14) (size 15 to 20)
#    0.000    2.692    0.000    3.462    0.000    7.385 
#    0.000    4.615    0.000    0.000    2.000    0.000 
#    0.000    0.000    0.000    0.000    0.000    0.000 
#
# Total GULP energy -289483.832001 kJ/mol
# GULP energy per Si atom -5566.996769 kJ/mol
# Density = 1.625614 g / cm^3
# Si number density = 16.293221 Si / 1000 Ang^3
#
#
#
# Elastic Constant Matrix: (Units=GPa)
#
#
# Indices 1 2 3 4 5 6 
#
# 1 55.2379 43.7729 42.1967 0.0000 0.0000 0.0000
# 2 43.7729 88.6696 52.7800 0.0000 0.0000 0.0000
# 3 42.1967 52.7800 77.1736 0.0000 0.0000 0.0000
# 4 0.0000 0.0000 0.0000 27.0345 0.0000 0.0000
# 5 0.0000 0.0000 0.0000 0.0000 27.0166 0.0000
# 6 0.0000 0.0000 0.0000 0.0000 0.0000 5.8264
#
#
#
# Elastic Compliance Matrix: (Units=1/GPa)
#
#
# Indices 1 2 3 4 5 6 
#
# 1 0.035798 -0.010155 -0.012628 0.000000 0.000000 0.000000
# 2 -0.010155 0.021902 -0.009427 0.000000 0.000000 0.000000
# 3 -0.012628 -0.009427 0.026309 0.000000 0.000000 0.000000
# 4 0.000000 0.000000 0.000000 0.036990 0.000000 0.000000
# 5 0.000000 0.000000 0.000000 0.000000 0.037014 0.000000
# 6 0.000000 0.000000 0.000000 0.000000 0.000000 0.171632
#
#
# Mechanical properties :
#
#
# Convention : Reuss Voigt Hill
#
# Bulk Modulus (GPa) = 51.04732 55.39781 53.22256
# Shear Modulus (GPa) = 12.48146 17.46428 14.97287
#
# Velocity S-wave (km/s) = 2.77077 3.27750 3.03473
# Velocity P-wave (km/s) = 6.45249 6.95680 6.70938
#
# Compressibility (1/GPa) = 0.01958967
#
# Stress axis : x y z
#
# Youngs Moduli (GPa) = 27.93491 45.65759 38.00930
#
# Poissons Ratio (x) = 0.46366 0.47998
# Poissons Ratio (y) = 0.28369 0.35830
# Poissons Ratio (z) = 0.35276 0.43039
#
# Static dielectric constant tensor:
#      x y z
#    x 1.609570 0.000000 0.000000 
#    y 0.000000 1.541000 0.000000 
#    z 0.000000 0.000000 1.555320 
# 
# From -- ./inp_files/15284.got.cif
#   From: 2010.05.17/outbox.cif.g08.bks.cpg/sg71_8_cif.got.tgz:15284.got - 2010.06.03 16:22:01.
