data_PCOD9520380
_publ_section_title
;
Structure prediction by ZEFSAII (Michael W. Deem and Ramdas Pophale) SiO2 
 PCOD9520380
Probable space group: I M M M
;
_chemical_formula_sum "Si O2"
_cell_formula_units_Z 80
_cell_length_a 17.981030
_cell_length_b 11.873355
_cell_length_c 21.064410
_cell_angle_alpha 90.000000
_cell_angle_beta 90.000000
_cell_angle_gamma 90.000000
_cell_volume 4497.149424
_symmetry_space_group_name_H-M "I M M M"
_symmetry_group_IT_number 71
_symmetry_cell_setting 'orthorhombic'
loop_
_space_group_symop_operation_xyz
x,y,z
-x,-y,z
x,-y,-z
-x,y,-z
-x,-y,-z
x,y,-z
-x,y,z
x,-y,z
1/2+x,1/2+y,1/2+z
1/2-x,1/2-y,1/2+z
1/2+x,1/2-y,1/2-z
1/2-x,1/2+y,1/2-z
1/2-x,1/2-y,1/2-z
1/2+x,1/2+y,1/2-z
1/2-x,1/2+y,1/2+z
1/2+x,1/2-y,1/2+z
loop_
_atom_site_type_symbol
_atom_site_label
_atom_site_fract_x
_atom_site_fract_y
_atom_site_fract_z
Si Si1 0.677275 0.135044 0.376263
Si Si2 0.913848 0.633690 0.500000
Si Si3 0.413275 0.500000 0.742999
Si Si4 0.417103 0.135952 0.500000
Si Si5 0.916144 0.000000 0.396952
Si Si6 0.339576 0.738285 0.254795
Si Si7 0.341409 0.269092 0.889843
O O1 0.626330 0.164277 0.436043
O O2 0.640375 0.174005 0.310039
O O3 0.753888 0.203651 0.385526
O O4 0.692256 0.000000 0.374872
O O5 0.916356 0.500000 0.500000
O O6 0.869435 0.676359 0.438346
O O7 0.000000 0.675571 0.500000
O O8 0.500000 0.500000 0.721586
O O9 0.415198 0.500000 0.819865
O O10 0.368623 0.386114 0.725600
O O11 0.500000 0.182752 0.500000
O O12 0.421381 0.000000 0.500000
O O13 0.875956 0.885835 0.415054
O O14 0.000000 0.000000 0.419582
O O15 0.250000 0.750000 0.250000
O O16 0.367394 0.756391 0.182575
#
# Coordination Sequence:
#
# PCOD9520380 Si02
#       7
#    16   8   8   8   8  16  16
#     4  10  19  35  59  86 113 142 183 237 290 337
#     4  11  25  41  53  73 113 159 194 230 282 341
#     4   9  18  34  53  81 120 157 184 228 293 347
#     4   9  19  34  52  75 106 141 177 222 277 327
#     4   9  16  29  54  81 107 138 184 234 278 322
#     4   9  20  33  58  88 115 146 192 238 286 347
#     4  10  19  36  55  81 111 146 187 232 279 339
#
# _framework density 17.789047
#
# number of rings (size 3 to 8) (size 9 to 14) (size 15 to 20)
#    0.000    2.400    1.000    1.200    4.200    2.800 
#    5.400    1.000    0.000    2.400    0.000    1.400 
#    0.000    0.000    0.000    0.000    0.000    0.000 
#
# Total GULP energy -222816.680963 kJ/mol
# GULP energy per Si atom -5570.417024 kJ/mol
# Density = 1.774856 g / cm^3
# Si number density = 17.789047 Si / 1000 Ang^3
#
#
#
# Elastic Constant Matrix: (Units=GPa)
#
#
# Indices 1 2 3 4 5 6 
#
# 1 86.4134 41.0590 38.1097 0.0000 0.0000 0.0000
# 2 41.0590 74.9570 44.7513 0.0000 0.0000 0.0000
# 3 38.1097 44.7513 131.4945 0.0000 0.0000 0.0000
# 4 0.0000 0.0000 0.0000 54.3979 0.0000 0.0000
# 5 0.0000 0.0000 0.0000 0.0000 8.5682 0.0000
# 6 0.0000 0.0000 0.0000 0.0000 0.0000 -10.3715
#
#
#
# Elastic Compliance Matrix: (Units=1/GPa)
#
#
# Indices 1 2 3 4 5 6 
#
# 1 0.016088 -0.007566 -0.002088 0.000000 0.000000 0.000000
# 2 -0.007566 0.020301 -0.004716 0.000000 0.000000 0.000000
# 3 -0.002088 -0.004716 0.009815 0.000000 0.000000 0.000000
# 4 0.000000 0.000000 0.000000 0.018383 0.000000 0.000000
# 5 0.000000 0.000000 0.000000 0.000000 0.116710 0.000000
# 6 0.000000 0.000000 0.000000 0.000000 0.000000 -0.096418
#
#
# Mechanical properties :
#
#
# Convention : Reuss Voigt Hill
#
# Bulk Modulus (GPa) = 57.26020 60.07833 58.66926
# Shear Modulus (GPa) = 41.86177 21.78192 31.82185
#
# Velocity S-wave (km/s) = 4.85628 3.50302 4.23406
# Velocity P-wave (km/s) = 7.98141 7.08573 7.54687
#
# Compressibility (1/GPa) = 0.01746414
#
# Stress axis : x y z
#
# Youngs Moduli (GPa) = 62.15822 49.25821 101.88482
#
# Poissons Ratio (x) = 0.37269 0.21270
# Poissons Ratio (y) = 0.47029 0.48052
# Poissons Ratio (z) = 0.12977 0.23231
#
# Static dielectric constant tensor:
#      x y z
#    x 1.640040 0.000000 0.000000 
#    y 0.000000 1.598870 0.000000 
#    z 0.000000 0.000000 1.642530 
# 
# From -- ./inp_files/53905.got.cif
#   From: 2010.05.17/outbox.cif.g08.bks.cpg/sg71_27_cif.got.tgz:53905.got - 2010.06.03 16:22:01.
