data_PCOD9520689
_publ_section_title
;
Structure prediction by ZEFSAII (Michael W. Deem and Ramdas Pophale) SiO2 
 PCOD9520689
Probable space group: I M M M
;
_chemical_formula_sum "Si O2"
_cell_formula_units_Z 120
_cell_length_a 23.191511
_cell_length_b 31.377294
_cell_length_c 7.411535
_cell_angle_alpha 90.000000
_cell_angle_beta 90.000000
_cell_angle_gamma 90.000000
_cell_volume 5393.276624
_symmetry_space_group_name_H-M "I M M M"
_symmetry_group_IT_number 71
_symmetry_cell_setting 'orthorhombic'
loop_
_space_group_symop_operation_xyz
x,y,z
-x,-y,z
x,-y,-z
-x,y,-z
-x,-y,-z
x,y,-z
-x,y,z
x,-y,z
1/2+x,1/2+y,1/2+z
1/2-x,1/2-y,1/2+z
1/2+x,1/2-y,1/2-z
1/2-x,1/2+y,1/2-z
1/2-x,1/2-y,1/2-z
1/2+x,1/2+y,1/2-z
1/2-x,1/2+y,1/2+z
1/2+x,1/2-y,1/2+z
loop_
_atom_site_type_symbol
_atom_site_label
_atom_site_fract_x
_atom_site_fract_y
_atom_site_fract_z
Si Si1 0.931407 0.297862 0.796038
Si Si2 0.220597 0.794855 0.714716
Si Si3 0.401927 0.613340 0.282903
Si Si4 0.910388 0.794068 0.796474
Si Si5 0.169161 0.548775 0.220800
Si Si6 0.765510 0.113287 0.285886
Si Si7 0.000000 0.048880 0.220481
Si Si8 0.933536 0.390063 0.220731
O O1 0.923572 0.251571 0.708695
O O2 0.912082 0.343086 0.717627
O O3 0.000000 0.303531 0.810838
O O4 0.906086 0.294629 0.000000
O O5 0.211767 0.798360 0.500000
O O6 0.250000 0.750000 0.750000
O O7 0.158468 0.794863 0.804510
O O8 0.250513 0.838750 0.776334
O O9 0.406197 0.615933 0.500000
O O10 0.424012 0.659685 0.215008
O O11 0.334141 0.607111 0.242828
O O12 0.443452 0.575391 0.222620
O O13 0.934998 0.792567 0.000000
O O14 0.170826 0.500000 0.280795
O O15 0.224116 0.576337 0.284304
O O16 0.111039 0.573588 0.274372
O O17 0.169571 0.548078 0.000000
O O18 0.756471 0.113193 0.500000
O O19 0.000000 0.000000 0.280459
O O20 0.000000 0.048365 0.000000
O O21 0.000000 0.397342 0.276400
O O22 0.933753 0.388124 0.000000
#
# Coordination Sequence:
#
# PCOD9520689 Si02
#       8
#    16  16  16  16  16  16   8  16
#     4   8  14  23  39  65  93 121 154 191 233 279
#     4  10  20  32  47  68  95 128 164 198 240 291
#     4   9  18  32  50  72  98 126 163 206 245 291
#     4   9  17  28  46  70  96 125 158 197 241 286
#     4   9  17  28  44  66  92 126 164 198 239 290
#     4   9  19  34  50  69  99 133 163 199 248 298
#     4   9  18  32  51  75 101 131 167 209 258 302
#     4   8  14  24  38  61  94 126 156 191 233 284
#
# _framework density 22.249925999999999
#
# number of rings (size 3 to 8) (size 9 to 14) (size 15 to 20)
#    0.000    3.133    0.000    1.200    2.800    1.333 
#    0.000    1.667    0.000    0.800    0.000    0.000 
#    0.000    0.533    0.000    1.200    0.000    1.333 
#
# Total GULP energy -334531.563094 kJ/mol
# GULP energy per Si atom -5575.526052 kJ/mol
# Density = 2.219928 g / cm^3
# Si number density = 22.249926 Si / 1000 Ang^3
#
#
#
# Elastic Constant Matrix: (Units=GPa)
#
#
# Indices 1 2 3 4 5 6 
#
# 1 105.8194 110.6954 -1.0798 0.0000 0.0000 0.0000
# 2 110.6954 272.4802 10.8599 0.0000 0.0000 0.0000
# 3 -1.0798 10.8599 77.3405 0.0000 0.0000 0.0000
# 4 0.0000 0.0000 0.0000 -10.8899 0.0000 0.0000
# 5 0.0000 0.0000 0.0000 0.0000 -16.7587 0.0000
# 6 0.0000 0.0000 0.0000 0.0000 0.0000 41.4269
#
#
#
# Elastic Compliance Matrix: (Units=1/GPa)
#
#
# Indices 1 2 3 4 5 6 
#
# 1 0.016541 -0.006767 0.001181 0.000000 0.000000 0.000000
# 2 -0.006767 0.006459 -0.001001 0.000000 0.000000 0.000000
# 3 0.001181 -0.001001 0.013087 0.000000 0.000000 0.000000
# 4 0.000000 0.000000 0.000000 -0.091828 0.000000 0.000000
# 5 0.000000 0.000000 0.000000 0.000000 -0.059671 0.000000
# 6 0.000000 0.000000 0.000000 0.000000 0.000000 0.024139
#
#
# Mechanical properties :
#
#
# Convention : Reuss Voigt Hill
#
# Bulk Modulus (GPa) = 43.64449 77.39900 60.52175
# Shear Modulus (GPa) = -70.96033 25.09997 -22.93018
#
# Velocity S-wave (km/s) = -5.65346 3.36235 -3.21374
# Velocity P-wave (km/s) = 4.79138 7.06651 3.67275
#
# Compressibility (1/GPa) = 0.02291240
#
# Stress axis : x y z
#
# Youngs Moduli (GPa) = 60.45706 154.82507 76.41203
#
# Poissons Ratio (x) = 1.04766 -0.09025
# Poissons Ratio (y) = 0.40910 0.07652
# Poissons Ratio (z) = -0.07141 0.15504
#
# Static dielectric constant tensor:
#      x y z
#    x 1.772950 0.000000 0.000000 
#    y 0.000000 1.854100 0.000000 
#    z 0.000000 0.000000 1.998460 
# 
# From -- ./inp_files/15621.got.cif
#   From: 2010.05.17/outbox.cif.g08.bks.cpg/sg71_8_cif.got.tgz:15621.got - 2010.06.03 16:22:01.
