data_PCOD9520134
_publ_section_title
;
Structure prediction by ZEFSAII (Michael W. Deem and Ramdas Pophale) SiO2 
 PCOD9520134
Probable space group: I M M M
;
_chemical_formula_sum "Si O2"
_cell_formula_units_Z 88
_cell_length_a 30.595242
_cell_length_b 17.775760
_cell_length_c 7.675287
_cell_angle_alpha 90.000000
_cell_angle_beta 90.000000
_cell_angle_gamma 90.000000
_cell_volume 4174.233072
_symmetry_space_group_name_H-M "I M M M"
_symmetry_group_IT_number 71
_symmetry_cell_setting 'orthorhombic'
loop_
_space_group_symop_operation_xyz
x,y,z
-x,-y,z
x,-y,-z
-x,y,-z
-x,-y,-z
x,y,-z
-x,y,z
x,-y,z
1/2+x,1/2+y,1/2+z
1/2-x,1/2-y,1/2+z
1/2+x,1/2-y,1/2-z
1/2-x,1/2+y,1/2-z
1/2-x,1/2-y,1/2-z
1/2+x,1/2+y,1/2-z
1/2-x,1/2+y,1/2+z
1/2+x,1/2-y,1/2+z
loop_
_atom_site_type_symbol
_atom_site_label
_atom_site_fract_x
_atom_site_fract_y
_atom_site_fract_z
Si Si1 0.500000 0.911809 0.712787
Si Si2 0.828081 0.000000 0.212619
Si Si3 0.316519 0.806444 0.708148
Si Si4 0.927483 0.000000 0.695652
Si Si5 0.222100 0.851696 0.209692
Si Si6 0.547707 0.667154 0.293812
Si Si7 0.087197 0.680078 0.212854
O O1 0.500000 0.909427 0.500000
O O2 0.455088 0.869096 0.768836
O O3 0.500000 0.000000 0.763711
O O4 0.802697 0.074297 0.266965
O O5 0.875647 0.000000 0.292177
O O6 0.832413 0.000000 0.000000
O O7 0.321295 0.798823 0.500000
O O8 0.273001 0.854031 0.741960
O O9 0.302109 0.723660 0.776462
O O10 0.363196 0.837651 0.771885
O O11 0.941636 0.079638 0.773825
O O12 0.944029 0.000000 0.500000
O O13 0.220038 0.848755 0.000000
O O14 0.545424 0.680122 0.500000
O O15 0.500000 0.681282 0.216654
O O16 0.579781 0.732679 0.232031
O O17 0.086936 0.674733 0.000000
#
# Coordination Sequence:
#
# PCOD9520134 Si02
#       7
#     8   8  16   8  16  16  16
#     4   9  16  28  48  77 111 136 164 219 277 311
#     4  10  20  37  57  74  98 136 179 218 253 305
#     4   9  17  30  50  75 104 133 164 207 257 308
#     4  12  25  35  48  77 114 142 169 217 274 319
#     4   9  18  33  52  73  98 131 171 213 252 298
#     4  10  19  34  56  76 101 143 191 224 250 301
#     4   9  16  30  51  77 105 138 179 219 260 310
#
# _framework density 21.081714999999999
#
# number of rings (size 3 to 8) (size 9 to 14) (size 15 to 20)
#    0.000    2.455    0.909    2.182    0.000    5.091 
#    1.636    4.545    0.000    0.000    0.000    0.000 
#    0.000    2.909    0.000    0.000    0.000    0.000 
#
# Total GULP energy -245306.678307 kJ/mol
# GULP energy per Si atom -5575.151780 kJ/mol
# Density = 2.103373 g / cm^3
# Si number density = 21.081715 Si / 1000 Ang^3
#
#
#
# Elastic Constant Matrix: (Units=GPa)
#
#
# Indices 1 2 3 4 5 6 
#
# 1 150.0439 21.6961 3.6375 0.0000 0.0000 0.0000
# 2 21.6961 45.0581 0.6573 0.0000 0.0000 0.0000
# 3 3.6375 0.6573 29.9469 0.0000 0.0000 0.0000
# 4 0.0000 0.0000 0.0000 -76.1516 0.0000 0.0000
# 5 0.0000 0.0000 0.0000 0.0000 7.8118 0.0000
# 6 0.0000 0.0000 0.0000 0.0000 0.0000 36.0205
#
#
#
# Elastic Compliance Matrix: (Units=1/GPa)
#
#
# Indices 1 2 3 4 5 6 
#
# 1 0.007182 -0.003447 -0.000797 0.000000 0.000000 0.000000
# 2 -0.003447 0.023855 -0.000105 0.000000 0.000000 0.000000
# 3 -0.000797 -0.000105 0.033492 0.000000 0.000000 0.000000
# 4 0.000000 0.000000 0.000000 -0.013132 0.000000 0.000000
# 5 0.000000 0.000000 0.000000 0.000000 0.128012 0.000000
# 6 0.000000 0.000000 0.000000 0.000000 0.000000 0.027762
#
#
# Mechanical properties :
#
#
# Convention : Reuss Voigt Hill
#
# Bulk Modulus (GPa) = 17.91096 30.78118 24.34607
# Shear Modulus (GPa) = 21.32389 6.80667 14.06528
#
# Velocity S-wave (km/s) = 3.18384 1.79881 2.58578
# Velocity P-wave (km/s) = 4.69363 4.35280 4.52643
#
# Compressibility (1/GPa) = 0.05583174
#
# Stress axis : x y z
#
# Youngs Moduli (GPa) = 139.22854 41.92034 29.85828
#
# Poissons Ratio (x) = 0.14449 0.02379
# Poissons Ratio (y) = 0.47989 0.00313
# Poissons Ratio (z) = 0.11093 0.00440
#
# Static dielectric constant tensor:
#      x y z
#    x 1.762490 0.000000 0.000000 
#    y 0.000000 1.760870 0.000000 
#    z 0.000000 0.000000 1.809610 
# 
# From -- ./inp_files/16741.got.cif
#   From: 2010.05.17/outbox.cif.g08.bks.cpg/sg71_9_cif.got.tgz:16741.got - 2010.06.03 16:22:01.
