data_PCOD9520316
_publ_section_title
;
Structure prediction by ZEFSAII (Michael W. Deem and Ramdas Pophale) SiO2 
 PCOD9520316
Probable space group: I M M M
;
_chemical_formula_sum "Si O2"
_cell_formula_units_Z 72
_cell_length_a 18.033761
_cell_length_b 12.951045
_cell_length_c 14.414714
_cell_angle_alpha 90.000000
_cell_angle_beta 90.000000
_cell_angle_gamma 90.000000
_cell_volume 3366.643667
_symmetry_space_group_name_H-M "I M M M"
_symmetry_group_IT_number 71
_symmetry_cell_setting 'orthorhombic'
loop_
_space_group_symop_operation_xyz
x,y,z
-x,-y,z
x,-y,-z
-x,y,-z
-x,-y,-z
x,y,-z
-x,y,z
x,-y,z
1/2+x,1/2+y,1/2+z
1/2-x,1/2-y,1/2+z
1/2+x,1/2-y,1/2-z
1/2-x,1/2+y,1/2-z
1/2-x,1/2-y,1/2-z
1/2+x,1/2+y,1/2-z
1/2-x,1/2+y,1/2+z
1/2+x,1/2-y,1/2+z
loop_
_atom_site_type_symbol
_atom_site_label
_atom_site_fract_x
_atom_site_fract_y
_atom_site_fract_z
Si Si1 0.217844 0.827442 0.106664
Si Si2 0.418006 0.124831 0.000000
Si Si3 0.195043 0.883628 0.393834
Si Si4 0.086802 0.177749 0.771760
Si Si5 0.141548 0.383289 0.699869
O O1 0.242916 0.706641 0.113185
O O2 0.134543 0.851258 0.137911
O O3 0.270049 0.878025 0.185885
O O4 0.230894 0.861207 0.000000
O O5 0.380556 0.151893 0.904377
O O6 0.500000 0.168099 0.000000
O O7 0.420773 0.000000 0.000000
O O8 0.165758 0.875611 0.500000
O O9 0.130580 0.866847 0.317946
O O10 0.225676 0.000000 0.383460
O O11 0.101707 0.301103 0.763819
O O12 0.000000 0.153661 0.772665
O O13 0.117759 0.500000 0.716780
#
# Coordination Sequence:
#
# PCOD9520316 Si02
#       5
#    16   8  16  16  16
#     4  10  21  38  58  80 107 145 194 234 268 319
#     4   9  16  26  46  78 110 136 158 195 266 338
#     4   9  19  38  62  84 107 140 184 232 278 327
#     4  11  24  36  52  83 116 148 185 225 273 330
#     4  10  19  35  57  81 110 141 176 224 279 335
#
# _framework density 21.386282999999999
#
# number of rings (size 3 to 8) (size 9 to 14) (size 15 to 20)
#    0.000    2.111    1.111    3.333    1.556    6.222 
#    0.000    1.111    0.000    0.000    0.000    7.778 
#    0.000    0.000    0.000    0.000    0.000    0.000 
#
# Total GULP energy -200845.173738 kJ/mol
# GULP energy per Si atom -5579.032604 kJ/mol
# Density = 2.133761 g / cm^3
# Si number density = 21.386283 Si / 1000 Ang^3
#
#
#
# Elastic Constant Matrix: (Units=GPa)
#
#
# Indices 1 2 3 4 5 6 
#
# 1 125.0687 -23.6476 23.4603 0.0000 0.0000 0.0000
# 2 -23.6476 70.7727 -10.2840 0.0000 0.0000 0.0000
# 3 23.4603 -10.2840 64.6048 0.0000 0.0000 0.0000
# 4 0.0000 0.0000 0.0000 16.5588 0.0000 0.0000
# 5 0.0000 0.0000 0.0000 0.0000 16.6743 0.0000
# 6 0.0000 0.0000 0.0000 0.0000 0.0000 6.1754
#
#
#
# Elastic Compliance Matrix: (Units=1/GPa)
#
#
# Indices 1 2 3 4 5 6 
#
# 1 0.009024 0.002599 -0.002863 0.000000 0.000000 0.000000
# 2 0.002599 0.015213 0.001478 0.000000 0.000000 0.000000
# 3 -0.002863 0.001478 0.016754 0.000000 0.000000 0.000000
# 4 0.000000 0.000000 0.000000 0.060391 0.000000 0.000000
# 5 0.000000 0.000000 0.000000 0.000000 0.059972 0.000000
# 6 0.000000 0.000000 0.000000 0.000000 0.000000 0.161932
#
#
# Mechanical properties :
#
#
# Convention : Reuss Voigt Hill
#
# Bulk Modulus (GPa) = 23.03175 26.61153 24.82164
# Shear Modulus (GPa) = 14.91062 25.94287 20.42674
#
# Velocity S-wave (km/s) = 2.64333 3.48668 3.09388
# Velocity P-wave (km/s) = 4.48431 5.35533 4.93906
#
# Compressibility (1/GPa) = 0.04341833
#
# Stress axis : x y z
#
# Youngs Moduli (GPa) = 110.81388 65.73338 59.68824
#
# Poissons Ratio (x) = -0.17086 0.17090
# Poissons Ratio (y) = -0.28803 -0.08821
# Poissons Ratio (z) = 0.31729 -0.09714
#
# Static dielectric constant tensor:
#      x y z
#    x 1.835750 0.000000 0.000000 
#    y 0.000000 1.821680 0.000000 
#    z 0.000000 0.000000 1.809790 
# 
# From -- ./inp_files/34072.got.cif
#   From: 2010.05.17/outbox.cif.g08.bks.cpg/sg71_18_cif.got.tgz:34072.got - 2010.06.03 16:22:01.
