data_PCOD9520077
_publ_section_title
;
Structure prediction by ZEFSAII (Michael W. Deem and Ramdas Pophale) SiO2 
 PCOD9520077
Probable space group: I M M M
;
_chemical_formula_sum "Si O2"
_cell_formula_units_Z 72
_cell_length_a 31.303288
_cell_length_b 7.711483
_cell_length_c 15.456657
_cell_angle_alpha 90.000000
_cell_angle_beta 90.000000
_cell_angle_gamma 90.000000
_cell_volume 3731.156212
_symmetry_space_group_name_H-M "I M M M"
_symmetry_group_IT_number 71
_symmetry_cell_setting 'orthorhombic'
loop_
_space_group_symop_operation_xyz
x,y,z
-x,-y,z
x,-y,-z
-x,y,-z
-x,-y,-z
x,y,-z
-x,y,z
x,-y,z
1/2+x,1/2+y,1/2+z
1/2-x,1/2-y,1/2+z
1/2+x,1/2-y,1/2-z
1/2-x,1/2+y,1/2-z
1/2-x,1/2-y,1/2-z
1/2+x,1/2+y,1/2-z
1/2-x,1/2+y,1/2+z
1/2+x,1/2-y,1/2+z
loop_
_atom_site_type_symbol
_atom_site_label
_atom_site_fract_x
_atom_site_fract_y
_atom_site_fract_z
Si Si1 0.950484 0.293254 0.729531
Si Si2 0.448423 0.500000 0.095479
Si Si3 0.633305 0.793324 0.318757
Si Si4 0.228231 0.712886 0.500000
Si Si5 0.292492 0.790888 0.193611
Si Si6 0.174538 0.204609 0.000000
O O1 0.947444 0.500000 0.711411
O O2 0.915527 0.242848 0.800939
O O3 0.000000 0.257686 0.752631
O O4 0.938391 0.174240 0.648013
O O5 0.500000 0.500000 0.089008
O O6 0.429700 0.500000 0.000000
O O7 0.666673 0.723331 0.247316
O O8 0.649839 0.752776 0.413584
O O9 0.634384 0.000000 0.309526
O O10 0.226873 0.500000 0.500000
O O11 0.209573 0.768860 0.593424
O O12 0.277385 0.775391 0.500000
O O13 0.250000 0.750000 0.250000
O O14 0.294800 0.000000 0.190036
O O15 0.179596 0.000000 0.000000
#
# Coordination Sequence:
#
# PCOD9520077 Si02
#       6
#    16   8  16   8  16   8
#     4   9  19  37  59  83 115 153 191 235 287 337
#     4   9  18  34  58  85 113 149 191 236 284 337
#     4  10  21  36  56  82 109 144 186 232 283 336
#     4   9  18  33  51  76 107 143 180 220 275 333
#     4  10  19  34  54  76 106 140 179 223 273 329
#     4  11  21  33  56  80 105 143 185 228 279 341
#
# _framework density 19.296968
#
# number of rings (size 3 to 8) (size 9 to 14) (size 15 to 20)
#    0.000    2.333    2.222    0.333    1.556    0.444 
#    2.000    3.333    0.000    3.333    0.000    0.000 
#    0.000    0.000    0.000    0.000    0.000    0.000 
#
# Total GULP energy -200660.359080 kJ/mol
# GULP energy per Si atom -5573.898863 kJ/mol
# Density = 1.925305 g / cm^3
# Si number density = 19.296968 Si / 1000 Ang^3
#
#
#
# Elastic Constant Matrix: (Units=GPa)
#
#
# Indices 1 2 3 4 5 6 
#
# 1 118.9279 24.9158 89.0497 0.0000 0.0000 0.0000
# 2 24.9158 28.2302 13.2210 0.0000 0.0000 0.0000
# 3 89.0497 13.2210 184.8110 0.0000 0.0000 0.0000
# 4 0.0000 0.0000 0.0000 -206.8775 0.0000 0.0000
# 5 0.0000 0.0000 0.0000 0.0000 16.2320 0.0000
# 6 0.0000 0.0000 0.0000 0.0000 0.0000 14.3810
#
#
#
# Elastic Compliance Matrix: (Units=1/GPa)
#
#
# Indices 1 2 3 4 5 6 
#
# 1 0.015769 -0.010718 -0.006832 0.000000 0.000000 0.000000
# 2 -0.010718 0.043936 0.002021 0.000000 0.000000 0.000000
# 3 -0.006832 0.002021 0.008558 0.000000 0.000000 0.000000
# 4 0.000000 0.000000 0.000000 -0.004834 0.000000 0.000000
# 5 0.000000 0.000000 0.000000 0.000000 0.061607 0.000000
# 6 0.000000 0.000000 0.000000 0.000000 0.000000 0.069536
#
#
# Mechanical properties :
#
#
# Convention : Reuss Voigt Hill
#
# Bulk Modulus (GPa) = 26.87691 65.14911 46.01301
# Shear Modulus (GPa) = 21.00561 -21.60072 -0.29755
#
# Velocity S-wave (km/s) = 3.30289 -3.34935 -0.39310
# Velocity P-wave (km/s) = 5.33889 4.34478 4.86728
#
# Compressibility (1/GPa) = 0.03720666
#
# Stress axis : x y z
#
# Youngs Moduli (GPa) = 63.41465 22.76023 116.84932
#
# Poissons Ratio (x) = 0.24395 0.79826
# Poissons Ratio (y) = 0.67970 -0.23621
# Poissons Ratio (z) = 0.43322 -0.04601
#
# Static dielectric constant tensor:
#      x y z
#    x 1.693700 0.000000 0.000000 
#    y 0.000000 1.724070 0.000000 
#    z 0.000000 0.000000 1.631780 
# 
# From -- ./inp_files/16436.got.cif
#   From: 2010.05.17/outbox.cif.g08.bks.cpg/sg71_9_cif.got.tgz:16436.got - 2010.06.03 16:22:01.
