data_PCOD9520506
_publ_section_title
;
Structure prediction by ZEFSAII (Michael W. Deem and Ramdas Pophale) SiO2 
 PCOD9520506
Probable space group: I M M M
;
_chemical_formula_sum "Si O2"
_cell_formula_units_Z 52
_cell_length_a 23.289069
_cell_length_b 10.441475
_cell_length_c 10.956377
_cell_angle_alpha 90.000000
_cell_angle_beta 90.000000
_cell_angle_gamma 90.000000
_cell_volume 2664.286647
_symmetry_space_group_name_H-M "I M M M"
_symmetry_group_IT_number 71
_symmetry_cell_setting 'orthorhombic'
loop_
_space_group_symop_operation_xyz
x,y,z
-x,-y,z
x,-y,-z
-x,y,-z
-x,-y,-z
x,y,-z
-x,y,z
x,-y,z
1/2+x,1/2+y,1/2+z
1/2-x,1/2-y,1/2+z
1/2+x,1/2-y,1/2-z
1/2-x,1/2+y,1/2-z
1/2-x,1/2-y,1/2-z
1/2+x,1/2+y,1/2-z
1/2-x,1/2+y,1/2+z
1/2+x,1/2-y,1/2+z
loop_
_atom_site_type_symbol
_atom_site_label
_atom_site_fract_x
_atom_site_fract_y
_atom_site_fract_z
Si Si1 0.063886 0.847816 0.500000
Si Si2 0.302980 0.500000 0.357630
Si Si3 0.319415 0.000000 0.758861
Si Si4 0.663698 0.000000 0.500000
Si Si5 0.121449 0.775044 0.754342
Si Si6 0.065792 0.717600 0.000000
O O1 0.094810 0.811483 0.625220
O O2 0.000000 0.790466 0.500000
O O3 0.059928 0.000000 0.500000
O O4 0.320168 0.500000 0.500000
O O5 0.234366 0.500000 0.347162
O O6 0.328349 0.626352 0.292497
O O7 0.356250 0.870273 0.764525
O O8 0.297623 0.000000 0.618913
O O9 0.618676 0.882982 0.500000
O O10 0.077263 0.785255 0.869399
O O11 0.000000 0.669121 0.000000
#
# Coordination Sequence:
#
# PCOD9520506 Si02
#       6
#     8   8   8   4  16   8
#     4  11  24  42  65  93 129 169 208 256 315 377
#     4  12  24  42  62  93 125 168 211 259 306 373
#     4  10  24  41  67  89 130 163 204 262 317 364
#     4   8  19  38  60  92 120 156 207 246 306 380
#     4  11  23  43  63  96 124 163 211 255 310 376
#     4  10  19  37  63  90 123 159 199 255 306 357
#
# _framework density 19.517419
#
# number of rings (size 3 to 8) (size 9 to 14) (size 15 to 20)
#    0.000    1.385    3.077    2.077    2.154    1.231 
#    0.000    3.846    0.000    0.000    0.000    0.000 
#    0.000    0.000    0.000    0.000    0.000    0.000 
#
# Total GULP energy -144903.587948 kJ/mol
# GULP energy per Si atom -5573.214921 kJ/mol
# Density = 1.947300 g / cm^3
# Si number density = 19.517419 Si / 1000 Ang^3
#
#
#
# Elastic Constant Matrix: (Units=GPa)
#
#
# Indices 1 2 3 4 5 6 
#
# 1 76.2436 34.1382 52.0666 0.0000 0.0000 0.0000
# 2 34.1382 112.6858 42.1682 0.0000 0.0000 0.0000
# 3 52.0666 42.1682 183.6662 0.0000 0.0000 0.0000
# 4 0.0000 0.0000 0.0000 23.9813 0.0000 0.0000
# 5 0.0000 0.0000 0.0000 0.0000 20.2877 0.0000
# 6 0.0000 0.0000 0.0000 0.0000 0.0000 -2.8430
#
#
#
# Elastic Compliance Matrix: (Units=1/GPa)
#
#
# Indices 1 2 3 4 5 6 
#
# 1 0.017635 -0.003798 -0.004127 0.000000 0.000000 0.000000
# 2 -0.003798 0.010526 -0.001340 0.000000 0.000000 0.000000
# 3 -0.004127 -0.001340 0.006922 0.000000 0.000000 0.000000
# 4 0.000000 0.000000 0.000000 0.041699 0.000000 0.000000
# 5 0.000000 0.000000 0.000000 0.000000 0.049291 0.000000
# 6 0.000000 0.000000 0.000000 0.000000 0.000000 -0.351742
#
#
# Mechanical properties :
#
#
# Convention : Reuss Voigt Hill
#
# Bulk Modulus (GPa) = 60.41245 69.92683 65.16964
# Shear Modulus (GPa) = -24.79909 24.56670 -0.11619
#
# Velocity S-wave (km/s) = -3.56843 3.55167 -0.24426
# Velocity P-wave (km/s) = 3.74727 7.26119 5.77784
#
# Compressibility (1/GPa) = 0.01655288
#
# Stress axis : x y z
#
# Youngs Moduli (GPa) = 56.70571 95.00000 144.45991
#
# Poissons Ratio (x) = 0.36081 0.59622
# Poissons Ratio (y) = 0.21537 0.19359
# Poissons Ratio (z) = 0.23404 0.12731
#
# Static dielectric constant tensor:
#      x y z
#    x 1.652880 0.000000 0.000000 
#    y 0.000000 1.714640 0.000000 
#    z 0.000000 0.000000 1.706430 
# 
# From -- ./inp_files/13956.got.cif
#   From: 2010.05.17/outbox.cif.g08.bks.cpg/sg71_7_cif.got.tgz:13956.got - 2010.06.03 16:22:01.
