data_PCOD9520069
_publ_section_title
;
Structure prediction by ZEFSAII (Michael W. Deem and Ramdas Pophale) SiO2 
 PCOD9520069
Probable space group: I M M M
;
_chemical_formula_sum "Si O2"
_cell_formula_units_Z 56
_cell_length_a 13.976569
_cell_length_b 7.559084
_cell_length_c 22.666893
_cell_angle_alpha 90.000000
_cell_angle_beta 90.000000
_cell_angle_gamma 90.000000
_cell_volume 2394.758585
_symmetry_space_group_name_H-M "I M M M"
_symmetry_group_IT_number 71
_symmetry_cell_setting 'orthorhombic'
loop_
_space_group_symop_operation_xyz
x,y,z
-x,-y,z
x,-y,-z
-x,y,-z
-x,-y,-z
x,y,-z
-x,y,z
x,-y,z
1/2+x,1/2+y,1/2+z
1/2-x,1/2-y,1/2+z
1/2+x,1/2-y,1/2-z
1/2-x,1/2+y,1/2-z
1/2-x,1/2-y,1/2-z
1/2+x,1/2+y,1/2-z
1/2-x,1/2+y,1/2+z
1/2+x,1/2-y,1/2+z
loop_
_atom_site_type_symbol
_atom_site_label
_atom_site_fract_x
_atom_site_fract_y
_atom_site_fract_z
Si Si1 0.303516 0.210808 0.631961
Si Si2 0.891608 0.287696 0.249328
Si Si3 0.500000 0.711190 0.566386
Si Si4 0.895622 0.796944 0.614266
O O1 0.320889 0.280304 0.698604
O O2 0.402170 0.234766 0.597975
O O3 0.208398 0.282413 0.599572
O O4 0.288867 0.000000 0.637724
O O5 0.880747 0.500000 0.256121
O O6 0.889081 0.205325 0.314105
O O7 0.000000 0.257373 0.226697
O O8 0.500000 0.500000 0.565100
O O9 0.500000 0.781202 0.500000
O O10 0.000000 0.716926 0.599187
O O11 0.898481 0.000000 0.593143
#
# Coordination Sequence:
#
# PCOD9520069 Si02
#       4
#    16  16   8  16
#     4  10  19  34  54  74 103 140 174 212 258 310
#     4   9  16  27  44  70 106 142 177 212 245 294
#     4  11  25  41  57  79 101 123 167 231 282 319
#     4   9  18  30  47  76 111 143 175 207 243 296
#
# _framework density 23.384402999999999
#
# number of rings (size 3 to 8) (size 9 to 14) (size 15 to 20)
#    0.000    2.429    1.429    1.286    0.000    3.429 
#    0.000    0.000    0.000    0.857    0.000    6.000 
#    0.000    0.000    0.000    0.000    0.000    0.000 
#
# Total GULP energy -156190.686607 kJ/mol
# GULP energy per Si atom -5578.238807 kJ/mol
# Density = 2.333118 g / cm^3
# Si number density = 23.384403 Si / 1000 Ang^3
#
#
#
# Elastic Constant Matrix: (Units=GPa)
#
#
# Indices 1 2 3 4 5 6 
#
# 1 219.0622 6.1360 15.2327 0.0000 0.0000 0.0000
# 2 6.1360 59.4993 -15.1136 0.0000 0.0000 0.0000
# 3 15.2327 -15.1136 29.0086 0.0000 0.0000 0.0000
# 4 0.0000 0.0000 0.0000 10.4737 0.0000 0.0000
# 5 0.0000 0.0000 0.0000 0.0000 9.3231 0.0000
# 6 0.0000 0.0000 0.0000 0.0000 0.0000 4.2488
#
#
#
# Elastic Compliance Matrix: (Units=1/GPa)
#
#
# Indices 1 2 3 4 5 6 
#
# 1 0.004826 -0.001315 -0.003219 0.000000 0.000000 0.000000
# 2 -0.001315 0.019729 0.010970 0.000000 0.000000 0.000000
# 3 -0.003219 0.010970 0.041878 0.000000 0.000000 0.000000
# 4 0.000000 0.000000 0.000000 0.095477 0.000000 0.000000
# 5 0.000000 0.000000 0.000000 0.000000 0.107260 0.000000
# 6 0.000000 0.000000 0.000000 0.000000 0.000000 0.235360
#
#
# Mechanical properties :
#
#
# Convention : Reuss Voigt Hill
#
# Bulk Modulus (GPa) = 12.60990 35.56448 24.08719
# Shear Modulus (GPa) = 9.65075 24.89681 17.27378
#
# Velocity S-wave (km/s) = 2.03371 3.26648 2.72083
# Velocity P-wave (km/s) = 3.30436 5.42846 4.49371
#
# Compressibility (1/GPa) = 0.07930275
#
# Stress axis : x y z
#
# Youngs Moduli (GPa) = 207.22742 50.68676 23.87875
#
# Poissons Ratio (x) = 0.06667 0.07687
# Poissons Ratio (y) = 0.27259 -0.26194
# Poissons Ratio (z) = 0.66713 -0.55602
#
# Static dielectric constant tensor:
#      x y z
#    x 2.050870 0.000000 0.000000 
#    y 0.000000 1.777680 0.000000 
#    z 0.000000 0.000000 1.843560 
# 
# From -- ./inp_files/5035.got.cif
#   From: 2010.05.17/outbox.cif.g08.bks.cpg/sg71_3_cif.got.tgz:5035.got - 2010.06.03 16:22:01.
