data_PCOD9520541
_publ_section_title
;
Structure prediction by ZEFSAII (Michael W. Deem and Ramdas Pophale) SiO2 
 PCOD9520541
Probable space group: I M M M
;
_chemical_formula_sum "Si O2"
_cell_formula_units_Z 80
_cell_length_a 7.369997
_cell_length_b 19.857209
_cell_length_c 21.052339
_cell_angle_alpha 90.000000
_cell_angle_beta 90.000000
_cell_angle_gamma 90.000000
_cell_volume 3080.958671
_symmetry_space_group_name_H-M "I M M M"
_symmetry_group_IT_number 71
_symmetry_cell_setting 'orthorhombic'
loop_
_space_group_symop_operation_xyz
x,y,z
-x,-y,z
x,-y,-z
-x,y,-z
-x,-y,-z
x,y,-z
-x,y,z
x,-y,z
1/2+x,1/2+y,1/2+z
1/2-x,1/2-y,1/2+z
1/2+x,1/2-y,1/2-z
1/2-x,1/2+y,1/2-z
1/2-x,1/2-y,1/2-z
1/2+x,1/2+y,1/2-z
1/2-x,1/2+y,1/2+z
1/2+x,1/2-y,1/2+z
loop_
_atom_site_type_symbol
_atom_site_label
_atom_site_fract_x
_atom_site_fract_y
_atom_site_fract_z
Si Si1 0.720715 0.500000 0.891832
Si Si2 0.282405 0.427750 0.425770
Si Si3 0.707270 0.646138 0.101081
Si Si4 0.288175 0.000000 0.759951
Si Si5 0.211614 0.716932 0.370462
Si Si6 0.221855 0.646209 0.749053
O O1 0.500000 0.500000 0.895793
O O2 0.784811 0.427163 0.917532
O O3 0.770511 0.500000 0.817315
O O4 0.235616 0.429463 0.500000
O O5 0.500000 0.427192 0.420694
O O6 0.218379 0.500000 0.398079
O O7 0.217236 0.356318 0.401177
O O8 0.500000 0.644720 0.077736
O O9 0.788443 0.720462 0.089060
O O10 0.713261 0.648212 0.178584
O O11 0.215017 0.926732 0.778083
O O12 0.500000 0.000000 0.774407
O O13 0.288688 0.702682 0.300059
O O14 0.000000 0.733507 0.362496
O O15 0.000000 0.646411 0.750219
#
# Coordination Sequence:
#
# PCOD9520541 Si02
#       6
#     8  16  16   8  16  16
#     4   8  14  26  42  56  83 124 159 189 222 259
#     4   9  20  39  57  72  93 121 155 196 242 294
#     4   9  17  29  43  65  95 129 166 199 230 273
#     4   8  14  24  36  52  79 116 157 191 222 263
#     4  10  20  30  46  72  97 121 156 199 243 287
#     4   9  17  27  40  61  92 129 161 194 233 276
#
# _framework density 25.965942999999999
#
# number of rings (size 3 to 8) (size 9 to 14) (size 15 to 20)
#    0.000    3.000    0.000    1.200    1.400    2.400 
#    0.000    1.000    0.000    0.000    0.000    0.700 
#    0.000    5.600    0.000    0.000    0.000    0.000 
#
# Total GULP energy -223151.545152 kJ/mol
# GULP energy per Si atom -5578.788629 kJ/mol
# Density = 2.590684 g / cm^3
# Si number density = 25.965943 Si / 1000 Ang^3
#
#
#
# Elastic Constant Matrix: (Units=GPa)
#
#
# Indices 1 2 3 4 5 6 
#
# 1 109.0322 8.6441 2.8685 0.0000 0.0000 0.0000
# 2 8.6441 266.3634 30.2027 0.0000 0.0000 0.0000
# 3 2.8685 30.2027 46.7361 0.0000 0.0000 0.0000
# 4 0.0000 0.0000 0.0000 18.7522 0.0000 0.0000
# 5 0.0000 0.0000 0.0000 0.0000 0.2834 0.0000
# 6 0.0000 0.0000 0.0000 0.0000 0.0000 5.3289
#
#
#
# Elastic Compliance Matrix: (Units=1/GPa)
#
#
# Indices 1 2 3 4 5 6 
#
# 1 0.009202 -0.000253 -0.000401 0.000000 0.000000 0.000000
# 2 -0.000253 0.004058 -0.002607 0.000000 0.000000 0.000000
# 3 -0.000401 -0.002607 0.023106 0.000000 0.000000 0.000000
# 4 0.000000 0.000000 0.000000 0.053327 0.000000 0.000000
# 5 0.000000 0.000000 0.000000 0.000000 3.529043 0.000000
# 6 0.000000 0.000000 0.000000 0.000000 0.000000 0.187656
#
#
# Mechanical properties :
#
#
# Convention : Reuss Voigt Hill
#
# Bulk Modulus (GPa) = 33.50786 56.17362 44.84074
# Shear Modulus (GPa) = 1.30792 30.23398 15.77095
#
# Velocity S-wave (km/s) = 0.71049 3.41599 2.46716
# Velocity P-wave (km/s) = 3.68858 6.10239 5.04206
#
# Compressibility (1/GPa) = 0.02984374
#
# Stress axis : x y z
#
# Youngs Moduli (GPa) = 108.66937 246.42157 43.27869
#
# Poissons Ratio (x) = 0.06238 0.01736
# Poissons Ratio (y) = 0.02751 0.11283
# Poissons Ratio (z) = 0.04360 0.64241
#
# Static dielectric constant tensor:
#      x y z
#    x 1.829340 0.000000 0.000000 
#    y 0.000000 2.198220 0.000000 
#    z 0.000000 0.000000 2.059370 
# 
# From -- ./inp_files/10739.got.cif
#   From: 2010.05.17/outbox.cif.g08.bks.cpg/sg71_6_cif.got.tgz:10739.got - 2010.06.03 16:22:01.
