data_PCOD9520930
_publ_section_title
;
Structure prediction by ZEFSAII (Michael W. Deem and Ramdas Pophale) SiO2 
 PCOD9520930
Probable space group: I M M M
;
_chemical_formula_sum "Si O2"
_cell_formula_units_Z 104
_cell_length_a 28.150589
_cell_length_b 9.364258
_cell_length_c 22.614989
_cell_angle_alpha 90.000000
_cell_angle_beta 90.000000
_cell_angle_gamma 90.000000
_cell_volume 5961.523189
_symmetry_space_group_name_H-M "I M M M"
_symmetry_group_IT_number 71
_symmetry_cell_setting 'orthorhombic'
loop_
_space_group_symop_operation_xyz
x,y,z
-x,-y,z
x,-y,-z
-x,y,-z
-x,-y,-z
x,y,-z
-x,y,z
x,-y,z
1/2+x,1/2+y,1/2+z
1/2-x,1/2-y,1/2+z
1/2+x,1/2-y,1/2-z
1/2-x,1/2+y,1/2-z
1/2-x,1/2-y,1/2-z
1/2+x,1/2+y,1/2-z
1/2-x,1/2+y,1/2+z
1/2+x,1/2-y,1/2+z
loop_
_atom_site_type_symbol
_atom_site_label
_atom_site_fract_x
_atom_site_fract_y
_atom_site_fract_z
Si Si1 0.311124 0.835151 0.277415
Si Si2 0.641966 0.326383 0.932243
Si Si3 0.280272 0.329075 0.160908
Si Si4 0.422874 0.834027 0.724578
Si Si5 0.944921 0.158803 0.889285
Si Si6 0.058314 0.663078 0.000000
Si Si7 0.055136 0.829467 0.346162
O O1 0.301097 0.735751 0.221287
O O2 0.275950 0.797005 0.331650
O O3 0.366681 0.829006 0.288820
O O4 0.299680 0.000000 0.261088
O O5 0.643254 0.500000 0.934395
O O6 0.687983 0.277808 0.894238
O O7 0.594040 0.290021 0.895866
O O8 0.641721 0.275252 0.000000
O O9 0.285523 0.500000 0.161364
O O10 0.444604 0.742337 0.672035
O O11 0.434205 0.760258 0.787091
O O12 0.437892 0.000000 0.724664
O O13 0.924354 0.254122 0.941897
O O14 0.000000 0.141760 0.905707
O O15 0.923822 0.000000 0.884116
O O16 0.074286 0.500000 0.000000
O O17 0.000000 0.658473 0.000000
O O18 0.000000 0.807024 0.363861
O O19 0.060738 0.000000 0.333902
#
# Coordination Sequence:
#
# PCOD9520930 Si02
#       7
#    16  16  16  16  16   8  16
#     4   9  18  30  48  74 100 124 157 204 253 303
#     4   9  17  30  51  77 101 130 170 212 257 312
#     4   9  16  30  52  74  97 123 158 202 249 303
#     4  11  21  32  48  72 104 135 168 211 261 312
#     4  10  20  33  50  72  98 131 172 212 249 297
#     4   9  17  31  51  73  97 127 165 207 251 299
#     4  10  20  33  49  72 103 135 172 218 262 307
#
# _framework density 17.445207
#
# number of rings (size 3 to 8) (size 9 to 14) (size 15 to 20)
#    0.000    2.385    1.538    1.615    0.000    4.923 
#    0.000    1.538    1.692    1.846    0.000    1.077 
#    0.000    0.000    0.000    0.000    0.000    0.000 
#
# Total GULP energy -289518.530286 kJ/mol
# GULP energy per Si atom -5567.664044 kJ/mol
# Density = 1.740550 g / cm^3
# Si number density = 17.445207 Si / 1000 Ang^3
#
#
#
# Elastic Constant Matrix: (Units=GPa)
#
#
# Indices 1 2 3 4 5 6 
#
# 1 78.5114 22.3438 41.9867 0.0000 0.0000 0.0000
# 2 22.3438 66.8386 47.1323 0.0000 0.0000 0.0000
# 3 41.9867 47.1323 138.0988 0.0000 0.0000 0.0000
# 4 0.0000 0.0000 0.0000 16.9541 0.0000 0.0000
# 5 0.0000 0.0000 0.0000 0.0000 20.9240 0.0000
# 6 0.0000 0.0000 0.0000 0.0000 0.0000 15.6656
#
#
#
# Elastic Compliance Matrix: (Units=1/GPa)
#
#
# Indices 1 2 3 4 5 6 
#
# 1 0.015509 -0.002449 -0.003879 0.000000 0.000000 0.000000
# 2 -0.002449 0.020090 -0.006112 0.000000 0.000000 0.000000
# 3 -0.003879 -0.006112 0.010507 0.000000 0.000000 0.000000
# 4 0.000000 0.000000 0.000000 0.058983 0.000000 0.000000
# 5 0.000000 0.000000 0.000000 0.000000 0.047792 0.000000
# 6 0.000000 0.000000 0.000000 0.000000 0.000000 0.063834
#
#
# Mechanical properties :
#
#
# Convention : Reuss Voigt Hill
#
# Bulk Modulus (GPa) = 47.11483 56.26381 51.68932
# Shear Modulus (GPa) = 20.10699 22.17447 21.14073
#
# Velocity S-wave (km/s) = 3.39865 3.56911 3.48492
# Velocity P-wave (km/s) = 6.51667 7.02185 6.77398
#
# Compressibility (1/GPa) = 0.02122474
#
# Stress axis : x y z
#
# Youngs Moduli (GPa) = 64.48065 49.77576 95.17767
#
# Poissons Ratio (x) = 0.12189 0.36923
# Poissons Ratio (y) = 0.15790 0.58174
# Poissons Ratio (z) = 0.25014 0.30423
#
# Static dielectric constant tensor:
#      x y z
#    x 1.648600 0.000000 0.000000 
#    y 0.000000 1.603650 0.000000 
#    z 0.000000 0.000000 1.566820 
# 
# From -- ./inp_files/56285.got.cif
#   From: 2010.05.17/outbox.cif.g08.bks.cpg/sg71_29_cif.got.tgz:56285.got - 2010.06.03 16:22:01.
