data_PCOD9520303
_publ_section_title
;
Structure prediction by ZEFSAII (Michael W. Deem and Ramdas Pophale) SiO2 
 PCOD9520303
Probable space group: I M M M
;
_chemical_formula_sum "Si O2"
_cell_formula_units_Z 72
_cell_length_a 17.330661
_cell_length_b 7.552052
_cell_length_c 25.339388
_cell_angle_alpha 90.000000
_cell_angle_beta 90.000000
_cell_angle_gamma 90.000000
_cell_volume 3316.471125
_symmetry_space_group_name_H-M "I M M M"
_symmetry_group_IT_number 71
_symmetry_cell_setting 'orthorhombic'
loop_
_space_group_symop_operation_xyz
x,y,z
-x,-y,z
x,-y,-z
-x,y,-z
-x,-y,-z
x,y,-z
-x,y,z
x,-y,z
1/2+x,1/2+y,1/2+z
1/2-x,1/2-y,1/2+z
1/2+x,1/2-y,1/2-z
1/2-x,1/2+y,1/2-z
1/2-x,1/2-y,1/2-z
1/2+x,1/2+y,1/2-z
1/2-x,1/2+y,1/2+z
1/2+x,1/2-y,1/2+z
loop_
_atom_site_type_symbol
_atom_site_label
_atom_site_fract_x
_atom_site_fract_y
_atom_site_fract_z
Si Si1 0.414175 0.217086 0.237475
Si Si2 0.000000 0.283044 0.939694
Si Si3 0.087208 0.785776 0.439212
Si Si4 0.205114 0.703877 0.651395
Si Si5 0.379475 0.795262 0.645370
O O1 0.500000 0.268276 0.218940
O O2 0.345407 0.279581 0.199687
O O3 0.402380 0.279590 0.297463
O O4 0.411610 0.000000 0.236499
O O5 0.926104 0.224644 0.904880
O O6 0.000000 0.500000 0.942895
O O7 0.000000 0.220210 0.000000
O O8 0.101154 0.734268 0.500000
O O9 0.150083 0.714897 0.399232
O O10 0.000000 0.729925 0.424922
O O11 0.089364 0.000000 0.437065
O O12 0.221966 0.500000 0.663905
O O13 0.287589 0.788403 0.640647
O O14 0.403254 0.000000 0.648544
#
# Coordination Sequence:
#
# PCOD9520303 Si02
#       5
#    16   8  16  16  16
#     4   9  17  32  54  78 106 144 186 226 273 325
#     4   9  18  34  59  85 101 129 186 243 282 320
#     4   9  19  37  58  78 104 140 182 225 267 316
#     4  11  22  33  51  82 116 145 178 220 274 339
#     4  10  19  35  57  77 104 142 184 232 279 324
#
# _framework density 21.709823
#
# number of rings (size 3 to 8) (size 9 to 14) (size 15 to 20)
#    0.000    2.333    1.111    2.667    0.000    2.667 
#    0.000    5.000    0.000    3.333    0.000    0.000 
#    0.000    0.000    0.000    0.000    0.000    0.000 
#
# Total GULP energy -201071.276418 kJ/mol
# GULP energy per Si atom -5585.313234 kJ/mol
# Density = 2.166041 g / cm^3
# Si number density = 21.709823 Si / 1000 Ang^3
#
#
#
# Elastic Constant Matrix: (Units=GPa)
#
#
# Indices 1 2 3 4 5 6 
#
# 1 170.3819 -0.5501 98.6693 0.0000 0.0000 0.0000
# 2 -0.5501 50.6943 1.1558 0.0000 0.0000 0.0000
# 3 98.6693 1.1558 155.7251 0.0000 0.0000 0.0000
# 4 0.0000 0.0000 0.0000 3.0458 0.0000 0.0000
# 5 0.0000 0.0000 0.0000 0.0000 1.8831 0.0000
# 6 0.0000 0.0000 0.0000 0.0000 0.0000 -16.1867
#
#
#
# Elastic Compliance Matrix: (Units=1/GPa)
#
#
# Indices 1 2 3 4 5 6 
#
# 1 0.009274 0.000235 -0.005878 0.000000 0.000000 0.000000
# 2 0.000235 0.019735 -0.000295 0.000000 0.000000 0.000000
# 3 -0.005878 -0.000295 0.010148 0.000000 0.000000 0.000000
# 4 0.000000 0.000000 0.000000 0.328324 0.000000 0.000000
# 5 0.000000 0.000000 0.000000 0.000000 0.531047 0.000000
# 6 0.000000 0.000000 0.000000 0.000000 0.000000 -0.061779
#
#
# Mechanical properties :
#
#
# Convention : Reuss Voigt Hill
#
# Bulk Modulus (GPa) = 36.65602 63.92791 50.29197
# Shear Modulus (GPa) = 5.82942 16.25019 11.03980
#
# Velocity S-wave (km/s) = 1.64042 2.73887 2.25748
# Velocity P-wave (km/s) = 4.52870 6.28589 5.47821
#
# Compressibility (1/GPa) = 0.02728065
#
# Stress axis : x y z
#
# Youngs Moduli (GPa) = 107.83135 50.67046 98.54217
#
# Poissons Ratio (x) = -0.01189 0.57920
# Poissons Ratio (y) = -0.02530 0.02908
# Poissons Ratio (z) = 0.63380 0.01495
#
# Static dielectric constant tensor:
#      x y z
#    x 1.756120 0.000000 0.000000 
#    y 0.000000 1.857640 0.000000 
#    z 0.000000 0.000000 1.775180 
# 
# From -- ./inp_files/6108.got.cif
#   From: 2010.05.17/outbox.cif.g08.bks.cpg/sg71_4_cif.got.tgz:6108.got - 2010.06.03 16:22:01.
