data_PCOD9520521
_publ_section_title
;
Structure prediction by ZEFSAII (Michael W. Deem and Ramdas Pophale) SiO2 
 PCOD9520521
Probable space group: I M M M
;
_chemical_formula_sum "Si O2"
_cell_formula_units_Z 58
_cell_length_a 21.849751
_cell_length_b 25.408771
_cell_length_c 5.244249
_cell_angle_alpha 90.000000
_cell_angle_beta 90.000000
_cell_angle_gamma 90.000000
_cell_volume 2911.477614
_symmetry_space_group_name_H-M "I M M M"
_symmetry_group_IT_number 71
_symmetry_cell_setting 'orthorhombic'
loop_
_space_group_symop_operation_xyz
x,y,z
-x,-y,z
x,-y,-z
-x,y,-z
-x,-y,-z
x,y,-z
-x,y,z
x,-y,z
1/2+x,1/2+y,1/2+z
1/2-x,1/2-y,1/2+z
1/2+x,1/2-y,1/2-z
1/2-x,1/2+y,1/2-z
1/2-x,1/2-y,1/2-z
1/2+x,1/2+y,1/2-z
1/2-x,1/2+y,1/2+z
1/2+x,1/2-y,1/2+z
loop_
_atom_site_type_symbol
_atom_site_label
_atom_site_fract_x
_atom_site_fract_y
_atom_site_fract_z
Si Si1 0.000000 0.500000 0.000000
Si Si2 0.592747 0.898101 0.500000
Si Si3 0.269855 0.938089 0.500000
Si Si4 0.930451 0.208830 0.500000
Si Si5 0.740088 0.786103 0.000000
Si Si6 0.631538 0.338135 0.500000
Si Si7 0.898650 0.329587 0.500000
Si Si8 0.689291 0.438138 0.500000
O O1 0.053432 0.547775 0.000000
O O2 0.665344 0.909764 0.500000
O O3 0.582368 0.863239 0.247336
O O4 0.229815 0.927234 0.749326
O O5 0.283844 0.000000 0.500000
O O6 0.897298 0.187481 0.750696
O O7 0.928086 0.272005 0.500000
O O8 0.000000 0.190743 0.500000
O O9 0.750000 0.750000 0.250000
O O10 0.796518 0.825597 0.000000
O O11 0.674504 0.815358 0.000000
O O12 0.630158 0.401078 0.500000
O O13 0.674407 0.500000 0.500000
#
# Coordination Sequence:
#
# PCOD9520521 Si02
#       8
#     2   8   8   8   8   8   8   8
#     4  12  32  50  68  98 128 194 256 310 324 394
#     4  12  26  44  65  89 128 176 232 285 334 379
#     4  10  19  39  59  92 129 166 208 263 328 400
#     4  12  27  45  65  94 131 176 226 260 324 404
#     4  12  21  39  64 104 137 163 216 277 348 409
#     4  12  22  43  68  95 134 173 209 276 330 399
#     4  12  26  44  68  95 129 176 222 282 342 404
#     4  10  22  38  69  99 129 163 209 259 333 406
#
# _framework density 19.921157000000001
#
# number of rings (size 3 to 8) (size 9 to 14) (size 15 to 20)
#    0.000    0.552    3.448    5.379    1.931    1.103 
#    0.000    0.000    0.000    2.483    0.000    0.000 
#    0.000    0.000    0.000    0.000    0.000    0.000 
#
# Total GULP energy -161926.976527 kJ/mol
# GULP energy per Si atom -5583.688846 kJ/mol
# Density = 1.987582 g / cm^3
# Si number density = 19.921157 Si / 1000 Ang^3
#
#
#
# Elastic Constant Matrix: (Units=GPa)
#
#
# Indices 1 2 3 4 5 6 
#
# 1 78.4894 49.8506 28.3278 0.0000 0.0000 0.0000
# 2 49.8506 163.8105 89.6460 0.0000 0.0000 0.0000
# 3 28.3278 89.6460 196.1372 0.0000 0.0000 0.0000
# 4 0.0000 0.0000 0.0000 -0.0483 0.0000 0.0000
# 5 0.0000 0.0000 0.0000 0.0000 6.3178 0.0000
# 6 0.0000 0.0000 0.0000 0.0000 0.0000 18.4281
#
#
#
# Elastic Compliance Matrix: (Units=1/GPa)
#
#
# Indices 1 2 3 4 5 6 
#
# 1 0.015795 -0.004745 -0.000112 0.000000 0.000000 0.000000
# 2 -0.004745 0.009566 -0.003687 0.000000 0.000000 0.000000
# 3 -0.000112 -0.003687 0.006800 0.000000 0.000000 0.000000
# 4 0.000000 0.000000 0.000000-20.684432 0.000000 0.000000
# 5 0.000000 0.000000 0.000000 0.000000 0.158282 0.000000
# 6 0.000000 0.000000 0.000000 0.000000 0.000000 0.054265
#
#
# Mechanical properties :
#
#
# Convention : Reuss Voigt Hill
#
# Bulk Modulus (GPa) = 66.34847 86.00955 76.17901
# Shear Modulus (GPa) = -0.24489 22.98036 11.36774
#
# Velocity S-wave (km/s) = -0.35099 3.40010 2.39139
# Velocity P-wave (km/s) = 5.76312 7.66048 6.77852
#
# Compressibility (1/GPa) = 0.01507194
#
# Stress axis : x y z
#
# Youngs Moduli (GPa) = 63.31151 104.53222 147.06070
#
# Poissons Ratio (x) = 0.49602 0.01653
# Poissons Ratio (y) = 0.30042 0.54222
# Poissons Ratio (z) = 0.00712 0.38542
#
# Static dielectric constant tensor:
#      x y z
#    x 1.675520 0.000000 0.000000 
#    y 0.000000 1.740670 0.000000 
#    z 0.000000 0.000000 1.662950 
# 
# From -- ./inp_files/992.got.cif
#   From: 2010.05.17/outbox.cif.g08.bks.cpg/sg71_1_cif.got.tgz:992.got - 2010.06.03 16:22:01.
