data_PCOD9520248
_publ_section_title
;
Structure prediction by ZEFSAII (Michael W. Deem and Ramdas Pophale) SiO2 
 PCOD9520248
Probable space group: I M M M
;
_chemical_formula_sum "Si O2"
_cell_formula_units_Z 66
_cell_length_a 9.017978
_cell_length_b 25.974903
_cell_length_c 15.551888
_cell_angle_alpha 90.000000
_cell_angle_beta 90.000000
_cell_angle_gamma 90.000000
_cell_volume 3642.891411
_symmetry_space_group_name_H-M "I M M M"
_symmetry_group_IT_number 71
_symmetry_cell_setting 'orthorhombic'
loop_
_space_group_symop_operation_xyz
x,y,z
-x,-y,z
x,-y,-z
-x,y,-z
-x,-y,-z
x,y,-z
-x,y,z
x,-y,z
1/2+x,1/2+y,1/2+z
1/2-x,1/2-y,1/2+z
1/2+x,1/2-y,1/2-z
1/2-x,1/2+y,1/2-z
1/2-x,1/2-y,1/2-z
1/2+x,1/2+y,1/2-z
1/2-x,1/2+y,1/2+z
1/2+x,1/2-y,1/2+z
loop_
_atom_site_type_symbol
_atom_site_label
_atom_site_fract_x
_atom_site_fract_y
_atom_site_fract_z
Si Si1 0.322717 0.868354 0.142588
Si Si2 0.000000 0.000000 0.500000
Si Si3 0.177545 0.939278 0.000000
Si Si4 0.662572 0.393826 0.000000
Si Si5 0.178104 0.651572 0.164266
Si Si6 0.826044 0.239240 0.899650
O O1 0.500000 0.872226 0.133357
O O2 0.244869 0.910426 0.082795
O O3 0.283152 0.871987 0.243382
O O4 0.268700 0.811771 0.114173
O O5 0.126221 0.045875 0.500000
O O6 0.000000 0.933080 0.000000
O O7 0.212330 0.000000 0.000000
O O8 0.748321 0.377540 0.085278
O O9 0.500000 0.367274 0.000000
O O10 0.220942 0.711895 0.157086
O O11 0.000000 0.650339 0.155058
O O12 0.000000 0.227584 0.882612
O O13 0.815521 0.255082 0.000000
#
# Coordination Sequence:
#
# PCOD9520248 Si02
#       6
#    16   2   8   8  16  16
#     4  11  23  38  61  91 124 155 198 249 300 354
#     4   8  24  44  58  88 120 150 198 260 310 336
#     4  11  25  46  65  83 111 160 209 252 303 357
#     4  10  21  40  62  83 119 151 196 249 298 346
#     4  10  21  39  62  91 122 160 198 242 297 361
#     4  10  19  34  59  87 125 164 196 236 292 358
#
# _framework density 18.117477000000001
#
# number of rings (size 3 to 8) (size 9 to 14) (size 15 to 20)
#    0.364    1.333    2.424    2.182    0.000    3.879 
#    2.182    1.212    0.000    0.000    0.000    0.000 
#    0.000    0.000    0.000    0.000    0.000    0.000 
#
# Total GULP energy -183948.726483 kJ/mol
# GULP energy per Si atom -5574.203833 kJ/mol
# Density = 1.807624 g / cm^3
# Si number density = 18.117477 Si / 1000 Ang^3
#
#
#
# Elastic Constant Matrix: (Units=GPa)
#
#
# Indices 1 2 3 4 5 6 
#
# 1 53.5684 60.6519 63.9348 0.0000 0.0000 0.0000
# 2 60.6519 148.4771 84.6490 0.0000 0.0000 0.0000
# 3 63.9348 84.6490 153.2546 0.0001 0.0000 0.0000
# 4 0.0000 0.0000 0.0001 8.9767 0.0000 0.0000
# 5 0.0000 0.0000 0.0000 0.0000 19.5677 0.0000
# 6 0.0000 0.0000 0.0000 0.0000 0.0000 35.9204
#
#
#
# Elastic Compliance Matrix: (Units=1/GPa)
#
#
# Indices 1 2 3 4 5 6 
#
# 1 0.048580 -0.012101 -0.013583 0.000000 0.000000 0.000000
# 2 -0.012101 0.012845 -0.002047 0.000000 0.000000 0.000000
# 3 -0.013583 -0.002047 0.013322 0.000000 0.000000 0.000000
# 4 0.000000 0.000000 0.000000 0.111399 0.000000 0.000000
# 5 0.000000 0.000000 0.000000 0.000000 0.051105 0.000000
# 6 0.000000 0.000000 0.000000 0.000000 0.000000 0.027839
#
#
# Mechanical properties :
#
#
# Convention : Reuss Voigt Hill
#
# Bulk Modulus (GPa) = 51.84981 85.97461 68.91221
# Shear Modulus (GPa) = 15.29148 22.63059 18.96103
#
# Velocity S-wave (km/s) = 2.90835 3.53810 3.23857
# Velocity P-wave (km/s) = 6.32130 8.01548 7.21826
#
# Compressibility (1/GPa) = 0.01928647
#
# Stress axis : x y z
#
# Youngs Moduli (GPa) = 20.58459 77.85161 75.06390
#
# Poissons Ratio (x) = 0.94207 1.01958
# Poissons Ratio (y) = 0.24909 0.15362
# Poissons Ratio (z) = 0.27960 0.15933
#
# Static dielectric constant tensor:
#      x y z
#    x 1.613450 0.000000 0.000000 
#    y 0.000000 1.589320 0.000000 
#    z 0.000000 0.000000 1.632950 
# 
# From -- ./inp_files/31387.got.cif
#   From: 2010.05.17/outbox.cif.g08.bks.cpg/sg71_16_cif.got.tgz:31387.got - 2010.06.03 16:22:01.
