data_PCOD9520191
_publ_section_title
;
Structure prediction by ZEFSAII (Michael W. Deem and Ramdas Pophale) SiO2 
 PCOD9520191
Probable space group: I M M M
;
_chemical_formula_sum "Si O2"
_cell_formula_units_Z 104
_cell_length_a 15.187457
_cell_length_b 16.663532
_cell_length_c 21.330529
_cell_angle_alpha 90.000000
_cell_angle_beta 90.000000
_cell_angle_gamma 90.000000
_cell_volume 5398.259371
_symmetry_space_group_name_H-M "I M M M"
_symmetry_group_IT_number 71
_symmetry_cell_setting 'orthorhombic'
loop_
_space_group_symop_operation_xyz
x,y,z
-x,-y,z
x,-y,-z
-x,y,-z
-x,-y,-z
x,y,-z
-x,y,z
x,-y,z
1/2+x,1/2+y,1/2+z
1/2-x,1/2-y,1/2+z
1/2+x,1/2-y,1/2-z
1/2-x,1/2+y,1/2-z
1/2-x,1/2-y,1/2-z
1/2+x,1/2+y,1/2-z
1/2-x,1/2+y,1/2+z
1/2+x,1/2-y,1/2+z
loop_
_atom_site_type_symbol
_atom_site_label
_atom_site_fract_x
_atom_site_fract_y
_atom_site_fract_z
Si Si1 0.396573 0.403505 0.500000
Si Si2 0.639914 0.905133 0.569713
Si Si3 0.271688 0.908264 0.234185
Si Si4 0.598673 0.800687 0.687485
Si Si5 0.902823 0.906724 0.317030
Si Si6 0.324889 0.318418 0.929305
Si Si7 0.209995 0.829681 0.115626
O O1 0.390741 0.500000 0.500000
O O2 0.500000 0.381232 0.500000
O O3 0.347580 0.368156 0.439252
O O4 0.609480 0.879630 0.500000
O O5 0.596556 0.859187 0.626906
O O6 0.742899 0.881181 0.573060
O O7 0.628396 0.000000 0.575236
O O8 0.341136 0.845034 0.261481
O O9 0.179112 0.895217 0.270493
O O10 0.256105 0.893473 0.160896
O O11 0.299478 0.000000 0.246900
O O12 0.500000 0.785384 0.709663
O O13 0.647199 0.722519 0.661115
O O14 0.890004 0.847960 0.375663
O O15 0.000000 0.895389 0.288405
O O16 0.898141 0.000000 0.338115
O O17 0.280222 0.233222 0.912800
O O18 0.360157 0.317834 0.000000
#
# Coordination Sequence:
#
# PCOD9520191 Si02
#       7
#     8  16  16  16  16  16  16
#     4  11  24  42  66  96 126 157 200 250 300 361
#     4   9  17  30  50  77 113 156 196 234 286 352
#     4  11  23  41  61  85 121 162 203 247 300 364
#     4  11  23  36  59  90 122 160 201 249 299 358
#     4  10  21  36  57  86 121 160 202 248 297 356
#     4  10  19  34  57  81 111 152 197 246 297 350
#     4  11  22  41  61  88 118 158 201 247 303 356
#
# _framework density 19.265470000000001
#
# number of rings (size 3 to 8) (size 9 to 14) (size 15 to 20)
#    0.000    1.615    3.846    2.308    1.077    4.000 
#    0.000    3.077    0.000    0.000    0.000    0.000 
#    0.000    2.462    0.000    0.000    0.000    0.000 
#
# Total GULP energy -290459.494613 kJ/mol
# GULP energy per Si atom -5585.759512 kJ/mol
# Density = 1.922162 g / cm^3
# Si number density = 19.265470 Si / 1000 Ang^3
#
#
#
# Elastic Constant Matrix: (Units=GPa)
#
#
# Indices 1 2 3 4 5 6 
#
# 1 48.4249 12.9061 11.9084 0.0000 0.0000 0.0000
# 2 12.9061 66.2190 29.7244 0.0000 0.0000 0.0000
# 3 11.9084 29.7244 85.6562 0.0000 0.0000 0.0000
# 4 0.0000 0.0000 0.0000 19.7676 0.0000 0.0000
# 5 0.0000 0.0000 0.0000 0.0000 -16.5194 0.0000
# 6 0.0000 0.0000 0.0000 0.0000 0.0000 12.2721
#
#
#
# Elastic Compliance Matrix: (Units=1/GPa)
#
#
# Indices 1 2 3 4 5 6 
#
# 1 0.022030 -0.003457 -0.001863 0.000000 0.000000 0.000000
# 2 -0.003457 0.018430 -0.005915 0.000000 0.000000 0.000000
# 3 -0.001863 -0.005915 0.013986 0.000000 0.000000 0.000000
# 4 0.000000 0.000000 0.000000 0.050588 0.000000 0.000000
# 5 0.000000 0.000000 0.000000 0.000000 -0.060535 0.000000
# 6 0.000000 0.000000 0.000000 0.000000 0.000000 0.081486
#
#
# Mechanical properties :
#
#
# Convention : Reuss Voigt Hill
#
# Bulk Modulus (GPa) = 31.27354 34.37531 32.82442
# Shear Modulus (GPa) = 31.42382 12.82146 22.12264
#
# Velocity S-wave (km/s) = 4.04306 2.58256 3.39234
# Velocity P-wave (km/s) = 6.16955 5.17441 5.69376
#
# Compressibility (1/GPa) = 0.03197591
#
# Stress axis : x y z
#
# Youngs Moduli (GPa) = 45.39238 54.25812 71.49894
#
# Poissons Ratio (x) = 0.18759 0.13320
# Poissons Ratio (y) = 0.15694 0.42292
# Poissons Ratio (z) = 0.08456 0.32094
#
# Static dielectric constant tensor:
#      x y z
#    x 1.684280 0.000000 0.000000 
#    y 0.000000 1.667840 0.000000 
#    z 0.000000 0.000000 1.676130 
# 
# From -- ./inp_files/60081.got.cif
#   From: 2010.05.17/outbox.cif.g08.bks.cpg/sg71_31_cif.got.tgz:60081.got - 2010.06.03 16:22:01.
