data_PCOD9520428
_publ_section_title
;
Structure prediction by ZEFSAII (Michael W. Deem and Ramdas Pophale) SiO2 
 PCOD9520428
Probable space group: I M M M
;
_chemical_formula_sum "Si O2"
_cell_formula_units_Z 52
_cell_length_a 10.597933
_cell_length_b 22.592617
_cell_length_c 11.320771
_cell_angle_alpha 90.000000
_cell_angle_beta 90.000000
_cell_angle_gamma 90.000000
_cell_volume 2710.589271
_symmetry_space_group_name_H-M "I M M M"
_symmetry_group_IT_number 71
_symmetry_cell_setting 'orthorhombic'
loop_
_space_group_symop_operation_xyz
x,y,z
-x,-y,z
x,-y,-z
-x,y,-z
-x,-y,-z
x,y,-z
-x,y,z
x,-y,z
1/2+x,1/2+y,1/2+z
1/2-x,1/2-y,1/2+z
1/2+x,1/2-y,1/2-z
1/2-x,1/2+y,1/2-z
1/2-x,1/2-y,1/2-z
1/2+x,1/2+y,1/2-z
1/2-x,1/2+y,1/2+z
1/2+x,1/2-y,1/2+z
loop_
_atom_site_type_symbol
_atom_site_label
_atom_site_fract_x
_atom_site_fract_y
_atom_site_fract_z
Si Si1 0.000000 0.400687 0.000000
Si Si2 0.353042 0.000000 0.858333
Si Si3 0.000000 0.185116 0.139945
Si Si4 0.759032 0.120087 0.243106
Si Si5 0.500000 0.181981 0.727854
Si Si6 0.723163 0.567753 0.000000
O O1 0.000000 0.357168 0.109921
O O2 0.125632 0.437844 0.000000
O O3 0.283503 0.942654 0.809171
O O4 0.500000 0.000000 0.819021
O O5 0.351505 0.000000 0.000000
O O6 0.123012 0.148824 0.178346
O O7 0.000000 0.248674 0.203732
O O8 0.000000 0.195073 0.000000
O O9 0.635603 0.161690 0.221043
O O10 0.799086 0.105536 0.379839
O O11 0.670171 0.500000 0.000000
#
# Coordination Sequence:
#
# PCOD9520428 Si02
#       6
#     4   8   8  16   8   8
#     4   8  17  30  64  96 116 149 202 258 318 364
#     4  11  22  40  66  95 132 169 215 262 312 384
#     4  12  26  44  62  90 134 174 214 259 315 384
#     4  11  23  41  68  97 125 166 211 264 328 377
#     4  10  20  42  66  91 123 164 215 259 309 372
#     4  10  19  35  64  95 125 155 199 265 323 377
#
# _framework density 19.184021000000001
#
# number of rings (size 3 to 8) (size 9 to 14) (size 15 to 20)
#    0.000    1.385    3.846    2.077    0.000    1.231 
#    0.000    2.308    6.769    0.000    0.000    0.000 
#    0.000    0.000    0.000    0.000    0.000    0.000 
#
# Total GULP energy -145019.236890 kJ/mol
# GULP energy per Si atom -5577.662957 kJ/mol
# Density = 1.914036 g / cm^3
# Si number density = 19.184021 Si / 1000 Ang^3
#
#
#
# Elastic Constant Matrix: (Units=GPa)
#
#
# Indices 1 2 3 4 5 6 
#
# 1 145.3295 80.1339 26.0551 0.0001 0.0000 0.0000
# 2 80.1339 164.9976 28.5244 0.0000 0.0000 0.0000
# 3 26.0551 28.5244 52.8446 0.0002 0.0001 -0.0001
# 4 0.0001 0.0000 0.0002 -6.8669 0.0002 -0.0001
# 5 0.0000 0.0000 0.0001 0.0002 -1.1584 0.0000
# 6 0.0000 0.0000 -0.0001 -0.0001 0.0000 25.6026
#
#
#
# Elastic Compliance Matrix: (Units=1/GPa)
#
#
# Indices 1 2 3 4 5 6 
#
# 1 0.009680 -0.004275 -0.002465 0.000000 0.000000 0.000000
# 2 -0.004275 0.008573 -0.002519 0.000000 0.000000 0.000000
# 3 -0.002465 -0.002519 0.021499 0.000001 0.000003 0.000000
# 4 0.000000 0.000000 0.000001 -0.145626 -0.000020 -0.000001
# 5 0.000000 0.000000 0.000003 -0.000020 -0.863246 0.000000
# 6 0.000000 0.000000 0.000000 -0.000001 0.000000 0.039058
#
#
# Mechanical properties :
#
#
# Convention : Reuss Voigt Hill
#
# Bulk Modulus (GPa) = 47.09868 70.28872 58.69370
# Shear Modulus (GPa) = -5.52813 18.74602 6.60894
#
# Velocity S-wave (km/s) = -1.69938 3.12936 1.85809
# Velocity P-wave (km/s) = 4.55563 7.05521 5.93842
#
# Compressibility (1/GPa) = 0.02123202
#
# Stress axis : x y z
#
# Youngs Moduli (GPa) = 103.30379 116.65145 46.51420
#
# Poissons Ratio (x) = 0.49870 0.11467
# Poissons Ratio (y) = 0.44164 0.11719
# Poissons Ratio (z) = 0.25466 0.29389
#
# Static dielectric constant tensor:
#      x y z
#    x 1.682730 0.000000 0.000000 
#    y 0.000000 1.623700 0.000000 
#    z 0.000000 0.000000 1.685850 
# 
# From -- ./inp_files/19308.got.cif
#   From: 2010.05.17/outbox.cif.g08.bks.cpg/sg71_10_cif.got.tgz:19308.got - 2010.06.03 16:22:01.
