data_PCOD9520761
_publ_section_title
;
Structure prediction by ZEFSAII (Michael W. Deem and Ramdas Pophale) SiO2 
 PCOD9520761
Probable space group: I M M M
;
_chemical_formula_sum "Si O2"
_cell_formula_units_Z 120
_cell_length_a 8.156204
_cell_length_b 28.019973
_cell_length_c 28.437854
_cell_angle_alpha 90.000000
_cell_angle_beta 90.000000
_cell_angle_gamma 90.000000
_cell_volume 6499.090916
_symmetry_space_group_name_H-M "I M M M"
_symmetry_group_IT_number 71
_symmetry_cell_setting 'orthorhombic'
loop_
_space_group_symop_operation_xyz
x,y,z
-x,-y,z
x,-y,-z
-x,y,-z
-x,-y,-z
x,y,-z
-x,y,z
x,-y,z
1/2+x,1/2+y,1/2+z
1/2-x,1/2-y,1/2+z
1/2+x,1/2-y,1/2-z
1/2-x,1/2+y,1/2-z
1/2-x,1/2-y,1/2-z
1/2+x,1/2+y,1/2-z
1/2-x,1/2+y,1/2+z
1/2+x,1/2-y,1/2+z
loop_
_atom_site_type_symbol
_atom_site_label
_atom_site_fract_x
_atom_site_fract_y
_atom_site_fract_z
Si Si1 0.805404 0.398925 0.218888
Si Si2 0.697518 0.183820 0.553943
Si Si3 0.299607 0.000000 0.554037
Si Si4 0.695407 0.789526 0.053370
Si Si5 0.697558 0.648917 0.360567
Si Si6 0.196584 0.197306 0.235967
Si Si7 0.696054 0.553088 0.685973
Si Si8 0.200854 0.407329 0.887391
O O1 0.769423 0.343610 0.230533
O O2 0.727773 0.429759 0.260716
O O3 0.745254 0.410785 0.166612
O O4 0.000000 0.406895 0.220535
O O5 0.755758 0.176868 0.500000
O O6 0.500000 0.181556 0.553064
O O7 0.745914 0.236997 0.569015
O O8 0.755622 0.141685 0.587863
O O9 0.248235 0.047381 0.581738
O O10 0.500000 0.000000 0.553491
O O11 0.245144 0.000000 0.500000
O O12 0.500000 0.788624 0.051545
O O13 0.748067 0.829257 0.090364
O O14 0.758625 0.797282 0.000000
O O15 0.500000 0.647715 0.360267
O O16 0.748693 0.682903 0.317033
O O17 0.758637 0.595799 0.347426
O O18 0.250000 0.250000 0.250000
O O19 0.000000 0.193866 0.238168
O O20 0.500000 0.551161 0.679563
O O21 0.763215 0.500000 0.677897
O O22 0.000000 0.406729 0.886860
#
# Coordination Sequence:
#
# PCOD9520761 Si02
#       8
#    16  16   8  16  16  16  16  16
#     4  10  20  32  48  75 108 138 173 216 263 313
#     4   9  17  31  50  71  97 133 175 215 258 309
#     4   9  16  28  46  68  97 133 173 221 274 315
#     4  10  21  35  52  78 109 138 170 211 257 307
#     4   9  19  35  55  78 103 135 174 213 256 310
#     4  10  21  36  53  75 106 140 176 216 261 313
#     4   9  19  37  58  78 104 136 173 218 263 314
#     4   9  18  29  45  71 101 131 169 219 267 311
#
# _framework density 18.464120000000001
#
# number of rings (size 3 to 8) (size 9 to 14) (size 15 to 20)
#    0.000    2.600    0.000    2.400    2.800    5.333 
#    0.000    0.667    0.000    0.400    0.000    2.800 
#    0.000    4.800    0.000    0.000    0.000    0.000 
#
# Total GULP energy -334733.086503 kJ/mol
# GULP energy per Si atom -5578.884775 kJ/mol
# Density = 1.842210 g / cm^3
# Si number density = 18.464120 Si / 1000 Ang^3
#
#
#
# Elastic Constant Matrix: (Units=GPa)
#
#
# Indices 1 2 3 4 5 6 
#
# 1 6.6352 4.4129 2.7656 0.0000 0.0000 0.0000
# 2 4.4129 161.4008 89.0874 0.0000 0.0000 0.0000
# 3 2.7656 89.0874 122.0146 0.0000 0.0000 0.0000
# 4 0.0000 0.0000 0.0000 17.4589 0.0000 0.0000
# 5 0.0000 0.0000 0.0000 0.0000 19.8062 0.0000
# 6 0.0000 0.0000 0.0000 0.0000 0.0000 8.7424
#
#
#
# Elastic Compliance Matrix: (Units=1/GPa)
#
#
# Indices 1 2 3 4 5 6 
#
# 1 0.153539 -0.003814 -0.000695 0.000000 0.000000 0.000000
# 2 -0.003814 0.010473 -0.007560 0.000000 0.000000 0.000000
# 3 -0.000695 -0.007560 0.013732 0.000000 0.000000 0.000000
# 4 0.000000 0.000000 0.000000 0.057277 0.000000 0.000000
# 5 0.000000 0.000000 0.000000 0.000000 0.050489 0.000000
# 6 0.000000 0.000000 0.000000 0.000000 0.000000 0.114385
#
#
# Mechanical properties :
#
#
# Convention : Reuss Voigt Hill
#
# Bulk Modulus (GPa) = 6.51025 53.62026 30.06526
# Shear Modulus (GPa) = 10.52110 22.12050 16.32080
#
# Velocity S-wave (km/s) = 2.38967 3.46501 2.97630
# Velocity P-wave (km/s) = 3.33880 6.71652 5.30373
#
# Compressibility (1/GPa) = 0.15360387
#
# Stress axis : x y z
#
# Youngs Moduli (GPa) = 6.51302 95.48303 72.82489
#
# Poissons Ratio (x) = 0.36420 0.05062
# Poissons Ratio (y) = 0.02484 0.55058
# Poissons Ratio (z) = 0.00453 0.72188
#
# Static dielectric constant tensor:
#      x y z
#    x 1.659970 0.000000 0.000000 
#    y 0.000000 1.628240 0.000000 
#    z 0.000000 0.000000 1.635940 
# 
# From -- ./inp_files/63763.got.cif
#   From: 2010.05.17/outbox.cif.g08.bks.cpg/sg71_32_cif.got.tgz:63763.got - 2010.06.03 16:22:01.
