data_PCOD9520264
_publ_section_title
;
Structure prediction by ZEFSAII (Michael W. Deem and Ramdas Pophale) SiO2 
 PCOD9520264
Probable space group: I M M M
;
_chemical_formula_sum "Si O2"
_cell_formula_units_Z 72
_cell_length_a 14.658100
_cell_length_b 23.812571
_cell_length_c 9.084340
_cell_angle_alpha 90.000000
_cell_angle_beta 90.000000
_cell_angle_gamma 90.000000
_cell_volume 3170.862051
_symmetry_space_group_name_H-M "I M M M"
_symmetry_group_IT_number 71
_symmetry_cell_setting 'orthorhombic'
loop_
_space_group_symop_operation_xyz
x,y,z
-x,-y,z
x,-y,-z
-x,y,-z
-x,-y,-z
x,y,-z
-x,y,z
x,-y,z
1/2+x,1/2+y,1/2+z
1/2-x,1/2-y,1/2+z
1/2+x,1/2-y,1/2-z
1/2-x,1/2+y,1/2-z
1/2-x,1/2-y,1/2-z
1/2+x,1/2+y,1/2-z
1/2-x,1/2+y,1/2+z
1/2+x,1/2-y,1/2+z
loop_
_atom_site_type_symbol
_atom_site_label
_atom_site_fract_x
_atom_site_fract_y
_atom_site_fract_z
Si Si1 0.326779 0.439602 0.000000
Si Si2 0.389295 0.277476 0.671169
Si Si3 0.100892 0.932371 0.000000
Si Si4 0.607996 0.169036 0.163195
Si Si5 0.764732 0.564229 0.699472
Si Si6 0.104464 0.819553 0.500000
O O1 0.257344 0.437266 0.132681
O O2 0.375705 0.500000 0.000000
O O3 0.392131 0.386965 0.000000
O O4 0.358770 0.291776 0.500000
O O5 0.500000 0.283626 0.668481
O O6 0.366664 0.212257 0.707843
O O7 0.359464 0.304725 0.831332
O O8 0.166280 0.918038 0.866268
O O9 0.000000 0.908021 0.000000
O O10 0.092119 0.000000 0.000000
O O11 0.500000 0.159234 0.173688
O O12 0.661203 0.110707 0.166081
O O13 0.625729 0.194857 0.000000
O O14 0.786021 0.500000 0.652819
O O15 0.000000 0.798342 0.500000
#
# Coordination Sequence:
#
# PCOD9520264 Si02
#       6
#     8  16   8  16  16   8
#     4  10  24  43  62  86 126 172 211 266 333 388
#     4   9  18  35  62  95 132 174 215 264 329 395
#     4   9  18  35  59  82 109 156 214 264 318 384
#     4  10  19  34  62  96 132 175 217 265 329 393
#     4  10  21  39  59  86 128 172 217 272 324 385
#     4  10  20  40  67  94 128 167 217 279 336 390
#
# _framework density 22.706758000000001
#
# number of rings (size 3 to 8) (size 9 to 14) (size 15 to 20)
#    0.000    2.333    2.222    0.000    1.556    1.556 
#    2.000    4.444    0.000    2.000    0.000    0.000 
#    0.000    0.000    0.000    0.000    0.000    0.000 
#
# Total GULP energy -200503.861231 kJ/mol
# GULP energy per Si atom -5569.551701 kJ/mol
# Density = 2.265508 g / cm^3
# Si number density = 22.706758 Si / 1000 Ang^3
#
#
#
# Elastic Constant Matrix: (Units=GPa)
#
#
# Indices 1 2 3 4 5 6 
#
# 1 69.8621 37.6265 31.7823 0.0000 0.0000 0.0000
# 2 37.6265 132.5164 58.8901 -0.0001 0.0001 0.0000
# 3 31.7823 58.8901 221.7558 -0.0008 0.0005 -0.0001
# 4 0.0000 -0.0001 -0.0008 32.9016 0.0001 -0.0001
# 5 0.0000 0.0001 0.0005 0.0001 10.5235 -0.0002
# 6 0.0000 0.0000 -0.0001 -0.0001 -0.0002 4.2562
#
#
#
# Elastic Compliance Matrix: (Units=1/GPa)
#
#
# Indices 1 2 3 4 5 6 
#
# 1 0.017236 -0.004304 -0.001327 0.000000 0.000000 0.000000
# 2 -0.004304 0.009631 -0.001941 0.000000 0.000000 0.000000
# 3 -0.001327 -0.001941 0.005215 0.000000 0.000000 0.000000
# 4 0.000000 0.000000 0.000000 0.030394 0.000000 0.000000
# 5 0.000000 0.000000 0.000000 0.000000 0.095025 0.000005
# 6 0.000000 0.000000 0.000000 0.000000 0.000005 0.234951
#
#
# Mechanical properties :
#
#
# Convention : Reuss Voigt Hill
#
# Bulk Modulus (GPa) = 59.04033 75.63690 67.33862
# Shear Modulus (GPa) = 12.09948 29.25863 20.67905
#
# Velocity S-wave (km/s) = 2.31088 3.59352 3.02106
# Velocity P-wave (km/s) = 5.76002 7.11340 6.47218
#
# Compressibility (1/GPa) = 0.01693757
#
# Stress axis : x y z
#
# Youngs Moduli (GPa) = 58.01868 103.83372 191.75195
#
# Poissons Ratio (x) = 0.44691 0.25450
# Poissons Ratio (y) = 0.24972 0.37214
# Poissons Ratio (z) = 0.07701 0.20151
#
# Static dielectric constant tensor:
#      x y z
#    x 1.787600 0.000000 0.000000 
#    y 0.000000 1.925770 0.000000 
#    z 0.000000 0.000000 1.745850 
# 
# From -- ./inp_files/6133.got.cif
#   From: 2010.05.17/outbox.cif.g08.bks.cpg/sg71_4_cif.got.tgz:6133.got - 2010.06.03 16:22:01.
