data_PCOD9520215
_publ_section_title
;
Structure prediction by ZEFSAII (Michael W. Deem and Ramdas Pophale) SiO2 
 PCOD9520215
Probable space group: I M M M
;
_chemical_formula_sum "Si O2"
_cell_formula_units_Z 88
_cell_length_a 14.260666
_cell_length_b 10.834715
_cell_length_c 29.985797
_cell_angle_alpha 90.000000
_cell_angle_beta 90.000000
_cell_angle_gamma 90.000000
_cell_volume 4633.113045
_symmetry_space_group_name_H-M "I M M M"
_symmetry_group_IT_number 71
_symmetry_cell_setting 'orthorhombic'
loop_
_space_group_symop_operation_xyz
x,y,z
-x,-y,z
x,-y,-z
-x,y,-z
-x,-y,-z
x,y,-z
-x,y,z
x,-y,z
1/2+x,1/2+y,1/2+z
1/2-x,1/2-y,1/2+z
1/2+x,1/2-y,1/2-z
1/2-x,1/2+y,1/2-z
1/2-x,1/2-y,1/2-z
1/2+x,1/2+y,1/2-z
1/2-x,1/2+y,1/2+z
1/2+x,1/2-y,1/2+z
loop_
_atom_site_type_symbol
_atom_site_label
_atom_site_fract_x
_atom_site_fract_y
_atom_site_fract_z
Si Si1 0.670070 0.737729 0.713403
Si Si2 0.395081 0.500000 0.237914
Si Si3 0.888865 0.234278 0.050505
Si Si4 0.253571 0.641070 0.621005
Si Si5 0.887947 0.500000 0.092906
Si Si6 0.390521 0.850181 0.049719
Si Si7 0.185625 0.500000 0.191113
O O1 0.750000 0.750000 0.750000
O O2 0.610512 0.621920 0.730693
O O3 0.716619 0.708236 0.665779
O O4 0.633533 0.876913 0.708483
O O5 0.500000 0.500000 0.216113
O O6 0.296765 0.500000 0.208078
O O7 0.838687 0.148579 0.086181
O O8 0.869945 0.375982 0.064828
O O9 0.000000 0.216688 0.052407
O O10 0.857874 0.210428 0.000000
O O11 0.231477 0.500000 0.632971
O O12 0.169050 0.696230 0.591519
O O13 0.826428 0.500000 0.137707
O O14 0.000000 0.500000 0.104294
O O15 0.500000 0.822974 0.055027
O O16 0.380278 0.000000 0.049680
O O17 0.361753 0.807729 0.000000
#
# Coordination Sequence:
#
# PCOD9520215 Si02
#       7
#    16   8  16  16   8  16   8
#     4  10  21  38  59  84 115 152 194 241 290 346
#     4  10  22  40  63  89 121 158 189 237 310 359
#     4  10  21  35  52  79 112 146 186 232 283 340
#     4  11  20  33  54  83 112 146 190 236 292 345
#     4  10  19  34  58  80 104 146 191 235 280 327
#     4   8  15  29  50  76 108 146 185 228 284 345
#     4  10  20  39  62  88 115 148 207 247 279 347
#
# _framework density 18.993708999999999
#
# number of rings (size 3 to 8) (size 9 to 14) (size 15 to 20)
#    0.000    2.182    2.727    1.364    0.000    4.000 
#    0.000    4.545    0.000    1.091    0.000    0.000 
#    0.000    5.091    0.000    0.000    0.000    0.000 
#
# Total GULP energy -245030.725037 kJ/mol
# GULP energy per Si atom -5568.880114 kJ/mol
# Density = 1.895048 g / cm^3
# Si number density = 18.993709 Si / 1000 Ang^3
#
#
#
# Elastic Constant Matrix: (Units=GPa)
#
#
# Indices 1 2 3 4 5 6 
#
# 1 69.3503 10.1383 29.8618 0.0000 0.0000 0.0000
# 2 10.1383 73.7210 15.0741 0.0000 0.0000 0.0000
# 3 29.8618 15.0741 120.7019 0.0000 0.0000 0.0000
# 4 0.0000 0.0000 0.0000 7.3780 0.0000 0.0000
# 5 0.0000 0.0000 0.0000 0.0000 68.8279 0.0000
# 6 0.0000 0.0000 0.0000 0.0000 0.0000 3.2884
#
#
#
# Elastic Compliance Matrix: (Units=1/GPa)
#
#
# Indices 1 2 3 4 5 6 
#
# 1 0.016289 -0.001453 -0.003848 0.000000 0.000000 0.000000
# 2 -0.001453 0.014050 -0.001395 0.000000 0.000000 0.000000
# 3 -0.003848 -0.001395 0.009411 0.000000 0.000000 0.000000
# 4 0.000000 0.000000 0.000000 0.135537 0.000000 0.000000
# 5 0.000000 0.000000 0.000000 0.000000 0.014529 0.000000
# 6 0.000000 0.000000 0.000000 0.000000 0.000000 0.304096
#
#
# Mechanical properties :
#
#
# Convention : Reuss Voigt Hill
#
# Bulk Modulus (GPa) = 37.94123 41.54683 39.74403
# Shear Modulus (GPa) = 9.68820 29.81214 19.75017
#
# Velocity S-wave (km/s) = 2.26093 3.96609 3.22813
# Velocity P-wave (km/s) = 5.18023 6.54940 5.90464
#
# Compressibility (1/GPa) = 0.02635655
#
# Stress axis : x y z
#
# Youngs Moduli (GPa) = 61.39069 71.17549 106.25619
#
# Poissons Ratio (x) = 0.10343 0.40892
# Poissons Ratio (y) = 0.08921 0.14824
# Poissons Ratio (z) = 0.23626 0.09930
#
# Static dielectric constant tensor:
#      x y z
#    x 1.670020 0.000000 0.000000 
#    y 0.000000 0.771660 0.000000 
#    z 0.000000 0.000000 1.637820 
# 
# From -- ./inp_files/69851.got.cif
#   From: 2010.05.17/outbox.cif.g08.bks.cpg/sg71_35_cif.got.tgz:69851.got - 2010.06.03 16:22:01.
