data_PCOD9520690
_publ_section_title
;
Structure prediction by ZEFSAII (Michael W. Deem and Ramdas Pophale) SiO2 
 PCOD9520690
Probable space group: I M M M
;
_chemical_formula_sum "Si O2"
_cell_formula_units_Z 88
_cell_length_a 20.304910
_cell_length_b 8.780691
_cell_length_c 31.031339
_cell_angle_alpha 90.000000
_cell_angle_beta 90.000000
_cell_angle_gamma 90.000000
_cell_volume 5532.612821
_symmetry_space_group_name_H-M "I M M M"
_symmetry_group_IT_number 71
_symmetry_cell_setting 'orthorhombic'
loop_
_space_group_symop_operation_xyz
x,y,z
-x,-y,z
x,-y,-z
-x,y,-z
-x,-y,-z
x,y,-z
-x,y,z
x,-y,z
1/2+x,1/2+y,1/2+z
1/2-x,1/2-y,1/2+z
1/2+x,1/2-y,1/2-z
1/2-x,1/2+y,1/2-z
1/2-x,1/2-y,1/2-z
1/2+x,1/2+y,1/2-z
1/2-x,1/2+y,1/2+z
1/2+x,1/2-y,1/2+z
loop_
_atom_site_type_symbol
_atom_site_label
_atom_site_fract_x
_atom_site_fract_y
_atom_site_fract_z
Si Si1 0.074579 0.821427 0.671600
Si Si2 0.927235 0.319988 0.235028
Si Si3 0.859140 0.818089 0.549951
Si Si4 0.200087 0.678729 0.370062
Si Si5 0.000000 0.326491 0.447709
Si Si6 0.283300 0.818605 0.706647
O O1 0.075988 0.782109 0.722235
O O2 0.128839 0.716505 0.650255
O O3 0.000000 0.792259 0.656542
O O4 0.089871 0.000000 0.664506
O O5 0.923675 0.500000 0.247513
O O6 0.861677 0.288303 0.208092
O O7 0.000000 0.296815 0.215083
O O8 0.847958 0.774298 0.500000
O O9 0.805409 0.751475 0.582590
O O10 0.931936 0.758064 0.562911
O O11 0.859763 0.000000 0.552809
O O12 0.210866 0.500000 0.372938
O O13 0.250737 0.751352 0.336220
O O14 0.000000 0.500000 0.431253
O O15 0.000000 0.332816 0.500000
O O16 0.250000 0.750000 0.750000
O O17 0.272663 0.000000 0.707625
#
# Coordination Sequence:
#
# PCOD9520690 Si02
#       6
#    16  16  16  16   8  16
#     4  10  20  32  47  68  95 128 169 214 255 296
#     4   9  18  33  52  72  96 129 167 207 251 296
#     4  10  21  37  54  71  94 125 165 213 259 301
#     4  12  24  35  50  71  98 134 171 210 254 302
#     4   9  17  31  51  73  97 127 163 205 255 305
#     4  11  21  34  52  74 103 134 168 208 251 301
#
# _framework density 15.905685999999999
#
# number of rings (size 3 to 8) (size 9 to 14) (size 15 to 20)
#    0.000    1.727    1.818    3.545    1.273    4.000 
#    0.000    0.000    0.000    0.000    0.000    0.000 
#    0.000    0.727    0.000    8.364    0.000    2.364 
#
# Total GULP energy -245596.392557 kJ/mol
# GULP energy per Si atom -5581.736194 kJ/mol
# Density = 1.586948 g / cm^3
# Si number density = 15.905686 Si / 1000 Ang^3
#
#
#
# Elastic Constant Matrix: (Units=GPa)
#
#
# Indices 1 2 3 4 5 6 
#
# 1 89.4880 35.4115 57.5685 0.0000 0.0000 0.0000
# 2 35.4115 67.3756 39.8573 0.0000 0.0000 0.0000
# 3 57.5685 39.8573 100.7596 0.0000 0.0000 0.0000
# 4 0.0000 0.0000 0.0000 23.3654 0.0000 0.0000
# 5 0.0000 0.0000 0.0000 0.0000 31.0093 0.0000
# 6 0.0000 0.0000 0.0000 0.0000 0.0000 17.9036
#
#
#
# Elastic Compliance Matrix: (Units=1/GPa)
#
#
# Indices 1 2 3 4 5 6 
#
# 1 0.018691 -0.004577 -0.008868 0.000000 0.000000 0.000000
# 2 -0.004577 0.020497 -0.005493 0.000000 0.000000 0.000000
# 3 -0.008868 -0.005493 0.017164 0.000000 0.000000 0.000000
# 4 0.000000 0.000000 0.000000 0.042798 0.000000 0.000000
# 5 0.000000 0.000000 0.000000 0.000000 0.032248 0.000000
# 6 0.000000 0.000000 0.000000 0.000000 0.000000 0.055855
#
#
# Mechanical properties :
#
#
# Convention : Reuss Voigt Hill
#
# Bulk Modulus (GPa) = 54.12572 58.14416 56.13494
# Shear Modulus (GPa) = 21.61788 22.77473 22.19631
#
# Velocity S-wave (km/s) = 3.69064 3.78810 3.73969
# Velocity P-wave (km/s) = 7.22939 7.46779 7.34956
#
# Compressibility (1/GPa) = 0.01847550
#
# Stress axis : x y z
#
# Youngs Moduli (GPa) = 53.50116 48.78677 58.26048
#
# Poissons Ratio (x) = 0.22332 0.51668
# Poissons Ratio (y) = 0.24490 0.32001
# Poissons Ratio (z) = 0.47447 0.26797
#
# Static dielectric constant tensor:
#      x y z
#    x 1.536120 0.000000 0.000000 
#    y 0.000000 1.537020 0.000000 
#    z 0.000000 0.000000 1.554510 
# 
# From -- ./inp_files/10931.got.cif
#   From: 2010.05.17/outbox.cif.g08.bks.cpg/sg71_6_cif.got.tgz:10931.got - 2010.06.03 16:22:01.
