data_PCOD9520126
_publ_section_title
;
Structure prediction by ZEFSAII (Michael W. Deem and Ramdas Pophale) SiO2 
 PCOD9520126
Probable space group: I M M M
;
_chemical_formula_sum "Si O2"
_cell_formula_units_Z 120
_cell_length_a 13.771329
_cell_length_b 14.284050
_cell_length_c 33.394784
_cell_angle_alpha 90.000000
_cell_angle_beta 90.000000
_cell_angle_gamma 90.000000
_cell_volume 6569.099716
_symmetry_space_group_name_H-M "I M M M"
_symmetry_group_IT_number 71
_symmetry_cell_setting 'orthorhombic'
loop_
_space_group_symop_operation_xyz
x,y,z
-x,-y,z
x,-y,-z
-x,y,-z
-x,-y,-z
x,y,-z
-x,y,z
x,-y,z
1/2+x,1/2+y,1/2+z
1/2-x,1/2-y,1/2+z
1/2+x,1/2-y,1/2-z
1/2-x,1/2+y,1/2-z
1/2-x,1/2-y,1/2-z
1/2+x,1/2+y,1/2-z
1/2-x,1/2+y,1/2+z
1/2+x,1/2-y,1/2+z
loop_
_atom_site_type_symbol
_atom_site_label
_atom_site_fract_x
_atom_site_fract_y
_atom_site_fract_z
Si Si1 0.209026 0.606147 0.124178
Si Si2 0.113831 0.203377 0.886251
Si Si3 0.885646 0.603804 0.211261
Si Si4 0.882555 0.103911 0.195998
Si Si5 0.798085 0.389179 0.415096
Si Si6 0.110511 0.386748 0.500000
Si Si7 0.615675 0.728495 0.860554
Si Si8 0.117291 0.774045 0.732399
O O1 0.198158 0.500000 0.108922
O O2 0.143318 0.689135 0.105875
O O3 0.174932 0.604343 0.170568
O O4 0.318805 0.644845 0.121614
O O5 0.138009 0.176256 0.839815
O O6 0.184696 0.136427 0.911106
O O7 0.000000 0.187889 0.892439
O O8 0.879166 0.500000 0.229235
O O9 0.855809 0.682750 0.242287
O O10 0.000000 0.620261 0.200681
O O11 0.851541 0.139421 0.239673
O O12 0.000000 0.098994 0.196943
O O13 0.844919 0.000000 0.186729
O O14 0.814361 0.500000 0.408892
O O15 0.836387 0.361077 0.458959
O O16 0.853097 0.324039 0.382787
O O17 0.107022 0.500000 0.500000
O O18 0.000000 0.351650 0.500000
O O19 0.500000 0.714616 0.863873
O O20 0.644882 0.731610 0.813679
O O21 0.000000 0.776991 0.731701
#
# Coordination Sequence:
#
# PCOD9520126 Si02
#       8
#    16  16  16  16  16   8  16  16
#     4  10  20  33  50  73 100 138 188 235 275 322
#     4  10  19  34  55  81 115 148 182 228 275 324
#     4   9  16  28  46  66  91 127 174 225 271 316
#     4   9  16  27  45  68  99 145 190 220 259 320
#     4  10  21  37  58  88 116 143 182 221 267 333
#     4   9  18  36  63  87 112 149 187 223 263 319
#     4  10  22  36  51  73 105 141 182 237 288 325
#     4   9  17  30  46  66  95 136 184 228 272 326
#
# _framework density 18.267344000000001
#
# number of rings (size 3 to 8) (size 9 to 14) (size 15 to 20)
#    0.000    2.467    1.333    1.200    0.000    4.267 
#    0.000    3.000    0.000    1.200    0.000    7.467 
#    0.000   17.067    0.000    0.000    0.000    0.000 
#
# Total GULP energy -334578.735465 kJ/mol
# GULP energy per Si atom -5576.312258 kJ/mol
# Density = 1.822577 g / cm^3
# Si number density = 18.267344 Si / 1000 Ang^3
#
#
#
# Elastic Constant Matrix: (Units=GPa)
#
#
# Indices 1 2 3 4 5 6 
#
# 1 107.0831 16.9089 29.5668 0.0000 0.0000 0.0000
# 2 16.9089 100.8268 19.2047 0.0000 0.0000 0.0000
# 3 29.5668 19.2047 65.7996 0.0000 0.0000 0.0000
# 4 0.0000 0.0000 0.0000 17.7571 0.0000 0.0000
# 5 0.0000 0.0000 0.0000 0.0000 22.8756 0.0000
# 6 0.0000 0.0000 0.0000 0.0000 0.0000 16.9271
#
#
#
# Elastic Compliance Matrix: (Units=1/GPa)
#
#
# Indices 1 2 3 4 5 6 
#
# 1 0.010744 -0.000934 -0.004555 0.000000 0.000000 0.000000
# 2 -0.000934 0.010583 -0.002669 0.000000 0.000000 0.000000
# 3 -0.004555 -0.002669 0.018023 0.000000 0.000000 0.000000
# 4 0.000000 0.000000 0.000000 0.056315 0.000000 0.000000
# 5 0.000000 0.000000 0.000000 0.000000 0.043715 0.000000
# 6 0.000000 0.000000 0.000000 0.000000 0.000000 0.059077
#
#
# Mechanical properties :
#
#
# Convention : Reuss Voigt Hill
#
# Bulk Modulus (GPa) = 43.41454 45.00780 44.21117
# Shear Modulus (GPa) = 22.47680 25.38057 23.92869
#
# Velocity S-wave (km/s) = 3.51156 3.73150 3.62320
# Velocity P-wave (km/s) = 6.34502 6.57703 6.46207
#
# Compressibility (1/GPa) = 0.02303376
#
# Stress axis : x y z
#
# Youngs Moduli (GPa) = 93.07746 94.49081 55.48329
#
# Poissons Ratio (x) = 0.08827 0.25273
# Poissons Ratio (y) = 0.08695 0.14809
# Poissons Ratio (z) = 0.42397 0.25220
#
# Static dielectric constant tensor:
#      x y z
#    x 1.676050 0.000000 0.000000 
#    y 0.000000 1.648180 0.000000 
#    z 0.000000 0.000000 1.606460 
# 
# From -- ./inp_files/70165.got.cif
#   From: 2010.05.17/outbox.cif.g08.bks.cpg/sg71_36_cif.got.tgz:70165.got - 2010.06.03 16:22:01.
