data_PCOD9520929
_publ_section_title
;
Structure prediction by ZEFSAII (Michael W. Deem and Ramdas Pophale) SiO2 
 PCOD9520929
Probable space group: I M M M
;
_chemical_formula_sum "Si O2"
_cell_formula_units_Z 96
_cell_length_a 7.527606
_cell_length_b 24.492925
_cell_length_c 22.108764
_cell_angle_alpha 90.000000
_cell_angle_beta 90.000000
_cell_angle_gamma 90.000000
_cell_volume 4076.261117
_symmetry_space_group_name_H-M "I M M M"
_symmetry_group_IT_number 71
_symmetry_cell_setting 'orthorhombic'
loop_
_space_group_symop_operation_xyz
x,y,z
-x,-y,z
x,-y,-z
-x,y,-z
-x,-y,-z
x,y,-z
-x,y,z
x,-y,z
1/2+x,1/2+y,1/2+z
1/2-x,1/2-y,1/2+z
1/2+x,1/2-y,1/2-z
1/2-x,1/2+y,1/2-z
1/2-x,1/2-y,1/2-z
1/2+x,1/2+y,1/2-z
1/2-x,1/2+y,1/2+z
1/2+x,1/2-y,1/2+z
loop_
_atom_site_type_symbol
_atom_site_label
_atom_site_fract_x
_atom_site_fract_y
_atom_site_fract_z
Si Si1 0.782887 0.595031 0.564896
Si Si2 0.715363 0.058613 0.804277
Si Si3 0.297479 0.787489 0.100728
Si Si4 0.713506 0.675281 0.133351
Si Si5 0.286586 0.060833 0.430289
Si Si6 0.796978 0.823736 0.767379
O O1 0.727628 0.572864 0.500000
O O2 0.732440 0.563329 0.625179
O O3 0.718527 0.657753 0.572055
O O4 0.000000 0.595905 0.565781
O O5 0.500000 0.062933 0.800908
O O6 0.794964 0.110825 0.772711
O O7 0.767622 0.000000 0.779332
O O8 0.500000 0.785394 0.078542
O O9 0.220535 0.726817 0.093674
O O10 0.297583 0.801114 0.172887
O O11 0.500000 0.681132 0.137113
O O12 0.744526 0.614723 0.108317
O O13 0.782641 0.685630 0.201330
O O14 0.225229 0.068186 0.500000
O O15 0.500000 0.058393 0.431498
O O16 0.225279 0.000000 0.409632
O O17 0.000000 0.804178 0.769867
#
# Coordination Sequence:
#
# PCOD9520929 Si02
#       6
#    16  16  16  16  16  16
#     4   8  14  26  46  71  96 122 155 198 243 284
#     4   9  18  32  49  69  95 130 169 206 248 298
#     4   9  18  33  51  73 102 133 166 204 246 297
#     4  10  21  34  52  79 104 130 167 207 249 299
#     4   9  20  39  58  76 102 135 169 206 250 302
#     4  10  20  33  49  72 103 135 166 206 255 299
#
# _framework density 23.550993999999999
#
# number of rings (size 3 to 8) (size 9 to 14) (size 15 to 20)
#    0.000    2.833    0.000    2.500    0.000    4.667 
#    0.000    7.500    0.000    8.000    0.000    4.667 
#    0.000    0.000    0.000    0.000    0.000    0.000 
#
# Total GULP energy -267785.048015 kJ/mol
# GULP energy per Si atom -5578.855167 kJ/mol
# Density = 2.349739 g / cm^3
# Si number density = 23.550994 Si / 1000 Ang^3
#
#
#
# Elastic Constant Matrix: (Units=GPa)
#
#
# Indices 1 2 3 4 5 6 
#
# 1 65.2348 1.2706 -0.7018 0.0000 0.0000 0.0000
# 2 1.2706 131.7704 -2.9785 0.0000 0.0000 0.0000
# 3 -0.7018 -2.9785 34.2186 0.0000 0.0000 0.0000
# 4 0.0000 0.0000 0.0000 -11.6500 0.0000 0.0000
# 5 0.0000 0.0000 0.0000 0.0000 14.0962 0.0000
# 6 0.0000 0.0000 0.0000 0.0000 0.0000 17.5715
#
#
#
# Elastic Compliance Matrix: (Units=1/GPa)
#
#
# Indices 1 2 3 4 5 6 
#
# 1 0.015335 -0.000141 0.000302 0.000000 0.000000 0.000000
# 2 -0.000141 0.007605 0.000659 0.000000 0.000000 0.000000
# 3 0.000302 0.000659 0.029287 0.000000 0.000000 0.000000
# 4 0.000000 0.000000 0.000000 -0.085837 0.000000 0.000000
# 5 0.000000 0.000000 0.000000 0.000000 0.070941 0.000000
# 6 0.000000 0.000000 0.000000 0.000000 0.000000 0.056910
#
#
# Mechanical properties :
#
#
# Convention : Reuss Voigt Hill
#
# Bulk Modulus (GPa) = 18.56375 25.15607 21.85991
# Shear Modulus (GPa) = 45.22516 19.57911 32.40214
#
# Velocity S-wave (km/s) = 4.38689 2.88644 3.71324
# Velocity P-wave (km/s) = 5.79303 4.67049 5.26178
#
# Compressibility (1/GPa) = 0.05386844
#
# Stress axis : x y z
#
# Youngs Moduli (GPa) = 65.20933 131.48876 34.14430
#
# Poissons Ratio (x) = 0.01855 -0.01032
# Poissons Ratio (y) = 0.00920 -0.02250
# Poissons Ratio (z) = -0.01971 -0.08666
#
# Static dielectric constant tensor:
#      x y z
#    x 1.920370 0.000000 0.000000 
#    y 0.000000 1.911010 0.000000 
#    z 0.000000 0.000000 1.868040 
# 
# From -- ./inp_files/12824.got.cif
#   From: 2010.05.17/outbox.cif.g08.bks.cpg/sg71_7_cif.got.tgz:12824.got - 2010.06.03 16:22:01.
