data_PCOD9520935
_publ_section_title
;
Structure prediction by ZEFSAII (Michael W. Deem and Ramdas Pophale) SiO2 
 PCOD9520935
Probable space group: I M M M
;
_chemical_formula_sum "Si O2"
_cell_formula_units_Z 120
_cell_length_a 27.104954
_cell_length_b 28.584694
_cell_length_c 9.010089
_cell_angle_alpha 90.000000
_cell_angle_beta 90.000000
_cell_angle_gamma 90.000000
_cell_volume 6980.898168
_symmetry_space_group_name_H-M "I M M M"
_symmetry_group_IT_number 71
_symmetry_cell_setting 'orthorhombic'
loop_
_space_group_symop_operation_xyz
x,y,z
-x,-y,z
x,-y,-z
-x,y,-z
-x,-y,-z
x,y,-z
-x,y,z
x,-y,z
1/2+x,1/2+y,1/2+z
1/2-x,1/2-y,1/2+z
1/2+x,1/2-y,1/2-z
1/2-x,1/2+y,1/2-z
1/2-x,1/2-y,1/2-z
1/2+x,1/2+y,1/2-z
1/2-x,1/2+y,1/2+z
1/2+x,1/2-y,1/2+z
loop_
_atom_site_type_symbol
_atom_site_label
_atom_site_fract_x
_atom_site_fract_y
_atom_site_fract_z
Si Si1 0.000000 0.055648 0.825120
Si Si2 0.701212 0.386172 0.821790
Si Si3 0.559445 0.295929 0.328381
Si Si4 0.589975 0.609761 0.176783
Si Si5 0.296041 0.053441 0.678609
Si Si6 0.755014 0.699132 0.677584
Si Si7 0.942904 0.302750 0.678168
Si Si8 0.149288 0.636995 0.677471
O O1 0.951446 0.078280 0.753312
O O2 0.000000 0.000000 0.804256
O O3 0.000000 0.066406 0.000000
O O4 0.646275 0.403146 0.785628
O O5 0.742930 0.424055 0.781831
O O6 0.715346 0.337729 0.741806
O O7 0.703419 0.378541 0.000000
O O8 0.574926 0.298856 0.500000
O O9 0.500000 0.301619 0.323143
O O10 0.582247 0.337392 0.232900
O O11 0.570468 0.245434 0.259580
O O12 0.583543 0.607423 0.000000
O O13 0.299449 0.053904 0.500000
O O14 0.335994 0.088856 0.744849
O O15 0.300547 0.000000 0.729633
O O16 0.750451 0.702643 0.500000
O O17 0.750000 0.750000 0.750000
O O18 0.808100 0.675240 0.712583
O O19 0.939466 0.295553 0.500000
O O20 0.903703 0.342296 0.719935
O O21 0.000000 0.314092 0.712844
O O22 0.150292 0.630297 0.500000
#
# Coordination Sequence:
#
# PCOD9520935 Si02
#       8
#     8  16  16  16  16  16  16  16
#     4  11  25  43  59  77 105 139 177 227 282 331
#     4   9  20  36  53  77 105 135 175 222 268 318
#     4  10  20  33  50  74 106 142 178 217 260 309
#     4  11  22  36  57  79 103 137 178 225 271 322
#     4   9  18  35  58  80 103 133 171 217 268 321
#     4  10  20  33  49  73 107 144 178 216 264 318
#     4   9  18  33  53  77 107 143 181 218 258 308
#     4   9  19  34  52  77 107 138 174 218 261 310
#
# _framework density 17.189765000000001
#
# number of rings (size 3 to 8) (size 9 to 14) (size 15 to 20)
#    0.000    2.333    0.667    1.400    1.867    4.000 
#    0.000    1.333    0.000    0.400    0.000    2.800 
#    0.000    0.000    0.000    0.000    0.000    0.000 
#
# Total GULP energy -334827.585926 kJ/mol
# GULP energy per Si atom -5580.459765 kJ/mol
# Density = 1.715064 g / cm^3
# Si number density = 17.189765 Si / 1000 Ang^3
#
#
#
# Elastic Constant Matrix: (Units=GPa)
#
#
# Indices 1 2 3 4 5 6 
#
# 1 97.9735 58.4093 46.8519 0.0000 0.0000 0.0000
# 2 58.4093 120.5857 49.4967 0.0000 0.0000 0.0000
# 3 46.8519 49.4967 43.4279 0.0000 0.0000 0.0000
# 4 0.0000 0.0000 0.0000 27.0391 0.0000 0.0000
# 5 0.0000 0.0000 0.0000 0.0000 22.4193 0.0000
# 6 0.0000 0.0000 0.0000 0.0000 0.0000 12.7505
#
#
#
# Elastic Compliance Matrix: (Units=1/GPa)
#
#
# Indices 1 2 3 4 5 6 
#
# 1 0.021260 -0.001660 -0.021045 0.000000 0.000000 0.000000
# 2 -0.001660 0.015713 -0.016118 0.000000 0.000000 0.000000
# 3 -0.021045 -0.016118 0.064101 0.000000 0.000000 0.000000
# 4 0.000000 0.000000 0.000000 0.036984 0.000000 0.000000
# 5 0.000000 0.000000 0.000000 0.000000 0.044605 0.000000
# 6 0.000000 0.000000 0.000000 0.000000 0.000000 0.078428
#
#
# Mechanical properties :
#
#
# Convention : Reuss Voigt Hill
#
# Bulk Modulus (GPa) = 42.68192 63.50033 53.09113
# Shear Modulus (GPa) = 14.42819 19.59038 17.00928
#
# Velocity S-wave (km/s) = 2.90029 3.37954 3.14905
# Velocity P-wave (km/s) = 6.00827 7.22837 6.64638
#
# Compressibility (1/GPa) = 0.02342912
#
# Stress axis : x y z
#
# Youngs Moduli (GPa) = 47.03640 63.64294 15.60048
#
# Poissons Ratio (x) = 0.10564 0.32831
# Poissons Ratio (y) = 0.07807 0.25144
# Poissons Ratio (z) = 0.98986 1.02578
#
# Static dielectric constant tensor:
#      x y z
#    x 1.592680 0.000000 0.000000 
#    y 0.000000 1.549340 0.000000 
#    z 0.000000 0.000000 1.576130 
# 
# From -- ./inp_files/15630.got.cif
#   From: 2010.05.17/outbox.cif.g08.bks.cpg/sg71_8_cif.got.tgz:15630.got - 2010.06.03 16:22:01.
