data_PCOD9520843
_publ_section_title
;
Structure prediction by ZEFSAII (Michael W. Deem and Ramdas Pophale) SiO2 
 PCOD9520843
Probable space group: I M M M
;
_chemical_formula_sum "Si O2"
_cell_formula_units_Z 96
_cell_length_a 26.291275
_cell_length_b 22.469428
_cell_length_c 7.472951
_cell_angle_alpha 90.000000
_cell_angle_beta 90.000000
_cell_angle_gamma 90.000000
_cell_volume 4414.645135
_symmetry_space_group_name_H-M "I M M M"
_symmetry_group_IT_number 71
_symmetry_cell_setting 'orthorhombic'
loop_
_space_group_symop_operation_xyz
x,y,z
-x,-y,z
x,-y,-z
-x,y,-z
-x,-y,-z
x,y,-z
-x,y,z
x,-y,z
1/2+x,1/2+y,1/2+z
1/2-x,1/2-y,1/2+z
1/2+x,1/2-y,1/2-z
1/2-x,1/2+y,1/2-z
1/2-x,1/2-y,1/2-z
1/2+x,1/2+y,1/2-z
1/2-x,1/2+y,1/2+z
1/2+x,1/2-y,1/2+z
loop_
_atom_site_type_symbol
_atom_site_label
_atom_site_fract_x
_atom_site_fract_y
_atom_site_fract_z
Si Si1 0.801941 0.500000 0.717035
Si Si2 0.054805 0.367488 0.707444
Si Si3 0.846948 0.296935 0.719669
Si Si4 0.558549 0.567667 0.218439
Si Si5 0.139742 0.836947 0.291705
Si Si6 0.579504 0.000000 0.295187
Si Si7 0.247265 0.375629 0.716491
O O1 0.804633 0.500000 0.500000
O O2 0.859533 0.500000 0.782958
O O3 0.773531 0.559964 0.772772
O O4 0.053387 0.349088 0.500000
O O5 0.105842 0.337688 0.780837
O O6 0.060577 0.438598 0.712558
O O7 0.000000 0.351137 0.788001
O O8 0.845461 0.297492 0.500000
O O9 0.856206 0.229791 0.782610
O O10 0.793439 0.325820 0.776115
O O11 0.500000 0.579913 0.269614
O O12 0.571470 0.500000 0.274587
O O13 0.598182 0.617204 0.283384
O O14 0.559978 0.567412 0.000000
O O15 0.125955 0.829350 0.500000
O O16 0.196003 0.864039 0.280365
O O17 0.563176 0.000000 0.500000
O O18 0.248348 0.374877 0.500000
#
# Coordination Sequence:
#
# PCOD9520843 Si02
#       7
#     8  16  16  16  16   8  16
#     4  10  20  37  59  76 101 142 182 220 260 317
#     4  10  20  36  58  78 102 143 190 225 259 315
#     4   9  18  34  53  76 105 138 176 218 261 304
#     4   8  15  29  48  72 105 139 164 199 258 312
#     4  10  20  32  53  82 108 133 172 222 260 308
#     4  12  23  35  54  81 112 139 173 227 280 320
#     4  10  20  35  54  74 104 140 172 211 262 319
#
# _framework density 21.745802999999999
#
# number of rings (size 3 to 8) (size 9 to 14) (size 15 to 20)
#    0.000    2.333    1.667    2.000    1.167    2.667 
#    0.000    4.167    0.000    0.500    0.000    1.167 
#    0.000    0.000    0.000    0.000    0.000    0.000 
#
# Total GULP energy -268110.668290 kJ/mol
# GULP energy per Si atom -5585.638923 kJ/mol
# Density = 2.169631 g / cm^3
# Si number density = 21.745803 Si / 1000 Ang^3
#
#
#
# Elastic Constant Matrix: (Units=GPa)
#
#
# Indices 1 2 3 4 5 6 
#
# 1 148.4521 90.1057 -7.4583 0.0000 0.0000 0.0000
# 2 90.1057 157.5764 -0.3670 0.0000 0.0000 0.0000
# 3 -7.4583 -0.3670 60.6026 0.0000 0.0000 0.0000
# 4 0.0000 0.0000 0.0000 -9.7437 0.0000 0.0000
# 5 0.0000 0.0000 0.0000 0.0000 5.5323 0.0000
# 6 0.0000 0.0000 0.0000 0.0000 0.0000 12.7989
#
#
#
# Elastic Compliance Matrix: (Units=1/GPa)
#
#
# Indices 1 2 3 4 5 6 
#
# 1 0.010410 -0.005950 0.001245 0.000000 0.000000 0.000000
# 2 -0.005950 0.009747 -0.000673 0.000000 0.000000 0.000000
# 3 0.001245 -0.000673 0.016650 0.000000 0.000000 0.000000
# 4 0.000000 0.000000 0.000000 -0.102631 0.000000 0.000000
# 5 0.000000 0.000000 0.000000 0.000000 0.180758 0.000000
# 6 0.000000 0.000000 0.000000 0.000000 0.000000 0.078132
#
#
# Mechanical properties :
#
#
# Convention : Reuss Voigt Hill
#
# Bulk Modulus (GPa) = 38.38601 59.02134 48.70367
# Shear Modulus (GPa) = 23.52880 20.67421 22.10150
#
# Velocity S-wave (km/s) = 3.29293 3.08672 3.19149
# Velocity P-wave (km/s) = 5.66995 6.31698 6.00219
#
# Compressibility (1/GPa) = 0.02605116
#
# Stress axis : x y z
#
# Youngs Moduli (GPa) = 96.06073 102.59782 60.05972
#
# Poissons Ratio (x) = 0.61044 -0.07478
# Poissons Ratio (y) = 0.57154 0.04043
# Poissons Ratio (z) = -0.11961 0.06907
#
# Static dielectric constant tensor:
#      x y z
#    x 1.758460 0.000000 0.000000 
#    y 0.000000 1.766060 0.000000 
#    z 0.000000 0.000000 1.855770 
# 
# From -- ./inp_files/12940.got.cif
#   From: 2010.05.17/outbox.cif.g08.bks.cpg/sg71_7_cif.got.tgz:12940.got - 2010.06.03 16:22:01.
