data_PCOD9520913
_publ_section_title
;
Structure prediction by ZEFSAII (Michael W. Deem and Ramdas Pophale) SiO2 
 PCOD9520913
Probable space group: I M M M
;
_chemical_formula_sum "Si O2"
_cell_formula_units_Z 80
_cell_length_a 11.103478
_cell_length_b 28.187610
_cell_length_c 13.347549
_cell_angle_alpha 90.000000
_cell_angle_beta 90.000000
_cell_angle_gamma 90.000000
_cell_volume 4177.522660
_symmetry_space_group_name_H-M "I M M M"
_symmetry_group_IT_number 71
_symmetry_cell_setting 'orthorhombic'
loop_
_space_group_symop_operation_xyz
x,y,z
-x,-y,z
x,-y,-z
-x,y,-z
-x,-y,-z
x,y,-z
-x,y,z
x,-y,z
1/2+x,1/2+y,1/2+z
1/2-x,1/2-y,1/2+z
1/2+x,1/2-y,1/2-z
1/2-x,1/2+y,1/2-z
1/2-x,1/2-y,1/2-z
1/2+x,1/2+y,1/2-z
1/2-x,1/2+y,1/2+z
1/2+x,1/2-y,1/2+z
loop_
_atom_site_type_symbol
_atom_site_label
_atom_site_fract_x
_atom_site_fract_y
_atom_site_fract_z
Si Si1 0.135252 0.266630 0.616154
Si Si2 0.859166 0.553453 0.323958
Si Si3 0.137528 0.601431 0.112821
Si Si4 0.201720 0.859849 0.889364
Si Si5 0.365413 0.662664 0.824264
O O1 0.137613 0.250771 0.500000
O O2 0.218569 0.312224 0.621462
O O3 0.160764 0.219008 0.677297
O O4 0.000000 0.282351 0.641870
O O5 0.817581 0.500000 0.344389
O O6 0.850540 0.564880 0.204736
O O7 0.785185 0.593851 0.379986
O O8 0.000000 0.556899 0.350774
O O9 0.249335 0.637649 0.125923
O O10 0.000000 0.622032 0.122872
O O11 0.144397 0.581463 0.000000
O O12 0.126799 0.858015 0.787813
O O13 0.145228 0.858947 0.000000
O O14 0.500000 0.656806 0.870583
#
# Coordination Sequence:
#
# PCOD9520913 Si02
#       5
#    16  16  16  16  16
#     4   9  17  30  50  76 104 135 171 210 257 313
#     4   9  18  32  51  77 106 135 171 216 264 312
#     4   9  18  33  54  81 111 139 167 205 257 314
#     4  10  20  33  49  71 102 139 178 219 261 303
#     4  10  20  34  53  77 107 142 177 212 252 304
#
# _framework density 19.150105
#
# number of rings (size 3 to 8) (size 9 to 14) (size 15 to 20)
#    0.000    2.600    0.000    1.800    0.000    4.400 
#    0.000    4.000    0.000   10.800    0.000   11.200 
#    0.000    0.000    0.000    0.000    0.000    0.000 
#
# Total GULP energy -222689.303353 kJ/mol
# GULP energy per Si atom -5567.232584 kJ/mol
# Density = 1.910652 g / cm^3
# Si number density = 19.150105 Si / 1000 Ang^3
#
#
#
# Elastic Constant Matrix: (Units=GPa)
#
#
# Indices 1 2 3 4 5 6 
#
# 1 70.0936 40.1125 13.7772 -0.0001 0.0000 0.0000
# 2 40.1125 87.5314 11.4628 -0.0001 0.0000 0.0000
# 3 13.7772 11.4628 84.4498 -0.0004 -0.0003 0.0005
# 4 -0.0001 -0.0001 -0.0004 7.7906 0.0000 0.0000
# 5 0.0000 0.0000 -0.0003 0.0000 1.9011 -0.0001
# 6 0.0000 0.0000 0.0005 0.0000 -0.0001 36.3924
#
#
#
# Elastic Compliance Matrix: (Units=1/GPa)
#
#
# Indices 1 2 3 4 5 6 
#
# 1 0.019671 -0.008750 -0.002022 0.000000 0.000000 0.000000
# 2 -0.008750 0.015523 -0.000680 0.000000 0.000000 0.000000
# 3 -0.002022 -0.000680 0.012263 0.000001 0.000002 0.000000
# 4 0.000000 0.000000 0.000001 0.128359 0.000000 0.000000
# 5 0.000000 0.000000 0.000002 0.000000 0.526022 0.000001
# 6 0.000000 0.000000 0.000000 0.000000 0.000001 0.027478
#
#
# Mechanical properties :
#
#
# Convention : Reuss Voigt Hill
#
# Bulk Modulus (GPa) = 40.72343 41.41999 41.07171
# Shear Modulus (GPa) = 6.57544 20.99830 13.78687
#
# Velocity S-wave (km/s) = 1.85502 3.31495 2.68608
# Velocity P-wave (km/s) = 5.08917 6.02727 5.57798
#
# Compressibility (1/GPa) = 0.02455589
#
# Stress axis : x y z
#
# Youngs Moduli (GPa) = 50.83546 64.41954 81.54347
#
# Poissons Ratio (x) = 0.56367 0.16484
# Poissons Ratio (y) = 0.44481 0.05542
# Poissons Ratio (z) = 0.10277 0.04378
#
# Static dielectric constant tensor:
#      x y z
#    x 1.687380 0.000000 0.000000 
#    y 0.000000 1.623430 0.000000 
#    z 0.000000 0.000000 1.715980 
# 
# From -- ./inp_files/21882.got.cif
#   From: 2010.05.17/outbox.cif.g08.bks.cpg/sg71_11_cif.got.tgz:21882.got - 2010.06.03 16:22:01.
