data_PCOD9520033
_publ_section_title
;
Structure prediction by ZEFSAII (Michael W. Deem and Ramdas Pophale) SiO2 
 PCOD9520033
Probable space group: I M M M
;
_chemical_formula_sum "Si O2"
_cell_formula_units_Z 96
_cell_length_a 15.979325
_cell_length_b 29.433436
_cell_length_c 12.752793
_cell_angle_alpha 90.000000
_cell_angle_beta 90.000000
_cell_angle_gamma 90.000000
_cell_volume 5997.975728
_symmetry_space_group_name_H-M "I M M M"
_symmetry_group_IT_number 71
_symmetry_cell_setting 'orthorhombic'
loop_
_space_group_symop_operation_xyz
x,y,z
-x,-y,z
x,-y,-z
-x,y,-z
-x,-y,-z
x,y,-z
-x,y,z
x,-y,z
1/2+x,1/2+y,1/2+z
1/2-x,1/2-y,1/2+z
1/2+x,1/2-y,1/2-z
1/2-x,1/2+y,1/2-z
1/2-x,1/2-y,1/2-z
1/2+x,1/2+y,1/2-z
1/2-x,1/2+y,1/2+z
1/2+x,1/2-y,1/2+z
loop_
_atom_site_type_symbol
_atom_site_label
_atom_site_fract_x
_atom_site_fract_y
_atom_site_fract_z
Si Si1 0.671721 0.732149 0.378457
Si Si2 0.500000 0.781352 0.627302
Si Si3 0.282990 0.681863 0.824147
Si Si4 0.206051 0.051488 0.500000
Si Si5 0.000000 0.616809 0.122195
Si Si6 0.596525 0.945325 0.878584
Si Si7 0.180168 0.589726 0.181896
Si Si8 0.599838 0.357709 0.000000
O O1 0.666980 0.717752 0.500000
O O2 0.583929 0.754764 0.344268
O O3 0.692598 0.693213 0.295133
O O4 0.739791 0.772554 0.368385
O O5 0.500000 0.782597 0.500000
O O6 0.500000 0.832587 0.671887
O O7 0.217309 0.640419 0.826882
O O8 0.359374 0.666729 0.898349
O O9 0.263426 0.060138 0.396696
O O10 0.135591 0.090660 0.500000
O O11 0.174624 0.000000 0.500000
O O12 0.915372 0.590418 0.144256
O O13 0.000000 0.625929 0.000000
O O14 0.500000 0.930346 0.853802
O O15 0.667207 0.926228 0.801203
O O16 0.596701 0.000000 0.869742
O O17 0.611666 0.933430 0.000000
O O18 0.500000 0.356181 0.000000
#
# Coordination Sequence:
#
# PCOD9520033 Si02
#       8
#    16   8  16   8   8  16  16   8
#     4  10  19  34  50  75 103 135 171 211 250 294
#     4   9  18  28  52  70  97 133 169 200 246 304
#     4  10  21  33  52  74 102 133 172 215 255 300
#     4  10  22  36  54  80 103 127 166 214 266 317
#     4  11  18  28  45  72 102 136 163 193 249 312
#     4   9  18  31  46  66  96 135 172 200 236 298
#     4  11  19  32  50  73 102 131 163 211 255 300
#     4  10  22  39  57  75 102 138 171 211 265 314
#
# _framework density 16.005400000000002
#
# number of rings (size 3 to 8) (size 9 to 14) (size 15 to 20)
#    0.000    2.000    4.167    1.000    1.167    0.833 
#    0.000    0.417    0.000    0.000    2.167    0.000 
#    0.000    0.000    0.000   17.667    0.000    0.000 
#
# Total GULP energy -267393.847940 kJ/mol
# GULP energy per Si atom -5570.705165 kJ/mol
# Density = 1.596897 g / cm^3
# Si number density = 16.005400 Si / 1000 Ang^3
#
#
#
# Elastic Constant Matrix: (Units=GPa)
#
#
# Indices 1 2 3 4 5 6 
#
# 1 98.2942 19.2696 28.5261 0.0000 0.0000 0.0000
# 2 19.2696 50.9335 21.0737 0.0000 0.0000 0.0000
# 3 28.5261 21.0737 91.9719 0.0000 0.0000 0.0000
# 4 0.0000 0.0000 0.0000 22.3513 0.0000 0.0000
# 5 0.0000 0.0000 0.0000 0.0000 18.5676 0.0000
# 6 0.0000 0.0000 0.0000 0.0000 0.0000 4.7765
#
#
#
# Elastic Compliance Matrix: (Units=1/GPa)
#
#
# Indices 1 2 3 4 5 6 
#
# 1 0.011637 -0.003214 -0.002873 0.000000 0.000000 0.000000
# 2 -0.003214 0.022577 -0.004176 0.000000 0.000000 0.000000
# 3 -0.002873 -0.004176 0.012721 0.000000 0.000000 0.000000
# 4 0.000000 0.000000 0.000000 0.044740 0.000000 0.000000
# 5 0.000000 0.000000 0.000000 0.000000 0.053857 0.000000
# 6 0.000000 0.000000 0.000000 0.000000 0.000000 0.209357
#
#
# Mechanical properties :
#
#
# Convention : Reuss Voigt Hill
#
# Bulk Modulus (GPa) = 37.86603 42.10426 39.98515
# Shear Modulus (GPa) = 13.01338 20.62776 16.82057
#
# Velocity S-wave (km/s) = 2.85452 3.59388 3.24532
# Velocity P-wave (km/s) = 5.87997 6.60187 6.25135
#
# Compressibility (1/GPa) = 0.02640890
#
# Stress axis : x y z
#
# Youngs Moduli (GPa) = 85.92979 44.29217 78.61073
#
# Poissons Ratio (x) = 0.14236 0.22585
# Poissons Ratio (y) = 0.27618 0.32830
# Poissons Ratio (z) = 0.24688 0.18498
#
# Static dielectric constant tensor:
#      x y z
#    x 1.519200 0.000000 0.000000 
#    y 0.000000 1.539650 0.000000 
#    z 0.000000 0.000000 1.560860 
# 
# From -- ./inp_files/22662.got.cif
#   From: 2010.05.17/outbox.cif.g08.bks.cpg/sg71_12_cif.got.tgz:22662.got - 2010.06.03 16:22:01.
