data_PCOD9520442
_publ_section_title
;
Structure prediction by ZEFSAII (Michael W. Deem and Ramdas Pophale) SiO2 
 PCOD9520442
Probable space group: I M M M
;
_chemical_formula_sum "Si O2"
_cell_formula_units_Z 76
_cell_length_a 7.464213
_cell_length_b 26.068180
_cell_length_c 18.445327
_cell_angle_alpha 90.000000
_cell_angle_beta 90.000000
_cell_angle_gamma 90.000000
_cell_volume 3589.063101
_symmetry_space_group_name_H-M "I M M M"
_symmetry_group_IT_number 71
_symmetry_cell_setting 'orthorhombic'
loop_
_space_group_symop_operation_xyz
x,y,z
-x,-y,z
x,-y,-z
-x,y,-z
-x,-y,-z
x,y,-z
-x,y,z
x,-y,z
1/2+x,1/2+y,1/2+z
1/2-x,1/2-y,1/2+z
1/2+x,1/2-y,1/2-z
1/2-x,1/2+y,1/2-z
1/2-x,1/2-y,1/2-z
1/2+x,1/2+y,1/2-z
1/2-x,1/2+y,1/2+z
1/2+x,1/2-y,1/2+z
loop_
_atom_site_type_symbol
_atom_site_label
_atom_site_fract_x
_atom_site_fract_y
_atom_site_fract_z
Si Si1 0.797358 0.661334 0.725702
Si Si2 0.283221 0.790001 0.078719
Si Si3 0.204774 0.562193 0.500000
Si Si4 0.292921 0.558264 0.337976
Si Si5 0.000000 0.867332 0.500000
Si Si6 0.286984 0.827930 0.611237
O O1 0.712834 0.685240 0.653095
O O2 0.799979 0.600621 0.710625
O O3 0.723281 0.672068 0.804944
O O4 0.000000 0.681835 0.728748
O O5 0.500000 0.795799 0.078815
O O6 0.238518 0.729946 0.082396
O O7 0.221063 0.810396 0.000000
O O8 0.211150 0.500000 0.500000
O O9 0.283162 0.575875 0.422133
O O10 0.000000 0.579757 0.500000
O O11 0.500000 0.556940 0.317003
O O12 0.221149 0.500000 0.333785
O O13 0.841612 0.862843 0.436993
O O14 0.500000 0.841091 0.608134
#
# Coordination Sequence:
#
# PCOD9520442 Si02
#       6
#    16  16   8  16   4  16
#     4  10  23  36  56  88 120 153 197 245 290 348
#     4  10  19  36  57  83 121 160 196 239 289 342
#     4   9  17  31  52  73 101 145 193 237 282 333
#     4  10  21  36  54  79 114 154 197 244 294 348
#     4  12  22  40  66  82 119 158 193 248 294 358
#     4  11  22  39  61  89 118 156 200 241 296 355
#
# _framework density 21.175443000000001
#
# number of rings (size 3 to 8) (size 9 to 14) (size 15 to 20)
#    0.000    1.789    2.105    1.895    2.947    3.368 
#    0.000    0.000    0.000    0.000    0.000    1.474 
#    0.000    3.368    0.000    0.000    0.000    0.000 
#
# Total GULP energy -211584.059284 kJ/mol
# GULP energy per Si atom -5568.001560 kJ/mol
# Density = 2.112725 g / cm^3
# Si number density = 21.175443 Si / 1000 Ang^3
#
#
#
# Elastic Constant Matrix: (Units=GPa)
#
#
# Indices 1 2 3 4 5 6 
#
# 1 97.8187 -14.2394 26.2135 0.0000 0.0000 0.0000
# 2 -14.2394 35.8178 24.8527 0.0000 0.0000 0.0000
# 3 26.2135 24.8527 192.5813 0.0001 0.0000 0.0000
# 4 0.0000 0.0000 0.0001 -98.6266 0.0000 0.0000
# 5 0.0000 0.0000 0.0000 0.0000 27.4793 0.0000
# 6 0.0000 0.0000 0.0000 0.0000 0.0000 11.8993
#
#
#
# Elastic Compliance Matrix: (Units=1/GPa)
#
#
# Indices 1 2 3 4 5 6 
#
# 1 0.011803 0.006378 -0.002430 0.000000 0.000000 0.000000
# 2 0.006378 0.034111 -0.005270 0.000000 0.000000 0.000000
# 3 -0.002430 -0.005270 0.006203 0.000000 0.000000 0.000000
# 4 0.000000 0.000000 0.000000 -0.010139 0.000000 0.000000
# 5 0.000000 0.000000 0.000000 0.000000 0.036391 0.000000
# 6 0.000000 0.000000 0.000000 0.000000 0.000000 0.084039
#
#
# Mechanical properties :
#
#
# Convention : Reuss Voigt Hill
#
# Bulk Modulus (GPa) = 20.21280 44.43015 32.32148
# Shear Modulus (GPa) = 27.54169 7.44312 17.49241
#
# Velocity S-wave (km/s) = 3.61036 1.87686 2.87726
# Velocity P-wave (km/s) = 5.19092 5.07191 5.13176
#
# Compressibility (1/GPa) = 0.04947360
#
# Stress axis : x y z
#
# Youngs Moduli (GPa) = 84.72777 29.31564 161.20069
#
# Poissons Ratio (x) = -0.18697 0.39165
# Poissons Ratio (y) = -0.54039 0.84957
# Poissons Ratio (z) = 0.20585 0.15450
#
# Static dielectric constant tensor:
#      x y z
#    x 1.795760 0.000000 0.000000 
#    y 0.000000 1.769120 0.000000 
#    z 0.000000 0.000000 1.787590 
# 
# From -- ./inp_files/42257.got.cif
#   From: 2010.05.17/outbox.cif.g08.bks.cpg/sg71_22_cif.got.tgz:42257.got - 2010.06.03 16:22:01.
