data_PCOD9520613
_publ_section_title
;
Structure prediction by ZEFSAII (Michael W. Deem and Ramdas Pophale) SiO2 
 PCOD9520613
Probable space group: I M M M
;
_chemical_formula_sum "Si O2"
_cell_formula_units_Z 96
_cell_length_a 28.181706
_cell_length_b 15.464070
_cell_length_c 12.985947
_cell_angle_alpha 90.000000
_cell_angle_beta 90.000000
_cell_angle_gamma 90.000000
_cell_volume 5659.326014
_symmetry_space_group_name_H-M "I M M M"
_symmetry_group_IT_number 71
_symmetry_cell_setting 'orthorhombic'
loop_
_space_group_symop_operation_xyz
x,y,z
-x,-y,z
x,-y,-z
-x,y,-z
-x,-y,-z
x,y,-z
-x,y,z
x,-y,z
1/2+x,1/2+y,1/2+z
1/2-x,1/2-y,1/2+z
1/2+x,1/2-y,1/2-z
1/2-x,1/2+y,1/2-z
1/2-x,1/2-y,1/2-z
1/2+x,1/2+y,1/2-z
1/2-x,1/2+y,1/2+z
1/2+x,1/2-y,1/2+z
loop_
_atom_site_type_symbol
_atom_site_label
_atom_site_fract_x
_atom_site_fract_y
_atom_site_fract_z
Si Si1 0.908788 0.000000 0.121251
Si Si2 0.442609 0.900381 0.500000
Si Si3 0.311200 0.500000 0.739300
Si Si4 0.052643 0.136831 0.724604
Si Si5 0.287345 0.000000 0.121621
Si Si6 0.137477 0.349951 0.621893
Si Si7 0.945611 0.660166 0.774851
Si Si8 0.850645 0.852370 0.380601
O O1 0.933436 0.918303 0.175571
O O2 0.853722 0.000000 0.155538
O O3 0.914142 0.000000 0.000000
O O4 0.500000 0.897740 0.500000
O O5 0.428687 0.857933 0.608512
O O6 0.427337 0.000000 0.500000
O O7 0.260234 0.500000 0.687231
O O8 0.319787 0.414928 0.809130
O O9 0.052551 0.237330 0.754899
O O10 0.094483 0.122917 0.642761
O O11 0.000000 0.113286 0.688267
O O12 0.319945 0.083880 0.141805
O O13 0.275556 0.000000 0.000000
O O14 0.125278 0.354513 0.500000
O O15 0.092205 0.373678 0.691936
O O16 0.152491 0.250270 0.643117
O O17 0.000000 0.626684 0.763147
O O18 0.839393 0.865459 0.500000
#
# Coordination Sequence:
#
# PCOD9520613 Si02
#       8
#     8   8   8  16   8  16  16  16
#     4  10  20  31  46  68  98 132 170 212 249 292
#     4   9  18  30  46  67  93 139 183 208 242 288
#     4  10  20  35  55  75  96 130 170 212 255 312
#     4   9  18  30  46  75 105 135 170 202 243 292
#     4  10  21  37  57  77  99 130 167 214 264 309
#     4   9  19  35  55  80 106 134 168 210 260 303
#     4   9  18  32  51  74 105 140 174 207 244 300
#     4   9  18  34  55  77 104 135 165 204 251 303
#
# _framework density 16.963151
#
# number of rings (size 3 to 8) (size 9 to 14) (size 15 to 20)
#    0.000    2.750    0.000    0.750    2.333    2.000 
#    0.000    3.333    3.667    4.500    0.000    0.000 
#    0.000    0.000    0.000    0.000    0.000    0.000 
#
# Total GULP energy -267489.078005 kJ/mol
# GULP energy per Si atom -5572.689125 kJ/mol
# Density = 1.692454 g / cm^3
# Si number density = 16.963151 Si / 1000 Ang^3
#
#
#
# Elastic Constant Matrix: (Units=GPa)
#
#
# Indices 1 2 3 4 5 6 
#
# 1 125.4072 53.1671 62.5761 0.0000 0.0000 0.0000
# 2 53.1671 56.3670 33.1967 0.0000 0.0000 0.0000
# 3 62.5761 33.1967 66.2228 0.0000 0.0000 0.0000
# 4 0.0000 0.0000 0.0000 11.2367 0.0000 0.0000
# 5 0.0000 0.0000 0.0000 0.0000 22.8052 0.0000
# 6 0.0000 0.0000 0.0000 0.0000 0.0000 15.1537
#
#
#
# Elastic Compliance Matrix: (Units=1/GPa)
#
#
# Indices 1 2 3 4 5 6 
#
# 1 0.018411 -0.010102 -0.012333 0.000000 0.000000 0.000000
# 2 -0.010102 0.030716 -0.005851 0.000000 0.000000 0.000000
# 3 -0.012333 -0.005851 0.029687 0.000000 0.000000 0.000000
# 4 0.000000 0.000000 0.000000 0.088994 0.000000 0.000000
# 5 0.000000 0.000000 0.000000 0.000000 0.043850 0.000000
# 6 0.000000 0.000000 0.000000 0.000000 0.000000 0.065991
#
#
# Mechanical properties :
#
#
# Convention : Reuss Voigt Hill
#
# Bulk Modulus (GPa) = 44.96208 60.65296 52.80752
# Shear Modulus (GPa) = 14.63549 16.44293 15.53921
#
# Velocity S-wave (km/s) = 2.94050 3.11679 3.02993
# Velocity P-wave (km/s) = 6.17187 6.98469 6.59082
#
# Compressibility (1/GPa) = 0.02224097
#
# Stress axis : x y z
#
# Youngs Moduli (GPa) = 54.31574 32.55643 33.68425
#
# Poissons Ratio (x) = 0.32890 0.41542
# Poissons Ratio (y) = 0.54872 0.19710
# Poissons Ratio (z) = 0.66987 0.19050
#
# Static dielectric constant tensor:
#      x y z
#    x 1.560890 0.000000 0.000000 
#    y 0.000000 1.588750 0.000000 
#    z 0.000000 0.000000 1.550670 
# 
# From -- ./inp_files/30012.got.cif
#   From: 2010.05.17/outbox.cif.g08.bks.cpg/sg71_16_cif.got.tgz:30012.got - 2010.06.03 16:22:01.
