data_PCOD9520720
_publ_section_title
;
Structure prediction by ZEFSAII (Michael W. Deem and Ramdas Pophale) SiO2 
 PCOD9520720
Probable space group: I M M M
;
_chemical_formula_sum "Si O2"
_cell_formula_units_Z 104
_cell_length_a 9.551864
_cell_length_b 23.156719
_cell_length_c 28.115236
_cell_angle_alpha 90.000000
_cell_angle_beta 90.000000
_cell_angle_gamma 90.000000
_cell_volume 6218.804287
_symmetry_space_group_name_H-M "I M M M"
_symmetry_group_IT_number 71
_symmetry_cell_setting 'orthorhombic'
loop_
_space_group_symop_operation_xyz
x,y,z
-x,-y,z
x,-y,-z
-x,y,-z
-x,-y,-z
x,y,-z
-x,y,z
x,-y,z
1/2+x,1/2+y,1/2+z
1/2-x,1/2-y,1/2+z
1/2+x,1/2-y,1/2-z
1/2-x,1/2+y,1/2-z
1/2-x,1/2-y,1/2-z
1/2+x,1/2+y,1/2-z
1/2-x,1/2+y,1/2+z
1/2+x,1/2-y,1/2+z
loop_
_atom_site_type_symbol
_atom_site_label
_atom_site_fract_x
_atom_site_fract_y
_atom_site_fract_z
Si Si1 0.337738 0.430615 0.909817
Si Si2 0.335969 0.759685 0.798678
Si Si3 0.659784 0.929527 0.500000
Si Si4 0.336512 0.629325 0.813534
Si Si5 0.833337 0.629191 0.638898
Si Si6 0.667942 0.567994 0.555805
Si Si7 0.165996 0.565538 0.735069
O O1 0.500000 0.413766 0.917395
O O2 0.333302 0.500000 0.907917
O O3 0.289808 0.405593 0.859725
O O4 0.242429 0.410885 0.953202
O O5 0.500000 0.771226 0.786797
O O6 0.250000 0.750000 0.750000
O O7 0.326828 0.697284 0.823289
O O8 0.291030 0.811053 0.834195
O O9 0.500000 0.910421 0.500000
O O10 0.660476 0.000000 0.500000
O O11 0.500000 0.615766 0.804419
O O12 0.247659 0.609722 0.768409
O O13 0.748914 0.609232 0.592525
O O14 0.812200 0.581318 0.680064
O O15 0.000000 0.633003 0.628506
O O16 0.700078 0.579676 0.500000
O O17 0.500000 0.574143 0.561754
O O18 0.702163 0.500000 0.564711
O O19 0.210769 0.500000 0.745211
O O20 0.000000 0.570367 0.744165
#
# Coordination Sequence:
#
# PCOD9520720 Si02
#       7
#    16  16   8  16  16  16  16
#     4   9  17  30  48  70  97 127 159 199 249 299
#     4  10  20  35  54  75 101 135 176 215 249 294
#     4   9  17  29  47  71  95 121 157 197 238 291
#     4  10  20  33  51  74  99 131 172 213 251 295
#     4  10  20  34  53  77 106 140 177 214 257 313
#     4   9  19  36  57  82 110 138 173 220 271 321
#     4  10  20  32  47  72 107 140 167 203 254 307
#
# _framework density 16.723472999999998
#
# number of rings (size 3 to 8) (size 9 to 14) (size 15 to 20)
#    0.000    2.385    1.538    1.615    0.000    4.923 
#    0.000    2.308    1.692    0.000    0.000    0.000 
#    0.000    0.000    0.000    0.000    0.000    0.000 
#
# Total GULP energy -289806.672698 kJ/mol
# GULP energy per Si atom -5573.205244 kJ/mol
# Density = 1.668541 g / cm^3
# Si number density = 16.723473 Si / 1000 Ang^3
#
#
#
# Elastic Constant Matrix: (Units=GPa)
#
#
# Indices 1 2 3 4 5 6 
#
# 1 47.0474 28.3281 58.4688 0.0000 0.0000 0.0000
# 2 28.3281 71.6298 40.5236 0.0000 0.0000 0.0000
# 3 58.4688 40.5236 118.3002 0.0000 0.0000 0.0000
# 4 0.0000 0.0000 0.0000 20.8610 0.0000 0.0000
# 5 0.0000 0.0000 0.0000 0.0000 25.2449 0.0000
# 6 0.0000 0.0000 0.0000 0.0000 0.0000 21.2935
#
#
#
# Elastic Compliance Matrix: (Units=1/GPa)
#
#
# Indices 1 2 3 4 5 6 
#
# 1 0.058973 -0.008476 -0.026244 0.000000 0.000000 0.000000
# 2 -0.008476 0.018535 -0.002160 0.000000 0.000000 0.000000
# 3 -0.026244 -0.002160 0.022164 0.000000 0.000000 0.000000
# 4 0.000000 0.000000 0.000000 0.047936 0.000000 0.000000
# 5 0.000000 0.000000 0.000000 0.000000 0.039612 0.000000
# 6 0.000000 0.000000 0.000000 0.000000 0.000000 0.046963
#
#
# Mechanical properties :
#
#
# Convention : Reuss Voigt Hill
#
# Bulk Modulus (GPa) = 38.59089 54.62425 46.60757
# Shear Modulus (GPa) = 15.79389 20.79035 18.29212
#
# Velocity S-wave (km/s) = 3.07647 3.52971 3.31085
# Velocity P-wave (km/s) = 5.97875 7.02466 6.52271
#
# Compressibility (1/GPa) = 0.02591285
#
# Stress axis : x y z
#
# Youngs Moduli (GPa) = 16.95689 53.95317 45.11903
#
# Poissons Ratio (x) = 0.45729 1.18408
# Poissons Ratio (y) = 0.14372 0.09746
# Poissons Ratio (z) = 0.44501 0.11654
#
# Static dielectric constant tensor:
#      x y z
#    x 1.564810 0.000000 0.000000 
#    y 0.000000 1.573900 0.000000 
#    z 0.000000 0.000000 1.546300 
# 
# From -- ./inp_files/61986.got.cif
#   From: 2010.05.17/outbox.cif.g08.bks.cpg/sg71_31_cif.got.tgz:61986.got - 2010.06.03 16:22:01.
