data_PCOD9520229
_publ_section_title
;
Structure prediction by ZEFSAII (Michael W. Deem and Ramdas Pophale) SiO2 
 PCOD9520229
Probable space group: I M M M
;
_chemical_formula_sum "Si O2"
_cell_formula_units_Z 80
_cell_length_a 11.355155
_cell_length_b 11.886130
_cell_length_c 34.522962
_cell_angle_alpha 90.000000
_cell_angle_beta 90.000000
_cell_angle_gamma 90.000000
_cell_volume 4659.524428
_symmetry_space_group_name_H-M "I M M M"
_symmetry_group_IT_number 71
_symmetry_cell_setting 'orthorhombic'
loop_
_space_group_symop_operation_xyz
x,y,z
-x,-y,z
x,-y,-z
-x,y,-z
-x,-y,-z
x,y,-z
-x,y,z
x,-y,z
1/2+x,1/2+y,1/2+z
1/2-x,1/2-y,1/2+z
1/2+x,1/2-y,1/2-z
1/2-x,1/2+y,1/2-z
1/2-x,1/2-y,1/2-z
1/2+x,1/2+y,1/2-z
1/2-x,1/2+y,1/2+z
1/2+x,1/2-y,1/2+z
loop_
_atom_site_type_symbol
_atom_site_label
_atom_site_fract_x
_atom_site_fract_y
_atom_site_fract_z
Si Si1 0.781820 0.282297 0.682739
Si Si2 0.857727 0.367299 0.120581
Si Si3 0.364574 0.000000 0.137767
Si Si4 0.639227 0.500000 0.579660
Si Si5 0.640228 0.255125 0.457110
Si Si6 0.634089 0.376864 0.245701
O O1 0.706278 0.211977 0.651674
O O2 0.847830 0.386553 0.662939
O O3 0.700721 0.329321 0.717251
O O4 0.860814 0.196543 0.707049
O O5 0.832773 0.500000 0.125660
O O6 0.818412 0.323378 0.078096
O O7 0.000000 0.352589 0.123619
O O8 0.248221 0.000000 0.109901
O O9 0.500000 0.000000 0.121700
O O10 0.500000 0.500000 0.594354
O O11 0.652990 0.614245 0.555050
O O12 0.690453 0.234600 0.500000
O O13 0.500000 0.234919 0.459396
O O14 0.500000 0.384826 0.257713
O O15 0.683799 0.500000 0.236665
#
# Coordination Sequence:
#
# PCOD9520229 Si02
#       6
#    16  16   8   8  16  16
#     4  11  21  37  54  77 109 149 181 230 280 339
#     4  10  20  33  52  81 115 150 190 235 284 338
#     4  12  24  37  57  87 118 152 190 234 287 343
#     4  10  19  34  58  86 114 150 190 236 288 339
#     4   9  17  30  52  83 115 146 185 234 286 339
#     4  10  21  36  56  78 101 136 186 234 276 329
#
# _framework density 17.169134
#
# number of rings (size 3 to 8) (size 9 to 14) (size 15 to 20)
#    0.000    1.800    3.000    2.100    0.000    2.400 
#    0.000    2.000    0.000    1.200    0.000    0.000 
#    0.000    1.600    0.000    0.000    0.000    0.000 
#
# Total GULP energy -222706.731060 kJ/mol
# GULP energy per Si atom -5567.668277 kJ/mol
# Density = 1.713006 g / cm^3
# Si number density = 17.169134 Si / 1000 Ang^3
#
#
#
# Elastic Constant Matrix: (Units=GPa)
#
#
# Indices 1 2 3 4 5 6 
#
# 1 64.5678 26.4365 37.8457 0.0000 0.0000 0.0000
# 2 26.4365 110.3474 38.0797 0.0000 0.0000 0.0000
# 3 37.8457 38.0797 84.7233 0.0000 0.0000 0.0000
# 4 0.0000 0.0000 0.0000 14.2335 0.0000 0.0000
# 5 0.0000 0.0000 0.0000 0.0000 -68.4506 0.0000
# 6 0.0000 0.0000 0.0000 0.0000 0.0000 15.9174
#
#
#
# Elastic Compliance Matrix: (Units=1/GPa)
#
#
# Indices 1 2 3 4 5 6 
#
# 1 0.021409 -0.002165 -0.008590 0.000000 0.000000 0.000000
# 2 -0.002165 0.010945 -0.003952 0.000000 0.000000 0.000000
# 3 -0.008590 -0.003952 0.017417 0.000000 0.000000 0.000000
# 4 0.000000 0.000000 0.000000 0.070257 0.000000 0.000000
# 5 0.000000 0.000000 0.000000 0.000000 -0.014609 0.000000
# 6 0.000000 0.000000 0.000000 0.000000 0.000000 0.062824
#
#
# Mechanical properties :
#
#
# Convention : Reuss Voigt Hill
#
# Bulk Modulus (GPa) = 49.12571 51.59583 50.36077
# Shear Modulus (GPa) = 24.45672 2.82516 13.64094
#
# Velocity S-wave (km/s) = 3.77829 1.28416 2.82175
# Velocity P-wave (km/s) = 6.90717 5.68467 6.32552
#
# Compressibility (1/GPa) = 0.02035594
#
# Stress axis : x y z
#
# Youngs Moduli (GPa) = 46.70911 91.36784 57.41554
#
# Poissons Ratio (x) = 0.19778 0.49323
# Poissons Ratio (y) = 0.10111 0.22692
# Poissons Ratio (z) = 0.40125 0.36111
#
# Static dielectric constant tensor:
#      x y z
#    x 1.584290 0.000000 0.000000 
#    y 0.000000 1.619460 0.000000 
#    z 0.000000 0.000000 1.582220 
# 
# From -- ./inp_files/69006.got.cif
#   From: 2010.05.17/outbox.cif.g08.bks.cpg/sg71_35_cif.got.tgz:69006.got - 2010.06.03 16:22:01.
