data_PCOD9520806
_publ_section_title
;
Structure prediction by ZEFSAII (Michael W. Deem and Ramdas Pophale) SiO2 
 PCOD9520806
Probable space group: I M M M
;
_chemical_formula_sum "Si O2"
_cell_formula_units_Z 104
_cell_length_a 20.840871
_cell_length_b 15.426752
_cell_length_c 14.865315
_cell_angle_alpha 90.000000
_cell_angle_beta 90.000000
_cell_angle_gamma 90.000000
_cell_volume 4779.302062
_symmetry_space_group_name_H-M "I M M M"
_symmetry_group_IT_number 71
_symmetry_cell_setting 'orthorhombic'
loop_
_space_group_symop_operation_xyz
x,y,z
-x,-y,z
x,-y,-z
-x,y,-z
-x,-y,-z
x,y,-z
-x,y,z
x,-y,z
1/2+x,1/2+y,1/2+z
1/2-x,1/2-y,1/2+z
1/2+x,1/2-y,1/2-z
1/2-x,1/2+y,1/2-z
1/2-x,1/2-y,1/2-z
1/2+x,1/2+y,1/2-z
1/2-x,1/2+y,1/2+z
1/2+x,1/2-y,1/2+z
loop_
_atom_site_type_symbol
_atom_site_label
_atom_site_fract_x
_atom_site_fract_y
_atom_site_fract_z
Si Si1 0.861903 0.597451 0.389488
Si Si2 0.163845 0.258385 0.107436
Si Si3 0.572342 0.599364 0.361513
Si Si4 0.805854 0.775405 0.391976
Si Si5 0.573369 0.906132 0.609954
Si Si6 0.427528 0.599998 0.853787
Si Si7 0.000000 0.604658 0.601233
O O1 0.865663 0.595072 0.500000
O O2 0.845103 0.500000 0.361380
O O3 0.817792 0.676153 0.363972
O O4 0.932571 0.623979 0.355331
O O5 0.131315 0.163836 0.118283
O O6 0.233449 0.288588 0.142570
O O7 0.112843 0.326166 0.144928
O O8 0.167571 0.269631 0.000000
O O9 0.500000 0.627719 0.392862
O O10 0.582600 0.500000 0.392852
O O11 0.568751 0.596512 0.253865
O O12 0.803108 0.776834 0.500000
O O13 0.866397 0.837913 0.371865
O O14 0.572869 0.903586 0.500000
O O15 0.500000 0.901569 0.639090
O O16 0.600218 0.000000 0.636086
O O17 0.500000 0.627719 0.885329
O O18 0.417022 0.500000 0.885577
O O19 0.000000 0.500000 0.592716
O O20 0.000000 0.642350 0.500000
#
# Coordination Sequence:
#
# PCOD9520806 Si02
#       7
#    16  16  16  16  16  16   8
#     4   8  14  25  40  61  92 127 161 197 241 297
#     4  10  20  32  49  80 114 137 165 211 265 323
#     4   9  19  37  59  79 102 139 184 226 271 322
#     4  10  21  32  48  78 109 139 173 213 267 322
#     4   8  14  26  45  68  95 129 164 197 241 299
#     4   9  20  39  58  75  99 137 188 238 276 313
#     4   7  10  18  34  54  75 107 151 191 225 266
#
# _framework density 21.7605
#
# number of rings (size 3 to 8) (size 9 to 14) (size 15 to 20)
#    0.000    3.154    0.000    2.769    1.077    3.692 
#    0.000    4.615    0.000    0.923    0.000    2.154 
#    0.000    0.000    0.000    0.000    0.000    0.000 
#
# Total GULP energy -289536.450959 kJ/mol
# GULP energy per Si atom -5568.008672 kJ/mol
# Density = 2.171097 g / cm^3
# Si number density = 21.760500 Si / 1000 Ang^3
#
#
#
# Elastic Constant Matrix: (Units=GPa)
#
#
# Indices 1 2 3 4 5 6 
#
# 1 136.4514 84.6210 10.6364 0.0000 0.0000 0.0000
# 2 84.6210 117.7909 3.7294 0.0000 0.0000 0.0000
# 3 10.6364 3.7294 49.6498 0.0000 0.0000 0.0000
# 4 0.0000 0.0000 0.0000 19.1555 0.0000 0.0000
# 5 0.0000 0.0000 0.0000 0.0000 18.9215 0.0000
# 6 0.0000 0.0000 0.0000 0.0000 0.0000 -23.2529
#
#
#
# Elastic Compliance Matrix: (Units=1/GPa)
#
#
# Indices 1 2 3 4 5 6 
#
# 1 0.013444 -0.009590 -0.002160 0.000000 0.000000 0.000000
# 2 -0.009590 0.015351 0.000901 0.000000 0.000000 0.000000
# 3 -0.002160 0.000901 0.020536 0.000000 0.000000 0.000000
# 4 0.000000 0.000000 0.000000 0.052204 0.000000 0.000000
# 5 0.000000 0.000000 0.000000 0.000000 0.052850 0.000000
# 6 0.000000 0.000000 0.000000 0.000000 0.000000 -0.043005
#
#
# Mechanical properties :
#
#
# Convention : Reuss Voigt Hill
#
# Bulk Modulus (GPa) = 36.18716 55.76286 45.97501
# Shear Modulus (GPa) = 35.14007 16.62517 25.88262
#
# Velocity S-wave (km/s) = 4.02289 2.76707 3.45256
# Velocity P-wave (km/s) = 6.18417 5.99085 6.08828
#
# Compressibility (1/GPa) = 0.02763411
#
# Stress axis : x y z
#
# Youngs Moduli (GPa) = 74.38133 65.14442 48.69481
#
# Poissons Ratio (x) = 0.62473 0.10517
# Poissons Ratio (y) = 0.71331 -0.04389
# Poissons Ratio (z) = 0.16065 -0.05872
#
# Static dielectric constant tensor:
#      x y z
#    x 2.004940 0.000000 0.000000 
#    y 0.000000 1.783850 0.000000 
#    z 0.000000 0.000000 1.842250 
# 
# From -- ./inp_files/54150.got.cif
#   From: 2010.05.17/outbox.cif.g08.bks.cpg/sg71_28_cif.got.tgz:54150.got - 2010.06.03 16:22:01.
