data_PCOD9520195
_publ_section_title
;
Structure prediction by ZEFSAII (Michael W. Deem and Ramdas Pophale) SiO2 
 PCOD9520195
Probable space group: I M M M
;
_chemical_formula_sum "Si O2"
_cell_formula_units_Z 88
_cell_length_a 31.617399
_cell_length_b 17.135114
_cell_length_c 7.850305
_cell_angle_alpha 90.000000
_cell_angle_beta 90.000000
_cell_angle_gamma 90.000000
_cell_volume 4253.041969
_symmetry_space_group_name_H-M "I M M M"
_symmetry_group_IT_number 71
_symmetry_cell_setting 'orthorhombic'
loop_
_space_group_symop_operation_xyz
x,y,z
-x,-y,z
x,-y,-z
-x,y,-z
-x,-y,-z
x,y,-z
-x,y,z
x,-y,z
1/2+x,1/2+y,1/2+z
1/2-x,1/2-y,1/2+z
1/2+x,1/2-y,1/2-z
1/2-x,1/2+y,1/2-z
1/2-x,1/2-y,1/2-z
1/2+x,1/2+y,1/2-z
1/2-x,1/2+y,1/2+z
1/2+x,1/2-y,1/2+z
loop_
_atom_site_type_symbol
_atom_site_label
_atom_site_fract_x
_atom_site_fract_y
_atom_site_fract_z
Si Si1 0.500000 0.910717 0.797388
Si Si2 0.760268 0.500000 0.203337
Si Si3 0.223189 0.828765 0.797351
Si Si4 0.873223 0.188270 0.790652
Si Si5 0.909075 0.647438 0.796016
Si Si6 0.046099 0.908961 0.792752
Si Si7 0.856445 0.500000 0.209448
O O1 0.457889 0.866374 0.743043
O O2 0.500000 0.000000 0.727927
O O3 0.500000 0.915935 0.000000
O O4 0.740706 0.415466 0.252804
O O5 0.808439 0.500000 0.267397
O O6 0.760630 0.500000 0.000000
O O7 0.250000 0.750000 0.750000
O O8 0.174723 0.824878 0.731434
O O9 0.221283 0.825913 0.000000
O O10 0.889379 0.272611 0.733943
O O11 0.910568 0.130354 0.734012
O O12 0.872350 0.185466 0.000000
O O13 0.881909 0.575165 0.731170
O O14 0.905006 0.648426 0.000000
O O15 0.000000 0.876418 0.736389
O O16 0.046889 0.000000 0.748512
O O17 0.046097 0.903447 0.000000
O O18 0.856351 0.500000 0.000000
#
# Coordination Sequence:
#
# PCOD9520195 Si02
#       7
#     8   8  16  16  16  16   8
#     4  11  23  37  51  77 118 155 186 232 292 352
#     4  11  23  41  66  94 124 159 204 257 314 376
#     4  11  23  41  63  91 127 164 206 257 316 372
#     4   9  19  32  53  83 113 146 191 245 291 340
#     4  10  19  34  57  82 106 143 194 242 285 335
#     4   8  14  25  43  72 109 141 171 220 282 331
#     4   9  18  34  56  79 108 145 189 242 293 337
#
# _framework density 20.691071000000001
#
# number of rings (size 3 to 8) (size 9 to 14) (size 15 to 20)
#    0.000    2.273    0.909    2.727    2.545    3.273 
#    0.000    5.455    0.000    0.000    0.000    0.000 
#    0.000    1.455    0.000    0.000    0.000    0.000 
#
# Total GULP energy -245393.710855 kJ/mol
# GULP energy per Si atom -5577.129792 kJ/mol
# Density = 2.064398 g / cm^3
# Si number density = 20.691071 Si / 1000 Ang^3
#
#
#
# Elastic Constant Matrix: (Units=GPa)
#
#
# Indices 1 2 3 4 5 6 
#
# 1 248.5436 128.9756 5.6812 0.0000 0.0000 0.0000
# 2 128.9756 158.3651 10.7748 0.0000 0.0000 0.0000
# 3 5.6812 10.7748 28.7299 0.0000 0.0000 0.0000
# 4 0.0000 0.0000 0.0000 3.8084 0.0000 0.0000
# 5 0.0000 0.0000 0.0000 0.0000 17.8443 0.0000
# 6 0.0000 0.0000 0.0000 0.0000 0.0000 80.2673
#
#
#
# Elastic Compliance Matrix: (Units=1/GPa)
#
#
# Indices 1 2 3 4 5 6 
#
# 1 0.006985 -0.005741 0.000772 0.000000 0.000000 0.000000
# 2 -0.005741 0.011199 -0.003065 0.000000 0.000000 0.000000
# 3 0.000772 -0.003065 0.035804 0.000000 0.000000 0.000000
# 4 0.000000 0.000000 0.000000 0.262577 0.000000 0.000000
# 5 0.000000 0.000000 0.000000 0.000000 0.056040 0.000000
# 6 0.000000 0.000000 0.000000 0.000000 0.000000 0.012458
#
#
# Mechanical properties :
#
#
# Convention : Reuss Voigt Hill
#
# Bulk Modulus (GPa) = 26.37165 80.72240 53.54702
# Shear Modulus (GPa) = 12.08397 39.73114 25.90755
#
# Velocity S-wave (km/s) = 2.41927 4.38677 3.54236
# Velocity P-wave (km/s) = 4.53618 8.04712 6.53196
#
# Compressibility (1/GPa) = 0.03791951
#
# Stress axis : x y z
#
# Youngs Moduli (GPa) = 143.16148 89.29451 27.93012
#
# Poissons Ratio (x) = 0.51267 -0.02156
# Poissons Ratio (y) = 0.82194 0.08560
# Poissons Ratio (z) = -0.11051 0.27366
#
# Static dielectric constant tensor:
#      x y z
#    x 1.664330 0.000000 0.000000 
#    y 0.000000 1.765260 0.000000 
#    z 0.000000 0.000000 1.771580 
# 
# From -- ./inp_files/16722.got.cif
#   From: 2010.05.17/outbox.cif.g08.bks.cpg/sg71_9_cif.got.tgz:16722.got - 2010.06.03 16:22:01.
