data_PCOD9520798
_publ_section_title
;
Structure prediction by ZEFSAII (Michael W. Deem and Ramdas Pophale) SiO2 
 PCOD9520798
Probable space group: I M M M
;
_chemical_formula_sum "Si O2"
_cell_formula_units_Z 104
_cell_length_a 9.029837
_cell_length_b 28.169118
_cell_length_c 24.038830
_cell_angle_alpha 90.000000
_cell_angle_beta 90.000000
_cell_angle_gamma 90.000000
_cell_volume 6114.577953
_symmetry_space_group_name_H-M "I M M M"
_symmetry_group_IT_number 71
_symmetry_cell_setting 'orthorhombic'
loop_
_space_group_symop_operation_xyz
x,y,z
-x,-y,z
x,-y,-z
-x,y,-z
-x,-y,-z
x,y,-z
-x,y,z
x,-y,z
1/2+x,1/2+y,1/2+z
1/2-x,1/2-y,1/2+z
1/2+x,1/2-y,1/2-z
1/2-x,1/2+y,1/2-z
1/2-x,1/2-y,1/2-z
1/2+x,1/2+y,1/2-z
1/2-x,1/2+y,1/2+z
1/2+x,1/2-y,1/2+z
loop_
_atom_site_type_symbol
_atom_site_label
_atom_site_fract_x
_atom_site_fract_y
_atom_site_fract_z
Si Si1 0.826085 0.901260 0.434106
Si Si2 0.332447 0.000000 0.567058
Si Si3 0.323563 0.385124 0.661137
Si Si4 0.329537 0.860581 0.336042
Si Si5 0.829759 0.445638 0.754347
Si Si6 0.676855 0.301081 0.258806
Si Si7 0.678264 0.054702 0.065489
O O1 0.808244 0.893549 0.500000
O O2 0.736640 0.863999 0.397233
O O3 0.000000 0.900089 0.420834
O O4 0.758534 0.952797 0.420255
O O5 0.500000 0.000000 0.590671
O O6 0.346747 0.000000 0.500000
O O7 0.500000 0.384118 0.654420
O O8 0.276139 0.422650 0.708658
O O9 0.277173 0.333783 0.687632
O O10 0.249683 0.405681 0.605209
O O11 0.500000 0.844310 0.335328
O O12 0.325633 0.912928 0.308579
O O13 0.228841 0.830089 0.295201
O O14 0.793767 0.500000 0.766133
O O15 0.000000 0.443350 0.732886
O O16 0.500000 0.296643 0.261014
O O17 0.750000 0.250000 0.250000
O O18 0.500000 0.057121 0.070580
O O19 0.721572 0.000000 0.080978
O O20 0.714883 0.061161 0.000000
#
# Coordination Sequence:
#
# PCOD9520798 Si02
#       7
#    16   8  16  16  16  16  16
#     4  10  20  33  48  69 100 136 172 211 255 300
#     4   9  17  29  45  65  91 129 175 213 244 285
#     4  10  20  32  49  76 105 132 166 211 259 306
#     4  10  20  33  52  76 101 131 170 211 256 307
#     4   9  18  31  46  67  98 135 170 205 245 295
#     4  10  21  38  58  79 103 129 165 213 267 322
#     4   9  18  32  50  74 107 148 187 215 242 289
#
# _framework density 17.008531999999999
#
# number of rings (size 3 to 8) (size 9 to 14) (size 15 to 20)
#    0.000    2.385    0.000    3.000    1.077    7.077 
#    0.000    0.769    0.000    0.923    0.000    4.308 
#    0.000    0.000    0.000    0.000    0.000    0.000 
#
# Total GULP energy -289841.118850 kJ/mol
# GULP energy per Si atom -5573.867670 kJ/mol
# Density = 1.696982 g / cm^3
# Si number density = 17.008532 Si / 1000 Ang^3
#
#
#
# Elastic Constant Matrix: (Units=GPa)
#
#
# Indices 1 2 3 4 5 6 
#
# 1 59.6376 33.6715 36.1417 0.0000 0.0000 0.0000
# 2 33.6715 104.9105 35.1009 0.0000 0.0000 0.0000
# 3 36.1417 35.1009 69.2074 0.0000 0.0000 0.0000
# 4 0.0000 0.0000 0.0000 15.5992 0.0000 0.0000
# 5 0.0000 0.0000 0.0000 0.0000 25.9572 0.0000
# 6 0.0000 0.0000 0.0000 0.0000 0.0000 26.6820
#
#
#
# Elastic Compliance Matrix: (Units=1/GPa)
#
#
# Indices 1 2 3 4 5 6 
#
# 1 0.026273 -0.004627 -0.011374 0.000000 0.000000 0.000000
# 2 -0.004627 0.012295 -0.003819 0.000000 0.000000 0.000000
# 3 -0.011374 -0.003819 0.022326 0.000000 0.000000 0.000000
# 4 0.000000 0.000000 0.000000 0.064106 0.000000 0.000000
# 5 0.000000 0.000000 0.000000 0.000000 0.038525 0.000000
# 6 0.000000 0.000000 0.000000 0.000000 0.000000 0.037479
#
#
# Mechanical properties :
#
#
# Convention : Reuss Voigt Hill
#
# Bulk Modulus (GPa) = 47.05042 49.28705 48.16874
# Shear Modulus (GPa) = 20.18342 22.23709 21.21026
#
# Velocity S-wave (km/s) = 3.44854 3.61973 3.53517
# Velocity P-wave (km/s) = 6.60147 6.81988 6.71156
#
# Compressibility (1/GPa) = 0.02125379
#
# Stress axis : x y z
#
# Youngs Moduli (GPa) = 38.06181 81.33443 44.79082
#
# Poissons Ratio (x) = 0.37634 0.50943
# Poissons Ratio (y) = 0.17612 0.17107
# Poissons Ratio (z) = 0.43290 0.31065
#
# Static dielectric constant tensor:
#      x y z
#    x 1.577030 0.000000 0.000000 
#    y 0.000000 1.581110 0.000000 
#    z 0.000000 0.000000 1.590490 
# 
# From -- ./inp_files/13299.got.cif
#   From: 2010.05.17/outbox.cif.g08.bks.cpg/sg71_7_cif.got.tgz:13299.got - 2010.06.03 16:22:01.
