data_PCOD9520835
_publ_section_title
;
Structure prediction by ZEFSAII (Michael W. Deem and Ramdas Pophale) SiO2 
 PCOD9520835
Probable space group: I M M M
;
_chemical_formula_sum "Si O2"
_cell_formula_units_Z 104
_cell_length_a 32.488802
_cell_length_b 9.740979
_cell_length_c 18.164479
_cell_angle_alpha 90.000000
_cell_angle_beta 90.000000
_cell_angle_gamma 90.000000
_cell_volume 5748.562404
_symmetry_space_group_name_H-M "I M M M"
_symmetry_group_IT_number 71
_symmetry_cell_setting 'orthorhombic'
loop_
_space_group_symop_operation_xyz
x,y,z
-x,-y,z
x,-y,-z
-x,y,-z
-x,-y,-z
x,y,-z
-x,y,z
x,-y,z
1/2+x,1/2+y,1/2+z
1/2-x,1/2-y,1/2+z
1/2+x,1/2-y,1/2-z
1/2-x,1/2+y,1/2-z
1/2-x,1/2-y,1/2-z
1/2+x,1/2+y,1/2-z
1/2-x,1/2+y,1/2+z
1/2+x,1/2-y,1/2+z
loop_
_atom_site_type_symbol
_atom_site_label
_atom_site_fract_x
_atom_site_fract_y
_atom_site_fract_z
Si Si1 0.744183 0.160610 0.583093
Si Si2 0.000000 0.666341 0.914819
Si Si3 0.589024 0.839495 0.353193
Si Si4 0.603216 0.157049 0.821699
Si Si5 0.180973 0.840185 0.690765
Si Si6 0.950728 0.848565 0.415012
Si Si7 0.669264 0.662118 0.366302
O O1 0.761526 0.173508 0.500000
O O2 0.777466 0.192694 0.646435
O O3 0.705179 0.259121 0.591043
O O4 0.731955 0.000000 0.592812
O O5 0.956579 0.707276 0.877966
O O6 0.000000 0.500000 0.911735
O O7 0.000000 0.708636 0.000000
O O8 0.592221 0.837306 0.264713
O O9 0.626089 0.741207 0.379223
O O10 0.594981 0.000000 0.376689
O O11 0.644504 0.242566 0.835153
O O12 0.567577 0.229321 0.866816
O O13 0.608853 0.000000 0.842802
O O14 0.181746 0.825441 0.779422
O O15 0.171639 0.000000 0.675235
O O16 0.937812 0.835603 0.500000
O O17 0.000000 0.845369 0.413459
O O18 0.937497 0.000000 0.388017
O O19 0.666293 0.500000 0.383258
#
# Coordination Sequence:
#
# PCOD9520835 Si02
#       7
#    16   8  16  16  16  16  16
#     4  10  21  36  55  79 105 138 180 222 266 318
#     4   9  18  34  57  81 104 137 180 220 259 307
#     4   9  19  35  55  80 109 140 178 221 264 318
#     4  10  20  32  52  80 109 139 173 221 274 319
#     4   9  19  36  55  76 106 142 181 219 259 317
#     4   9  19  35  52  71  99 138 181 221 264 319
#     4  10  20  35  56  80 108 141 177 221 269 317
#
# _framework density 18.091479
#
# number of rings (size 3 to 8) (size 9 to 14) (size 15 to 20)
#    0.000    2.538    0.000    1.846    1.077    4.000 
#    0.000    4.231    0.000    0.462    0.000    0.000 
#    0.000    0.000    0.000    0.000    0.000    0.000 
#
# Total GULP energy -289935.922149 kJ/mol
# GULP energy per Si atom -5575.690811 kJ/mol
# Density = 1.805030 g / cm^3
# Si number density = 18.091479 Si / 1000 Ang^3
#
#
#
# Elastic Constant Matrix: (Units=GPa)
#
#
# Indices 1 2 3 4 5 6 
#
# 1 117.1841 61.6833 39.4774 0.0000 0.0000 0.0000
# 2 61.6833 82.1070 34.4402 0.0000 0.0000 0.0000
# 3 39.4774 34.4402 24.7216 0.0000 0.0000 0.0000
# 4 0.0000 0.0000 0.0000 19.6947 0.0000 0.0000
# 5 0.0000 0.0000 0.0000 0.0000 68.4712 0.0000
# 6 0.0000 0.0000 0.0000 0.0000 0.0000 16.6847
#
#
#
# Elastic Compliance Matrix: (Units=1/GPa)
#
#
# Indices 1 2 3 4 5 6 
#
# 1 0.018927 -0.003708 -0.025059 0.000000 0.000000 0.000000
# 2 -0.003708 0.030028 -0.035912 0.000000 0.000000 0.000000
# 3 -0.025059 -0.035912 0.130496 0.000000 0.000000 0.000000
# 4 0.000000 0.000000 0.000000 0.050775 0.000000 0.000000
# 5 0.000000 0.000000 0.000000 0.000000 0.014605 0.000000
# 6 0.000000 0.000000 0.000000 0.000000 0.000000 0.059935
#
#
# Mechanical properties :
#
#
# Convention : Reuss Voigt Hill
#
# Bulk Modulus (GPa) = 19.96240 55.02384 37.49312
# Shear Modulus (GPa) = 11.09084 26.86421 18.97753
#
# Velocity S-wave (km/s) = 2.47866 3.85763 3.24230
# Velocity P-wave (km/s) = 4.38745 7.09380 5.89796
#
# Compressibility (1/GPa) = 0.05009419
#
# Stress axis : x y z
#
# Youngs Moduli (GPa) = 52.83331 33.30176 7.66309
#
# Poissons Ratio (x) = 0.12349 0.19203
# Poissons Ratio (y) = 0.19592 0.27519
# Poissons Ratio (z) = 1.32394 1.19592
#
# Static dielectric constant tensor:
#      x y z
#    x 1.602710 0.000000 0.000000 
#    y 0.000000 1.609610 0.000000 
#    z 0.000000 0.000000 1.617980 
# 
# From -- ./inp_files/15046.got.cif
#   From: 2010.05.17/outbox.cif.g08.bks.cpg/sg71_8_cif.got.tgz:15046.got - 2010.06.03 16:22:01.
