data_PCOD9520042
_publ_section_title
;
Structure prediction by ZEFSAII (Michael W. Deem and Ramdas Pophale) SiO2 
 PCOD9520042
Probable space group: I M M M
;
_chemical_formula_sum "Si O2"
_cell_formula_units_Z 112
_cell_length_a 19.790867
_cell_length_b 18.006152
_cell_length_c 16.961386
_cell_angle_alpha 90.000000
_cell_angle_beta 90.000000
_cell_angle_gamma 90.000000
_cell_volume 6044.314727
_symmetry_space_group_name_H-M "I M M M"
_symmetry_group_IT_number 71
_symmetry_cell_setting 'orthorhombic'
loop_
_space_group_symop_operation_xyz
x,y,z
-x,-y,z
x,-y,-z
-x,y,-z
-x,-y,-z
x,y,-z
-x,y,z
x,-y,z
1/2+x,1/2+y,1/2+z
1/2-x,1/2-y,1/2+z
1/2+x,1/2-y,1/2-z
1/2-x,1/2+y,1/2-z
1/2-x,1/2-y,1/2-z
1/2+x,1/2+y,1/2-z
1/2-x,1/2+y,1/2+z
1/2+x,1/2-y,1/2+z
loop_
_atom_site_type_symbol
_atom_site_label
_atom_site_fract_x
_atom_site_fract_y
_atom_site_fract_z
Si Si1 0.324943 0.193937 0.816030
Si Si2 0.420819 0.281240 0.695822
Si Si3 0.187688 0.838631 0.407029
Si Si4 0.700552 0.085546 0.314593
Si Si5 0.579864 0.848869 0.590895
Si Si6 0.423619 0.914604 0.905214
Si Si7 0.419414 0.585828 0.794448
O O1 0.374861 0.237641 0.757566
O O2 0.293154 0.258146 0.869838
O O3 0.282286 0.140618 0.758398
O O4 0.369575 0.139989 0.869291
O O5 0.500000 0.269898 0.714331
O O6 0.409495 0.238214 0.613906
O O7 0.407369 0.367670 0.713613
O O8 0.177437 0.832725 0.500000
O O9 0.247532 0.894237 0.383681
O O10 0.121814 0.871608 0.362655
O O11 0.626529 0.104756 0.349488
O O12 0.704755 0.000000 0.291681
O O13 0.597761 0.862555 0.500000
O O14 0.500000 0.865122 0.600982
O O15 0.500000 0.894269 0.880518
O O16 0.411591 0.000000 0.881138
O O17 0.421575 0.911984 0.000000
O O18 0.500000 0.587732 0.810263
O O19 0.398341 0.500000 0.789299
#
# Coordination Sequence:
#
# PCOD9520042 Si02
#       7
#    16  16  16  16  16  16  16
#     4  10  19  34  52  72  97 133 177 212 244 301
#     4   8  15  28  47  71  97 126 163 206 251 296
#     4  11  23  37  54  76 104 137 171 212 262 312
#     4  11  23  37  54  76 104 137 171 212 262 312
#     4   9  18  33  53  76 102 134 172 213 258 311
#     4   9  17  29  48  77 111 142 171 211 264 311
#     4   9  18  33  53  76 102 134 172 213 258 311
#
# _framework density 18.529809
#
# number of rings (size 3 to 8) (size 9 to 14) (size 15 to 20)
#    0.000    2.429    0.000    3.000    0.000    3.714 
#    0.000    1.429    0.000    0.429    0.000    3.000 
#    0.000    6.857    0.000    0.286    0.000    0.000 
#
# Total GULP energy -312053.566623 kJ/mol
# GULP energy per Si atom -5572.385118 kJ/mol
# Density = 1.848763 g / cm^3
# Si number density = 18.529809 Si / 1000 Ang^3
#
#
#
# Elastic Constant Matrix: (Units=GPa)
#
#
# Indices 1 2 3 4 5 6 
#
# 1 32.1975 15.0483 3.6083 0.0000 0.0000 0.0000
# 2 15.0483 103.2843 21.0755 0.0000 0.0000 0.0000
# 3 3.6083 21.0755 7.8488 0.0000 0.0000 0.0000
# 4 0.0000 0.0000 0.0000 19.6538 0.0000 0.0000
# 5 0.0000 0.0000 0.0000 0.0000 30.9314 0.0000
# 6 0.0000 0.0000 0.0000 0.0000 0.0000 -12.5564
#
#
#
# Elastic Compliance Matrix: (Units=1/GPa)
#
#
# Indices 1 2 3 4 5 6 
#
# 1 0.033418 -0.003836 -0.005063 0.000000 0.000000 0.000000
# 2 -0.003836 0.021857 -0.056925 0.000000 0.000000 0.000000
# 3 -0.005063 -0.056925 0.282589 0.000000 0.000000 0.000000
# 4 0.000000 0.000000 0.000000 0.050881 0.000000 0.000000
# 5 0.000000 0.000000 0.000000 0.000000 0.032330 0.000000
# 6 0.000000 0.000000 0.000000 0.000000 0.000000 -0.079641
#
#
# Mechanical properties :
#
#
# Convention : Reuss Voigt Hill
#
# Bulk Modulus (GPa) = 4.84930 24.75496 14.80213
# Shear Modulus (GPa) = 9.22813 14.51234 11.87023
#
# Velocity S-wave (km/s) = 2.23405 2.80159 2.53376
# Velocity P-wave (km/s) = 3.04587 4.88403 4.07008
#
# Compressibility (1/GPa) = 0.20621516
#
# Stress axis : x y z
#
# Youngs Moduli (GPa) = 29.92355 45.75260 3.53870
#
# Poissons Ratio (x) = 0.17550 0.01792
# Poissons Ratio (y) = 0.11478 0.20144
# Poissons Ratio (z) = 0.15152 2.60449
#
# Static dielectric constant tensor:
#      x y z
#    x 1.659280 0.000000 0.000000 
#    y 0.000000 1.662370 0.000000 
#    z 0.000000 0.000000 1.625500 
# 
# From -- ./inp_files/46415.got.cif
#   From: 2010.05.17/outbox.cif.g08.bks.cpg/sg71_24_cif.got.tgz:46415.got - 2010.06.03 16:22:01.
