data_PCOD9520355
_publ_section_title
;
Structure prediction by ZEFSAII (Michael W. Deem and Ramdas Pophale) SiO2 
 PCOD9520355
Probable space group: I M M M
;
_chemical_formula_sum "Si O2"
_cell_formula_units_Z 100
_cell_length_a 33.477623
_cell_length_b 7.844181
_cell_length_c 20.845273
_cell_angle_alpha 90.000000
_cell_angle_beta 90.000000
_cell_angle_gamma 90.000000
_cell_volume 5474.063208
_symmetry_space_group_name_H-M "I M M M"
_symmetry_group_IT_number 71
_symmetry_cell_setting 'orthorhombic'
loop_
_space_group_symop_operation_xyz
x,y,z
-x,-y,z
x,-y,-z
-x,y,-z
-x,-y,-z
x,y,-z
-x,y,z
x,-y,z
1/2+x,1/2+y,1/2+z
1/2-x,1/2-y,1/2+z
1/2+x,1/2-y,1/2-z
1/2-x,1/2+y,1/2-z
1/2-x,1/2-y,1/2-z
1/2+x,1/2+y,1/2-z
1/2-x,1/2+y,1/2+z
1/2+x,1/2-y,1/2+z
loop_
_atom_site_type_symbol
_atom_site_label
_atom_site_fract_x
_atom_site_fract_y
_atom_site_fract_z
Si Si1 0.120881 0.202210 0.774532
Si Si2 0.454583 0.206482 0.804419
Si Si3 0.333403 0.189556 0.603903
Si Si4 0.170221 0.796628 0.350807
Si Si5 0.743547 0.304291 0.323601
Si Si6 0.836613 0.000000 0.000000
Si Si7 0.406073 0.205546 0.071612
O O1 0.076120 0.236461 0.750321
O O2 0.133582 0.288428 0.840242
O O3 0.149628 0.261734 0.716027
O O4 0.126667 0.000000 0.781170
O O5 0.500000 0.264530 0.796084
O O6 0.435910 0.266113 0.872422
O O7 0.454528 0.000000 0.805260
O O8 0.290804 0.202145 0.640467
O O9 0.336146 0.347530 0.555532
O O10 0.337095 0.000000 0.575628
O O11 0.213615 0.716028 0.357499
O O12 0.138442 0.753481 0.405788
O O13 0.175138 0.000000 0.347394
O O14 0.750000 0.250000 0.250000
O O15 0.769298 0.000000 0.176380
O O16 0.408594 0.000000 0.070659
O O17 0.414746 0.268530 0.000000
#
# Coordination Sequence:
#
# PCOD9520355 Si02
#       7
#    16  16  16  16  16   4  16
#     4  10  19  35  58  85 115 147 194 250 299 355
#     4   9  18  32  53  84 118 149 190 246 304 361
#     4  12  24  42  65  89 121 163 202 249 302 361
#     4  10  20  33  52  78 108 148 198 255 306 352
#     4  12  22  36  58  87 117 151 202 257 312 359
#     4  12  26  48  60  90 129 162 204 240 297 362
#     4   9  18  33  50  72 107 156 204 246 299 359
#
# _framework density 18.267965
#
# number of rings (size 3 to 8) (size 9 to 14) (size 15 to 20)
#    0.000    1.600    3.200    2.640    0.000    2.240 
#    1.440    1.600    0.000    0.000    0.000    5.600 
#    0.000    2.560    0.000    0.000    0.000    0.000 
#
# Total GULP energy -278678.718251 kJ/mol
# GULP energy per Si atom -5573.574365 kJ/mol
# Density = 1.822639 g / cm^3
# Si number density = 18.267965 Si / 1000 Ang^3
#
#
#
# Elastic Constant Matrix: (Units=GPa)
#
#
# Indices 1 2 3 4 5 6 
#
# 1 122.0990 14.8304 49.4169 0.0000 0.0000 0.0000
# 2 14.8304 99.4301 37.8557 0.0000 0.0000 0.0000
# 3 49.4169 37.8557 110.6448 0.0000 0.0000 0.0000
# 4 0.0000 0.0000 0.0000 26.2566 0.0000 0.0000
# 5 0.0000 0.0000 0.0000 0.0000 5.5348 0.0000
# 6 0.0000 0.0000 0.0000 0.0000 0.0000 20.7422
#
#
#
# Elastic Compliance Matrix: (Units=1/GPa)
#
#
# Indices 1 2 3 4 5 6 
#
# 1 0.010002 0.000240 -0.004549 0.000000 0.000000 0.000000
# 2 0.000240 0.011569 -0.004066 0.000000 0.000000 0.000000
# 3 -0.004549 -0.004066 0.012461 0.000000 0.000000 0.000000
# 4 0.000000 0.000000 0.000000 0.038086 0.000000 0.000000
# 5 0.000000 0.000000 0.000000 0.000000 0.180675 0.000000
# 6 0.000000 0.000000 0.000000 0.000000 0.000000 0.048211
#
#
# Mechanical properties :
#
#
# Convention : Reuss Voigt Hill
#
# Bulk Modulus (GPa) = 57.86114 59.59777 58.72946
# Shear Modulus (GPa) = 15.45525 25.84477 20.65001
#
# Velocity S-wave (km/s) = 2.91182 3.76541 3.36578
# Velocity P-wave (km/s) = 6.56104 7.18327 6.87919
#
# Compressibility (1/GPa) = 0.01728276
#
# Stress axis : x y z
#
# Youngs Moduli (GPa) = 99.97822 86.43509 80.25146
#
# Poissons Ratio (x) = -0.02076 0.36510
# Poissons Ratio (y) = -0.02402 0.32627
# Poissons Ratio (z) = 0.45484 0.35141
#
# Static dielectric constant tensor:
#      x y z
#    x 1.621280 0.000000 0.000000 
#    y 0.000000 1.665940 0.000000 
#    z 0.000000 0.000000 1.619890 
# 
# From -- ./inp_files/56691.got.cif
#   From: 2010.05.17/outbox.cif.g08.bks.cpg/sg71_29_cif.got.tgz:56691.got - 2010.06.03 16:22:01.
