data_PCOD9520919
_publ_section_title
;
Structure prediction by ZEFSAII (Michael W. Deem and Ramdas Pophale) SiO2 
 PCOD9520919
Probable space group: I M M M
;
_chemical_formula_sum "Si O2"
_cell_formula_units_Z 88
_cell_length_a 7.598976
_cell_length_b 19.965880
_cell_length_c 27.564474
_cell_angle_alpha 90.000000
_cell_angle_beta 90.000000
_cell_angle_gamma 90.000000
_cell_volume 4182.088692
_symmetry_space_group_name_H-M "I M M M"
_symmetry_group_IT_number 71
_symmetry_cell_setting 'orthorhombic'
loop_
_space_group_symop_operation_xyz
x,y,z
-x,-y,z
x,-y,-z
-x,y,-z
-x,-y,-z
x,y,-z
-x,y,z
x,-y,z
1/2+x,1/2+y,1/2+z
1/2-x,1/2-y,1/2+z
1/2+x,1/2-y,1/2-z
1/2-x,1/2+y,1/2-z
1/2-x,1/2-y,1/2-z
1/2+x,1/2+y,1/2-z
1/2-x,1/2+y,1/2+z
1/2+x,1/2-y,1/2+z
loop_
_atom_site_type_symbol
_atom_site_label
_atom_site_fract_x
_atom_site_fract_y
_atom_site_fract_z
Si Si1 0.802933 0.173620 0.921517
Si Si2 0.208725 0.925539 0.247142
Si Si3 0.786521 0.652090 0.838150
Si Si4 0.200870 0.204112 0.192275
Si Si5 0.214127 0.677091 0.053000
Si Si6 0.500000 0.072588 0.942635
O O1 0.809580 0.185179 0.864098
O O2 0.741938 0.243965 0.944132
O O3 0.671218 0.114412 0.930261
O O4 0.000000 0.159689 0.939155
O O5 0.233233 0.908814 0.303901
O O6 0.283304 0.859922 0.219342
O O7 0.000000 0.926862 0.235916
O O8 0.278449 0.000000 0.235561
O O9 0.721338 0.720772 0.811381
O O10 0.727414 0.648518 0.894514
O O11 0.000000 0.656727 0.839324
O O12 0.000000 0.212006 0.210776
O O13 0.000000 0.672916 0.053361
O O14 0.273156 0.650752 0.000000
O O15 0.500000 0.000000 0.918865
O O16 0.500000 0.065851 0.000000
#
# Coordination Sequence:
#
# PCOD9520919 Si02
#       6
#    16  16  16  16  16   8
#     4   9  18  35  56  75 100 134 173 218 271 316
#     4  10  20  33  49  71 103 141 175 207 252 314
#     4   9  17  31  51  76 104 128 164 217 262 309
#     4   8  16  33  55  77  98 129 173 214 258 313
#     4   8  14  28  53  79 100 126 162 210 266 316
#     4  11  24  36  46  70 106 140 179 221 260 314
#
# _framework density 21.042117999999999
#
# number of rings (size 3 to 8) (size 9 to 14) (size 15 to 20)
#    0.000    3.000    0.000    3.273    0.000    2.545 
#    8.182    2.727    0.000    0.545    0.000    3.818 
#    0.000    0.000    0.000    0.000    0.000    0.000 
#
# Total GULP energy -245162.829485 kJ/mol
# GULP energy per Si atom -5571.882488 kJ/mol
# Density = 2.099423 g / cm^3
# Si number density = 21.042118 Si / 1000 Ang^3
#
#
#
# Elastic Constant Matrix: (Units=GPa)
#
#
# Indices 1 2 3 4 5 6 
#
# 1 46.3759 0.5312 -9.5406 0.0000 0.0000 0.0000
# 2 0.5312 45.6909 22.9820 0.0000 0.0000 0.0000
# 3 -9.5406 22.9820 101.1713 0.0000 0.0000 0.0000
# 4 0.0000 0.0000 0.0000 -8.5844 0.0000 0.0000
# 5 0.0000 0.0000 0.0000 0.0000 20.1322 0.0000
# 6 0.0000 0.0000 0.0000 0.0000 0.0000 16.4004
#
#
#
# Elastic Compliance Matrix: (Units=1/GPa)
#
#
# Indices 1 2 3 4 5 6 
#
# 1 0.022077 -0.001472 0.002416 0.000000 0.000000 0.000000
# 2 -0.001472 0.024808 -0.005774 0.000000 0.000000 0.000000
# 3 0.002416 -0.005774 0.011424 0.000000 0.000000 0.000000
# 4 0.000000 0.000000 0.000000 -0.116490 0.000000 0.000000
# 5 0.000000 0.000000 0.000000 0.000000 0.049672 0.000000
# 6 0.000000 0.000000 0.000000 0.000000 0.000000 0.060974
#
#
# Mechanical properties :
#
#
# Convention : Reuss Voigt Hill
#
# Bulk Modulus (GPa) = 20.55563 24.57594 22.56578
# Shear Modulus (GPa) = 63.82423 17.54066 40.68245
#
# Velocity S-wave (km/s) = 5.51339 2.89034 4.40179
# Velocity P-wave (km/s) = 7.09366 4.77949 6.04829
#
# Compressibility (1/GPa) = 0.04864848
#
# Stress axis : x y z
#
# Youngs Moduli (GPa) = 45.29633 40.31016 87.53716
#
# Poissons Ratio (x) = 0.05934 -0.21151
# Poissons Ratio (y) = 0.06668 0.50545
# Poissons Ratio (z) = -0.10945 0.23275
#
# Static dielectric constant tensor:
#      x y z
#    x 1.737720 0.000000 0.000000 
#    y 0.000000 1.790840 0.000000 
#    z 0.000000 0.000000 1.803080 
# 
# From -- ./inp_files/68005.got.cif
#   From: 2010.05.17/outbox.cif.g08.bks.cpg/sg71_35_cif.got.tgz:68005.got - 2010.06.03 16:22:01.
