data_PCOD9520693
_publ_section_title
;
Structure prediction by ZEFSAII (Michael W. Deem and Ramdas Pophale) SiO2 
 PCOD9520693
Probable space group: I M M M
;
_chemical_formula_sum "Si O2"
_cell_formula_units_Z 120
_cell_length_a 26.003782
_cell_length_b 19.367482
_cell_length_c 13.572531
_cell_angle_alpha 90.000000
_cell_angle_beta 90.000000
_cell_angle_gamma 90.000000
_cell_volume 6835.503654
_symmetry_space_group_name_H-M "I M M M"
_symmetry_group_IT_number 71
_symmetry_cell_setting 'orthorhombic'
loop_
_space_group_symop_operation_xyz
x,y,z
-x,-y,z
x,-y,-z
-x,y,-z
-x,-y,-z
x,y,-z
-x,y,z
x,-y,z
1/2+x,1/2+y,1/2+z
1/2-x,1/2-y,1/2+z
1/2+x,1/2-y,1/2-z
1/2-x,1/2+y,1/2-z
1/2-x,1/2-y,1/2-z
1/2+x,1/2+y,1/2-z
1/2-x,1/2+y,1/2+z
1/2+x,1/2-y,1/2+z
loop_
_atom_site_type_symbol
_atom_site_label
_atom_site_fract_x
_atom_site_fract_y
_atom_site_fract_z
Si Si1 0.733937 0.175573 0.710507
Si Si2 0.267713 0.079293 0.891946
Si Si3 0.666184 0.329340 0.112578
Si Si4 0.402385 0.581881 0.244864
Si Si5 0.392736 0.921595 0.112497
Si Si6 0.121617 0.703859 0.742626
Si Si7 0.561732 0.694447 0.384846
Si Si8 0.500000 0.583384 0.888856
O O1 0.750000 0.250000 0.750000
O O2 0.748152 0.123183 0.798472
O O3 0.772000 0.166126 0.619464
O O4 0.672429 0.175952 0.700114
O O5 0.330123 0.079103 0.891074
O O6 0.250612 0.000000 0.884210
O O7 0.251760 0.106658 0.000000
O O8 0.645346 0.389565 0.183229
O O9 0.644013 0.258372 0.161095
O O10 0.649048 0.335500 0.000000
O O11 0.401237 0.500000 0.259542
O O12 0.411867 0.624420 0.344364
O O13 0.450184 0.601830 0.173822
O O14 0.405442 0.859753 0.186630
O O15 0.407996 0.000000 0.140885
O O16 0.410460 0.909134 0.000000
O O17 0.085130 0.745543 0.816216
O O18 0.572837 0.705358 0.500000
O O19 0.500000 0.689581 0.373237
O O20 0.500000 0.500000 0.895490
O O21 0.500000 0.611152 0.000000
#
# Coordination Sequence:
#
# PCOD9520693 Si02
#       8
#    16  16  16  16  16  16  16   8
#     4   9  18  30  45  70 100 135 173 208 249 305
#     4   8  14  26  45  68  93 122 159 205 250 290
#     4  10  20  32  47  69 101 140 176 211 255 310
#     4  10  20  35  53  76 104 134 174 220 264 310
#     4   8  13  24  48  79 103 125 157 197 246 305
#     4   9  18  33  52  74 102 134 170 214 263 314
#     4  10  21  37  57  79 102 133 176 225 274 316
#     4   9  16  28  49  73  97 129 167 206 248 297
#
# _framework density 17.555399999999999
#
# number of rings (size 3 to 8) (size 9 to 14) (size 15 to 20)
#    0.000    2.867    0.667    1.600    0.000    5.333 
#    0.000    6.000    0.000    0.800    0.000    5.600 
#    0.000    0.000    0.000    0.000    0.000    0.000 
#
# Total GULP energy -334077.196329 kJ/mol
# GULP energy per Si atom -5567.953272 kJ/mol
# Density = 1.751544 g / cm^3
# Si number density = 17.555400 Si / 1000 Ang^3
#
#
#
# Elastic Constant Matrix: (Units=GPa)
#
#
# Indices 1 2 3 4 5 6 
#
# 1 35.3178 16.5893 24.2899 0.0000 0.0000 0.0000
# 2 16.5893 103.9817 57.4255 0.0000 0.0000 0.0000
# 3 24.2899 57.4255 105.3996 0.0000 0.0000 0.0000
# 4 0.0000 0.0000 0.0000 22.1105 0.0000 0.0000
# 5 0.0000 0.0000 0.0000 0.0000 20.4566 0.0000
# 6 0.0000 0.0000 0.0000 0.0000 0.0000 14.4952
#
#
#
# Elastic Compliance Matrix: (Units=1/GPa)
#
#
# Indices 1 2 3 4 5 6 
#
# 1 0.033824 -0.001561 -0.006944 0.000000 0.000000 0.000000
# 2 -0.001561 0.013828 -0.007174 0.000000 0.000000 0.000000
# 3 -0.006944 -0.007174 0.014997 0.000000 0.000000 0.000000
# 4 0.000000 0.000000 0.000000 0.045227 0.000000 0.000000
# 5 0.000000 0.000000 0.000000 0.000000 0.048884 0.000000
# 6 0.000000 0.000000 0.000000 0.000000 0.000000 0.068988
#
#
# Mechanical properties :
#
#
# Convention : Reuss Voigt Hill
#
# Bulk Modulus (GPa) = 31.95994 49.03429 40.49711
# Shear Modulus (GPa) = 18.68896 21.17209 19.93053
#
# Velocity S-wave (km/s) = 3.26632 3.47654 3.37307
# Velocity P-wave (km/s) = 5.69823 6.64130 6.18776
#
# Compressibility (1/GPa) = 0.03128917
#
# Stress axis : x y z
#
# Youngs Moduli (GPa) = 29.56522 72.31547 66.68053
#
# Poissons Ratio (x) = 0.11290 0.46304
# Poissons Ratio (y) = 0.04616 0.47839
# Poissons Ratio (z) = 0.20531 0.51882
#
# Static dielectric constant tensor:
#      x y z
#    x 1.623630 0.000000 0.000000 
#    y 0.000000 1.605130 0.000000 
#    z 0.000000 0.000000 1.587320 
# 
# From -- ./inp_files/29165.got.cif
#   From: 2010.05.17/outbox.cif.g08.bks.cpg/sg71_15_cif.got.tgz:29165.got - 2010.06.03 16:22:01.
