data_PCOD9520595
_publ_section_title
;
Structure prediction by ZEFSAII (Michael W. Deem and Ramdas Pophale) SiO2 
 PCOD9520595
Probable space group: I M M M
;
_chemical_formula_sum "Si O2"
_cell_formula_units_Z 112
_cell_length_a 28.317904
_cell_length_b 13.937081
_cell_length_c 15.122890
_cell_angle_alpha 90.000000
_cell_angle_beta 90.000000
_cell_angle_gamma 90.000000
_cell_volume 5968.534691
_symmetry_space_group_name_H-M "I M M M"
_symmetry_group_IT_number 71
_symmetry_cell_setting 'orthorhombic'
loop_
_space_group_symop_operation_xyz
x,y,z
-x,-y,z
x,-y,-z
-x,y,-z
-x,-y,-z
x,y,-z
-x,y,z
x,-y,z
1/2+x,1/2+y,1/2+z
1/2-x,1/2-y,1/2+z
1/2+x,1/2-y,1/2-z
1/2-x,1/2+y,1/2-z
1/2-x,1/2-y,1/2-z
1/2+x,1/2+y,1/2-z
1/2-x,1/2+y,1/2+z
1/2+x,1/2-y,1/2+z
loop_
_atom_site_type_symbol
_atom_site_label
_atom_site_fract_x
_atom_site_fract_y
_atom_site_fract_z
Si Si1 0.349862 0.110966 0.799647
Si Si2 0.242743 0.309355 0.605193
Si Si3 0.443590 0.389685 0.100348
Si Si4 0.621011 0.692038 0.764100
Si Si5 0.299208 0.390161 0.894981
Si Si6 0.156011 0.886718 0.900654
Si Si7 0.448681 0.884773 0.099511
O O1 0.300847 0.136598 0.848368
O O2 0.360233 0.202166 0.737525
O O3 0.396203 0.125311 0.861303
O O4 0.349151 0.000000 0.769159
O O5 0.238483 0.327195 0.500000
O O6 0.238377 0.194929 0.619840
O O7 0.293742 0.346501 0.633140
O O8 0.500000 0.388435 0.098535
O O9 0.428766 0.500000 0.120999
O O10 0.424971 0.317742 0.174675
O O11 0.426814 0.369583 0.000000
O O12 0.658656 0.640627 0.829912
O O13 0.617296 0.637243 0.672213
O O14 0.284616 0.500000 0.877148
O O15 0.312097 0.385031 0.000000
O O16 0.161285 0.000000 0.905930
O O17 0.147119 0.849468 0.000000
O O18 0.500000 0.853668 0.139601
O O19 0.452415 0.000000 0.095296
O O20 0.447996 0.845462 0.000000
#
# Coordination Sequence:
#
# PCOD9520595 Si02
#       7
#    16  16  16  16  16  16  16
#     4  10  20  31  45  68  98 132 169 210 255 300
#     4   9  18  32  49  70  96 129 171 215 256 298
#     4   9  18  33  54  81 111 139 166 198 240 296
#     4  11  21  33  51  73 100 134 170 207 249 300
#     4   9  17  29  47  73 104 135 166 201 245 301
#     4  10  21  37  56  75  95 123 163 211 258 302
#     4   8  14  25  41  63  95 135 172 200 230 276
#
# _framework density 18.765075
#
# number of rings (size 3 to 8) (size 9 to 14) (size 15 to 20)
#    0.000    2.571    0.000    3.429    0.000    7.143 
#    0.000    3.571    0.000    1.714    0.000    2.000 
#    0.000    0.000    0.000    4.857    0.000    0.143 
#
# Total GULP energy -311780.206016 kJ/mol
# GULP energy per Si atom -5567.503679 kJ/mol
# Density = 1.872237 g / cm^3
# Si number density = 18.765075 Si / 1000 Ang^3
#
#
#
# Elastic Constant Matrix: (Units=GPa)
#
#
# Indices 1 2 3 4 5 6 
#
# 1 41.0804 9.4345 24.5405 0.0000 0.0000 0.0000
# 2 9.4345 122.0231 16.7531 0.0000 0.0000 0.0000
# 3 24.5405 16.7531 49.7373 0.0000 0.0000 0.0000
# 4 0.0000 0.0000 0.0000 16.7382 0.0000 0.0000
# 5 0.0000 0.0000 0.0000 0.0000 -147.1604 0.0000
# 6 0.0000 0.0000 0.0000 0.0000 0.0000 20.9122
#
#
#
# Elastic Compliance Matrix: (Units=1/GPa)
#
#
# Indices 1 2 3 4 5 6 
#
# 1 0.034530 -0.000347 -0.016920 0.000000 0.000000 0.000000
# 2 -0.000347 0.008596 -0.002724 0.000000 0.000000 0.000000
# 3 -0.016920 -0.002724 0.029372 0.000000 0.000000 0.000000
# 4 0.000000 0.000000 0.000000 0.059743 0.000000 0.000000
# 5 0.000000 0.000000 0.000000 0.000000 -0.006795 0.000000
# 6 0.000000 0.000000 0.000000 0.000000 0.000000 0.047819
#
#
# Mechanical properties :
#
#
# Convention : Reuss Voigt Hill
#
# Bulk Modulus (GPa) = 30.75505 34.92188 32.83847
# Shear Modulus (GPa) = 22.31285 -11.09448 5.60919
#
# Velocity S-wave (km/s) = 3.45202 -2.43416 1.73080
# Velocity P-wave (km/s) = 5.68451 3.27876 4.64026
#
# Compressibility (1/GPa) = 0.03251498
#
# Stress axis : x y z
#
# Youngs Moduli (GPa) = 28.96034 116.33297 34.04618
#
# Poissons Ratio (x) = 0.04033 0.57607
# Poissons Ratio (y) = 0.01004 0.09275
# Poissons Ratio (z) = 0.49002 0.31693
#
# Static dielectric constant tensor:
#      x y z
#    x 1.678450 0.000000 0.000000 
#    y 0.000000 1.742660 0.000000 
#    z 0.000000 0.000000 1.662210 
# 
# From -- ./inp_files/41106.got.cif
#   From: 2010.05.17/outbox.cif.g08.bks.cpg/sg71_21_cif.got.tgz:41106.got - 2010.06.03 16:22:01.
