data_PCOD9520817
_publ_section_title
;
Structure prediction by ZEFSAII (Michael W. Deem and Ramdas Pophale) SiO2 
 PCOD9520817
Probable space group: I M M M
;
_chemical_formula_sum "Si O2"
_cell_formula_units_Z 82
_cell_length_a 13.582198
_cell_length_b 20.571070
_cell_length_c 18.440461
_cell_angle_alpha 90.000000
_cell_angle_beta 90.000000
_cell_angle_gamma 90.000000
_cell_volume 5152.271180
_symmetry_space_group_name_H-M "I M M M"
_symmetry_group_IT_number 71
_symmetry_cell_setting 'orthorhombic'
loop_
_space_group_symop_operation_xyz
x,y,z
-x,-y,z
x,-y,-z
-x,y,-z
-x,-y,-z
x,y,-z
-x,y,z
x,-y,z
1/2+x,1/2+y,1/2+z
1/2-x,1/2-y,1/2+z
1/2+x,1/2-y,1/2-z
1/2-x,1/2+y,1/2-z
1/2-x,1/2-y,1/2-z
1/2+x,1/2+y,1/2-z
1/2-x,1/2+y,1/2+z
1/2+x,1/2-y,1/2+z
loop_
_atom_site_type_symbol
_atom_site_label
_atom_site_fract_x
_atom_site_fract_y
_atom_site_fract_z
Si Si1 0.196022 0.804699 0.153299
Si Si2 0.116281 0.761951 0.000000
Si Si3 0.213457 0.576009 0.157741
Si Si4 0.333037 0.111717 0.500000
Si Si5 0.000000 0.500000 0.000000
Si Si6 0.884723 0.312988 0.748492
Si Si7 0.113290 0.073787 0.230845
O O1 0.144220 0.748939 0.202098
O O2 0.309380 0.809518 0.180478
O O3 0.147023 0.873137 0.173436
O O4 0.172533 0.787230 0.071073
O O5 0.123069 0.683808 0.000000
O O6 0.000000 0.780254 0.000000
O O7 0.181850 0.500000 0.158274
O O8 0.223121 0.600689 0.075666
O O9 0.140654 0.623117 0.202993
O O10 0.316429 0.581005 0.199825
O O11 0.415800 0.056851 0.500000
O O12 0.000000 0.311848 0.730147
O O13 0.000000 0.083755 0.250254
O O14 0.125399 0.000000 0.203680
#
# Coordination Sequence:
#
# PCOD9520817 Si02
#       7
#    16   8  16   8   2  16  16
#     4  10  21  35  52  77 103 131 173 219 254 309
#     4  12  22  34  54  77 105 138 172 209 261 306
#     4  10  20  32  50  77 109 137 170 212 251 307
#     4  12  22  32  45  74 111 140 172 206 252 308
#     4  12  24  32  48  68 114 156 162 202 272 304
#     4  10  20  34  54  74 101 137 174 211 257 302
#     4   9  18  35  56  75  98 134 175 217 264 305
#
# _framework density 15.91531
#
# number of rings (size 3 to 8) (size 9 to 14) (size 15 to 20)
#    0.000    1.756    3.415    1.756    1.366    0.390 
#    0.000    1.463    0.000    5.268    0.000    0.000 
#    0.000    6.244    0.000    0.000    0.000    0.000 
#
# Total GULP energy -228321.031783 kJ/mol
# GULP energy per Si atom -5568.805653 kJ/mol
# Density = 1.587909 g / cm^3
# Si number density = 15.915310 Si / 1000 Ang^3
#
#
#
# Elastic Constant Matrix: (Units=GPa)
#
#
# Indices 1 2 3 4 5 6 
#
# 1 119.3451 61.5537 52.9333 0.0000 0.0000 0.0000
# 2 61.5537 95.4221 60.3372 0.0000 0.0000 0.0000
# 3 52.9333 60.3372 117.8867 0.0000 0.0000 0.0000
# 4 0.0000 0.0000 0.0000 23.0547 0.0000 0.0000
# 5 0.0000 0.0000 0.0000 0.0000 -14.9100 0.0000
# 6 0.0000 0.0000 0.0000 0.0000 0.0000 27.9138
#
#
#
# Elastic Compliance Matrix: (Units=1/GPa)
#
#
# Indices 1 2 3 4 5 6 
#
# 1 0.012957 -0.006919 -0.002277 0.000000 0.000000 0.000000
# 2 -0.006919 0.019188 -0.006715 0.000000 0.000000 0.000000
# 3 -0.002277 -0.006715 0.012942 0.000000 0.000000 0.000000
# 4 0.000000 0.000000 0.000000 0.043375 0.000000 0.000000
# 5 0.000000 0.000000 0.000000 0.000000 -0.067069 0.000000
# 6 0.000000 0.000000 0.000000 0.000000 0.000000 0.035825
#
#
# Mechanical properties :
#
#
# Convention : Reuss Voigt Hill
#
# Bulk Modulus (GPa) = 75.37291 75.81136 75.59214
# Shear Modulus (GPa) = 53.49847 17.73369 35.61608
#
# Velocity S-wave (km/s) = 5.80409 3.34166 4.73572
# Velocity P-wave (km/s) = 9.61136 7.91370 8.80354
#
# Compressibility (1/GPa) = 0.01326737
#
# Stress axis : x y z
#
# Youngs Moduli (GPa) = 77.17649 52.11476 77.26904
#
# Poissons Ratio (x) = 0.36056 0.17594
# Poissons Ratio (y) = 0.53395 0.51883
# Poissons Ratio (z) = 0.17573 0.34993
#
# Static dielectric constant tensor:
#      x y z
#    x 1.521790 0.000000 0.000000 
#    y 0.000000 1.550490 0.000000 
#    z 0.000000 0.000000 1.172010 
# 
# From -- ./inp_files/43314.got.cif
#   From: 2010.05.17/outbox.cif.g08.bks.cpg/sg71_22_cif.got.tgz:43314.got - 2010.06.03 16:22:01.
