data_PCOD9520768
_publ_section_title
;
Structure prediction by ZEFSAII (Michael W. Deem and Ramdas Pophale) SiO2 
 PCOD9520768
Probable space group: I M M M
;
_chemical_formula_sum "Si O2"
_cell_formula_units_Z 72
_cell_length_a 27.997559
_cell_length_b 19.436116
_cell_length_c 8.847612
_cell_angle_alpha 90.000000
_cell_angle_beta 90.000000
_cell_angle_gamma 90.000000
_cell_volume 4814.550206
_symmetry_space_group_name_H-M "I M M M"
_symmetry_group_IT_number 71
_symmetry_cell_setting 'orthorhombic'
loop_
_space_group_symop_operation_xyz
x,y,z
-x,-y,z
x,-y,-z
-x,y,-z
-x,-y,-z
x,y,-z
-x,y,z
x,-y,z
1/2+x,1/2+y,1/2+z
1/2-x,1/2-y,1/2+z
1/2+x,1/2-y,1/2-z
1/2-x,1/2+y,1/2-z
1/2-x,1/2-y,1/2-z
1/2+x,1/2+y,1/2-z
1/2-x,1/2+y,1/2+z
1/2+x,1/2-y,1/2+z
loop_
_atom_site_type_symbol
_atom_site_label
_atom_site_fract_x
_atom_site_fract_y
_atom_site_fract_z
Si Si1 0.676074 0.217789 0.179300
Si Si2 0.847969 0.500000 0.677019
Si Si3 0.000000 0.418127 0.681510
Si Si4 0.731894 0.644084 0.179305
Si Si5 0.901091 0.629637 0.819708
Si Si6 0.266892 0.500000 0.675938
O O1 0.692878 0.296111 0.205016
O O2 0.719621 0.170921 0.241353
O O3 0.627516 0.196187 0.261214
O O4 0.671551 0.205713 0.000000
O O5 0.862200 0.500000 0.500000
O O6 0.869474 0.566170 0.758595
O O7 0.790938 0.500000 0.685274
O O8 0.953025 0.382464 0.748730
O O9 0.000000 0.500000 0.721409
O O10 0.000000 0.413714 0.500000
O O11 0.717331 0.570385 0.244507
O O12 0.740719 0.639159 0.000000
O O13 0.903644 0.628681 0.000000
O O14 0.280204 0.500000 0.500000
#
# Coordination Sequence:
#
# PCOD9520768 Si02
#       6
#    16   8   8  16  16   8
#     4  10  20  34  49  68  95 127 161 198 243 290
#     4  11  21  32  46  67  94 130 166 200 242 287
#     4  11  23  37  53  69  94 129 162 203 246 284
#     4  10  20  32  49  70  94 125 163 202 238 284
#     4  12  23  34  51  71  94 125 164 207 243 285
#     4  11  21  31  48  70  98 129 163 203 242 288
#
# _framework density 14.954668
#
# number of rings (size 3 to 8) (size 9 to 14) (size 15 to 20)
#    0.000    1.222    3.333    4.333    0.000    4.000 
#    0.000    0.000    0.000    0.000    0.000    0.000 
#    0.000    0.889    0.000    9.333    0.000    4.444 
#
# Total GULP energy -201100.204449 kJ/mol
# GULP energy per Si atom -5586.116790 kJ/mol
# Density = 1.492063 g / cm^3
# Si number density = 14.954668 Si / 1000 Ang^3
#
#
#
# Elastic Constant Matrix: (Units=GPa)
#
#
# Indices 1 2 3 4 5 6 
#
# 1 79.4325 36.4141 54.1295 0.0000 0.0000 0.0000
# 2 36.4141 104.6060 59.4522 0.0000 0.0000 0.0000
# 3 54.1295 59.4522 116.2834 0.0000 0.0000 0.0000
# 4 0.0000 0.0000 0.0000 24.4699 0.0000 0.0000
# 5 0.0000 0.0000 0.0000 0.0000 22.7718 0.0000
# 6 0.0000 0.0000 0.0000 0.0000 0.0000 13.6260
#
#
#
# Elastic Compliance Matrix: (Units=1/GPa)
#
#
# Indices 1 2 3 4 5 6 
#
# 1 0.018795 -0.002213 -0.007617 0.000000 0.000000 0.000000
# 2 -0.002213 0.013736 -0.005992 0.000000 0.000000 0.000000
# 3 -0.007617 -0.005992 0.015209 0.000000 0.000000 0.000000
# 4 0.000000 0.000000 0.000000 0.040866 0.000000 0.000000
# 5 0.000000 0.000000 0.000000 0.000000 0.043914 0.000000
# 6 0.000000 0.000000 0.000000 0.000000 0.000000 0.073389
#
#
# Mechanical properties :
#
#
# Convention : Reuss Voigt Hill
#
# Bulk Modulus (GPa) = 62.13576 66.70149 64.41862
# Shear Modulus (GPa) = 20.58289 22.19530 21.38909
#
# Velocity S-wave (km/s) = 3.71395 3.85667 3.78598
# Velocity P-wave (km/s) = 7.74796 8.03313 7.89183
#
# Compressibility (1/GPa) = 0.01609379
#
# Stress axis : x y z
#
# Youngs Moduli (GPa) = 53.20618 72.80172 65.74938
#
# Poissons Ratio (x) = 0.16114 0.50083
# Poissons Ratio (y) = 0.11776 0.39400
# Poissons Ratio (z) = 0.40529 0.43626
#
# Static dielectric constant tensor:
#      x y z
#    x 1.479310 0.000000 0.000000 
#    y 0.000000 1.511860 0.000000 
#    z 0.000000 0.000000 1.498980 
# 
# From -- ./inp_files/8200.got.cif
#   From: 2010.05.17/outbox.cif.g08.bks.cpg/sg71_5_cif.got.tgz:8200.got - 2010.06.03 16:22:01.
