data_PCOD9520998
_publ_section_title
;
Structure prediction by ZEFSAII (Michael W. Deem and Ramdas Pophale) SiO2 
 PCOD9520998
Probable space group: I M M M
;
_chemical_formula_sum "Si O2"
_cell_formula_units_Z 120
_cell_length_a 8.995594
_cell_length_b 27.781982
_cell_length_c 27.934613
_cell_angle_alpha 90.000000
_cell_angle_beta 90.000000
_cell_angle_gamma 90.000000
_cell_volume 6981.290836
_symmetry_space_group_name_H-M "I M M M"
_symmetry_group_IT_number 71
_symmetry_cell_setting 'orthorhombic'
loop_
_space_group_symop_operation_xyz
x,y,z
-x,-y,z
x,-y,-z
-x,y,-z
-x,-y,-z
x,y,-z
-x,y,z
x,-y,z
1/2+x,1/2+y,1/2+z
1/2-x,1/2-y,1/2+z
1/2+x,1/2-y,1/2-z
1/2-x,1/2+y,1/2-z
1/2-x,1/2-y,1/2-z
1/2+x,1/2+y,1/2-z
1/2-x,1/2+y,1/2+z
1/2+x,1/2-y,1/2+z
loop_
_atom_site_type_symbol
_atom_site_label
_atom_site_fract_x
_atom_site_fract_y
_atom_site_fract_z
Si Si1 0.322731 0.800987 0.738963
Si Si2 0.678964 0.554706 0.814241
Si Si3 0.176866 0.500000 0.556724
Si Si4 0.677854 0.591185 0.392358
Si Si5 0.178128 0.645604 0.140164
Si Si6 0.177882 0.107642 0.216648
Si Si7 0.823572 0.317998 0.556980
Si Si8 0.178538 0.715255 0.944370
O O1 0.500000 0.797647 0.743113
O O2 0.250000 0.750000 0.750000
O O3 0.286300 0.819928 0.685437
O O4 0.259905 0.842147 0.773830
O O5 0.500000 0.555897 0.817807
O O6 0.728856 0.500000 0.822660
O O7 0.746456 0.594523 0.849481
O O8 0.717889 0.571999 0.760240
O O9 0.204041 0.500000 0.500000
O O10 0.248436 0.547128 0.579943
O O11 0.000000 0.500000 0.564544
O O12 0.500000 0.590018 0.398216
O O13 0.712050 0.587988 0.335838
O O14 0.741586 0.640840 0.413319
O O15 0.222780 0.672941 0.091793
O O16 0.000000 0.639039 0.139618
O O17 0.000000 0.115774 0.219165
O O18 0.799299 0.326312 0.500000
O O19 0.758483 0.265307 0.568116
O O20 0.000000 0.319437 0.565793
O O21 0.000000 0.722078 0.939930
O O22 0.211074 0.704168 0.000000
#
# Coordination Sequence:
#
# PCOD9520998 Si02
#       8
#    16  16   8  16  16  16  16  16
#     4  10  20  33  50  74 108 142 175 213 259 313
#     4   9  18  34  57  79 103 136 173 213 260 317
#     4  11  25  43  59  77 105 139 177 227 282 331
#     4  11  23  37  58  81 103 135 178 226 273 322
#     4   9  19  34  52  77 107 137 173 217 262 309
#     4   9  20  36  53  76 105 136 174 217 263 311
#     4  10  21  36  53  76 107 140 175 218 267 318
#     4   9  18  34  56  80 107 141 179 217 260 311
#
# _framework density 17.188797999999998
#
# number of rings (size 3 to 8) (size 9 to 14) (size 15 to 20)
#    0.000    2.333    0.000    1.800    2.800    5.333 
#    0.000    0.000    0.000    0.400    0.000    2.800 
#    0.000    0.000    0.000    0.000    0.000    0.000 
#
# Total GULP energy -334903.890684 kJ/mol
# GULP energy per Si atom -5581.731511 kJ/mol
# Density = 1.714968 g / cm^3
# Si number density = 17.188798 Si / 1000 Ang^3
#
#
#
# Elastic Constant Matrix: (Units=GPa)
#
#
# Indices 1 2 3 4 5 6 
#
# 1 36.6754 53.4728 52.7523 0.0000 0.0000 0.0000
# 2 53.4728 162.0993 85.0725 0.0000 0.0000 0.0000
# 3 52.7523 85.0725 102.1875 0.0000 0.0000 0.0000
# 4 0.0000 0.0000 0.0000 19.3297 0.0000 0.0000
# 5 0.0000 0.0000 0.0000 0.0000 23.6381 0.0000
# 6 0.0000 0.0000 0.0000 0.0000 0.0000 34.1509
#
#
#
# Elastic Compliance Matrix: (Units=1/GPa)
#
#
# Indices 1 2 3 4 5 6 
#
# 1 0.118447 -0.012401 -0.050822 0.000000 0.000000 0.000000
# 2 -0.012401 0.012254 -0.003800 0.000000 0.000000 0.000000
# 3 -0.050822 -0.003800 0.039186 0.000000 0.000000 0.000000
# 4 0.000000 0.000000 0.000000 0.051734 0.000000 0.000000
# 5 0.000000 0.000000 0.000000 0.000000 0.042305 0.000000
# 6 0.000000 0.000000 0.000000 0.000000 0.000000 0.029282
#
#
# Mechanical properties :
#
#
# Convention : Reuss Voigt Hill
#
# Bulk Modulus (GPa) = 27.90126 75.95083 51.92604
# Shear Modulus (GPa) = 11.38434 22.73472 17.05953
#
# Velocity S-wave (km/s) = 2.57633 3.64077 3.15378
# Velocity P-wave (km/s) = 5.01173 7.87120 6.59823
#
# Compressibility (1/GPa) = 0.03584068
#
# Stress axis : x y z
#
# Youngs Moduli (GPa) = 8.44260 81.60526 25.51952
#
# Poissons Ratio (x) = 1.01195 1.29696
# Poissons Ratio (y) = 0.10469 0.09698
# Poissons Ratio (z) = 0.42907 0.31012
#
# Static dielectric constant tensor:
#      x y z
#    x 1.572880 0.000000 0.000000 
#    y 0.000000 1.550670 0.000000 
#    z 0.000000 0.000000 1.582230 
# 
# From -- ./inp_files/63838.got.cif
#   From: 2010.05.17/outbox.cif.g08.bks.cpg/sg71_32_cif.got.tgz:63838.got - 2010.06.03 16:22:01.
