data_PCOD9520949
_publ_section_title
;
Structure prediction by ZEFSAII (Michael W. Deem and Ramdas Pophale) SiO2 
 PCOD9520949
Probable space group: I M M M
;
_chemical_formula_sum "Si O2"
_cell_formula_units_Z 96
_cell_length_a 7.486437
_cell_length_b 37.553779
_cell_length_c 16.440619
_cell_angle_alpha 90.000000
_cell_angle_beta 90.000000
_cell_angle_gamma 90.000000
_cell_volume 4622.181398
_symmetry_space_group_name_H-M "I M M M"
_symmetry_group_IT_number 71
_symmetry_cell_setting 'orthorhombic'
loop_
_space_group_symop_operation_xyz
x,y,z
-x,-y,z
x,-y,-z
-x,y,-z
-x,-y,-z
x,y,-z
-x,y,z
x,-y,z
1/2+x,1/2+y,1/2+z
1/2-x,1/2-y,1/2+z
1/2+x,1/2-y,1/2-z
1/2-x,1/2+y,1/2-z
1/2-x,1/2-y,1/2-z
1/2+x,1/2+y,1/2-z
1/2-x,1/2+y,1/2+z
1/2+x,1/2-y,1/2+z
loop_
_atom_site_type_symbol
_atom_site_label
_atom_site_fract_x
_atom_site_fract_y
_atom_site_fract_z
Si Si1 0.218136 0.355540 0.500000
Si Si2 0.789688 0.539325 0.253686
Si Si3 0.790924 0.847953 0.332061
Si Si4 0.216845 0.388183 0.669328
Si Si5 0.285363 0.267800 0.162222
Si Si6 0.281485 0.226534 0.000000
Si Si7 0.216448 0.079068 0.590832
O O1 0.276128 0.375352 0.581479
O O2 0.274379 0.314525 0.500000
O O3 0.000000 0.355653 0.500000
O O4 0.713194 0.500000 0.266740
O O5 0.717167 0.572607 0.305218
O O6 0.772445 0.551519 0.160088
O O7 0.000000 0.537457 0.272471
O O8 0.774313 0.860646 0.238980
O O9 0.715605 0.808412 0.341572
O O10 0.718228 0.881361 0.383606
O O11 0.000000 0.845666 0.353697
O O12 0.000000 0.388658 0.670820
O O13 0.500000 0.269339 0.156017
O O14 0.250000 0.250000 0.250000
O O15 0.222778 0.245741 0.083388
O O16 0.500000 0.227033 0.000000
O O17 0.274375 0.070066 0.500000
O O18 0.000000 0.079858 0.592295
#
# Coordination Sequence:
#
# PCOD9520949 Si02
#       7
#     8  16  16  16  16   8  16
#     4   9  16  28  48  71  92 116 156 199 229 272
#     4   9  18  32  48  68  96 126 154 188 234 285
#     4   9  18  31  48  69  94 123 157 196 236 278
#     4   9  17  31  51  71  92 123 158 193 234 281
#     4  10  20  33  50  71  97 129 165 203 246 292
#     4   9  18  30  47  72  97 126 161 197 242 293
#     4   9  18  31  48  70  94 122 158 196 232 273
#
# _framework density 20.769414000000001
#
# number of rings (size 3 to 8) (size 9 to 14) (size 15 to 20)
#    0.000    2.833    0.000    1.000    1.167    3.000 
#    0.000    2.917    0.000    5.500    0.000    0.000 
#    0.000    5.333    0.000    0.000    0.000    0.000 
#
# Total GULP energy -267858.965086 kJ/mol
# GULP energy per Si atom -5580.395106 kJ/mol
# Density = 2.072214 g / cm^3
# Si number density = 20.769414 Si / 1000 Ang^3
#
#
#
# Elastic Constant Matrix: (Units=GPa)
#
#
# Indices 1 2 3 4 5 6 
#
# 1 58.1820 1.1891 -10.4525 0.0000 0.0000 0.0000
# 2 1.1891 177.6701 81.2462 0.0000 0.0000 0.0000
# 3 -10.4525 81.2462 128.3994 0.0000 0.0000 0.0000
# 4 0.0000 0.0000 0.0000 8.4535 0.0000 0.0000
# 5 0.0000 0.0000 0.0000 0.0000 19.3676 0.0000
# 6 0.0000 0.0000 0.0000 0.0000 0.0000 10.6991
#
#
#
# Elastic Compliance Matrix: (Units=1/GPa)
#
#
# Indices 1 2 3 4 5 6 
#
# 1 0.017590 -0.001087 0.002120 0.000000 0.000000 0.000000
# 2 -0.001087 0.007987 -0.005143 0.000000 0.000000 0.000000
# 3 0.002120 -0.005143 0.011215 0.000000 0.000000 0.000000
# 4 0.000000 0.000000 0.000000 0.118294 0.000000 0.000000
# 5 0.000000 0.000000 0.000000 0.000000 0.051632 0.000000
# 6 0.000000 0.000000 0.000000 0.000000 0.000000 0.093466
#
#
# Mechanical properties :
#
#
# Convention : Reuss Voigt Hill
#
# Bulk Modulus (GPa) = 34.99815 56.46857 45.73336
# Shear Modulus (GPa) = 15.72680 27.18864 21.45772
#
# Velocity S-wave (km/s) = 2.75473 3.62203 3.21774
# Velocity P-wave (km/s) = 5.19668 6.68876 5.98936
#
# Compressibility (1/GPa) = 0.02857294
#
# Stress axis : x y z
#
# Youngs Moduli (GPa) = 56.84891 125.19866 89.16810
#
# Poissons Ratio (x) = 0.13610 -0.18902
# Poissons Ratio (y) = 0.06180 0.45855
# Poissons Ratio (z) = -0.12051 0.64384
#
# Static dielectric constant tensor:
#      x y z
#    x 1.804590 0.000000 0.000000 
#    y 0.000000 1.739560 0.000000 
#    z 0.000000 0.000000 1.700100 
# 
# From -- ./inp_files/33241.got.cif
#   From: 2010.05.17/outbox.cif.g08.bks.cpg/sg71_17_cif.got.tgz:33241.got - 2010.06.03 16:22:01.
