data_PCOD9520524
_publ_section_title
;
Structure prediction by ZEFSAII (Michael W. Deem and Ramdas Pophale) SiO2 
 PCOD9520524
Probable space group: I M M M
;
_chemical_formula_sum "Si O2"
_cell_formula_units_Z 54
_cell_length_a 11.049679
_cell_length_b 13.482622
_cell_length_c 18.508304
_cell_angle_alpha 90.000000
_cell_angle_beta 90.000000
_cell_angle_gamma 90.000000
_cell_volume 2757.342054
_symmetry_space_group_name_H-M "I M M M"
_symmetry_group_IT_number 71
_symmetry_cell_setting 'orthorhombic'
loop_
_space_group_symop_operation_xyz
x,y,z
-x,-y,z
x,-y,-z
-x,y,-z
-x,-y,-z
x,y,-z
-x,y,z
x,-y,z
1/2+x,1/2+y,1/2+z
1/2-x,1/2-y,1/2+z
1/2+x,1/2-y,1/2-z
1/2-x,1/2+y,1/2-z
1/2-x,1/2-y,1/2-z
1/2+x,1/2+y,1/2-z
1/2-x,1/2+y,1/2+z
1/2+x,1/2-y,1/2+z
loop_
_atom_site_type_symbol
_atom_site_label
_atom_site_fract_x
_atom_site_fract_y
_atom_site_fract_z
Si Si1 0.000000 0.164661 0.000000
Si Si2 0.743045 0.883916 0.705467
Si Si3 0.000000 0.329412 0.121163
Si Si4 0.860105 0.306410 0.347732
Si Si5 0.000000 0.500000 0.000000
Si Si6 0.273877 0.887115 0.000000
O O1 0.000000 0.230136 0.073656
O O2 0.128242 0.110533 0.000000
O O3 0.618787 0.844796 0.669234
O O4 0.842553 0.809155 0.673537
O O5 0.723168 0.865748 0.790658
O O6 0.761724 0.000000 0.690110
O O7 0.000000 0.415056 0.062283
O O8 0.818562 0.330230 0.428619
O O9 0.000000 0.335365 0.339066
O O10 0.320683 0.000000 0.000000
#
# Coordination Sequence:
#
# PCOD9520524 Si02
#       6
#     4  16   8  16   2   8
#     4  11  23  41  63  96 126 158 202 262 322 364
#     4  11  22  41  67  93 122 164 207 260 315 374
#     4  11  19  37  66  93 125 155 203 260 316 374
#     4  11  25  42  63  91 129 166 213 254 309 374
#     4  10  20  28  62 108 112 150 198 252 310 382
#     4  12  25  43  64  92 126 170 208 260 310 372
#
# _framework density 19.584078000000002
#
# number of rings (size 3 to 8) (size 9 to 14) (size 15 to 20)
#    0.000    0.889    5.926    1.556    0.000    2.963 
#    0.000    0.000    0.000    1.778    0.000    0.000 
#    0.000    0.000    0.000    0.000    0.000    0.000 
#
# Total GULP energy -150561.751128 kJ/mol
# GULP energy per Si atom -5576.361153 kJ/mol
# Density = 1.953950 g / cm^3
# Si number density = 19.584078 Si / 1000 Ang^3
#
#
#
# Elastic Constant Matrix: (Units=GPa)
#
#
# Indices 1 2 3 4 5 6 
#
# 1 48.3103 7.7972 14.7144 0.0000 0.0000 0.0000
# 2 7.7972 111.7118 30.9526 0.0000 0.0000 0.0000
# 3 14.7144 30.9526 155.0471 0.0000 0.0000 0.0000
# 4 0.0000 0.0000 0.0000 17.8593 0.0000 0.0000
# 5 0.0000 0.0000 0.0000 0.0000 10.9072 0.0000
# 6 0.0000 0.0000 0.0000 0.0000 0.0000 38.8129
#
#
#
# Elastic Compliance Matrix: (Units=1/GPa)
#
#
# Indices 1 2 3 4 5 6 
#
# 1 0.021418 -0.000986 -0.001836 0.000000 0.000000 0.000000
# 2 -0.000986 0.009521 -0.001807 0.000000 0.000000 0.000000
# 3 -0.001836 -0.001807 0.006985 0.000000 0.000000 0.000000
# 4 0.000000 0.000000 0.000000 0.055993 0.000000 0.000000
# 5 0.000000 0.000000 0.000000 0.000000 0.091683 0.000000
# 6 0.000000 0.000000 0.000000 0.000000 0.000000 0.025765
#
#
# Mechanical properties :
#
#
# Convention : Reuss Voigt Hill
#
# Bulk Modulus (GPa) = 34.88533 46.88861 40.88697
# Shear Modulus (GPa) = 21.72237 30.95622 26.33929
#
# Velocity S-wave (km/s) = 3.33406 3.98009 3.67131
# Velocity P-wave (km/s) = 5.71603 6.71682 6.23653
#
# Compressibility (1/GPa) = 0.02866534
#
# Stress axis : x y z
#
# Youngs Moduli (GPa) = 46.69009 105.02923 143.17142
#
# Poissons Ratio (x) = 0.10359 0.26282
# Poissons Ratio (y) = 0.04605 0.25873
# Poissons Ratio (z) = 0.08571 0.18980
#
# Static dielectric constant tensor:
#      x y z
#    x 1.669460 0.000000 0.000000 
#    y 0.000000 1.670500 0.000000 
#    z 0.000000 0.000000 1.677140 
# 
# From -- ./inp_files/32085.got.cif
#   From: 2010.05.17/outbox.cif.g08.bks.cpg/sg71_17_cif.got.tgz:32085.got - 2010.06.03 16:22:01.
