data_PCOD9520717
_publ_section_title
;
Structure prediction by ZEFSAII (Michael W. Deem and Ramdas Pophale) SiO2 
 PCOD9520717
Probable space group: I M M M
;
_chemical_formula_sum "Si O2"
_cell_formula_units_Z 96
_cell_length_a 32.867610
_cell_length_b 15.470700
_cell_length_c 9.462289
_cell_angle_alpha 90.000000
_cell_angle_beta 90.000000
_cell_angle_gamma 90.000000
_cell_volume 4811.431398
_symmetry_space_group_name_H-M "I M M M"
_symmetry_group_IT_number 71
_symmetry_cell_setting 'orthorhombic'
loop_
_space_group_symop_operation_xyz
x,y,z
-x,-y,z
x,-y,-z
-x,y,-z
-x,-y,-z
x,y,-z
-x,y,z
x,-y,z
1/2+x,1/2+y,1/2+z
1/2-x,1/2-y,1/2+z
1/2+x,1/2-y,1/2-z
1/2-x,1/2+y,1/2-z
1/2-x,1/2-y,1/2-z
1/2+x,1/2+y,1/2-z
1/2-x,1/2+y,1/2+z
1/2+x,1/2-y,1/2+z
loop_
_atom_site_type_symbol
_atom_site_label
_atom_site_fract_x
_atom_site_fract_y
_atom_site_fract_z
Si Si1 0.297864 0.843882 0.832113
Si Si2 0.624677 0.853445 0.339852
Si Si3 0.708904 0.661859 0.669687
Si Si4 0.121996 0.145840 0.842677
Si Si5 0.454577 0.895929 0.838552
Si Si6 0.456000 0.603981 0.161618
O O1 0.336119 0.883782 0.749652
O O2 0.292983 0.746559 0.769392
O O3 0.252672 0.882656 0.808648
O O4 0.306014 0.842325 0.000000
O O5 0.625222 0.886991 0.500000
O O6 0.627484 0.749389 0.347132
O O7 0.582347 0.871868 0.262209
O O8 0.707899 0.685253 0.500000
O O9 0.666835 0.611826 0.698243
O O10 0.084199 0.128787 0.743577
O O11 0.112324 0.114214 0.000000
O O12 0.500000 0.866030 0.795115
O O13 0.455841 0.000000 0.842239
O O14 0.447278 0.865879 0.000000
O O15 0.500000 0.633543 0.220569
O O16 0.457038 0.500000 0.159253
O O17 0.453463 0.634579 0.000000
#
# Coordination Sequence:
#
# PCOD9520717 Si02
#       6
#    16  16  16  16  16  16
#     4   9  15  25  44  67  93 127 162 193 231 279
#     4  10  20  32  47  72 104 130 156 195 239 281
#     4   8  15  27  42  65  97 126 154 193 238 282
#     4   9  18  31  47  71 100 125 153 192 235 278
#     4   9  19  36  55  73  94 123 161 201 239 285
#     4   9  19  35  51  67  90 121 157 196 237 281
#
# _framework density 19.952483000000001
#
# number of rings (size 3 to 8) (size 9 to 14) (size 15 to 20)
#    0.000    3.000    0.000    3.000    0.000    6.000 
#    0.000    5.000    0.000    1.000    0.000    2.333 
#    0.000    0.000    0.000    0.000    0.000    0.000 
#
# Total GULP energy -267310.029458 kJ/mol
# GULP energy per Si atom -5568.958947 kJ/mol
# Density = 1.990707 g / cm^3
# Si number density = 19.952483 Si / 1000 Ang^3
#
#
#
# Elastic Constant Matrix: (Units=GPa)
#
#
# Indices 1 2 3 4 5 6 
#
# 1 249.6225 9.1146 118.5849 0.0000 0.0000 0.0000
# 2 9.1146 23.1396 4.5940 0.0000 0.0000 0.0000
# 3 118.5849 4.5940 107.7215 0.0000 0.0000 0.0000
# 4 0.0000 0.0000 0.0000 984.1176 0.0000 0.0000
# 5 0.0000 0.0000 0.0000 0.0000 39.4950 0.0000
# 6 0.0000 0.0000 0.0000 0.0000 0.0000 53.8639
#
#
#
# Elastic Compliance Matrix: (Units=1/GPa)
#
#
# Indices 1 2 3 4 5 6 
#
# 1 0.008449 -0.001494 -0.009237 0.000000 0.000000 0.000000
# 2 -0.001494 0.043849 -0.000225 0.000000 0.000000 0.000000
# 3 -0.009237 -0.000225 0.019461 0.000000 0.000000 0.000000
# 4 0.000000 0.000000 0.000000 0.001016 0.000000 0.000000
# 5 0.000000 0.000000 0.000000 0.000000 0.025320 0.000000
# 6 0.000000 0.000000 0.000000 0.000000 0.000000 0.018565
#
#
# Mechanical properties :
#
#
# Convention : Reuss Voigt Hill
#
# Bulk Modulus (GPa) = 20.06159 71.67450 45.86805
# Shear Modulus (GPa) = 32.21885 232.04131 132.13008
#
# Velocity S-wave (km/s) = 4.02279 10.79581 8.14654
# Velocity P-wave (km/s) = 5.62616 13.83473 10.56062
#
# Compressibility (1/GPa) = 0.04984650
#
# Stress axis : x y z
#
# Youngs Moduli (GPa) = 118.36113 22.80543 51.38386
#
# Poissons Ratio (x) = 0.03407 0.47463
# Poissons Ratio (y) = 0.17684 0.01158
# Poissons Ratio (z) = 1.09331 0.00514
#
# Static dielectric constant tensor:
#      x y z
#    x 1.765960 0.000000 0.000000 
#    y 0.000000 1.730360 0.000000 
#    z 0.000000 0.000000 1.689630 
# 
# From -- ./inp_files/14843.got.cif
#   From: 2010.05.17/outbox.cif.g08.bks.cpg/sg71_8_cif.got.tgz:14843.got - 2010.06.03 16:22:01.
