data_PCOD9520947
_publ_section_title
;
Structure prediction by ZEFSAII (Michael W. Deem and Ramdas Pophale) SiO2 
 PCOD9520947
Probable space group: I M M M
;
_chemical_formula_sum "Si O2"
_cell_formula_units_Z 96
_cell_length_a 15.166889
_cell_length_b 27.457565
_cell_length_c 13.776104
_cell_angle_alpha 90.000000
_cell_angle_beta 90.000000
_cell_angle_gamma 90.000000
_cell_volume 5737.001210
_symmetry_space_group_name_H-M "I M M M"
_symmetry_group_IT_number 71
_symmetry_cell_setting 'orthorhombic'
loop_
_space_group_symop_operation_xyz
x,y,z
-x,-y,z
x,-y,-z
-x,y,-z
-x,-y,-z
x,y,-z
-x,y,z
x,-y,z
1/2+x,1/2+y,1/2+z
1/2-x,1/2-y,1/2+z
1/2+x,1/2-y,1/2-z
1/2-x,1/2+y,1/2-z
1/2-x,1/2-y,1/2-z
1/2+x,1/2+y,1/2-z
1/2-x,1/2+y,1/2+z
1/2+x,1/2-y,1/2+z
loop_
_atom_site_type_symbol
_atom_site_label
_atom_site_fract_x
_atom_site_fract_y
_atom_site_fract_z
Si Si1 0.500000 0.056972 0.891379
Si Si2 0.605354 0.834741 0.613468
Si Si3 0.500000 0.442745 0.618087
Si Si4 0.598248 0.779887 0.117352
Si Si5 0.162827 0.126288 0.117477
Si Si6 0.649347 0.884796 0.200602
Si Si7 0.795937 0.763941 0.117716
O O1 0.584844 0.073460 0.832633
O O2 0.500000 0.000000 0.901083
O O3 0.500000 0.079295 0.000000
O O4 0.624805 0.842810 0.500000
O O5 0.500000 0.834607 0.625911
O O6 0.646533 0.874168 0.685260
O O7 0.644544 0.782225 0.642838
O O8 0.500000 0.500000 0.649685
O O9 0.500000 0.444297 0.500000
O O10 0.415983 0.409610 0.647344
O O11 0.500000 0.762597 0.149809
O O12 0.610373 0.835533 0.151397
O O13 0.693065 0.756754 0.148110
O O14 0.597506 0.778011 0.000000
O O15 0.254166 0.106965 0.159503
O O16 0.163645 0.183678 0.148322
O O17 0.164985 0.126273 0.000000
O O18 0.794661 0.765879 0.000000
#
# Coordination Sequence:
#
# PCOD9520947 Si02
#       7
#     8  16   8  16  16  16  16
#     4  11  22  34  52  79 105 123 149 192 243 303
#     4  10  20  33  50  70  97 134 174 211 247 290
#     4   9  18  32  49  72 103 137 166 193 238 298
#     4   9  15  25  44  67  98 134 163 198 246 304
#     4   9  18  30  49  74 102 134 167 206 248 299
#     4  11  19  33  50  71  99 134 166 199 248 295
#     4   8  16  28  44  69  96 128 169 209 244 282
#
# _framework density 16.73348
#
# number of rings (size 3 to 8) (size 9 to 14) (size 15 to 20)
#    0.000    2.500    1.667    2.500    1.167    3.333 
#    0.000    1.667    1.833    1.000    0.000    0.000 
#    0.000    0.667    0.000    0.000    0.000    0.000 
#
# Total GULP energy -267385.538691 kJ/mol
# GULP energy per Si atom -5570.532056 kJ/mol
# Density = 1.669539 g / cm^3
# Si number density = 16.733480 Si / 1000 Ang^3
#
#
#
# Elastic Constant Matrix: (Units=GPa)
#
#
# Indices 1 2 3 4 5 6 
#
# 1 112.9898 49.6022 22.6158 0.0000 0.0000 0.0000
# 2 49.6022 66.6486 26.1101 0.0000 0.0000 0.0000
# 3 22.6158 26.1101 47.0125 -0.0001 0.0000 0.0000
# 4 0.0000 0.0000 -0.0001 15.6711 0.0000 0.0000
# 5 0.0000 0.0000 0.0000 0.0000 427.0690 0.0000
# 6 0.0000 0.0000 0.0000 0.0000 0.0000 23.4412
#
#
#
# Elastic Compliance Matrix: (Units=1/GPa)
#
#
# Indices 1 2 3 4 5 6 
#
# 1 0.013193 -0.009371 -0.001142 0.000000 0.000000 0.000000
# 2 -0.009371 0.025833 -0.009839 0.000000 0.000000 0.000000
# 3 -0.001142 -0.009839 0.027285 0.000000 0.000000 0.000000
# 4 0.000000 0.000000 0.000000 0.063812 0.000000 0.000000
# 5 0.000000 0.000000 0.000000 0.000000 0.002342 0.000000
# 6 0.000000 0.000000 0.000000 0.000000 0.000000 0.042660
#
#
# Mechanical properties :
#
#
# Convention : Reuss Voigt Hill
#
# Bulk Modulus (GPa) = 39.05323 47.03412 43.04367
# Shear Modulus (GPa) = 22.28521 101.79109 62.03815
#
# Velocity S-wave (km/s) = 3.65331 7.80787 6.09547
# Velocity P-wave (km/s) = 6.41752 10.46196 8.67863
#
# Compressibility (1/GPa) = 0.02560608
#
# Stress axis : x y z
#
# Youngs Moduli (GPa) = 75.79863 38.71018 36.65041
#
# Poissons Ratio (x) = 0.36276 0.04185
# Poissons Ratio (y) = 0.71033 0.36061
# Poissons Ratio (z) = 0.08656 0.38088
#
# Static dielectric constant tensor:
#      x y z
#    x 1.592280 0.000000 0.000000 
#    y 0.000000 1.547990 0.000000 
#    z 0.000000 0.000000 1.593630 
# 
# From -- ./inp_files/34780.got.cif
#   From: 2010.05.17/outbox.cif.g08.bks.cpg/sg71_18_cif.got.tgz:34780.got - 2010.06.03 16:22:01.
