data_PCOD9520490
_publ_section_title
;
Structure prediction by ZEFSAII (Michael W. Deem and Ramdas Pophale) SiO2 
 PCOD9520490
Probable space group: I M M M
;
_chemical_formula_sum "Si O2"
_cell_formula_units_Z 64
_cell_length_a 20.346488
_cell_length_b 16.009251
_cell_length_c 10.722130
_cell_angle_alpha 90.000000
_cell_angle_beta 90.000000
_cell_angle_gamma 90.000000
_cell_volume 3492.541207
_symmetry_space_group_name_H-M "I M M M"
_symmetry_group_IT_number 71
_symmetry_cell_setting 'orthorhombic'
loop_
_space_group_symop_operation_xyz
x,y,z
-x,-y,z
x,-y,-z
-x,y,-z
-x,-y,-z
x,y,-z
-x,y,z
x,-y,z
1/2+x,1/2+y,1/2+z
1/2-x,1/2-y,1/2+z
1/2+x,1/2-y,1/2-z
1/2-x,1/2+y,1/2-z
1/2-x,1/2-y,1/2-z
1/2+x,1/2+y,1/2-z
1/2-x,1/2+y,1/2+z
1/2+x,1/2-y,1/2+z
loop_
_atom_site_type_symbol
_atom_site_label
_atom_site_fract_x
_atom_site_fract_y
_atom_site_fract_z
Si Si1 0.216263 0.396757 0.000000
Si Si2 0.422678 0.628185 0.000000
Si Si3 0.820178 0.243291 0.500000
Si Si4 0.075818 0.500000 0.351184
Si Si5 0.791552 0.000000 0.853309
Si Si6 0.421493 0.500000 0.785096
Si Si7 0.814081 0.631481 0.274693
O O1 0.285496 0.347473 0.000000
O O2 0.182031 0.361930 0.874642
O O3 0.219176 0.500000 0.000000
O O4 0.405162 0.578215 0.874542
O O5 0.500000 0.626306 0.000000
O O6 0.396388 0.720864 0.000000
O O7 0.806216 0.292929 0.627548
O O8 0.072636 0.500000 0.500000
O O9 0.121263 0.421295 0.312983
O O10 0.000000 0.500000 0.303883
O O11 0.868583 0.000000 0.824389
O O12 0.752253 0.077722 0.795821
O O13 0.779080 0.000000 0.000000
O O14 0.500000 0.500000 0.754994
#
# Coordination Sequence:
#
# PCOD9520490 Si02
#       7
#     8   8   8   8   8   8  16
#     4  12  24  38  61  85 124 155 200 246 301 352
#     4   9  20  36  59  85 114 151 198 248 292 346
#     4  12  23  37  61  91 123 159 195 248 304 357
#     4  10  19  36  65  89 119 163 203 246 300 361
#     4  11  19  34  61  81 123 159 195 242 297 350
#     4   9  19  36  57  85 114 154 205 242 285 352
#     4  11  22  40  58  93 121 153 203 250 295 359
#
# _framework density 18.324766
#
# number of rings (size 3 to 8) (size 9 to 14) (size 15 to 20)
#    0.000    1.375    5.000    3.750    1.750    1.250 
#    0.000    1.250    0.000    0.000    0.000    0.000 
#    0.000    0.000    0.000    0.000    0.000    0.000 
#
# Total GULP energy -178199.982293 kJ/mol
# GULP energy per Si atom -5568.749447 kJ/mol
# Density = 1.828306 g / cm^3
# Si number density = 18.324766 Si / 1000 Ang^3
#
#
#
# Elastic Constant Matrix: (Units=GPa)
#
#
# Indices 1 2 3 4 5 6 
#
# 1 82.3687 12.7281 23.3037 0.0000 0.0000 0.0000
# 2 12.7281 65.9097 22.9040 0.0000 0.0000 0.0000
# 3 23.3037 22.9040 132.6641 0.0000 0.0000 0.0000
# 4 0.0000 0.0000 0.0000 -15.6952 0.0000 0.0000
# 5 0.0000 0.0000 0.0000 0.0000 28.8438 0.0000
# 6 0.0000 0.0000 0.0000 0.0000 0.0000 9.7007
#
#
#
# Elastic Compliance Matrix: (Units=1/GPa)
#
#
# Indices 1 2 3 4 5 6 
#
# 1 0.012978 -0.001823 -0.001965 0.000000 0.000000 0.000000
# 2 -0.001823 0.016397 -0.002511 0.000000 0.000000 0.000000
# 3 -0.001965 -0.002511 0.008316 0.000000 0.000000 0.000000
# 4 0.000000 0.000000 0.000000 -0.063714 0.000000 0.000000
# 5 0.000000 0.000000 0.000000 0.000000 0.034670 0.000000
# 6 0.000000 0.000000 0.000000 0.000000 0.000000 0.103086
#
#
# Mechanical properties :
#
#
# Convention : Reuss Voigt Hill
#
# Bulk Modulus (GPa) = 39.85080 44.31269 42.08174
# Shear Modulus (GPa) = 37.68033 19.37030 28.52532
#
# Velocity S-wave (km/s) = 4.53951 3.25477 3.94973
# Velocity P-wave (km/s) = 7.01929 6.19347 6.61927
#
# Compressibility (1/GPa) = 0.02509360
#
# Stress axis : x y z
#
# Youngs Moduli (GPa) = 77.05216 60.98739 120.24383
#
# Poissons Ratio (x) = 0.11121 0.23627
# Poissons Ratio (y) = 0.14050 0.30188
# Poissons Ratio (z) = 0.15140 0.15311
#
# Static dielectric constant tensor:
#      x y z
#    x 1.663030 0.000000 0.000000 
#    y 0.000000 1.638430 0.000000 
#    z 0.000000 0.000000 1.724400 
# 
# From -- ./inp_files/23279.got.cif
#   From: 2010.05.17/outbox.cif.g08.bks.cpg/sg71_12_cif.got.tgz:23279.got - 2010.06.03 16:22:01.
