data_PCOD9520938
_publ_section_title
;
Structure prediction by ZEFSAII (Michael W. Deem and Ramdas Pophale) SiO2 
 PCOD9520938
Probable space group: I M M M
;
_chemical_formula_sum "Si O2"
_cell_formula_units_Z 72
_cell_length_a 7.511370
_cell_length_b 15.228935
_cell_length_c 30.847724
_cell_angle_alpha 90.000000
_cell_angle_beta 90.000000
_cell_angle_gamma 90.000000
_cell_volume 3528.676253
_symmetry_space_group_name_H-M "I M M M"
_symmetry_group_IT_number 71
_symmetry_cell_setting 'orthorhombic'
loop_
_space_group_symop_operation_xyz
x,y,z
-x,-y,z
x,-y,-z
-x,y,-z
-x,-y,-z
x,y,-z
-x,y,z
x,-y,z
1/2+x,1/2+y,1/2+z
1/2-x,1/2-y,1/2+z
1/2+x,1/2-y,1/2-z
1/2-x,1/2+y,1/2-z
1/2-x,1/2-y,1/2-z
1/2+x,1/2+y,1/2-z
1/2-x,1/2+y,1/2+z
1/2+x,1/2-y,1/2+z
loop_
_atom_site_type_symbol
_atom_site_label
_atom_site_fract_x
_atom_site_fract_y
_atom_site_fract_z
Si Si1 0.782392 0.401740 0.864914
Si Si2 0.298961 0.158234 0.272025
Si Si3 0.500000 0.103904 0.948127
Si Si4 0.284603 0.714242 0.396139
Si Si5 0.286973 0.593558 0.317919
O O1 0.722451 0.500000 0.877042
O O2 0.715278 0.379037 0.815944
O O3 0.736791 0.317380 0.894317
O O4 0.000000 0.404961 0.865187
O O5 0.500000 0.171617 0.285637
O O6 0.250000 0.250000 0.250000
O O7 0.285435 0.096310 0.230513
O O8 0.671437 0.155880 0.929245
O O9 0.500000 0.000000 0.936254
O O10 0.500000 0.108724 0.000000
O O11 0.500000 0.705268 0.401708
O O12 0.236039 0.673349 0.348885
O O13 0.500000 0.597500 0.313852
O O14 0.238156 0.500000 0.338524
#
# Coordination Sequence:
#
# PCOD9520938 Si02
#       5
#    16  16   8  16  16
#     4   9  18  34  56  82 116 164 219 261 299 353
#     4  11  20  31  48  72 112 160 206 255 299 339
#     4  11  26  46  69  99 127 149 188 246 311 393
#     4  10  21  40  64  89 122 161 200 248 307 366
#     4  10  20  33  49  74 110 152 198 244 291 347
#
# _framework density 20.404252
#
# number of rings (size 3 to 8) (size 9 to 14) (size 15 to 20)
#    0.000    1.889    2.222    2.000    1.556    3.111 
#    2.000    1.667    0.000    1.333    0.000    3.111 
#    0.000    0.000    0.000    0.000    0.000    0.000 
#
# Total GULP energy -200673.110074 kJ/mol
# GULP energy per Si atom -5574.253058 kJ/mol
# Density = 2.035781 g / cm^3
# Si number density = 20.404252 Si / 1000 Ang^3
#
#
#
# Elastic Constant Matrix: (Units=GPa)
#
#
# Indices 1 2 3 4 5 6 
#
# 1 66.2222 37.8183 22.8467 0.0000 0.0000 0.0000
# 2 37.8183 208.8571 45.1086 0.0000 0.0000 0.0000
# 3 22.8467 45.1086 71.4997 0.0000 0.0000 0.0000
# 4 0.0000 0.0000 0.0000 22.1019 0.0000 0.0000
# 5 0.0000 0.0000 0.0000 0.0000 16.5311 0.0000
# 6 0.0000 0.0000 0.0000 0.0000 0.0000 0.7577
#
#
#
# Elastic Compliance Matrix: (Units=1/GPa)
#
#
# Indices 1 2 3 4 5 6 
#
# 1 0.017894 -0.002321 -0.004253 0.000000 0.000000 0.000000
# 2 -0.002321 0.005844 -0.002945 0.000000 0.000000 0.000000
# 3 -0.004253 -0.002945 0.017203 0.000000 0.000000 0.000000
# 4 0.000000 0.000000 0.000000 0.045245 0.000000 0.000000
# 5 0.000000 0.000000 0.000000 0.000000 0.060492 0.000000
# 6 0.000000 0.000000 0.000000 0.000000 0.000000 1.319724
#
#
# Mechanical properties :
#
#
# Convention : Reuss Voigt Hill
#
# Bulk Modulus (GPa) = 45.65887 62.01402 53.83645
# Shear Modulus (GPa) = 3.34954 23.93183 13.64068
#
# Velocity S-wave (km/s) = 1.28263 3.42846 2.58838
# Velocity P-wave (km/s) = 4.96178 6.79199 5.94770
#
# Compressibility (1/GPa) = 0.02190155
#
# Stress axis : x y z
#
# Youngs Moduli (GPa) = 55.88547 171.10185 58.12824
#
# Poissons Ratio (x) = 0.39721 0.24722
# Poissons Ratio (y) = 0.12974 0.17121
# Poissons Ratio (z) = 0.23769 0.50397
#
# Static dielectric constant tensor:
#      x y z
#    x 1.770670 0.000000 0.000000 
#    y 0.000000 1.788050 0.000000 
#    z 0.000000 0.000000 1.659040 
# 
# From -- ./inp_files/14304.got.cif
#   From: 2010.05.17/outbox.cif.g08.bks.cpg/sg71_8_cif.got.tgz:14304.got - 2010.06.03 16:22:01.
