data_PCOD9520124
_publ_section_title
;
Structure prediction by ZEFSAII (Michael W. Deem and Ramdas Pophale) SiO2 
 PCOD9520124
Probable space group: I M M M
;
_chemical_formula_sum "Si O2"
_cell_formula_units_Z 116
_cell_length_a 12.602682
_cell_length_b 17.175103
_cell_length_c 26.487170
_cell_angle_alpha 90.000000
_cell_angle_beta 90.000000
_cell_angle_gamma 90.000000
_cell_volume 5733.210494
_symmetry_space_group_name_H-M "I M M M"
_symmetry_group_IT_number 71
_symmetry_cell_setting 'orthorhombic'
loop_
_space_group_symop_operation_xyz
x,y,z
-x,-y,z
x,-y,-z
-x,y,-z
-x,-y,-z
x,y,-z
-x,y,z
x,-y,z
1/2+x,1/2+y,1/2+z
1/2-x,1/2-y,1/2+z
1/2+x,1/2-y,1/2-z
1/2-x,1/2+y,1/2-z
1/2-x,1/2-y,1/2-z
1/2+x,1/2+y,1/2-z
1/2-x,1/2+y,1/2+z
1/2+x,1/2-y,1/2+z
loop_
_atom_site_type_symbol
_atom_site_label
_atom_site_fract_x
_atom_site_fract_y
_atom_site_fract_z
Si Si1 0.202903 0.688854 0.395233
Si Si2 0.883295 0.406913 0.694375
Si Si3 0.384626 0.587667 0.439676
Si Si4 0.765004 0.091371 0.656137
Si Si5 0.339624 0.363967 0.258187
Si Si6 0.500000 0.500000 0.289565
Si Si7 0.879907 0.726197 0.173048
Si Si8 0.624506 0.655682 0.058351
O O1 0.129366 0.638610 0.358499
O O2 0.279364 0.632850 0.426493
O O3 0.289807 0.733419 0.360957
O O4 0.143256 0.753463 0.427949
O O5 0.876498 0.500000 0.687090
O O6 0.782084 0.380256 0.726509
O O7 0.000000 0.389207 0.716414
O O8 0.390019 0.583495 0.500000
O O9 0.500000 0.619820 0.422182
O O10 0.378783 0.500000 0.418614
O O11 0.847480 0.124319 0.698079
O O12 0.657020 0.137166 0.668919
O O13 0.807815 0.109328 0.600137
O O14 0.754772 0.000000 0.664146
O O15 0.408647 0.430310 0.285584
O O16 0.370991 0.277399 0.275800
O O17 0.000000 0.733875 0.155169
O O18 0.500000 0.636922 0.063795
O O19 0.655350 0.641321 0.000000
#
# Coordination Sequence:
#
# PCOD9520124 Si02
#       8
#    16  16  16  16  16   4  16  16
#     4  10  19  34  55  80 112 157 204 244 303 367
#     4  10  20  34  53  83 127 169 207 245 288 355
#     4   9  17  29  47  76 112 151 200 259 313 362
#     4  11  24  41  63  90 118 156 202 246 305 371
#     4  11  22  39  61  95 127 166 205 245 301 356
#     4  12  20  36  66  92 131 168 201 256 288 360
#     4  10  22  38  58  87 125 158 196 246 294 355
#     4  10  23  41  61  85 112 146 193 256 321 372
#
# _framework density 20.232993
#
# number of rings (size 3 to 8) (size 9 to 14) (size 15 to 20)
#    0.000    1.793    2.069    2.483    0.966    1.379 
#    0.000    0.690    0.000    3.724    0.000    9.655 
#    0.000    0.000    0.000    0.000    0.000    0.000 
#
# Total GULP energy -323174.251122 kJ/mol
# GULP energy per Si atom -5571.969847 kJ/mol
# Density = 2.018694 g / cm^3
# Si number density = 20.232993 Si / 1000 Ang^3
#
#
#
# Elastic Constant Matrix: (Units=GPa)
#
#
# Indices 1 2 3 4 5 6 
#
# 1 113.6333 25.5730 21.2980 0.0000 0.0000 0.0000
# 2 25.5730 77.7563 36.7325 0.0000 0.0000 0.0000
# 3 21.2980 36.7325 85.3347 0.0000 0.0000 0.0000
# 4 0.0000 0.0000 0.0000 24.1445 0.0000 0.0000
# 5 0.0000 0.0000 0.0000 0.0000 -195.3964 0.0000
# 6 0.0000 0.0000 0.0000 0.0000 0.0000 190.4671
#
#
#
# Elastic Compliance Matrix: (Units=1/GPa)
#
#
# Indices 1 2 3 4 5 6 
#
# 1 0.009618 -0.002547 -0.001304 0.000000 0.000000 0.000000
# 2 -0.002547 0.016818 -0.006604 0.000000 0.000000 0.000000
# 3 -0.001304 -0.006604 0.014887 0.000000 0.000000 0.000000
# 4 0.000000 0.000000 0.000000 0.041417 0.000000 0.000000
# 5 0.000000 0.000000 0.000000 0.000000 -0.005118 0.000000
# 6 0.000000 0.000000 0.000000 0.000000 0.000000 0.005250
#
#
# Mechanical properties :
#
#
# Convention : Reuss Voigt Hill
#
# Bulk Modulus (GPa) = 48.98877 49.32571 49.15724
# Shear Modulus (GPa) = 45.21363 16.71775 30.96569
#
# Velocity S-wave (km/s) = 4.73234 2.87760 3.91635
# Velocity P-wave (km/s) = 7.35696 5.95588 6.69318
#
# Compressibility (1/GPa) = 0.02041284
#
# Stress axis : x y z
#
# Youngs Moduli (GPa) = 103.97296 59.46007 67.17462
#
# Poissons Ratio (x) = 0.15145 0.08760
# Poissons Ratio (y) = 0.26484 0.44360
# Poissons Ratio (z) = 0.13558 0.39265
#
# Static dielectric constant tensor:
#      x y z
#    x 1.709920 0.000000 0.000000 
#    y 0.000000 1.742320 0.000000 
#    z 0.000000 0.000000 1.758160 
# 
# From -- ./inp_files/64712.got.cif
#   From: 2010.05.17/outbox.cif.g08.bks.cpg/sg71_33_cif.got.tgz:64712.got - 2010.06.03 16:22:01.
