data_PCOD9520849
_publ_section_title
;
Structure prediction by ZEFSAII (Michael W. Deem and Ramdas Pophale) SiO2 
 PCOD9520849
Probable space group: I M M M
;
_chemical_formula_sum "Si O2"
_cell_formula_units_Z 84
_cell_length_a 23.978487
_cell_length_b 14.296472
_cell_length_c 13.949096
_cell_angle_alpha 90.000000
_cell_angle_beta 90.000000
_cell_angle_gamma 90.000000
_cell_volume 4781.858465
_symmetry_space_group_name_H-M "I M M M"
_symmetry_group_IT_number 71
_symmetry_cell_setting 'orthorhombic'
loop_
_space_group_symop_operation_xyz
x,y,z
-x,-y,z
x,-y,-z
-x,y,-z
-x,-y,-z
x,y,-z
-x,y,z
x,-y,z
1/2+x,1/2+y,1/2+z
1/2-x,1/2-y,1/2+z
1/2+x,1/2-y,1/2-z
1/2-x,1/2+y,1/2-z
1/2-x,1/2-y,1/2-z
1/2+x,1/2+y,1/2-z
1/2-x,1/2+y,1/2+z
1/2+x,1/2-y,1/2+z
loop_
_atom_site_type_symbol
_atom_site_label
_atom_site_fract_x
_atom_site_fract_y
_atom_site_fract_z
Si Si1 0.115450 0.790576 0.701470
Si Si2 0.500000 0.312942 0.885534
Si Si3 0.197574 0.500000 0.889677
Si Si4 0.276045 0.805000 0.113508
Si Si5 0.342377 0.206306 0.611935
Si Si6 0.500000 0.500000 0.757060
Si Si7 0.759096 0.000000 0.800059
Si Si8 0.620324 0.500000 0.741894
O O1 0.169075 0.744199 0.653222
O O2 0.117271 0.755566 0.811835
O O3 0.123221 0.902904 0.700087
O O4 0.057637 0.765789 0.649227
O O5 0.500000 0.410743 0.827196
O O6 0.500000 0.325232 0.000000
O O7 0.161998 0.594451 0.875277
O O8 0.247749 0.500000 0.813846
O O9 0.217518 0.500000 0.000000
O O10 0.219896 0.745706 0.133065
O O11 0.267942 0.906636 0.158949
O O12 0.280674 0.813981 0.000000
O O13 0.354988 0.226014 0.500000
O O14 0.557800 0.500000 0.699005
O O15 0.824859 0.000000 0.823332
#
# Coordination Sequence:
#
# PCOD9520849 Si02
#       8
#    16   8   8  16  16   4   8   8
#     4  11  20  38  55  83 116 153 188 237 281 332
#     4  10  21  36  59  82 111 153 193 230 275 334
#     4  10  20  33  53  82 112 141 181 231 286 339
#     4  11  22  34  54  83 117 151 191 231 286 347
#     4  10  20  35  56  82 110 146 183 233 290 342
#     4   8  19  36  52  82 113 146 187 226 284 324
#     4  12  19  34  56  83 118 152 186 229 292 340
#     4  10  20  32  59  80 113 151 190 228 277 345
#
# _framework density 17.566393000000001
#
# number of rings (size 3 to 8) (size 9 to 14) (size 15 to 20)
#    0.000    1.524    3.810    2.714    0.000    0.000 
#    0.000    6.190    0.000    2.286    0.000   11.333 
#    0.000    0.000    0.000    0.000    0.000    0.000 
#
# Total GULP energy -234260.830609 kJ/mol
# GULP energy per Si atom -5577.638824 kJ/mol
# Density = 1.752641 g / cm^3
# Si number density = 17.566393 Si / 1000 Ang^3
#
#
#
# Elastic Constant Matrix: (Units=GPa)
#
#
# Indices 1 2 3 4 5 6 
#
# 1 87.6270 36.5323 25.0791 0.0000 0.0000 0.0000
# 2 36.5323 114.0416 27.0431 0.0000 0.0000 0.0000
# 3 25.0791 27.0431 78.8560 0.0000 0.0000 0.0000
# 4 0.0000 0.0000 0.0000 10.7360 0.0000 0.0000
# 5 0.0000 0.0000 0.0000 0.0000 25.2099 0.0000
# 6 0.0000 0.0000 0.0000 0.0000 0.0000 16.5145
#
#
#
# Elastic Compliance Matrix: (Units=1/GPa)
#
#
# Indices 1 2 3 4 5 6 
#
# 1 0.013850 -0.003692 -0.003138 0.000000 0.000000 0.000000
# 2 -0.003692 0.010529 -0.002437 0.000000 0.000000 0.000000
# 3 -0.003138 -0.002437 0.014515 0.000000 0.000000 0.000000
# 4 0.000000 0.000000 0.000000 0.093144 0.000000 0.000000
# 5 0.000000 0.000000 0.000000 0.000000 0.039667 0.000000
# 6 0.000000 0.000000 0.000000 0.000000 0.000000 0.060553
#
#
# Mechanical properties :
#
#
# Convention : Reuss Voigt Hill
#
# Bulk Modulus (GPa) = 49.11787 50.87038 49.99413
# Shear Modulus (GPa) = 19.41148 23.28343 21.34746
#
# Velocity S-wave (km/s) = 3.32781 3.64463 3.48982
# Velocity P-wave (km/s) = 6.54124 6.83614 6.69031
#
# Compressibility (1/GPa) = 0.02035919
#
# Stress axis : x y z
#
# Youngs Moduli (GPa) = 72.20423 94.97248 68.89377
#
# Poissons Ratio (x) = 0.35067 0.21622
# Poissons Ratio (y) = 0.26661 0.16787
# Poissons Ratio (z) = 0.22661 0.23142
#
# Static dielectric constant tensor:
#      x y z
#    x 1.603170 0.000000 0.000000 
#    y 0.000000 1.602180 0.000000 
#    z 0.000000 0.000000 1.605360 
# 
# From -- ./inp_files/37805.got.cif
#   From: 2010.05.17/outbox.cif.g08.bks.cpg/sg71_19_cif.got.tgz:37805.got - 2010.06.03 16:22:01.
