data_PCOD9520660
_publ_section_title
;
Structure prediction by ZEFSAII (Michael W. Deem and Ramdas Pophale) SiO2 
 PCOD9520660
Probable space group: I M M M
;
_chemical_formula_sum "Si O2"
_cell_formula_units_Z 88
_cell_length_a 9.162744
_cell_length_b 33.833519
_cell_length_c 15.135271
_cell_angle_alpha 90.000000
_cell_angle_beta 90.000000
_cell_angle_gamma 90.000000
_cell_volume 4692.053173
_symmetry_space_group_name_H-M "I M M M"
_symmetry_group_IT_number 71
_symmetry_cell_setting 'orthorhombic'
loop_
_space_group_symop_operation_xyz
x,y,z
-x,-y,z
x,-y,-z
-x,y,-z
-x,-y,-z
x,y,-z
-x,y,z
x,-y,z
1/2+x,1/2+y,1/2+z
1/2-x,1/2-y,1/2+z
1/2+x,1/2-y,1/2-z
1/2-x,1/2+y,1/2-z
1/2-x,1/2-y,1/2-z
1/2+x,1/2+y,1/2-z
1/2-x,1/2+y,1/2+z
1/2+x,1/2-y,1/2+z
loop_
_atom_site_type_symbol
_atom_site_label
_atom_site_fract_x
_atom_site_fract_y
_atom_site_fract_z
Si Si1 0.823715 0.420801 0.206498
Si Si2 0.835684 0.155931 0.350220
Si Si3 0.175505 0.604711 0.596875
Si Si4 0.164610 0.732976 0.102245
Si Si5 0.177584 0.500000 0.102884
Si Si6 0.666511 0.682743 0.352273
O O1 0.755694 0.384343 0.152176
O O2 0.779669 0.416802 0.310865
O O3 0.778837 0.461215 0.158376
O O4 0.000000 0.418049 0.204116
O O5 0.755434 0.193040 0.392928
O O6 0.843333 0.168812 0.248088
O O7 0.000000 0.150195 0.383888
O O8 0.218608 0.587723 0.500000
O O9 0.238573 0.649148 0.601520
O O10 0.000000 0.606093 0.598876
O O11 0.226986 0.772654 0.146410
O O12 0.000000 0.725718 0.137258
O O13 0.154825 0.744010 0.000000
O O14 0.000000 0.500000 0.100567
O O15 0.226296 0.500000 0.000000
O O16 0.500000 0.684089 0.387830
#
# Coordination Sequence:
#
# PCOD9520660 Si02
#       6
#    16  16  16  16   8  16
#     4   9  18  34  54  75 100 128 161 203 248 298
#     4  10  20  33  50  72  98 128 162 203 251 299
#     4   9  17  29  47  73 104 135 164 197 243 296
#     4  10  20  32  46  66  94 130 171 211 249 290
#     4   9  18  34  58  82  98 121 163 207 244 290
#     4   9  18  32  49  69  95 131 173 209 242 286
#
# _framework density 18.755116000000001
#
# number of rings (size 3 to 8) (size 9 to 14) (size 15 to 20)
#    0.000    2.636    0.000    1.636    0.000    3.636 
#    0.000    2.727    0.000    3.273    0.000    0.000 
#    0.000    5.818    0.000    0.000    0.000    0.000 
#
# Total GULP energy -245004.160612 kJ/mol
# GULP energy per Si atom -5568.276378 kJ/mol
# Density = 1.871243 g / cm^3
# Si number density = 18.755116 Si / 1000 Ang^3
#
#
#
# Elastic Constant Matrix: (Units=GPa)
#
#
# Indices 1 2 3 4 5 6 
#
# 1 25.4814 31.1336 16.5539 0.0000 0.0000 0.0000
# 2 31.1336 157.1700 53.5926 0.0000 0.0000 0.0000
# 3 16.5539 53.5926 77.8757 0.0001 0.0002 0.0000
# 4 0.0000 0.0000 0.0001 21.5367 0.0001 0.0000
# 5 0.0000 0.0000 0.0002 0.0001 -22.6312 0.0000
# 6 0.0000 0.0000 0.0000 0.0000 0.0000 21.7121
#
#
#
# Elastic Compliance Matrix: (Units=1/GPa)
#
#
# Indices 1 2 3 4 5 6 
#
# 1 0.053411 -0.008766 -0.005321 0.000000 0.000000 0.000000
# 2 -0.008766 0.009752 -0.004848 0.000000 0.000000 0.000000
# 3 -0.005321 -0.004848 0.017308 0.000000 0.000000 0.000000
# 4 0.000000 0.000000 0.000000 0.046432 0.000000 0.000000
# 5 0.000000 0.000000 0.000000 0.000000 -0.044187 0.000000
# 6 0.000000 0.000000 0.000000 0.000000 0.000000 0.046057
#
#
# Mechanical properties :
#
#
# Convention : Reuss Voigt Hill
#
# Bulk Modulus (GPa) = 23.47296 51.45415 37.46355
# Shear Modulus (GPa) = 27.64804 14.73998 21.19401
#
# Velocity S-wave (km/s) = 3.84364 2.80646 3.36525
# Velocity P-wave (km/s) = 5.67810 6.16408 5.92608
#
# Compressibility (1/GPa) = 0.04260221
#
# Stress axis : x y z
#
# Youngs Moduli (GPa) = 18.72258 102.54345 57.77590
#
# Poissons Ratio (x) = 0.89887 0.30743
# Poissons Ratio (y) = 0.16412 0.28009
# Poissons Ratio (z) = 0.09963 0.49711
#
# Static dielectric constant tensor:
#      x y z
#    x 1.669720 0.000000 0.000000 
#    y 0.000000 1.632960 0.000000 
#    z 0.000000 0.000000 1.693270 
# 
# From -- ./inp_files/42488.got.cif
#   From: 2010.05.17/outbox.cif.g08.bks.cpg/sg71_22_cif.got.tgz:42488.got - 2010.06.03 16:22:01.
