data_PCOD9520445
_publ_section_title
;
Structure prediction by ZEFSAII (Michael W. Deem and Ramdas Pophale) SiO2 
 PCOD9520445
Probable space group: I M M M
;
_chemical_formula_sum "Si O2"
_cell_formula_units_Z 88
_cell_length_a 14.116487
_cell_length_b 21.509505
_cell_length_c 14.053645
_cell_angle_alpha 90.000000
_cell_angle_beta 90.000000
_cell_angle_gamma 90.000000
_cell_volume 4267.229763
_symmetry_space_group_name_H-M "I M M M"
_symmetry_group_IT_number 71
_symmetry_cell_setting 'orthorhombic'
loop_
_space_group_symop_operation_xyz
x,y,z
-x,-y,z
x,-y,-z
-x,y,-z
-x,-y,-z
x,y,-z
-x,y,z
x,-y,z
1/2+x,1/2+y,1/2+z
1/2-x,1/2-y,1/2+z
1/2+x,1/2-y,1/2-z
1/2-x,1/2+y,1/2-z
1/2-x,1/2-y,1/2-z
1/2+x,1/2+y,1/2-z
1/2-x,1/2+y,1/2+z
1/2+x,1/2-y,1/2+z
loop_
_atom_site_type_symbol
_atom_site_label
_atom_site_fract_x
_atom_site_fract_y
_atom_site_fract_z
Si Si1 0.713248 0.624627 0.113070
Si Si2 0.817255 0.368618 0.611596
Si Si3 0.354933 0.743900 0.788988
Si Si4 0.110935 0.571483 0.210624
Si Si5 0.107752 0.000000 0.384026
Si Si6 0.397810 0.324761 0.391270
O O1 0.650387 0.682830 0.145673
O O2 0.818466 0.618610 0.156617
O O3 0.660941 0.562055 0.146193
O O4 0.721003 0.625337 0.000000
O O5 0.833539 0.377086 0.500000
O O6 0.869694 0.305743 0.649787
O O7 0.857943 0.421598 0.679590
O O8 0.702395 0.360299 0.625587
O O9 0.250000 0.750000 0.750000
O O10 0.405180 0.727034 0.690574
O O11 0.125151 0.500000 0.177888
O O12 0.000000 0.586334 0.199242
O O13 0.107669 0.000000 0.500000
O O14 0.000000 0.000000 0.351440
O O15 0.389334 0.300254 0.500000
O O16 0.500000 0.359512 0.387125
#
# Coordination Sequence:
#
# PCOD9520445 Si02
#       6
#    16  16  16  16   8  16
#     4  11  21  38  62  90 124 159 199 247 301 359
#     4  10  21  41  62  84 120 160 199 251 306 357
#     4  10  19  36  57  88 124 159 194 242 295 360
#     4  11  24  42  62  87 117 156 211 260 303 355
#     4   9  20  38  61  89 120 155 195 237 289 359
#     4   9  18  33  57  88 120 154 190 234 294 359
#
# _framework density 20.622278000000001
#
# number of rings (size 3 to 8) (size 9 to 14) (size 15 to 20)
#    0.000    1.909    4.545    0.545    0.000    3.273 
#    0.000    1.818    0.000    3.273    0.000    2.545 
#    0.000    0.000    0.000    0.000    0.000    0.000 
#
# Total GULP energy -245069.692472 kJ/mol
# GULP energy per Si atom -5569.765738 kJ/mol
# Density = 2.057534 g / cm^3
# Si number density = 20.622278 Si / 1000 Ang^3
#
#
#
# Elastic Constant Matrix: (Units=GPa)
#
#
# Indices 1 2 3 4 5 6 
#
# 1 103.0150 10.4481 16.4502 0.0000 0.0000 0.0000
# 2 10.4481 64.2677 3.3154 0.0000 0.0002 0.0000
# 3 16.4502 3.3154 81.1299 0.0000 0.0003 0.0000
# 4 0.0000 0.0000 0.0000 24.4045 0.0002 0.0000
# 5 0.0000 0.0002 0.0003 0.0002 92.5876 0.0000
# 6 0.0000 0.0000 0.0000 0.0000 0.0000 11.4892
#
#
#
# Elastic Compliance Matrix: (Units=1/GPa)
#
#
# Indices 1 2 3 4 5 6 
#
# 1 0.010184 -0.001552 -0.002002 0.000000 0.000000 0.000000
# 2 -0.001552 0.015829 -0.000332 0.000000 0.000000 0.000000
# 3 -0.002002 -0.000332 0.012745 0.000000 0.000000 0.000000
# 4 0.000000 0.000000 0.000000 0.040976 0.000000 0.000000
# 5 0.000000 0.000000 0.000000 0.000000 0.010801 0.000000
# 6 0.000000 0.000000 0.000000 0.000000 0.000000 0.087039
#
#
# Mechanical properties :
#
#
# Convention : Reuss Voigt Hill
#
# Bulk Modulus (GPa) = 32.27167 34.31555 33.29361
# Shear Modulus (GPa) = 25.55249 40.24283 32.89766
#
# Velocity S-wave (km/s) = 3.52386 4.42229 3.99839
# Velocity P-wave (km/s) = 5.67800 6.53847 6.12337
#
# Compressibility (1/GPa) = 0.03098693
#
# Stress axis : x y z
#
# Youngs Moduli (GPa) = 98.18934 63.17344 78.46010
#
# Poissons Ratio (x) = 0.09807 0.15704
# Poissons Ratio (y) = 0.15243 0.02606
# Poissons Ratio (z) = 0.19653 0.02098
#
# Static dielectric constant tensor:
#      x y z
#    x 1.632400 0.000000 0.000000 
#    y 0.000000 1.825880 0.000000 
#    z 0.000000 0.000000 1.747040 
# 
# From -- ./inp_files/34407.got.cif
#   From: 2010.05.17/outbox.cif.g08.bks.cpg/sg71_18_cif.got.tgz:34407.got - 2010.06.03 16:22:01.
