data_PCOD9520103
_publ_section_title
;
Structure prediction by ZEFSAII (Michael W. Deem and Ramdas Pophale) SiO2 
 PCOD9520103
Probable space group: I M M M
;
_chemical_formula_sum "Si O2"
_cell_formula_units_Z 96
_cell_length_a 30.500034
_cell_length_b 7.458017
_cell_length_c 19.511894
_cell_angle_alpha 90.000000
_cell_angle_beta 90.000000
_cell_angle_gamma 90.000000
_cell_volume 4438.366081
_symmetry_space_group_name_H-M "I M M M"
_symmetry_group_IT_number 71
_symmetry_cell_setting 'orthorhombic'
loop_
_space_group_symop_operation_xyz
x,y,z
-x,-y,z
x,-y,-z
-x,y,-z
-x,-y,-z
x,y,-z
-x,y,z
x,-y,z
1/2+x,1/2+y,1/2+z
1/2-x,1/2-y,1/2+z
1/2+x,1/2-y,1/2-z
1/2-x,1/2+y,1/2-z
1/2-x,1/2-y,1/2-z
1/2+x,1/2+y,1/2-z
1/2-x,1/2+y,1/2+z
1/2+x,1/2-y,1/2+z
loop_
_atom_site_type_symbol
_atom_site_label
_atom_site_fract_x
_atom_site_fract_y
_atom_site_fract_z
Si Si1 0.673996 0.782904 0.575398
Si Si2 0.450417 0.781629 0.079852
Si Si3 0.453366 0.294407 0.277531
Si Si4 0.799004 0.284990 0.774510
Si Si5 0.929617 0.284274 0.074153
Si Si6 0.877976 0.298617 0.315009
O O1 0.690440 0.720637 0.500000
O O2 0.693966 0.718176 0.647396
O O3 0.622181 0.742875 0.577867
O O4 0.678317 0.000000 0.574765
O O5 0.500000 0.721518 0.099144
O O6 0.409521 0.718227 0.126000
O O7 0.450808 0.000000 0.085472
O O8 0.444130 0.736873 0.000000
O O9 0.500000 0.217408 0.254870
O O10 0.450372 0.500000 0.254541
O O11 0.451638 0.291941 0.359109
O O12 0.411858 0.193439 0.248301
O O13 0.806441 0.500000 0.776999
O O14 0.750000 0.250000 0.750000
O O15 0.834501 0.214835 0.718762
O O16 0.934167 0.500000 0.076997
O O17 0.945936 0.224205 0.000000
O O18 0.866256 0.500000 0.338462
#
# Coordination Sequence:
#
# PCOD9520103 Si02
#       6
#    16  16  16  16  16  16
#     4   8  14  29  53  75  96 127 169 212 249 292
#     4   8  14  26  48  79 108 132 163 207 259 310
#     4  11  23  34  46  71 108 143 171 207 259 311
#     4  10  20  34  53  78 104 131 168 215 268 314
#     4   9  17  32  54  75  96 129 176 220 249 285
#     4  10  19  34  55  76  99 133 178 220 255 305
#
# _framework density 21.629581000000002
#
# number of rings (size 3 to 8) (size 9 to 14) (size 15 to 20)
#    0.000    2.667    1.667    2.500    0.000    3.333 
#    0.000    2.500    0.000    2.000    0.000    2.333 
#    0.000    0.000    0.000    0.000    0.000    0.000 
#
# Total GULP energy -267695.317377 kJ/mol
# GULP energy per Si atom -5576.985779 kJ/mol
# Density = 2.158035 g / cm^3
# Si number density = 21.629581 Si / 1000 Ang^3
#
#
#
# Elastic Constant Matrix: (Units=GPa)
#
#
# Indices 1 2 3 4 5 6 
#
# 1 149.6578 4.6623 79.2141 0.0000 0.0000 0.0000
# 2 4.6623 64.0807 1.8903 0.0000 0.0000 0.0000
# 3 79.2141 1.8903 176.2116 0.0000 0.0000 0.0000
# 4 0.0000 0.0000 0.0000 -7.6325 0.0000 0.0000
# 5 0.0000 0.0000 0.0000 0.0000 30.8495 0.0000
# 6 0.0000 0.0000 0.0000 0.0000 0.0000 84.6410
#
#
#
# Elastic Compliance Matrix: (Units=1/GPa)
#
#
# Indices 1 2 3 4 5 6 
#
# 1 0.008786 -0.000523 -0.003944 0.000000 0.000000 0.000000
# 2 -0.000523 0.015641 0.000067 0.000000 0.000000 0.000000
# 3 -0.003944 0.000067 0.007447 0.000000 0.000000 0.000000
# 4 0.000000 0.000000 0.000000 -0.131018 0.000000 0.000000
# 5 0.000000 0.000000 0.000000 0.000000 0.032415 0.000000
# 6 0.000000 0.000000 0.000000 0.000000 0.000000 0.011815
#
#
# Mechanical properties :
#
#
# Convention : Reuss Voigt Hill
#
# Bulk Modulus (GPa) = 43.33650 62.38707 52.86179
# Shear Modulus (GPa) = -130.13061 41.85049 -44.14006
#
# Velocity S-wave (km/s) = -7.76491 4.40349 -4.52234
# Velocity P-wave (km/s) = 7.76612 7.40002 1.66617
#
# Compressibility (1/GPa) = 0.02307524
#
# Stress axis : x y z
#
# Youngs Moduli (GPa) = 113.82099 63.93301 134.27822
#
# Poissons Ratio (x) = 0.03343 0.52958
# Poissons Ratio (y) = 0.05951 -0.00903
# Poissons Ratio (z) = 0.44890 -0.00430
#
# Static dielectric constant tensor:
#      x y z
#    x 1.747530 0.000000 0.000000 
#    y 0.000000 1.843250 0.000000 
#    z 0.000000 0.000000 1.817540 
# 
# From -- ./inp_files/56140.got.cif
#   From: 2010.05.17/outbox.cif.g08.bks.cpg/sg71_29_cif.got.tgz:56140.got - 2010.06.03 16:22:01.
