data_PCOD9520793
_publ_section_title
;
Structure prediction by ZEFSAII (Michael W. Deem and Ramdas Pophale) SiO2 
 PCOD9520793
Probable space group: I M M M
;
_chemical_formula_sum "Si O2"
_cell_formula_units_Z 88
_cell_length_a 30.476597
_cell_length_b 16.970341
_cell_length_c 10.140088
_cell_angle_alpha 90.000000
_cell_angle_beta 90.000000
_cell_angle_gamma 90.000000
_cell_volume 5244.435704
_symmetry_space_group_name_H-M "I M M M"
_symmetry_group_IT_number 71
_symmetry_cell_setting 'orthorhombic'
loop_
_space_group_symop_operation_xyz
x,y,z
-x,-y,z
x,-y,-z
-x,y,-z
-x,-y,-z
x,y,-z
-x,y,z
x,-y,z
1/2+x,1/2+y,1/2+z
1/2-x,1/2-y,1/2+z
1/2+x,1/2-y,1/2-z
1/2-x,1/2+y,1/2-z
1/2-x,1/2-y,1/2-z
1/2+x,1/2+y,1/2-z
1/2-x,1/2+y,1/2+z
1/2+x,1/2-y,1/2+z
loop_
_atom_site_type_symbol
_atom_site_label
_atom_site_fract_x
_atom_site_fract_y
_atom_site_fract_z
Si Si1 0.383192 0.137932 0.659760
Si Si2 0.714939 0.905332 0.650652
Si Si3 0.292654 0.405843 0.345454
Si Si4 0.550765 0.594629 0.851774
Si Si5 0.384797 0.679638 0.343286
Si Si6 0.551069 0.000000 0.661116
O O1 0.382949 0.132642 0.500000
O O2 0.333823 0.114926 0.700026
O O3 0.389903 0.228854 0.694198
O O4 0.420696 0.076711 0.703750
O O5 0.720395 0.874731 0.500000
O O6 0.753358 0.880445 0.749353
O O7 0.717126 0.000000 0.643738
O O8 0.280920 0.396355 0.500000
O O9 0.301482 0.500000 0.325171
O O10 0.336172 0.354983 0.319610
O O11 0.500000 0.617624 0.833586
O O12 0.552715 0.500000 0.846500
O O13 0.581175 0.630355 0.741200
O O14 0.564432 0.618572 0.000000
O O15 0.392917 0.672243 0.500000
O O16 0.500000 0.000000 0.703345
O O17 0.550467 0.000000 0.500000
#
# Coordination Sequence:
#
# PCOD9520793 Si02
#       6
#    16  16  16  16  16   8
#     4   9  17  30  47  71 101 130 164 209 256 301
#     4   9  16  29  50  70  93 130 173 210 245 292
#     4   9  18  31  45  66  99 134 164 200 250 301
#     4   9  19  36  55  73  97 132 169 203 242 293
#     4  10  20  32  49  75 106 133 162 207 256 300
#     4   9  16  28  48  72  99 131 165 207 262 313
#
# _framework density 16.779688
#
# number of rings (size 3 to 8) (size 9 to 14) (size 15 to 20)
#    0.000    2.818    0.909    1.091    0.000    3.636 
#    0.000    5.455    0.000    0.000    0.000    0.000 
#    0.000    2.909    0.000    0.000    0.000    0.000 
#
# Total GULP energy -245097.359903 kJ/mol
# GULP energy per Si atom -5570.394543 kJ/mol
# Density = 1.674150 g / cm^3
# Si number density = 16.779688 Si / 1000 Ang^3
#
#
#
# Elastic Constant Matrix: (Units=GPa)
#
#
# Indices 1 2 3 4 5 6 
#
# 1 131.8644 63.6706 67.0191 0.0000 0.0000 0.0000
# 2 63.6706 56.6825 32.7241 0.0000 0.0000 0.0000
# 3 67.0191 32.7241 48.2227 0.0000 0.0000 0.0000
# 4 0.0000 0.0000 0.0000 10.8278 0.0000 0.0000
# 5 0.0000 0.0000 0.0000 0.0000 20.1198 0.0000
# 6 0.0000 0.0000 0.0000 0.0000 0.0000 15.4194
#
#
#
# Elastic Compliance Matrix: (Units=1/GPa)
#
#
# Indices 1 2 3 4 5 6 
#
# 1 0.034336 -0.018117 -0.035425 0.000000 0.000000 0.000000
# 2 -0.018117 0.038566 -0.000991 0.000000 0.000000 0.000000
# 3 -0.035425 -0.000991 0.070643 0.000000 0.000000 0.000000
# 4 0.000000 0.000000 0.000000 0.092355 0.000000 0.000000
# 5 0.000000 0.000000 0.000000 0.000000 0.049702 0.000000
# 6 0.000000 0.000000 0.000000 0.000000 0.000000 0.064853
#
#
# Mechanical properties :
#
#
# Convention : Reuss Voigt Hill
#
# Bulk Modulus (GPa) = 29.00508 62.62190 45.81349
# Shear Modulus (GPa) = 10.61539 14.16382 12.38960
#
# Velocity S-wave (km/s) = 2.51795 2.90850 2.72024
# Velocity P-wave (km/s) = 5.07708 6.97712 6.10152
#
# Compressibility (1/GPa) = 0.03447671
#
# Stress axis : x y z
#
# Youngs Moduli (GPa) = 29.12397 25.92991 14.15573
#
# Poissons Ratio (x) = 0.46978 0.50147
# Poissons Ratio (y) = 0.52765 0.01403
# Poissons Ratio (z) = 1.03171 0.02571
#
# Static dielectric constant tensor:
#      x y z
#    x 1.551970 0.000000 0.000000 
#    y 0.000000 1.575830 0.000000 
#    z 0.000000 0.000000 1.554330 
# 
# From -- ./inp_files/16687.got.cif
#   From: 2010.05.17/outbox.cif.g08.bks.cpg/sg71_9_cif.got.tgz:16687.got - 2010.06.03 16:22:01.
