data_PCOD9520425
_publ_section_title
;
Structure prediction by ZEFSAII (Michael W. Deem and Ramdas Pophale) SiO2 
 PCOD9520425
Probable space group: I M M M
;
_chemical_formula_sum "Si O2"
_cell_formula_units_Z 62
_cell_length_a 15.206076
_cell_length_b 14.555660
_cell_length_c 12.104901
_cell_angle_alpha 90.000000
_cell_angle_beta 90.000000
_cell_angle_gamma 90.000000
_cell_volume 2679.231874
_symmetry_space_group_name_H-M "I M M M"
_symmetry_group_IT_number 71
_symmetry_cell_setting 'orthorhombic'
loop_
_space_group_symop_operation_xyz
x,y,z
-x,-y,z
x,-y,-z
-x,y,-z
-x,-y,-z
x,y,-z
-x,y,z
x,-y,z
1/2+x,1/2+y,1/2+z
1/2-x,1/2-y,1/2+z
1/2+x,1/2-y,1/2-z
1/2-x,1/2+y,1/2-z
1/2-x,1/2-y,1/2-z
1/2+x,1/2+y,1/2-z
1/2-x,1/2+y,1/2+z
1/2+x,1/2-y,1/2+z
loop_
_atom_site_type_symbol
_atom_site_label
_atom_site_fract_x
_atom_site_fract_y
_atom_site_fract_z
Si Si1 0.500000 0.000000 0.000000
Si Si2 0.000000 0.145744 0.255836
Si Si3 0.175815 0.848513 0.869508
Si Si4 0.500000 0.360271 0.000000
Si Si5 0.681491 0.401326 0.000000
Si Si6 0.000000 0.629286 0.720267
Si Si7 0.186984 0.365748 0.197056
O O1 0.500000 0.919138 0.899768
O O2 0.086376 0.118786 0.187876
O O3 0.000000 0.257398 0.281638
O O4 0.000000 0.102486 0.375990
O O5 0.178999 0.741129 0.836630
O O6 0.263377 0.885411 0.811870
O O7 0.174388 0.861450 0.000000
O O8 0.604081 0.324970 0.000000
O O9 0.745883 0.398988 0.104060
O O10 0.634894 0.500000 0.000000
O O11 0.087579 0.602681 0.787724
#
# Coordination Sequence:
#
# PCOD9520425 Si02
#       7
#     2   8  16   4   8   8  16
#     4  12  26  44  60  80 128 174 218 248 290 362
#     4  10  20  37  64  94 126 156 197 261 323 364
#     4  10  19  35  63  92 127 153 197 256 322 368
#     4  12  22  42  62  96 118 152 210 268 302 368
#     4  12  25  42  65  85 125 168 208 253 308 374
#     4  10  25  39  58  90 123 164 204 251 304 367
#     4  10  22  39  59  92 120 162 203 255 304 367
#
# _framework density 23.14096
#
# number of rings (size 3 to 8) (size 9 to 14) (size 15 to 20)
#    0.000    1.548    3.871    0.968    3.613    0.516 
#    0.000    0.645    0.000    0.000    0.000    1.806 
#    0.000    0.000    0.000    0.000    0.000    0.000 
#
# Total GULP energy -172594.161276 kJ/mol
# GULP energy per Si atom -5567.553590 kJ/mol
# Density = 2.308829 g / cm^3
# Si number density = 23.140960 Si / 1000 Ang^3
#
#
#
# Elastic Constant Matrix: (Units=GPa)
#
#
# Indices 1 2 3 4 5 6 
#
# 1 234.9006 19.8121 105.4787 0.0000 0.0000 0.0000
# 2 19.8121 69.6691 -8.6184 0.0000 0.0000 0.0000
# 3 105.4787 -8.6184 214.5765 0.0000 0.0000 0.0000
# 4 0.0000 0.0000 0.0000 30.7206 0.0000 0.0000
# 5 0.0000 0.0000 0.0000 0.0000 37.4229 0.0000
# 6 0.0000 0.0000 0.0000 0.0000 0.0000 29.6494
#
#
#
# Elastic Compliance Matrix: (Units=1/GPa)
#
#
# Indices 1 2 3 4 5 6 
#
# 1 0.005724 -0.001986 -0.002893 0.000000 0.000000 0.000000
# 2 -0.001986 0.015114 0.001583 0.000000 0.000000 0.000000
# 3 -0.002893 0.001583 0.006146 0.000000 0.000000 0.000000
# 4 0.000000 0.000000 0.000000 0.032551 0.000000 0.000000
# 5 0.000000 0.000000 0.000000 0.000000 0.026722 0.000000
# 6 0.000000 0.000000 0.000000 0.000000 0.000000 0.033727
#
#
# Mechanical properties :
#
#
# Convention : Reuss Voigt Hill
#
# Bulk Modulus (GPa) = 49.03810 83.61010 66.32410
# Shear Modulus (GPa) = 37.48859 46.39018 41.93938
#
# Velocity S-wave (km/s) = 4.02930 4.48222 4.26178
# Velocity P-wave (km/s) = 6.54859 7.93702 7.27600
#
# Compressibility (1/GPa) = 0.02039231
#
# Stress axis : x y z
#
# Youngs Moduli (GPa) = 174.70813 66.16353 162.70148
#
# Poissons Ratio (x) = 0.13138 0.47076
# Poissons Ratio (y) = 0.34691 -0.25758
# Poissons Ratio (z) = 0.50550 -0.10475
#
# Static dielectric constant tensor:
#      x y z
#    x 1.851730 0.000000 0.000000 
#    y 0.000000 2.000200 0.000000 
#    z 0.000000 0.000000 1.800780 
# 
# From -- ./inp_files/21333.got.cif
#   From: 2010.05.17/outbox.cif.g08.bks.cpg/sg71_11_cif.got.tgz:21333.got - 2010.06.03 16:22:01.
