data_PCOD9520221
_publ_section_title
;
Structure prediction by ZEFSAII (Michael W. Deem and Ramdas Pophale) SiO2 
 PCOD9520221
Probable space group: I M M M
;
_chemical_formula_sum "Si O2"
_cell_formula_units_Z 96
_cell_length_a 19.788483
_cell_length_b 12.866183
_cell_length_c 20.472333
_cell_angle_alpha 90.000000
_cell_angle_beta 90.000000
_cell_angle_gamma 90.000000
_cell_volume 5212.301913
_symmetry_space_group_name_H-M "I M M M"
_symmetry_group_IT_number 71
_symmetry_cell_setting 'orthorhombic'
loop_
_space_group_symop_operation_xyz
x,y,z
-x,-y,z
x,-y,-z
-x,y,-z
-x,-y,-z
x,y,-z
-x,y,z
x,-y,z
1/2+x,1/2+y,1/2+z
1/2-x,1/2-y,1/2+z
1/2+x,1/2-y,1/2-z
1/2-x,1/2+y,1/2-z
1/2-x,1/2-y,1/2-z
1/2+x,1/2+y,1/2-z
1/2-x,1/2+y,1/2+z
1/2+x,1/2-y,1/2+z
loop_
_atom_site_type_symbol
_atom_site_label
_atom_site_fract_x
_atom_site_fract_y
_atom_site_fract_z
Si Si1 0.698181 0.766575 0.922151
Si Si2 0.578770 0.381455 0.121440
Si Si3 0.081745 0.664566 0.184739
Si Si4 0.080496 0.500000 0.293482
Si Si5 0.815915 0.616498 0.076586
Si Si6 0.664649 0.000000 0.078238
Si Si7 0.079908 0.889680 0.778478
O O1 0.629424 0.708022 0.901354
O O2 0.761475 0.699346 0.897730
O O3 0.701022 0.889600 0.908167
O O4 0.700406 0.757353 0.000000
O O5 0.500000 0.361061 0.104230
O O6 0.595275 0.500000 0.098404
O O7 0.583369 0.383812 0.200101
O O8 0.101287 0.599188 0.249369
O O9 0.117788 0.620869 0.120954
O O10 0.105652 0.783052 0.192465
O O11 0.000000 0.659791 0.179906
O O12 0.106274 0.500000 0.367190
O O13 0.000000 0.500000 0.295587
O O14 0.786553 0.500000 0.081204
O O15 0.831000 0.635925 0.000000
O O16 0.646454 0.000000 0.000000
O O17 0.000000 0.892121 0.794365
O O18 0.110343 0.000000 0.799940
#
# Coordination Sequence:
#
# PCOD9520221 Si02
#       7
#    16  16  16   8  16   8  16
#     4  10  21  37  55  75 106 150 188 226 276 330
#     4   9  17  31  53  80 109 140 181 231 274 319
#     4  10  19  34  58  84 112 142 178 230 282 335
#     4  10  20  35  57  86 116 146 180 227 285 328
#     4  10  21  38  59  80 107 143 182 229 288 343
#     4  10  22  39  56  77 112 154 196 228 261 326
#     4   8  15  29  49  74 106 142 173 208 266 324
#
# _framework density 18.417967000000001
#
# number of rings (size 3 to 8) (size 9 to 14) (size 15 to 20)
#    0.000    2.500    0.833    2.500    0.000    3.833 
#    1.500    6.667    0.000    0.000    0.000    2.333 
#    0.000    0.000    0.000    0.000    0.000    0.000 
#
# Total GULP energy -267250.136490 kJ/mol
# GULP energy per Si atom -5567.711177 kJ/mol
# Density = 1.837605 g / cm^3
# Si number density = 18.417967 Si / 1000 Ang^3
#
#
#
# Elastic Constant Matrix: (Units=GPa)
#
#
# Indices 1 2 3 4 5 6 
#
# 1 46.4339 42.0519 21.4196 0.0000 0.0000 0.0000
# 2 42.0519 157.7286 37.7147 0.0000 0.0000 0.0000
# 3 21.4196 37.7147 44.5888 0.0000 0.0000 0.0000
# 4 0.0000 0.0000 0.0000 53.5164 0.0000 0.0000
# 5 0.0000 0.0000 0.0000 0.0000 28.0479 0.0000
# 6 0.0000 0.0000 0.0000 0.0000 0.0000 18.0953
#
#
#
# Elastic Compliance Matrix: (Units=1/GPa)
#
#
# Indices 1 2 3 4 5 6 
#
# 1 0.031654 -0.006021 -0.010113 0.000000 0.000000 0.000000
# 2 -0.006021 0.009093 -0.004798 0.000000 0.000000 0.000000
# 3 -0.010113 -0.004798 0.031344 0.000000 0.000000 0.000000
# 4 0.000000 0.000000 0.000000 0.018686 0.000000 0.000000
# 5 0.000000 0.000000 0.000000 0.000000 0.035653 0.000000
# 6 0.000000 0.000000 0.000000 0.000000 0.000000 0.055263
#
#
# Mechanical properties :
#
#
# Convention : Reuss Voigt Hill
#
# Bulk Modulus (GPa) = 33.08491 50.12488 41.60489
# Shear Modulus (GPa) = 21.40108 29.76960 25.58534
#
# Velocity S-wave (km/s) = 3.41246 4.02473 3.73118
# Velocity P-wave (km/s) = 5.79042 6.99087 6.41877
#
# Compressibility (1/GPa) = 0.03022526
#
# Stress axis : x y z
#
# Youngs Moduli (GPa) = 31.59161 109.97898 31.90403
#
# Poissons Ratio (x) = 0.66219 0.32265
# Poissons Ratio (y) = 0.19022 0.15309
# Poissons Ratio (z) = 0.31949 0.52773
#
# Static dielectric constant tensor:
#      x y z
#    x 1.616380 0.000000 0.000000 
#    y 0.000000 1.708300 0.000000 
#    z 0.000000 0.000000 1.604050 
# 
# From -- ./inp_files/54923.got.cif
#   From: 2010.05.17/outbox.cif.g08.bks.cpg/sg71_28_cif.got.tgz:54923.got - 2010.06.03 16:22:01.
