data_PCOD9520110
_publ_section_title
;
Structure prediction by ZEFSAII (Michael W. Deem and Ramdas Pophale) SiO2 
 PCOD9520110
Probable space group: I M M M
;
_chemical_formula_sum "Si O2"
_cell_formula_units_Z 64
_cell_length_a 22.063571
_cell_length_b 13.192564
_cell_length_c 10.788839
_cell_angle_alpha 90.000000
_cell_angle_beta 90.000000
_cell_angle_gamma 90.000000
_cell_volume 3140.362094
_symmetry_space_group_name_H-M "I M M M"
_symmetry_group_IT_number 71
_symmetry_cell_setting 'orthorhombic'
loop_
_space_group_symop_operation_xyz
x,y,z
-x,-y,z
x,-y,-z
-x,y,-z
-x,-y,-z
x,y,-z
-x,y,z
x,-y,z
1/2+x,1/2+y,1/2+z
1/2-x,1/2-y,1/2+z
1/2+x,1/2-y,1/2-z
1/2-x,1/2+y,1/2-z
1/2-x,1/2-y,1/2-z
1/2+x,1/2+y,1/2-z
1/2-x,1/2+y,1/2+z
1/2+x,1/2-y,1/2+z
loop_
_atom_site_type_symbol
_atom_site_label
_atom_site_fract_x
_atom_site_fract_y
_atom_site_fract_z
Si Si1 0.146773 0.390363 0.500000
Si Si2 0.652319 0.386791 0.233525
Si Si3 0.572546 0.815550 0.771634
Si Si4 0.172304 0.823609 0.000000
Si Si5 0.571879 0.816676 0.500000
Si Si6 0.724013 0.686140 0.000000
O O1 0.176675 0.500000 0.500000
O O2 0.104400 0.377163 0.380185
O O3 0.193745 0.298159 0.500000
O O4 0.626795 0.500000 0.222123
O O5 0.602754 0.297017 0.222148
O O6 0.683459 0.375938 0.368677
O O7 0.700271 0.368484 0.123084
O O8 0.500000 0.811115 0.787240
O O9 0.587290 0.860353 0.635129
O O10 0.205716 0.714484 0.000000
O O11 0.101305 0.795147 0.000000
O O12 0.500000 0.808664 0.500000
#
# Coordination Sequence:
#
# PCOD9520110 Si02
#       6
#     8  16  16   8   8   8
#     4  10  21  35  52  75 102 137 182 224 256 295
#     4  10  20  34  54  80 108 137 172 213 258 312
#     4   9  18  33  53  77 106 138 171 212 262 311
#     4  10  19  34  55  77 104 140 175 211 253 305
#     4   8  16  33  54  75 102 133 165 207 260 313
#     4  10  21  37  53  75 109 141 172 214 262 306
#
# _framework density 20.379816000000002
#
# number of rings (size 3 to 8) (size 9 to 14) (size 15 to 20)
#    0.000    2.500    0.000    1.875    0.000    2.500 
#    0.000    0.625    0.000   20.250    0.000    0.000 
#    0.000    0.000    0.000    0.000    0.000    0.000 
#
# Total GULP energy -178312.200867 kJ/mol
# GULP energy per Si atom -5572.256277 kJ/mol
# Density = 2.033343 g / cm^3
# Si number density = 20.379816 Si / 1000 Ang^3
#
#
#
# Elastic Constant Matrix: (Units=GPa)
#
#
# Indices 1 2 3 4 5 6 
#
# 1 22.1670 -0.3190 10.4167 0.0000 0.0000 0.0000
# 2 -0.3190 65.8025 29.5541 0.0000 0.0000 0.0000
# 3 10.4167 29.5541 162.4441 0.0000 0.0000 0.0000
# 4 0.0000 0.0000 0.0000 21.6965 0.0000 0.0000
# 5 0.0000 0.0000 0.0000 0.0000 18.6383 0.0000
# 6 0.0000 0.0000 0.0000 0.0000 0.0000 4.6078
#
#
#
# Elastic Compliance Matrix: (Units=1/GPa)
#
#
# Indices 1 2 3 4 5 6 
#
# 1 0.046690 0.001711 -0.003305 0.000000 0.000000 0.000000
# 2 0.001711 0.016612 -0.003132 0.000000 0.000000 0.000000
# 3 -0.003305 -0.003132 0.006938 0.000000 0.000000 0.000000
# 4 0.000000 0.000000 0.000000 0.046090 0.000000 0.000000
# 5 0.000000 0.000000 0.000000 0.000000 0.053653 0.000000
# 6 0.000000 0.000000 0.000000 0.000000 0.000000 0.217024
#
#
# Mechanical properties :
#
#
# Convention : Reuss Voigt Hill
#
# Bulk Modulus (GPa) = 16.45090 36.63524 26.54307
# Shear Modulus (GPa) = 11.99840 23.03929 17.51885
#
# Velocity S-wave (km/s) = 2.42903 3.36593 2.93510
# Velocity P-wave (km/s) = 3.99457 5.75511 4.95368
#
# Compressibility (1/GPa) = 0.06078693
#
# Stress axis : x y z
#
# Youngs Moduli (GPa) = 21.41785 60.19760 144.13939
#
# Poissons Ratio (x) = -0.10299 0.47642
# Poissons Ratio (y) = -0.03664 0.45144
# Poissons Ratio (z) = 0.07079 0.18854
#
# Static dielectric constant tensor:
#      x y z
#    x 1.738250 0.000000 0.000000 
#    y 0.000000 1.691100 0.000000 
#    z 0.000000 0.000000 1.757970 
# 
# From -- ./inp_files/26920.got.cif
#   From: 2010.05.17/outbox.cif.g08.bks.cpg/sg71_14_cif.got.tgz:26920.got - 2010.06.03 16:22:01.
