data_PCOD9520345
_publ_section_title
;
Structure prediction by ZEFSAII (Michael W. Deem and Ramdas Pophale) SiO2 
 PCOD9520345
Probable space group: I M M M
;
_chemical_formula_sum "Si O2"
_cell_formula_units_Z 104
_cell_length_a 27.125264
_cell_length_b 9.813814
_cell_length_c 20.954356
_cell_angle_alpha 90.000000
_cell_angle_beta 90.000000
_cell_angle_gamma 90.000000
_cell_volume 5578.097670
_symmetry_space_group_name_H-M "I M M M"
_symmetry_group_IT_number 71
_symmetry_cell_setting 'orthorhombic'
loop_
_space_group_symop_operation_xyz
x,y,z
-x,-y,z
x,-y,-z
-x,y,-z
-x,-y,-z
x,y,-z
-x,y,z
x,-y,z
1/2+x,1/2+y,1/2+z
1/2-x,1/2-y,1/2+z
1/2+x,1/2-y,1/2-z
1/2-x,1/2+y,1/2-z
1/2-x,1/2-y,1/2-z
1/2+x,1/2+y,1/2-z
1/2-x,1/2+y,1/2+z
1/2+x,1/2-y,1/2+z
loop_
_atom_site_type_symbol
_atom_site_label
_atom_site_fract_x
_atom_site_fract_y
_atom_site_fract_z
Si Si1 0.204563 0.645143 0.928232
Si Si2 0.413927 0.154805 0.429047
Si Si3 0.500000 0.664898 0.074871
Si Si4 0.213504 0.153292 0.823311
Si Si5 0.092076 0.163522 0.667312
Si Si6 0.941329 0.848130 0.187223
Si Si7 0.673108 0.843217 0.220259
O O1 0.219655 0.500000 0.897026
O O2 0.145400 0.646580 0.930901
O O3 0.219684 0.777784 0.891240
O O4 0.223510 0.646123 0.000000
O O5 0.429989 0.203961 0.500000
O O6 0.426786 0.246156 0.368848
O O7 0.432540 0.000000 0.421052
O O8 0.500000 0.500000 0.073501
O O9 0.549416 0.701086 0.115843
O O10 0.500000 0.710629 0.000000
O O11 0.269050 0.150198 0.796741
O O12 0.176496 0.250518 0.783888
O O13 0.194718 0.000000 0.823517
O O14 0.072386 0.185109 0.739612
O O15 0.140430 0.260155 0.668735
O O16 0.102774 0.000000 0.660183
O O17 0.000000 0.853506 0.186392
O O18 0.921851 0.000000 0.173256
O O19 0.655779 0.000000 0.229462
#
# Coordination Sequence:
#
# PCOD9520345 Si02
#       7
#    16  16   8  16  16  16  16
#     4   9  18  33  52  73 101 137 175 217 261 306
#     4   9  19  34  49  69 100 137 176 216 257 300
#     4   9  18  36  63  89 112 141 180 230 287 347
#     4  10  20  34  52  78 109 143 181 222 269 321
#     4  10  19  35  58  83 109 139 178 225 275 331
#     4  10  20  33  49  72 102 133 168 214 263 304
#     4  10  21  35  53  78 110 142 175 219 273 329
#
# _framework density 18.644348999999998
#
# number of rings (size 3 to 8) (size 9 to 14) (size 15 to 20)
#    0.000    2.385    0.769    2.769    0.000    6.769 
#    0.000    4.231    0.000    3.692    0.000    0.000 
#    0.000    0.000    0.000    0.000    0.000    0.000 
#
# Total GULP energy -289558.315738 kJ/mol
# GULP energy per Si atom -5568.429149 kJ/mol
# Density = 1.860191 g / cm^3
# Si number density = 18.644349 Si / 1000 Ang^3
#
#
#
# Elastic Constant Matrix: (Units=GPa)
#
#
# Indices 1 2 3 4 5 6 
#
# 1 34.9844 38.5753 20.2295 0.0000 0.0000 0.0000
# 2 38.5753 104.0853 54.8319 0.0000 0.0000 0.0000
# 3 20.2295 54.8319 103.6838 0.0000 0.0000 0.0000
# 4 0.0000 0.0000 0.0000 20.4984 0.0000 0.0000
# 5 0.0000 0.0000 0.0000 0.0000 21.2658 0.0000
# 6 0.0000 0.0000 0.0000 0.0000 0.0000 22.6653
#
#
#
# Elastic Compliance Matrix: (Units=1/GPa)
#
#
# Indices 1 2 3 4 5 6 
#
# 1 0.048338 -0.017946 0.000059 0.000000 0.000000 0.000000
# 2 -0.017946 0.019980 -0.007065 0.000000 0.000000 0.000000
# 3 0.000059 -0.007065 0.013369 0.000000 0.000000 0.000000
# 4 0.000000 0.000000 0.000000 0.048784 0.000000 0.000000
# 5 0.000000 0.000000 0.000000 0.000000 0.047024 0.000000
# 6 0.000000 0.000000 0.000000 0.000000 0.000000 0.044120
#
#
# Mechanical properties :
#
#
# Convention : Reuss Voigt Hill
#
# Bulk Modulus (GPa) = 31.46191 52.22522 41.84356
# Shear Modulus (GPa) = 17.72338 21.49369 19.60853
#
# Velocity S-wave (km/s) = 3.08653 3.39901 3.24653
# Velocity P-wave (km/s) = 5.44184 6.59367 6.04525
#
# Compressibility (1/GPa) = 0.03178447
#
# Stress axis : x y z
#
# Youngs Moduli (GPa) = 20.68781 50.04943 74.79808
#
# Poissons Ratio (x) = 0.89818 -0.00444
# Poissons Ratio (y) = 0.37126 0.52844
# Poissons Ratio (z) = -0.00123 0.35360
#
# Static dielectric constant tensor:
#      x y z
#    x 1.682050 0.000000 0.000000 
#    y 0.000000 1.678960 0.000000 
#    z 0.000000 0.000000 1.670540 
# 
# From -- ./inp_files/56283.got.cif
#   From: 2010.05.17/outbox.cif.g08.bks.cpg/sg71_29_cif.got.tgz:56283.got - 2010.06.03 16:22:01.
