data_PCOD9520904
_publ_section_title
;
Structure prediction by ZEFSAII (Michael W. Deem and Ramdas Pophale) SiO2 
 PCOD9520904
Probable space group: I M M M
;
_chemical_formula_sum "Si O2"
_cell_formula_units_Z 96
_cell_length_a 23.597543
_cell_length_b 28.346448
_cell_length_c 7.964152
_cell_angle_alpha 90.000000
_cell_angle_beta 90.000000
_cell_angle_gamma 90.000000
_cell_volume 5327.273243
_symmetry_space_group_name_H-M "I M M M"
_symmetry_group_IT_number 71
_symmetry_cell_setting 'orthorhombic'
loop_
_space_group_symop_operation_xyz
x,y,z
-x,-y,z
x,-y,-z
-x,y,-z
-x,-y,-z
x,y,-z
-x,y,z
x,-y,z
1/2+x,1/2+y,1/2+z
1/2-x,1/2-y,1/2+z
1/2+x,1/2-y,1/2-z
1/2-x,1/2+y,1/2-z
1/2-x,1/2-y,1/2-z
1/2+x,1/2+y,1/2-z
1/2-x,1/2+y,1/2+z
1/2+x,1/2-y,1/2+z
loop_
_atom_site_type_symbol
_atom_site_label
_atom_site_fract_x
_atom_site_fract_y
_atom_site_fract_z
Si Si1 0.202705 0.853938 0.299211
Si Si2 0.500000 0.761051 0.295320
Si Si3 0.000000 0.371338 0.792903
Si Si4 0.765037 0.446987 0.794346
Si Si5 0.120469 0.400354 0.807125
Si Si6 0.318443 0.810866 0.807814
Si Si7 0.880658 0.219408 0.799969
O O1 0.205572 0.852854 0.500000
O O2 0.220528 0.906562 0.242995
O O3 0.253069 0.820806 0.230311
O O4 0.143259 0.831938 0.244679
O O5 0.500000 0.761453 0.500000
O O6 0.500000 0.816046 0.242478
O O7 0.443233 0.734072 0.240371
O O8 0.942461 0.396716 0.734155
O O9 0.000000 0.371285 0.000000
O O10 0.751751 0.500000 0.741251
O O11 0.827936 0.431193 0.734723
O O12 0.766484 0.446156 0.000000
O O13 0.144904 0.347006 0.803133
O O14 0.113911 0.415859 0.000000
O O15 0.338047 0.758115 0.775145
O O16 0.330014 0.823454 0.000000
O O17 0.879542 0.224439 0.000000
#
# Coordination Sequence:
#
# PCOD9520904 Si02
#       7
#    16   8   8  16  16  16  16
#     4  10  20  33  49  70  95 123 154 194 240 282
#     4   9  18  30  48  67  93 131 163 188 226 271
#     4   9  14  26  45  66  91 127 167 194 229 273
#     4   8  15  29  49  71  93 118 151 194 245 290
#     4   9  16  28  47  67  92 127 164 198 233 276
#     4  11  20  30  45  68  97 127 160 195 233 275
#     4  11  20  33  49  68  95 127 161 191 226 278
#
# _framework density 18.020475999999999
#
# number of rings (size 3 to 8) (size 9 to 14) (size 15 to 20)
#    0.000    2.333    1.667    4.000    0.000    0.000 
#    0.000    3.333    0.000   15.000    0.000    0.583 
#    0.000   10.000    0.000    0.000    0.000    0.000 
#
# Total GULP energy -267626.864874 kJ/mol
# GULP energy per Si atom -5575.559685 kJ/mol
# Density = 1.797946 g / cm^3
# Si number density = 18.020476 Si / 1000 Ang^3
#
#
#
# Elastic Constant Matrix: (Units=GPa)
#
#
# Indices 1 2 3 4 5 6 
#
# 1 49.8019 48.4931 8.4756 0.0000 0.0000 0.0000
# 2 48.4931 93.1438 4.5216 0.0000 0.0000 0.0000
# 3 8.4756 4.5216 33.2084 0.0000 0.0000 0.0000
# 4 0.0000 0.0000 0.0000 10.5317 0.0000 0.0000
# 5 0.0000 0.0000 0.0000 0.0000 10.2004 0.0000
# 6 0.0000 0.0000 0.0000 0.0000 0.0000 9.5591
#
#
#
# Elastic Compliance Matrix: (Units=1/GPa)
#
#
# Indices 1 2 3 4 5 6 
#
# 1 0.042700 -0.021846 -0.007924 0.000000 0.000000 0.000000
# 2 -0.021846 0.021984 0.002582 0.000000 0.000000 0.000000
# 3 -0.007924 0.002582 0.031784 0.000000 0.000000 0.000000
# 4 0.000000 0.000000 0.000000 0.094952 0.000000 0.000000
# 5 0.000000 0.000000 0.000000 0.000000 0.098035 0.000000
# 6 0.000000 0.000000 0.000000 0.000000 0.000000 0.104612
#
#
# Mechanical properties :
#
#
# Convention : Reuss Voigt Hill
#
# Bulk Modulus (GPa) = 23.75678 33.23717 28.49697
# Shear Modulus (GPa) = 10.81144 13.70249 12.25696
#
# Velocity S-wave (km/s) = 2.45205 2.76050 2.61083
# Velocity P-wave (km/s) = 4.60745 5.35207 4.99366
#
# Compressibility (1/GPa) = 0.04209324
#
# Stress axis : x y z
#
# Youngs Moduli (GPa) = 23.41914 45.48678 31.46274
#
# Poissons Ratio (x) = 0.99371 0.24930
# Poissons Ratio (y) = 0.51162 -0.08125
# Poissons Ratio (z) = 0.18557 -0.11746
#
# Static dielectric constant tensor:
#      x y z
#    x 1.636040 0.000000 0.000000 
#    y 0.000000 1.617500 0.000000 
#    z 0.000000 0.000000 1.674800 
# 
# From -- ./inp_files/13206.got.cif
#   From: 2010.05.17/outbox.cif.g08.bks.cpg/sg71_7_cif.got.tgz:13206.got - 2010.06.03 16:22:01.
