data_PCOD9520873
_publ_section_title
;
Structure prediction by ZEFSAII (Michael W. Deem and Ramdas Pophale) SiO2 
 PCOD9520873
Probable space group: I M M M
;
_chemical_formula_sum "Si O2"
_cell_formula_units_Z 104
_cell_length_a 26.148508
_cell_length_b 7.580921
_cell_length_c 24.661169
_cell_angle_alpha 90.000000
_cell_angle_beta 90.000000
_cell_angle_gamma 90.000000
_cell_volume 4888.577943
_symmetry_space_group_name_H-M "I M M M"
_symmetry_group_IT_number 71
_symmetry_cell_setting 'orthorhombic'
loop_
_space_group_symop_operation_xyz
x,y,z
-x,-y,z
x,-y,-z
-x,y,-z
-x,-y,-z
x,y,-z
-x,y,z
x,-y,z
1/2+x,1/2+y,1/2+z
1/2-x,1/2-y,1/2+z
1/2+x,1/2-y,1/2-z
1/2-x,1/2+y,1/2-z
1/2-x,1/2-y,1/2-z
1/2+x,1/2+y,1/2-z
1/2-x,1/2+y,1/2+z
1/2+x,1/2-y,1/2+z
loop_
_atom_site_type_symbol
_atom_site_label
_atom_site_fract_x
_atom_site_fract_y
_atom_site_fract_z
Si Si1 0.793754 0.297135 0.442748
Si Si2 0.500000 0.789084 0.938452
Si Si3 0.643558 0.291371 0.777872
Si Si4 0.866865 0.215405 0.161388
Si Si5 0.391725 0.706746 0.892794
Si Si6 0.247815 0.713453 0.671085
Si Si7 0.440385 0.715031 0.437589
O O1 0.778316 0.215663 0.500000
O O2 0.775768 0.500000 0.443056
O O3 0.854747 0.294899 0.436523
O O4 0.774972 0.220601 0.386314
O O5 0.449792 0.728175 0.907986
O O6 0.500000 0.000000 0.939956
O O7 0.500000 0.722001 0.000000
O O8 0.634096 0.500000 0.777676
O O9 0.618019 0.225538 0.722306
O O10 0.620713 0.217184 0.833352
O O11 0.705483 0.271188 0.784224
O O12 0.806929 0.266479 0.164539
O O13 0.901316 0.274234 0.110179
O O14 0.868043 0.000000 0.159263
O O15 0.378718 0.500000 0.893203
O O16 0.247020 0.500000 0.674083
O O17 0.427351 0.768709 0.500000
O O18 0.500000 0.765768 0.427378
O O19 0.439254 0.500000 0.437316
#
# Coordination Sequence:
#
# PCOD9520873 Si02
#       7
#    16   8  16  16  16  16  16
#     4   9  17  29  44  64  92 125 159 194 238 287
#     4  11  23  37  53  71  91 119 156 197 240 284
#     4   9  18  32  47  67  97 128 159 193 235 283
#     4   9  16  27  44  67  93 126 163 194 231 284
#     4  10  20  33  48  68  93 122 158 198 237 278
#     4   9  17  28  45  68  95 126 160 196 236 280
#     4   8  14  25  41  64  95 127 157 193 240 288
#
# _framework density 21.274080000000001
#
# number of rings (size 3 to 8) (size 9 to 14) (size 15 to 20)
#    0.000    2.846    0.000    2.077    0.000    4.000 
#    1.385    3.077    0.000    0.000    0.000    0.000 
#    0.000    1.846    0.000    6.769    0.000    6.154 
#
# Total GULP energy -289602.986290 kJ/mol
# GULP energy per Si atom -5569.288198 kJ/mol
# Density = 2.122566 g / cm^3
# Si number density = 21.274080 Si / 1000 Ang^3
#
#
#
# Elastic Constant Matrix: (Units=GPa)
#
#
# Indices 1 2 3 4 5 6 
#
# 1 89.5273 -7.3275 69.2647 0.0000 0.0000 0.0000
# 2 -7.3275 53.0011 1.9280 0.0000 0.0000 0.0000
# 3 69.2647 1.9280 177.9941 0.0000 0.0000 0.0000
# 4 0.0000 0.0000 0.0000 2.3583 0.0000 0.0000
# 5 0.0000 0.0000 0.0000 0.0000 27.4638 0.0000
# 6 0.0000 0.0000 0.0000 0.0000 0.0000 26.8630
#
#
#
# Elastic Compliance Matrix: (Units=1/GPa)
#
#
# Indices 1 2 3 4 5 6 
#
# 1 0.016302 0.002486 -0.006371 0.000000 0.000000 0.000000
# 2 0.002486 0.019254 -0.001176 0.000000 0.000000 0.000000
# 3 -0.006371 -0.001176 0.008110 0.000000 0.000000 0.000000
# 4 0.000000 0.000000 0.000000 0.424035 0.000000 0.000000
# 5 0.000000 0.000000 0.000000 0.000000 0.036412 0.000000
# 6 0.000000 0.000000 0.000000 0.000000 0.000000 0.037226
#
#
# Mechanical properties :
#
#
# Convention : Reuss Voigt Hill
#
# Bulk Modulus (GPa) = 29.81153 49.80587 39.80870
# Shear Modulus (GPa) = 8.88665 28.44750 18.66707
#
# Velocity S-wave (km/s) = 2.04604 3.66073 2.96540
# Velocity P-wave (km/s) = 4.43004 6.42886 5.52066
#
# Compressibility (1/GPa) = 0.03354407
#
# Stress axis : x y z
#
# Youngs Moduli (GPa) = 61.34198 51.93746 123.30452
#
# Poissons Ratio (x) = -0.12909 0.78554
# Poissons Ratio (y) = -0.15247 0.14498
# Poissons Ratio (z) = 0.39079 0.06107
#
# Static dielectric constant tensor:
#      x y z
#    x 1.759440 0.000000 0.000000 
#    y 0.000000 1.814230 0.000000 
#    z 0.000000 0.000000 1.825250 
# 
# From -- ./inp_files/67065.got.cif
#   From: 2010.05.17/outbox.cif.g08.bks.cpg/sg71_34_cif.got.tgz:67065.got - 2010.06.03 16:22:01.
