data_PCOD9520437
_publ_section_title
;
Structure prediction by ZEFSAII (Michael W. Deem and Ramdas Pophale) SiO2 
 PCOD9520437
Probable space group: I M M M
;
_chemical_formula_sum "Si O2"
_cell_formula_units_Z 84
_cell_length_a 34.807204
_cell_length_b 12.036910
_cell_length_c 11.453908
_cell_angle_alpha 90.000000
_cell_angle_beta 90.000000
_cell_angle_gamma 90.000000
_cell_volume 4798.857372
_symmetry_space_group_name_H-M "I M M M"
_symmetry_group_IT_number 71
_symmetry_cell_setting 'orthorhombic'
loop_
_space_group_symop_operation_xyz
x,y,z
-x,-y,z
x,-y,-z
-x,y,-z
-x,-y,-z
x,y,-z
-x,y,z
x,-y,z
1/2+x,1/2+y,1/2+z
1/2-x,1/2-y,1/2+z
1/2+x,1/2-y,1/2-z
1/2-x,1/2+y,1/2-z
1/2-x,1/2-y,1/2-z
1/2+x,1/2+y,1/2-z
1/2-x,1/2+y,1/2+z
1/2+x,1/2-y,1/2+z
loop_
_atom_site_type_symbol
_atom_site_label
_atom_site_fract_x
_atom_site_fract_y
_atom_site_fract_z
Si Si1 0.567428 0.500000 0.000000
Si Si2 0.500000 0.127610 0.639073
Si Si3 0.645156 0.128744 0.362669
Si Si4 0.595808 0.500000 0.252071
Si Si5 0.043500 0.243266 0.500000
Si Si6 0.678493 0.500000 0.634116
Si Si7 0.926729 0.751663 0.756316
Si Si8 0.277600 0.268134 0.637833
O O1 0.593843 0.500000 0.887248
O O2 0.542085 0.609506 0.000000
O O3 0.500000 0.123536 0.500000
O O4 0.537843 0.192260 0.680408
O O5 0.500000 0.000000 0.683275
O O6 0.634940 0.134869 0.500000
O O7 0.613422 0.198192 0.293997
O O8 0.687287 0.181344 0.351129
O O9 0.644873 0.000000 0.327369
O O10 0.639686 0.500000 0.292211
O O11 0.575487 0.616420 0.285665
O O12 0.065598 0.269346 0.619068
O O13 0.000000 0.288266 0.500000
O O14 0.665164 0.500000 0.500000
O O15 0.703865 0.609656 0.650960
O O16 0.263243 0.259662 0.500000
O O17 0.250000 0.250000 0.750000
#
# Coordination Sequence:
#
# PCOD9520437 Si02
#       8
#     4   8  16   8   8   8  16  16
#     4   8  19  32  56  82 116 148 200 228 284 342
#     4  11  24  40  58  81 112 150 198 245 290 340
#     4  10  21  39  62  83 114 154 197 238 285 344
#     4  10  20  36  59  89 115 150 194 238 291 351
#     4  10  19  36  56  80 116 154 188 236 288 346
#     4  10  20  38  62  86 125 159 187 241 309 353
#     4  11  21  38  60  85 115 151 195 239 291 349
#     4  10  22  41  63  91 122 158 196 241 297 357
#
# _framework density 17.504166000000001
#
# number of rings (size 3 to 8) (size 9 to 14) (size 15 to 20)
#    0.000    1.810    2.857    1.286    1.333    2.667 
#    3.429    2.857    0.000    0.000    0.000    0.000 
#    0.000    0.000    0.000    0.000    0.000    0.000 
#
# Total GULP energy -234107.222204 kJ/mol
# GULP energy per Si atom -5573.981481 kJ/mol
# Density = 1.746433 g / cm^3
# Si number density = 17.504166 Si / 1000 Ang^3
#
#
#
# Elastic Constant Matrix: (Units=GPa)
#
#
# Indices 1 2 3 4 5 6 
#
# 1 94.8145 45.5320 73.0258 0.0000 0.0000 0.0000
# 2 45.5320 132.1269 51.4801 0.0000 0.0000 0.0000
# 3 73.0258 51.4801 107.7161 0.0000 0.0000 0.0000
# 4 0.0000 0.0000 0.0000 25.1877 0.0000 0.0000
# 5 0.0000 0.0000 0.0000 0.0000 -53.9044 0.0000
# 6 0.0000 0.0000 0.0000 0.0000 0.0000 12.1403
#
#
#
# Elastic Compliance Matrix: (Units=1/GPa)
#
#
# Indices 1 2 3 4 5 6 
#
# 1 0.022596 -0.002234 -0.014251 0.000000 0.000000 0.000000
# 2 -0.002234 0.009521 -0.003036 0.000000 0.000000 0.000000
# 3 -0.014251 -0.003036 0.020396 0.000000 0.000000 0.000000
# 4 0.000000 0.000000 0.000000 0.039702 0.000000 0.000000
# 5 0.000000 0.000000 0.000000 0.000000 -0.018551 0.000000
# 6 0.000000 0.000000 0.000000 0.000000 0.000000 0.082370
#
#
# Mechanical properties :
#
#
# Convention : Reuss Voigt Hill
#
# Bulk Modulus (GPa) = 74.23283 74.97035 74.60159
# Shear Modulus (GPa) = 25.05434 7.65938 16.35686
#
# Velocity S-wave (km/s) = 3.78740 2.09410 3.06020
# Velocity P-wave (km/s) = 7.85026 6.98355 7.42956
#
# Compressibility (1/GPa) = 0.01347113
#
# Stress axis : x y z
#
# Youngs Moduli (GPa) = 44.25572 105.02873 49.02916
#
# Poissons Ratio (x) = 0.23465 0.69872
# Poissons Ratio (y) = 0.09887 0.14884
# Poissons Ratio (z) = 0.63069 0.31884
#
# Static dielectric constant tensor:
#      x y z
#    x 1.564740 0.000000 0.000000 
#    y 0.000000 1.613860 0.000000 
#    z 0.000000 0.000000 1.607850 
# 
# From -- ./inp_files/29824.got.cif
#   From: 2010.05.17/outbox.cif.g08.bks.cpg/sg71_15_cif.got.tgz:29824.got - 2010.06.03 16:22:01.
