data_PCOD9520367
_publ_section_title
;
Structure prediction by ZEFSAII (Michael W. Deem and Ramdas Pophale) SiO2 
 PCOD9520367
Probable space group: I M M M
;
_chemical_formula_sum "Si O2"
_cell_formula_units_Z 64
_cell_length_a 33.934946
_cell_length_b 7.501981
_cell_length_c 11.092776
_cell_angle_alpha 90.000000
_cell_angle_beta 90.000000
_cell_angle_gamma 90.000000
_cell_volume 2823.991372
_symmetry_space_group_name_H-M "I M M M"
_symmetry_group_IT_number 71
_symmetry_cell_setting 'orthorhombic'
loop_
_space_group_symop_operation_xyz
x,y,z
-x,-y,z
x,-y,-z
-x,y,-z
-x,-y,-z
x,y,-z
-x,y,z
x,-y,z
1/2+x,1/2+y,1/2+z
1/2-x,1/2-y,1/2+z
1/2+x,1/2-y,1/2-z
1/2-x,1/2+y,1/2-z
1/2-x,1/2-y,1/2-z
1/2+x,1/2+y,1/2-z
1/2-x,1/2+y,1/2+z
1/2+x,1/2-y,1/2+z
loop_
_atom_site_type_symbol
_atom_site_label
_atom_site_fract_x
_atom_site_fract_y
_atom_site_fract_z
Si Si1 0.918881 0.207010 0.755260
Si Si2 0.832910 0.217850 0.731139
Si Si3 0.217932 0.216986 0.500000
Si Si4 0.545913 0.280332 0.500000
Si Si5 0.500000 0.801381 0.858087
Si Si6 0.809808 0.793986 0.000000
O O1 0.877917 0.275452 0.702834
O O2 0.958908 0.215951 0.679861
O O3 0.910605 0.000000 0.777393
O O4 0.931211 0.284725 0.883337
O O5 0.804269 0.275770 0.622757
O O6 0.829704 0.000000 0.730804
O O7 0.823515 0.278058 0.868735
O O8 0.262615 0.282470 0.500000
O O9 0.218551 0.000000 0.500000
O O10 0.545357 0.500000 0.500000
O O11 0.500000 0.228443 0.500000
O O12 0.500000 0.000000 0.805324
O O13 0.500000 0.810071 0.000000
O O14 0.823331 0.000000 0.000000
#
# Coordination Sequence:
#
# PCOD9520367 Si02
#       6
#    16  16   8   8   8   8
#     4  10  19  35  59  82 105 140 183 225 269 321
#     4   9  19  33  55  83 110 137 178 230 269 310
#     4  10  20  35  53  80 111 139 177 229 270 308
#     4   9  15  27  50  83 107 122 164 227 272 305
#     4  11  25  40  51  72 112 151 180 223 272 317
#     4  10  19  36  57  81 110 145 177 210 272 339
#
# _framework density 22.662959000000001
#
# number of rings (size 3 to 8) (size 9 to 14) (size 15 to 20)
#    0.000    2.250    1.250    1.875    1.750    4.000 
#    0.000    3.750    0.000    0.000    0.000    0.000 
#    0.000    0.000    0.000    0.000    0.000    0.000 
#
# Total GULP energy -178530.414985 kJ/mol
# GULP energy per Si atom -5579.075468 kJ/mol
# Density = 2.261138 g / cm^3
# Si number density = 22.662959 Si / 1000 Ang^3
#
#
#
# Elastic Constant Matrix: (Units=GPa)
#
#
# Indices 1 2 3 4 5 6 
#
# 1 142.0980 -12.0648 40.0727 0.0000 0.0000 0.0000
# 2 -12.0648 54.1753 -1.9234 0.0000 0.0000 0.0000
# 3 40.0727 -1.9234 117.8713 0.0000 0.0000 0.0000
# 4 0.0000 0.0000 0.0000 -5.5967 0.0000 0.0000
# 5 0.0000 0.0000 0.0000 0.0000 -141.0091 0.0000
# 6 0.0000 0.0000 0.0000 0.0000 0.0000 -4.3815
#
#
#
# Elastic Compliance Matrix: (Units=1/GPa)
#
#
# Indices 1 2 3 4 5 6 
#
# 1 0.007932 0.001672 -0.002669 0.000000 0.000000 0.000000
# 2 0.001672 0.018822 -0.000261 0.000000 0.000000 0.000000
# 3 -0.002669 -0.000261 0.009387 0.000000 0.000000 0.000000
# 4 0.000000 0.000000 0.000000 -0.178676 0.000000 0.000000
# 5 0.000000 0.000000 0.000000 0.000000 -0.007092 0.000000
# 6 0.000000 0.000000 0.000000 0.000000 0.000000 -0.228231
#
#
# Mechanical properties :
#
#
# Convention : Reuss Voigt Hill
#
# Bulk Modulus (GPa) = 29.74151 40.70150 35.22151
# Shear Modulus (GPa) = -13.73126 -10.99345 -12.36236
#
# Velocity S-wave (km/s) = -2.46415 -2.20485 -2.33810
# Velocity P-wave (km/s) = 2.24851 3.39362 2.87858
#
# Compressibility (1/GPa) = 0.03362304
#
# Stress axis : x y z
#
# Youngs Moduli (GPa) = 126.06964 53.13038 106.52941
#
# Poissons Ratio (x) = -0.08882 0.28437
# Poissons Ratio (y) = -0.21075 0.02783
# Poissons Ratio (z) = 0.33653 0.01388
#
# Static dielectric constant tensor:
#      x y z
#    x 1.875160 0.000000 0.000000 
#    y 0.000000 1.903790 0.000000 
#    z 0.000000 0.000000 1.809550 
# 
# From -- ./inp_files/18504.got.cif
#   From: 2010.05.17/outbox.cif.g08.bks.cpg/sg71_10_cif.got.tgz:18504.got - 2010.06.03 16:22:01.
