data_PCOD9520476
_publ_section_title
;
Structure prediction by ZEFSAII (Michael W. Deem and Ramdas Pophale) SiO2 
 PCOD9520476
Probable space group: I M M M
;
_chemical_formula_sum "Si O2"
_cell_formula_units_Z 104
_cell_length_a 17.496634
_cell_length_b 19.532840
_cell_length_c 16.567063
_cell_angle_alpha 90.000000
_cell_angle_beta 90.000000
_cell_angle_gamma 90.000000
_cell_volume 5661.942096
_symmetry_space_group_name_H-M "I M M M"
_symmetry_group_IT_number 71
_symmetry_cell_setting 'orthorhombic'
loop_
_space_group_symop_operation_xyz
x,y,z
-x,-y,z
x,-y,-z
-x,y,-z
-x,-y,-z
x,y,-z
-x,y,z
x,-y,z
1/2+x,1/2+y,1/2+z
1/2-x,1/2-y,1/2+z
1/2+x,1/2-y,1/2-z
1/2-x,1/2+y,1/2-z
1/2-x,1/2-y,1/2-z
1/2+x,1/2+y,1/2-z
1/2-x,1/2+y,1/2+z
1/2+x,1/2-y,1/2+z
loop_
_atom_site_type_symbol
_atom_site_label
_atom_site_fract_x
_atom_site_fract_y
_atom_site_fract_z
Si Si1 0.671560 0.579612 0.240104
Si Si2 0.408598 0.191056 0.873404
Si Si3 0.585468 0.222173 0.406732
Si Si4 0.589149 0.612406 0.591754
Si Si5 0.302841 0.185314 0.273936
Si Si6 0.093364 0.421477 0.500000
Si Si7 0.092117 0.153926 0.410931
O O1 0.678423 0.500000 0.221975
O O2 0.634122 0.587315 0.329315
O O3 0.751848 0.618807 0.238472
O O4 0.623781 0.615928 0.167974
O O5 0.500000 0.190489 0.874126
O O6 0.374174 0.185879 0.785757
O O7 0.385299 0.265693 0.906749
O O8 0.382351 0.125614 0.924829
O O9 0.587550 0.202010 0.500000
O O10 0.500000 0.204187 0.374821
O O11 0.590970 0.304843 0.403388
O O12 0.658252 0.192934 0.360522
O O13 0.615470 0.593399 0.500000
O O14 0.500000 0.591434 0.598004
O O15 0.250000 0.250000 0.250000
O O16 0.120143 0.500000 0.500000
O O17 0.000000 0.423681 0.500000
O O18 0.115764 0.127264 0.500000
O O19 0.000000 0.150951 0.407553
#
# Coordination Sequence:
#
# PCOD9520476 Si02
#       7
#    16  16  16  16  16   8  16
#     4  12  26  40  53  82 126 160 196 247 303 354
#     4  10  19  36  62  87 114 151 197 241 282 345
#     4   9  18  36  64  93 115 143 195 255 296 339
#     4   9  18  36  62  88 116 154 199 242 291 356
#     4  12  22  37  58  87 116 157 197 237 293 355
#     4   9  18  34  58  90 121 147 182 234 292 341
#     4  10  20  37  62  88 113 151 202 244 284 348
#
# _framework density 18.368255999999999
#
# number of rings (size 3 to 8) (size 9 to 14) (size 15 to 20)
#    0.000    1.769    3.846    1.846    0.000    5.538 
#    2.769    1.538    0.000    1.385    0.000    1.077 
#    0.000    0.000    0.000    0.000    0.000    0.000 
#
# Total GULP energy -289931.413985 kJ/mol
# GULP energy per Si atom -5575.604115 kJ/mol
# Density = 1.832645 g / cm^3
# Si number density = 18.368256 Si / 1000 Ang^3
#
#
#
# Elastic Constant Matrix: (Units=GPa)
#
#
# Indices 1 2 3 4 5 6 
#
# 1 43.1473 29.9404 39.2777 0.0000 0.0000 0.0000
# 2 29.9404 110.2094 47.7619 0.0000 0.0000 0.0000
# 3 39.2777 47.7619 115.3508 0.0000 0.0000 0.0000
# 4 0.0000 0.0000 0.0000 18.8019 0.0000 0.0000
# 5 0.0000 0.0000 0.0000 0.0000 17.7069 0.0000
# 6 0.0000 0.0000 0.0000 0.0000 0.0000 15.2015
#
#
#
# Elastic Compliance Matrix: (Units=1/GPa)
#
#
# Indices 1 2 3 4 5 6 
#
# 1 0.036095 -0.005459 -0.010030 0.000000 0.000000 0.000000
# 2 -0.005459 0.011884 -0.003062 0.000000 0.000000 0.000000
# 3 -0.010030 -0.003062 0.013352 0.000000 0.000000 0.000000
# 4 0.000000 0.000000 0.000000 0.053186 0.000000 0.000000
# 5 0.000000 0.000000 0.000000 0.000000 0.056475 0.000000
# 6 0.000000 0.000000 0.000000 0.000000 0.000000 0.065783
#
#
# Mechanical properties :
#
#
# Convention : Reuss Voigt Hill
#
# Bulk Modulus (GPa) = 41.27266 55.85194 48.56230
# Shear Modulus (GPa) = 17.73341 20.45723 19.09532
#
# Velocity S-wave (km/s) = 3.11052 3.34088 3.22775
# Velocity P-wave (km/s) = 5.95137 6.73459 6.35506
#
# Compressibility (1/GPa) = 0.02422911
#
# Stress axis : x y z
#
# Youngs Moduli (GPa) = 27.70445 84.15021 74.89359
#
# Poissons Ratio (x) = 0.45938 0.75121
# Poissons Ratio (y) = 0.15124 0.22930
# Poissons Ratio (z) = 0.27788 0.25764
#
# Static dielectric constant tensor:
#      x y z
#    x 1.620510 0.000000 0.000000 
#    y 0.000000 1.614640 0.000000 
#    z 0.000000 0.000000 1.682840 
# 
# From -- ./inp_files/36685.got.cif
#   From: 2010.05.17/outbox.cif.g08.bks.cpg/sg71_19_cif.got.tgz:36685.got - 2010.06.03 16:22:01.
