data_PCOD9520055
_publ_section_title
;
Structure prediction by ZEFSAII (Michael W. Deem and Ramdas Pophale) SiO2 
 PCOD9520055
Probable space group: I M M M
;
_chemical_formula_sum "Si O2"
_cell_formula_units_Z 88
_cell_length_a 19.570986
_cell_length_b 9.030549
_cell_length_c 28.322221
_cell_angle_alpha 90.000000
_cell_angle_beta 90.000000
_cell_angle_gamma 90.000000
_cell_volume 5005.577237
_symmetry_space_group_name_H-M "I M M M"
_symmetry_group_IT_number 71
_symmetry_cell_setting 'orthorhombic'
loop_
_space_group_symop_operation_xyz
x,y,z
-x,-y,z
x,-y,-z
-x,y,-z
-x,-y,-z
x,y,-z
-x,y,z
x,-y,z
1/2+x,1/2+y,1/2+z
1/2-x,1/2-y,1/2+z
1/2+x,1/2-y,1/2-z
1/2-x,1/2+y,1/2-z
1/2-x,1/2-y,1/2-z
1/2+x,1/2+y,1/2-z
1/2-x,1/2+y,1/2+z
1/2+x,1/2-y,1/2+z
loop_
_atom_site_type_symbol
_atom_site_label
_atom_site_fract_x
_atom_site_fract_y
_atom_site_fract_z
Si Si1 0.079443 0.821021 0.381877
Si Si2 0.582904 0.329925 0.776776
Si Si3 0.659690 0.678892 0.406182
Si Si4 0.080370 0.323390 0.820049
Si Si5 0.078016 0.180159 0.000000
Si Si6 0.693264 0.821742 0.055136
O O1 0.103430 0.776571 0.328947
O O2 0.128091 0.752202 0.420879
O O3 0.000000 0.777596 0.388075
O O4 0.081941 0.000000 0.383272
O O5 0.500000 0.332251 0.778399
O O6 0.605594 0.500000 0.770124
O O7 0.602118 0.233070 0.731789
O O8 0.655835 0.500000 0.402452
O O9 0.626224 0.750234 0.360302
O O10 0.616927 0.725081 0.452580
O O11 0.738097 0.719687 0.416509
O O12 0.084768 0.500000 0.822329
O O13 0.000000 0.281341 0.826784
O O14 0.000000 0.231262 0.000000
O O15 0.078001 0.000000 0.000000
O O16 0.687155 0.000000 0.057096
O O17 0.700574 0.781000 0.000000
#
# Coordination Sequence:
#
# PCOD9520055 Si02
#       6
#    16  16  16  16   8  16
#     4   9  19  36  58  83 107 133 172 218 261 315
#     4   8  15  31  54  77 102 134 172 214 259 307
#     4  10  19  34  53  74 102 139 182 220 257 307
#     4  10  20  32  49  78 112 140 171 215 264 313
#     4   9  16  28  51  77  96 125 176 226 257 291
#     4  10  21  37  55  77 107 140 175 219 267 312
#
# _framework density 17.580390999999999
#
# number of rings (size 3 to 8) (size 9 to 14) (size 15 to 20)
#    0.000    2.636    0.909    2.182    0.000    4.364 
#    0.000    5.000    0.000    1.636    0.000    0.000 
#    0.000    0.000    0.000    0.000    0.000    0.000 
#
# Total GULP energy -245332.151655 kJ/mol
# GULP energy per Si atom -5575.730719 kJ/mol
# Density = 1.754038 g / cm^3
# Si number density = 17.580391 Si / 1000 Ang^3
#
#
#
# Elastic Constant Matrix: (Units=GPa)
#
#
# Indices 1 2 3 4 5 6 
#
# 1 96.0641 31.5405 57.8937 0.0000 0.0000 0.0000
# 2 31.5405 23.4406 36.5284 0.0000 0.0000 0.0000
# 3 57.8937 36.5284 106.0648 0.0000 0.0000 0.0000
# 4 0.0000 0.0000 0.0000 25.8295 0.0000 0.0000
# 5 0.0000 0.0000 0.0000 0.0000 -32.1431 0.0000
# 6 0.0000 0.0000 0.0000 0.0000 0.0000 22.3911
#
#
#
# Elastic Compliance Matrix: (Units=1/GPa)
#
#
# Indices 1 2 3 4 5 6 
#
# 1 0.019205 -0.020517 -0.003417 0.000000 0.000000 0.000000
# 2 -0.020517 0.113997 -0.028061 0.000000 0.000000 0.000000
# 3 -0.003417 -0.028061 0.020957 0.000000 0.000000 0.000000
# 4 0.000000 0.000000 0.000000 0.038715 0.000000 0.000000
# 5 0.000000 0.000000 0.000000 0.000000 -0.031111 0.000000
# 6 0.000000 0.000000 0.000000 0.000000 0.000000 0.044661
#
#
# Mechanical properties :
#
#
# Convention : Reuss Voigt Hill
#
# Bulk Modulus (GPa) = 19.93257 53.05498 36.49377
# Shear Modulus (GPa) = 15.28407 9.85595 12.57001
#
# Velocity S-wave (km/s) = 2.95173 2.37031 2.67685
# Velocity P-wave (km/s) = 4.79369 6.14290 5.50975
#
# Compressibility (1/GPa) = 0.05016916
#
# Stress axis : x y z
#
# Youngs Moduli (GPa) = 52.06929 8.77217 47.71564
#
# Poissons Ratio (x) = 0.17998 0.16304
# Poissons Ratio (y) = 1.06830 1.33897
# Poissons Ratio (z) = 0.17791 0.24616
#
# Static dielectric constant tensor:
#      x y z
#    x 1.587980 0.000000 0.000000 
#    y 0.000000 1.586700 0.000000 
#    z 0.000000 0.000000 1.589700 
# 
# From -- ./inp_files/12561.got.cif
#   From: 2010.05.17/outbox.cif.g08.bks.cpg/sg71_7_cif.got.tgz:12561.got - 2010.06.03 16:22:01.
