data_PCOD9520723
_publ_section_title
;
Structure prediction by ZEFSAII (Michael W. Deem and Ramdas Pophale) SiO2 
 PCOD9520723
Probable space group: I M M M
;
_chemical_formula_sum "Si O2"
_cell_formula_units_Z 104
_cell_length_a 7.765872
_cell_length_b 26.911586
_cell_length_c 22.152761
_cell_angle_alpha 90.000000
_cell_angle_beta 90.000000
_cell_angle_gamma 90.000000
_cell_volume 4629.748325
_symmetry_space_group_name_H-M "I M M M"
_symmetry_group_IT_number 71
_symmetry_cell_setting 'orthorhombic'
loop_
_space_group_symop_operation_xyz
x,y,z
-x,-y,z
x,-y,-z
-x,y,-z
-x,-y,-z
x,y,-z
-x,y,z
x,-y,z
1/2+x,1/2+y,1/2+z
1/2-x,1/2-y,1/2+z
1/2+x,1/2-y,1/2-z
1/2-x,1/2+y,1/2-z
1/2-x,1/2-y,1/2-z
1/2+x,1/2+y,1/2-z
1/2-x,1/2+y,1/2+z
1/2+x,1/2-y,1/2+z
loop_
_atom_site_type_symbol
_atom_site_label
_atom_site_fract_x
_atom_site_fract_y
_atom_site_fract_z
Si Si1 0.708253 0.556371 0.845184
Si Si2 0.798253 0.000000 0.932723
Si Si3 0.212019 0.707447 0.434081
Si Si4 0.296998 0.137878 0.431408
Si Si5 0.196609 0.218344 0.663999
Si Si6 0.791047 0.138635 0.247827
Si Si7 0.200714 0.606491 0.613802
O O1 0.500000 0.556064 0.845042
O O2 0.768259 0.500000 0.837634
O O3 0.769584 0.582439 0.906449
O O4 0.764086 0.593506 0.791687
O O5 0.760294 0.050803 0.897750
O O6 0.000000 0.000000 0.940552
O O7 0.716440 0.000000 0.000000
O O8 0.263080 0.727862 0.500000
O O9 0.276172 0.737088 0.375017
O O10 0.271603 0.650562 0.428152
O O11 0.000000 0.709550 0.432224
O O12 0.238796 0.143176 0.500000
O O13 0.500000 0.149892 0.427751
O O14 0.198288 0.174075 0.385831
O O15 0.271865 0.190881 0.723020
O O16 0.000000 0.232083 0.678404
O O17 0.730890 0.125513 0.181466
O O18 0.000000 0.140501 0.248379
O O19 0.000000 0.605298 0.601107
#
# Coordination Sequence:
#
# PCOD9520723 Si02
#       7
#    16   8  16  16  16  16  16
#     4   9  19  35  54  74  98 138 188 237 284 337
#     4  11  25  45  67  89 117 155 196 241 294 347
#     4   9  18  34  58  87 117 149 190 240 287 335
#     4  10  20  32  47  73 109 144 179 228 290 343
#     4   9  18  35  59  82 107 149 197 234 275 332
#     4   9  19  35  55  82 115 150 189 236 286 336
#     4  11  23  38  60  91 121 153 192 236 290 350
#
# _framework density 22.463425000000001
#
# number of rings (size 3 to 8) (size 9 to 14) (size 15 to 20)
#    0.000    2.385    0.000    3.000    1.077    6.769 
#    0.000    3.077    0.000    3.692    0.000    0.000 
#    0.000    0.000    0.000    0.000    0.000    0.000 
#
# Total GULP energy -290287.416564 kJ/mol
# GULP energy per Si atom -5582.450319 kJ/mol
# Density = 2.241230 g / cm^3
# Si number density = 22.463425 Si / 1000 Ang^3
#
#
#
# Elastic Constant Matrix: (Units=GPa)
#
#
# Indices 1 2 3 4 5 6 
#
# 1 36.3267 7.4165 -8.3737 0.0000 0.0000 0.0000
# 2 7.4165 152.2261 40.8612 0.0000 0.0000 0.0000
# 3 -8.3737 40.8612 86.2959 0.0000 0.0000 0.0000
# 4 0.0000 0.0000 0.0000 34.3802 0.0000 0.0000
# 5 0.0000 0.0000 0.0000 0.0000 3.2707 0.0000
# 6 0.0000 0.0000 0.0000 0.0000 0.0000 -12.1466
#
#
#
# Elastic Compliance Matrix: (Units=1/GPa)
#
#
# Indices 1 2 3 4 5 6 
#
# 1 0.028953 -0.002480 0.003984 0.000000 0.000000 0.000000
# 2 -0.002480 0.007738 -0.003905 0.000000 0.000000 0.000000
# 3 0.003984 -0.003905 0.013823 0.000000 0.000000 0.000000
# 4 0.000000 0.000000 0.000000 0.029087 0.000000 0.000000
# 5 0.000000 0.000000 0.000000 0.000000 0.305744 0.000000
# 6 0.000000 0.000000 0.000000 0.000000 0.000000 -0.082328
#
#
# Mechanical properties :
#
#
# Convention : Reuss Voigt Hill
#
# Bulk Modulus (GPa) = 21.87597 39.40630 30.64113
# Shear Modulus (GPa) = 15.47719 20.76385 18.12052
#
# Velocity S-wave (km/s) = 2.62772 3.04359 2.84327
# Velocity P-wave (km/s) = 4.35502 5.47100 4.94459
#
# Compressibility (1/GPa) = 0.04571226
#
# Stress axis : x y z
#
# Youngs Moduli (GPa) = 34.53931 129.23080 72.34096
#
# Poissons Ratio (x) = 0.32048 -0.28818
# Poissons Ratio (y) = 0.08565 0.28246
# Poissons Ratio (z) = -0.13759 0.50460
#
# Static dielectric constant tensor:
#      x y z
#    x 1.827020 0.000000 0.000000 
#    y 0.000000 1.922520 0.000000 
#    z 0.000000 0.000000 1.853970 
# 
# From -- ./inp_files/50887.got.cif
#   From: 2010.05.17/outbox.cif.g08.bks.cpg/sg71_26_cif.got.tgz:50887.got - 2010.06.03 16:22:01.
