data_PCOD9520688
_publ_section_title
;
Structure prediction by ZEFSAII (Michael W. Deem and Ramdas Pophale) SiO2 
 PCOD9520688
Probable space group: I M M M
;
_chemical_formula_sum "Si O2"
_cell_formula_units_Z 96
_cell_length_a 18.745717
_cell_length_b 13.074150
_cell_length_c 17.397766
_cell_angle_alpha 90.000000
_cell_angle_beta 90.000000
_cell_angle_gamma 90.000000
_cell_volume 4263.919579
_symmetry_space_group_name_H-M "I M M M"
_symmetry_group_IT_number 71
_symmetry_cell_setting 'orthorhombic'
loop_
_space_group_symop_operation_xyz
x,y,z
-x,-y,z
x,-y,-z
-x,y,-z
-x,-y,-z
x,y,-z
-x,y,z
x,-y,z
1/2+x,1/2+y,1/2+z
1/2-x,1/2-y,1/2+z
1/2+x,1/2-y,1/2-z
1/2-x,1/2+y,1/2-z
1/2-x,1/2-y,1/2-z
1/2+x,1/2+y,1/2-z
1/2-x,1/2+y,1/2+z
1/2+x,1/2-y,1/2+z
loop_
_atom_site_type_symbol
_atom_site_label
_atom_site_fract_x
_atom_site_fract_y
_atom_site_fract_z
Si Si1 0.397388 0.388217 0.254032
Si Si2 0.220035 0.890362 0.134690
Si Si3 0.390017 0.889565 0.131856
Si Si4 0.623438 0.335591 0.084891
Si Si5 0.923537 0.661222 0.195002
Si Si6 0.295534 0.167677 0.415074
O O1 0.422552 0.500000 0.280447
O O2 0.314301 0.383681 0.280434
O O3 0.407463 0.381815 0.162906
O O4 0.424637 0.284928 0.293316
O O5 0.304499 0.889925 0.139273
O O6 0.196940 0.791133 0.088556
O O7 0.197766 0.000000 0.101173
O O8 0.401873 0.783322 0.087941
O O9 0.418644 0.879819 0.218198
O O10 0.411846 0.000000 0.098758
O O11 0.710022 0.347535 0.095135
O O12 0.605837 0.375865 0.000000
O O13 0.852890 0.630781 0.147601
O O14 0.000000 0.630463 0.160644
O O15 0.313572 0.129548 0.500000
#
# Coordination Sequence:
#
# PCOD9520688 Si02
#       6
#    16  16  16  16  16  16
#     4   9  17  30  48  68  92 123 158 197 238 275
#     4   8  14  26  46  70  92 117 153 196 241 286
#     4   9  17  30  49  70  91 118 154 198 245 284
#     4   9  17  29  48  76 103 121 144 186 241 297
#     4  10  20  32  47  68  94 128 170 202 220 258
#     4   9  17  29  45  68 101 132 153 185 234 280
#
# _framework density 22.514496999999999
#
# number of rings (size 3 to 8) (size 9 to 14) (size 15 to 20)
#    0.000    3.000    0.000    1.000    0.000    6.000 
#    0.000    3.333    0.000    9.500    0.000   15.167 
#    0.000    0.000    0.000    0.000    0.000    0.000 
#
# Total GULP energy -267342.669215 kJ/mol
# GULP energy per Si atom -5569.638942 kJ/mol
# Density = 2.246325 g / cm^3
# Si number density = 22.514497 Si / 1000 Ang^3
#
#
#
# Elastic Constant Matrix: (Units=GPa)
#
#
# Indices 1 2 3 4 5 6 
#
# 1 51.3042 2.4608 15.8643 0.0000 0.0000 0.0000
# 2 2.4608 89.0284 -7.1368 0.0000 0.0000 0.0000
# 3 15.8643 -7.1368 78.3608 0.0000 0.0000 0.0000
# 4 0.0000 0.0000 0.0000 -3.2889 0.0000 0.0000
# 5 0.0000 0.0000 0.0000 0.0000 107.4218 0.0000
# 6 0.0000 0.0000 0.0000 0.0000 0.0000 -0.4627
#
#
#
# Elastic Compliance Matrix: (Units=1/GPa)
#
#
# Indices 1 2 3 4 5 6 
#
# 1 0.020868 -0.000922 -0.004309 0.000000 0.000000 0.000000
# 2 -0.000922 0.011356 0.001221 0.000000 0.000000 0.000000
# 3 -0.004309 0.001221 0.013745 0.000000 0.000000 0.000000
# 4 0.000000 0.000000 0.000000 -0.304049 0.000000 0.000000
# 5 0.000000 0.000000 0.000000 0.000000 0.009309 0.000000
# 6 0.000000 0.000000 0.000000 0.000000 0.000000 -2.161459
#
#
# Mechanical properties :
#
#
# Convention : Reuss Voigt Hill
#
# Bulk Modulus (GPa) = 26.35132 26.78556 26.56844
# Shear Modulus (GPa) = -2.09244 34.56772 16.23764
#
# Velocity S-wave (km/s) = -0.96509 3.92261 2.68845
# Velocity P-wave (km/s) = 3.23847 5.69550 4.63284
#
# Compressibility (1/GPa) = 0.03794877
#
# Stress axis : x y z
#
# Youngs Moduli (GPa) = 47.91981 88.06123 72.75369
#
# Poissons Ratio (x) = 0.08121 0.31348
# Poissons Ratio (y) = 0.04419 -0.08883
# Poissons Ratio (z) = 0.20648 -0.10752
#
# Static dielectric constant tensor:
#      x y z
#    x 1.860140 0.000000 0.000000 
#    y 0.000000 1.900150 0.000000 
#    z 0.000000 0.000000 1.797010 
# 
# From -- ./inp_files/55010.got.cif
#   From: 2010.05.17/outbox.cif.g08.bks.cpg/sg71_28_cif.got.tgz:55010.got - 2010.06.03 16:22:01.
