data_PCOD9520992
_publ_section_title
;
Structure prediction by ZEFSAII (Michael W. Deem and Ramdas Pophale) SiO2 
 PCOD9520992
Probable space group: I M M M
;
_chemical_formula_sum "Si O2"
_cell_formula_units_Z 120
_cell_length_a 8.772303
_cell_length_b 28.714354
_cell_length_c 27.403374
_cell_angle_alpha 90.000000
_cell_angle_beta 90.000000
_cell_angle_gamma 90.000000
_cell_volume 6902.663657
_symmetry_space_group_name_H-M "I M M M"
_symmetry_group_IT_number 71
_symmetry_cell_setting 'orthorhombic'
loop_
_space_group_symop_operation_xyz
x,y,z
-x,-y,z
x,-y,-z
-x,y,-z
-x,-y,-z
x,y,-z
-x,y,z
x,-y,z
1/2+x,1/2+y,1/2+z
1/2-x,1/2-y,1/2+z
1/2+x,1/2-y,1/2-z
1/2-x,1/2+y,1/2-z
1/2-x,1/2-y,1/2-z
1/2+x,1/2+y,1/2-z
1/2-x,1/2+y,1/2+z
1/2+x,1/2-y,1/2+z
loop_
_atom_site_type_symbol
_atom_site_label
_atom_site_fract_x
_atom_site_fract_y
_atom_site_fract_z
Si Si1 0.316054 0.447398 0.290630
Si Si2 0.316201 0.306558 0.444303
Si Si3 0.684101 0.358128 0.349033
Si Si4 0.323039 0.293594 0.941255
Si Si5 0.183709 0.608058 0.798957
Si Si6 0.682592 0.199288 0.239886
Si Si7 0.818039 0.388986 0.090542
Si Si8 0.182522 0.945661 0.500000
O O1 0.500000 0.447580 0.289033
O O2 0.263432 0.500000 0.299568
O O3 0.269405 0.409547 0.331320
O O4 0.255014 0.427505 0.239540
O O5 0.269164 0.317300 0.500000
O O6 0.500000 0.302173 0.444010
O O7 0.272416 0.344270 0.403815
O O8 0.245526 0.256855 0.429960
O O9 0.500000 0.355061 0.345311
O O10 0.754971 0.321844 0.310688
O O11 0.500000 0.296279 0.926872
O O12 0.229598 0.335597 0.918207
O O13 0.314765 0.299097 0.000000
O O14 0.224705 0.660355 0.780754
O O15 0.230842 0.598519 0.854466
O O16 0.000000 0.604802 0.796432
O O17 0.500000 0.202202 0.238253
O O18 0.750000 0.250000 0.250000
O O19 0.000000 0.393316 0.087188
O O20 0.744271 0.419919 0.048142
O O21 0.000000 0.942323 0.500000
O O22 0.226783 0.000000 0.500000
#
# Coordination Sequence:
#
# PCOD9520992 Si02
#       8
#    16  16  16  16  16  16  16   8
#     4   9  18  34  56  79 102 132 172 217 266 316
#     4   9  18  32  51  75 105 143 182 214 251 304
#     4   9  18  33  52  75 105 139 175 216 258 308
#     4  10  20  33  50  74 104 136 172 213 258 304
#     4   9  21  37  52  75 104 134 171 216 261 311
#     4  10  20  34  50  73 105 139 174 211 259 313
#     4  11  22  37  57  77 101 135 174 217 264 318
#     4  11  25  43  59  77 103 135 173 223 276 317
#
# _framework density 17.384594
#
# number of rings (size 3 to 8) (size 9 to 14) (size 15 to 20)
#    0.000    2.333    0.667    1.400    1.867    4.000 
#    0.000    2.667    0.000    0.400    0.000    2.800 
#    0.000    0.000    0.000   10.000    0.000   10.400 
#
# Total GULP energy -334765.792766 kJ/mol
# GULP energy per Si atom -5579.429879 kJ/mol
# Density = 1.734503 g / cm^3
# Si number density = 17.384594 Si / 1000 Ang^3
#
#
#
# Elastic Constant Matrix: (Units=GPa)
#
#
# Indices 1 2 3 4 5 6 
#
# 1 20.1476 28.7625 29.5093 0.0000 0.0000 0.0000
# 2 28.7625 145.7137 82.6962 0.0000 0.0000 0.0000
# 3 29.5093 82.6962 125.2793 0.0000 0.0000 0.0000
# 4 0.0000 0.0000 0.0000 12.2199 0.0000 0.0000
# 5 0.0000 0.0000 0.0000 0.0000 22.5119 0.0000
# 6 0.0000 0.0000 0.0000 0.0000 0.0000 22.3920
#
#
#
# Elastic Compliance Matrix: (Units=1/GPa)
#
#
# Indices 1 2 3 4 5 6 
#
# 1 0.081626 -0.008316 -0.013738 0.000000 0.000000 0.000000
# 2 -0.008316 0.011821 -0.005844 0.000000 0.000000 0.000000
# 3 -0.013738 -0.005844 0.015076 0.000000 0.000000 0.000000
# 4 0.000000 0.000000 0.000000 0.081834 0.000000 0.000000
# 5 0.000000 0.000000 0.000000 0.000000 0.044421 0.000000
# 6 0.000000 0.000000 0.000000 0.000000 0.000000 0.044659
#
#
# Mechanical properties :
#
#
# Convention : Reuss Voigt Hill
#
# Bulk Modulus (GPa) = 18.96535 63.67519 41.32027
# Shear Modulus (GPa) = 14.17201 21.43626 17.80413
#
# Velocity S-wave (km/s) = 2.85828 3.51531 3.20368
# Velocity P-wave (km/s) = 4.67183 7.29269 6.12411
#
# Compressibility (1/GPa) = 0.05272773
#
# Stress axis : x y z
#
# Youngs Moduli (GPa) = 12.25094 84.59566 66.33152
#
# Poissons Ratio (x) = 0.70347 0.91125
# Poissons Ratio (y) = 0.10188 0.38765
# Poissons Ratio (z) = 0.16830 0.49439
#
# Static dielectric constant tensor:
#      x y z
#    x 1.586990 0.000000 0.000000 
#    y 0.000000 1.575170 0.000000 
#    z 0.000000 0.000000 1.592560 
# 
# From -- ./inp_files/63856.got.cif
#   From: 2010.05.17/outbox.cif.g08.bks.cpg/sg71_32_cif.got.tgz:63856.got - 2010.06.03 16:22:01.
