data_PCOD9520755
_publ_section_title
;
Structure prediction by ZEFSAII (Michael W. Deem and Ramdas Pophale) SiO2 
 PCOD9520755
Probable space group: I M M M
;
_chemical_formula_sum "Si O2"
_cell_formula_units_Z 112
_cell_length_a 16.189503
_cell_length_b 26.388951
_cell_length_c 14.902293
_cell_angle_alpha 90.000000
_cell_angle_beta 90.000000
_cell_angle_gamma 90.000000
_cell_volume 6366.617245
_symmetry_space_group_name_H-M "I M M M"
_symmetry_group_IT_number 71
_symmetry_cell_setting 'orthorhombic'
loop_
_space_group_symop_operation_xyz
x,y,z
-x,-y,z
x,-y,-z
-x,y,-z
-x,-y,-z
x,y,-z
-x,y,z
x,-y,z
1/2+x,1/2+y,1/2+z
1/2-x,1/2-y,1/2+z
1/2+x,1/2-y,1/2-z
1/2-x,1/2+y,1/2-z
1/2-x,1/2-y,1/2-z
1/2+x,1/2+y,1/2-z
1/2-x,1/2+y,1/2+z
1/2+x,1/2-y,1/2+z
loop_
_atom_site_type_symbol
_atom_site_label
_atom_site_fract_x
_atom_site_fract_y
_atom_site_fract_z
Si Si1 0.662984 0.293118 0.899603
Si Si2 0.404283 0.748010 0.727405
Si Si3 0.097210 0.555374 0.891563
Si Si4 0.399030 0.443582 0.712483
Si Si5 0.651689 0.835534 0.604025
Si Si6 0.600691 0.345135 0.397442
Si Si7 0.097260 0.903833 0.598501
O O1 0.645380 0.254526 0.819928
O O2 0.755275 0.314987 0.895044
O O3 0.607277 0.343598 0.887084
O O4 0.648289 0.273060 0.000000
O O5 0.500000 0.738379 0.748866
O O6 0.397026 0.799065 0.670647
O O7 0.373637 0.702151 0.663712
O O8 0.125499 0.500000 0.858217
O O9 0.145254 0.606137 0.865934
O O10 0.000000 0.561312 0.868578
O O11 0.101363 0.553596 0.000000
O O12 0.500000 0.442257 0.714009
O O13 0.374562 0.500000 0.684103
O O14 0.373112 0.397878 0.647921
O O15 0.369890 0.432176 0.814074
O O16 0.621611 0.831941 0.500000
O O17 0.628752 0.340067 0.500000
O O18 0.500000 0.344646 0.398683
O O19 0.134342 0.915791 0.500000
O O20 0.000000 0.915645 0.593996
#
# Coordination Sequence:
#
# PCOD9520755 Si02
#       7
#    16  16  16  16  16  16  16
#     4  10  20  33  48  68  96 130 163 198 246 297
#     4  11  20  32  51  71  94 127 167 209 245 288
#     4   8  14  27  48  72  99 130 160 192 234 288
#     4   9  16  26  40  59  83 111 149 198 245 286
#     4  10  20  32  48  74 105 132 159 196 248 306
#     4   9  17  28  42  62  86 113 148 193 244 289
#     4   9  16  28  45  62  83 116 159 200 238 284
#
# _framework density 17.591760000000001
#
# number of rings (size 3 to 8) (size 9 to 14) (size 15 to 20)
#    0.000    2.571    1.429    2.143    0.000    2.857 
#    0.000    3.571    0.000    2.571    0.000    0.000 
#    0.000    0.571    0.000    3.000    0.000    0.143 
#
# Total GULP energy -312098.259563 kJ/mol
# GULP energy per Si atom -5573.183206 kJ/mol
# Density = 1.755172 g / cm^3
# Si number density = 17.591760 Si / 1000 Ang^3
#
#
#
# Elastic Constant Matrix: (Units=GPa)
#
#
# Indices 1 2 3 4 5 6 
#
# 1 18.6469 9.6152 16.1427 0.0000 0.0000 0.0000
# 2 9.6152 90.8868 43.5722 0.0000 0.0000 0.0000
# 3 16.1427 43.5722 92.7578 0.0000 0.0000 0.0000
# 4 0.0000 0.0000 0.0000 16.2825 0.0000 0.0000
# 5 0.0000 0.0000 0.0000 0.0000 11.8364 0.0000
# 6 0.0000 0.0000 0.0000 0.0000 0.0000 6.3219
#
#
#
# Elastic Compliance Matrix: (Units=1/GPa)
#
#
# Indices 1 2 3 4 5 6 
#
# 1 0.063376 -0.001829 -0.010170 0.000000 0.000000 0.000000
# 2 -0.001829 0.014253 -0.006377 0.000000 0.000000 0.000000
# 3 -0.010170 -0.006377 0.015546 0.000000 0.000000 0.000000
# 4 0.000000 0.000000 0.000000 0.061415 0.000000 0.000000
# 5 0.000000 0.000000 0.000000 0.000000 0.084485 0.000000
# 6 0.000000 0.000000 0.000000 0.000000 0.000000 0.158180
#
#
# Mechanical properties :
#
#
# Convention : Reuss Voigt Hill
#
# Bulk Modulus (GPa) = 17.72333 37.88352 27.80343
# Shear Modulus (GPa) = 11.04201 15.75227 13.39714
#
# Velocity S-wave (km/s) = 2.50807 2.99563 2.76263
# Velocity P-wave (km/s) = 4.29929 5.79194 5.10052
#
# Compressibility (1/GPa) = 0.05642279
#
# Stress axis : x y z
#
# Youngs Moduli (GPa) = 15.77892 70.15832 64.32404
#
# Poissons Ratio (x) = 0.12832 0.65418
# Poissons Ratio (y) = 0.02886 0.41020
# Poissons Ratio (z) = 0.16047 0.44741
#
# Static dielectric constant tensor:
#      x y z
#    x 1.622420 0.000000 0.000000 
#    y 0.000000 1.613540 0.000000 
#    z 0.000000 0.000000 1.610800 
# 
# From -- ./inp_files/35132.got.cif
#   From: 2010.05.17/outbox.cif.g08.bks.cpg/sg71_18_cif.got.tgz:35132.got - 2010.06.03 16:22:01.
