data_PCOD9520748
_publ_section_title
;
Structure prediction by ZEFSAII (Michael W. Deem and Ramdas Pophale) SiO2 
 PCOD9520748
Probable space group: I M M M
;
_chemical_formula_sum "Si O2"
_cell_formula_units_Z 104
_cell_length_a 22.236577
_cell_length_b 30.581543
_cell_length_c 9.079877
_cell_angle_alpha 90.000000
_cell_angle_beta 90.000000
_cell_angle_gamma 90.000000
_cell_volume 6174.578185
_symmetry_space_group_name_H-M "I M M M"
_symmetry_group_IT_number 71
_symmetry_cell_setting 'orthorhombic'
loop_
_space_group_symop_operation_xyz
x,y,z
-x,-y,z
x,-y,-z
-x,y,-z
-x,-y,-z
x,y,-z
-x,y,z
x,-y,z
1/2+x,1/2+y,1/2+z
1/2-x,1/2-y,1/2+z
1/2+x,1/2-y,1/2-z
1/2-x,1/2+y,1/2-z
1/2-x,1/2-y,1/2-z
1/2+x,1/2+y,1/2-z
1/2-x,1/2+y,1/2+z
1/2+x,1/2-y,1/2+z
loop_
_atom_site_type_symbol
_atom_site_label
_atom_site_fract_x
_atom_site_fract_y
_atom_site_fract_z
Si Si1 0.795743 0.715668 0.177623
Si Si2 0.588543 0.110598 0.830508
Si Si3 0.066885 0.947114 0.168654
Si Si4 0.500000 0.948332 0.332675
Si Si5 0.433026 0.203064 0.677236
Si Si6 0.311514 0.448534 0.175112
Si Si7 0.228078 0.377124 0.670866
O O1 0.750000 0.750000 0.250000
O O2 0.867092 0.723296 0.218093
O O3 0.775464 0.668171 0.238642
O O4 0.791606 0.716809 0.000000
O O5 0.557007 0.070595 0.751578
O O6 0.570335 0.154765 0.746236
O O7 0.659825 0.106011 0.826821
O O8 0.569907 0.114156 0.000000
O O9 0.120600 0.936217 0.277468
O O10 0.000000 0.931461 0.209629
O O11 0.064359 0.000000 0.166167
O O12 0.079781 0.933135 0.000000
O O13 0.500000 0.931844 0.500000
O O14 0.500000 0.000000 0.333323
O O15 0.432426 0.200408 0.500000
O O16 0.500000 0.221652 0.718410
O O17 0.301611 0.500000 0.216681
O O18 0.269104 0.414310 0.257546
O O19 0.303893 0.445345 0.000000
O O20 0.245174 0.368782 0.500000
#
# Coordination Sequence:
#
# PCOD9520748 Si02
#       7
#    16  16  16   8  16  16  16
#     4  10  20  35  56  82 111 140 173 216 267 323
#     4  10  20  33  50  72  96 125 167 218 263 304
#     4   8  14  26  45  68  94 126 165 208 253 302
#     4  11  23  35  47  65  95 137 177 215 263 315
#     4   9  17  31  54  80 104 133 168 208 255 309
#     4  10  20  32  48  73 104 137 174 216 261 312
#     4  10  21  36  54  76 103 137 176 218 267 318
#
# _framework density 16.843256
#
# number of rings (size 3 to 8) (size 9 to 14) (size 15 to 20)
#    0.000    2.385    0.769    2.538    0.000    4.923 
#    0.000    4.615    0.000    0.923    0.000    2.154 
#    0.000    0.000    0.000    0.000    0.000    0.000 
#
# Total GULP energy -289568.300222 kJ/mol
# GULP energy per Si atom -5568.621158 kJ/mol
# Density = 1.680492 g / cm^3
# Si number density = 16.843256 Si / 1000 Ang^3
#
#
#
# Elastic Constant Matrix: (Units=GPa)
#
#
# Indices 1 2 3 4 5 6 
#
# 1 132.9021 54.9648 50.8115 0.0000 0.0000 0.0000
# 2 54.9648 59.7178 37.5719 0.0000 0.0000 0.0000
# 3 50.8115 37.5719 59.8217 0.0000 0.0000 0.0000
# 4 0.0000 0.0000 0.0000 24.7278 0.0000 0.0000
# 5 0.0000 0.0000 0.0000 0.0000 32.9511 0.0000
# 6 0.0000 0.0000 0.0000 0.0000 0.0000 29.6937
#
#
#
# Elastic Compliance Matrix: (Units=1/GPa)
#
#
# Indices 1 2 3 4 5 6 
#
# 1 0.013328 -0.008506 -0.005978 0.000000 0.000000 0.000000
# 2 -0.008506 0.033114 -0.013573 0.000000 0.000000 0.000000
# 3 -0.005978 -0.013573 0.030319 0.000000 0.000000 0.000000
# 4 0.000000 0.000000 0.000000 0.040440 0.000000 0.000000
# 5 0.000000 0.000000 0.000000 0.000000 0.030348 0.000000
# 6 0.000000 0.000000 0.000000 0.000000 0.000000 0.033677
#
#
# Mechanical properties :
#
#
# Convention : Reuss Voigt Hill
#
# Bulk Modulus (GPa) = 48.43431 59.90420 54.16926
# Shear Modulus (GPa) = 20.47323 24.74740 22.61031
#
# Velocity S-wave (km/s) = 3.49021 3.83727 3.66785
# Velocity P-wave (km/s) = 6.71270 7.43477 7.08294
#
# Compressibility (1/GPa) = 0.02064652
#
# Stress axis : x y z
#
# Youngs Moduli (GPa) = 75.03210 30.19904 32.98288
#
# Poissons Ratio (x) = 0.25686 0.19718
# Poissons Ratio (y) = 0.63820 0.44767
# Poissons Ratio (z) = 0.44855 0.40989
#
# Static dielectric constant tensor:
#      x y z
#    x 1.605690 0.000000 0.000000 
#    y 0.000000 1.532790 0.000000 
#    z 0.000000 0.000000 1.570910 
# 
# From -- ./inp_files/11551.got.cif
#   From: 2010.05.17/outbox.cif.g08.bks.cpg/sg71_6_cif.got.tgz:11551.got - 2010.06.03 16:22:01.
