data_PCOD9520610
_publ_section_title
;
Structure prediction by ZEFSAII (Michael W. Deem and Ramdas Pophale) SiO2 
 PCOD9520610
Probable space group: I M M M
;
_chemical_formula_sum "Si O2"
_cell_formula_units_Z 116
_cell_length_a 27.419255
_cell_length_b 7.339242
_cell_length_c 28.025674
_cell_angle_alpha 90.000000
_cell_angle_beta 90.000000
_cell_angle_gamma 90.000000
_cell_volume 5639.789888
_symmetry_space_group_name_H-M "I M M M"
_symmetry_group_IT_number 71
_symmetry_cell_setting 'orthorhombic'
loop_
_space_group_symop_operation_xyz
x,y,z
-x,-y,z
x,-y,-z
-x,y,-z
-x,-y,-z
x,y,-z
-x,y,z
x,-y,z
1/2+x,1/2+y,1/2+z
1/2-x,1/2-y,1/2+z
1/2+x,1/2-y,1/2-z
1/2-x,1/2+y,1/2-z
1/2-x,1/2-y,1/2-z
1/2+x,1/2+y,1/2-z
1/2-x,1/2+y,1/2+z
1/2+x,1/2-y,1/2+z
loop_
_atom_site_type_symbol
_atom_site_label
_atom_site_fract_x
_atom_site_fract_y
_atom_site_fract_z
Si Si1 0.706166 0.721480 0.845991
Si Si2 0.944858 0.280441 0.312007
Si Si3 0.821543 0.788014 0.153615
Si Si4 0.441227 0.215794 0.920777
Si Si5 0.648268 0.710750 0.245374
Si Si6 0.194750 0.787272 0.448565
Si Si7 0.689453 0.278839 0.551520
Si Si8 0.907069 0.000000 0.500000
O O1 0.704128 0.500000 0.847932
O O2 0.762757 0.775514 0.843196
O O3 0.679242 0.788491 0.798732
O O4 0.682623 0.786559 0.896162
O O5 0.944853 0.500000 0.311788
O O6 0.930686 0.227796 0.366017
O O7 0.906832 0.216980 0.272810
O O8 0.000000 0.218934 0.303250
O O9 0.842917 0.708282 0.202403
O O10 0.833896 0.713045 0.100989
O O11 0.836180 0.000000 0.152310
O O12 0.500000 0.239504 0.927666
O O13 0.414060 0.340351 0.958323
O O14 0.431189 0.000000 0.926480
O O15 0.664300 0.500000 0.248870
O O16 0.180870 0.705320 0.500000
O O17 0.253949 0.780840 0.447865
O O18 0.180255 0.000000 0.451493
O O19 0.668761 0.223168 0.500000
O O20 0.690133 0.500000 0.552732
#
# Coordination Sequence:
#
# PCOD9520610 Si02
#       8
#    16  16  16  16  16  16  16   4
#     4   9  17  28  42  63  91 121 153 187 227 277
#     4   9  20  38  55  69  89 119 155 197 243 291
#     4   9  17  28  42  66  95 123 154 191 230 272
#     4   9  18  31  47  72 101 122 152 202 252 307
#     4  10  20  31  46  67  94 120 152 195 237 285
#     4   8  13  22  37  54  76 110 148 183 218 256
#     4   8  13  22  37  57  83 115 150 183 218 261
#     4  12  19  26  52  82  98 124 158 194 262 324
#
# _framework density 20.568142999999999
#
# number of rings (size 3 to 8) (size 9 to 14) (size 15 to 20)
#    0.000    3.034    0.000    2.069    0.966    1.931 
#    0.000    0.000    1.517    0.000    0.000    0.000 
#    0.000    0.552    0.000    6.897    0.000    1.103 
#
# Total GULP energy -323212.189897 kJ/mol
# GULP energy per Si atom -5572.623964 kJ/mol
# Density = 2.052133 g / cm^3
# Si number density = 20.568143 Si / 1000 Ang^3
#
#
#
# Elastic Constant Matrix: (Units=GPa)
#
#
# Indices 1 2 3 4 5 6 
#
# 1 45.2547 -0.9836 55.0228 0.0000 0.0000 0.0000
# 2 -0.9836 91.9964 22.1358 0.0000 0.0000 0.0000
# 3 55.0228 22.1358 247.4750 0.0000 0.0000 0.0000
# 4 0.0000 0.0000 0.0000 48.2579 0.0000 0.0000
# 5 0.0000 0.0000 0.0000 0.0000 96.1336 0.0000
# 6 0.0000 0.0000 0.0000 0.0000 0.0000 14.5784
#
#
#
# Elastic Compliance Matrix: (Units=1/GPa)
#
#
# Indices 1 2 3 4 5 6 
#
# 1 0.030643 0.002010 -0.006993 0.000000 0.000000 0.000000
# 2 0.002010 0.011241 -0.001452 0.000000 0.000000 0.000000
# 3 -0.006993 -0.001452 0.005726 0.000000 0.000000 0.000000
# 4 0.000000 0.000000 0.000000 0.020722 0.000000 0.000000
# 5 0.000000 0.000000 0.000000 0.000000 0.010402 0.000000
# 6 0.000000 0.000000 0.000000 0.000000 0.000000 0.068594
#
#
# Mechanical properties :
#
#
# Convention : Reuss Voigt Hill
#
# Bulk Modulus (GPa) = 28.78576 59.67515 44.23045
# Shear Modulus (GPa) = 29.10729 52.36405 40.73567
#
# Velocity S-wave (km/s) = 3.76595 5.05115 4.45513
# Velocity P-wave (km/s) = 5.73895 7.94325 6.92931
#
# Compressibility (1/GPa) = 0.03473940
#
# Stress axis : x y z
#
# Youngs Moduli (GPa) = 32.63375 88.96041 174.65707
#
# Poissons Ratio (x) = -0.17883 1.22136
# Poissons Ratio (y) = -0.06560 0.25367
# Poissons Ratio (z) = 0.22820 0.12921
#
# Static dielectric constant tensor:
#      x y z
#    x 1.732480 0.000000 0.000000 
#    y 0.000000 1.714420 0.000000 
#    z 0.000000 0.000000 1.823780 
# 
# From -- ./inp_files/67349.got.cif
#   From: 2010.05.17/outbox.cif.g08.bks.cpg/sg71_34_cif.got.tgz:67349.got - 2010.06.03 16:22:01.
