data_PCOD9520237
_publ_section_title
;
Structure prediction by ZEFSAII (Michael W. Deem and Ramdas Pophale) SiO2 
 PCOD9520237
Probable space group: I M M M
;
_chemical_formula_sum "Si O2"
_cell_formula_units_Z 66
_cell_length_a 26.428296
_cell_length_b 15.656787
_cell_length_c 7.616866
_cell_angle_alpha 90.000000
_cell_angle_beta 90.000000
_cell_angle_gamma 90.000000
_cell_volume 3151.723580
_symmetry_space_group_name_H-M "I M M M"
_symmetry_group_IT_number 71
_symmetry_cell_setting 'orthorhombic'
loop_
_space_group_symop_operation_xyz
x,y,z
-x,-y,z
x,-y,-z
-x,y,-z
-x,-y,-z
x,y,-z
-x,y,z
x,-y,z
1/2+x,1/2+y,1/2+z
1/2-x,1/2-y,1/2+z
1/2+x,1/2-y,1/2-z
1/2-x,1/2+y,1/2-z
1/2-x,1/2-y,1/2-z
1/2+x,1/2+y,1/2-z
1/2-x,1/2+y,1/2+z
1/2+x,1/2-y,1/2+z
loop_
_atom_site_type_symbol
_atom_site_label
_atom_site_fract_x
_atom_site_fract_y
_atom_site_fract_z
Si Si1 0.558268 0.500000 0.715074
Si Si2 0.633069 0.649051 0.710983
Si Si3 0.755367 0.901460 0.213388
Si Si4 0.350336 0.160729 0.791269
Si Si5 0.000000 0.500000 0.500000
Si Si6 0.416276 0.000000 0.308096
O O1 0.500000 0.500000 0.772940
O O2 0.557537 0.500000 0.500000
O O3 0.590186 0.583212 0.772129
O O4 0.634327 0.640799 0.500000
O O5 0.689084 0.624161 0.777990
O O6 0.625250 0.747731 0.754860
O O7 0.708132 0.843900 0.271650
O O8 0.744916 0.000000 0.260346
O O9 0.757299 0.897569 0.000000
O O10 0.381290 0.083558 0.709473
O O11 0.349752 0.146616 0.000000
O O12 0.043860 0.500000 0.652849
O O13 0.440037 0.000000 0.500000
#
# Coordination Sequence:
#
# PCOD9520237 Si02
#       6
#     8  16  16  16   2   8
#     4   9  18  35  57  82 114 154 208 277 329 380
#     4  10  19  34  58  88 120 163 221 270 329 402
#     4   9  16  30  57  85 121 169 211 265 335 394
#     4  11  21  38  61  91 129 168 208 269 333 396
#     4  12  26  52  72  98 132 170 218 280 338 378
#     4  12  25  46  72  97 130 173 219 270 332 395
#
# _framework density 20.940923000000002
#
# number of rings (size 3 to 8) (size 9 to 14) (size 15 to 20)
#    0.000    1.818    3.636    1.636    0.000    0.000 
#    2.182    1.818    0.000    0.727    0.000    0.000 
#    0.000    0.000    0.000    0.000    0.000    0.000 
#
# Total GULP energy -184143.697337 kJ/mol
# GULP energy per Si atom -5580.112041 kJ/mol
# Density = 2.089326 g / cm^3
# Si number density = 20.940923 Si / 1000 Ang^3
#
#
#
# Elastic Constant Matrix: (Units=GPa)
#
#
# Indices 1 2 3 4 5 6 
#
# 1 167.1075 83.1510 40.4693 0.0000 0.0000 0.0000
# 2 83.1510 166.4506 10.3316 0.0000 0.0000 0.0000
# 3 40.4693 10.3316 87.1649 0.0000 0.0000 0.0000
# 4 0.0000 0.0000 0.0000 12.0673 0.0000 0.0000
# 5 0.0000 0.0000 0.0000 0.0000 -114.3771 0.0000
# 6 0.0000 0.0000 0.0000 0.0000 0.0000 12.1802
#
#
#
# Elastic Compliance Matrix: (Units=1/GPa)
#
#
# Indices 1 2 3 4 5 6 
#
# 1 0.008996 -0.004266 -0.003671 0.000000 0.000000 0.000000
# 2 -0.004266 0.008075 0.001024 0.000000 0.000000 0.000000
# 3 -0.003671 0.001024 0.013056 0.000000 0.000000 0.000000
# 4 0.000000 0.000000 0.000000 0.082869 0.000000 0.000000
# 5 0.000000 0.000000 0.000000 0.000000 -0.008743 0.000000
# 6 0.000000 0.000000 0.000000 0.000000 0.000000 0.082101
#
#
# Mechanical properties :
#
#
# Convention : Reuss Voigt Hill
#
# Bulk Modulus (GPa) = 61.35073 76.51407 68.93240
# Shear Modulus (GPa) = 24.31743 1.09213 12.70478
#
# Velocity S-wave (km/s) = 3.41139 0.72295 2.46579
# Velocity P-wave (km/s) = 6.69906 6.10854 6.41061
#
# Compressibility (1/GPa) = 0.01629973
#
# Stress axis : x y z
#
# Youngs Moduli (GPa) = 111.16080 123.83276 76.59552
#
# Poissons Ratio (x) = 0.52828 0.28118
# Poissons Ratio (y) = 0.47422 -0.07840
# Poissons Ratio (z) = 0.40807 -0.12674
#
# Static dielectric constant tensor:
#      x y z
#    x 1.727740 0.000000 0.000000 
#    y 0.000000 1.733320 0.000000 
#    z 0.000000 0.000000 1.770490 
# 
# From -- ./inp_files/14222.got.cif
#   From: 2010.05.17/outbox.cif.g08.bks.cpg/sg71_8_cif.got.tgz:14222.got - 2010.06.03 16:22:01.
