data_PCOD9520986
_publ_section_title
;
Structure prediction by ZEFSAII (Michael W. Deem and Ramdas Pophale) SiO2 
 PCOD9520986
Probable space group: I M M M
;
_chemical_formula_sum "Si O2"
_cell_formula_units_Z 80
_cell_length_a 8.545054
_cell_length_b 26.206031
_cell_length_c 20.128267
_cell_angle_alpha 90.000000
_cell_angle_beta 90.000000
_cell_angle_gamma 90.000000
_cell_volume 4507.362080
_symmetry_space_group_name_H-M "I M M M"
_symmetry_group_IT_number 71
_symmetry_cell_setting 'orthorhombic'
loop_
_space_group_symop_operation_xyz
x,y,z
-x,-y,z
x,-y,-z
-x,y,-z
-x,-y,-z
x,y,-z
-x,y,z
x,-y,z
1/2+x,1/2+y,1/2+z
1/2-x,1/2-y,1/2+z
1/2+x,1/2-y,1/2-z
1/2-x,1/2+y,1/2-z
1/2-x,1/2-y,1/2-z
1/2+x,1/2+y,1/2-z
1/2-x,1/2+y,1/2+z
1/2+x,1/2-y,1/2+z
loop_
_atom_site_type_symbol
_atom_site_label
_atom_site_fract_x
_atom_site_fract_y
_atom_site_fract_z
Si Si1 0.320893 0.058119 0.401096
Si Si2 0.815436 0.555973 0.258152
Si Si3 0.186879 0.759039 0.354660
Si Si4 0.826495 0.130445 0.500000
Si Si5 0.689357 0.831436 0.245887
Si Si6 0.320957 0.764921 0.500000
O O1 0.500000 0.072833 0.417658
O O2 0.308263 0.057640 0.321912
O O3 0.201486 0.095124 0.436549
O O4 0.297401 0.000000 0.423426
O O5 0.750065 0.500000 0.279052
O O6 0.751823 0.612252 0.275499
O O7 0.000000 0.555312 0.276769
O O8 0.253547 0.809279 0.316975
O O9 0.234035 0.711017 0.308541
O O10 0.243098 0.750310 0.429782
O O11 0.000000 0.763108 0.354102
O O12 0.698367 0.174095 0.500000
O O13 0.000000 0.153280 0.500000
O O14 0.500000 0.834002 0.249440
O O15 0.500000 0.748712 0.500000
#
# Coordination Sequence:
#
# PCOD9520986 Si02
#       6
#    16  16  16   8  16   8
#     4   9  17  29  44  62  88 125 164 194 221 265
#     4   8  14  26  46  70  92 117 153 191 224 268
#     4  10  20  33  50  74 102 128 160 204 246 287
#     4  12  23  31  42  61  86 117 155 202 247 283
#     4   9  17  31  52  76 102 133 163 193 237 290
#     4  12  24  37  51  66  89 124 164 203 249 302
#
# _framework density 17.748740000000002
#
# number of rings (size 3 to 8) (size 9 to 14) (size 15 to 20)
#    0.000    2.400    0.000    5.100    0.000    4.000 
#    0.000    0.000    0.000    1.800    0.000    0.700 
#    0.000    5.600    0.000    0.000    0.000    0.000 
#
# Total GULP energy -222853.439098 kJ/mol
# GULP energy per Si atom -5571.335977 kJ/mol
# Density = 1.770834 g / cm^3
# Si number density = 17.748740 Si / 1000 Ang^3
#
#
#
# Elastic Constant Matrix: (Units=GPa)
#
#
# Indices 1 2 3 4 5 6 
#
# 1 18.1648 12.0753 11.4986 0.0000 0.0000 0.0000
# 2 12.0753 116.2645 22.9684 0.0000 0.0000 0.0000
# 3 11.4986 22.9684 70.4678 0.0000 0.0000 0.0000
# 4 0.0000 0.0000 0.0000 20.6990 0.0000 0.0000
# 5 0.0000 0.0000 0.0000 0.0000 18.8125 0.0000
# 6 0.0000 0.0000 0.0000 0.0000 0.0000 15.3771
#
#
#
# Elastic Compliance Matrix: (Units=1/GPa)
#
#
# Indices 1 2 3 4 5 6 
#
# 1 0.063893 -0.004891 -0.008832 0.000000 0.000000 0.000000
# 2 -0.004891 0.009567 -0.002320 0.000000 0.000000 0.000000
# 3 -0.008832 -0.002320 0.016388 0.000000 0.000000 0.000000
# 4 0.000000 0.000000 0.000000 0.048312 0.000000 0.000000
# 5 0.000000 0.000000 0.000000 0.000000 0.053156 0.000000
# 6 0.000000 0.000000 0.000000 0.000000 0.000000 0.065032
#
#
# Mechanical properties :
#
#
# Convention : Reuss Voigt Hill
#
# Bulk Modulus (GPa) = 17.31215 33.10908 25.21061
# Shear Modulus (GPa) = 16.25017 21.53472 18.89244
#
# Velocity S-wave (km/s) = 3.02912 3.48704 3.26611
# Velocity P-wave (km/s) = 4.69140 5.90825 5.33464
#
# Compressibility (1/GPa) = 0.05776291
#
# Stress axis : x y z
#
# Youngs Moduli (GPa) = 15.65106 104.52084 61.01939
#
# Poissons Ratio (x) = 0.51124 0.53889
# Poissons Ratio (y) = 0.07655 0.14158
# Poissons Ratio (z) = 0.13822 0.24252
#
# Static dielectric constant tensor:
#      x y z
#    x 1.609130 0.000000 0.000000 
#    y 0.000000 1.664670 0.000000 
#    z 0.000000 0.000000 1.602540 
# 
# From -- ./inp_files/42261.got.cif
#   From: 2010.05.17/outbox.cif.g08.bks.cpg/sg71_22_cif.got.tgz:42261.got - 2010.06.03 16:22:01.
