data_PCOD9520328
_publ_section_title
;
Structure prediction by ZEFSAII (Michael W. Deem and Ramdas Pophale) SiO2 
 PCOD9520328
Probable space group: I M M M
;
_chemical_formula_sum "Si O2"
_cell_formula_units_Z 92
_cell_length_a 20.413030
_cell_length_b 7.521765
_cell_length_c 29.359360
_cell_angle_alpha 90.000000
_cell_angle_beta 90.000000
_cell_angle_gamma 90.000000
_cell_volume 4507.895282
_symmetry_space_group_name_H-M "I M M M"
_symmetry_group_IT_number 71
_symmetry_cell_setting 'orthorhombic'
loop_
_space_group_symop_operation_xyz
x,y,z
-x,-y,z
x,-y,-z
-x,y,-z
-x,-y,-z
x,y,-z
-x,y,z
x,-y,z
1/2+x,1/2+y,1/2+z
1/2-x,1/2-y,1/2+z
1/2+x,1/2-y,1/2-z
1/2-x,1/2+y,1/2-z
1/2-x,1/2-y,1/2-z
1/2+x,1/2+y,1/2-z
1/2-x,1/2+y,1/2+z
1/2+x,1/2-y,1/2+z
loop_
_atom_site_type_symbol
_atom_site_label
_atom_site_fract_x
_atom_site_fract_y
_atom_site_fract_z
Si Si1 0.734416 0.711424 0.552232
Si Si2 0.171682 0.710319 0.800664
Si Si3 0.000000 0.000000 0.084066
Si Si4 0.370002 0.286461 0.103418
Si Si5 0.321464 0.714362 0.800932
Si Si6 0.893199 0.705461 0.891790
Si Si7 0.500000 0.282027 0.947542
O O1 0.734528 0.774779 0.500000
O O2 0.723971 0.500000 0.552014
O O3 0.804125 0.746657 0.575606
O O4 0.675596 0.793068 0.581281
O O5 0.176585 0.500000 0.808576
O O6 0.246177 0.782127 0.804143
O O7 0.150782 0.739039 0.748617
O O8 0.124025 0.773240 0.840513
O O9 0.056916 0.842721 0.085921
O O10 0.375606 0.500000 0.105666
O O11 0.360679 0.221504 0.155127
O O12 0.434584 0.221051 0.078042
O O13 0.318807 0.500000 0.802681
O O14 0.916713 0.500000 0.890173
O O15 0.500000 0.500000 0.947372
O O16 0.500000 0.226578 0.000000
#
# Coordination Sequence:
#
# PCOD9520328 Si02
#       7
#    16  16   4  16  16  16   8
#     4  11  23  39  62  93 123 157 210 268 319 379
#     4   9  18  33  55  86 119 154 202 255 303 368
#     4  12  26  44  67  96 128 168 202 264 317 386
#     4  10  19  35  57  87 123 162 213 265 316 382
#     4   9  17  29  52  85 120 155 201 254 309 364
#     4  11  23  43  67  93 127 168 214 260 318 386
#     4   9  18  32  54  83 119 165 210 257 315 373
#
# _framework density 20.408636999999999
#
# number of rings (size 3 to 8) (size 9 to 14) (size 15 to 20)
#    0.000    2.000    2.609    1.304    1.217    2.783 
#    0.000    2.174    1.913    2.609    0.000    0.000 
#    0.000    0.000    0.000    0.000    0.000    0.000 
#
# Total GULP energy -256339.778385 kJ/mol
# GULP energy per Si atom -5572.603878 kJ/mol
# Density = 2.036219 g / cm^3
# Si number density = 20.408637 Si / 1000 Ang^3
#
#
#
# Elastic Constant Matrix: (Units=GPa)
#
#
# Indices 1 2 3 4 5 6 
#
# 1 124.8466 17.3043 51.8503 0.0000 0.0000 0.0000
# 2 17.3043 79.9966 1.3414 0.0000 0.0000 0.0000
# 3 51.8503 1.3414 131.3771 0.0000 0.0000 0.0000
# 4 0.0000 0.0000 0.0000 14.1427 0.0000 0.0000
# 5 0.0000 0.0000 0.0000 0.0000 18.4792 0.0000
# 6 0.0000 0.0000 0.0000 0.0000 0.0000 9.5125
#
#
#
# Elastic Compliance Matrix: (Units=1/GPa)
#
#
# Indices 1 2 3 4 5 6 
#
# 1 0.009914 -0.002079 -0.003892 0.000000 0.000000 0.000000
# 2 -0.002079 0.012939 0.000689 0.000000 0.000000 0.000000
# 3 -0.003892 0.000689 0.009141 0.000000 0.000000 0.000000
# 4 0.000000 0.000000 0.000000 0.070708 0.000000 0.000000
# 5 0.000000 0.000000 0.000000 0.000000 0.054115 0.000000
# 6 0.000000 0.000000 0.000000 0.000000 0.000000 0.105125
#
#
# Mechanical properties :
#
#
# Convention : Reuss Voigt Hill
#
# Bulk Modulus (GPa) = 46.66621 53.02359 49.84490
# Shear Modulus (GPa) = 17.87954 26.14183 22.01069
#
# Velocity S-wave (km/s) = 2.96307 3.58288 3.28761
# Velocity P-wave (km/s) = 5.88404 6.56912 6.23600
#
# Compressibility (1/GPa) = 0.02142878
#
# Stress axis : x y z
#
# Youngs Moduli (GPa) = 100.86477 77.28706 109.40271
#
# Poissons Ratio (x) = 0.16071 0.42575
# Poissons Ratio (y) = 0.20973 -0.07533
# Poissons Ratio (z) = 0.39253 -0.05322
#
# Static dielectric constant tensor:
#      x y z
#    x 1.690220 0.000000 0.000000 
#    y 0.000000 1.756150 0.000000 
#    z 0.000000 0.000000 1.740350 
# 
# From -- ./inp_files/66352.got.cif
#   From: 2010.05.17/outbox.cif.g08.bks.cpg/sg71_34_cif.got.tgz:66352.got - 2010.06.03 16:22:01.
