data_PCOD9520645
_publ_section_title
;
Structure prediction by ZEFSAII (Michael W. Deem and Ramdas Pophale) SiO2 
 PCOD9520645
Probable space group: I M M M
;
_chemical_formula_sum "Si O2"
_cell_formula_units_Z 80
_cell_length_a 19.603587
_cell_length_b 8.667549
_cell_length_c 34.001004
_cell_angle_alpha 90.000000
_cell_angle_beta 90.000000
_cell_angle_gamma 90.000000
_cell_volume 5777.282325
_symmetry_space_group_name_H-M "I M M M"
_symmetry_group_IT_number 71
_symmetry_cell_setting 'orthorhombic'
loop_
_space_group_symop_operation_xyz
x,y,z
-x,-y,z
x,-y,-z
-x,y,-z
-x,-y,-z
x,y,-z
-x,y,z
x,-y,z
1/2+x,1/2+y,1/2+z
1/2-x,1/2-y,1/2+z
1/2+x,1/2-y,1/2-z
1/2-x,1/2+y,1/2-z
1/2-x,1/2-y,1/2-z
1/2+x,1/2+y,1/2-z
1/2-x,1/2+y,1/2+z
1/2+x,1/2-y,1/2+z
loop_
_atom_site_type_symbol
_atom_site_label
_atom_site_fract_x
_atom_site_fract_y
_atom_site_fract_z
Si Si1 0.354785 0.815214 0.732219
Si Si2 0.920945 0.685919 0.545192
Si Si3 0.500000 0.314913 0.257003
Si Si4 0.362597 0.684846 0.121889
Si Si5 0.000000 0.187263 0.666125
Si Si6 0.725823 0.815224 0.189068
O O1 0.429715 0.748023 0.725355
O O2 0.326769 0.768365 0.775760
O O3 0.298528 0.752273 0.702009
O O4 0.356518 0.000000 0.730868
O O5 0.905212 0.727764 0.500000
O O6 0.918752 0.500000 0.548089
O O7 0.871449 0.758275 0.577406
O O8 0.000000 0.733614 0.552868
O O9 0.500000 0.500000 0.258234
O O10 0.500000 0.262792 0.211254
O O11 0.359624 0.500000 0.122951
O O12 0.432081 0.738328 0.143841
O O13 0.301557 0.752655 0.147792
O O14 0.000000 0.000000 0.665855
O O15 0.728864 0.000000 0.188553
#
# Coordination Sequence:
#
# PCOD9520645 Si02
#       6
#    16  16   8  16   8  16
#     4  10  20  32  45  63  85 111 145 183 220 260
#     4   9  18  31  44  60  84 113 145 182 222 262
#     4  11  19  31  47  62  86 115 145 182 222 264
#     4  11  19  30  45  63  85 112 146 186 224 260
#     4   9  18  27  38  60  85 110 144 182 218 255
#     4  10  20  32  45  62  84 113 145 180 223 264
#
# _framework density 13.847341999999999
#
# number of rings (size 3 to 8) (size 9 to 14) (size 15 to 20)
#    0.000    2.000    3.000    2.700    0.000    2.000 
#    0.000    1.000    0.000    0.000    0.000    0.000 
#    0.000    0.000    0.000    0.900    0.000   16.600 
#
# Total GULP energy -223151.483018 kJ/mol
# GULP energy per Si atom -5578.787075 kJ/mol
# Density = 1.381582 g / cm^3
# Si number density = 13.847342 Si / 1000 Ang^3
#
#
#
# Elastic Constant Matrix: (Units=GPa)
#
#
# Indices 1 2 3 4 5 6 
#
# 1 102.5925 34.7883 49.6852 0.0000 0.0000 0.0000
# 2 34.7883 43.5222 30.7691 0.0000 0.0000 0.0000
# 3 49.6852 30.7691 91.8197 0.0000 0.0000 0.0000
# 4 0.0000 0.0000 0.0000 20.6139 0.0000 0.0000
# 5 0.0000 0.0000 0.0000 0.0000 24.2353 0.0000
# 6 0.0000 0.0000 0.0000 0.0000 0.0000 21.2555
#
#
#
# Elastic Compliance Matrix: (Units=1/GPa)
#
#
# Indices 1 2 3 4 5 6 
#
# 1 0.015197 -0.008300 -0.005442 0.000000 0.000000 0.000000
# 2 -0.008300 0.034643 -0.007118 0.000000 0.000000 0.000000
# 3 -0.005442 -0.007118 0.016221 0.000000 0.000000 0.000000
# 4 0.000000 0.000000 0.000000 0.048511 0.000000 0.000000
# 5 0.000000 0.000000 0.000000 0.000000 0.041262 0.000000
# 6 0.000000 0.000000 0.000000 0.000000 0.000000 0.047047
#
#
# Mechanical properties :
#
#
# Convention : Reuss Voigt Hill
#
# Bulk Modulus (GPa) = 41.08200 52.04662 46.56431
# Shear Modulus (GPa) = 19.78509 21.40040 20.59275
#
# Velocity S-wave (km/s) = 3.78405 3.93549 3.86051
# Velocity P-wave (km/s) = 6.98743 7.63665 7.31924
#
# Compressibility (1/GPa) = 0.02434156
#
# Stress axis : x y z
#
# Youngs Moduli (GPa) = 65.80049 28.86551 61.64873
#
# Poissons Ratio (x) = 0.23959 0.33550
# Poissons Ratio (y) = 0.54616 0.43880
# Poissons Ratio (z) = 0.35810 0.20546
#
# Static dielectric constant tensor:
#      x y z
#    x 1.441750 0.000000 0.000000 
#    y 0.000000 1.458460 0.000000 
#    z 0.000000 0.000000 1.450400 
# 
# From -- ./inp_files/8663.got.cif
#   From: 2010.05.17/outbox.cif.g08.bks.cpg/sg71_5_cif.got.tgz:8663.got - 2010.06.03 16:22:01.
