data_PCOD9520078
_publ_section_title
;
Structure prediction by ZEFSAII (Michael W. Deem and Ramdas Pophale) SiO2 
 PCOD9520078
Probable space group: I M M M
;
_chemical_formula_sum "Si O2"
_cell_formula_units_Z 120
_cell_length_a 8.820185
_cell_length_b 27.562805
_cell_length_c 28.538331
_cell_angle_alpha 90.000000
_cell_angle_beta 90.000000
_cell_angle_gamma 90.000000
_cell_volume 6937.926230
_symmetry_space_group_name_H-M "I M M M"
_symmetry_group_IT_number 71
_symmetry_cell_setting 'orthorhombic'
loop_
_space_group_symop_operation_xyz
x,y,z
-x,-y,z
x,-y,-z
-x,y,-z
-x,-y,-z
x,y,-z
-x,y,z
x,-y,z
1/2+x,1/2+y,1/2+z
1/2-x,1/2-y,1/2+z
1/2+x,1/2-y,1/2-z
1/2-x,1/2+y,1/2-z
1/2-x,1/2-y,1/2-z
1/2+x,1/2+y,1/2-z
1/2-x,1/2+y,1/2+z
1/2+x,1/2-y,1/2+z
loop_
_atom_site_type_symbol
_atom_site_label
_atom_site_fract_x
_atom_site_fract_y
_atom_site_fract_z
Si Si1 0.181739 0.103131 0.055160
Si Si2 0.825000 0.500000 0.556794
Si Si3 0.316505 0.809037 0.884500
Si Si4 0.317714 0.890466 0.551751
Si Si5 0.181752 0.200336 0.398445
Si Si6 0.682258 0.944046 0.354731
Si Si7 0.680401 0.796714 0.223915
Si Si8 0.679834 0.355409 0.802882
O O1 0.245045 0.050405 0.070652
O O2 0.246213 0.146501 0.086944
O O3 0.000000 0.102434 0.057738
O O4 0.224244 0.110254 0.000000
O O5 0.821598 0.500000 0.500000
O O6 0.000000 0.500000 0.571966
O O7 0.500000 0.813084 0.886171
O O8 0.273878 0.756157 0.905111
O O9 0.270784 0.805856 0.829661
O O10 0.263217 0.903640 0.500000
O O11 0.500000 0.889004 0.551106
O O12 0.258002 0.837784 0.566908
O O13 0.274404 0.927800 0.592579
O O14 0.217872 0.181800 0.345609
O O15 0.000000 0.196909 0.403128
O O16 0.500000 0.936907 0.349896
O O17 0.769814 0.907812 0.320858
O O18 0.716249 0.000000 0.346629
O O19 0.500000 0.790285 0.223040
O O20 0.750000 0.750000 0.250000
O O21 0.730422 0.840778 0.256764
O O22 0.500000 0.352448 0.795104
#
# Coordination Sequence:
#
# PCOD9520078 Si02
#       8
#    16   8  16  16  16  16  16  16
#     4  10  21  36  55  82 113 143 178 221 264 306
#     4   9  17  33  59  83 103 137 179 213 255 313
#     4  10  21  36  53  78 110 142 179 217 260 316
#     4   9  18  31  47  71 102 136 176 222 271 320
#     4   9  18  33  49  69 100 137 175 213 258 316
#     4   9  18  33  53  76 101 135 180 226 274 326
#     4  11  21  35  56  82 110 140 177 218 263 313
#     4  10  19  34  54  77 104 135 175 219 268 321
#
# _framework density 17.296233999999998
#
# number of rings (size 3 to 8) (size 9 to 14) (size 15 to 20)
#    0.000    2.333    1.333    1.400    0.000    5.067 
#    0.000    4.000    1.467    0.000    0.000    3.733 
#    0.000    0.000    0.000    0.000    0.000    0.000 
#
# Total GULP energy -334621.041859 kJ/mol
# GULP energy per Si atom -5577.017364 kJ/mol
# Density = 1.725687 g / cm^3
# Si number density = 17.296234 Si / 1000 Ang^3
#
#
#
# Elastic Constant Matrix: (Units=GPa)
#
#
# Indices 1 2 3 4 5 6 
#
# 1 29.1292 30.5778 20.8235 0.0000 0.0000 0.0000
# 2 30.5778 119.4776 32.0776 0.0000 0.0000 0.0000
# 3 20.8235 32.0776 60.0905 0.0000 0.0000 0.0000
# 4 0.0000 0.0000 0.0000 15.8268 0.0000 0.0000
# 5 0.0000 0.0000 0.0000 0.0000 23.1133 0.0000
# 6 0.0000 0.0000 0.0000 0.0000 0.0000 31.4930
#
#
#
# Elastic Compliance Matrix: (Units=1/GPa)
#
#
# Indices 1 2 3 4 5 6 
#
# 1 0.054907 -0.010440 -0.013454 0.000000 0.000000 0.000000
# 2 -0.010440 0.011755 -0.002657 0.000000 0.000000 0.000000
# 3 -0.013454 -0.002657 0.022722 0.000000 0.000000 0.000000
# 4 0.000000 0.000000 0.000000 0.063184 0.000000 0.000000
# 5 0.000000 0.000000 0.000000 0.000000 0.043265 0.000000
# 6 0.000000 0.000000 0.000000 0.000000 0.000000 0.031753
#
#
# Mechanical properties :
#
#
# Convention : Reuss Voigt Hill
#
# Bulk Modulus (GPa) = 27.56217 41.73946 34.65081
# Shear Modulus (GPa) = 17.07746 22.43452 19.75599
#
# Velocity S-wave (km/s) = 3.14562 3.60540 3.38333
# Velocity P-wave (km/s) = 5.40030 6.44332 5.94473
#
# Compressibility (1/GPa) = 0.03628162
#
# Stress axis : x y z
#
# Youngs Moduli (GPa) = 18.21258 85.06919 44.00941
#
# Poissons Ratio (x) = 0.88814 0.59211
# Poissons Ratio (y) = 0.19014 0.11694
# Poissons Ratio (z) = 0.24503 0.22605
#
# Static dielectric constant tensor:
#      x y z
#    x 1.584890 0.000000 0.000000 
#    y 0.000000 1.578260 0.000000 
#    z 0.000000 0.000000 1.594040 
# 
# From -- ./inp_files/63785.got.cif
#   From: 2010.05.17/outbox.cif.g08.bks.cpg/sg71_32_cif.got.tgz:63785.got - 2010.06.03 16:22:01.
