data_PCOD9520121
_publ_section_title
;
Structure prediction by ZEFSAII (Michael W. Deem and Ramdas Pophale) SiO2 
 PCOD9520121
Probable space group: I M M M
;
_chemical_formula_sum "Si O2"
_cell_formula_units_Z 120
_cell_length_a 12.504290
_cell_length_b 19.335348
_cell_length_c 26.902815
_cell_angle_alpha 90.000000
_cell_angle_beta 90.000000
_cell_angle_gamma 90.000000
_cell_volume 6504.422680
_symmetry_space_group_name_H-M "I M M M"
_symmetry_group_IT_number 71
_symmetry_cell_setting 'orthorhombic'
loop_
_space_group_symop_operation_xyz
x,y,z
-x,-y,z
x,-y,-z
-x,y,-z
-x,-y,-z
x,y,-z
-x,y,z
x,-y,z
1/2+x,1/2+y,1/2+z
1/2-x,1/2-y,1/2+z
1/2+x,1/2-y,1/2-z
1/2-x,1/2+y,1/2-z
1/2-x,1/2-y,1/2-z
1/2+x,1/2+y,1/2-z
1/2-x,1/2+y,1/2+z
1/2+x,1/2-y,1/2+z
loop_
_atom_site_type_symbol
_atom_site_label
_atom_site_fract_x
_atom_site_fract_y
_atom_site_fract_z
Si Si1 0.884372 0.582028 0.661988
Si Si2 0.626064 0.690430 0.202647
Si Si3 0.299688 0.417255 0.875146
Si Si4 0.789174 0.186158 0.812539
Si Si5 0.000000 0.083678 0.556070
Si Si6 0.697603 0.080879 0.945756
Si Si7 0.872256 0.349399 0.943691
Si Si8 0.377270 0.689837 0.420917
O O1 0.880944 0.500000 0.669425
O O2 0.783944 0.617933 0.687047
O O3 0.873387 0.595026 0.602733
O O4 0.000000 0.608253 0.679643
O O5 0.500000 0.698734 0.191747
O O6 0.671279 0.621966 0.175667
O O7 0.701937 0.752323 0.183609
O O8 0.645173 0.689950 0.261830
O O9 0.297739 0.500000 0.869118
O O10 0.394874 0.397203 0.913282
O O11 0.192522 0.390073 0.901665
O O12 0.861741 0.188243 0.861345
O O13 0.000000 0.110954 0.500000
O O14 0.000000 0.000000 0.553504
O O15 0.797713 0.132316 0.941972
O O16 0.730429 0.000000 0.942008
O O17 0.645891 0.089815 0.000000
O O18 0.849764 0.267379 0.938581
O O19 0.000000 0.358143 0.937739
O O20 0.843238 0.371942 0.000000
O O21 0.500000 0.676174 0.434328
#
# Coordination Sequence:
#
# PCOD9520121 Si02
#       8
#    16  16  16  16   8  16  16  16
#     4   9  18  34  55  78 107 142 180 224 271 321
#     4  11  22  38  60  85 111 144 183 228 282 335
#     4  11  22  38  58  84 117 150 189 238 291 348
#     4  10  21  37  58  83 109 144 183 228 272 332
#     4   9  18  34  58  84 112 150 187 225 282 346
#     4   9  18  31  49  77 111 146 186 230 277 329
#     4  10  21  37  58  83 114 155 197 238 286 339
#     4  10  19  34  55  79 110 148 189 231 277 332
#
# _framework density 18.448985
#
# number of rings (size 3 to 8) (size 9 to 14) (size 15 to 20)
#    0.000    2.067    2.000    1.600    0.000    2.933 
#    0.000    3.333    0.000    2.400    0.000    0.000 
#    0.000    0.000    0.000    0.000    0.000    0.000 
#
# Total GULP energy -334664.032098 kJ/mol
# GULP energy per Si atom -5577.733868 kJ/mol
# Density = 1.840699 g / cm^3
# Si number density = 18.448985 Si / 1000 Ang^3
#
#
#
# Elastic Constant Matrix: (Units=GPa)
#
#
# Indices 1 2 3 4 5 6 
#
# 1 66.5546 28.9747 5.5623 0.0000 0.0000 0.0000
# 2 28.9747 55.8722 6.3302 0.0000 0.0000 0.0000
# 3 5.5623 6.3302 48.0197 0.0000 0.0000 0.0000
# 4 0.0000 0.0000 0.0000 20.3889 0.0000 0.0000
# 5 0.0000 0.0000 0.0000 0.0000 12.5470 0.0000
# 6 0.0000 0.0000 0.0000 0.0000 0.0000 23.3552
#
#
#
# Elastic Compliance Matrix: (Units=1/GPa)
#
#
# Indices 1 2 3 4 5 6 
#
# 1 0.019448 -0.009979 -0.000937 0.000000 0.000000 0.000000
# 2 -0.009979 0.023290 -0.001914 0.000000 0.000000 0.000000
# 3 -0.000937 -0.001914 0.021186 0.000000 0.000000 0.000000
# 4 0.000000 0.000000 0.000000 0.049046 0.000000 0.000000
# 5 0.000000 0.000000 0.000000 0.000000 0.079700 0.000000
# 6 0.000000 0.000000 0.000000 0.000000 0.000000 0.042817
#
#
# Mechanical properties :
#
#
# Convention : Reuss Voigt Hill
#
# Bulk Modulus (GPa) = 26.13550 28.02011 27.07780
# Shear Modulus (GPa) = 18.25463 19.89686 19.07574
#
# Velocity S-wave (km/s) = 3.14899 3.28758 3.21903
# Velocity P-wave (km/s) = 5.23628 5.44351 5.34090
#
# Compressibility (1/GPa) = 0.03826214
#
# Stress axis : x y z
#
# Youngs Moduli (GPa) = 51.41878 42.93673 47.20169
#
# Poissons Ratio (x) = 0.42848 0.04424
# Poissons Ratio (y) = 0.51313 0.09036
# Poissons Ratio (z) = 0.04819 0.08219
#
# Static dielectric constant tensor:
#      x y z
#    x 1.614820 0.000000 0.000000 
#    y 0.000000 1.621520 0.000000 
#    z 0.000000 0.000000 1.640880 
# 
# From -- ./inp_files/59088.got.cif
#   From: 2010.05.17/outbox.cif.g08.bks.cpg/sg71_30_cif.got.tgz:59088.got - 2010.06.03 16:22:01.
