data_PCOD9520686
_publ_section_title
;
Structure prediction by ZEFSAII (Michael W. Deem and Ramdas Pophale) SiO2 
 PCOD9520686
Probable space group: I M M M
;
_chemical_formula_sum "Si O2"
_cell_formula_units_Z 80
_cell_length_a 29.946233
_cell_length_b 10.093536
_cell_length_c 19.056510
_cell_angle_alpha 90.000000
_cell_angle_beta 90.000000
_cell_angle_gamma 90.000000
_cell_volume 5760.085140
_symmetry_space_group_name_H-M "I M M M"
_symmetry_group_IT_number 71
_symmetry_cell_setting 'orthorhombic'
loop_
_space_group_symop_operation_xyz
x,y,z
-x,-y,z
x,-y,-z
-x,y,-z
-x,-y,-z
x,y,-z
-x,y,z
x,-y,z
1/2+x,1/2+y,1/2+z
1/2-x,1/2-y,1/2+z
1/2+x,1/2-y,1/2-z
1/2-x,1/2+y,1/2-z
1/2-x,1/2-y,1/2-z
1/2+x,1/2+y,1/2-z
1/2-x,1/2+y,1/2+z
1/2+x,1/2-y,1/2+z
loop_
_atom_site_type_symbol
_atom_site_label
_atom_site_fract_x
_atom_site_fract_y
_atom_site_fract_z
Si Si1 0.051518 0.500000 0.084199
Si Si2 0.446733 0.500000 0.415572
Si Si3 0.671436 0.340618 0.500000
Si Si4 0.255554 0.652010 0.000000
Si Si5 0.223136 0.151715 0.343078
Si Si6 0.681702 0.843005 0.730934
Si Si7 0.608470 0.746248 0.372508
O O1 0.079326 0.626421 0.108472
O O2 0.000000 0.500000 0.108868
O O3 0.050386 0.500000 0.000000
O O4 0.500000 0.500000 0.413313
O O5 0.434473 0.500000 0.500000
O O6 0.425845 0.374834 0.376192
O O7 0.676171 0.500000 0.500000
O O8 0.717889 0.263494 0.500000
O O9 0.643866 0.291633 0.567172
O O10 0.281551 0.665098 0.926708
O O11 0.236626 0.500000 0.000000
O O12 0.275528 0.167794 0.321819
O O13 0.196090 0.259836 0.299117
O O14 0.211070 0.000000 0.322903
O O15 0.638210 0.778929 0.695284
O O16 0.675164 0.000000 0.743916
#
# Coordination Sequence:
#
# PCOD9520686 Si02
#       7
#     8   8   8   8  16  16  16
#     4  11  22  32  48  69  90 121 163 204 243 277
#     4  11  22  36  48  65  96 127 161 206 251 283
#     4  12  22  30  43  71  91 126 168 199 235 280
#     4  10  20  34  52  69  95 124 160 203 238 272
#     4   9  19  32  48  69  94 122 155 196 238 275
#     4  10  20  32  47  68  94 124 159 197 235 277
#     4  12  20  33  48  67  91 126 165 204 235 280
#
# _framework density 13.888684
#
# number of rings (size 3 to 8) (size 9 to 14) (size 15 to 20)
#    0.000    1.400    6.000    0.600    2.800    2.400 
#    0.000    0.000    0.000    0.000    0.000    0.000 
#    0.000    0.000    0.000    5.400    0.000    0.100 
#
# Total GULP energy -222977.725544 kJ/mol
# GULP energy per Si atom -5574.443139 kJ/mol
# Density = 1.385707 g / cm^3
# Si number density = 13.888684 Si / 1000 Ang^3
#
#
#
# Elastic Constant Matrix: (Units=GPa)
#
#
# Indices 1 2 3 4 5 6 
#
# 1 72.0638 59.4343 34.4143 0.0000 0.0000 0.0000
# 2 59.4343 139.1907 51.5587 0.0000 0.0000 0.0000
# 3 34.4143 51.5587 78.2936 0.0000 0.0000 0.0000
# 4 0.0000 0.0000 0.0000 20.9387 0.0000 0.0000
# 5 0.0000 0.0000 0.0000 0.0000 24.9011 0.0000
# 6 0.0000 0.0000 0.0000 0.0000 0.0000 43.6706
#
#
#
# Elastic Compliance Matrix: (Units=1/GPa)
#
#
# Indices 1 2 3 4 5 6 
#
# 1 0.022682 -0.007925 -0.004751 0.000000 0.000000 0.000000
# 2 -0.007925 0.012271 -0.004598 0.000000 0.000000 0.000000
# 3 -0.004751 -0.004598 0.017888 0.000000 0.000000 0.000000
# 4 0.000000 0.000000 0.000000 0.047758 0.000000 0.000000
# 5 0.000000 0.000000 0.000000 0.000000 0.040159 0.000000
# 6 0.000000 0.000000 0.000000 0.000000 0.000000 0.022899
#
#
# Mechanical properties :
#
#
# Convention : Reuss Voigt Hill
#
# Bulk Modulus (GPa) = 54.66211 64.48475 59.57343
# Shear Modulus (GPa) = 24.47348 27.51148 25.99248
#
# Velocity S-wave (km/s) = 4.20231 4.45551 4.33076
# Velocity P-wave (km/s) = 7.93654 8.54396 8.24584
#
# Compressibility (1/GPa) = 0.01829421
#
# Stress axis : x y z
#
# Youngs Moduli (GPa) = 44.08841 81.48970 55.90237
#
# Poissons Ratio (x) = 0.64583 0.26558
# Poissons Ratio (y) = 0.34941 0.25701
# Poissons Ratio (z) = 0.20946 0.37465
#
# Static dielectric constant tensor:
#      x y z
#    x 1.441040 0.000000 0.000000 
#    y 0.000000 1.432910 0.000000 
#    z 0.000000 0.000000 1.445530 
# 
# From -- ./inp_files/10783.got.cif
#   From: 2010.05.17/outbox.cif.g08.bks.cpg/sg71_6_cif.got.tgz:10783.got - 2010.06.03 16:22:01.
