data_PCOD9520453
_publ_section_title
;
Structure prediction by ZEFSAII (Michael W. Deem and Ramdas Pophale) SiO2 
 PCOD9520453
Probable space group: I M M M
;
_chemical_formula_sum "Si O2"
_cell_formula_units_Z 116
_cell_length_a 14.697976
_cell_length_b 24.427146
_cell_length_c 16.026891
_cell_angle_alpha 90.000000
_cell_angle_beta 90.000000
_cell_angle_gamma 90.000000
_cell_volume 5754.128356
_symmetry_space_group_name_H-M "I M M M"
_symmetry_group_IT_number 71
_symmetry_cell_setting 'orthorhombic'
loop_
_space_group_symop_operation_xyz
x,y,z
-x,-y,z
x,-y,-z
-x,y,-z
-x,-y,-z
x,y,-z
-x,y,z
x,-y,z
1/2+x,1/2+y,1/2+z
1/2-x,1/2-y,1/2+z
1/2+x,1/2-y,1/2-z
1/2-x,1/2+y,1/2-z
1/2-x,1/2-y,1/2-z
1/2+x,1/2+y,1/2-z
1/2-x,1/2+y,1/2+z
1/2+x,1/2-y,1/2+z
loop_
_atom_site_type_symbol
_atom_site_label
_atom_site_fract_x
_atom_site_fract_y
_atom_site_fract_z
Si Si1 0.753409 0.129715 0.802104
Si Si2 0.836076 0.000000 0.500000
Si Si3 0.597848 0.213032 0.250496
Si Si4 0.146870 0.779953 0.409537
Si Si5 0.102731 0.565654 0.596867
Si Si6 0.100198 0.437069 0.100532
Si Si7 0.157741 0.779608 0.093955
Si Si8 0.701699 0.598475 0.869708
O O1 0.687992 0.176086 0.759944
O O2 0.681396 0.091382 0.848373
O O3 0.817467 0.161355 0.867203
O O4 0.809027 0.098434 0.730299
O O5 0.831193 0.048217 0.573506
O O6 0.500000 0.183859 0.247026
O O7 0.601260 0.254357 0.171828
O O8 0.603123 0.246324 0.336484
O O9 0.104693 0.767205 0.500000
O O10 0.246513 0.752637 0.411145
O O11 0.159112 0.844876 0.400528
O O12 0.114123 0.582226 0.500000
O O13 0.107032 0.500000 0.600729
O O14 0.000000 0.581626 0.622310
O O15 0.113694 0.500000 0.130164
O O16 0.187932 0.402258 0.121361
O O17 0.000000 0.418690 0.128254
O O18 0.098411 0.439851 0.000000
O O19 0.120062 0.782119 0.000000
#
# Coordination Sequence:
#
# PCOD9520453 Si02
#       8
#    16   4  16  16  16  16  16  16
#     4  11  21  35  56  81 111 151 190 237 279 338
#     4  12  24  32  53  88 111 170 202 234 258 350
#     4  11  22  38  56  85 114 141 191 242 299 358
#     4  10  19  36  59  79 112 153 184 242 290 347
#     4   9  19  35  52  75 111 151 189 232 282 330
#     4   9  16  27  40  60  98 144 188 225 251 295
#     4  10  20  38  59  80 106 146 193 238 300 342
#     4  12  19  33  52  74 116 147 200 223 270 329
#
# _framework density 20.15944
#
# number of rings (size 3 to 8) (size 9 to 14) (size 15 to 20)
#    0.000    1.655    4.828    2.483    0.966    2.207 
#    0.000    1.379    0.000    0.000    0.000    0.966 
#    0.000    0.000    0.000    4.276    0.000    0.000 
#
# Total GULP energy -323073.429452 kJ/mol
# GULP energy per Si atom -5570.231542 kJ/mol
# Density = 2.011356 g / cm^3
# Si number density = 20.159440 Si / 1000 Ang^3
#
#
#
# Elastic Constant Matrix: (Units=GPa)
#
#
# Indices 1 2 3 4 5 6 
#
# 1 23.4060 -2.6332 12.4587 0.0000 0.0000 0.0000
# 2 -2.6332 76.9611 54.4336 0.0002 0.0001 0.0000
# 3 12.4587 54.4336 161.3429 0.0001 0.0000 0.0000
# 4 0.0000 0.0002 0.0001 34.9175 0.0000 0.0000
# 5 0.0000 0.0001 0.0000 0.0000 -9.7126 0.0000
# 6 0.0000 0.0000 0.0000 0.0000 0.0000 -37.9146
#
#
#
# Elastic Compliance Matrix: (Units=1/GPa)
#
#
# Indices 1 2 3 4 5 6 
#
# 1 0.046197 0.005390 -0.005386 0.000000 0.000000 0.000000
# 2 0.005390 0.017695 -0.006386 0.000000 0.000000 0.000000
# 3 -0.005386 -0.006386 0.008768 0.000000 0.000000 0.000000
# 4 0.000000 0.000000 0.000000 0.028639 0.000000 0.000000
# 5 0.000000 0.000000 0.000000 0.000000 -0.102959 0.000000
# 6 0.000000 0.000000 0.000000 0.000000 0.000000 -0.026375
#
#
# Mechanical properties :
#
#
# Convention : Reuss Voigt Hill
#
# Bulk Modulus (GPa) = 16.69545 43.35870 30.02708
# Shear Modulus (GPa) = 1065.17105 10.62146 537.89625
#
# Velocity S-wave (km/s) = 23.01131 2.29786 16.35238
# Velocity P-wave (km/s) = 26.72689 5.34741 19.27332
#
# Compressibility (1/GPa) = 0.05989656
#
# Stress axis : x y z
#
# Youngs Moduli (GPa) = 21.64632 56.51401 114.04645
#
# Poissons Ratio (x) = -0.30460 0.61422
# Poissons Ratio (y) = -0.11667 0.72830
# Poissons Ratio (z) = 0.11658 0.36090
#
# Static dielectric constant tensor:
#      x y z
#    x 1.706410 0.000000 0.000000 
#    y 0.000000 1.728910 0.000000 
#    z 0.000000 0.000000 1.766450 
# 
# From -- ./inp_files/45214.got.cif
#   From: 2010.05.17/outbox.cif.g08.bks.cpg/sg71_23_cif.got.tgz:45214.got - 2010.06.03 16:22:01.
