data_PCOD9520267
_publ_section_title
;
Structure prediction by ZEFSAII (Michael W. Deem and Ramdas Pophale) SiO2 
 PCOD9520267
Probable space group: I M M M
;
_chemical_formula_sum "Si O2"
_cell_formula_units_Z 100
_cell_length_a 7.686700
_cell_length_b 31.753495
_cell_length_c 21.408124
_cell_angle_alpha 90.000000
_cell_angle_beta 90.000000
_cell_angle_gamma 90.000000
_cell_volume 5225.286129
_symmetry_space_group_name_H-M "I M M M"
_symmetry_group_IT_number 71
_symmetry_cell_setting 'orthorhombic'
loop_
_space_group_symop_operation_xyz
x,y,z
-x,-y,z
x,-y,-z
-x,y,-z
-x,-y,-z
x,y,-z
-x,y,z
x,-y,z
1/2+x,1/2+y,1/2+z
1/2-x,1/2-y,1/2+z
1/2+x,1/2-y,1/2-z
1/2-x,1/2+y,1/2-z
1/2-x,1/2-y,1/2-z
1/2+x,1/2+y,1/2-z
1/2-x,1/2+y,1/2+z
1/2+x,1/2-y,1/2+z
loop_
_atom_site_type_symbol
_atom_site_label
_atom_site_fract_x
_atom_site_fract_y
_atom_site_fract_z
Si Si1 0.710642 0.401445 0.570587
Si Si2 0.500000 0.621747 0.000000
Si Si3 0.202772 0.873643 0.269303
Si Si4 0.712684 0.452678 0.310978
Si Si5 0.306870 0.146943 0.407342
Si Si6 0.211611 0.243609 0.429303
Si Si7 0.204972 0.320621 0.651819
O O1 0.773257 0.406876 0.500000
O O2 0.500000 0.401489 0.569601
O O3 0.765198 0.437168 0.619914
O O4 0.767016 0.357193 0.600502
O O5 0.653571 0.624962 0.945815
O O6 0.271071 0.916542 0.237038
O O7 0.291203 0.861898 0.333727
O O8 0.216706 0.837675 0.216209
O O9 0.000000 0.879931 0.282984
O O10 0.500000 0.452297 0.309818
O O11 0.770275 0.500000 0.297393
O O12 0.500000 0.134660 0.427844
O O13 0.281184 0.196939 0.418325
O O14 0.257444 0.257190 0.500000
O O15 0.271753 0.277333 0.378186
O O16 0.000000 0.241183 0.426835
O O17 0.000000 0.315797 0.662551
#
# Coordination Sequence:
#
# PCOD9520267 Si02
#       7
#    16   4  16  16  16  16  16
#     4   9  17  29  45  70 106 145 189 241 289 333
#     4  12  22  44  60  90 121 142 184 236 269 332
#     4  10  20  37  55  79 115 145 180 237 282 332
#     4   8  15  29  52  79 106 142 186 230 284 344
#     4  12  23  38  63  86 114 152 186 228 281 333
#     4  10  19  35  52  74 109 146 192 245 282 324
#     4  10  20  32  51  74 105 150 194 235 282 334
#
# _framework density 19.137708
#
# number of rings (size 3 to 8) (size 9 to 14) (size 15 to 20)
#    0.000    2.080    2.400    2.640    0.000    3.200 
#    0.000    1.600    0.000   12.000    0.000    5.600 
#    0.000    1.280    0.000    0.000    0.000    0.000 
#
# Total GULP energy -278548.876067 kJ/mol
# GULP energy per Si atom -5570.977521 kJ/mol
# Density = 1.909415 g / cm^3
# Si number density = 19.137708 Si / 1000 Ang^3
#
#
#
# Elastic Constant Matrix: (Units=GPa)
#
#
# Indices 1 2 3 4 5 6 
#
# 1 78.4862 0.0900 22.4918 0.0000 0.0000 0.0000
# 2 0.0900 8.9386 16.0600 0.0000 0.0000 0.0000
# 3 22.4918 16.0600 137.1915 0.0000 0.0000 0.0000
# 4 0.0000 0.0000 0.0000 10.7676 0.0000 0.0000
# 5 0.0000 0.0000 0.0000 0.0000 18.0168 0.0000
# 6 0.0000 0.0000 0.0000 0.0000 0.0000 27.6693
#
#
#
# Elastic Compliance Matrix: (Units=1/GPa)
#
#
# Indices 1 2 3 4 5 6 
#
# 1 0.013535 0.004876 -0.002790 0.000000 0.000000 0.000000
# 2 0.004876 0.143428 -0.017589 0.000000 0.000000 0.000000
# 3 -0.002790 -0.017589 0.009806 0.000000 0.000000 0.000000
# 4 0.000000 0.000000 0.000000 0.092871 0.000000 0.000000
# 5 0.000000 0.000000 0.000000 0.000000 0.055504 0.000000
# 6 0.000000 0.000000 0.000000 0.000000 0.000000 0.036141
#
#
# Mechanical properties :
#
#
# Convention : Reuss Voigt Hill
#
# Bulk Modulus (GPa) = 7.36583 33.54444 20.45513
# Shear Modulus (GPa) = 11.69467 23.68903 17.69185
#
# Velocity S-wave (km/s) = 2.47469 3.52208 3.04378
# Velocity P-wave (km/s) = 3.46737 5.84004 4.80254
#
# Compressibility (1/GPa) = 0.13576207
#
# Stress axis : x y z
#
# Youngs Moduli (GPa) = 73.88267 6.97214 101.98324
#
# Poissons Ratio (x) = -0.03400 0.28451
# Poissons Ratio (y) = -0.36026 1.79383
# Poissons Ratio (z) = 0.20612 0.12264
#
# Static dielectric constant tensor:
#      x y z
#    x 1.704920 0.000000 0.000000 
#    y 0.000000 1.647970 0.000000 
#    z 0.000000 0.000000 1.655160 
# 
# From -- ./inp_files/51118.got.cif
#   From: 2010.05.17/outbox.cif.g08.bks.cpg/sg71_26_cif.got.tgz:51118.got - 2010.06.03 16:22:01.
