data_PCOD9520828
_publ_section_title
;
Structure prediction by ZEFSAII (Michael W. Deem and Ramdas Pophale) SiO2 
 PCOD9520828
Probable space group: I M M M
;
_chemical_formula_sum "Si O2"
_cell_formula_units_Z 120
_cell_length_a 8.678410
_cell_length_b 27.806520
_cell_length_c 28.413964
_cell_angle_alpha 90.000000
_cell_angle_beta 90.000000
_cell_angle_gamma 90.000000
_cell_volume 6856.754969
_symmetry_space_group_name_H-M "I M M M"
_symmetry_group_IT_number 71
_symmetry_cell_setting 'orthorhombic'
loop_
_space_group_symop_operation_xyz
x,y,z
-x,-y,z
x,-y,-z
-x,y,-z
-x,-y,-z
x,y,-z
-x,y,z
x,-y,z
1/2+x,1/2+y,1/2+z
1/2-x,1/2-y,1/2+z
1/2+x,1/2-y,1/2-z
1/2-x,1/2+y,1/2-z
1/2-x,1/2-y,1/2-z
1/2+x,1/2+y,1/2-z
1/2-x,1/2+y,1/2+z
1/2+x,1/2-y,1/2+z
loop_
_atom_site_type_symbol
_atom_site_label
_atom_site_fract_x
_atom_site_fract_y
_atom_site_fract_z
Si Si1 0.814017 0.395251 0.218176
Si Si2 0.814246 0.181679 0.554468
Si Si3 0.311719 0.000000 0.554025
Si Si4 0.685905 0.791934 0.054212
Si Si5 0.684180 0.647953 0.360883
Si Si6 0.184435 0.198565 0.236045
Si Si7 0.813849 0.554483 0.685408
Si Si8 0.186140 0.406791 0.887960
O O1 0.747346 0.342885 0.229743
O O2 0.768227 0.429764 0.261448
O O3 0.765127 0.411516 0.166373
O O4 0.000000 0.392608 0.218642
O O5 0.769852 0.171674 0.500000
O O6 0.767802 0.236707 0.565403
O O7 0.744597 0.142401 0.588990
O O8 0.000000 0.179642 0.556826
O O9 0.261300 0.952153 0.581215
O O10 0.500000 0.000000 0.554115
O O11 0.260993 0.000000 0.500000
O O12 0.500000 0.793742 0.056378
O O13 0.754140 0.828767 0.091461
O O14 0.730809 0.801674 0.000000
O O15 0.500000 0.645957 0.361824
O O16 0.731117 0.681744 0.316565
O O17 0.748597 0.595133 0.349081
O O18 0.250000 0.250000 0.250000
O O19 0.000000 0.199642 0.238115
O O20 0.763754 0.500000 0.675498
O O21 0.000000 0.555929 0.683252
O O22 0.000000 0.406293 0.888777
#
# Coordination Sequence:
#
# PCOD9520828 Si02
#       8
#    16  16   8  16  16  16  16  16
#     4   9  19  33  49  75 105 133 171 216 261 306
#     4   9  19  35  52  72 100 134 173 216 262 312
#     4   9  18  32  49  71  99 133 173 219 274 323
#     4   9  19  36  57  80 107 141 177 212 255 311
#     4  10  21  35  53  80 110 139 174 216 265 313
#     4  10  21  35  51  73 105 141 175 211 254 308
#     4   9  18  34  57  79 103 139 179 215 256 313
#     4  10  20  32  51  75 101 132 172 222 269 315
#
# _framework density 17.500990000000002
#
# number of rings (size 3 to 8) (size 9 to 14) (size 15 to 20)
#    0.000    2.600    0.000    2.000    2.800    4.000 
#    0.000    1.667    0.000    1.600    0.000    2.800 
#    0.000    0.000    0.000    0.000    0.000    0.000 
#
# Total GULP energy -334734.526018 kJ/mol
# GULP energy per Si atom -5578.908767 kJ/mol
# Density = 1.746116 g / cm^3
# Si number density = 17.500990 Si / 1000 Ang^3
#
#
#
# Elastic Constant Matrix: (Units=GPa)
#
#
# Indices 1 2 3 4 5 6 
#
# 1 9.9991 29.0890 26.6648 0.0000 0.0000 0.0000
# 2 29.0890 155.3831 93.9158 0.0000 0.0000 0.0000
# 3 26.6648 93.9158 131.6163 0.0000 0.0000 0.0000
# 4 0.0000 0.0000 0.0000 18.0409 0.0000 0.0000
# 5 0.0000 0.0000 0.0000 0.0000 22.8040 0.0000
# 6 0.0000 0.0000 0.0000 0.0000 0.0000 23.4208
#
#
#
# Elastic Compliance Matrix: (Units=1/GPa)
#
#
# Indices 1 2 3 4 5 6 
#
# 1 0.289749 -0.032992 -0.035160 0.000000 0.000000 0.000000
# 2 -0.032992 0.015073 -0.004071 0.000000 0.000000 0.000000
# 3 -0.035160 -0.004071 0.017626 0.000000 0.000000 0.000000
# 4 0.000000 0.000000 0.000000 0.055430 0.000000 0.000000
# 5 0.000000 0.000000 0.000000 0.000000 0.043852 0.000000
# 6 0.000000 0.000000 0.000000 0.000000 0.000000 0.042697
#
#
# Mechanical properties :
#
#
# Convention : Reuss Voigt Hill
#
# Bulk Modulus (GPa) = 5.61794 66.25974 35.93884
# Shear Modulus (GPa) = 7.48271 22.67508 15.07890
#
# Velocity S-wave (km/s) = 2.06999 3.60341 2.93849
# Velocity P-wave (km/s) = 2.98835 7.43341 5.66506
#
# Compressibility (1/GPa) = 0.17800118
#
# Stress axis : x y z
#
# Youngs Moduli (GPa) = 3.45127 66.34426 56.73404
#
# Poissons Ratio (x) = 2.18885 1.99475
# Poissons Ratio (y) = 0.11387 0.23098
# Poissons Ratio (z) = 0.12135 0.27011
#
# Static dielectric constant tensor:
#      x y z
#    x 1.593140 0.000000 0.000000 
#    y 0.000000 1.570690 0.000000 
#    z 0.000000 0.000000 1.591290 
# 
# From -- ./inp_files/63764.got.cif
#   From: 2010.05.17/outbox.cif.g08.bks.cpg/sg71_32_cif.got.tgz:63764.got - 2010.06.03 16:22:01.
