data_PCOD9520861
_publ_section_title
;
Structure prediction by ZEFSAII (Michael W. Deem and Ramdas Pophale) SiO2 
 PCOD9520861
Probable space group: I M M M
;
_chemical_formula_sum "Si O2"
_cell_formula_units_Z 98
_cell_length_a 28.491584
_cell_length_b 14.199167
_cell_length_c 14.198024
_cell_angle_alpha 90.000000
_cell_angle_beta 90.000000
_cell_angle_gamma 90.000000
_cell_volume 5743.906578
_symmetry_space_group_name_H-M "I M M M"
_symmetry_group_IT_number 71
_symmetry_cell_setting 'orthorhombic'
loop_
_space_group_symop_operation_xyz
x,y,z
-x,-y,z
x,-y,-z
-x,y,-z
-x,-y,-z
x,y,-z
-x,y,z
x,-y,z
1/2+x,1/2+y,1/2+z
1/2-x,1/2-y,1/2+z
1/2+x,1/2-y,1/2-z
1/2-x,1/2+y,1/2-z
1/2-x,1/2-y,1/2-z
1/2+x,1/2+y,1/2-z
1/2-x,1/2+y,1/2+z
1/2+x,1/2-y,1/2+z
loop_
_atom_site_type_symbol
_atom_site_label
_atom_site_fract_x
_atom_site_fract_y
_atom_site_fract_z
Si Si1 0.051577 0.000000 0.695524
Si Si2 0.716875 0.105926 0.387056
Si Si3 0.056182 0.105506 0.000000
Si Si4 0.215735 0.278357 0.389718
Si Si5 0.854137 0.719391 0.775955
Si Si6 0.308440 0.609067 0.388390
Si Si7 0.000000 0.000000 0.500000
Si Si8 0.443860 0.312093 0.704082
O O1 0.071575 0.901620 0.731516
O O2 0.040066 0.000000 0.585052
O O3 0.000000 0.000000 0.746086
O O4 0.712097 0.110941 0.500000
O O5 0.755803 0.183640 0.360869
O O6 0.668487 0.137857 0.339590
O O7 0.730135 0.000000 0.360462
O O8 0.066477 0.159058 0.903780
O O9 0.000000 0.095638 0.000000
O O10 0.076874 0.000000 0.000000
O O11 0.204186 0.271409 0.500000
O O12 0.171017 0.288705 0.324348
O O13 0.253651 0.362036 0.377612
O O14 0.836617 0.816587 0.825580
O O15 0.910006 0.726071 0.770971
O O16 0.319506 0.623588 0.500000
O O17 0.316586 0.500000 0.365071
O O18 0.500000 0.295809 0.715718
#
# Coordination Sequence:
#
# PCOD9520861 Si02
#       8
#     8  16   8  16  16  16   2  16
#     4   8  16  33  48  68  91 134 172 204 235 288
#     4   9  18  34  54  72  99 132 166 205 250 307
#     4   9  16  28  48  66  89 130 153 194 246 295
#     4   9  19  35  48  70 101 129 165 208 249 291
#     4  11  21  30  50  75  98 132 169 211 241 297
#     4   9  18  31  50  76 105 128 152 196 255 310
#     4   8  16  32  60  58  92 140 186 208 228 286
#     4  10  20  33  47  70 102 128 168 203 251 295
#
# _framework density 17.061558999999999
#
# number of rings (size 3 to 8) (size 9 to 14) (size 15 to 20)
#    0.245    2.367    0.816    3.429    3.429    2.612 
#    1.469    0.000    0.000    0.490    0.000    1.143 
#    0.000    0.000    0.000    6.286    0.000    0.000 
#
# Total GULP energy -272822.562503 kJ/mol
# GULP energy per Si atom -5567.807398 kJ/mol
# Density = 1.702273 g / cm^3
# Si number density = 17.061559 Si / 1000 Ang^3
#
#
#
# Elastic Constant Matrix: (Units=GPa)
#
#
# Indices 1 2 3 4 5 6 
#
# 1 68.4518 -4.8866 21.2352 0.0000 0.0000 0.0000
# 2 -4.8866 36.8533 1.4553 0.0000 0.0000 0.0000
# 3 21.2352 1.4553 71.2625 0.0000 0.0000 0.0000
# 4 0.0000 0.0000 0.0000 7.0959 0.0000 0.0000
# 5 0.0000 0.0000 0.0000 0.0000 17.3753 0.0000
# 6 0.0000 0.0000 0.0000 0.0000 0.0000 11.3799
#
#
#
# Elastic Compliance Matrix: (Units=1/GPa)
#
#
# Indices 1 2 3 4 5 6 
#
# 1 0.016298 0.002355 -0.004905 0.000000 0.000000 0.000000
# 2 0.002355 0.027497 -0.001263 0.000000 0.000000 0.000000
# 3 -0.004905 -0.001263 0.015520 0.000000 0.000000 0.000000
# 4 0.000000 0.000000 0.000000 0.140927 0.000000 0.000000
# 5 0.000000 0.000000 0.000000 0.000000 0.057553 0.000000
# 6 0.000000 0.000000 0.000000 0.000000 0.000000 0.087874
#
#
# Mechanical properties :
#
#
# Convention : Reuss Voigt Hill
#
# Bulk Modulus (GPa) = 19.34656 23.57505 21.46080
# Shear Modulus (GPa) = 13.49435 17.75446 15.62440
#
# Velocity S-wave (km/s) = 2.81538 3.22935 3.02945
# Velocity P-wave (km/s) = 4.68320 5.26807 4.98422
#
# Compressibility (1/GPa) = 0.05168877
#
# Stress axis : x y z
#
# Youngs Moduli (GPa) = 61.35535 36.36792 64.43307
#
# Poissons Ratio (x) = -0.08564 0.31603
# Poissons Ratio (y) = -0.14448 0.08139
# Poissons Ratio (z) = 0.30094 0.04594
#
# Static dielectric constant tensor:
#      x y z
#    x 1.618310 0.000000 0.000000 
#    y 0.000000 1.590420 0.000000 
#    z 0.000000 0.000000 1.598990 
# 
# From -- ./inp_files/40322.got.cif
#   From: 2010.05.17/outbox.cif.g08.bks.cpg/sg71_21_cif.got.tgz:40322.got - 2010.06.03 16:22:01.
