data_PCOD9520888
_publ_section_title
;
Structure prediction by ZEFSAII (Michael W. Deem and Ramdas Pophale) SiO2 
 PCOD9520888
Probable space group: I M M M
;
_chemical_formula_sum "Si O2"
_cell_formula_units_Z 120
_cell_length_a 21.740761
_cell_length_b 21.824285
_cell_length_c 14.197360
_cell_angle_alpha 90.000000
_cell_angle_beta 90.000000
_cell_angle_gamma 90.000000
_cell_volume 6736.314593
_symmetry_space_group_name_H-M "I M M M"
_symmetry_group_IT_number 71
_symmetry_cell_setting 'orthorhombic'
loop_
_space_group_symop_operation_xyz
x,y,z
-x,-y,z
x,-y,-z
-x,y,-z
-x,-y,-z
x,y,-z
-x,y,z
x,-y,z
1/2+x,1/2+y,1/2+z
1/2-x,1/2-y,1/2+z
1/2+x,1/2-y,1/2-z
1/2-x,1/2+y,1/2-z
1/2-x,1/2-y,1/2-z
1/2+x,1/2+y,1/2-z
1/2-x,1/2+y,1/2+z
1/2+x,1/2-y,1/2+z
loop_
_atom_site_type_symbol
_atom_site_label
_atom_site_fract_x
_atom_site_fract_y
_atom_site_fract_z
Si Si1 0.198562 0.585459 0.393572
Si Si2 0.351454 0.119587 0.612785
Si Si3 0.433257 0.108433 0.111319
Si Si4 0.336278 0.689099 0.229002
Si Si5 0.242668 0.278622 0.393794
Si Si6 0.771694 0.930553 0.292511
Si Si7 0.570177 0.787419 0.267121
Si Si8 0.930261 0.500000 0.114398
O O1 0.213285 0.566267 0.500000
O O2 0.128211 0.570205 0.369213
O O3 0.202572 0.659403 0.393485
O O4 0.245012 0.565124 0.313580
O O5 0.350776 0.125752 0.500000
O O6 0.283646 0.102848 0.650461
O O7 0.382908 0.178024 0.661914
O O8 0.393900 0.061308 0.640113
O O9 0.500000 0.078746 0.128315
O O10 0.431142 0.168745 0.175632
O O11 0.430007 0.123364 0.000000
O O12 0.298290 0.705900 0.323803
O O13 0.298683 0.724830 0.147961
O O14 0.328440 0.616875 0.210352
O O15 0.401873 0.721472 0.240544
O O16 0.263012 0.265569 0.500000
O O17 0.782694 0.000000 0.326891
O O18 0.500000 0.784418 0.303620
O O19 0.000000 0.500000 0.149503
O O20 0.932408 0.500000 0.000000
#
# Coordination Sequence:
#
# PCOD9520888 Si02
#       8
#    16  16  16  16  16  16  16   8
#     4   9  16  30  51  73  97 124 161 207 258 311
#     4  11  21  35  52  76 108 143 183 217 252 305
#     4   9  16  27  46  72 101 129 157 193 243 303
#     4  10  20  33  48  75 102 128 172 217 261 316
#     4   9  16  29  50  74 100 128 156 201 263 315
#     4  11  22  36  52  72 101 138 177 219 265 310
#     4  11  21  34  53  77 105 136 171 216 269 316
#     4   9  18  32  48  66  97 143 186 214 233 274
#
# _framework density 17.813894999999999
#
# number of rings (size 3 to 8) (size 9 to 14) (size 15 to 20)
#    0.000    2.067    3.333    2.000    0.000    3.200 
#    0.000    0.000    0.000    0.400    0.000    1.867 
#    0.000    0.000    0.000   13.600    0.000    0.000 
#
# Total GULP energy -334657.699034 kJ/mol
# GULP energy per Si atom -5577.628317 kJ/mol
# Density = 1.777335 g / cm^3
# Si number density = 17.813895 Si / 1000 Ang^3
#
#
#
# Elastic Constant Matrix: (Units=GPa)
#
#
# Indices 1 2 3 4 5 6 
#
# 1 43.2376 44.7118 4.6292 0.0000 0.0000 0.0000
# 2 44.7118 121.0344 17.9596 0.0000 0.0000 0.0000
# 3 4.6292 17.9596 70.1745 0.0000 0.0000 0.0000
# 4 0.0000 0.0000 0.0000 7.6727 0.0000 0.0000
# 5 0.0000 0.0000 0.0000 0.0000 13.9273 0.0000
# 6 0.0000 0.0000 0.0000 0.0000 0.0000 -21.0378
#
#
#
# Elastic Compliance Matrix: (Units=1/GPa)
#
#
# Indices 1 2 3 4 5 6 
#
# 1 0.037508 -0.014021 0.001114 0.000000 0.000000 0.000000
# 2 -0.014021 0.013830 -0.002614 0.000000 0.000000 0.000000
# 3 0.001114 -0.002614 0.014846 0.000000 0.000000 0.000000
# 4 0.000000 0.000000 0.000000 0.130331 0.000000 0.000000
# 5 0.000000 0.000000 0.000000 0.000000 0.071802 0.000000
# 6 0.000000 0.000000 0.000000 0.000000 0.000000 -0.047534
#
#
# Mechanical properties :
#
#
# Convention : Reuss Voigt Hill
#
# Bulk Modulus (GPa) = 28.45733 41.00531 34.73132
# Shear Modulus (GPa) = 18.97244 11.25550 15.11397
#
# Velocity S-wave (km/s) = 3.26703 2.51637 2.91595
# Velocity P-wave (km/s) = 5.49916 5.61351 5.55663
#
# Compressibility (1/GPa) = 0.03514033
#
# Stress axis : x y z
#
# Youngs Moduli (GPa) = 26.66086 72.30786 67.35911
#
# Poissons Ratio (x) = 1.01386 -0.07505
# Poissons Ratio (y) = 0.37382 0.17611
# Poissons Ratio (z) = -0.02970 0.18905
#
# Static dielectric constant tensor:
#      x y z
#    x 1.620160 0.000000 0.000000 
#    y 0.000000 1.636940 0.000000 
#    z 0.000000 0.000000 1.627580 
# 
# From -- ./inp_files/39633.got.cif
#   From: 2010.05.17/outbox.cif.g08.bks.cpg/sg71_20_cif.got.tgz:39633.got - 2010.06.03 16:22:01.
