data_PCOD9520553
_publ_section_title
;
Structure prediction by ZEFSAII (Michael W. Deem and Ramdas Pophale) SiO2 
 PCOD9520553
Probable space group: I M M M
;
_chemical_formula_sum "Si O2"
_cell_formula_units_Z 112
_cell_length_a 32.264107
_cell_length_b 17.005894
_cell_length_c 13.751908
_cell_angle_alpha 90.000000
_cell_angle_beta 90.000000
_cell_angle_gamma 90.000000
_cell_volume 7545.396657
_symmetry_space_group_name_H-M "I M M M"
_symmetry_group_IT_number 71
_symmetry_cell_setting 'orthorhombic'
loop_
_space_group_symop_operation_xyz
x,y,z
-x,-y,z
x,-y,-z
-x,y,-z
-x,-y,-z
x,y,-z
-x,y,z
x,-y,z
1/2+x,1/2+y,1/2+z
1/2-x,1/2-y,1/2+z
1/2+x,1/2-y,1/2-z
1/2-x,1/2+y,1/2-z
1/2-x,1/2-y,1/2-z
1/2+x,1/2+y,1/2-z
1/2-x,1/2+y,1/2+z
1/2+x,1/2-y,1/2+z
loop_
_atom_site_type_symbol
_atom_site_label
_atom_site_fract_x
_atom_site_fract_y
_atom_site_fract_z
Si Si1 0.878041 0.316380 0.794407
Si Si2 0.312573 0.500000 0.618643
Si Si3 0.699428 0.910328 0.617922
Si Si4 0.951001 0.408769 0.884329
Si Si5 0.334380 0.672223 0.617159
Si Si6 0.250005 0.265161 0.116811
Si Si7 0.172441 0.663815 0.616397
Si Si8 0.782794 0.500000 0.382198
O O1 0.843260 0.371770 0.846038
O O2 0.922096 0.349671 0.825836
O O3 0.867365 0.229212 0.832326
O O4 0.868105 0.323053 0.680365
O O5 0.311613 0.500000 0.500000
O O6 0.334282 0.581313 0.647566
O O7 0.264672 0.500000 0.652113
O O8 0.698459 0.909720 0.500000
O O9 0.736245 0.851651 0.649758
O O10 0.704225 0.000000 0.650180
O O11 0.940793 0.500000 0.860777
O O12 0.000000 0.397676 0.867356
O O13 0.943577 0.398724 0.000000
O O14 0.339762 0.677317 0.500000
O O15 0.288429 0.707183 0.637931
O O16 0.293383 0.228566 0.148230
O O17 0.252703 0.267706 0.000000
O O18 0.166422 0.667326 0.500000
O O19 0.192542 0.579303 0.641738
O O20 0.779976 0.500000 0.500000
#
# Coordination Sequence:
#
# PCOD9520553 Si02
#       8
#    16   8  16  16  16  16  16   8
#     4  11  20  28  45  66  87 109 144 187 222 254
#     4   9  14  26  44  58  86 122 149 180 218 254
#     4   9  17  27  40  61  89 117 143 177 223 269
#     4   9  18  33  52  72  93 114 133 160 208 271
#     4   9  16  26  42  65  88 115 145 179 219 259
#     4   8  14  27  41  53  79 116 152 184 214 249
#     4  10  20  31  42  57  82 118 158 192 219 245
#     4   9  16  28  42  54  76 117 161 193 216 245
#
# _framework density 14.843487
#
# number of rings (size 3 to 8) (size 9 to 14) (size 15 to 20)
#    0.000    2.714    1.429    3.000    2.000    3.429 
#    0.000    0.000    0.000    0.429    0.000    1.500 
#    0.000    2.857    0.000    0.000    0.000    1.429 
#
# Total GULP energy -312300.556247 kJ/mol
# GULP energy per Si atom -5576.795647 kJ/mol
# Density = 1.480970 g / cm^3
# Si number density = 14.843487 Si / 1000 Ang^3
#
#
#
# Elastic Constant Matrix: (Units=GPa)
#
#
# Indices 1 2 3 4 5 6 
#
# 1 47.8385 28.8566 21.6750 0.0000 0.0000 0.0000
# 2 28.8566 115.1233 27.6674 0.0000 0.0000 0.0000
# 3 21.6750 27.6674 62.3656 0.0000 0.0000 0.0000
# 4 0.0000 0.0000 0.0000 13.1234 0.0000 0.0000
# 5 0.0000 0.0000 0.0000 0.0000 18.0911 0.0000
# 6 0.0000 0.0000 0.0000 0.0000 0.0000 18.1391
#
#
#
# Elastic Compliance Matrix: (Units=1/GPa)
#
#
# Indices 1 2 3 4 5 6 
#
# 1 0.027244 -0.005097 -0.007207 0.000000 0.000000 0.000000
# 2 -0.005097 0.010676 -0.002965 0.000000 0.000000 0.000000
# 3 -0.007207 -0.002965 0.019855 0.000000 0.000000 0.000000
# 4 0.000000 0.000000 0.000000 0.076200 0.000000 0.000000
# 5 0.000000 0.000000 0.000000 0.000000 0.055276 0.000000
# 6 0.000000 0.000000 0.000000 0.000000 0.000000 0.055130
#
#
# Mechanical properties :
#
#
# Convention : Reuss Voigt Hill
#
# Bulk Modulus (GPa) = 36.71538 42.41394 39.56466
# Shear Modulus (GPa) = 17.60580 19.67927 18.64253
#
# Velocity S-wave (km/s) = 3.44771 3.64508 3.54777
# Velocity P-wave (km/s) = 6.37477 6.80820 6.59505
#
# Compressibility (1/GPa) = 0.02723654
#
# Stress axis : x y z
#
# Youngs Moduli (GPa) = 36.70588 93.66396 50.36569
#
# Poissons Ratio (x) = 0.47738 0.36300
# Poissons Ratio (y) = 0.18708 0.14934
# Poissons Ratio (z) = 0.26455 0.27772
#
# Static dielectric constant tensor:
#      x y z
#    x 1.455720 0.000000 0.000000 
#    y 0.000000 1.514050 0.000000 
#    z 0.000000 0.000000 1.537690 
# 
# From -- ./inp_files/41219.got.cif
#   From: 2010.05.17/outbox.cif.g08.bks.cpg/sg71_21_cif.got.tgz:41219.got - 2010.06.03 16:22:01.
