data_PCOD9520763
_publ_section_title
;
Structure prediction by ZEFSAII (Michael W. Deem and Ramdas Pophale) SiO2 
 PCOD9520763
Probable space group: I M M M
;
_chemical_formula_sum "Si O2"
_cell_formula_units_Z 104
_cell_length_a 8.618975
_cell_length_b 29.530561
_cell_length_c 21.812981
_cell_angle_alpha 90.000000
_cell_angle_beta 90.000000
_cell_angle_gamma 90.000000
_cell_volume 5551.909006
_symmetry_space_group_name_H-M "I M M M"
_symmetry_group_IT_number 71
_symmetry_cell_setting 'orthorhombic'
loop_
_space_group_symop_operation_xyz
x,y,z
-x,-y,z
x,-y,-z
-x,y,-z
-x,-y,-z
x,y,-z
-x,y,z
x,-y,z
1/2+x,1/2+y,1/2+z
1/2-x,1/2-y,1/2+z
1/2+x,1/2-y,1/2-z
1/2-x,1/2+y,1/2-z
1/2-x,1/2-y,1/2-z
1/2+x,1/2+y,1/2-z
1/2-x,1/2+y,1/2+z
1/2+x,1/2-y,1/2+z
loop_
_atom_site_type_symbol
_atom_site_label
_atom_site_fract_x
_atom_site_fract_y
_atom_site_fract_z
Si Si1 0.186530 0.947393 0.630874
Si Si2 0.678357 0.904263 0.067473
Si Si3 0.815550 0.711520 0.295231
Si Si4 0.178114 0.122328 0.732437
Si Si5 0.824723 0.554482 0.000000
Si Si6 0.183165 0.193298 0.929151
Si Si7 0.322287 0.948837 0.809921
O O1 0.242886 0.906533 0.674595
O O2 0.235181 0.934707 0.562147
O O3 0.000000 0.948522 0.636711
O O4 0.240414 0.000000 0.643102
O O5 0.500000 0.886781 0.070961
O O6 0.784019 0.860436 0.077431
O O7 0.690611 0.942568 0.117741
O O8 0.706091 0.922287 0.000000
O O9 0.750000 0.750000 0.250000
O O10 0.766859 0.664603 0.261739
O O11 0.754453 0.713761 0.366053
O O12 0.000000 0.714399 0.297956
O O13 0.193046 0.083311 0.782869
O O14 0.000000 0.135649 0.720670
O O15 0.835155 0.500000 0.000000
O O16 0.000000 0.572764 0.000000
O O17 0.000000 0.202241 0.927903
O O18 0.238053 0.205101 0.000000
O O19 0.500000 0.934651 0.792955
O O20 0.301779 0.000000 0.790235
#
# Coordination Sequence:
#
# PCOD9520763 Si02
#       7
#    16  16  16  16   8  16  16
#     4   9  18  33  54  80 112 152 193 232 279 338
#     4   9  17  30  49  74 107 150 196 238 282 332
#     4  12  25  42  65  91 119 151 191 238 294 354
#     4  11  22  37  57  82 113 150 192 237 288 341
#     4   9  17  29  49  79 111 145 189 237 281 331
#     4  10  20  36  61  91 120 151 190 238 289 344
#     4  10  20  32  48  75 112 154 196 238 285 335
#
# _framework density 18.732296000000002
#
# number of rings (size 3 to 8) (size 9 to 14) (size 15 to 20)
#    0.000    1.923    1.538    3.000    0.000    4.308 
#    0.000    3.077    1.692    0.000    0.000    3.231 
#    0.000    0.000    0.000    0.000    0.000    0.000 
#
# Total GULP energy -289515.434068 kJ/mol
# GULP energy per Si atom -5567.604501 kJ/mol
# Density = 1.868966 g / cm^3
# Si number density = 18.732296 Si / 1000 Ang^3
#
#
#
# Elastic Constant Matrix: (Units=GPa)
#
#
# Indices 1 2 3 4 5 6 
#
# 1 53.3474 27.0988 38.3061 0.0000 0.0000 0.0000
# 2 27.0988 58.3759 50.3222 0.0000 0.0000 0.0000
# 3 38.3061 50.3222 152.1837 0.0000 0.0000 0.0000
# 4 0.0000 0.0000 0.0000 31.0644 0.0000 0.0000
# 5 0.0000 0.0000 0.0000 0.0000 22.9161 0.0000
# 6 0.0000 0.0000 0.0000 0.0000 0.0000 13.0325
#
#
#
# Elastic Compliance Matrix: (Units=1/GPa)
#
#
# Indices 1 2 3 4 5 6 
#
# 1 0.025830 -0.008932 -0.003548 0.000000 0.000000 0.000000
# 2 -0.008932 0.027049 -0.006696 0.000000 0.000000 0.000000
# 3 -0.003548 -0.006696 0.009678 0.000000 0.000000 0.000000
# 4 0.000000 0.000000 0.000000 0.032191 0.000000 0.000000
# 5 0.000000 0.000000 0.000000 0.000000 0.043637 0.000000
# 6 0.000000 0.000000 0.000000 0.000000 0.000000 0.076731
#
#
# Mechanical properties :
#
#
# Convention : Reuss Voigt Hill
#
# Bulk Modulus (GPa) = 41.31382 55.04015 48.17699
# Shear Modulus (GPa) = 19.11774 23.28126 21.19950
#
# Velocity S-wave (km/s) = 3.19811 3.52922 3.36774
# Velocity P-wave (km/s) = 5.97829 6.78627 6.39505
#
# Compressibility (1/GPa) = 0.02420498
#
# Stress axis : x y z
#
# Youngs Moduli (GPa) = 38.71477 36.97023 103.32477
#
# Poissons Ratio (x) = 0.33022 0.36661
# Poissons Ratio (y) = 0.34580 0.69185
# Poissons Ratio (z) = 0.13737 0.24755
#
# Static dielectric constant tensor:
#      x y z
#    x 1.681520 0.000000 0.000000 
#    y 0.000000 1.624920 0.000000 
#    z 0.000000 0.000000 1.716000 
# 
# From -- ./inp_files/51125.got.cif
#   From: 2010.05.17/outbox.cif.g08.bks.cpg/sg71_26_cif.got.tgz:51125.got - 2010.06.03 16:22:01.
