data_PCOD9520890
_publ_section_title
;
Structure prediction by ZEFSAII (Michael W. Deem and Ramdas Pophale) SiO2 
 PCOD9520890
Probable space group: I M M M
;
_chemical_formula_sum "Si O2"
_cell_formula_units_Z 56
_cell_length_a 7.329754
_cell_length_b 9.380226
_cell_length_c 37.848462
_cell_angle_alpha 90.000000
_cell_angle_beta 90.000000
_cell_angle_gamma 90.000000
_cell_volume 2602.261507
_symmetry_space_group_name_H-M "I M M M"
_symmetry_group_IT_number 71
_symmetry_cell_setting 'orthorhombic'
loop_
_space_group_symop_operation_xyz
x,y,z
-x,-y,z
x,-y,-z
-x,y,-z
-x,-y,-z
x,y,-z
-x,y,z
x,-y,z
1/2+x,1/2+y,1/2+z
1/2-x,1/2-y,1/2+z
1/2+x,1/2-y,1/2-z
1/2-x,1/2+y,1/2-z
1/2-x,1/2-y,1/2-z
1/2+x,1/2+y,1/2-z
1/2-x,1/2+y,1/2+z
1/2+x,1/2-y,1/2+z
loop_
_atom_site_type_symbol
_atom_site_label
_atom_site_fract_x
_atom_site_fract_y
_atom_site_fract_z
Si Si1 0.777124 0.663900 0.353746
Si Si2 0.712449 0.673400 0.000000
Si Si3 0.782224 0.161516 0.285516
Si Si4 0.222957 0.834604 0.422898
O O1 0.719790 0.500000 0.351506
O O2 0.714933 0.753914 0.319869
O O3 0.719999 0.738643 0.390135
O O4 0.000000 0.664640 0.353587
O O5 0.786964 0.715849 0.038295
O O6 0.718164 0.500000 0.000000
O O7 0.500000 0.716236 0.000000
O O8 0.750000 0.250000 0.250000
O O9 0.000000 0.151745 0.289686
O O10 0.711564 0.000000 0.283043
O O11 0.000000 0.833781 0.423845
O O12 0.275952 0.000000 0.417702
#
# Coordination Sequence:
#
# PCOD9520890 Si02
#       4
#    16   8  16  16
#     4   9  16  25  37  54  77 105 137 173 212 254
#     4   7  10  16  27  43  63  91 128 167 204 243
#     4  10  20  33  49  68  89 115 147 182 221 264
#     4   8  12  19  31  46  66  95 132 170 206 247
#
# _framework density 21.519743999999999
#
# number of rings (size 3 to 8) (size 9 to 14) (size 15 to 20)
#    0.000    3.286    0.000    3.429    0.000    5.143 
#    0.000    0.714    0.000    4.286    0.000    0.000 
#    0.000    0.000    0.000    1.286    0.000   26.286 
#
# Total GULP energy -156262.920896 kJ/mol
# GULP energy per Si atom -5580.818603 kJ/mol
# Density = 2.147076 g / cm^3
# Si number density = 21.519744 Si / 1000 Ang^3
#
#
#
# Elastic Constant Matrix: (Units=GPa)
#
#
# Indices 1 2 3 4 5 6 
#
# 1 83.9008 7.4141 7.5075 0.0000 0.0000 0.0000
# 2 7.4141 180.4171 144.3209 0.0000 0.0000 0.0000
# 3 7.5075 144.3209 268.4619 0.0000 0.0000 0.0000
# 4 0.0000 0.0000 0.0000 36.3973 0.0000 0.0000
# 5 0.0000 0.0000 0.0000 0.0000 -0.5295 0.0000
# 6 0.0000 0.0000 0.0000 0.0000 0.0000 -7.3297
#
#
#
# Elastic Compliance Matrix: (Units=1/GPa)
#
#
# Indices 1 2 3 4 5 6 
#
# 1 0.011965 -0.000393 -0.000123 0.000000 0.000000 0.000000
# 2 -0.000393 0.009737 -0.005224 0.000000 0.000000 0.000000
# 3 -0.000123 -0.005224 0.006537 0.000000 0.000000 0.000000
# 4 0.000000 0.000000 0.000000 0.027475 0.000000 0.000000
# 5 0.000000 0.000000 0.000000 0.000000 -1.888496 0.000000
# 6 0.000000 0.000000 0.000000 0.000000 0.000000 -0.136432
#
#
# Mechanical properties :
#
#
# Convention : Reuss Voigt Hill
#
# Bulk Modulus (GPa) = 59.67118 94.58497 77.12808
# Shear Modulus (GPa) = -2.56128 30.61011 14.02441
#
# Velocity S-wave (km/s) = -1.09215 3.77559 2.55561
# Velocity P-wave (km/s) = 5.11844 7.94071 6.68032
#
# Compressibility (1/GPa) = 0.01675851
#
# Stress axis : x y z
#
# Youngs Moduli (GPa) = 83.57987 102.69612 152.98566
#
# Poissons Ratio (x) = 0.04036 0.01886
# Poissons Ratio (y) = 0.03285 0.79915
# Poissons Ratio (z) = 0.01030 0.53646
#
# Static dielectric constant tensor:
#      x y z
#    x 2.115010 0.000000 0.000000 
#    y 0.000000 1.718870 0.000000 
#    z 0.000000 0.000000 1.761900 
# 
# From -- ./inp_files/68768.got.cif
#   From: 2010.05.17/outbox.cif.g08.bks.cpg/sg71_35_cif.got.tgz:68768.got - 2010.06.03 16:22:01.
