data_PCOD9520131
_publ_section_title
;
Structure prediction by ZEFSAII (Michael W. Deem and Ramdas Pophale) SiO2 
 PCOD9520131
Probable space group: I M M M
;
_chemical_formula_sum "Si O2"
_cell_formula_units_Z 120
_cell_length_a 21.553502
_cell_length_b 23.594510
_cell_length_c 13.891352
_cell_angle_alpha 90.000000
_cell_angle_beta 90.000000
_cell_angle_gamma 90.000000
_cell_volume 7064.368136
_symmetry_space_group_name_H-M "I M M M"
_symmetry_group_IT_number 71
_symmetry_cell_setting 'orthorhombic'
loop_
_space_group_symop_operation_xyz
x,y,z
-x,-y,z
x,-y,-z
-x,y,-z
-x,-y,-z
x,y,-z
-x,y,z
x,-y,z
1/2+x,1/2+y,1/2+z
1/2-x,1/2-y,1/2+z
1/2+x,1/2-y,1/2-z
1/2-x,1/2+y,1/2-z
1/2-x,1/2-y,1/2-z
1/2+x,1/2+y,1/2-z
1/2-x,1/2+y,1/2+z
1/2+x,1/2-y,1/2+z
loop_
_atom_site_type_symbol
_atom_site_label
_atom_site_fract_x
_atom_site_fract_y
_atom_site_fract_z
Si Si1 0.828386 0.935460 0.614177
Si Si2 0.206760 0.781685 0.112625
Si Si3 0.000000 0.434337 0.885226
Si Si4 0.572225 0.729953 0.295102
Si Si5 0.258896 0.838189 0.698346
Si Si6 0.573730 0.345165 0.108073
Si Si7 0.399799 0.860544 0.722411
Si Si8 0.574853 0.061805 0.110777
O O1 0.816032 0.937691 0.500000
O O2 0.783529 0.888482 0.659388
O O3 0.895472 0.906114 0.626851
O O4 0.824066 0.000000 0.651343
O O5 0.131937 0.780731 0.135472
O O6 0.237581 0.822393 0.193052
O O7 0.238369 0.720538 0.137432
O O8 0.216112 0.795148 0.000000
O O9 0.941003 0.401740 0.842736
O O10 0.000000 0.500000 0.855140
O O11 0.000000 0.431598 0.000000
O O12 0.500000 0.714543 0.322797
O O13 0.588298 0.697913 0.194873
O O14 0.573418 0.797405 0.279693
O O15 0.329166 0.858792 0.691993
O O16 0.500000 0.349925 0.106118
O O17 0.594422 0.326549 0.000000
O O18 0.401720 0.886421 0.828308
O O19 0.500000 0.062725 0.115196
O O20 0.595166 0.000000 0.148575
O O21 0.592931 0.065571 0.000000
#
# Coordination Sequence:
#
# PCOD9520131 Si02
#       8
#    16  16   8  16  16  16  16  16
#     4  10  20  35  57  83 113 149 187 226 272 333
#     4  10  21  38  59  81 113 152 186 231 290 343
#     4  11  24  40  57  79 113 157 197 236 282 326
#     4  10  19  34  55  85 113 141 186 233 284 341
#     4  10  22  38  54  83 114 146 190 233 278 336
#     4   9  18  33  55  83 117 147 175 224 286 341
#     4  11  21  35  54  77 110 143 183 233 279 328
#     4   9  17  30  49  71  96 130 173 219 267 316
#
# _framework density 16.986657999999998
#
# number of rings (size 3 to 8) (size 9 to 14) (size 15 to 20)
#    0.000    2.067    2.667    1.200    0.000    5.333 
#    0.000    4.000    0.000    0.400    0.000    0.000 
#    0.000    2.133    0.000    0.000    0.000    0.000 
#
# Total GULP energy -334173.233868 kJ/mol
# GULP energy per Si atom -5569.553898 kJ/mol
# Density = 1.694800 g / cm^3
# Si number density = 16.986658 Si / 1000 Ang^3
#
#
#
# Elastic Constant Matrix: (Units=GPa)
#
#
# Indices 1 2 3 4 5 6 
#
# 1 44.3172 26.9438 23.3179 0.0000 0.0000 0.0000
# 2 26.9438 98.6020 42.3963 0.0000 0.0000 0.0000
# 3 23.3179 42.3963 72.6813 0.0000 0.0000 0.0000
# 4 0.0000 0.0000 0.0000 27.8014 0.0000 0.0000
# 5 0.0000 0.0000 0.0000 0.0000 19.3671 0.0000
# 6 0.0000 0.0000 0.0000 0.0000 0.0000 29.4426
#
#
#
# Elastic Compliance Matrix: (Units=1/GPa)
#
#
# Indices 1 2 3 4 5 6 
#
# 1 0.029047 -0.005246 -0.006259 0.000000 0.000000 0.000000
# 2 -0.005246 0.014485 -0.006766 0.000000 0.000000 0.000000
# 3 -0.006259 -0.006766 0.019713 0.000000 0.000000 0.000000
# 4 0.000000 0.000000 0.000000 0.035969 0.000000 0.000000
# 5 0.000000 0.000000 0.000000 0.000000 0.051634 0.000000
# 6 0.000000 0.000000 0.000000 0.000000 0.000000 0.033964
#
#
# Mechanical properties :
#
#
# Convention : Reuss Voigt Hill
#
# Bulk Modulus (GPa) = 37.44878 44.54628 40.99753
# Shear Modulus (GPa) = 21.71491 23.51837 22.61664
#
# Velocity S-wave (km/s) = 3.57928 3.72495 3.65284
# Velocity P-wave (km/s) = 6.25904 6.69190 6.47909
#
# Compressibility (1/GPa) = 0.02670314
#
# Stress axis : x y z
#
# Youngs Moduli (GPa) = 34.42650 69.03894 50.72693
#
# Poissons Ratio (x) = 0.36220 0.31749
# Poissons Ratio (y) = 0.18061 0.34322
# Poissons Ratio (z) = 0.21547 0.46712
#
# Static dielectric constant tensor:
#      x y z
#    x 1.585860 0.000000 0.000000 
#    y 0.000000 1.306110 0.000000 
#    z 0.000000 0.000000 1.589690 
# 
# From -- ./inp_files/38407.got.cif
#   From: 2010.05.17/outbox.cif.g08.bks.cpg/sg71_20_cif.got.tgz:38407.got - 2010.06.03 16:22:01.
