data_PCOD9520089
_publ_section_title
;
Structure prediction by ZEFSAII (Michael W. Deem and Ramdas Pophale) SiO2 
 PCOD9520089
Probable space group: I M M M
;
_chemical_formula_sum "Si O2"
_cell_formula_units_Z 104
_cell_length_a 27.360259
_cell_length_b 28.820045
_cell_length_c 7.647041
_cell_angle_alpha 90.000000
_cell_angle_beta 90.000000
_cell_angle_gamma 90.000000
_cell_volume 6029.874559
_symmetry_space_group_name_H-M "I M M M"
_symmetry_group_IT_number 71
_symmetry_cell_setting 'orthorhombic'
loop_
_space_group_symop_operation_xyz
x,y,z
-x,-y,z
x,-y,-z
-x,y,-z
-x,-y,-z
x,y,-z
-x,y,z
x,-y,z
1/2+x,1/2+y,1/2+z
1/2-x,1/2-y,1/2+z
1/2+x,1/2-y,1/2-z
1/2-x,1/2+y,1/2-z
1/2-x,1/2-y,1/2-z
1/2+x,1/2+y,1/2-z
1/2-x,1/2+y,1/2+z
1/2+x,1/2-y,1/2+z
loop_
_atom_site_type_symbol
_atom_site_label
_atom_site_fract_x
_atom_site_fract_y
_atom_site_fract_z
Si Si1 0.444729 0.865583 0.212923
Si Si2 0.195702 0.055290 0.000000
Si Si3 0.270641 0.055959 0.309846
Si Si4 0.596979 0.232107 0.205598
Si Si5 0.159749 0.154524 0.000000
Si Si6 0.944421 0.796126 0.000000
Si Si7 0.298881 0.720692 0.204573
Si Si8 0.378199 0.947219 0.788718
O O1 0.500000 0.860092 0.274367
O O2 0.413032 0.820753 0.257699
O O3 0.419686 0.912667 0.274452
O O4 0.445831 0.867665 0.000000
O O5 0.230375 0.064247 0.165764
O O6 0.159255 0.098636 0.000000
O O7 0.180860 0.000000 0.000000
O O8 0.256298 0.073462 0.500000
O O9 0.324937 0.071953 0.261980
O O10 0.275026 0.000000 0.315330
O O11 0.564291 0.264416 0.328799
O O12 0.653526 0.246279 0.226873
O O13 0.584522 0.237704 0.000000
O O14 0.188370 0.177829 0.834213
O O15 0.103013 0.170408 0.000000
O O16 0.000000 0.814775 0.000000
O O17 0.250000 0.750000 0.250000
O O18 0.296352 0.706842 0.000000
O O19 0.383966 0.000000 0.725316
O O20 0.379249 0.948850 0.000000
#
# Coordination Sequence:
#
# PCOD9520089 Si02
#       8
#    16   8  16  16   8   8  16  16
#     4   9  17  29  45  65  90 123 167 214 259 305
#     4  10  20  36  56  79 109 140 171 211 254 305
#     4   9  17  31  51  72  96 130 171 210 250 298
#     4   9  19  34  52  74 100 131 170 214 259 307
#     4  10  22  36  54  83 112 142 182 216 260 325
#     4  10  20  36  58  79 101 132 169 213 258 305
#     4  10  19  34  54  78 112 147 175 215 265 322
#     4   9  16  28  45  65  94 127 164 213 260 306
#
# _framework density 17.247457000000001
#
# number of rings (size 3 to 8) (size 9 to 14) (size 15 to 20)
#    0.000    2.615    1.538    0.462    0.000    3.077 
#    1.385    1.538    0.000    0.231    0.000    2.154 
#    0.000    0.000    0.000   11.538    0.000    0.000 
#
# Total GULP energy -289709.913055 kJ/mol
# GULP energy per Si atom -5571.344482 kJ/mol
# Density = 1.720820 g / cm^3
# Si number density = 17.247457 Si / 1000 Ang^3
#
#
#
# Elastic Constant Matrix: (Units=GPa)
#
#
# Indices 1 2 3 4 5 6 
#
# 1 78.3996 45.2348 29.4838 0.0000 0.0000 0.0000
# 2 45.2348 98.9769 31.7000 0.0000 0.0000 0.0000
# 3 29.4838 31.7000 79.1689 0.0000 0.0000 0.0000
# 4 0.0000 0.0000 0.0000 -5.8625 0.0000 0.0000
# 5 0.0000 0.0000 0.0000 0.0000 -43.2337 0.0000
# 6 0.0000 0.0000 0.0000 0.0000 0.0000 15.2953
#
#
#
# Elastic Compliance Matrix: (Units=1/GPa)
#
#
# Indices 1 2 3 4 5 6 
#
# 1 0.018359 -0.007113 -0.003989 0.000000 0.000000 0.000000
# 2 -0.007113 0.014345 -0.003095 0.000000 0.000000 0.000000
# 3 -0.003989 -0.003095 0.015356 0.000000 0.000000 0.000000
# 4 0.000000 0.000000 0.000000 -0.170575 0.000000 0.000000
# 5 0.000000 0.000000 0.000000 0.000000 -0.023130 0.000000
# 6 0.000000 0.000000 0.000000 0.000000 0.000000 0.065380
#
#
# Mechanical properties :
#
#
# Convention : Reuss Voigt Hill
#
# Bulk Modulus (GPa) = 50.84806 52.15363 51.50085
# Shear Modulus (GPa) = -110.34146 3.24826 -53.54660
#
# Velocity S-wave (km/s) = -8.00715 1.37383 -5.57795
# Velocity P-wave (km/s) = 7.47933 5.72893 3.39998
#
# Compressibility (1/GPa) = 0.01966643
#
# Stress axis : x y z
#
# Youngs Moduli (GPa) = 54.46775 69.70835 65.12041
#
# Poissons Ratio (x) = 0.49584 0.25978
# Poissons Ratio (y) = 0.38743 0.20155
# Poissons Ratio (z) = 0.21728 0.21575
#
# Static dielectric constant tensor:
#      x y z
#    x 1.568860 0.000000 0.000000 
#    y 0.000000 1.582770 0.000000 
#    z 0.000000 0.000000 1.635830 
# 
# From -- ./inp_files/13381.got.cif
#   From: 2010.05.17/outbox.cif.g08.bks.cpg/sg71_7_cif.got.tgz:13381.got - 2010.06.03 16:22:01.
