data_PCOD9520885
_publ_section_title
;
Structure prediction by ZEFSAII (Michael W. Deem and Ramdas Pophale) SiO2 
 PCOD9520885
Probable space group: I M M M
;
_chemical_formula_sum "Si O2"
_cell_formula_units_Z 104
_cell_length_a 22.173407
_cell_length_b 26.106379
_cell_length_c 9.589991
_cell_angle_alpha 90.000000
_cell_angle_beta 90.000000
_cell_angle_gamma 90.000000
_cell_volume 5551.332838
_symmetry_space_group_name_H-M "I M M M"
_symmetry_group_IT_number 71
_symmetry_cell_setting 'orthorhombic'
loop_
_space_group_symop_operation_xyz
x,y,z
-x,-y,z
x,-y,-z
-x,y,-z
-x,-y,-z
x,y,-z
-x,y,z
x,-y,z
1/2+x,1/2+y,1/2+z
1/2-x,1/2-y,1/2+z
1/2+x,1/2-y,1/2-z
1/2-x,1/2+y,1/2-z
1/2-x,1/2-y,1/2-z
1/2+x,1/2+y,1/2-z
1/2-x,1/2+y,1/2+z
1/2+x,1/2-y,1/2+z
loop_
_atom_site_type_symbol
_atom_site_label
_atom_site_fract_x
_atom_site_fract_y
_atom_site_fract_z
Si Si1 0.000000 0.060984 0.333791
Si Si2 0.906720 0.126600 0.163131
Si Si3 0.909918 0.500000 0.343352
Si Si4 0.566916 0.254732 0.331873
Si Si5 0.831244 0.321706 0.162717
Si Si6 0.263932 0.614224 0.333928
Si Si7 0.065287 0.406076 0.846656
Si Si8 0.265523 0.000000 0.160148
O O1 0.057543 0.087617 0.261058
O O2 0.000000 0.069952 0.500000
O O3 0.000000 0.000000 0.309793
O O4 0.926978 0.184730 0.191883
O O5 0.834840 0.124173 0.180301
O O6 0.920383 0.115443 0.000000
O O7 0.930777 0.500000 0.500000
O O8 0.930988 0.449632 0.266140
O O9 0.837545 0.500000 0.341327
O O10 0.566738 0.246134 0.500000
O O11 0.500000 0.238770 0.279679
O O12 0.627789 0.225763 0.283024
O O13 0.775878 0.343497 0.253012
O O14 0.880597 0.366969 0.165293
O O15 0.813556 0.312632 0.000000
O O16 0.248143 0.615569 0.500000
O O17 0.252697 0.555680 0.280694
O O18 0.000000 0.379727 0.838603
O O19 0.069358 0.430440 0.000000
O O20 0.242035 0.000000 0.000000
#
# Coordination Sequence:
#
# PCOD9520885 Si02
#       8
#     8  16   8  16  16  16  16   8
#     4  11  25  43  63  93 133 161 183 232 299 354
#     4  10  21  39  67  94 116 152 200 238 279 345
#     4  11  20  32  51  70  97 141 183 233 297 346
#     4   9  17  34  60  88 115 148 194 245 289 335
#     4  10  20  34  55  80 111 152 195 235 286 346
#     4  10  21  37  57  84 116 150 193 244 291 341
#     4  10  20  33  48  71 102 140 188 238 283 338
#     4   9  18  34  52  72 109 152 184 231 291 336
#
# _framework density 18.734238999999999
#
# number of rings (size 3 to 8) (size 9 to 14) (size 15 to 20)
#    0.000    2.077    2.308    1.154    1.077    4.923 
#    0.000    1.154    0.000    0.923    0.000    0.000 
#    0.000    0.000    0.000    0.000    0.000    0.000 
#
# Total GULP energy -289866.944362 kJ/mol
# GULP energy per Si atom -5574.364315 kJ/mol
# Density = 1.869160 g / cm^3
# Si number density = 18.734239 Si / 1000 Ang^3
#
#
#
# Elastic Constant Matrix: (Units=GPa)
#
#
# Indices 1 2 3 4 5 6 
#
# 1 114.4983 47.3921 46.2571 0.0000 0.0000 0.0000
# 2 47.3921 100.3482 53.3180 0.0000 0.0000 0.0000
# 3 46.2571 53.3180 83.1730 0.0000 0.0000 0.0000
# 4 0.0000 0.0000 0.0000 16.9831 0.0000 0.0000
# 5 0.0000 0.0000 0.0000 0.0000 25.3008 0.0000
# 6 0.0000 0.0000 0.0000 0.0000 0.0000 79.3476
#
#
#
# Elastic Compliance Matrix: (Units=1/GPa)
#
#
# Indices 1 2 3 4 5 6 
#
# 1 0.011902 -0.003191 -0.004574 0.000000 0.000000 0.000000
# 2 -0.003191 0.015968 -0.008462 0.000000 0.000000 0.000000
# 3 -0.004574 -0.008462 0.019991 0.000000 0.000000 0.000000
# 4 0.000000 0.000000 0.000000 0.058882 0.000000 0.000000
# 5 0.000000 0.000000 0.000000 0.000000 0.039524 0.000000
# 6 0.000000 0.000000 0.000000 0.000000 0.000000 0.012603
#
#
# Mechanical properties :
#
#
# Convention : Reuss Voigt Hill
#
# Bulk Modulus (GPa) = 64.89882 65.77265 65.33573
# Shear Modulus (GPa) = 25.45030 34.39646 29.92338
#
# Velocity S-wave (km/s) = 3.68977 4.28953 4.00090
# Velocity P-wave (km/s) = 7.27115 7.72774 7.50291
#
# Compressibility (1/GPa) = 0.01540860
#
# Stress axis : x y z
#
# Youngs Moduli (GPa) = 84.01656 62.62397 50.02131
#
# Poissons Ratio (x) = 0.19983 0.22880
# Poissons Ratio (y) = 0.26809 0.42327
# Poissons Ratio (z) = 0.38430 0.52991
#
# Static dielectric constant tensor:
#      x y z
#    x 1.662310 0.000000 0.000000 
#    y 0.000000 1.656890 0.000000 
#    z 0.000000 0.000000 1.642840 
# 
# From -- ./inp_files/11205.got.cif
#   From: 2010.05.17/outbox.cif.g08.bks.cpg/sg71_6_cif.got.tgz:11205.got - 2010.06.03 16:22:01.
