data_PCOD9520165
_publ_section_title
;
Structure prediction by ZEFSAII (Michael W. Deem and Ramdas Pophale) SiO2 
 PCOD9520165
Probable space group: I M M M
;
_chemical_formula_sum "Si O2"
_cell_formula_units_Z 64
_cell_length_a 22.909237
_cell_length_b 8.023526
_cell_length_c 17.223729
_cell_angle_alpha 90.000000
_cell_angle_beta 90.000000
_cell_angle_gamma 90.000000
_cell_volume 3165.942865
_symmetry_space_group_name_H-M "I M M M"
_symmetry_group_IT_number 71
_symmetry_cell_setting 'orthorhombic'
loop_
_space_group_symop_operation_xyz
x,y,z
-x,-y,z
x,-y,-z
-x,y,-z
-x,-y,-z
x,y,-z
-x,y,z
x,-y,z
1/2+x,1/2+y,1/2+z
1/2-x,1/2-y,1/2+z
1/2+x,1/2-y,1/2-z
1/2-x,1/2+y,1/2-z
1/2-x,1/2-y,1/2-z
1/2+x,1/2+y,1/2-z
1/2-x,1/2+y,1/2+z
1/2+x,1/2-y,1/2+z
loop_
_atom_site_type_symbol
_atom_site_label
_atom_site_fract_x
_atom_site_fract_y
_atom_site_fract_z
Si Si1 0.500000 0.203862 0.589640
Si Si2 0.933971 0.198749 0.500000
Si Si3 0.383519 0.795732 0.320686
Si Si4 0.267860 0.799306 0.588816
Si Si5 0.358008 0.801271 0.148048
O O1 0.500000 0.257416 0.500000
O O2 0.441746 0.257426 0.634601
O O3 0.500000 0.000000 0.589266
O O4 0.898660 0.249852 0.576563
O O5 0.000000 0.266798 0.500000
O O6 0.936877 0.000000 0.500000
O O7 0.325214 0.740877 0.365718
O O8 0.380427 0.739190 0.231471
O O9 0.383648 0.000000 0.320796
O O10 0.266302 0.736914 0.500000
O O11 0.207977 0.754920 0.631417
O O12 0.271157 0.000000 0.585514
O O13 0.357794 0.000000 0.151241
#
# Coordination Sequence:
#
# PCOD9520165 Si02
#       5
#     8   8  16  16  16
#     4   9  16  30  52  79 113 148 188 231 274 328
#     4  11  25  43  61  81 111 150 191 232 283 347
#     4   9  19  32  51  82 115 150 189 234 284 330
#     4  10  19  34  56  81 115 154 192 231 275 332
#     4  11  22  36  57  85 116 147 186 235 286 335
#
# _framework density 20.215147000000002
#
# number of rings (size 3 to 8) (size 9 to 14) (size 15 to 20)
#    0.000    2.000    1.250    2.625    1.750    4.000 
#    0.000    1.250    0.000    0.000    0.000    0.000 
#    0.000    7.000    0.000    0.000    0.000    0.000 
#
# Total GULP energy -178799.446399 kJ/mol
# GULP energy per Si atom -5587.482700 kJ/mol
# Density = 2.016914 g / cm^3
# Si number density = 20.215147 Si / 1000 Ang^3
#
#
#
# Elastic Constant Matrix: (Units=GPa)
#
#
# Indices 1 2 3 4 5 6 
#
# 1 227.2756 7.7028 136.4494 0.0000 0.0000 0.0000
# 2 7.7028 15.4126 12.2208 0.0000 0.0000 0.0000
# 3 136.4494 12.2208 228.2206 0.0000 0.0000 0.0000
# 4 0.0000 0.0000 0.0000 7.8625 0.0000 0.0000
# 5 0.0000 0.0000 0.0000 0.0000 22.4203 0.0000
# 6 0.0000 0.0000 0.0000 0.0000 0.0000 -101.0360
#
#
#
# Elastic Compliance Matrix: (Units=1/GPa)
#
#
# Indices 1 2 3 4 5 6 
#
# 1 0.006864 -0.000184 -0.004094 0.000000 0.000000 0.000000
# 2 -0.000184 0.067764 -0.003518 0.000000 0.000000 0.000000
# 3 -0.004094 -0.003518 0.007018 0.000000 0.000000 0.000000
# 4 0.000000 0.000000 0.000000 0.127187 0.000000 0.000000
# 5 0.000000 0.000000 0.000000 0.000000 0.044602 0.000000
# 6 0.000000 0.000000 0.000000 0.000000 0.000000 -0.009897
#
#
# Mechanical properties :
#
#
# Convention : Reuss Voigt Hill
#
# Bulk Modulus (GPa) = 15.13949 87.07276 51.10612
# Shear Modulus (GPa) = 17.78417 6.81842 12.30130
#
# Velocity S-wave (km/s) = 2.96927 1.83855 2.46949
# Velocity P-wave (km/s) = 4.38872 6.90460 5.78508
#
# Compressibility (1/GPa) = 0.06605243
#
# Stress axis : x y z
#
# Youngs Moduli (GPa) = 145.68413 14.75709 142.49211
#
# Poissons Ratio (x) = 0.00272 0.58338
# Poissons Ratio (y) = 0.02684 0.50136
# Poissons Ratio (z) = 0.59645 0.05192
#
# Static dielectric constant tensor:
#      x y z
#    x 1.685670 0.000000 0.000000 
#    y 0.000000 1.733820 0.000000 
#    z 0.000000 0.000000 1.698240 
# 
# From -- ./inp_files/9568.got.cif
#   From: 2010.05.17/outbox.cif.g08.bks.cpg/sg71_5_cif.got.tgz:9568.got - 2010.06.03 16:22:01.
