data_PCOD9520916
_publ_section_title
;
Structure prediction by ZEFSAII (Michael W. Deem and Ramdas Pophale) SiO2 
 PCOD9520916
Probable space group: I M M M
;
_chemical_formula_sum "Si O2"
_cell_formula_units_Z 104
_cell_length_a 7.990757
_cell_length_b 22.388567
_cell_length_c 26.799293
_cell_angle_alpha 90.000000
_cell_angle_beta 90.000000
_cell_angle_gamma 90.000000
_cell_volume 4794.436356
_symmetry_space_group_name_H-M "I M M M"
_symmetry_group_IT_number 71
_symmetry_cell_setting 'orthorhombic'
loop_
_space_group_symop_operation_xyz
x,y,z
-x,-y,z
x,-y,-z
-x,y,-z
-x,-y,-z
x,y,-z
-x,y,z
x,-y,z
1/2+x,1/2+y,1/2+z
1/2-x,1/2-y,1/2+z
1/2+x,1/2-y,1/2-z
1/2-x,1/2+y,1/2-z
1/2-x,1/2-y,1/2-z
1/2+x,1/2+y,1/2-z
1/2-x,1/2+y,1/2+z
1/2+x,1/2-y,1/2+z
loop_
_atom_site_type_symbol
_atom_site_label
_atom_site_fract_x
_atom_site_fract_y
_atom_site_fract_z
Si Si1 0.301079 0.932201 0.500000
Si Si2 0.690428 0.838375 0.218470
Si Si3 0.696663 0.431481 0.361632
Si Si4 0.795184 0.749448 0.638732
Si Si5 0.799950 0.935602 0.705064
Si Si6 0.797529 0.348735 0.556859
Si Si7 0.701847 0.619786 0.894129
O O1 0.500000 0.936144 0.500000
O O2 0.250295 0.898309 0.550366
O O3 0.230994 0.000000 0.500000
O O4 0.500000 0.824901 0.231259
O O5 0.700893 0.887597 0.174045
O O6 0.765050 0.779636 0.191138
O O7 0.764810 0.875406 0.264145
O O8 0.500000 0.425769 0.348317
O O9 0.745470 0.500000 0.356045
O O10 0.725258 0.407867 0.417436
O O11 0.747670 0.705377 0.593442
O O12 0.738589 0.815227 0.624127
O O13 0.000000 0.749590 0.641466
O O14 0.740668 0.926324 0.648387
O O15 0.000000 0.939603 0.704769
O O16 0.736573 0.000000 0.725149
O O17 0.743855 0.340225 0.500000
O O18 0.000000 0.352010 0.557635
O O19 0.500000 0.621174 0.892857
#
# Coordination Sequence:
#
# PCOD9520916 Si02
#       7
#     8  16  16  16  16  16  16
#     4  11  25  43  61  87 125 157 186 237 294 335
#     4  10  20  35  56  81 110 147 187 227 279 341
#     4  10  20  33  49  71 102 140 183 232 282 329
#     4   8  17  34  56  83 111 141 184 234 279 328
#     4  10  21  36  55  84 118 148 187 237 283 332
#     4   9  18  32  51  74 103 139 178 226 283 340
#     4  10  21  39  65  89 112 151 196 235 280 340
#
# _framework density 21.69181
#
# number of rings (size 3 to 8) (size 9 to 14) (size 15 to 20)
#    0.000    2.385    0.000    3.000    1.077    6.462 
#    0.000    5.385    0.000    0.000    0.000    0.000 
#    0.000    0.000    0.000    0.000    0.000    0.000 
#
# Total GULP energy -290195.198130 kJ/mol
# GULP energy per Si atom -5580.676887 kJ/mol
# Density = 2.164244 g / cm^3
# Si number density = 21.691810 Si / 1000 Ang^3
#
#
#
# Elastic Constant Matrix: (Units=GPa)
#
#
# Indices 1 2 3 4 5 6 
#
# 1 19.9528 10.3532 6.6043 0.0000 0.0000 0.0000
# 2 10.3532 129.8800 49.9838 0.0000 0.0000 0.0000
# 3 6.6043 49.9838 142.6817 0.0000 0.0000 0.0000
# 4 0.0000 0.0000 0.0000 19.1706 0.0000 0.0000
# 5 0.0000 0.0000 0.0000 0.0000 29.5867 0.0000
# 6 0.0000 0.0000 0.0000 0.0000 0.0000 17.4684
#
#
#
# Elastic Compliance Matrix: (Units=1/GPa)
#
#
# Indices 1 2 3 4 5 6 
#
# 1 0.052433 -0.003751 -0.001113 0.000000 0.000000 0.000000
# 2 -0.003751 0.009168 -0.003038 0.000000 0.000000 0.000000
# 3 -0.001113 -0.003038 0.008124 0.000000 0.000000 0.000000
# 4 0.000000 0.000000 0.000000 0.052163 0.000000 0.000000
# 5 0.000000 0.000000 0.000000 0.000000 0.033799 0.000000
# 6 0.000000 0.000000 0.000000 0.000000 0.000000 0.057246
#
#
# Mechanical properties :
#
#
# Convention : Reuss Voigt Hill
#
# Bulk Modulus (GPa) = 18.54565 47.37744 32.96154
# Shear Modulus (GPa) = 20.26660 28.28336 24.27498
#
# Velocity S-wave (km/s) = 3.05994 3.61483 3.34890
# Velocity P-wave (km/s) = 4.58830 6.26987 5.49381
#
# Compressibility (1/GPa) = 0.05392100
#
# Stress axis : x y z
#
# Youngs Moduli (GPa) = 19.07187 109.08004 123.08683
#
# Poissons Ratio (x) = 0.40920 0.13697
# Poissons Ratio (y) = 0.07155 0.37393
# Poissons Ratio (z) = 0.02122 0.33138
#
# Static dielectric constant tensor:
#      x y z
#    x 1.787910 0.000000 0.000000 
#    y 0.000000 1.812970 0.000000 
#    z 0.000000 0.000000 1.803360 
# 
# From -- ./inp_files/11046.got.cif
#   From: 2010.05.17/outbox.cif.g08.bks.cpg/sg71_6_cif.got.tgz:11046.got - 2010.06.03 16:22:01.
