data_PCOD9520379
_publ_section_title
;
Structure prediction by ZEFSAII (Michael W. Deem and Ramdas Pophale) SiO2 
 PCOD9520379
Probable space group: I M M M
;
_chemical_formula_sum "Si O2"
_cell_formula_units_Z 66
_cell_length_a 18.420707
_cell_length_b 20.267635
_cell_length_c 9.990256
_cell_angle_alpha 90.000000
_cell_angle_beta 90.000000
_cell_angle_gamma 90.000000
_cell_volume 3729.803794
_symmetry_space_group_name_H-M "I M M M"
_symmetry_group_IT_number 71
_symmetry_cell_setting 'orthorhombic'
loop_
_space_group_symop_operation_xyz
x,y,z
-x,-y,z
x,-y,-z
-x,y,-z
-x,-y,-z
x,y,-z
-x,y,z
x,-y,z
1/2+x,1/2+y,1/2+z
1/2-x,1/2-y,1/2+z
1/2+x,1/2-y,1/2-z
1/2-x,1/2+y,1/2-z
1/2-x,1/2-y,1/2-z
1/2+x,1/2+y,1/2-z
1/2-x,1/2+y,1/2+z
1/2+x,1/2-y,1/2+z
loop_
_atom_site_type_symbol
_atom_site_label
_atom_site_fract_x
_atom_site_fract_y
_atom_site_fract_z
Si Si1 0.190085 0.123010 0.343994
Si Si2 0.916266 0.244723 0.343449
Si Si3 0.876716 0.500000 0.729719
Si Si4 0.138496 0.358085 0.848032
Si Si5 0.500000 0.000000 0.000000
Si Si6 0.293185 0.500000 0.343013
O O1 0.178871 0.101924 0.500000
O O2 0.137060 0.183853 0.315171
O O3 0.274012 0.145437 0.334487
O O4 0.180078 0.063930 0.239175
O O5 0.907024 0.262420 0.500000
O O6 0.897180 0.307443 0.254058
O O7 0.000000 0.225481 0.323176
O O8 0.882768 0.566788 0.815327
O O9 0.794744 0.500000 0.670215
O O10 0.936583 0.500000 0.615967
O O11 0.118839 0.341442 0.000000
O O12 0.312511 0.500000 0.500000
#
# Coordination Sequence:
#
# PCOD9520379 Si02
#       6
#    16  16   8  16   2   8
#     4   9  19  37  58  81 108 143 180 223 271 322
#     4  10  22  37  56  80 110 143 183 224 270 324
#     4  10  23  36  55  80 111 146 185 219 269 319
#     4  10  21  37  57  80 110 145 184 226 269 319
#     4  12  24  36  54  80 116 148 184 222 272 312
#     4  10  19  35  59  86 106 134 181 230 266 317
#
# _framework density 17.695302000000002
#
# number of rings (size 3 to 8) (size 9 to 14) (size 15 to 20)
#    0.000    2.182    0.606    1.455    3.394    5.333 
#    0.000    1.212    0.000    3.636    0.000    0.000 
#    0.000    0.000    0.000    0.000    0.000    0.000 
#
# Total GULP energy -183925.474135 kJ/mol
# GULP energy per Si atom -5573.499216 kJ/mol
# Density = 1.765503 g / cm^3
# Si number density = 17.695302 Si / 1000 Ang^3
#
#
#
# Elastic Constant Matrix: (Units=GPa)
#
#
# Indices 1 2 3 4 5 6 
#
# 1 70.6435 55.6455 44.8116 0.0000 0.0000 0.0000
# 2 55.6455 102.1468 65.7422 0.0000 0.0000 0.0000
# 3 44.8116 65.7422 88.7835 0.0000 0.0000 0.0000
# 4 0.0000 0.0000 0.0000 -1.9111 0.0000 0.0000
# 5 0.0000 0.0000 0.0000 0.0000 24.4285 0.0000
# 6 0.0000 0.0000 0.0000 0.0000 0.0000 -12.9025
#
#
#
# Elastic Compliance Matrix: (Units=1/GPa)
#
#
# Indices 1 2 3 4 5 6 
#
# 1 0.025915 -0.010888 -0.005018 0.000000 0.000000 0.000000
# 2 -0.010888 0.023278 -0.011741 0.000000 0.000000 0.000000
# 3 -0.005018 -0.011741 0.022490 0.000000 0.000000 0.000000
# 4 0.000000 0.000000 0.000000 -0.523259 0.000000 0.000000
# 5 0.000000 0.000000 0.000000 0.000000 0.040936 0.000000
# 6 0.000000 0.000000 0.000000 0.000000 0.000000 -0.077504
#
#
# Mechanical properties :
#
#
# Convention : Reuss Voigt Hill
#
# Bulk Modulus (GPa) = 61.01666 65.99693 63.50680
# Shear Modulus (GPa) = -11.69899 8.28129 -1.70885
#
# Velocity S-wave (km/s) = -2.57404 2.16566 -0.98377
# Velocity P-wave (km/s) = 5.07173 6.60536 5.88868
#
# Compressibility (1/GPa) = 0.01638897
#
# Stress axis : x y z
#
# Youngs Moduli (GPa) = 38.58793 42.95915 44.46404
#
# Poissons Ratio (x) = 0.46774 0.22310
# Poissons Ratio (y) = 0.42014 0.52207
# Poissons Ratio (z) = 0.19362 0.50440
#
# Static dielectric constant tensor:
#      x y z
#    x 1.588600 0.000000 0.000000 
#    y 0.000000 1.576730 0.000000 
#    z 0.000000 0.000000 1.590070 
# 
# From -- ./inp_files/7661.got.cif
#   From: 2010.05.17/outbox.cif.g08.bks.cpg/sg71_4_cif.got.tgz:7661.got - 2010.06.03 16:22:01.
