data_PCOD9520662
_publ_section_title
;
Structure prediction by ZEFSAII (Michael W. Deem and Ramdas Pophale) SiO2 
 PCOD9520662
Probable space group: I M M M
;
_chemical_formula_sum "Si O2"
_cell_formula_units_Z 104
_cell_length_a 8.648970
_cell_length_b 29.349864
_cell_length_c 24.940079
_cell_angle_alpha 90.000000
_cell_angle_beta 90.000000
_cell_angle_gamma 90.000000
_cell_volume 6330.941619
_symmetry_space_group_name_H-M "I M M M"
_symmetry_group_IT_number 71
_symmetry_cell_setting 'orthorhombic'
loop_
_space_group_symop_operation_xyz
x,y,z
-x,-y,z
x,-y,-z
-x,y,-z
-x,-y,-z
x,y,-z
-x,y,z
x,-y,z
1/2+x,1/2+y,1/2+z
1/2-x,1/2-y,1/2+z
1/2+x,1/2-y,1/2-z
1/2-x,1/2+y,1/2-z
1/2-x,1/2-y,1/2-z
1/2+x,1/2+y,1/2-z
1/2-x,1/2+y,1/2+z
1/2+x,1/2-y,1/2+z
loop_
_atom_site_type_symbol
_atom_site_label
_atom_site_fract_x
_atom_site_fract_y
_atom_site_fract_z
Si Si1 0.688563 0.447920 0.355583
Si Si2 0.689211 0.370880 0.561923
Si Si3 0.684767 0.089853 0.373358
Si Si4 0.816064 0.174440 0.437897
Si Si5 0.313816 0.447037 0.766496
Si Si6 0.178217 0.229573 0.934948
Si Si7 0.688549 0.000000 0.561877
O O1 0.500000 0.448065 0.356494
O O2 0.737421 0.500000 0.366962
O O3 0.740772 0.411137 0.399011
O O4 0.733652 0.436051 0.294528
O O5 0.736695 0.377918 0.500000
O O6 0.500000 0.370052 0.561880
O O7 0.738012 0.320398 0.581226
O O8 0.500000 0.089692 0.373933
O O9 0.743918 0.135376 0.401543
O O10 0.743044 0.083510 0.312884
O O11 0.739412 0.045532 0.407223
O O12 0.762305 0.169069 0.500000
O O13 0.769808 0.225261 0.419573
O O14 0.000000 0.170160 0.437366
O O15 0.500000 0.444405 0.769032
O O16 0.270075 0.500000 0.776365
O O17 0.000000 0.234474 0.917632
O O18 0.178516 0.227845 0.000000
O O19 0.500000 0.000000 0.561979
O O20 0.738904 0.000000 0.500000
#
# Coordination Sequence:
#
# PCOD9520662 Si02
#       7
#    16  16  16  16  16  16   8
#     4   8  14  24  40  65  96 129 158 186 226 272
#     4   8  13  22  40  68  98 125 155 189 225 269
#     4  11  20  31  48  67  89 118 153 193 231 272
#     4  10  20  32  46  67  93 119 149 186 230 280
#     4   9  17  30  46  63  89 124 160 193 226 269
#     4   8  14  26  44  65  90 121 154 188 226 268
#     4   9  18  30  43  63  89 113 138 175 226 276
#
# _framework density 16.427256
#
# number of rings (size 3 to 8) (size 9 to 14) (size 15 to 20)
#    0.000    3.000    0.769    3.231    0.000    1.846 
#    0.000    1.538    0.000    3.692    0.000    0.000 
#    0.000    0.000    0.000    9.385    0.000    9.538 
#
# Total GULP energy -289642.796356 kJ/mol
# GULP energy per Si atom -5570.053776 kJ/mol
# Density = 1.638987 g / cm^3
# Si number density = 16.427256 Si / 1000 Ang^3
#
#
#
# Elastic Constant Matrix: (Units=GPa)
#
#
# Indices 1 2 3 4 5 6 
#
# 1 14.3889 25.8757 20.3819 0.0000 0.0000 0.0000
# 2 25.8757 151.3664 90.1943 0.0000 0.0000 0.0000
# 3 20.3819 90.1943 101.6816 0.0000 0.0000 0.0000
# 4 0.0000 0.0000 0.0000 8.3537 0.0000 0.0000
# 5 0.0000 0.0000 0.0000 0.0000 10.9311 0.0000
# 6 0.0000 0.0000 0.0000 0.0000 0.0000 9.2034
#
#
#
# Elastic Compliance Matrix: (Units=1/GPa)
#
#
# Indices 1 2 3 4 5 6 
#
# 1 0.105803 -0.011559 -0.010955 0.000000 0.000000 0.000000
# 2 -0.011559 0.015276 -0.011233 0.000000 0.000000 0.000000
# 3 -0.010955 -0.011233 0.021995 0.000000 0.000000 0.000000
# 4 0.000000 0.000000 0.000000 0.119708 0.000000 0.000000
# 5 0.000000 0.000000 0.000000 0.000000 0.091482 0.000000
# 6 0.000000 0.000000 0.000000 0.000000 0.000000 0.108656
#
#
# Mechanical properties :
#
#
# Convention : Reuss Voigt Hill
#
# Bulk Modulus (GPa) = 13.23117 60.03787 36.63452
# Shear Modulus (GPa) = 8.99918 14.42996 11.71457
#
# Velocity S-wave (km/s) = 2.34309 2.96702 2.67332
# Velocity P-wave (km/s) = 3.92327 6.95447 5.64609
#
# Compressibility (1/GPa) = 0.07557913
#
# Stress axis : x y z
#
# Youngs Moduli (GPa) = 9.45157 65.46219 45.46565
#
# Poissons Ratio (x) = 0.75669 0.49806
# Poissons Ratio (y) = 0.10925 0.51073
# Poissons Ratio (z) = 0.10354 0.73535
#
# Static dielectric constant tensor:
#      x y z
#    x 1.555700 0.000000 0.000000 
#    y 0.000000 1.554980 0.000000 
#    z 0.000000 0.000000 1.539980 
# 
# From -- ./inp_files/63693.got.cif
#   From: 2010.05.17/outbox.cif.g08.bks.cpg/sg71_32_cif.got.tgz:63693.got - 2010.06.03 16:22:01.
