data_PCOD9520657
_publ_section_title
;
Structure prediction by ZEFSAII (Michael W. Deem and Ramdas Pophale) SiO2 
 PCOD9520657
Probable space group: I M M M
;
_chemical_formula_sum "Si O2"
_cell_formula_units_Z 128
_cell_length_a 12.778293
_cell_length_b 21.630348
_cell_length_c 25.542941
_cell_angle_alpha 90.000000
_cell_angle_beta 90.000000
_cell_angle_gamma 90.000000
_cell_volume 7060.041419
_symmetry_space_group_name_H-M "I M M M"
_symmetry_group_IT_number 71
_symmetry_cell_setting 'orthorhombic'
loop_
_space_group_symop_operation_xyz
x,y,z
-x,-y,z
x,-y,-z
-x,y,-z
-x,-y,-z
x,y,-z
-x,y,z
x,-y,z
1/2+x,1/2+y,1/2+z
1/2-x,1/2-y,1/2+z
1/2+x,1/2-y,1/2-z
1/2-x,1/2+y,1/2-z
1/2-x,1/2-y,1/2-z
1/2+x,1/2+y,1/2-z
1/2-x,1/2+y,1/2+z
1/2+x,1/2-y,1/2+z
loop_
_atom_site_type_symbol
_atom_site_label
_atom_site_fract_x
_atom_site_fract_y
_atom_site_fract_z
Si Si1 0.618524 0.664677 0.558465
Si Si2 0.375421 0.391752 0.943752
Si Si3 0.186517 0.752614 0.441785
Si Si4 0.333056 0.269324 0.172681
Si Si5 0.617188 0.587270 0.168935
Si Si6 0.383201 0.804566 0.277625
Si Si7 0.785368 0.431125 0.744657
Si Si8 0.119763 0.073773 0.845056
O O1 0.626724 0.636774 0.500000
O O2 0.500000 0.687845 0.564849
O O3 0.701742 0.719523 0.560498
O O4 0.636559 0.613783 0.602956
O O5 0.500000 0.375932 0.941730
O O6 0.313517 0.327095 0.942041
O O7 0.355308 0.428204 0.890946
O O8 0.356221 0.421915 0.000000
O O9 0.140446 0.735641 0.500000
O O10 0.140658 0.738847 0.383684
O O11 0.379755 0.338108 0.172293
O O12 0.372616 0.232616 0.223070
O O13 0.208223 0.280014 0.183681
O O14 0.500000 0.567105 0.181320
O O15 0.702293 0.564025 0.208566
O O16 0.500000 0.796587 0.298937
O O17 0.361323 0.875938 0.261808
O O18 0.830074 0.500000 0.734860
O O19 0.711543 0.411332 0.695913
O O20 0.000000 0.086952 0.825814
O O21 0.124333 0.000000 0.854771
#
# Coordination Sequence:
#
# PCOD9520657 Si02
#       8
#    16  16  16  16  16  16  16  16
#     4   9  17  27  39  58  83 111 143 176 214 262
#     4   8  14  25  42  64  88 114 143 172 207 258
#     4   9  16  27  43  63  91 120 141 171 216 262
#     4   9  18  31  47  71  95 117 153 189 220 270
#     4   9  16  27  45  67  92 119 144 179 225 266
#     4  10  20  33  49  67  91 123 153 187 228 265
#     4  10  20  32  46  66  89 114 151 190 224 270
#     4   9  17  29  44  60  80 108 142 183 227 265
#
# _framework density 18.130206000000001
#
# number of rings (size 3 to 8) (size 9 to 14) (size 15 to 20)
#    0.000    2.875    0.000    1.500    0.000    2.250 
#    0.000    4.375    0.000    0.375    0.000    1.750 
#    0.000    0.000    0.000   25.375    0.000    0.250 
#
# Total GULP energy -356269.720271 kJ/mol
# GULP energy per Si atom -5566.714379 kJ/mol
# Density = 1.808894 g / cm^3
# Si number density = 18.130206 Si / 1000 Ang^3
#
#
#
# Elastic Constant Matrix: (Units=GPa)
#
#
# Indices 1 2 3 4 5 6 
#
# 1 60.5919 13.5102 11.2613 0.0000 0.0000 0.0000
# 2 13.5102 36.4620 15.9835 0.0000 0.0000 0.0000
# 3 11.2613 15.9835 96.2022 0.0000 0.0000 0.0000
# 4 0.0000 0.0000 0.0000 6.1509 0.0000 0.0000
# 5 0.0000 0.0000 0.0000 0.0000 14.8860 0.0000
# 6 0.0000 0.0000 0.0000 0.0000 0.0000 -14.7148
#
#
#
# Elastic Compliance Matrix: (Units=1/GPa)
#
#
# Indices 1 2 3 4 5 6 
#
# 1 0.018094 -0.006230 -0.001083 0.000000 0.000000 0.000000
# 2 -0.006230 0.031725 -0.004542 0.000000 0.000000 0.000000
# 3 -0.001083 -0.004542 0.011276 0.000000 0.000000 0.000000
# 4 0.000000 0.000000 0.000000 0.162579 0.000000 0.000000
# 5 0.000000 0.000000 0.000000 0.000000 0.067177 0.000000
# 6 0.000000 0.000000 0.000000 0.000000 0.000000 -0.067959
#
#
# Mechanical properties :
#
#
# Convention : Reuss Voigt Hill
#
# Bulk Modulus (GPa) = 26.74766 30.52958 28.63862
# Shear Modulus (GPa) = 19.30028 11.43114 15.36571
#
# Velocity S-wave (km/s) = 3.26626 2.51370 2.91438
# Velocity P-wave (km/s) = 5.38607 5.02997 5.21106
#
# Compressibility (1/GPa) = 0.03738645
#
# Stress axis : x y z
#
# Youngs Moduli (GPa) = 55.26637 31.52093 88.68289
#
# Poissons Ratio (x) = 0.19636 0.09605
# Poissons Ratio (y) = 0.34429 0.40277
# Poissons Ratio (z) = 0.05986 0.14316
#
# Static dielectric constant tensor:
#      x y z
#    x 1.613170 0.000000 0.000000 
#    y 0.000000 1.631530 0.000000 
#    z 0.000000 0.000000 1.676540 
# 
# From -- ./inp_files/64949.got.cif
#   From: 2010.05.17/outbox.cif.g08.bks.cpg/sg71_33_cif.got.tgz:64949.got - 2010.06.03 16:22:01.
