data_PCOD9520136
_publ_section_title
;
Structure prediction by ZEFSAII (Michael W. Deem and Ramdas Pophale) SiO2 
 PCOD9520136
Probable space group: I M M M
;
_chemical_formula_sum "Si O2"
_cell_formula_units_Z 56
_cell_length_a 10.086422
_cell_length_b 7.391187
_cell_length_c 33.543335
_cell_angle_alpha 90.000000
_cell_angle_beta 90.000000
_cell_angle_gamma 90.000000
_cell_volume 2500.676796
_symmetry_space_group_name_H-M "I M M M"
_symmetry_group_IT_number 71
_symmetry_cell_setting 'orthorhombic'
loop_
_space_group_symop_operation_xyz
x,y,z
-x,-y,z
x,-y,-z
-x,y,-z
-x,-y,-z
x,y,-z
-x,y,z
x,-y,z
1/2+x,1/2+y,1/2+z
1/2-x,1/2-y,1/2+z
1/2+x,1/2-y,1/2-z
1/2-x,1/2+y,1/2-z
1/2-x,1/2-y,1/2-z
1/2+x,1/2+y,1/2-z
1/2-x,1/2+y,1/2+z
1/2+x,1/2-y,1/2+z
loop_
_atom_site_type_symbol
_atom_site_label
_atom_site_fract_x
_atom_site_fract_y
_atom_site_fract_z
Si Si1 0.500000 0.778926 0.779563
Si Si2 0.287751 0.788804 0.157393
Si Si3 0.652601 0.279012 0.500000
Si Si4 0.851151 0.720979 0.568937
Si Si5 0.000000 0.716152 0.811449
O O1 0.626946 0.718152 0.805367
O O2 0.500000 0.715167 0.734135
O O3 0.500000 0.000000 0.777170
O O4 0.325172 0.714886 0.114063
O O5 0.133197 0.773293 0.166389
O O6 0.323383 0.000000 0.155266
O O7 0.650570 0.500000 0.500000
O O8 0.500000 0.219498 0.500000
O O9 0.736893 0.221529 0.461404
O O10 0.848055 0.500000 0.569022
O O11 0.000000 0.772960 0.556413
O O12 0.000000 0.500000 0.810295
#
# Coordination Sequence:
#
# PCOD9520136 Si02
#       5
#     8  16   8  16   8
#     4   9  18  35  55  76 102 133 176 221 259 303
#     4  10  19  34  56  78 100 135 179 217 253 304
#     4   9  17  25  39  71 111 136 155 196 254 310
#     4   9  16  28  47  71 101 135 168 204 251 303
#     4  11  23  35  49  74 109 141 169 215 269 309
#
# _framework density 22.393937999999999
#
# number of rings (size 3 to 8) (size 9 to 14) (size 15 to 20)
#    0.000    2.429    1.429    1.714    2.000    1.714 
#    0.000    2.143    0.000    0.000    0.000    2.000 
#    0.000    2.286    0.000    0.000    0.000    0.000 
#
# Total GULP energy -156474.528680 kJ/mol
# GULP energy per Si atom -5588.376024 kJ/mol
# Density = 2.234297 g / cm^3
# Si number density = 22.393938 Si / 1000 Ang^3
#
#
#
# Elastic Constant Matrix: (Units=GPa)
#
#
# Indices 1 2 3 4 5 6 
#
# 1 194.9586 -11.8060 72.3325 0.0000 0.0000 0.0000
# 2 -11.8060 75.6905 3.8167 0.0000 0.0000 0.0000
# 3 72.3325 3.8167 123.4064 0.0000 0.0000 0.0000
# 4 0.0000 0.0000 0.0000 -7.8850 0.0000 0.0000
# 5 0.0000 0.0000 0.0000 0.0000 44.1851 0.0000
# 6 0.0000 0.0000 0.0000 0.0000 0.0000 -72.8750
#
#
#
# Elastic Compliance Matrix: (Units=1/GPa)
#
#
# Indices 1 2 3 4 5 6 
#
# 1 0.006669 0.001239 -0.003947 0.000000 0.000000 0.000000
# 2 0.001239 0.013463 -0.001143 0.000000 0.000000 0.000000
# 3 -0.003947 -0.001143 0.010452 0.000000 0.000000 0.000000
# 4 0.000000 0.000000 0.000000 -0.126824 0.000000 0.000000
# 5 0.000000 0.000000 0.000000 0.000000 0.022632 0.000000
# 6 0.000000 0.000000 0.000000 0.000000 0.000000 -0.013722
#
#
# Mechanical properties :
#
#
# Convention : Reuss Voigt Hill
#
# Bulk Modulus (GPa) = 43.70184 58.08244 50.89214
# Shear Modulus (GPa) = -69.44303 14.66584 -27.38860
#
# Velocity S-wave (km/s) = -5.57468 2.56188 -3.50099
# Velocity P-wave (km/s) = 4.67747 5.89440 2.53627
#
# Compressibility (1/GPa) = 0.02288233
#
# Stress axis : x y z
#
# Youngs Moduli (GPa) = 149.95254 74.27981 95.67378
#
# Poissons Ratio (x) = -0.09205 0.37764
# Poissons Ratio (y) = -0.18582 0.10933
# Poissons Ratio (z) = 0.59188 0.08488
#
# Static dielectric constant tensor:
#      x y z
#    x 1.712850 0.000000 0.000000 
#    y 0.000000 1.910620 0.000000 
#    z 0.000000 0.000000 1.796290 
# 
# From -- ./inp_files/18435.got.cif
#   From: 2010.05.17/outbox.cif.g08.bks.cpg/sg71_10_cif.got.tgz:18435.got - 2010.06.03 16:22:01.
