data_PCOD9520586
_publ_section_title
;
Structure prediction by ZEFSAII (Michael W. Deem and Ramdas Pophale) SiO2 
 PCOD9520586
Probable space group: I M M M
;
_chemical_formula_sum "Si O2"
_cell_formula_units_Z 88
_cell_length_a 20.781992
_cell_length_b 7.920614
_cell_length_c 31.466071
_cell_angle_alpha 90.000000
_cell_angle_beta 90.000000
_cell_angle_gamma 90.000000
_cell_volume 5179.508387
_symmetry_space_group_name_H-M "I M M M"
_symmetry_group_IT_number 71
_symmetry_cell_setting 'orthorhombic'
loop_
_space_group_symop_operation_xyz
x,y,z
-x,-y,z
x,-y,-z
-x,y,-z
-x,-y,-z
x,y,-z
-x,y,z
x,-y,z
1/2+x,1/2+y,1/2+z
1/2-x,1/2-y,1/2+z
1/2+x,1/2-y,1/2-z
1/2-x,1/2+y,1/2-z
1/2-x,1/2-y,1/2-z
1/2+x,1/2+y,1/2-z
1/2-x,1/2+y,1/2+z
1/2+x,1/2-y,1/2+z
loop_
_atom_site_type_symbol
_atom_site_label
_atom_site_fract_x
_atom_site_fract_y
_atom_site_fract_z
Si Si1 0.640930 0.796748 0.548322
Si Si2 0.429912 0.296816 0.229328
Si Si3 0.799239 0.203876 0.869481
Si Si4 0.500000 0.195592 0.551875
Si Si5 0.930668 0.794437 0.828592
Si Si6 0.212069 0.300118 0.706773
O O1 0.652718 0.739210 0.500000
O O2 0.696894 0.752170 0.581275
O O3 0.570032 0.728088 0.562776
O O4 0.634957 0.000000 0.547263
O O5 0.500000 0.237702 0.212632
O O6 0.430710 0.500000 0.228301
O O7 0.426896 0.247069 0.278995
O O8 0.363218 0.242573 0.208664
O O9 0.867478 0.268468 0.851400
O O10 0.745917 0.267304 0.836194
O O11 0.798676 0.000000 0.867870
O O12 0.500000 0.193539 0.500000
O O13 0.500000 0.000000 0.565898
O O14 0.000000 0.737850 0.845721
O O15 0.929878 0.000000 0.830071
O O16 0.218119 0.500000 0.705286
O O17 0.250000 0.250000 0.750000
#
# Coordination Sequence:
#
# PCOD9520586 Si02
#       6
#    16  16  16   8  16  16
#     4   9  18  32  47  63  86 117 153 194 238 281
#     4   9  17  32  52  69  91 125 159 194 238 281
#     4  10  20  31  45  66  90 121 157 194 237 278
#     4   7  12  26  45  61  83 115 147 187 239 279
#     4   8  14  26  42  60  87 121 154 189 229 270
#     4  11  21  33  48  68  97 128 161 198 236 280
#
# _framework density 16.990030000000001
#
# number of rings (size 3 to 8) (size 9 to 14) (size 15 to 20)
#    0.000    2.818    1.818    2.727    1.273    2.182 
#    0.000    0.000    0.000    1.636    0.000    0.000 
#    0.000    0.727    0.000    8.000    0.000    5.818 
#
# Total GULP energy -245098.234424 kJ/mol
# GULP energy per Si atom -5570.414419 kJ/mol
# Density = 1.695136 g / cm^3
# Si number density = 16.990030 Si / 1000 Ang^3
#
#
#
# Elastic Constant Matrix: (Units=GPa)
#
#
# Indices 1 2 3 4 5 6 
#
# 1 117.2313 10.6975 67.6270 0.0000 0.0000 0.0000
# 2 10.6975 20.0957 9.0331 0.0000 0.0000 0.0000
# 3 67.6270 9.0331 99.1828 0.0000 0.0000 0.0000
# 4 0.0000 0.0000 0.0000 15.6799 0.0000 0.0000
# 5 0.0000 0.0000 0.0000 0.0000 31.5360 0.0000
# 6 0.0000 0.0000 0.0000 0.0000 0.0000 19.1156
#
#
#
# Elastic Compliance Matrix: (Units=1/GPa)
#
#
# Indices 1 2 3 4 5 6 
#
# 1 0.014275 -0.003361 -0.009427 0.000000 0.000000 0.000000
# 2 -0.003361 0.052678 -0.002506 0.000000 0.000000 0.000000
# 3 -0.009427 -0.002506 0.016738 0.000000 0.000000 0.000000
# 4 0.000000 0.000000 0.000000 0.063776 0.000000 0.000000
# 5 0.000000 0.000000 0.000000 0.000000 0.031710 0.000000
# 6 0.000000 0.000000 0.000000 0.000000 0.000000 0.052313
#
#
# Mechanical properties :
#
#
# Convention : Reuss Voigt Hill
#
# Bulk Modulus (GPa) = 18.83147 45.69166 32.26157
# Shear Modulus (GPa) = 17.87118 23.20978 20.54048
#
# Velocity S-wave (km/s) = 3.24676 3.70006 3.48080
# Velocity P-wave (km/s) = 5.01629 6.72351 5.93164
#
# Compressibility (1/GPa) = 0.05310259
#
# Stress axis : x y z
#
# Youngs Moduli (GPa) = 70.05170 18.98339 59.74253
#
# Poissons Ratio (x) = 0.06381 0.56321
# Poissons Ratio (y) = 0.23548 0.14969
# Poissons Ratio (z) = 0.66040 0.04757
#
# Static dielectric constant tensor:
#      x y z
#    x 1.571810 0.000000 0.000000 
#    y 0.000000 1.619750 0.000000 
#    z 0.000000 0.000000 1.618980 
# 
# From -- ./inp_files/70654.got.cif
#   From: 2010.05.17/outbox.cif.g08.bks.cpg/sg71_36_cif.got.tgz:70654.got - 2010.06.03 16:22:01.
