data_PCOD9520433
_publ_section_title
;
Structure prediction by ZEFSAII (Michael W. Deem and Ramdas Pophale) SiO2 
 PCOD9520433
Probable space group: I M M M
;
_chemical_formula_sum "Si O2"
_cell_formula_units_Z 92
_cell_length_a 30.337984
_cell_length_b 7.815973
_cell_length_c 20.294641
_cell_angle_alpha 90.000000
_cell_angle_beta 90.000000
_cell_angle_gamma 90.000000
_cell_volume 4812.282805
_symmetry_space_group_name_H-M "I M M M"
_symmetry_group_IT_number 71
_symmetry_cell_setting 'orthorhombic'
loop_
_space_group_symop_operation_xyz
x,y,z
-x,-y,z
x,-y,-z
-x,y,-z
-x,-y,-z
x,y,-z
-x,y,z
x,-y,z
1/2+x,1/2+y,1/2+z
1/2-x,1/2-y,1/2+z
1/2+x,1/2-y,1/2-z
1/2-x,1/2+y,1/2-z
1/2-x,1/2-y,1/2-z
1/2+x,1/2+y,1/2-z
1/2-x,1/2+y,1/2+z
1/2+x,1/2-y,1/2+z
loop_
_atom_site_type_symbol
_atom_site_label
_atom_site_fract_x
_atom_site_fract_y
_atom_site_fract_z
Si Si1 0.050459 0.706931 0.856781
Si Si2 0.946289 0.301821 0.000000
Si Si3 0.381286 0.304229 0.244404
Si Si4 0.732089 0.292304 0.924356
Si Si5 0.131869 0.690891 0.400264
Si Si6 0.788085 0.295661 0.198140
Si Si7 0.609877 0.500000 0.000000
O O1 0.049527 0.500000 0.861433
O O2 0.066349 0.772459 0.928855
O O3 0.081899 0.754634 0.797259
O O4 0.000000 0.764488 0.846310
O O5 0.931365 0.500000 0.000000
O O6 0.000000 0.302938 0.000000
O O7 0.387170 0.500000 0.225632
O O8 0.381684 0.202721 0.176123
O O9 0.333847 0.282564 0.278862
O O10 0.727120 0.500000 0.920980
O O11 0.684960 0.215580 0.904481
O O12 0.769719 0.241036 0.873106
O O13 0.741556 0.247729 0.000000
O O14 0.120873 0.500000 0.424260
O O15 0.112711 0.847017 0.442947
O O16 0.793842 0.500000 0.197086
O O17 0.750000 0.250000 0.250000
#
# Coordination Sequence:
#
# PCOD9520433 Si02
#       7
#    16   8  16  16  16  16   4
#     4   9  18  36  63  91 117 150 199 253 307 366
#     4   7  12  28  57  88 115 147 191 248 302 353
#     4  12  24  39  55  83 124 160 201 251 299 363
#     4  10  19  36  55  78 110 146 199 257 299 348
#     4  12  22  36  61  86 118 158 198 251 302 352
#     4  11  22  35  56  79 111 156 199 243 302 355
#     4  12  22  40  56  92 121 148 204 252 295 352
#
# _framework density 19.117746
#
# number of rings (size 3 to 8) (size 9 to 14) (size 15 to 20)
#    0.000    1.478    4.348    3.391    0.000    1.043 
#    1.565    0.435    0.000    1.565    0.000    1.217 
#    0.000    2.783    0.000    0.000    0.000    0.000 
#
# Total GULP energy -256250.895755 kJ/mol
# GULP energy per Si atom -5570.671647 kJ/mol
# Density = 1.907423 g / cm^3
# Si number density = 19.117746 Si / 1000 Ang^3
#
#
#
# Elastic Constant Matrix: (Units=GPa)
#
#
# Indices 1 2 3 4 5 6 
#
# 1 62.0091 10.5814 58.4462 0.0000 0.0000 0.0000
# 2 10.5814 95.7063 37.8352 0.0000 0.0000 0.0000
# 3 58.4462 37.8352 188.4358 0.0000 0.0000 0.0000
# 4 0.0000 0.0000 0.0000 28.2815 0.0000 0.0000
# 5 0.0000 0.0000 0.0000 0.0000 37.0008 0.0000
# 6 0.0000 0.0000 0.0000 0.0000 0.0000 17.2057
#
#
#
# Elastic Compliance Matrix: (Units=1/GPa)
#
#
# Indices 1 2 3 4 5 6 
#
# 1 0.022797 0.000299 -0.007131 0.000000 0.000000 0.000000
# 2 0.000299 0.011353 -0.002372 0.000000 0.000000 0.000000
# 3 -0.007131 -0.002372 0.007995 0.000000 0.000000 0.000000
# 4 0.000000 0.000000 0.000000 0.035359 0.000000 0.000000
# 5 0.000000 0.000000 0.000000 0.000000 0.027026 0.000000
# 6 0.000000 0.000000 0.000000 0.000000 0.000000 0.058120
#
#
# Mechanical properties :
#
#
# Convention : Reuss Voigt Hill
#
# Bulk Modulus (GPa) = 42.12967 62.20854 52.16911
# Shear Modulus (GPa) = 26.45907 32.45018 29.45462
#
# Velocity S-wave (km/s) = 3.72426 4.12440 3.92943
# Velocity P-wave (km/s) = 6.37011 7.43581 6.92349
#
# Compressibility (1/GPa) = 0.02373624
#
# Stress axis : x y z
#
# Youngs Moduli (GPa) = 43.86604 88.07920 125.08076
#
# Poissons Ratio (x) = -0.02629 0.89191
# Poissons Ratio (y) = -0.01309 0.29672
# Poissons Ratio (z) = 0.31279 0.20894
#
# Static dielectric constant tensor:
#      x y z
#    x 1.617770 0.000000 0.000000 
#    y 0.000000 1.704660 0.000000 
#    z 0.000000 0.000000 1.693350 
# 
# From -- ./inp_files/56166.got.cif
#   From: 2010.05.17/outbox.cif.g08.bks.cpg/sg71_29_cif.got.tgz:56166.got - 2010.06.03 16:22:01.
