data_PCOD9520137
_publ_section_title
;
Structure prediction by ZEFSAII (Michael W. Deem and Ramdas Pophale) SiO2 
 PCOD9520137
Probable space group: I M M M
;
_chemical_formula_sum "Si O2"
_cell_formula_units_Z 104
_cell_length_a 21.717617
_cell_length_b 14.417212
_cell_length_c 18.270788
_cell_angle_alpha 90.000000
_cell_angle_beta 90.000000
_cell_angle_gamma 90.000000
_cell_volume 5720.720542
_symmetry_space_group_name_H-M "I M M M"
_symmetry_group_IT_number 71
_symmetry_cell_setting 'orthorhombic'
loop_
_space_group_symop_operation_xyz
x,y,z
-x,-y,z
x,-y,-z
-x,y,-z
-x,-y,-z
x,y,-z
-x,y,z
x,-y,z
1/2+x,1/2+y,1/2+z
1/2-x,1/2-y,1/2+z
1/2+x,1/2-y,1/2-z
1/2-x,1/2+y,1/2-z
1/2-x,1/2-y,1/2-z
1/2+x,1/2+y,1/2-z
1/2-x,1/2+y,1/2+z
1/2+x,1/2-y,1/2+z
loop_
_atom_site_type_symbol
_atom_site_label
_atom_site_fract_x
_atom_site_fract_y
_atom_site_fract_z
Si Si1 0.182080 0.110681 0.312068
Si Si2 0.701437 0.106736 0.784417
Si Si3 0.656219 0.298446 0.580185
Si Si4 0.703148 0.223806 0.084447
Si Si5 0.367879 0.105796 0.367523
Si Si6 0.500000 0.889250 0.582435
Si Si7 0.572547 0.611340 0.705795
O O1 0.232494 0.138016 0.249628
O O2 0.197465 0.172283 0.382844
O O3 0.114221 0.127518 0.278473
O O4 0.189948 0.000000 0.324927
O O5 0.672818 0.164179 0.850682
O O6 0.657503 0.111726 0.713927
O O7 0.708913 0.000000 0.806470
O O8 0.633800 0.326543 0.500000
O O9 0.728216 0.321800 0.587344
O O10 0.660989 0.186751 0.584997
O O11 0.610758 0.338326 0.641258
O O12 0.682849 0.219572 0.000000
O O13 0.439322 0.131107 0.373069
O O14 0.358431 0.000000 0.393760
O O15 0.500000 0.848467 0.500000
O O16 0.500000 0.000000 0.573435
O O17 0.500000 0.637644 0.710191
O O18 0.574763 0.500000 0.692822
#
# Coordination Sequence:
#
# PCOD9520137 Si02
#       7
#    16  16  16  16  16   8  16
#     4  10  19  36  59  81 109 142 181 233 284 329
#     4  10  19  34  56  78 103 142 185 225 269 324
#     4  11  22  33  50  78 112 148 180 215 269 329
#     4  11  22  35  54  81 113 143 174 224 283 333
#     4  10  20  34  52  75 106 145 182 216 260 319
#     4   9  18  32  48  72 110 144 168 203 250 308
#     4  10  22  39  58  79 104 143 194 238 276 323
#
# _framework density 18.179528000000001
#
# number of rings (size 3 to 8) (size 9 to 14) (size 15 to 20)
#    0.000    1.769    3.077    1.846    1.077    2.154 
#    0.000    3.846    0.000    0.462    0.000    2.154 
#    0.000    3.077    0.000    0.000    0.000    0.000 
#
# Total GULP energy -289604.040702 kJ/mol
# GULP energy per Si atom -5569.308475 kJ/mol
# Density = 1.813815 g / cm^3
# Si number density = 18.179528 Si / 1000 Ang^3
#
#
#
# Elastic Constant Matrix: (Units=GPa)
#
#
# Indices 1 2 3 4 5 6 
#
# 1 85.9138 12.1989 27.9495 0.0000 0.0000 0.0000
# 2 12.1989 44.9542 22.3302 0.0000 0.0000 0.0000
# 3 27.9495 22.3302 84.0081 0.0000 0.0000 0.0000
# 4 0.0000 0.0000 0.0000 -30.1335 0.0000 0.0000
# 5 0.0000 0.0000 0.0000 0.0000 8.1020 0.0000
# 6 0.0000 0.0000 0.0000 0.0000 0.0000 13.2390
#
#
#
# Elastic Compliance Matrix: (Units=1/GPa)
#
#
# Indices 1 2 3 4 5 6 
#
# 1 0.013152 -0.001608 -0.003948 0.000000 0.000000 0.000000
# 2 -0.001608 0.025825 -0.006330 0.000000 0.000000 0.000000
# 3 -0.003948 -0.006330 0.014900 0.000000 0.000000 0.000000
# 4 0.000000 0.000000 0.000000 -0.033186 0.000000 0.000000
# 5 0.000000 0.000000 0.000000 0.000000 0.123426 0.000000
# 6 0.000000 0.000000 0.000000 0.000000 0.000000 0.075534
#
#
# Mechanical properties :
#
#
# Convention : Reuss Voigt Hill
#
# Bulk Modulus (GPa) = 33.21638 37.75926 35.48782
# Shear Modulus (GPa) = 19.72702 8.40134 14.06418
#
# Velocity S-wave (km/s) = 3.29769 2.15206 2.78443
# Velocity P-wave (km/s) = 5.72806 5.19523 5.46814
#
# Compressibility (1/GPa) = 0.03010563
#
# Stress axis : x y z
#
# Youngs Moduli (GPa) = 76.03199 38.72164 67.11509
#
# Poissons Ratio (x) = 0.06225 0.26500
# Poissons Ratio (y) = 0.12224 0.42482
# Poissons Ratio (z) = 0.30021 0.24510
#
# Static dielectric constant tensor:
#      x y z
#    x 1.694620 0.000000 0.000000 
#    y 0.000000 1.688970 0.000000 
#    z 0.000000 0.000000 1.567300 
# 
# From -- ./inp_files/47331.got.cif
#   From: 2010.05.17/outbox.cif.g08.bks.cpg/sg71_24_cif.got.tgz:47331.got - 2010.06.03 16:22:01.
