data_PCOD9520451
_publ_section_title
;
Structure prediction by ZEFSAII (Michael W. Deem and Ramdas Pophale) SiO2 
 PCOD9520451
Probable space group: I M M M
;
_chemical_formula_sum "Si O2"
_cell_formula_units_Z 92
_cell_length_a 21.961864
_cell_length_b 7.710092
_cell_length_c 28.590803
_cell_angle_alpha 90.000000
_cell_angle_beta 90.000000
_cell_angle_gamma 90.000000
_cell_volume 4841.223260
_symmetry_space_group_name_H-M "I M M M"
_symmetry_group_IT_number 71
_symmetry_cell_setting 'orthorhombic'
loop_
_space_group_symop_operation_xyz
x,y,z
-x,-y,z
x,-y,-z
-x,y,-z
-x,-y,-z
x,y,-z
-x,y,z
x,-y,z
1/2+x,1/2+y,1/2+z
1/2-x,1/2-y,1/2+z
1/2+x,1/2-y,1/2-z
1/2-x,1/2+y,1/2-z
1/2-x,1/2-y,1/2-z
1/2+x,1/2+y,1/2-z
1/2-x,1/2+y,1/2+z
1/2+x,1/2-y,1/2+z
loop_
_atom_site_type_symbol
_atom_site_label
_atom_site_fract_x
_atom_site_fract_y
_atom_site_fract_z
Si Si1 0.399172 0.200220 0.220008
Si Si2 0.317338 0.700622 0.697705
Si Si3 0.125256 0.705633 0.104152
Si Si4 0.500000 0.500000 0.235963
Si Si5 0.246130 0.292266 0.948011
Si Si6 0.196002 0.292511 0.353180
Si Si7 0.500000 0.292571 0.553412
O O1 0.345394 0.201841 0.258569
O O2 0.447336 0.345116 0.234553
O O3 0.366663 0.256367 0.171539
O O4 0.421567 0.000000 0.216380
O O5 0.308098 0.500000 0.710863
O O6 0.365066 0.709585 0.654635
O O7 0.254654 0.774269 0.676001
O O8 0.132982 0.500000 0.110835
O O9 0.180288 0.770044 0.070907
O O10 0.060566 0.736926 0.080556
O O11 0.241920 0.500000 0.951097
O O12 0.294068 0.253400 0.907185
O O13 0.259270 0.224795 0.000000
O O14 0.199641 0.500000 0.350107
O O15 0.500000 0.500000 0.551624
O O16 0.500000 0.225590 0.500000
#
# Coordination Sequence:
#
# PCOD9520451 Si02
#       7
#    16  16  16   4  16  16   8
#     4  11  23  41  61  88 120 155 202 242 289 357
#     4  10  19  36  58  85 117 151 193 243 301 346
#     4  10  20  34  51  74 105 146 194 240 291 344
#     4  12  26  42  60  86 117 166 195 240 294 342
#     4   9  18  32  53  82 114 145 182 235 295 354
#     4   9  20  35  58  88 118 151 191 242 294 354
#     4  11  23  36  49  67  95 141 197 246 290 342
#
# _framework density 19.003461000000001
#
# number of rings (size 3 to 8) (size 9 to 14) (size 15 to 20)
#    0.000    2.000    0.870    2.609    1.217    3.826 
#    1.565    1.739    0.000    0.000    0.000    1.217 
#    0.000    2.783    0.000    0.000    0.000    0.000 
#
# Total GULP energy -256239.539410 kJ/mol
# GULP energy per Si atom -5570.424770 kJ/mol
# Density = 1.896021 g / cm^3
# Si number density = 19.003461 Si / 1000 Ang^3
#
#
#
# Elastic Constant Matrix: (Units=GPa)
#
#
# Indices 1 2 3 4 5 6 
#
# 1 21.4716 11.2681 17.9440 0.0000 0.0000 0.0000
# 2 11.2681 76.1767 5.1071 0.0000 0.0000 0.0000
# 3 17.9440 5.1071 92.7474 0.0000 0.0000 0.0000
# 4 0.0000 0.0000 0.0000 17.4183 0.0000 0.0000
# 5 0.0000 0.0000 0.0000 0.0000 4.3820 0.0000
# 6 0.0000 0.0000 0.0000 0.0000 0.0000 -34.5472
#
#
#
# Elastic Compliance Matrix: (Units=1/GPa)
#
#
# Indices 1 2 3 4 5 6 
#
# 1 0.060214 -0.008156 -0.011201 0.000000 0.000000 0.000000
# 2 -0.008156 0.014281 0.000792 0.000000 0.000000 0.000000
# 3 -0.011201 0.000792 0.012905 0.000000 0.000000 0.000000
# 4 0.000000 0.000000 0.000000 0.057411 0.000000 0.000000
# 5 0.000000 0.000000 0.000000 0.000000 0.228207 0.000000
# 6 0.000000 0.000000 0.000000 0.000000 0.000000 -0.028946
#
#
# Mechanical properties :
#
#
# Convention : Reuss Voigt Hill
#
# Bulk Modulus (GPa) = 19.89255 28.78157 24.33706
# Shear Modulus (GPa) = 12.56414 7.85573 10.20994
#
# Velocity S-wave (km/s) = 2.57407 2.03539 2.32042
# Velocity P-wave (km/s) = 4.39603 4.54995 4.47365
#
# Compressibility (1/GPa) = 0.05027008
#
# Stress axis : x y z
#
# Youngs Moduli (GPa) = 16.60746 70.02438 77.48703
#
# Poissons Ratio (x) = 0.57112 0.86790
# Poissons Ratio (y) = 0.13545 -0.06134
# Poissons Ratio (z) = 0.18601 -0.05543
#
# Static dielectric constant tensor:
#      x y z
#    x 1.660580 0.000000 0.000000 
#    y 0.000000 1.686730 0.000000 
#    z 0.000000 0.000000 1.684530 
# 
# From -- ./inp_files/14907.got.cif
#   From: 2010.05.17/outbox.cif.g08.bks.cpg/sg71_8_cif.got.tgz:14907.got - 2010.06.03 16:22:01.
