data_PCOD9520509
_publ_section_title
;
Structure prediction by ZEFSAII (Michael W. Deem and Ramdas Pophale) SiO2 
 PCOD9520509
Probable space group: I M M M
;
_chemical_formula_sum "Si O2"
_cell_formula_units_Z 72
_cell_length_a 27.682010
_cell_length_b 11.633764
_cell_length_c 11.878646
_cell_angle_alpha 90.000000
_cell_angle_beta 90.000000
_cell_angle_gamma 90.000000
_cell_volume 3825.470090
_symmetry_space_group_name_H-M "I M M M"
_symmetry_group_IT_number 71
_symmetry_cell_setting 'orthorhombic'
loop_
_space_group_symop_operation_xyz
x,y,z
-x,-y,z
x,-y,-z
-x,y,-z
-x,-y,-z
x,y,-z
-x,y,z
x,-y,z
1/2+x,1/2+y,1/2+z
1/2-x,1/2-y,1/2+z
1/2+x,1/2-y,1/2-z
1/2-x,1/2+y,1/2-z
1/2-x,1/2-y,1/2-z
1/2+x,1/2+y,1/2-z
1/2-x,1/2+y,1/2+z
1/2+x,1/2-y,1/2+z
loop_
_atom_site_type_symbol
_atom_site_label
_atom_site_fract_x
_atom_site_fract_y
_atom_site_fract_z
Si Si1 0.214418 0.860616 0.268839
Si Si2 0.947157 0.635445 0.254357
Si Si3 0.156582 0.134740 0.500000
Si Si4 0.377943 0.294732 0.633934
Si Si5 0.053496 0.258575 0.500000
Si Si6 0.553598 0.500000 0.636850
O O1 0.250000 0.750000 0.250000
O O2 0.188079 0.839964 0.388838
O O3 0.173217 0.840472 0.175500
O O4 0.229688 0.000000 0.265718
O O5 0.947708 0.500000 0.242094
O O6 0.899982 0.682915 0.191957
O O7 0.945162 0.668190 0.385543
O O8 0.000000 0.679508 0.210301
O O9 0.103496 0.189295 0.500000
O O10 0.148161 0.000000 0.500000
O O11 0.378134 0.283084 0.500000
O O12 0.416795 0.389636 0.671717
O O13 0.000000 0.199075 0.500000
O O14 0.500000 0.500000 0.681963
O O15 0.552053 0.500000 0.500000
#
# Coordination Sequence:
#
# PCOD9520509 Si02
#       6
#    16  16   8  16   8   8
#     4  11  25  46  69  93 127 168 215 273 331 382
#     4  10  21  37  58  88 128 171 211 255 310 378
#     4  10  22  44  67  94 130 163 205 273 330 381
#     4  11  22  38  62  90 123 163 207 259 312 382
#     4  10  19  37  64  93 127 169 214 257 315 389
#     4   9  18  34  58  89 123 161 199 244 301 370
#
# _framework density 18.821216
#
# number of rings (size 3 to 8) (size 9 to 14) (size 15 to 20)
#    0.000    1.667    3.333    1.000    1.556    4.222 
#    0.000    1.111    0.000    0.000    0.000    0.000 
#    0.000    0.000    0.000    0.000    0.000    0.000 
#
# Total GULP energy -200471.817543 kJ/mol
# GULP energy per Si atom -5568.661598 kJ/mol
# Density = 1.877838 g / cm^3
# Si number density = 18.821216 Si / 1000 Ang^3
#
#
#
# Elastic Constant Matrix: (Units=GPa)
#
#
# Indices 1 2 3 4 5 6 
#
# 1 99.9061 73.1342 14.9779 0.0000 0.0000 0.0000
# 2 73.1342 111.5033 28.7455 0.0000 0.0000 0.0000
# 3 14.9779 28.7455 67.6752 0.0000 0.0000 0.0000
# 4 0.0000 0.0000 0.0000 193.0874 0.0000 0.0000
# 5 0.0000 0.0000 0.0000 0.0000 6.2274 0.0000
# 6 0.0000 0.0000 0.0000 0.0000 0.0000 13.4910
#
#
#
# Elastic Compliance Matrix: (Units=1/GPa)
#
#
# Indices 1 2 3 4 5 6 
#
# 1 0.019347 -0.013010 0.001244 0.000000 0.000000 0.000000
# 2 -0.013010 0.018820 -0.005115 0.000000 0.000000 0.000000
# 3 0.001244 -0.005115 0.016674 0.000000 0.000000 0.000000
# 4 0.000000 0.000000 0.000000 0.005179 0.000000 0.000000
# 5 0.000000 0.000000 0.000000 0.000000 0.160581 0.000000
# 6 0.000000 0.000000 0.000000 0.000000 0.000000 0.074124
#
#
# Mechanical properties :
#
#
# Convention : Reuss Voigt Hill
#
# Bulk Modulus (GPa) = 47.43930 56.97774 52.20852
# Shear Modulus (GPa) = 14.90263 53.37628 34.13945
#
# Velocity S-wave (km/s) = 2.81695 5.33115 4.26359
# Velocity P-wave (km/s) = 5.98667 8.26038 7.21367
#
# Compressibility (1/GPa) = 0.02107957
#
# Stress axis : x y z
#
# Youngs Moduli (GPa) = 51.68858 53.13463 59.97537
#
# Poissons Ratio (x) = 0.69129 -0.07463
# Poissons Ratio (y) = 0.67247 0.30675
# Poissons Ratio (z) = -0.06432 0.27176
#
# Static dielectric constant tensor:
#      x y z
#    x 1.684250 0.000000 0.000000 
#    y 0.000000 1.667240 0.000000 
#    z 0.000000 0.000000 1.660580 
# 
# From -- ./inp_files/28398.got.cif
#   From: 2010.05.17/outbox.cif.g08.bks.cpg/sg71_15_cif.got.tgz:28398.got - 2010.06.03 16:22:01.
