data_PCOD9520584
_publ_section_title
;
Structure prediction by ZEFSAII (Michael W. Deem and Ramdas Pophale) SiO2 
 PCOD9520584
Probable space group: I M M M
;
_chemical_formula_sum "Si O2"
_cell_formula_units_Z 56
_cell_length_a 7.946011
_cell_length_b 42.531987
_cell_length_c 7.511588
_cell_angle_alpha 90.000000
_cell_angle_beta 90.000000
_cell_angle_gamma 90.000000
_cell_volume 2538.613550
_symmetry_space_group_name_H-M "I M M M"
_symmetry_group_IT_number 71
_symmetry_cell_setting 'orthorhombic'
loop_
_space_group_symop_operation_xyz
x,y,z
-x,-y,z
x,-y,-z
-x,y,-z
-x,-y,-z
x,y,-z
-x,y,z
x,-y,z
1/2+x,1/2+y,1/2+z
1/2-x,1/2-y,1/2+z
1/2+x,1/2-y,1/2-z
1/2-x,1/2+y,1/2-z
1/2-x,1/2-y,1/2-z
1/2+x,1/2+y,1/2-z
1/2-x,1/2+y,1/2+z
1/2+x,1/2-y,1/2+z
loop_
_atom_site_type_symbol
_atom_site_label
_atom_site_fract_x
_atom_site_fract_y
_atom_site_fract_z
Si Si1 0.694488 0.419714 0.281857
Si Si2 0.799701 0.714962 0.697096
Si Si3 0.000000 0.463910 0.282558
Si Si4 0.798295 0.149204 0.203395
O O1 0.693066 0.418693 0.500000
O O2 0.500000 0.425735 0.228165
O O3 0.749532 0.384727 0.220135
O O4 0.831725 0.445289 0.227301
O O5 0.724162 0.711919 0.500000
O O6 0.750000 0.750000 0.750000
O O7 0.747179 0.682533 0.791231
O O8 0.000000 0.714526 0.692774
O O9 0.000000 0.500000 0.224318
O O10 0.000000 0.463833 0.500000
O O11 0.000000 0.148102 0.193931
O O12 0.728225 0.149653 0.000000
#
# Coordination Sequence:
#
# PCOD9520584 Si02
#       4
#    16  16   8  16
#     4   8  14  23  34  48  67  94 129 168 209 251
#     4  10  20  31  45  65  87 114 147 184 227 271
#     4   9  16  22  30  46  68  96 129 169 213 253
#     4   8  14  25  40  56  74  99 133 175 216 253
#
# _framework density 22.059286
#
# number of rings (size 3 to 8) (size 9 to 14) (size 15 to 20)
#    0.000    3.286    0.000    2.571    2.000    2.286 
#    0.000    2.857    0.000    0.000    0.000    0.000 
#    0.000    0.000    0.000    0.000    0.000    2.857 
#
# Total GULP energy -155944.789097 kJ/mol
# GULP energy per Si atom -5569.456753 kJ/mol
# Density = 2.200908 g / cm^3
# Si number density = 22.059286 Si / 1000 Ang^3
#
#
#
# Elastic Constant Matrix: (Units=GPa)
#
#
# Indices 1 2 3 4 5 6 
#
# 1 93.7366 103.7349 2.8010 0.0007 0.0005 -0.0008
# 2 103.7349 282.1549 16.4099 0.0043 -0.0008 0.0011
# 3 2.8010 16.4099 50.7261 -0.0012 -0.0004 0.0011
# 4 0.0007 0.0043 -0.0012 0.9280 0.0003 -0.0011
# 5 0.0005 -0.0008 -0.0004 0.0003 -3.7889 -0.0001
# 6 -0.0008 0.0011 0.0011 -0.0011 -0.0001 47.9826
#
#
#
# Elastic Compliance Matrix: (Units=1/GPa)
#
#
# Indices 1 2 3 4 5 6 
#
# 1 0.018054 -0.006706 0.001172 0.000019 0.000004 0.000000
# 2 -0.006706 0.006103 -0.001604 -0.000025 -0.000002 0.000000
# 3 0.001172 -0.001604 0.020168 0.000032 -0.000001 0.000000
# 4 0.000019 -0.000025 0.000032 1.077615 0.000076 0.000026
# 5 0.000004 -0.000002 -0.000001 0.000076 -0.263926 -0.000001
# 6 0.000000 0.000000 0.000000 0.000026 -0.000001 0.020841
#
#
# Mechanical properties :
#
#
# Convention : Reuss Voigt Hill
#
# Bulk Modulus (GPa) = 33.27769 74.72322 54.00045
# Shear Modulus (GPa) = 5.53620 29.26911 17.40266
#
# Velocity S-wave (km/s) = 1.58592 3.64653 2.81179
# Velocity P-wave (km/s) = 4.29789 7.18867 5.92236
#
# Compressibility (1/GPa) = 0.03005016
#
# Stress axis : x y z
#
# Youngs Moduli (GPa) = 55.38833 163.85702 49.58378
#
# Poissons Ratio (x) = 1.09881 -0.05813
# Poissons Ratio (y) = 0.37143 0.07953
# Poissons Ratio (z) = -0.06494 0.26282
#
# Static dielectric constant tensor:
#      x y z
#    x 1.744350 0.000000 0.000000 
#    y 0.000000 1.876790 -0.000010 
#    z 0.000000 -0.000010 1.720910 
# 
# From -- ./inp_files/18417.got.cif
#   From: 2010.05.17/outbox.cif.g08.bks.cpg/sg71_10_cif.got.tgz:18417.got - 2010.06.03 16:22:01.
