data_PCOD9520426
_publ_section_title
;
Structure prediction by ZEFSAII (Michael W. Deem and Ramdas Pophale) SiO2 
 PCOD9520426
Probable space group: I M M M
;
_chemical_formula_sum "Si O2"
_cell_formula_units_Z 64
_cell_length_a 8.800751
_cell_length_b 24.200374
_cell_length_c 15.705539
_cell_angle_alpha 90.000000
_cell_angle_beta 90.000000
_cell_angle_gamma 90.000000
_cell_volume 3344.988716
_symmetry_space_group_name_H-M "I M M M"
_symmetry_group_IT_number 71
_symmetry_cell_setting 'orthorhombic'
loop_
_space_group_symop_operation_xyz
x,y,z
-x,-y,z
x,-y,-z
-x,y,-z
-x,-y,-z
x,y,-z
-x,y,z
x,-y,z
1/2+x,1/2+y,1/2+z
1/2-x,1/2-y,1/2+z
1/2+x,1/2-y,1/2-z
1/2-x,1/2+y,1/2-z
1/2-x,1/2-y,1/2-z
1/2+x,1/2+y,1/2-z
1/2-x,1/2+y,1/2+z
1/2+x,1/2-y,1/2+z
loop_
_atom_site_type_symbol
_atom_site_label
_atom_site_fract_x
_atom_site_fract_y
_atom_site_fract_z
Si Si1 0.819005 0.311076 0.748461
Si Si2 0.818276 0.120545 0.403126
Si Si3 0.179673 0.000000 0.331052
Si Si4 0.180311 0.500000 0.354419
Si Si5 0.181134 0.116778 0.903403
O O1 0.750000 0.250000 0.750000
O O2 0.766618 0.343644 0.832802
O O3 0.756091 0.344516 0.667255
O O4 0.000000 0.308572 0.744503
O O5 0.773769 0.133394 0.500000
O O6 0.791979 0.055778 0.383406
O O7 0.000000 0.129818 0.394758
O O8 0.278170 0.000000 0.245674
O O9 0.000000 0.000000 0.306809
O O10 0.252883 0.444748 0.392849
O O11 0.000000 0.500000 0.366939
O O12 0.000000 0.115043 0.889342
O O13 0.209850 0.136069 0.000000
#
# Coordination Sequence:
#
# PCOD9520426 Si02
#       5
#    16  16   8   8  16
#     4  12  26  44  66  91 124 165 211 263 316 371
#     4  10  21  39  65  96 129 167 209 253 306 370
#     4  10  19  35  63  93 129 169 205 247 303 372
#     4  12  23  36  61  97 133 168 205 253 313 375
#     4  11  24  43  67  94 126 166 210 259 316 375
#
# _framework density 19.133098
#
# number of rings (size 3 to 8) (size 9 to 14) (size 15 to 20)
#    0.000    1.000    2.500    4.875    0.000    6.500 
#    0.000    0.000    0.000    2.250    0.000    0.000 
#    0.000    0.000    0.000    0.000    0.000    0.000 
#
# Total GULP energy -179036.709736 kJ/mol
# GULP energy per Si atom -5594.897179 kJ/mol
# Density = 1.908955 g / cm^3
# Si number density = 19.133098 Si / 1000 Ang^3
#
#
#
# Elastic Constant Matrix: (Units=GPa)
#
#
# Indices 1 2 3 4 5 6 
#
# 1 129.0427 79.9697 103.2995 0.0000 0.0000 0.0000
# 2 79.9697 158.9723 86.8156 0.0001 0.0000 0.0000
# 3 103.2995 86.8156 175.8760 0.0002 0.0000 0.0000
# 4 0.0000 0.0001 0.0002 -8.9968 0.0000 0.0000
# 5 0.0000 0.0000 0.0000 0.0000 7.6596 0.0000
# 6 0.0000 0.0000 0.0000 0.0000 0.0000 34.1877
#
#
#
# Elastic Compliance Matrix: (Units=1/GPa)
#
#
# Indices 1 2 3 4 5 6 
#
# 1 0.016356 -0.004082 -0.007592 0.000000 0.000000 0.000000
# 2 -0.004082 0.009631 -0.002356 0.000000 0.000000 0.000000
# 3 -0.007592 -0.002356 0.011308 0.000000 0.000000 0.000000
# 4 0.000000 0.000000 0.000000 -0.111150 0.000000 0.000000
# 5 0.000000 0.000000 0.000000 0.000000 0.130555 0.000000
# 6 0.000000 0.000000 0.000000 0.000000 0.000000 0.029250
#
#
# Mechanical properties :
#
#
# Convention : Reuss Voigt Hill
#
# Bulk Modulus (GPa) = 108.28804 111.56227 109.92515
# Shear Modulus (GPa) = 42.70276 19.49051 31.09664
#
# Velocity S-wave (km/s) = 4.72940 3.19514 4.03585
# Velocity P-wave (km/s) = 9.30285 8.48805 8.90478
#
# Compressibility (1/GPa) = 0.00923463
#
# Stress axis : x y z
#
# Youngs Moduli (GPa) = 61.13828 103.83559 88.43320
#
# Poissons Ratio (x) = 0.42385 0.67137
# Poissons Ratio (y) = 0.24957 0.20838
# Poissons Ratio (z) = 0.46415 0.24467
#
# Static dielectric constant tensor:
#      x y z
#    x 1.638890 0.000000 0.000000 
#    y 0.000000 1.633160 0.000000 
#    z 0.000000 0.000000 1.657310 
# 
# From -- ./inp_files/5502.got.cif
#   From: 2010.05.17/outbox.cif.g08.bks.cpg/sg71_3_cif.got.tgz:5502.got - 2010.06.03 16:22:01.
