data_PCOD9520788
_publ_section_title
;
Structure prediction by ZEFSAII (Michael W. Deem and Ramdas Pophale) SiO2 
 PCOD9520788
Probable space group: I M M M
;
_chemical_formula_sum "Si O2"
_cell_formula_units_Z 104
_cell_length_a 21.922487
_cell_length_b 25.181588
_cell_length_c 10.112907
_cell_angle_alpha 90.000000
_cell_angle_beta 90.000000
_cell_angle_gamma 90.000000
_cell_volume 5582.759879
_symmetry_space_group_name_H-M "I M M M"
_symmetry_group_IT_number 71
_symmetry_cell_setting 'orthorhombic'
loop_
_space_group_symop_operation_xyz
x,y,z
-x,-y,z
x,-y,-z
-x,y,-z
-x,-y,-z
x,y,-z
-x,y,z
x,-y,z
1/2+x,1/2+y,1/2+z
1/2-x,1/2-y,1/2+z
1/2+x,1/2-y,1/2-z
1/2-x,1/2+y,1/2-z
1/2-x,1/2-y,1/2-z
1/2+x,1/2+y,1/2-z
1/2-x,1/2+y,1/2+z
1/2+x,1/2-y,1/2+z
loop_
_atom_site_type_symbol
_atom_site_label
_atom_site_fract_x
_atom_site_fract_y
_atom_site_fract_z
Si Si1 0.569085 0.270588 0.340078
Si Si2 0.737456 0.589937 0.648141
Si Si3 0.000000 0.934790 0.648992
Si Si4 0.791173 0.787747 0.156192
Si Si5 0.432802 0.853142 0.339594
Si Si6 0.403688 0.563149 0.643227
Si Si7 0.338278 0.941120 0.343576
O O1 0.566954 0.274269 0.500000
O O2 0.500000 0.288215 0.295195
O O3 0.636541 0.292965 0.303759
O O4 0.574819 0.208218 0.302157
O O5 0.758976 0.575851 0.500000
O O6 0.737096 0.653502 0.661771
O O7 0.667496 0.572239 0.658015
O O8 0.777118 0.563393 0.760327
O O9 0.057856 0.916663 0.734154
O O10 0.000000 0.915474 0.500000
O O11 0.000000 0.000000 0.643547
O O12 0.750000 0.750000 0.250000
O O13 0.790252 0.770298 0.000000
O O14 0.431518 0.853848 0.500000
O O15 0.500000 0.870751 0.297320
O O16 0.381996 0.894136 0.295093
O O17 0.422629 0.586127 0.500000
O O18 0.415028 0.500000 0.637490
O O19 0.326562 0.933948 0.500000
O O20 0.365454 0.000000 0.327058
#
# Coordination Sequence:
#
# PCOD9520788 Si02
#       7
#    16  16   8  16  16  16  16
#     4   8  14  27  48  73 100 130 166 208 253 301
#     4  10  21  35  50  73 101 133 173 211 253 304
#     4   9  17  29  47  71  95 121 157 201 245 289
#     4  10  20  34  53  78 104 133 171 212 258 308
#     4   8  14  26  46  72 101 131 162 200 249 304
#     4   9  17  31  49  67  92 128 167 204 244 293
#     4  10  20  32  49  75 103 133 171 213 258 306
#
# _framework density 18.628779999999999
#
# number of rings (size 3 to 8) (size 9 to 14) (size 15 to 20)
#    0.000    2.846    0.000    2.538    0.000    4.615 
#    1.385    3.077    0.000    0.923    0.000    5.385 
#    0.000    0.000    0.000    0.000    0.000    0.000 
#
# Total GULP energy -289583.112984 kJ/mol
# GULP energy per Si atom -5568.906019 kJ/mol
# Density = 1.858638 g / cm^3
# Si number density = 18.628780 Si / 1000 Ang^3
#
#
#
# Elastic Constant Matrix: (Units=GPa)
#
#
# Indices 1 2 3 4 5 6 
#
# 1 64.1148 11.8313 24.4860 0.0000 0.0000 0.0000
# 2 11.8313 36.4440 14.5790 0.0000 0.0000 0.0000
# 3 24.4860 14.5790 58.7574 0.0000 0.0000 0.0000
# 4 0.0000 0.0000 0.0000 13.2264 0.0000 0.0000
# 5 0.0000 0.0000 0.0000 0.0000 25.3673 0.0000
# 6 0.0000 0.0000 0.0000 0.0000 0.0000 24.9151
#
#
#
# Elastic Compliance Matrix: (Units=1/GPa)
#
#
# Indices 1 2 3 4 5 6 
#
# 1 0.018903 -0.003314 -0.007055 0.000000 0.000000 0.000000
# 2 -0.003314 0.031044 -0.006321 0.000000 0.000000 0.000000
# 3 -0.007055 -0.006321 0.021528 0.000000 0.000000 0.000000
# 4 0.000000 0.000000 0.000000 0.075606 0.000000 0.000000
# 5 0.000000 0.000000 0.000000 0.000000 0.039421 0.000000
# 6 0.000000 0.000000 0.000000 0.000000 0.000000 0.040136
#
#
# Mechanical properties :
#
#
# Convention : Reuss Voigt Hill
#
# Bulk Modulus (GPa) = 26.25162 29.01208 27.63185
# Shear Modulus (GPa) = 18.33395 19.92976 19.13186
#
# Velocity S-wave (km/s) = 3.14056 3.27439 3.20817
# Velocity P-wave (km/s) = 5.22239 5.46837 5.34679
#
# Compressibility (1/GPa) = 0.03809289
#
# Stress axis : x y z
#
# Youngs Moduli (GPa) = 52.90148 32.21216 46.45176
#
# Poissons Ratio (x) = 0.10676 0.32772
# Poissons Ratio (y) = 0.17534 0.29364
# Poissons Ratio (z) = 0.37323 0.20363
#
# Static dielectric constant tensor:
#      x y z
#    x 1.657170 0.000000 0.000000 
#    y 0.000000 1.685630 0.000000 
#    z 0.000000 0.000000 1.629050 
# 
# From -- ./inp_files/11496.got.cif
#   From: 2010.05.17/outbox.cif.g08.bks.cpg/sg71_6_cif.got.tgz:11496.got - 2010.06.03 16:22:01.
