data_PCOD9520807
_publ_section_title
;
Structure prediction by ZEFSAII (Michael W. Deem and Ramdas Pophale) SiO2 
 PCOD9520807
Probable space group: I M M M
;
_chemical_formula_sum "Si O2"
_cell_formula_units_Z 88
_cell_length_a 21.906631
_cell_length_b 18.536867
_cell_length_c 12.098866
_cell_angle_alpha 90.000000
_cell_angle_beta 90.000000
_cell_angle_gamma 90.000000
_cell_volume 4913.111199
_symmetry_space_group_name_H-M "I M M M"
_symmetry_group_IT_number 71
_symmetry_cell_setting 'orthorhombic'
loop_
_space_group_symop_operation_xyz
x,y,z
-x,-y,z
x,-y,-z
-x,y,-z
-x,-y,-z
x,y,-z
-x,y,z
x,-y,z
1/2+x,1/2+y,1/2+z
1/2-x,1/2-y,1/2+z
1/2+x,1/2-y,1/2-z
1/2-x,1/2+y,1/2-z
1/2-x,1/2-y,1/2-z
1/2+x,1/2+y,1/2-z
1/2-x,1/2+y,1/2+z
1/2+x,1/2-y,1/2+z
loop_
_atom_site_type_symbol
_atom_site_label
_atom_site_fract_x
_atom_site_fract_y
_atom_site_fract_z
Si Si1 0.259165 0.865816 0.690043
Si Si2 0.186164 0.789187 0.127978
Si Si3 0.568912 0.236560 0.246362
Si Si4 0.569219 0.915174 0.000000
Si Si5 0.570967 0.707483 0.000000
Si Si6 0.829343 0.082024 0.500000
Si Si7 0.610943 0.918294 0.757182
O O1 0.225466 0.846814 0.804114
O O2 0.279645 0.788166 0.640346
O O3 0.213462 0.903659 0.606003
O O4 0.320736 0.909928 0.712451
O O5 0.121179 0.778610 0.188021
O O6 0.179708 0.806777 0.000000
O O7 0.500000 0.261355 0.267511
O O8 0.580786 0.248498 0.114447
O O9 0.574352 0.152398 0.282494
O O10 0.606979 0.904781 0.111207
O O11 0.500000 0.881011 0.000000
O O12 0.558156 0.000000 0.000000
O O13 0.616602 0.640273 0.000000
O O14 0.500000 0.685222 0.000000
O O15 0.851644 0.000000 0.500000
O O16 0.588122 0.000000 0.734896
#
# Coordination Sequence:
#
# PCOD9520807 Si02
#       7
#    16  16  16   8   8   8  16
#     4  10  21  35  55  84 113 147 190 234 285 335
#     4  10  20  35  57  81 110 146 190 236 280 335
#     4  10  20  34  56  81 110 148 190 239 282 333
#     4   9  17  29  46  70 105 148 188 223 263 315
#     4  10  21  39  58  85 114 141 191 245 294 341
#     4  12  22  38  63  86 115 147 185 236 295 349
#     4  10  20  32  49  80 117 152 187 225 276 334
#
# _framework density 17.911256999999999
#
# number of rings (size 3 to 8) (size 9 to 14) (size 15 to 20)
#    0.000    1.909    2.727    1.636    1.273    2.364 
#    0.000    0.000    0.000    0.000    0.000    2.545 
#    0.000    2.909    0.000    0.000    0.000    0.000 
#
# Total GULP energy -245257.667696 kJ/mol
# GULP energy per Si atom -5574.037902 kJ/mol
# Density = 1.787049 g / cm^3
# Si number density = 17.911257 Si / 1000 Ang^3
#
#
#
# Elastic Constant Matrix: (Units=GPa)
#
#
# Indices 1 2 3 4 5 6 
#
# 1 84.6186 32.6678 34.7341 0.0000 0.0000 0.0000
# 2 32.6678 69.3195 7.7754 0.0000 0.0000 0.0000
# 3 34.7341 7.7754 91.8571 0.0000 0.0000 0.0000
# 4 0.0000 0.0000 0.0000 13.8724 0.0000 0.0000
# 5 0.0000 0.0000 0.0000 0.0000 24.7284 0.0000
# 6 0.0000 0.0000 0.0000 0.0000 0.0000 9.2497
#
#
#
# Elastic Compliance Matrix: (Units=1/GPa)
#
#
# Indices 1 2 3 4 5 6 
#
# 1 0.017061 -0.007387 -0.005826 0.000000 0.000000 0.000000
# 2 -0.007387 0.017762 0.001290 0.000000 0.000000 0.000000
# 3 -0.005826 0.001290 0.012980 0.000000 0.000000 0.000000
# 4 0.000000 0.000000 0.000000 0.072085 0.000000 0.000000
# 5 0.000000 0.000000 0.000000 0.000000 0.040439 0.000000
# 6 0.000000 0.000000 0.000000 0.000000 0.000000 0.108112
#
#
# Mechanical properties :
#
#
# Convention : Reuss Voigt Hill
#
# Bulk Modulus (GPa) = 41.74074 44.01665 42.87870
# Shear Modulus (GPa) = 16.65154 20.94461 18.79808
#
# Velocity S-wave (km/s) = 3.05236 3.42329 3.24313
# Velocity P-wave (km/s) = 5.98141 6.34456 6.16566
#
# Compressibility (1/GPa) = 0.02395741
#
# Stress axis : x y z
#
# Youngs Moduli (GPa) = 58.61358 56.29870 77.03979
#
# Poissons Ratio (x) = 0.41586 0.44883
# Poissons Ratio (y) = 0.43296 -0.09935
# Poissons Ratio (z) = 0.34148 -0.07260
#
# Static dielectric constant tensor:
#      x y z
#    x 1.602910 0.000000 0.000000 
#    y 0.000000 1.623890 0.000000 
#    z 0.000000 0.000000 1.613290 
# 
# From -- ./inp_files/25701.got.cif
#   From: 2010.05.17/outbox.cif.g08.bks.cpg/sg71_13_cif.got.tgz:25701.got - 2010.06.03 16:22:01.
