data_PCOD9520497
_publ_section_title
;
Structure prediction by ZEFSAII (Michael W. Deem and Ramdas Pophale) SiO2 
 PCOD9520497
Probable space group: I M M M
;
_chemical_formula_sum "Si O2"
_cell_formula_units_Z 120
_cell_length_a 12.801070
_cell_length_b 22.704088
_cell_length_c 23.093190
_cell_angle_alpha 90.000000
_cell_angle_beta 90.000000
_cell_angle_gamma 90.000000
_cell_volume 6711.726681
_symmetry_space_group_name_H-M "I M M M"
_symmetry_group_IT_number 71
_symmetry_cell_setting 'orthorhombic'
loop_
_space_group_symop_operation_xyz
x,y,z
-x,-y,z
x,-y,-z
-x,y,-z
-x,-y,-z
x,y,-z
-x,y,z
x,-y,z
1/2+x,1/2+y,1/2+z
1/2-x,1/2-y,1/2+z
1/2+x,1/2-y,1/2-z
1/2-x,1/2+y,1/2-z
1/2-x,1/2-y,1/2-z
1/2+x,1/2+y,1/2-z
1/2-x,1/2+y,1/2+z
1/2+x,1/2-y,1/2+z
loop_
_atom_site_type_symbol
_atom_site_label
_atom_site_fract_x
_atom_site_fract_y
_atom_site_fract_z
Si Si1 0.376107 0.729469 0.815686
Si Si2 0.375156 0.936924 0.681321
Si Si3 0.250405 0.736535 0.067784
Si Si4 0.000000 0.571440 0.432572
Si Si5 0.381709 0.647254 0.569010
Si Si6 0.720329 0.070359 0.871615
Si Si7 0.625166 0.884852 0.436670
Si Si8 0.228349 0.345762 0.737207
O O1 0.500000 0.727230 0.813690
O O2 0.336017 0.726669 0.882257
O O3 0.325429 0.679776 0.773889
O O4 0.332711 0.790704 0.789865
O O5 0.500000 0.939138 0.682732
O O6 0.341446 0.926393 0.615422
O O7 0.340784 0.881219 0.717310
O O8 0.335422 0.000000 0.703603
O O9 0.182498 0.793852 0.085499
O O10 0.176920 0.679104 0.068909
O O11 0.285435 0.744047 0.000000
O O12 0.893309 0.588218 0.398743
O O13 0.000000 0.500000 0.434407
O O14 0.000000 0.591915 0.500000
O O15 0.389599 0.649777 0.500000
O O16 0.500000 0.646481 0.592975
O O17 0.312089 0.591234 0.585748
O O18 0.745598 0.107283 0.813927
O O19 0.718662 0.000000 0.862945
O O20 0.651187 0.908943 0.500000
O O21 0.500000 0.877829 0.433387
#
# Coordination Sequence:
#
# PCOD9520497 Si02
#       8
#    16  16  16   8  16  16  16  16
#     4  11  24  41  61  86 112 146 190 241 300 355
#     4  10  20  33  55  84 114 151 190 229 276 334
#     4  10  19  37  60  85 113 146 190 241 301 356
#     4   9  20  38  60  86 118 158 201 249 296 336
#     4  10  21  37  58  85 118 153 193 242 293 345
#     4  11  23  38  59  86 118 159 203 241 286 347
#     4   9  17  31  54  84 116 147 182 230 288 345
#     4  11  23  41  56  82 116 150 186 236 288 347
#
# _framework density 17.879155000000001
#
# number of rings (size 3 to 8) (size 9 to 14) (size 15 to 20)
#    0.000    1.800    2.667    1.600    1.867    3.733 
#    0.000    2.000    0.000    1.200    0.000    0.000 
#    0.000    2.133    0.000    0.000    0.000    0.000 
#
# Total GULP energy -334473.593093 kJ/mol
# GULP energy per Si atom -5574.559885 kJ/mol
# Density = 1.783846 g / cm^3
# Si number density = 17.879155 Si / 1000 Ang^3
#
#
#
# Elastic Constant Matrix: (Units=GPa)
#
#
# Indices 1 2 3 4 5 6 
#
# 1 91.4476 25.0916 41.2894 0.0000 0.0000 0.0000
# 2 25.0916 63.1311 19.9020 0.0000 0.0000 0.0000
# 3 41.2894 19.9020 78.5723 0.0000 0.0000 0.0000
# 4 0.0000 0.0000 0.0000 17.4655 0.0000 0.0000
# 5 0.0000 0.0000 0.0000 0.0000 13.0751 0.0000
# 6 0.0000 0.0000 0.0000 0.0000 0.0000 16.5317
#
#
#
# Elastic Compliance Matrix: (Units=1/GPa)
#
#
# Indices 1 2 3 4 5 6 
#
# 1 0.015137 -0.003813 -0.006989 0.000000 0.000000 0.000000
# 2 -0.003813 0.018175 -0.002600 0.000000 0.000000 0.000000
# 3 -0.006989 -0.002600 0.017058 0.000000 0.000000 0.000000
# 4 0.000000 0.000000 0.000000 0.057256 0.000000 0.000000
# 5 0.000000 0.000000 0.000000 0.000000 0.076481 0.000000
# 6 0.000000 0.000000 0.000000 0.000000 0.000000 0.060490
#
#
# Mechanical properties :
#
#
# Convention : Reuss Voigt Hill
#
# Bulk Modulus (GPa) = 42.43202 45.07967 43.75584
# Shear Modulus (GPa) = 17.90472 19.20565 18.55518
#
# Velocity S-wave (km/s) = 3.16797 3.28104 3.22500
# Velocity P-wave (km/s) = 6.09636 6.29459 6.19627
#
# Compressibility (1/GPa) = 0.02356711
#
# Stress axis : x y z
#
# Youngs Moduli (GPa) = 66.06401 55.02010 58.62311
#
# Poissons Ratio (x) = 0.20979 0.40969
# Poissons Ratio (y) = 0.25190 0.15242
# Poissons Ratio (z) = 0.46169 0.14305
#
# Static dielectric constant tensor:
#      x y z
#    x 1.591460 0.000000 0.000000 
#    y 0.000000 1.611670 0.000000 
#    z 0.000000 0.000000 1.677310 
# 
# From -- ./inp_files/26312.got.cif
#   From: 2010.05.17/outbox.cif.g08.bks.cpg/sg71_14_cif.got.tgz:26312.got - 2010.06.03 16:22:01.
