data_PCOD9520658
_publ_section_title
;
Structure prediction by ZEFSAII (Michael W. Deem and Ramdas Pophale) SiO2 
 PCOD9520658
Probable space group: I M M M
;
_chemical_formula_sum "Si O2"
_cell_formula_units_Z 104
_cell_length_a 20.790690
_cell_length_b 24.604905
_cell_length_c 9.649832
_cell_angle_alpha 90.000000
_cell_angle_beta 90.000000
_cell_angle_gamma 90.000000
_cell_volume 4936.400049
_symmetry_space_group_name_H-M "I M M M"
_symmetry_group_IT_number 71
_symmetry_cell_setting 'orthorhombic'
loop_
_space_group_symop_operation_xyz
x,y,z
-x,-y,z
x,-y,-z
-x,y,-z
-x,-y,-z
x,y,-z
-x,y,z
x,-y,z
1/2+x,1/2+y,1/2+z
1/2-x,1/2-y,1/2+z
1/2+x,1/2-y,1/2-z
1/2-x,1/2+y,1/2-z
1/2-x,1/2-y,1/2-z
1/2+x,1/2+y,1/2-z
1/2-x,1/2+y,1/2+z
1/2+x,1/2-y,1/2+z
loop_
_atom_site_type_symbol
_atom_site_label
_atom_site_fract_x
_atom_site_fract_y
_atom_site_fract_z
Si Si1 0.889075 0.940533 0.334920
Si Si2 0.242460 0.336844 0.838627
Si Si3 0.616402 0.221214 0.663223
Si Si4 0.244157 0.060624 0.834589
Si Si5 0.603699 0.321699 0.160281
Si Si6 0.578702 0.000000 0.156932
Si Si7 0.076539 0.599719 0.156184
O O1 0.871416 0.937141 0.500000
O O2 0.826303 0.941324 0.237924
O O3 0.921669 0.882335 0.304803
O O4 0.921240 0.000000 0.317466
O O5 0.192978 0.287838 0.811368
O O6 0.225092 0.387521 0.740666
O O7 0.318209 0.325300 0.824184
O O8 0.233095 0.351778 0.000000
O O9 0.606970 0.230456 0.500000
O O10 0.585946 0.270715 0.746305
O O11 0.588735 0.161858 0.697801
O O12 0.271560 0.000000 0.811042
O O13 0.239648 0.069130 0.000000
O O14 0.588589 0.310861 0.000000
O O15 0.598646 0.053971 0.238040
O O16 0.500000 0.000000 0.152240
O O17 0.602142 0.000000 0.000000
O O18 0.000000 0.592930 0.147497
O O19 0.102441 0.591210 0.000000
#
# Coordination Sequence:
#
# PCOD9520658 Si02
#       7
#    16  16  16  16  16   8  16
#     4   8  14  26  43  61  83 114 150 182 213 254
#     4   9  18  31  43  58  83 118 155 184 217 267
#     4  10  20  32  46  66  89 116 152 186 222 271
#     4   9  16  25  38  57  80 107 143 185 226 260
#     4   9  17  28  44  65  90 120 150 182 222 262
#     4   9  17  31  53  77  95 115 147 189 241 291
#     4   9  18  34  54  72  92 119 152 192 236 282
#
# _framework density 21.067985
#
# number of rings (size 3 to 8) (size 9 to 14) (size 15 to 20)
#    0.000    3.000    0.000    2.077    0.000    5.538 
#    1.385    0.000    0.000    0.000    0.000    0.000 
#    0.000    0.615    0.000    7.692    0.000    0.154 
#
# Total GULP energy -289869.795714 kJ/mol
# GULP energy per Si atom -5574.419148 kJ/mol
# Density = 2.102003 g / cm^3
# Si number density = 21.067985 Si / 1000 Ang^3
#
#
#
# Elastic Constant Matrix: (Units=GPa)
#
#
# Indices 1 2 3 4 5 6 
#
# 1 44.3390 5.8243 11.3748 0.0000 0.0000 0.0000
# 2 5.8243 208.2835 113.5240 0.0000 0.0000 0.0000
# 3 11.3748 113.5240 91.6016 0.0000 0.0000 0.0000
# 4 0.0000 0.0000 0.0000 44.1669 0.0000 0.0000
# 5 0.0000 0.0000 0.0000 0.0000 2.7609 0.0000
# 6 0.0000 0.0000 0.0000 0.0000 0.0000 13.7964
#
#
#
# Elastic Compliance Matrix: (Units=1/GPa)
#
#
# Indices 1 2 3 4 5 6 
#
# 1 0.023858 0.002920 -0.006582 0.000000 0.000000 0.000000
# 2 0.002920 0.015152 -0.019141 0.000000 0.000000 0.000000
# 3 -0.006582 -0.019141 0.035456 0.000000 0.000000 0.000000
# 4 0.000000 0.000000 0.000000 0.022641 0.000000 0.000000
# 5 0.000000 0.000000 0.000000 0.000000 0.362201 0.000000
# 6 0.000000 0.000000 0.000000 0.000000 0.000000 0.072483
#
#
# Mechanical properties :
#
#
# Convention : Reuss Voigt Hill
#
# Bulk Modulus (GPa) = 34.64822 67.29670 50.97246
# Shear Modulus (GPa) = 8.51762 26.37823 17.44793
#
# Velocity S-wave (km/s) = 2.01288 3.54227 2.88092
# Velocity P-wave (km/s) = 4.67802 6.98157 5.94248
#
# Compressibility (1/GPa) = 0.02886151
#
# Stress axis : x y z
#
# Youngs Moduli (GPa) = 41.91402 65.99627 28.20368
#
# Poissons Ratio (x) = -0.19272 0.18563
# Poissons Ratio (y) = -0.12239 0.53985
# Poissons Ratio (z) = 0.27586 1.26325
#
# Static dielectric constant tensor:
#      x y z
#    x 1.812520 0.000000 0.000000 
#    y 0.000000 1.776390 0.000000 
#    z 0.000000 0.000000 1.707690 
# 
# From -- ./inp_files/13290.got.cif
#   From: 2010.05.17/outbox.cif.g08.bks.cpg/sg71_7_cif.got.tgz:13290.got - 2010.06.03 16:22:01.
