data_PCOD9520829
_publ_section_title
;
Structure prediction by ZEFSAII (Michael W. Deem and Ramdas Pophale) SiO2 
 PCOD9520829
Probable space group: I M M M
;
_chemical_formula_sum "Si O2"
_cell_formula_units_Z 112
_cell_length_a 13.182933
_cell_length_b 15.889998
_cell_length_c 24.887936
_cell_angle_alpha 90.000000
_cell_angle_beta 90.000000
_cell_angle_gamma 90.000000
_cell_volume 5213.444669
_symmetry_space_group_name_H-M "I M M M"
_symmetry_group_IT_number 71
_symmetry_cell_setting 'orthorhombic'
loop_
_space_group_symop_operation_xyz
x,y,z
-x,-y,z
x,-y,-z
-x,y,-z
-x,-y,-z
x,y,-z
-x,y,z
x,-y,z
1/2+x,1/2+y,1/2+z
1/2-x,1/2-y,1/2+z
1/2+x,1/2-y,1/2-z
1/2-x,1/2+y,1/2-z
1/2-x,1/2-y,1/2-z
1/2+x,1/2+y,1/2-z
1/2-x,1/2+y,1/2+z
1/2+x,1/2-y,1/2+z
loop_
_atom_site_type_symbol
_atom_site_label
_atom_site_fract_x
_atom_site_fract_y
_atom_site_fract_z
Si Si1 0.380931 0.624076 0.057141
Si Si2 0.785238 0.301617 0.560394
Si Si3 0.879867 0.341035 0.663683
Si Si4 0.623316 0.591203 0.289165
Si Si5 0.122164 0.139553 0.328312
Si Si6 0.623477 0.904992 0.719468
Si Si7 0.378722 0.754644 0.360461
O O1 0.500000 0.603515 0.056231
O O2 0.366434 0.725233 0.057289
O O3 0.340002 0.600092 0.115673
O O4 0.336204 0.594983 0.000000
O O5 0.770995 0.334586 0.500000
O O6 0.825986 0.362390 0.607333
O O7 0.683964 0.258195 0.584854
O O8 0.863410 0.240584 0.672715
O O9 0.846711 0.385563 0.718704
O O10 0.000000 0.354900 0.657488
O O11 0.500000 0.590862 0.287015
O O12 0.654771 0.500000 0.310765
O O13 0.658022 0.601826 0.227606
O O14 0.645935 0.672500 0.324550
O O15 0.000000 0.127659 0.329491
O O16 0.500000 0.898720 0.720793
O O17 0.653053 0.834695 0.675694
O O18 0.648861 0.000000 0.704190
O O19 0.500000 0.758163 0.369457
#
# Coordination Sequence:
#
# PCOD9520829 Si02
#       7
#    16  16  16  16  16  16  16
#     4   8  14  26  46  73 103 135 173 213 257 315
#     4  10  20  32  51  77 105 144 187 225 267 318
#     4   9  16  30  54  80 110 140 170 217 276 333
#     4   9  16  28  48  72 100 135 172 214 267 318
#     4   8  12  22  42  68  96 124 156 200 251 302
#     4   9  17  32  56  84 113 145 180 224 280 333
#     4  10  20  35  54  77 110 145 181 226 270 319
#
# _framework density 21.482917
#
# number of rings (size 3 to 8) (size 9 to 14) (size 15 to 20)
#    0.000    3.000    1.429    1.286    0.000    1.714 
#    0.000    0.714    0.000    2.571    0.000   13.000 
#    0.000    0.000    0.000    1.286    0.000    0.000 
#
# Total GULP energy -312470.909514 kJ/mol
# GULP energy per Si atom -5579.837670 kJ/mol
# Density = 2.143402 g / cm^3
# Si number density = 21.482917 Si / 1000 Ang^3
#
#
#
# Elastic Constant Matrix: (Units=GPa)
#
#
# Indices 1 2 3 4 5 6 
#
# 1 84.6378 12.4354 48.3190 0.0000 0.0000 0.0000
# 2 12.4354 85.8416 47.8754 0.0000 0.0000 0.0000
# 3 48.3190 47.8754 159.3121 0.0000 0.0000 0.0000
# 4 0.0000 0.0000 0.0000 -10.5072 0.0000 0.0000
# 5 0.0000 0.0000 0.0000 0.0000 29.5331 0.0000
# 6 0.0000 0.0000 0.0000 0.0000 0.0000 11.5134
#
#
#
# Elastic Compliance Matrix: (Units=1/GPa)
#
#
# Indices 1 2 3 4 5 6 
#
# 1 0.014302 0.000417 -0.004463 0.000000 0.000000 0.000000
# 2 0.000417 0.014007 -0.004336 0.000000 0.000000 0.000000
# 3 -0.004463 -0.004336 0.008934 0.000000 0.000000 0.000000
# 4 0.000000 0.000000 0.000000 -0.095173 0.000000 0.000000
# 5 0.000000 0.000000 0.000000 0.000000 0.033860 0.000000
# 6 0.000000 0.000000 0.000000 0.000000 0.000000 0.086855
#
#
# Mechanical properties :
#
#
# Convention : Reuss Voigt Hill
#
# Bulk Modulus (GPa) = 48.83022 60.78345 54.80684
# Shear Modulus (GPa) = 57.88718 20.85198 39.36958
#
# Velocity S-wave (km/s) = 5.19655 3.11887 4.28553
# Velocity P-wave (km/s) = 7.66712 6.42846 7.07495
#
# Compressibility (1/GPa) = 0.02047912
#
# Stress axis : x y z
#
# Youngs Moduli (GPa) = 69.92188 71.39228 111.93663
#
# Poissons Ratio (x) = -0.02979 0.49958
# Poissons Ratio (y) = -0.02918 0.48535
# Poissons Ratio (z) = 0.31207 0.30955
#
# Static dielectric constant tensor:
#      x y z
#    x 1.883000 0.000000 0.000000 
#    y 0.000000 1.754650 0.000000 
#    z 0.000000 0.000000 1.800800 
# 
# From -- ./inp_files/59948.got.cif
#   From: 2010.05.17/outbox.cif.g08.bks.cpg/sg71_30_cif.got.tgz:59948.got - 2010.06.03 16:22:01.
