data_PCOD9520393
_publ_section_title
;
Structure prediction by ZEFSAII (Michael W. Deem and Ramdas Pophale) SiO2 
 PCOD9520393
Probable space group: I M M M
;
_chemical_formula_sum "Si O2"
_cell_formula_units_Z 104
_cell_length_a 7.638927
_cell_length_b 23.325300
_cell_length_c 28.204632
_cell_angle_alpha 90.000000
_cell_angle_beta 90.000000
_cell_angle_gamma 90.000000
_cell_volume 5025.508774
_symmetry_space_group_name_H-M "I M M M"
_symmetry_group_IT_number 71
_symmetry_cell_setting 'orthorhombic'
loop_
_space_group_symop_operation_xyz
x,y,z
-x,-y,z
x,-y,-z
-x,y,-z
-x,-y,-z
x,y,-z
-x,y,z
x,-y,z
1/2+x,1/2+y,1/2+z
1/2-x,1/2-y,1/2+z
1/2+x,1/2-y,1/2-z
1/2-x,1/2+y,1/2-z
1/2-x,1/2-y,1/2-z
1/2+x,1/2+y,1/2-z
1/2-x,1/2+y,1/2+z
1/2+x,1/2-y,1/2+z
loop_
_atom_site_type_symbol
_atom_site_label
_atom_site_fract_x
_atom_site_fract_y
_atom_site_fract_z
Si Si1 0.198917 0.162960 0.369089
Si Si2 0.790979 0.232053 0.803029
Si Si3 0.209748 0.935318 0.000000
Si Si4 0.199627 0.398581 0.691663
Si Si5 0.215144 0.752838 0.444717
Si Si6 0.707364 0.868791 0.905189
Si Si7 0.209161 0.564099 0.794918
O O1 0.212014 0.218894 0.335833
O O2 0.276819 0.189304 0.417807
O O3 0.262387 0.110584 0.336368
O O4 0.000000 0.148164 0.380199
O O5 0.750000 0.250000 0.750000
O O6 0.704304 0.170388 0.808056
O O7 0.000000 0.228311 0.810505
O O8 0.270233 0.902641 0.953486
O O9 0.000000 0.935600 0.000000
O O10 0.275327 0.000000 0.000000
O O11 0.281303 0.405695 0.639237
O O12 0.278002 0.418353 0.742194
O O13 0.000000 0.421078 0.690808
O O14 0.265935 0.749672 0.500000
O O15 0.275442 0.695719 0.416170
O O16 0.000000 0.752198 0.443513
O O17 0.500000 0.862760 0.895969
O O18 0.272377 0.500000 0.806764
O O19 0.000000 0.562160 0.789814
#
# Coordination Sequence:
#
# PCOD9520393 Si02
#       7
#    16  16   8  16  16  16  16
#     4  11  21  35  58  86 113 146 188 233 285 341
#     4  12  22  32  51  81 116 149 182 222 273 329
#     4  11  25  41  53  73 111 155 198 243 286 325
#     4  10  20  35  56  84 114 144 183 232 283 336
#     4   9  17  32  56  86 116 141 173 229 290 338
#     4  10  19  35  60  85 109 142 191 237 278 337
#     4  10  22  39  57  79 113 155 192 230 280 339
#
# _framework density 20.694421999999999
#
# number of rings (size 3 to 8) (size 9 to 14) (size 15 to 20)
#    0.000    1.615    3.846    2.077    0.000    2.154 
#    0.000    1.538    0.000    0.462    0.000    3.231 
#    0.000    0.000    0.000    0.000    0.000    0.000 
#
# Total GULP energy -289886.970857 kJ/mol
# GULP energy per Si atom -5574.749440 kJ/mol
# Density = 2.064732 g / cm^3
# Si number density = 20.694422 Si / 1000 Ang^3
#
#
#
# Elastic Constant Matrix: (Units=GPa)
#
#
# Indices 1 2 3 4 5 6 
#
# 1 55.2176 1.2657 5.4409 0.0000 0.0000 0.0000
# 2 1.2657 121.0371 49.0186 0.0000 0.0000 0.0000
# 3 5.4409 49.0186 119.0229 0.0000 0.0000 0.0000
# 4 0.0000 0.0000 0.0000 11.3664 0.0000 0.0000
# 5 0.0000 0.0000 0.0000 0.0000 11.3632 0.0000
# 6 0.0000 0.0000 0.0000 0.0000 0.0000 14.0376
#
#
#
# Elastic Compliance Matrix: (Units=1/GPa)
#
#
# Indices 1 2 3 4 5 6 
#
# 1 0.018195 0.000176 -0.000904 0.000000 0.000000 0.000000
# 2 0.000176 0.009917 -0.004092 0.000000 0.000000 0.000000
# 3 -0.000904 -0.004092 0.010129 0.000000 0.000000 0.000000
# 4 0.000000 0.000000 0.000000 0.087979 0.000000 0.000000
# 5 0.000000 0.000000 0.000000 0.000000 0.088004 0.000000
# 6 0.000000 0.000000 0.000000 0.000000 0.000000 0.071237
#
#
# Mechanical properties :
#
#
# Convention : Reuss Voigt Hill
#
# Bulk Modulus (GPa) = 34.96537 45.19199 40.07868
# Shear Modulus (GPa) = 16.41303 23.32359 19.86831
#
# Velocity S-wave (km/s) = 2.81928 3.36079 3.10188
# Velocity P-wave (km/s) = 5.24695 6.07825 5.67783
#
# Compressibility (1/GPa) = 0.02859972
#
# Stress axis : x y z
#
# Youngs Moduli (GPa) = 54.95949 100.83195 98.73105
#
# Poissons Ratio (x) = -0.01774 0.08927
# Poissons Ratio (y) = -0.00967 0.40405
# Poissons Ratio (z) = 0.04970 0.41265
#
# Static dielectric constant tensor:
#      x y z
#    x 1.788060 0.000000 0.000000 
#    y 0.000000 1.676040 0.000000 
#    z 0.000000 0.000000 1.714210 
# 
# From -- ./inp_files/13264.got.cif
#   From: 2010.05.17/outbox.cif.g08.bks.cpg/sg71_7_cif.got.tgz:13264.got - 2010.06.03 16:22:01.
