data_PCOD9520623
_publ_section_title
;
Structure prediction by ZEFSAII (Michael W. Deem and Ramdas Pophale) SiO2 
 PCOD9520623
Probable space group: I M M M
;
_chemical_formula_sum "Si O2"
_cell_formula_units_Z 72
_cell_length_a 28.698922
_cell_length_b 7.483357
_cell_length_c 16.469815
_cell_angle_alpha 90.000000
_cell_angle_beta 90.000000
_cell_angle_gamma 90.000000
_cell_volume 3537.127941
_symmetry_space_group_name_H-M "I M M M"
_symmetry_group_IT_number 71
_symmetry_cell_setting 'orthorhombic'
loop_
_space_group_symop_operation_xyz
x,y,z
-x,-y,z
x,-y,-z
-x,y,-z
-x,-y,-z
x,y,-z
-x,y,z
x,-y,z
1/2+x,1/2+y,1/2+z
1/2-x,1/2-y,1/2+z
1/2+x,1/2-y,1/2-z
1/2-x,1/2+y,1/2-z
1/2-x,1/2-y,1/2-z
1/2+x,1/2+y,1/2-z
1/2-x,1/2+y,1/2+z
1/2+x,1/2-y,1/2+z
loop_
_atom_site_type_symbol
_atom_site_label
_atom_site_fract_x
_atom_site_fract_y
_atom_site_fract_z
Si Si1 0.943168 0.793088 0.000000
Si Si2 0.553006 0.284315 0.323401
Si Si3 0.691315 0.788017 0.410617
Si Si4 0.801113 0.284128 0.410345
Si Si5 0.645386 0.788557 0.247139
O O1 0.930255 0.714929 0.912424
O O2 0.000000 0.791831 0.000000
O O3 0.928408 0.000000 0.000000
O O4 0.500000 0.223827 0.309234
O O5 0.551669 0.500000 0.329251
O O6 0.590181 0.234696 0.255755
O O7 0.678016 0.715175 0.500000
O O8 0.746809 0.763648 0.400774
O O9 0.666884 0.711975 0.330602
O O10 0.681930 0.000000 0.413120
O O11 0.816062 0.221038 0.500000
O O12 0.803900 0.500000 0.411094
O O13 0.831180 0.216738 0.334526
O O14 0.655620 0.000000 0.247615
#
# Coordination Sequence:
#
# PCOD9520623 Si02
#       5
#     8  16  16  16  16
#     4   7  12  26  45  63  87 119 151 183 219 261
#     4   9  18  32  49  69  94 124 158 194 229 271
#     4   9  18  31  46  68  99 127 151 186 233 283
#     4   9  18  33  50  68  92 123 161 200 233 270
#     4  10  20  31  47  71  97 125 156 193 236 280
#
# _framework density 20.355498000000001
#
# number of rings (size 3 to 8) (size 9 to 14) (size 15 to 20)
#    0.000    3.000    0.000    2.000    1.556    2.222 
#    0.000    0.000    0.000    2.667    0.000    4.667 
#    0.000    0.000    0.000    0.000    0.000    0.000 
#
# Total GULP energy -200842.556516 kJ/mol
# GULP energy per Si atom -5578.959903 kJ/mol
# Density = 2.030917 g / cm^3
# Si number density = 20.355498 Si / 1000 Ang^3
#
#
#
# Elastic Constant Matrix: (Units=GPa)
#
#
# Indices 1 2 3 4 5 6 
#
# 1 86.4286 -5.2597 87.0139 0.0000 0.0000 0.0000
# 2 -5.2597 61.0141 13.7393 0.0000 0.0000 0.0000
# 3 87.0139 13.7393 154.8239 0.0000 0.0000 0.0000
# 4 0.0000 0.0000 0.0000 -8.5582 0.0000 0.0000
# 5 0.0000 0.0000 0.0000 0.0000 28.2491 0.0000
# 6 0.0000 0.0000 0.0000 0.0000 0.0000 16.4103
#
#
#
# Elastic Compliance Matrix: (Units=1/GPa)
#
#
# Indices 1 2 3 4 5 6 
#
# 1 0.028813 0.006255 -0.016748 0.000000 0.000000 0.000000
# 2 0.006255 0.018082 -0.005120 0.000000 0.000000 0.000000
# 3 -0.016748 -0.005120 0.016326 0.000000 0.000000 0.000000
# 4 0.000000 0.000000 0.000000 -0.116847 0.000000 0.000000
# 5 0.000000 0.000000 0.000000 0.000000 0.035399 0.000000
# 6 0.000000 0.000000 0.000000 0.000000 0.000000 0.060937
#
#
# Mechanical properties :
#
#
# Convention : Reuss Voigt Hill
#
# Bulk Modulus (GPa) = 31.25572 54.80597 43.03084
# Shear Modulus (GPa) = 59.10051 21.00512 40.05281
#
# Velocity S-wave (km/s) = 5.39418 3.21583 4.44065
# Velocity P-wave (km/s) = 7.36101 6.38526 6.89043
#
# Compressibility (1/GPa) = 0.03199415
#
# Stress axis : x y z
#
# Youngs Moduli (GPa) = 34.70694 55.30409 61.25121
#
# Poissons Ratio (x) = -0.34594 1.02586
# Poissons Ratio (y) = -0.21710 0.31362
# Poissons Ratio (z) = 0.58128 0.28317
#
# Static dielectric constant tensor:
#      x y z
#    x 1.711140 0.000000 0.000000 
#    y 0.000000 1.764970 0.000000 
#    z 0.000000 0.000000 1.758410 
# 
# From -- ./inp_files/6045.got.cif
#   From: 2010.05.17/outbox.cif.g08.bks.cpg/sg71_4_cif.got.tgz:6045.got - 2010.06.03 16:22:01.
