data_PCOD9520967
_publ_section_title
;
Structure prediction by ZEFSAII (Michael W. Deem and Ramdas Pophale) SiO2 
 PCOD9520967
Probable space group: I M M M
;
_chemical_formula_sum "Si O2"
_cell_formula_units_Z 72
_cell_length_a 9.185591
_cell_length_b 16.723753
_cell_length_c 28.573640
_cell_angle_alpha 90.000000
_cell_angle_beta 90.000000
_cell_angle_gamma 90.000000
_cell_volume 4389.412715
_symmetry_space_group_name_H-M "I M M M"
_symmetry_group_IT_number 71
_symmetry_cell_setting 'orthorhombic'
loop_
_space_group_symop_operation_xyz
x,y,z
-x,-y,z
x,-y,-z
-x,y,-z
-x,-y,-z
x,y,-z
-x,y,z
x,-y,z
1/2+x,1/2+y,1/2+z
1/2-x,1/2-y,1/2+z
1/2+x,1/2-y,1/2-z
1/2-x,1/2+y,1/2-z
1/2-x,1/2-y,1/2-z
1/2+x,1/2+y,1/2-z
1/2-x,1/2+y,1/2+z
1/2+x,1/2-y,1/2+z
loop_
_atom_site_type_symbol
_atom_site_label
_atom_site_fract_x
_atom_site_fract_y
_atom_site_fract_z
Si Si1 0.826702 0.410506 0.305945
Si Si2 0.326964 0.836047 0.555252
Si Si3 0.326678 0.327116 0.772765
Si Si4 0.666186 0.500000 0.056773
Si Si5 0.326707 0.755216 0.866577
O O1 0.800480 0.500000 0.324043
O O2 0.743436 0.398189 0.256888
O O3 0.785779 0.339480 0.341885
O O4 0.000000 0.401070 0.297493
O O5 0.297485 0.823260 0.500000
O O6 0.500000 0.842502 0.561269
O O7 0.261150 0.766667 0.587336
O O8 0.250250 0.919263 0.569729
O O9 0.500000 0.324617 0.765591
O O10 0.250000 0.250000 0.750000
O O11 0.300328 0.314512 0.827836
O O12 0.500000 0.500000 0.074162
O O13 0.661577 0.500000 0.000000
O O14 0.500000 0.757459 0.875882
#
# Coordination Sequence:
#
# PCOD9520967 Si02
#       5
#    16  16  16   8  16
#     4   9  18  33  52  74 101 132 166 205 247 292
#     4  10  20  33  50  73 100 129 164 205 247 293
#     4   9  17  30  48  70  96 126 160 199 241 287
#     4   9  17  31  51  71  93 123 157 195 241 291
#     4   9  18  32  50  72  98 131 167 203 244 291
#
# _framework density 16.403106000000001
#
# number of rings (size 3 to 8) (size 9 to 14) (size 15 to 20)
#    0.000    2.778    0.000    3.000    0.000    7.556 
#    2.000    0.000    0.000    0.667    0.000    4.667 
#    0.000    0.000    0.000    0.000    0.000    0.000 
#
# Total GULP energy -200452.399252 kJ/mol
# GULP energy per Si atom -5568.122201 kJ/mol
# Density = 1.636577 g / cm^3
# Si number density = 16.403106 Si / 1000 Ang^3
#
#
#
# Elastic Constant Matrix: (Units=GPa)
#
#
# Indices 1 2 3 4 5 6 
#
# 1 61.8950 41.2658 55.2226 0.0000 0.0000 0.0000
# 2 41.2658 98.1773 50.2031 0.0000 0.0000 0.0000
# 3 55.2226 50.2031 78.2815 0.0000 0.0000 0.0000
# 4 0.0000 0.0000 0.0000 23.2688 0.0000 0.0000
# 5 0.0000 0.0000 0.0000 0.0000 28.1046 0.0000
# 6 0.0000 0.0000 0.0000 0.0000 0.0000 22.9471
#
#
#
# Elastic Compliance Matrix: (Units=1/GPa)
#
#
# Indices 1 2 3 4 5 6 
#
# 1 0.044603 -0.003955 -0.028928 0.000000 0.000000 0.000000
# 2 -0.003955 0.015507 -0.007155 0.000000 0.000000 0.000000
# 3 -0.028928 -0.007155 0.037770 0.000000 0.000000 0.000000
# 4 0.000000 0.000000 0.000000 0.042976 0.000000 0.000000
# 5 0.000000 0.000000 0.000000 0.000000 0.035581 0.000000
# 6 0.000000 0.000000 0.000000 0.000000 0.000000 0.043578
#
#
# Mechanical properties :
#
#
# Convention : Reuss Voigt Hill
#
# Bulk Modulus (GPa) = 56.16798 59.08187 57.62493
# Shear Modulus (GPa) = 16.33859 20.97492 18.65675
#
# Velocity S-wave (km/s) = 3.15948 3.57979 3.37618
# Velocity P-wave (km/s) = 6.90118 7.29270 7.09964
#
# Compressibility (1/GPa) = 0.01780374
#
# Stress axis : x y z
#
# Youngs Moduli (GPa) = 22.42020 64.48904 26.47639
#
# Poissons Ratio (x) = 0.25505 0.76591
# Poissons Ratio (y) = 0.08867 0.18943
# Poissons Ratio (z) = 0.64857 0.46139
#
# Static dielectric constant tensor:
#      x y z
#    x 1.547500 0.000000 0.000000 
#    y 0.000000 1.578990 0.000000 
#    z 0.000000 0.000000 1.559370 
# 
# From -- ./inp_files/7945.got.cif
#   From: 2010.05.17/outbox.cif.g08.bks.cpg/sg71_4_cif.got.tgz:7945.got - 2010.06.03 16:22:01.
