data_PCOD9520038
_publ_section_title
;
Structure prediction by ZEFSAII (Michael W. Deem and Ramdas Pophale) SiO2 
 PCOD9520038
Probable space group: I M M M
;
_chemical_formula_sum "Si O2"
_cell_formula_units_Z 112
_cell_length_a 27.237255
_cell_length_b 19.663638
_cell_length_c 12.706587
_cell_angle_alpha 90.000000
_cell_angle_beta 90.000000
_cell_angle_gamma 90.000000
_cell_volume 6805.438624
_symmetry_space_group_name_H-M "I M M M"
_symmetry_group_IT_number 71
_symmetry_cell_setting 'orthorhombic'
loop_
_space_group_symop_operation_xyz
x,y,z
-x,-y,z
x,-y,-z
-x,y,-z
-x,-y,-z
x,y,-z
-x,y,z
x,-y,z
1/2+x,1/2+y,1/2+z
1/2-x,1/2-y,1/2+z
1/2+x,1/2-y,1/2-z
1/2-x,1/2+y,1/2-z
1/2-x,1/2-y,1/2-z
1/2+x,1/2+y,1/2-z
1/2-x,1/2+y,1/2+z
1/2+x,1/2-y,1/2+z
loop_
_atom_site_type_symbol
_atom_site_label
_atom_site_fract_x
_atom_site_fract_y
_atom_site_fract_z
Si Si1 0.814969 0.576985 0.621435
Si Si2 0.801133 0.263698 0.876151
Si Si3 0.113174 0.680191 0.728937
Si Si4 0.943245 0.806039 0.626647
Si Si5 0.769289 0.136825 0.742585
Si Si6 0.635963 0.420752 0.125656
Si Si7 0.059009 0.577909 0.880487
O O1 0.799085 0.584872 0.500000
O O2 0.834422 0.500000 0.633668
O O3 0.854966 0.634381 0.648843
O O4 0.770109 0.587862 0.702068
O O5 0.848431 0.285645 0.809267
O O6 0.785199 0.190507 0.832134
O O7 0.758758 0.317642 0.844774
O O8 0.809565 0.263373 0.000000
O O9 0.081540 0.738624 0.673993
O O10 0.080237 0.629051 0.796314
O O11 0.943046 0.800497 0.500000
O O12 0.908992 0.870652 0.653755
O O13 0.000000 0.813454 0.660678
O O14 0.815878 0.100859 0.690563
O O15 0.624377 0.500000 0.144227
O O16 0.645386 0.412574 0.000000
O O17 0.074583 0.500000 0.860128
O O18 0.000000 0.579343 0.878258
O O19 0.074616 0.595447 0.000000
#
# Coordination Sequence:
#
# PCOD9520038 Si02
#       7
#    16  16  16  16  16  16  16
#     4  10  21  34  50  74 105 141 178 212 247 297
#     4  10  20  31  49  77 105 133 169 209 252 301
#     4  11  19  33  52  75 103 137 173 212 257 305
#     4  10  21  36  54  78 105 133 170 216 266 317
#     4  10  19  34  51  75 104 140 168 208 254 303
#     4  10  20  35  56  80 105 134 169 212 263 317
#     4   9  18  32  50  73 101 134 173 217 262 306
#
# _framework density 16.457426999999999
#
# number of rings (size 3 to 8) (size 9 to 14) (size 15 to 20)
#    0.000    2.000    1.429    3.429    0.000    0.286 
#    0.000    1.429    0.000    6.857    0.000    6.000 
#    0.000    1.143    0.000    0.000    0.000    0.000 
#
# Total GULP energy -312395.715653 kJ/mol
# GULP energy per Si atom -5578.494922 kJ/mol
# Density = 1.641997 g / cm^3
# Si number density = 16.457427 Si / 1000 Ang^3
#
#
#
# Elastic Constant Matrix: (Units=GPa)
#
#
# Indices 1 2 3 4 5 6 
#
# 1 101.6281 57.6744 31.3026 0.0000 0.0000 0.0000
# 2 57.6744 108.8603 37.4609 0.0000 0.0000 0.0000
# 3 31.3026 37.4609 56.0196 0.0000 0.0000 0.0000
# 4 0.0000 0.0000 0.0000 26.5870 0.0000 0.0000
# 5 0.0000 0.0000 0.0000 0.0000 477.9975 0.0000
# 6 0.0000 0.0000 0.0000 0.0000 0.0000 27.2170
#
#
#
# Elastic Compliance Matrix: (Units=1/GPa)
#
#
# Indices 1 2 3 4 5 6 
#
# 1 0.014700 -0.006444 -0.003904 0.000000 0.000000 0.000000
# 2 -0.006444 0.014757 -0.006267 0.000000 0.000000 0.000000
# 3 -0.003904 -0.006267 0.024224 0.000000 0.000000 0.000000
# 4 0.000000 0.000000 0.000000 0.037612 0.000000 0.000000
# 5 0.000000 0.000000 0.000000 0.000000 0.002092 0.000000
# 6 0.000000 0.000000 0.000000 0.000000 0.000000 0.036742
#
#
# Mechanical properties :
#
#
# Convention : Reuss Voigt Hill
#
# Bulk Modulus (GPa) = 48.90403 57.70933 53.30668
# Shear Modulus (GPa) = 29.38166 115.69831 72.53998
#
# Velocity S-wave (km/s) = 4.22988 8.39370 6.64628
# Velocity P-wave (km/s) = 7.32365 11.36138 9.55816
#
# Compressibility (1/GPa) = 0.02044821
#
# Stress axis : x y z
#
# Youngs Moduli (GPa) = 68.02922 67.76470 41.28208
#
# Poissons Ratio (x) = 0.43669 0.16118
# Poissons Ratio (y) = 0.43840 0.25872
# Poissons Ratio (z) = 0.26562 0.42470
#
# Static dielectric constant tensor:
#      x y z
#    x 1.550880 0.000000 0.000000 
#    y 0.000000 1.549600 0.000000 
#    z 0.000000 0.000000 1.528840 
# 
# From -- ./inp_files/27653.got.cif
#   From: 2010.05.17/outbox.cif.g08.bks.cpg/sg71_14_cif.got.tgz:27653.got - 2010.06.03 16:22:01.
