data_PCOD9520017
_publ_section_title
;
Structure prediction by ZEFSAII (Michael W. Deem and Ramdas Pophale) SiO2 
 PCOD9520017
Probable space group: I M M M
;
_chemical_formula_sum "Si O2"
_cell_formula_units_Z 108
_cell_length_a 14.433448
_cell_length_b 16.355712
_cell_length_c 20.491161
_cell_angle_alpha 90.000000
_cell_angle_beta 90.000000
_cell_angle_gamma 90.000000
_cell_volume 4837.334416
_symmetry_space_group_name_H-M "I M M M"
_symmetry_group_IT_number 71
_symmetry_cell_setting 'orthorhombic'
loop_
_space_group_symop_operation_xyz
x,y,z
-x,-y,z
x,-y,-z
-x,y,-z
-x,-y,-z
x,y,-z
-x,y,z
x,-y,z
1/2+x,1/2+y,1/2+z
1/2-x,1/2-y,1/2+z
1/2+x,1/2-y,1/2-z
1/2-x,1/2+y,1/2-z
1/2-x,1/2-y,1/2-z
1/2+x,1/2+y,1/2-z
1/2-x,1/2+y,1/2+z
1/2+x,1/2-y,1/2+z
loop_
_atom_site_type_symbol
_atom_site_label
_atom_site_fract_x
_atom_site_fract_y
_atom_site_fract_z
Si Si1 0.894637 0.669232 0.754008
Si Si2 0.603585 0.669773 0.345142
Si Si3 0.847477 0.000000 0.500000
Si Si4 0.199972 0.152893 0.407540
Si Si5 0.602723 0.000000 0.077245
Si Si6 0.394808 0.093703 0.613629
Si Si7 0.198588 0.331348 0.384005
Si Si8 0.896861 0.905875 0.287867
O O1 0.888846 0.748171 0.801104
O O2 0.883657 0.597935 0.807663
O O3 0.826117 0.673833 0.693441
O O4 0.000000 0.665546 0.727835
O O5 0.500000 0.666590 0.373189
O O6 0.690653 0.664907 0.391705
O O7 0.613959 0.601506 0.289289
O O8 0.844616 0.075066 0.555579
O O9 0.310322 0.143107 0.417383
O O10 0.168302 0.246308 0.418946
O O11 0.177720 0.139867 0.331109
O O12 0.653335 0.915880 0.094929
O O13 0.500000 0.000000 0.107703
O O14 0.594670 0.000000 0.000000
O O15 0.500000 0.121631 0.599101
O O16 0.385536 0.000000 0.591630
O O17 0.000000 0.872315 0.303576
O O18 0.894270 0.000000 0.305660
#
# Coordination Sequence:
#
# PCOD9520017 Si02
#       8
#    16  16   4  16   8  16  16  16
#     4  10  19  33  57  98 137 169 214 260 317 400
#     4  10  20  35  59 101 142 169 206 251 315 403
#     4  12  28  44  64  92 124 160 224 284 306 364
#     4  12  23  41  63  89 125 170 221 272 320 371
#     4  11  30  56  72  92 120 160 229 293 330 375
#     4  10  20  35  58  91 137 179 207 253 321 389
#     4  12  24  40  71  94 127 177 217 266 329 389
#     4  10  20  35  57  87 131 172 201 247 317 392
#
# _framework density 22.326346000000001
#
# number of rings (size 3 to 8) (size 9 to 14) (size 15 to 20)
#    0.000    1.259    4.444    1.778    3.111    0.593 
#    0.000    1.481    0.000    0.889    0.000    0.000 
#    0.000    0.000    0.000    0.000    0.000    0.000 
#
# Total GULP energy -300866.508214 kJ/mol
# GULP energy per Si atom -5571.602004 kJ/mol
# Density = 2.227553 g / cm^3
# Si number density = 22.326346 Si / 1000 Ang^3
#
#
#
# Elastic Constant Matrix: (Units=GPa)
#
#
# Indices 1 2 3 4 5 6 
#
# 1 92.7947 41.3825 -5.3817 0.0000 0.0000 0.0000
# 2 41.3825 168.3177 24.9249 0.0000 0.0000 0.0000
# 3 -5.3817 24.9249 25.1720 0.0000 0.0000 0.0000
# 4 0.0000 0.0000 0.0000 25.3814 0.0000 0.0000
# 5 0.0000 0.0000 0.0000 0.0000 -31.4646 0.0000
# 6 0.0000 0.0000 0.0000 0.0000 0.0000 18.7275
#
#
#
# Elastic Compliance Matrix: (Units=1/GPa)
#
#
# Indices 1 2 3 4 5 6 
#
# 1 0.013080 -0.004254 0.007008 0.000000 0.000000 0.000000
# 2 -0.004254 0.008345 -0.009173 0.000000 0.000000 0.000000
# 3 0.007008 -0.009173 0.050308 0.000000 0.000000 0.000000
# 4 0.000000 0.000000 0.000000 0.039399 0.000000 0.000000
# 5 0.000000 0.000000 0.000000 0.000000 -0.031782 0.000000
# 6 0.000000 0.000000 0.000000 0.000000 0.000000 0.053397
#
#
# Mechanical properties :
#
#
# Convention : Reuss Voigt Hill
#
# Bulk Modulus (GPa) = 16.97885 45.34844 31.16364
# Shear Modulus (GPa) = 30.26344 17.55279 23.90811
#
# Velocity S-wave (km/s) = 3.68571 2.80695 3.27593
# Velocity P-wave (km/s) = 5.07287 5.55527 5.31954
#
# Compressibility (1/GPa) = 0.05889681
#
# Stress axis : x y z
#
# Youngs Moduli (GPa) = 76.45339 119.82838 19.87761
#
# Poissons Ratio (x) = 0.50970 -0.13931
# Poissons Ratio (y) = 0.32520 0.18233
# Poissons Ratio (z) = -0.53581 1.09916
#
# Static dielectric constant tensor:
#      x y z
#    x 1.901600 0.000000 0.000000 
#    y 0.000000 1.890850 0.000000 
#    z 0.000000 0.000000 1.831810 
# 
# From -- ./inp_files/59959.got.cif
#   From: 2010.05.17/outbox.cif.g08.bks.cpg/sg71_30_cif.got.tgz:59959.got - 2010.06.03 16:22:01.
