data_PCOD9520608
_publ_section_title
;
Structure prediction by ZEFSAII (Michael W. Deem and Ramdas Pophale) SiO2 
 PCOD9520608
Probable space group: I M M M
;
_chemical_formula_sum "Si O2"
_cell_formula_units_Z 88
_cell_length_a 21.220947
_cell_length_b 9.344049
_cell_length_c 24.587563
_cell_angle_alpha 90.000000
_cell_angle_beta 90.000000
_cell_angle_gamma 90.000000
_cell_volume 4875.457260
_symmetry_space_group_name_H-M "I M M M"
_symmetry_group_IT_number 71
_symmetry_cell_setting 'orthorhombic'
loop_
_space_group_symop_operation_xyz
x,y,z
-x,-y,z
x,-y,-z
-x,y,-z
-x,-y,-z
x,y,-z
-x,y,z
x,-y,z
1/2+x,1/2+y,1/2+z
1/2-x,1/2-y,1/2+z
1/2+x,1/2-y,1/2-z
1/2-x,1/2+y,1/2-z
1/2-x,1/2-y,1/2-z
1/2+x,1/2+y,1/2-z
1/2-x,1/2+y,1/2+z
1/2+x,1/2-y,1/2+z
loop_
_atom_site_type_symbol
_atom_site_label
_atom_site_fract_x
_atom_site_fract_y
_atom_site_fract_z
Si Si1 0.237717 0.665715 0.588920
Si Si2 0.878410 0.836684 0.934549
Si Si3 0.070856 0.671971 0.668680
Si Si4 0.500000 0.836489 0.433460
Si Si5 0.699871 0.163314 0.784827
Si Si6 0.613967 0.328866 0.060687
O O1 0.232973 0.500000 0.569078
O O2 0.308764 0.716778 0.579499
O O3 0.223737 0.663220 0.652985
O O4 0.184838 0.765437 0.562782
O O5 0.936807 0.743199 0.915014
O O6 0.883911 0.000000 0.914445
O O7 0.882193 0.840842 0.000000
O O8 0.078888 0.500000 0.660127
O O9 0.127650 0.717376 0.708849
O O10 0.079654 0.750531 0.610740
O O11 0.000000 0.697241 0.688895
O O12 0.500000 0.834121 0.500000
O O13 0.500000 0.000000 0.416099
O O14 0.750000 0.250000 0.750000
O O15 0.697956 0.000000 0.764686
O O16 0.613931 0.500000 0.068865
O O17 0.587994 0.299839 0.000000
#
# Coordination Sequence:
#
# PCOD9520608 Si02
#       6
#    16  16  16   8  16  16
#     4   9  18  32  50  71  94 126 168 208 244 290
#     4   9  16  27  45  66  88 120 161 199 235 279
#     4   9  19  36  56  76  99 133 176 214 247 293
#     4   9  17  27  39  59  89 123 155 189 233 285
#     4   9  18  33  54  77  98 123 159 205 254 302
#     4  10  20  31  45  72 109 141 167 201 247 295
#
# _framework density 18.049588
#
# number of rings (size 3 to 8) (size 9 to 14) (size 15 to 20)
#    0.000    2.818    0.000    2.455    0.000    7.636 
#    0.000    3.636    2.000    0.000    0.000    0.000 
#    0.000    0.000    0.000    0.000    0.000    0.000 
#
# Total GULP energy -245138.193821 kJ/mol
# GULP energy per Si atom -5571.322587 kJ/mol
# Density = 1.800851 g / cm^3
# Si number density = 18.049588 Si / 1000 Ang^3
#
#
#
# Elastic Constant Matrix: (Units=GPa)
#
#
# Indices 1 2 3 4 5 6 
#
# 1 145.8185 39.5319 23.3765 0.0000 0.0000 0.0000
# 2 39.5319 42.6087 15.7092 0.0000 0.0000 0.0000
# 3 23.3765 15.7092 39.0821 0.0000 0.0000 0.0000
# 4 0.0000 0.0000 0.0000 20.7787 0.0000 0.0000
# 5 0.0000 0.0000 0.0000 0.0000 9.2066 0.0000
# 6 0.0000 0.0000 0.0000 0.0000 0.0000 18.7077
#
#
#
# Elastic Compliance Matrix: (Units=1/GPa)
#
#
# Indices 1 2 3 4 5 6 
#
# 1 0.009362 -0.007773 -0.002475 0.000000 0.000000 0.000000
# 2 -0.007773 0.034007 -0.009020 0.000000 0.000000 0.000000
# 3 -0.002475 -0.009020 0.030693 0.000000 0.000000 0.000000
# 4 0.000000 0.000000 0.000000 0.048126 0.000000 0.000000
# 5 0.000000 0.000000 0.000000 0.000000 0.108618 0.000000
# 6 0.000000 0.000000 0.000000 0.000000 0.000000 0.053454
#
#
# Mechanical properties :
#
#
# Convention : Reuss Voigt Hill
#
# Bulk Modulus (GPa) = 28.14876 42.74939 35.44908
# Shear Modulus (GPa) = 14.94149 19.66470 17.30309
#
# Velocity S-wave (km/s) = 2.88028 3.30431 3.09955
# Velocity P-wave (km/s) = 5.16628 6.18820 5.70018
#
# Compressibility (1/GPa) = 0.03552554
#
# Stress axis : x y z
#
# Youngs Moduli (GPa) = 106.81409 29.40581 32.58058
#
# Poissons Ratio (x) = 0.22858 0.08064
# Poissons Ratio (y) = 0.83031 0.29386
# Poissons Ratio (z) = 0.26439 0.26523
#
# Static dielectric constant tensor:
#      x y z
#    x 1.645060 0.000000 0.000000 
#    y 0.000000 1.617870 0.000000 
#    z 0.000000 0.000000 1.605720 
# 
# From -- ./inp_files/66324.got.cif
#   From: 2010.05.17/outbox.cif.g08.bks.cpg/sg71_34_cif.got.tgz:66324.got - 2010.06.03 16:22:01.
