data_PCOD9520341
_publ_section_title
;
Structure prediction by ZEFSAII (Michael W. Deem and Ramdas Pophale) SiO2 
 PCOD9520341
Probable space group: I M M M
;
_chemical_formula_sum "Si O2"
_cell_formula_units_Z 80
_cell_length_a 24.308839
_cell_length_b 11.401028
_cell_length_c 17.177545
_cell_angle_alpha 90.000000
_cell_angle_beta 90.000000
_cell_angle_gamma 90.000000
_cell_volume 4760.683662
_symmetry_space_group_name_H-M "I M M M"
_symmetry_group_IT_number 71
_symmetry_cell_setting 'orthorhombic'
loop_
_space_group_symop_operation_xyz
x,y,z
-x,-y,z
x,-y,-z
-x,y,-z
-x,-y,-z
x,y,-z
-x,y,z
x,-y,z
1/2+x,1/2+y,1/2+z
1/2-x,1/2-y,1/2+z
1/2+x,1/2-y,1/2-z
1/2-x,1/2+y,1/2-z
1/2-x,1/2-y,1/2-z
1/2+x,1/2+y,1/2-z
1/2-x,1/2+y,1/2+z
1/2+x,1/2-y,1/2+z
loop_
_atom_site_type_symbol
_atom_site_label
_atom_site_fract_x
_atom_site_fract_y
_atom_site_fract_z
Si Si1 0.131693 0.231505 0.870074
Si Si2 0.562166 0.857720 0.087506
Si Si3 0.249862 0.640943 0.413777
Si Si4 0.936948 0.639402 0.000000
Si Si5 0.934052 0.000000 0.094395
Si Si6 0.843802 0.357828 0.707895
O O1 0.190382 0.197677 0.906953
O O2 0.096492 0.316701 0.925181
O O3 0.095028 0.113614 0.868616
O O4 0.146301 0.291605 0.788331
O O5 0.500000 0.820204 0.105646
O O6 0.605919 0.824370 0.151437
O O7 0.562235 0.000000 0.085743
O O8 0.576144 0.818530 0.000000
O O9 0.226059 0.667860 0.500000
O O10 0.256035 0.500000 0.410227
O O11 0.210648 0.673973 0.341762
O O12 0.939576 0.500000 0.000000
O O13 0.000000 0.686384 0.000000
O O14 0.000000 0.000000 0.105022
O O15 0.923627 0.000000 0.000000
O O16 0.843533 0.500000 0.719211
#
# Coordination Sequence:
#
# PCOD9520341 Si02
#       6
#    16  16  16   8   8  16
#     4  12  21  37  56  80 111 145 185 235 280 331
#     4   8  14  27  47  72 104 140 175 213 262 325
#     4  10  19  35  58  82 108 146 189 231 275 324
#     4  11  24  39  57  81 113 150 184 223 284 354
#     4  11  22  38  60  82 103 145 200 242 274 321
#     4  10  21  33  52  83 116 145 178 226 284 340
#
# _framework density 16.804309
#
# number of rings (size 3 to 8) (size 9 to 14) (size 15 to 20)
#    0.000    1.800    3.000    3.000    0.000    4.000 
#    0.000    2.000    0.000    0.000    0.000    2.100 
#    0.000    4.800    0.000    0.000    0.000    0.000 
#
# Total GULP energy -223019.574597 kJ/mol
# GULP energy per Si atom -5575.489365 kJ/mol
# Density = 1.676606 g / cm^3
# Si number density = 16.804309 Si / 1000 Ang^3
#
#
#
# Elastic Constant Matrix: (Units=GPa)
#
#
# Indices 1 2 3 4 5 6 
#
# 1 119.2607 38.0961 80.1891 0.0000 0.0000 0.0000
# 2 38.0961 57.3952 41.5292 0.0000 0.0000 0.0000
# 3 80.1891 41.5292 127.6594 0.0000 0.0000 0.0000
# 4 0.0000 0.0000 0.0000 10.1719 0.0000 0.0000
# 5 0.0000 0.0000 0.0000 0.0000 -7.6414 0.0000
# 6 0.0000 0.0000 0.0000 0.0000 0.0000 15.8819
#
#
#
# Elastic Compliance Matrix: (Units=1/GPa)
#
#
# Indices 1 2 3 4 5 6 
#
# 1 0.015243 -0.004171 -0.008218 0.000000 0.000000 0.000000
# 2 -0.004171 0.023928 -0.005164 0.000000 0.000000 0.000000
# 3 -0.008218 -0.005164 0.014675 0.000000 0.000000 0.000000
# 4 0.000000 0.000000 0.000000 0.098310 0.000000 0.000000
# 5 0.000000 0.000000 0.000000 0.000000 -0.130866 0.000000
# 6 0.000000 0.000000 0.000000 0.000000 0.000000 0.062965
#
#
# Mechanical properties :
#
#
# Convention : Reuss Voigt Hill
#
# Bulk Modulus (GPa) = 53.36121 69.32712 61.34417
# Shear Modulus (GPa) = 39.80623 13.31588 26.56105
#
# Velocity S-wave (km/s) = 4.87232 2.81803 3.98000
# Velocity P-wave (km/s) = 7.96719 7.20649 7.59637
#
# Compressibility (1/GPa) = 0.01874020
#
# Stress axis : x y z
#
# Youngs Moduli (GPa) = 65.60351 41.79158 68.14169
#
# Poissons Ratio (x) = 0.17433 0.55998
# Poissons Ratio (y) = 0.27366 0.35188
# Poissons Ratio (z) = 0.53912 0.21581
#
# Static dielectric constant tensor:
#      x y z
#    x 1.572730 0.000000 0.000000 
#    y 0.000000 1.546780 0.000000 
#    z 0.000000 0.000000 1.570720 
# 
# From -- ./inp_files/27356.got.cif
#   From: 2010.05.17/outbox.cif.g08.bks.cpg/sg71_14_cif.got.tgz:27356.got - 2010.06.03 16:22:01.
