data_PCOD9520966
_publ_section_title
;
Structure prediction by ZEFSAII (Michael W. Deem and Ramdas Pophale) SiO2 
 PCOD9520966
Probable space group: I M M M
;
_chemical_formula_sum "Si O2"
_cell_formula_units_Z 120
_cell_length_a 8.541462
_cell_length_b 28.843839
_cell_length_c 28.031147
_cell_angle_alpha 90.000000
_cell_angle_beta 90.000000
_cell_angle_gamma 90.000000
_cell_volume 6905.993174
_symmetry_space_group_name_H-M "I M M M"
_symmetry_group_IT_number 71
_symmetry_cell_setting 'orthorhombic'
loop_
_space_group_symop_operation_xyz
x,y,z
-x,-y,z
x,-y,-z
-x,y,-z
-x,-y,-z
x,y,-z
-x,y,z
x,-y,z
1/2+x,1/2+y,1/2+z
1/2-x,1/2-y,1/2+z
1/2+x,1/2-y,1/2-z
1/2-x,1/2+y,1/2-z
1/2-x,1/2-y,1/2-z
1/2+x,1/2+y,1/2-z
1/2-x,1/2+y,1/2+z
1/2+x,1/2-y,1/2+z
loop_
_atom_site_type_symbol
_atom_site_label
_atom_site_fract_x
_atom_site_fract_y
_atom_site_fract_z
Si Si1 0.821022 0.303925 0.585849
Si Si2 0.312057 0.868585 0.624834
Si Si3 0.311219 0.554507 0.945851
Si Si4 0.686169 0.289211 0.314441
Si Si5 0.500000 0.444873 0.444443
Si Si6 0.813510 0.709482 0.947743
Si Si7 0.825971 0.407836 0.444439
Si Si8 0.187087 0.187459 0.707587
O O1 0.772272 0.311069 0.640590
O O2 0.718868 0.262559 0.564930
O O3 0.808972 0.352378 0.558778
O O4 0.000000 0.287985 0.583404
O O5 0.500000 0.868113 0.627968
O O6 0.259381 0.914052 0.595952
O O7 0.253585 0.825661 0.591996
O O8 0.244276 0.856203 0.676803
O O9 0.500000 0.558331 0.944314
O O10 0.271936 0.500000 0.940227
O O11 0.260839 0.568623 0.000000
O O12 0.500000 0.291672 0.321475
O O13 0.734660 0.235048 0.311375
O O14 0.726130 0.312823 0.263900
O O15 0.500000 0.500000 0.444791
O O16 0.500000 0.428096 0.500000
O O17 0.665643 0.428210 0.422988
O O18 0.000000 0.702865 0.949145
O O19 0.747651 0.698906 0.000000
O O20 0.830156 0.422412 0.500000
O O21 0.000000 0.419449 0.424311
O O22 0.000000 0.192130 0.703306
#
# Coordination Sequence:
#
# PCOD9520966 Si02
#       8
#    16  16  16  16   8  16  16  16
#     4  11  21  32  48  71 100 138 176 207 248 305
#     4  11  21  33  51  75 103 135 173 215 263 314
#     4   9  19  36  56  77 103 137 176 219 268 320
#     4  10  20  33  50  72  99 133 172 212 255 300
#     4   9  18  32  52  76  98 130 172 210 255 301
#     4  10  21  33  45  66  99 139 176 210 248 293
#     4   9  19  33  48  72 105 137 171 213 255 303
#     4  10  20  34  51  72  99 132 170 213 256 301
#
# _framework density 17.376211000000001
#
# number of rings (size 3 to 8) (size 9 to 14) (size 15 to 20)
#    0.000    2.067    1.333    2.800    1.867    4.267 
#    0.000    2.000    0.000    0.000    0.000    0.933 
#    0.000    2.133    0.000    0.000    0.000    0.000 
#
# Total GULP energy -334501.094804 kJ/mol
# GULP energy per Si atom -5575.018247 kJ/mol
# Density = 1.733666 g / cm^3
# Si number density = 17.376211 Si / 1000 Ang^3
#
#
#
# Elastic Constant Matrix: (Units=GPa)
#
#
# Indices 1 2 3 4 5 6 
#
# 1 38.3986 11.2689 -4.1566 0.0000 0.0000 0.0000
# 2 11.2689 37.7212 8.5742 0.0000 0.0000 0.0000
# 3 -4.1566 8.5742 52.5532 0.0000 0.0000 0.0000
# 4 0.0000 0.0000 0.0000 20.3116 0.0000 0.0000
# 5 0.0000 0.0000 0.0000 0.0000 15.5418 0.0000
# 6 0.0000 0.0000 0.0000 0.0000 0.0000 8.6656
#
#
#
# Elastic Compliance Matrix: (Units=1/GPa)
#
#
# Indices 1 2 3 4 5 6 
#
# 1 0.029291 -0.009634 0.003889 0.000000 0.000000 0.000000
# 2 -0.009634 0.030700 -0.005771 0.000000 0.000000 0.000000
# 3 0.003889 -0.005771 0.020277 0.000000 0.000000 0.000000
# 4 0.000000 0.000000 0.000000 0.049233 0.000000 0.000000
# 5 0.000000 0.000000 0.000000 0.000000 0.064343 0.000000
# 6 0.000000 0.000000 0.000000 0.000000 0.000000 0.115399
#
#
# Mechanical properties :
#
#
# Convention : Reuss Voigt Hill
#
# Bulk Modulus (GPa) = 17.47170 17.78289 17.62729
# Shear Modulus (GPa) = 14.23063 16.43622 15.33343
#
# Velocity S-wave (km/s) = 2.86487 3.07889 2.97381
# Velocity P-wave (km/s) = 4.58477 4.78494 4.68593
#
# Compressibility (1/GPa) = 0.05723543
#
# Stress axis : x y z
#
# Youngs Moduli (GPa) = 34.14020 32.57308 49.31588
#
# Poissons Ratio (x) = 0.31382 -0.19177
# Poissons Ratio (y) = 0.32892 0.28459
# Poissons Ratio (z) = -0.13276 0.18797
#
# Static dielectric constant tensor:
#      x y z
#    x 1.619050 0.000000 0.000000 
#    y 0.000000 1.568060 0.000000 
#    z 0.000000 0.000000 1.616780 
# 
# From -- ./inp_files/63780.got.cif
#   From: 2010.05.17/outbox.cif.g08.bks.cpg/sg71_32_cif.got.tgz:63780.got - 2010.06.03 16:22:01.
