data_PCOD9520290
_publ_section_title
;
Structure prediction by ZEFSAII (Michael W. Deem and Ramdas Pophale) SiO2 
 PCOD9520290
Probable space group: I M M M
;
_chemical_formula_sum "Si O2"
_cell_formula_units_Z 88
_cell_length_a 19.764218
_cell_length_b 28.422520
_cell_length_c 8.004681
_cell_angle_alpha 90.000000
_cell_angle_beta 90.000000
_cell_angle_gamma 90.000000
_cell_volume 4496.620598
_symmetry_space_group_name_H-M "I M M M"
_symmetry_group_IT_number 71
_symmetry_cell_setting 'orthorhombic'
loop_
_space_group_symop_operation_xyz
x,y,z
-x,-y,z
x,-y,-z
-x,y,-z
-x,-y,-z
x,y,-z
-x,y,z
x,-y,z
1/2+x,1/2+y,1/2+z
1/2-x,1/2-y,1/2+z
1/2+x,1/2-y,1/2-z
1/2-x,1/2+y,1/2-z
1/2-x,1/2-y,1/2-z
1/2+x,1/2+y,1/2-z
1/2-x,1/2+y,1/2+z
1/2+x,1/2-y,1/2+z
loop_
_atom_site_type_symbol
_atom_site_label
_atom_site_fract_x
_atom_site_fract_y
_atom_site_fract_z
Si Si1 0.811669 0.682491 0.698313
Si Si2 0.848454 0.583436 0.818746
Si Si3 0.420866 0.948900 0.000000
Si Si4 0.161086 0.155836 0.201318
Si Si5 0.702488 0.447549 0.702922
Si Si6 0.922912 0.241110 0.796913
O O1 0.815242 0.670772 0.500000
O O2 0.834729 0.638752 0.809187
O O3 0.731180 0.684369 0.737511
O O4 0.863722 0.724399 0.733082
O O5 0.898773 0.574849 0.669063
O O6 0.777837 0.558104 0.775446
O O7 0.872947 0.568608 0.000000
O O8 0.500000 0.952756 0.000000
O O9 0.387088 0.000000 0.000000
O O10 0.165881 0.101268 0.258309
O O11 0.099440 0.188542 0.257465
O O12 0.156997 0.153181 0.000000
O O13 0.706757 0.445813 0.500000
O O14 0.675956 0.500000 0.747413
O O15 0.000000 0.252578 0.744121
O O16 0.921561 0.243002 0.000000
#
# Coordination Sequence:
#
# PCOD9520290 Si02
#       6
#    16  16   8  16  16  16
#     4  10  19  35  56  77 103 138 184 232 277 331
#     4  11  21  36  57  81 108 138 181 231 283 330
#     4  11  24  40  54  72 106 148 185 225 276 332
#     4   8  16  31  51  76 106 142 181 226 281 332
#     4   9  16  30  54  80 106 137 177 227 278 327
#     4  10  20  33  50  75 108 145 185 228 279 339
#
# _framework density 19.570250999999999
#
# number of rings (size 3 to 8) (size 9 to 14) (size 15 to 20)
#    0.000    2.273    1.818    2.727    0.000    2.909 
#    0.000    4.545    0.000    0.545    0.000    3.818 
#    0.000    0.000    0.000    8.182    0.000    9.091 
#
# Total GULP energy -245087.999132 kJ/mol
# GULP energy per Si atom -5570.181798 kJ/mol
# Density = 1.952571 g / cm^3
# Si number density = 19.570251 Si / 1000 Ang^3
#
#
#
# Elastic Constant Matrix: (Units=GPa)
#
#
# Indices 1 2 3 4 5 6 
#
# 1 38.9277 30.0187 10.3859 0.0000 0.0000 0.0000
# 2 30.0187 103.8379 -4.1627 0.0000 0.0000 0.0000
# 3 10.3859 -4.1627 63.0983 0.0000 0.0000 0.0000
# 4 0.0000 0.0000 0.0000 10.2161 0.0000 0.0000
# 5 0.0000 0.0000 0.0000 0.0000 -10.0823 0.0000
# 6 0.0000 0.0000 0.0000 0.0000 0.0000 12.4657
#
#
#
# Elastic Compliance Matrix: (Units=1/GPa)
#
#
# Indices 1 2 3 4 5 6 
#
# 1 0.035568 -0.010545 -0.006550 0.000000 0.000000 0.000000
# 2 -0.010545 0.012782 0.002579 0.000000 0.000000 0.000000
# 3 -0.006550 0.002579 0.017097 0.000000 0.000000 0.000000
# 4 0.000000 0.000000 0.000000 0.097885 0.000000 0.000000
# 5 0.000000 0.000000 0.000000 0.000000 -0.099184 0.000000
# 6 0.000000 0.000000 0.000000 0.000000 0.000000 0.080220
#
#
# Mechanical properties :
#
#
# Convention : Reuss Voigt Hill
#
# Bulk Modulus (GPa) = 27.46159 30.92751 29.19455
# Shear Modulus (GPa) = 26.94859 13.82803 20.38831
#
# Velocity S-wave (km/s) = 3.71485 2.66105 3.23120
# Velocity P-wave (km/s) = 5.69762 5.02784 5.37318
#
# Compressibility (1/GPa) = 0.03641450
#
# Stress axis : x y z
#
# Youngs Moduli (GPa) = 28.11529 78.23361 58.49135
#
# Poissons Ratio (x) = 0.82497 0.38312
# Poissons Ratio (y) = 0.29647 -0.15085
# Poissons Ratio (z) = 0.18416 -0.20176
#
# Static dielectric constant tensor:
#      x y z
#    x 1.659480 0.000000 0.000000 
#    y 0.000000 1.746110 0.000000 
#    z 0.000000 0.000000 1.683980 
# 
# From -- ./inp_files/8831.got.cif
#   From: 2010.05.17/outbox.cif.g08.bks.cpg/sg71_5_cif.got.tgz:8831.got - 2010.06.03 16:22:01.
