data_PCOD9520774
_publ_section_title
;
Structure prediction by ZEFSAII (Michael W. Deem and Ramdas Pophale) SiO2 
 PCOD9520774
Probable space group: I M M M
;
_chemical_formula_sum "Si O2"
_cell_formula_units_Z 104
_cell_length_a 28.308319
_cell_length_b 8.781832
_cell_length_c 24.457317
_cell_angle_alpha 90.000000
_cell_angle_beta 90.000000
_cell_angle_gamma 90.000000
_cell_volume 6080.062144
_symmetry_space_group_name_H-M "I M M M"
_symmetry_group_IT_number 71
_symmetry_cell_setting 'orthorhombic'
loop_
_space_group_symop_operation_xyz
x,y,z
-x,-y,z
x,-y,-z
-x,y,-z
-x,-y,-z
x,y,-z
-x,y,z
x,-y,z
1/2+x,1/2+y,1/2+z
1/2-x,1/2-y,1/2+z
1/2+x,1/2-y,1/2-z
1/2-x,1/2+y,1/2-z
1/2-x,1/2-y,1/2-z
1/2+x,1/2+y,1/2-z
1/2-x,1/2+y,1/2+z
1/2+x,1/2-y,1/2+z
loop_
_atom_site_type_symbol
_atom_site_label
_atom_site_fract_x
_atom_site_fract_y
_atom_site_fract_z
Si Si1 0.362339 0.177384 0.332313
Si Si2 0.801089 0.180955 0.262399
Si Si3 0.500000 0.328473 0.434027
Si Si4 0.945826 0.316418 0.564010
Si Si5 0.103935 0.815365 0.936966
Si Si6 0.383376 0.318995 0.158843
Si Si7 0.445930 0.821662 0.252592
O O1 0.331213 0.273737 0.290686
O O2 0.361691 0.242818 0.393006
O O3 0.414875 0.190739 0.306981
O O4 0.348675 0.000000 0.330563
O O5 0.750000 0.250000 0.250000
O O6 0.832798 0.234405 0.315026
O O7 0.796796 0.000000 0.267404
O O8 0.500000 0.500000 0.410485
O O9 0.500000 0.343511 0.500000
O O10 0.550794 0.258108 0.422566
O O11 0.939044 0.274829 0.500000
O O12 0.944754 0.500000 0.567406
O O13 0.905473 0.252000 0.603851
O O14 0.000000 0.269366 0.579673
O O15 0.103623 0.000000 0.932949
O O16 0.114090 0.777108 0.000000
O O17 0.380463 0.500000 0.152048
O O18 0.421089 0.276447 0.205903
O O19 0.500000 0.778848 0.261256
O O20 0.444038 0.000000 0.235362
#
# Coordination Sequence:
#
# PCOD9520774 Si02
#       7
#    16  16   8  16  16  16  16
#     4  10  20  32  49  73 100 129 165 206 252 301
#     4  10  21  38  58  78 100 125 161 208 261 316
#     4   7  12  24  41  61  87 125 169 203 234 275
#     4   9  18  32  50  74 107 148 186 211 236 284
#     4   9  17  30  47  67  95 132 171 208 246 290
#     4  10  20  32  49  76 104 129 163 209 256 300
#     4   9  18  31  45  64  96 136 170 201 241 292
#
# _framework density 17.105089
#
# number of rings (size 3 to 8) (size 9 to 14) (size 15 to 20)
#    0.000    2.692    0.000    3.231    1.077    5.538 
#    0.000    0.769    0.000    2.308    0.000    4.308 
#    0.000    0.000    0.000    0.000    0.000    0.000 
#
# Total GULP energy -289530.859223 kJ/mol
# GULP energy per Si atom -5567.901139 kJ/mol
# Density = 1.706616 g / cm^3
# Si number density = 17.105089 Si / 1000 Ang^3
#
#
#
# Elastic Constant Matrix: (Units=GPa)
#
#
# Indices 1 2 3 4 5 6 
#
# 1 105.0587 28.3021 39.6185 0.0000 0.0000 0.0000
# 2 28.3021 28.4451 28.8055 0.0000 0.0000 0.0000
# 3 39.6185 28.8055 93.1414 0.0000 0.0000 0.0000
# 4 0.0000 0.0000 0.0000 22.5387 0.0000 0.0000
# 5 0.0000 0.0000 0.0000 0.0000 17.5661 0.0000
# 6 0.0000 0.0000 0.0000 0.0000 0.0000 22.0533
#
#
#
# Elastic Compliance Matrix: (Units=1/GPa)
#
#
# Indices 1 2 3 4 5 6 
#
# 1 0.013329 -0.010950 -0.002283 0.000000 0.000000 0.000000
# 2 -0.010950 0.060182 -0.013955 0.000000 0.000000 0.000000
# 3 -0.002283 -0.013955 0.016023 0.000000 0.000000 0.000000
# 4 0.000000 0.000000 0.000000 0.044368 0.000000 0.000000
# 5 0.000000 0.000000 0.000000 0.000000 0.056928 0.000000
# 6 0.000000 0.000000 0.000000 0.000000 0.000000 0.045345
#
#
# Mechanical properties :
#
#
# Convention : Reuss Voigt Hill
#
# Bulk Modulus (GPa) = 28.44247 46.67748 37.55998
# Shear Modulus (GPa) = 16.54145 21.09290 18.81718
#
# Velocity S-wave (km/s) = 3.11311 3.51541 3.32036
# Velocity P-wave (km/s) = 5.43931 6.62008 6.05853
#
# Compressibility (1/GPa) = 0.03515869
#
# Stress axis : x y z
#
# Youngs Moduli (GPa) = 75.02184 16.61624 62.40939
#
# Poissons Ratio (x) = 0.18195 0.14250
# Poissons Ratio (y) = 0.82151 0.87089
# Poissons Ratio (z) = 0.17129 0.23187
#
# Static dielectric constant tensor:
#      x y z
#    x 1.599890 0.000000 0.000000 
#    y 0.000000 1.588030 0.000000 
#    z 0.000000 0.000000 1.583950 
# 
# From -- ./inp_files/61981.got.cif
#   From: 2010.05.17/outbox.cif.g08.bks.cpg/sg71_31_cif.got.tgz:61981.got - 2010.06.03 16:22:01.
