data_PCOD9520968
_publ_section_title
;
Structure prediction by ZEFSAII (Michael W. Deem and Ramdas Pophale) SiO2 
 PCOD9520968
Probable space group: I M M M
;
_chemical_formula_sum "Si O2"
_cell_formula_units_Z 80
_cell_length_a 23.787949
_cell_length_b 10.667112
_cell_length_c 18.002583
_cell_angle_alpha 90.000000
_cell_angle_beta 90.000000
_cell_angle_gamma 90.000000
_cell_volume 4568.132325
_symmetry_space_group_name_H-M "I M M M"
_symmetry_group_IT_number 71
_symmetry_cell_setting 'orthorhombic'
loop_
_space_group_symop_operation_xyz
x,y,z
-x,-y,z
x,-y,-z
-x,y,-z
-x,-y,-z
x,y,-z
-x,y,z
x,-y,z
1/2+x,1/2+y,1/2+z
1/2-x,1/2-y,1/2+z
1/2+x,1/2-y,1/2-z
1/2-x,1/2+y,1/2-z
1/2-x,1/2-y,1/2-z
1/2+x,1/2+y,1/2-z
1/2-x,1/2+y,1/2+z
1/2+x,1/2-y,1/2+z
loop_
_atom_site_type_symbol
_atom_site_label
_atom_site_fract_x
_atom_site_fract_y
_atom_site_fract_z
Si Si1 0.646068 0.357848 0.788781
Si Si2 0.064022 0.253529 0.917161
Si Si3 0.678356 0.637627 0.380264
Si Si4 0.933813 0.361439 0.756960
Si Si5 0.737424 0.357307 0.083842
O O1 0.623021 0.500000 0.796790
O O2 0.677504 0.355324 0.709273
O O3 0.599599 0.250300 0.782010
O O4 0.689573 0.335131 0.855056
O O5 0.114043 0.154484 0.907008
O O6 0.071508 0.343851 0.846386
O O7 0.000000 0.202796 0.911411
O O8 0.069181 0.309710 0.000000
O O9 0.699316 0.500000 0.402655
O O10 0.714625 0.753243 0.408884
O O11 0.913000 0.500000 0.736530
O O12 0.000000 0.353312 0.740241
O O13 0.759189 0.500000 0.095585
O O14 0.714528 0.351753 0.000000
#
# Coordination Sequence:
#
# PCOD9520968 Si02
#       5
#    16  16  16  16  16
#     4   9  19  35  53  73  98 130 166 201 240 290
#     4   9  18  31  46  68 101 137 169 202 240 282
#     4  10  20  33  50  73 100 130 166 205 244 289
#     4   9  18  32  51  76 102 128 162 203 244 287
#     4  10  21  36  53  73  98 128 163 205 250 293
#
# _framework density 17.512627999999999
#
# number of rings (size 3 to 8) (size 9 to 14) (size 15 to 20)
#    0.000    2.600    0.000    1.200    0.000    6.800 
#    0.000    7.000    0.000    0.600    0.000    4.200 
#    0.000    0.000    0.000    0.000    0.000    0.000 
#
# Total GULP energy -222851.831017 kJ/mol
# GULP energy per Si atom -5571.295775 kJ/mol
# Density = 1.747277 g / cm^3
# Si number density = 17.512628 Si / 1000 Ang^3
#
#
#
# Elastic Constant Matrix: (Units=GPa)
#
#
# Indices 1 2 3 4 5 6 
#
# 1 67.2948 72.3606 46.8449 0.0000 0.0000 0.0000
# 2 72.3606 142.7846 40.6804 0.0000 0.0000 0.0000
# 3 46.8449 40.6804 80.6880 0.0000 0.0000 0.0000
# 4 0.0000 0.0000 0.0000 10.1399 0.0000 0.0000
# 5 0.0000 0.0000 0.0000 0.0000 8.0118 0.0000
# 6 0.0000 0.0000 0.0000 0.0000 0.0000 20.9786
#
#
#
# Elastic Compliance Matrix: (Units=1/GPa)
#
#
# Indices 1 2 3 4 5 6 
#
# 1 0.048385 -0.019288 -0.018366 0.000000 0.000000 0.000000
# 2 -0.019288 0.015867 0.003198 0.000000 0.000000 0.000000
# 3 -0.018366 0.003198 0.021444 0.000000 0.000000 0.000000
# 4 0.000000 0.000000 0.000000 0.098620 0.000000 0.000000
# 5 0.000000 0.000000 0.000000 0.000000 0.124816 0.000000
# 6 0.000000 0.000000 0.000000 0.000000 0.000000 0.047668
#
#
# Mechanical properties :
#
#
# Convention : Reuss Voigt Hill
#
# Bulk Modulus (GPa) = 59.58111 67.83770 63.70941
# Shear Modulus (GPa) = 11.59270 16.55150 14.07210
#
# Velocity S-wave (km/s) = 2.57565 3.07761 2.83775
# Velocity P-wave (km/s) = 6.55294 7.17283 6.86988
#
# Compressibility (1/GPa) = 0.01678384
#
# Stress axis : x y z
#
# Youngs Moduli (GPa) = 20.66762 63.02352 46.63327
#
# Poissons Ratio (x) = 1.21559 0.85648
# Poissons Ratio (y) = 0.39863 -0.14914
# Poissons Ratio (z) = 0.37959 -0.20156
#
# Static dielectric constant tensor:
#      x y z
#    x 1.579740 0.000000 0.000000 
#    y 0.000000 1.609980 0.000000 
#    z 0.000000 0.000000 1.597210 
# 
# From -- ./inp_files/14517.got.cif
#   From: 2010.05.17/outbox.cif.g08.bks.cpg/sg71_8_cif.got.tgz:14517.got - 2010.06.03 16:22:01.
