data_PCOD9520795
_publ_section_title
;
Structure prediction by ZEFSAII (Michael W. Deem and Ramdas Pophale) SiO2 
 PCOD9520795
Probable space group: I M M M
;
_chemical_formula_sum "Si O2"
_cell_formula_units_Z 88
_cell_length_a 30.674107
_cell_length_b 8.856912
_cell_length_c 18.724205
_cell_angle_alpha 90.000000
_cell_angle_beta 90.000000
_cell_angle_gamma 90.000000
_cell_volume 5086.952064
_symmetry_space_group_name_H-M "I M M M"
_symmetry_group_IT_number 71
_symmetry_cell_setting 'orthorhombic'
loop_
_space_group_symop_operation_xyz
x,y,z
-x,-y,z
x,-y,-z
-x,y,-z
-x,-y,-z
x,y,-z
-x,y,z
x,-y,z
1/2+x,1/2+y,1/2+z
1/2-x,1/2-y,1/2+z
1/2+x,1/2-y,1/2-z
1/2-x,1/2+y,1/2-z
1/2-x,1/2-y,1/2-z
1/2+x,1/2+y,1/2-z
1/2-x,1/2+y,1/2+z
1/2+x,1/2-y,1/2+z
loop_
_atom_site_type_symbol
_atom_site_label
_atom_site_fract_x
_atom_site_fract_y
_atom_site_fract_z
Si Si1 0.118022 0.682075 0.277901
Si Si2 0.949497 0.315394 0.843318
Si Si3 0.790014 0.679995 0.793767
Si Si4 0.446864 0.175394 0.500000
Si Si5 0.649546 0.680651 0.917933
Si Si6 0.244758 0.673978 0.584056
O O1 0.116300 0.500000 0.284910
O O2 0.080297 0.730751 0.223091
O O3 0.164069 0.722383 0.240893
O O4 0.118579 0.753754 0.356499
O O5 0.948351 0.500000 0.846004
O O6 0.934098 0.260987 0.922235
O O7 0.000000 0.271932 0.833628
O O8 0.786820 0.500000 0.793676
O O9 0.750000 0.750000 0.750000
O O10 0.782398 0.743192 0.872708
O O11 0.500000 0.175817 0.500000
O O12 0.432848 0.000000 0.500000
O O13 0.651171 0.500000 0.913202
O O14 0.698036 0.746496 0.904305
O O15 0.637855 0.721968 0.000000
O O16 0.253216 0.677432 0.500000
O O17 0.241003 0.500000 0.607754
#
# Coordination Sequence:
#
# PCOD9520795 Si02
#       6
#    16  16  16   8  16  16
#     4  10  20  32  49  76 102 129 165 205 251 298
#     4   8  14  27  48  74 102 129 161 203 248 292
#     4  11  21  32  47  70 102 136 168 203 245 294
#     4   7  10  20  42  70  99 129 157 191 239 287
#     4  10  20  33  51  73  95 126 168 209 250 299
#     4  10  20  34  51  69  93 129 171 211 250 293
#
# _framework density 17.299160000000001
#
# number of rings (size 3 to 8) (size 9 to 14) (size 15 to 20)
#    0.000    2.455    1.818    2.727    0.000    2.909 
#    1.636    0.000    0.000    1.091    0.000    3.818 
#    0.000    2.182    0.000    0.000    0.000    0.000 
#
# Total GULP energy -245225.507515 kJ/mol
# GULP energy per Si atom -5573.306989 kJ/mol
# Density = 1.725979 g / cm^3
# Si number density = 17.299160 Si / 1000 Ang^3
#
#
#
# Elastic Constant Matrix: (Units=GPa)
#
#
# Indices 1 2 3 4 5 6 
#
# 1 65.6125 23.4306 62.5731 0.0000 0.0000 0.0000
# 2 23.4306 26.4088 37.4955 0.0000 0.0000 0.0000
# 3 62.5731 37.4955 155.9722 0.0000 0.0000 0.0000
# 4 0.0000 0.0000 0.0000 28.9832 0.0000 0.0000
# 5 0.0000 0.0000 0.0000 0.0000 33.4891 0.0000
# 6 0.0000 0.0000 0.0000 0.0000 0.0000 11.1394
#
#
#
# Elastic Compliance Matrix: (Units=1/GPa)
#
#
# Indices 1 2 3 4 5 6 
#
# 1 0.027424 -0.013224 -0.007823 0.000000 0.000000 0.000000
# 2 -0.013224 0.063865 -0.010048 0.000000 0.000000 0.000000
# 3 -0.007823 -0.010048 0.011965 0.000000 0.000000 0.000000
# 4 0.000000 0.000000 0.000000 0.034503 0.000000 0.000000
# 5 0.000000 0.000000 0.000000 0.000000 0.029860 0.000000
# 6 0.000000 0.000000 0.000000 0.000000 0.000000 0.089771
#
#
# Mechanical properties :
#
#
# Convention : Reuss Voigt Hill
#
# Bulk Modulus (GPa) = 24.35193 54.99908 39.67550
# Shear Modulus (GPa) = 15.00301 23.02198 19.01249
#
# Velocity S-wave (km/s) = 2.94814 3.65199 3.31878
# Velocity P-wave (km/s) = 5.06914 7.04590 6.13762
#
# Compressibility (1/GPa) = 0.04106451
#
# Stress axis : x y z
#
# Youngs Moduli (GPa) = 36.46454 15.65801 83.57535
#
# Poissons Ratio (x) = 0.20707 0.65380
# Poissons Ratio (y) = 0.48222 0.83974
# Poissons Ratio (z) = 0.28526 0.15733
#
# Static dielectric constant tensor:
#      x y z
#    x 1.560840 0.000000 0.000000 
#    y 0.000000 1.589310 0.000000 
#    z 0.000000 0.000000 1.655580 
# 
# From -- ./inp_files/10901.got.cif
#   From: 2010.05.17/outbox.cif.g08.bks.cpg/sg71_6_cif.got.tgz:10901.got - 2010.06.03 16:22:01.
