data_PCOD9520995
_publ_section_title
;
Structure prediction by ZEFSAII (Michael W. Deem and Ramdas Pophale) SiO2 
 PCOD9520995
Probable space group: I M M M
;
_chemical_formula_sum "Si O2"
_cell_formula_units_Z 72
_cell_length_a 28.489839
_cell_length_b 9.089019
_cell_length_c 14.671449
_cell_angle_alpha 90.000000
_cell_angle_beta 90.000000
_cell_angle_gamma 90.000000
_cell_volume 3799.093783
_symmetry_space_group_name_H-M "I M M M"
_symmetry_group_IT_number 71
_symmetry_cell_setting 'orthorhombic'
loop_
_space_group_symop_operation_xyz
x,y,z
-x,-y,z
x,-y,-z
-x,y,-z
-x,-y,-z
x,y,-z
-x,y,z
x,-y,z
1/2+x,1/2+y,1/2+z
1/2-x,1/2-y,1/2+z
1/2+x,1/2-y,1/2-z
1/2-x,1/2+y,1/2-z
1/2-x,1/2-y,1/2-z
1/2+x,1/2+y,1/2-z
1/2-x,1/2+y,1/2+z
1/2+x,1/2-y,1/2+z
loop_
_atom_site_type_symbol
_atom_site_label
_atom_site_fract_x
_atom_site_fract_y
_atom_site_fract_z
Si Si1 0.406348 0.821801 0.711191
Si Si2 0.500000 0.820868 0.604536
Si Si3 0.305393 0.833067 0.651582
Si Si4 0.118987 0.824629 0.399657
Si Si5 0.214809 0.666515 0.368335
O O1 0.453117 0.777095 0.658250
O O2 0.359243 0.780439 0.654827
O O3 0.403737 0.753879 0.812245
O O4 0.404769 0.000000 0.719503
O O5 0.500000 0.770207 0.500000
O O6 0.500000 0.000000 0.602799
O O7 0.265956 0.729601 0.609051
O O8 0.291437 0.839852 0.758677
O O9 0.303257 0.000000 0.615408
O O10 0.099071 0.786663 0.500000
O O11 0.173119 0.772073 0.399712
O O12 0.116723 0.000000 0.388279
O O13 0.208218 0.500000 0.400452
#
# Coordination Sequence:
#
# PCOD9520995 Si02
#       5
#    16   8  16  16  16
#     4   9  18  33  55  80 105 137 175 216 263 312
#     4   9  18  36  62  87 106 126 163 217 270 317
#     4   8  14  25  42  68 101 134 170 209 249 297
#     4  10  20  33  50  74 106 144 181 216 257 307
#     4   9  16  26  44  70 100 137 177 213 249 293
#
# _framework density 18.951888
#
# number of rings (size 3 to 8) (size 9 to 14) (size 15 to 20)
#    0.000    3.000    0.000    2.667    0.000    7.111 
#    0.000    2.222    0.000    8.667    0.000    0.000 
#    0.000    0.000    0.000    0.000    0.000    0.000 
#
# Total GULP energy -200630.748558 kJ/mol
# GULP energy per Si atom -5573.076349 kJ/mol
# Density = 1.890875 g / cm^3
# Si number density = 18.951888 Si / 1000 Ang^3
#
#
#
# Elastic Constant Matrix: (Units=GPa)
#
#
# Indices 1 2 3 4 5 6 
#
# 1 151.3095 26.2434 58.2739 0.0000 0.0000 0.0000
# 2 26.2434 30.9099 22.7986 0.0000 0.0000 0.0000
# 3 58.2739 22.7986 108.7210 0.0000 0.0000 0.0000
# 4 0.0000 0.0000 0.0000 8.3503 0.0000 0.0000
# 5 0.0000 0.0000 0.0000 0.0000 -8.0356 0.0000
# 6 0.0000 0.0000 0.0000 0.0000 0.0000 21.3031
#
#
#
# Elastic Compliance Matrix: (Units=1/GPa)
#
#
# Indices 1 2 3 4 5 6 
#
# 1 0.008885 -0.004769 -0.003762 0.000000 0.000000 0.000000
# 2 -0.004769 0.040831 -0.006006 0.000000 0.000000 0.000000
# 3 -0.003762 -0.006006 0.012474 0.000000 0.000000 0.000000
# 4 0.000000 0.000000 0.000000 0.119756 0.000000 0.000000
# 5 0.000000 0.000000 0.000000 0.000000 -0.124446 0.000000
# 6 0.000000 0.000000 0.000000 0.000000 0.000000 0.046942
#
#
# Mechanical properties :
#
#
# Convention : Reuss Voigt Hill
#
# Bulk Modulus (GPa) = 30.19733 56.17470 43.18602
# Shear Modulus (GPa) = 34.58903 16.56517 25.57710
#
# Velocity S-wave (km/s) = 4.27675 2.95967 3.67765
# Velocity P-wave (km/s) = 6.35262 6.43308 6.39297
#
# Compressibility (1/GPa) = 0.03311551
#
# Stress axis : x y z
#
# Youngs Moduli (GPa) = 112.54854 24.49123 80.16689
#
# Poissons Ratio (x) = 0.11679 0.30162
# Poissons Ratio (y) = 0.53670 0.48150
# Poissons Ratio (z) = 0.42345 0.14710
#
# Static dielectric constant tensor:
#      x y z
#    x 1.652180 0.000000 0.000000 
#    y 0.000000 1.645910 0.000000 
#    z 0.000000 0.000000 1.707810 
# 
# From -- ./inp_files/6109.got.cif
#   From: 2010.05.17/outbox.cif.g08.bks.cpg/sg71_4_cif.got.tgz:6109.got - 2010.06.03 16:22:01.
