data_PCOD9520382
_publ_section_title
;
Structure prediction by ZEFSAII (Michael W. Deem and Ramdas Pophale) SiO2 
 PCOD9520382
Probable space group: I M M M
;
_chemical_formula_sum "Si O2"
_cell_formula_units_Z 88
_cell_length_a 9.308718
_cell_length_b 17.929416
_cell_length_c 29.311967
_cell_angle_alpha 90.000000
_cell_angle_beta 90.000000
_cell_angle_gamma 90.000000
_cell_volume 4892.163700
_symmetry_space_group_name_H-M "I M M M"
_symmetry_group_IT_number 71
_symmetry_cell_setting 'orthorhombic'
loop_
_space_group_symop_operation_xyz
x,y,z
-x,-y,z
x,-y,-z
-x,y,-z
-x,-y,-z
x,y,-z
-x,y,z
x,-y,z
1/2+x,1/2+y,1/2+z
1/2-x,1/2-y,1/2+z
1/2+x,1/2-y,1/2-z
1/2-x,1/2+y,1/2-z
1/2-x,1/2-y,1/2-z
1/2+x,1/2+y,1/2-z
1/2-x,1/2+y,1/2+z
1/2+x,1/2-y,1/2+z
loop_
_atom_site_type_symbol
_atom_site_label
_atom_site_fract_x
_atom_site_fract_y
_atom_site_fract_z
Si Si1 0.671861 0.360702 0.402876
Si Si2 0.170280 0.087712 0.378900
Si Si3 0.333594 0.000000 0.054518
Si Si4 0.828559 0.300493 0.054074
Si Si5 0.332206 0.669353 0.701224
Si Si6 0.831773 0.348798 0.208311
O O1 0.500000 0.371097 0.407767
O O2 0.755094 0.426990 0.426773
O O3 0.706969 0.280814 0.425332
O O4 0.705156 0.358893 0.349050
O O5 0.242037 0.137479 0.418231
O O6 0.245277 0.110051 0.331340
O O7 0.000000 0.102579 0.376211
O O8 0.191358 0.000000 0.387639
O O9 0.500000 0.000000 0.068390
O O10 0.325998 0.000000 0.000000
O O11 0.000000 0.311809 0.061135
O O12 0.800257 0.302304 0.000000
O O13 0.500000 0.652753 0.710460
O O14 0.235510 0.638030 0.741885
O O15 0.318516 0.759447 0.700180
O O16 0.000000 0.367876 0.206602
#
# Coordination Sequence:
#
# PCOD9520382 Si02
#       6
#    16  16   8  16  16  16
#     4  10  20  39  64  88 116 153 195 239 291 354
#     4  11  24  40  58  83 119 161 201 243 292 348
#     4  11  25  41  57  85 123 157 195 245 296 347
#     4  10  21  39  64  91 116 147 194 247 296 350
#     4   9  18  34  59  89 118 148 187 235 288 347
#     4  10  19  35  59  87 117 150 191 237 287 344
#
# _framework density 17.987950000000001
#
# number of rings (size 3 to 8) (size 9 to 14) (size 15 to 20)
#    0.000    1.909    1.818    1.909    0.000    5.818 
#    1.636    1.818    0.000    0.000    0.000    0.000 
#    0.000    0.000    0.000    0.000    0.000    0.000 
#
# Total GULP energy -245782.629638 kJ/mol
# GULP energy per Si atom -5585.968855 kJ/mol
# Density = 1.794701 g / cm^3
# Si number density = 17.987950 Si / 1000 Ang^3
#
#
#
# Elastic Constant Matrix: (Units=GPa)
#
#
# Indices 1 2 3 4 5 6 
#
# 1 99.0996 84.3861 94.2583 0.0000 0.0000 0.0000
# 2 84.3861 101.3698 83.3481 0.0000 0.0000 0.0000
# 3 94.2583 83.3481 141.7614 0.0000 0.0000 0.0000
# 4 0.0000 0.0000 0.0000 17.8688 0.0000 0.0000
# 5 0.0000 0.0000 0.0000 0.0000 35.6057 0.0000
# 6 0.0000 0.0000 0.0000 0.0000 0.0000 28.5466
#
#
#
# Elastic Compliance Matrix: (Units=1/GPa)
#
#
# Indices 1 2 3 4 5 6 
#
# 1 0.049014 -0.027113 -0.016649 0.000000 0.000000 0.000000
# 2 -0.027113 0.034095 -0.002018 0.000000 0.000000 0.000000
# 3 -0.016649 -0.002018 0.019310 0.000000 0.000000 0.000000
# 4 0.000000 0.000000 0.000000 0.055963 0.000000 0.000000
# 5 0.000000 0.000000 0.000000 0.000000 0.028085 0.000000
# 6 0.000000 0.000000 0.000000 0.000000 0.000000 0.035030
#
#
# Mechanical properties :
#
#
# Convention : Reuss Voigt Hill
#
# Bulk Modulus (GPa) = 92.08743 96.24621 94.16682
# Shear Modulus (GPa) = 15.78895 21.75346 18.77120
#
# Velocity S-wave (km/s) = 2.96590 3.48132 3.23390
# Velocity P-wave (km/s) = 7.93939 8.35354 8.14909
#
# Compressibility (1/GPa) = 0.01085924
#
# Stress axis : x y z
#
# Youngs Moduli (GPa) = 20.40250 29.33003 51.78547
#
# Poissons Ratio (x) = 0.79523 0.86215
# Poissons Ratio (y) = 0.55317 0.10451
# Poissons Ratio (z) = 0.33967 0.05919
#
# Static dielectric constant tensor:
#      x y z
#    x 1.599160 0.000000 0.000000 
#    y 0.000000 1.590340 0.000000 
#    z 0.000000 0.000000 1.595590 
# 
# From -- ./inp_files/68022.got.cif
#   From: 2010.05.17/outbox.cif.g08.bks.cpg/sg71_35_cif.got.tgz:68022.got - 2010.06.03 16:22:01.
