data_PCOD9520287
_publ_section_title
;
Structure prediction by ZEFSAII (Michael W. Deem and Ramdas Pophale) SiO2 
 PCOD9520287
Probable space group: I M M M
;
_chemical_formula_sum "Si O2"
_cell_formula_units_Z 84
_cell_length_a 10.455171
_cell_length_b 13.433132
_cell_length_c 23.018494
_cell_angle_alpha 90.000000
_cell_angle_beta 90.000000
_cell_angle_gamma 90.000000
_cell_volume 3232.848322
_symmetry_space_group_name_H-M "I M M M"
_symmetry_group_IT_number 71
_symmetry_cell_setting 'orthorhombic'
loop_
_space_group_symop_operation_xyz
x,y,z
-x,-y,z
x,-y,-z
-x,y,-z
-x,-y,-z
x,y,-z
-x,y,z
x,-y,z
1/2+x,1/2+y,1/2+z
1/2-x,1/2-y,1/2+z
1/2+x,1/2-y,1/2-z
1/2-x,1/2+y,1/2-z
1/2-x,1/2-y,1/2-z
1/2+x,1/2+y,1/2-z
1/2-x,1/2+y,1/2+z
1/2+x,1/2-y,1/2+z
loop_
_atom_site_type_symbol
_atom_site_label
_atom_site_fract_x
_atom_site_fract_y
_atom_site_fract_z
Si Si1 0.500000 0.119341 0.312229
Si Si2 0.642332 0.381835 0.880799
Si Si3 0.771510 0.119275 0.258384
Si Si4 0.000000 0.246960 0.929913
Si Si5 0.292874 0.380006 0.631957
Si Si6 0.200346 0.879518 0.500000
Si Si7 0.000000 0.700987 0.500000
Si Si8 0.500000 0.112791 0.878318
O O1 0.623150 0.140275 0.272092
O O2 0.500000 0.174304 0.375151
O O3 0.500000 0.000000 0.324584
O O4 0.500000 0.352079 0.901481
O O5 0.638232 0.500000 0.872440
O O6 0.663377 0.342344 0.816810
O O7 0.745258 0.370884 0.933004
O O8 0.834306 0.147905 0.197528
O O9 0.780075 0.000000 0.256602
O O10 0.877519 0.176337 0.915270
O O11 0.000000 0.277218 0.000000
O O12 0.301315 0.500000 0.623550
O O13 0.143252 0.350354 0.634137
O O14 0.117836 0.777829 0.500000
O O15 0.155032 0.000000 0.500000
O O16 0.000000 0.626656 0.446801
O O17 0.500000 0.000000 0.855529
#
# Coordination Sequence:
#
# PCOD9520287 Si02
#       8
#     8  16  16   8  16   8   4   8
#     4  10  23  48  73  98 144 201 248 301 361 434
#     4   9  16  29  52  88 132 170 212 265 326 404
#     4   9  19  38  69 101 129 176 236 289 351 429
#     4  12  29  48  69 110 155 197 253 301 365 452
#     4  10  23  47  78 108 143 185 236 309 383 442
#     4  10  19  35  55  89 138 178 207 265 348 402
#     4  12  22  34  60  90 122 166 228 280 318 406
#     4  10  24  45  70 100 132 178 233 294 365 431
#
# _framework density 25.983281000000002
#
# number of rings (size 3 to 8) (size 9 to 14) (size 15 to 20)
#    0.000    2.095    0.952    1.143    2.667    5.524 
#    1.714    1.905    0.000    0.000    0.000    0.000 
#    0.000    0.000    0.000    0.000    0.000    0.000 
#
# Total GULP energy -234020.966244 kJ/mol
# GULP energy per Si atom -5571.927768 kJ/mol
# Density = 2.592414 g / cm^3
# Si number density = 25.983281 Si / 1000 Ang^3
#
#
#
# Elastic Constant Matrix: (Units=GPa)
#
#
# Indices 1 2 3 4 5 6 
#
# 1 76.1857 12.2614 18.5603 0.0000 0.0000 0.0000
# 2 12.2614 109.8231 -8.9883 0.0000 0.0000 0.0000
# 3 18.5603 -8.9883 159.3377 0.0000 0.0000 0.0000
# 4 0.0000 0.0000 0.0000 34.6757 0.0000 0.0000
# 5 0.0000 0.0000 0.0000 0.0000 20.6088 0.0000
# 6 0.0000 0.0000 0.0000 0.0000 0.0000 10.0749
#
#
#
# Elastic Compliance Matrix: (Units=1/GPa)
#
#
# Indices 1 2 3 4 5 6 
#
# 1 0.013811 -0.001681 -0.001704 0.000000 0.000000 0.000000
# 2 -0.001681 0.009352 0.000723 0.000000 0.000000 0.000000
# 3 -0.001704 0.000723 0.006515 0.000000 0.000000 0.000000
# 4 0.000000 0.000000 0.000000 0.028839 0.000000 0.000000
# 5 0.000000 0.000000 0.000000 0.000000 0.048523 0.000000
# 6 0.000000 0.000000 0.000000 0.000000 0.000000 0.099257
#
#
# Mechanical properties :
#
#
# Convention : Reuss Voigt Hill
#
# Bulk Modulus (GPa) = 41.05785 43.22368 42.14076
# Shear Modulus (GPa) = 22.75421 34.63941 28.69681
#
# Velocity S-wave (km/s) = 2.96248 3.65518 3.32691
# Velocity P-wave (km/s) = 5.24763 5.87240 5.56879
#
# Compressibility (1/GPa) = 0.02435588
#
# Stress axis : x y z
#
# Youngs Moduli (GPa) = 72.40350 106.92338 153.48627
#
# Poissons Ratio (x) = 0.17979 0.26149
# Poissons Ratio (y) = 0.12174 -0.11104
# Poissons Ratio (z) = 0.12335 -0.07735
#
# Static dielectric constant tensor:
#      x y z
#    x 3.866950 0.000000 0.000000 
#    y 0.000000 2.057660 0.000000 
#    z 0.000000 0.000000 2.047220 
# 
# From -- ./inp_files/58771.got.cif
#   From: 2010.05.17/outbox.cif.g08.bks.cpg/sg71_30_cif.got.tgz:58771.got - 2010.06.03 16:22:01.
