data_PCOD9520061
_publ_section_title
;
Structure prediction by ZEFSAII (Michael W. Deem and Ramdas Pophale) SiO2 
 PCOD9520061
Probable space group: I M M M
;
_chemical_formula_sum "Si O2"
_cell_formula_units_Z 90
_cell_length_a 19.832647
_cell_length_b 28.795694
_cell_length_c 7.560158
_cell_angle_alpha 90.000000
_cell_angle_beta 90.000000
_cell_angle_gamma 90.000000
_cell_volume 4317.567180
_symmetry_space_group_name_H-M "I M M M"
_symmetry_group_IT_number 71
_symmetry_cell_setting 'orthorhombic'
loop_
_space_group_symop_operation_xyz
x,y,z
-x,-y,z
x,-y,-z
-x,y,-z
-x,-y,-z
x,y,-z
-x,y,z
x,-y,z
1/2+x,1/2+y,1/2+z
1/2-x,1/2-y,1/2+z
1/2+x,1/2-y,1/2-z
1/2-x,1/2+y,1/2-z
1/2-x,1/2-y,1/2-z
1/2+x,1/2+y,1/2-z
1/2-x,1/2+y,1/2+z
1/2+x,1/2-y,1/2+z
loop_
_atom_site_type_symbol
_atom_site_label
_atom_site_fract_x
_atom_site_fract_y
_atom_site_fract_z
Si Si1 0.000000 0.000000 0.000000
Si Si2 0.386064 0.500000 0.193009
Si Si3 0.179873 0.369044 0.213701
Si Si4 0.326628 0.764861 0.287882
Si Si5 0.077708 0.181662 0.783299
Si Si6 0.830123 0.903181 0.209227
Si Si7 0.077491 0.447713 0.784198
O O1 0.941179 0.000000 0.153930
O O2 0.341407 0.546444 0.209460
O O3 0.418130 0.500000 0.000000
O O4 0.163344 0.317227 0.278897
O O5 0.255975 0.382845 0.260223
O O6 0.128186 0.408184 0.277911
O O7 0.175749 0.368098 0.000000
O O8 0.334270 0.766074 0.500000
O O9 0.250000 0.750000 0.250000
O O10 0.378793 0.726002 0.222815
O O11 0.115443 0.134680 0.726146
O O12 0.000000 0.183330 0.728260
O O13 0.078558 0.181648 0.000000
O O14 0.840586 0.908293 0.000000
O O15 0.096645 0.500000 0.729092
O O16 0.000000 0.439273 0.731303
O O17 0.078441 0.447385 0.000000
#
# Coordination Sequence:
#
# PCOD9520061 Si02
#       7
#     2   8  16  16  16  16  16
#     4  12  26  52  68  98 132 176 208 272 320 390
#     4  12  27  45  69  96 130 170 217 267 320 381
#     4  10  20  32  55  86 116 152 200 256 311 380
#     4  10  19  34  53  79 112 147 191 247 304 365
#     4   9  19  34  57  82 112 157 205 254 312 374
#     4  11  22  39  61  87 124 164 208 259 314 379
#     4   8  15  29  49  77 113 149 185 237 304 368
#
# _framework density 20.845074
#
# number of rings (size 3 to 8) (size 9 to 14) (size 15 to 20)
#    0.000    2.133    2.667    1.200    2.489    0.711 
#    0.000    3.556    0.000    3.200    0.000    3.733 
#    0.000    0.000    0.000    0.000    0.000    0.000 
#
# Total GULP energy -251152.824437 kJ/mol
# GULP energy per Si atom -5581.173876 kJ/mol
# Density = 2.079763 g / cm^3
# Si number density = 20.845074 Si / 1000 Ang^3
#
#
#
# Elastic Constant Matrix: (Units=GPa)
#
#
# Indices 1 2 3 4 5 6 
#
# 1 146.9852 121.0820 1.0521 0.0000 0.0000 0.0000
# 2 121.0820 226.1493 16.4717 0.0000 0.0000 0.0000
# 3 1.0521 16.4717 76.4026 0.0000 0.0000 0.0000
# 4 0.0000 0.0000 0.0000 -1.6767 0.0000 0.0000
# 5 0.0000 0.0000 0.0000 0.0000 23.1659 0.0000
# 6 0.0000 0.0000 0.0000 0.0000 0.0000 -9.9074
#
#
#
# Elastic Compliance Matrix: (Units=1/GPa)
#
#
# Indices 1 2 3 4 5 6 
#
# 1 0.012292 -0.006674 0.001269 0.000000 0.000000 0.000000
# 2 -0.006674 0.008116 -0.001658 0.000000 0.000000 0.000000
# 3 0.001269 -0.001658 0.013428 0.000000 0.000000 0.000000
# 4 0.000000 0.000000 0.000000 -0.596426 0.000000 0.000000
# 5 0.000000 0.000000 0.000000 0.000000 0.043167 0.000000
# 6 0.000000 0.000000 0.000000 0.000000 0.000000 -0.100935
#
#
# Mechanical properties :
#
#
# Convention : Reuss Voigt Hill
#
# Bulk Modulus (GPa) = 50.72983 80.74986 65.73985
# Shear Modulus (GPa) = -8.33801 23.04512 7.35355
#
# Velocity S-wave (km/s) = -2.00217 3.32858 1.88026
# Velocity P-wave (km/s) = 4.36400 7.32084 6.02658
#
# Compressibility (1/GPa) = 0.01971227
#
# Stress axis : x y z
#
# Youngs Moduli (GPa) = 81.35482 123.21799 74.46857
#
# Poissons Ratio (x) = 0.82231 -0.09454
# Poissons Ratio (y) = 0.54293 0.12345
# Poissons Ratio (z) = -0.10328 0.20427
#
# Static dielectric constant tensor:
#      x y z
#    x 1.682440 0.000000 0.000000 
#    y 0.000000 1.739430 0.000000 
#    z 0.000000 0.000000 1.782710 
# 
# From -- ./inp_files/10531.got.cif
#   From: 2010.05.17/outbox.cif.g08.bks.cpg/sg71_6_cif.got.tgz:10531.got - 2010.06.03 16:22:01.
