data_PCOD9520915
_publ_section_title
;
Structure prediction by ZEFSAII (Michael W. Deem and Ramdas Pophale) SiO2 
 PCOD9520915
Probable space group: I M M M
;
_chemical_formula_sum "Si O2"
_cell_formula_units_Z 104
_cell_length_a 28.980673
_cell_length_b 21.776085
_cell_length_c 8.102799
_cell_angle_alpha 90.000000
_cell_angle_beta 90.000000
_cell_angle_gamma 90.000000
_cell_volume 5113.559757
_symmetry_space_group_name_H-M "I M M M"
_symmetry_group_IT_number 71
_symmetry_cell_setting 'orthorhombic'
loop_
_space_group_symop_operation_xyz
x,y,z
-x,-y,z
x,-y,-z
-x,y,-z
-x,-y,-z
x,y,-z
-x,y,z
x,-y,z
1/2+x,1/2+y,1/2+z
1/2-x,1/2-y,1/2+z
1/2+x,1/2-y,1/2-z
1/2-x,1/2+y,1/2-z
1/2-x,1/2-y,1/2-z
1/2+x,1/2+y,1/2-z
1/2-x,1/2+y,1/2+z
1/2+x,1/2-y,1/2+z
loop_
_atom_site_type_symbol
_atom_site_label
_atom_site_fract_x
_atom_site_fract_y
_atom_site_fract_z
Si Si1 0.052382 0.000000 0.303432
Si Si2 0.124654 0.898952 0.199531
Si Si3 0.375864 0.070908 0.194719
Si Si4 0.868727 0.758776 0.201925
Si Si5 0.447413 0.837265 0.699748
Si Si6 0.274093 0.566377 0.302373
Si Si7 0.201543 0.662297 0.189637
O O1 0.081806 0.059510 0.251229
O O2 0.049879 0.000000 0.500000
O O3 0.000000 0.000000 0.236790
O O4 0.124372 0.828375 0.256024
O O5 0.173366 0.927136 0.256636
O O6 0.125311 0.898900 0.000000
O O7 0.425534 0.100825 0.227782
O O8 0.339590 0.112319 0.293482
O O9 0.374009 0.000000 0.242036
O O10 0.364393 0.075834 0.000000
O O11 0.912529 0.717162 0.249845
O O12 0.822009 0.724165 0.260820
O O13 0.866763 0.758499 0.000000
O O14 0.446141 0.840986 0.500000
O O15 0.500000 0.827004 0.750700
O O16 0.274950 0.563400 0.500000
O O17 0.254766 0.500000 0.243097
O O18 0.245029 0.626940 0.262748
O O19 0.212180 0.674584 0.000000
#
# Coordination Sequence:
#
# PCOD9520915 Si02
#       7
#     8  16  16  16  16  16  16
#     4  11  25  43  61  87 123 151 179 233 294 341
#     4  10  20  39  64  86 109 146 188 225 271 330
#     4  10  20  33  49  71 102 140 183 231 274 316
#     4   8  17  34  56  81 110 140 182 233 272 323
#     4   9  18  33  52  75 104 137 174 222 279 332
#     4  10  20  34  53  81 115 147 184 230 273 319
#     4  10  20  34  53  80 110 146 186 224 272 329
#
# _framework density 20.338082
#
# number of rings (size 3 to 8) (size 9 to 14) (size 15 to 20)
#    0.000    2.385    0.769    2.538    0.000    6.462 
#    0.000    6.923    0.000    0.000    0.000    0.000 
#    0.000    0.000    0.000    0.000    0.000    0.000 
#
# Total GULP energy -290100.809990 kJ/mol
# GULP energy per Si atom -5578.861731 kJ/mol
# Density = 2.029179 g / cm^3
# Si number density = 20.338082 Si / 1000 Ang^3
#
#
#
# Elastic Constant Matrix: (Units=GPa)
#
#
# Indices 1 2 3 4 5 6 
#
# 1 120.5847 48.8481 4.2884 0.0000 0.0000 0.0000
# 2 48.8481 143.4734 4.0666 0.0000 0.0000 0.0000
# 3 4.2884 4.0666 10.1135 0.0000 0.0000 0.0000
# 4 0.0000 0.0000 0.0000 7.7627 0.0000 0.0000
# 5 0.0000 0.0000 0.0000 0.0000 23.9573 0.0000
# 6 0.0000 0.0000 0.0000 0.0000 0.0000 7.7497
#
#
#
# Elastic Compliance Matrix: (Units=1/GPa)
#
#
# Indices 1 2 3 4 5 6 
#
# 1 0.009698 -0.003222 -0.002817 0.000000 0.000000 0.000000
# 2 -0.003222 0.008121 -0.001899 0.000000 0.000000 0.000000
# 3 -0.002817 -0.001899 0.100835 0.000000 0.000000 0.000000
# 4 0.000000 0.000000 0.000000 0.128821 0.000000 0.000000
# 5 0.000000 0.000000 0.000000 0.000000 0.041741 0.000000
# 6 0.000000 0.000000 0.000000 0.000000 0.000000 0.129038
#
#
# Mechanical properties :
#
#
# Convention : Reuss Voigt Hill
#
# Bulk Modulus (GPa) = 9.72966 43.17532 26.45249
# Shear Modulus (GPa) = 10.67487 22.35850 16.51668
#
# Velocity S-wave (km/s) = 2.29349 3.31923 2.85284
# Velocity P-wave (km/s) = 3.43625 5.99705 4.88735
#
# Compressibility (1/GPa) = 0.10277856
#
# Stress axis : x y z
#
# Youngs Moduli (GPa) = 103.11008 123.14060 9.91716
#
# Poissons Ratio (x) = 0.39678 0.02793
# Poissons Ratio (y) = 0.33224 0.01883
# Poissons Ratio (z) = 0.29044 0.23385
#
# Static dielectric constant tensor:
#      x y z
#    x 1.729290 0.000000 0.000000 
#    y 0.000000 1.733760 0.000000 
#    z 0.000000 0.000000 1.730500 
# 
# From -- ./inp_files/15022.got.cif
#   From: 2010.05.17/outbox.cif.g08.bks.cpg/sg71_8_cif.got.tgz:15022.got - 2010.06.03 16:22:01.
