data_PCOD9520724
_publ_section_title
;
Structure prediction by ZEFSAII (Michael W. Deem and Ramdas Pophale) SiO2 
 PCOD9520724
Probable space group: I M M M
;
_chemical_formula_sum "Si O2"
_cell_formula_units_Z 72
_cell_length_a 19.472928
_cell_length_b 8.883294
_cell_length_c 28.431255
_cell_angle_alpha 90.000000
_cell_angle_beta 90.000000
_cell_angle_gamma 90.000000
_cell_volume 4918.144950
_symmetry_space_group_name_H-M "I M M M"
_symmetry_group_IT_number 71
_symmetry_cell_setting 'orthorhombic'
loop_
_space_group_symop_operation_xyz
x,y,z
-x,-y,z
x,-y,-z
-x,y,-z
-x,-y,-z
x,y,-z
-x,y,z
x,-y,z
1/2+x,1/2+y,1/2+z
1/2-x,1/2-y,1/2+z
1/2+x,1/2-y,1/2-z
1/2-x,1/2+y,1/2-z
1/2-x,1/2-y,1/2-z
1/2+x,1/2+y,1/2-z
1/2-x,1/2+y,1/2+z
1/2+x,1/2-y,1/2+z
loop_
_atom_site_type_symbol
_atom_site_label
_atom_site_fract_x
_atom_site_fract_y
_atom_site_fract_z
Si Si1 0.631475 0.319240 0.601614
Si Si2 0.218386 0.320978 0.822165
Si Si3 0.500000 0.823354 0.764919
Si Si4 0.000000 0.322309 0.847952
Si Si5 0.856384 0.179062 0.732219
Si Si6 0.920033 0.817021 0.000000
O O1 0.632738 0.500000 0.603775
O O2 0.696762 0.252521 0.628732
O O3 0.566205 0.256829 0.630143
O O4 0.618776 0.272078 0.547638
O O5 0.206980 0.500000 0.823913
O O6 0.170715 0.253325 0.780659
O O7 0.296401 0.292178 0.805814
O O8 0.500000 0.806861 0.708175
O O9 0.570303 0.746531 0.781524
O O10 0.500000 0.000000 0.776045
O O11 0.000000 0.500000 0.859124
O O12 0.861862 0.000000 0.739329
O O13 0.000000 0.765868 0.000000
O O14 0.922669 0.000000 0.000000
#
# Coordination Sequence:
#
# PCOD9520724 Si02
#       6
#    16  16   8   8  16   8
#     4  11  20  32  50  65  86 123 160 194 230 272
#     4  10  20  33  46  66  93 118 151 194 230 268
#     4  11  21  31  46  68  96 120 151 197 229 264
#     4  11  21  30  42  65  93 121 153 195 234 267
#     4  10  20  32  48  66  89 122 155 185 226 277
#     4   9  18  32  46  66  92 117 156 199 228 262
#
# _framework density 14.639666
#
# number of rings (size 3 to 8) (size 9 to 14) (size 15 to 20)
#    0.000    1.667    3.333    2.667    0.000    3.556 
#    0.000    2.778    0.000    0.000    0.000    0.000 
#    0.000    0.889    0.000   10.000    0.000    4.444 
#
# Total GULP energy -200906.709974 kJ/mol
# GULP energy per Si atom -5580.741944 kJ/mol
# Density = 1.460635 g / cm^3
# Si number density = 14.639666 Si / 1000 Ang^3
#
#
#
# Elastic Constant Matrix: (Units=GPa)
#
#
# Indices 1 2 3 4 5 6 
#
# 1 112.6439 55.1547 47.7396 0.0000 0.0000 0.0000
# 2 55.1547 68.3321 43.8523 0.0000 0.0000 0.0000
# 3 47.7396 43.8523 89.7266 0.0000 0.0000 0.0000
# 4 0.0000 0.0000 0.0000 18.0127 0.0000 0.0000
# 5 0.0000 0.0000 0.0000 0.0000 16.9838 0.0000
# 6 0.0000 0.0000 0.0000 0.0000 0.0000 26.3044
#
#
#
# Elastic Compliance Matrix: (Units=1/GPa)
#
#
# Indices 1 2 3 4 5 6 
#
# 1 0.015232 -0.010335 -0.003053 0.000000 0.000000 0.000000
# 2 -0.010335 0.028335 -0.008349 0.000000 0.000000 0.000000
# 3 -0.003053 -0.008349 0.016850 0.000000 0.000000 0.000000
# 4 0.000000 0.000000 0.000000 0.055516 0.000000 0.000000
# 5 0.000000 0.000000 0.000000 0.000000 0.058880 0.000000
# 6 0.000000 0.000000 0.000000 0.000000 0.000000 0.038016
#
#
# Mechanical properties :
#
#
# Convention : Reuss Voigt Hill
#
# Bulk Modulus (GPa) = 59.02648 62.68842 60.85745
# Shear Modulus (GPa) = 19.08754 20.52393 19.80573
#
# Velocity S-wave (km/s) = 3.61477 3.74831 3.68214
# Velocity P-wave (km/s) = 7.60455 7.85156 7.72904
#
# Compressibility (1/GPa) = 0.01694155
#
# Stress axis : x y z
#
# Youngs Moduli (GPa) = 65.65125 35.29253 59.34771
#
# Poissons Ratio (x) = 0.36476 0.18119
# Poissons Ratio (y) = 0.67852 0.49550
# Poissons Ratio (z) = 0.20044 0.29466
#
# Static dielectric constant tensor:
#      x y z
#    x 1.497590 0.000000 0.000000 
#    y 0.000000 1.490720 0.000000 
#    z 0.000000 0.000000 1.474630 
# 
# From -- ./inp_files/14497.got.cif
#   From: 2010.05.17/outbox.cif.g08.bks.cpg/sg71_8_cif.got.tgz:14497.got - 2010.06.03 16:22:01.
