data_PCOD9520344
_publ_section_title
;
Structure prediction by ZEFSAII (Michael W. Deem and Ramdas Pophale) SiO2 
 PCOD9520344
Probable space group: I M M M
;
_chemical_formula_sum "Si O2"
_cell_formula_units_Z 88
_cell_length_a 20.094597
_cell_length_b 28.817349
_cell_length_c 7.757603
_cell_angle_alpha 90.000000
_cell_angle_beta 90.000000
_cell_angle_gamma 90.000000
_cell_volume 4492.218557
_symmetry_space_group_name_H-M "I M M M"
_symmetry_group_IT_number 71
_symmetry_cell_setting 'orthorhombic'
loop_
_space_group_symop_operation_xyz
x,y,z
-x,-y,z
x,-y,-z
-x,y,-z
-x,-y,-z
x,y,-z
-x,y,z
x,-y,z
1/2+x,1/2+y,1/2+z
1/2-x,1/2-y,1/2+z
1/2+x,1/2-y,1/2-z
1/2-x,1/2+y,1/2-z
1/2-x,1/2-y,1/2-z
1/2+x,1/2+y,1/2-z
1/2-x,1/2+y,1/2+z
1/2+x,1/2-y,1/2+z
loop_
_atom_site_type_symbol
_atom_site_label
_atom_site_fract_x
_atom_site_fract_y
_atom_site_fract_z
Si Si1 0.164439 0.289713 0.790352
Si Si2 0.329776 0.414310 0.292417
Si Si3 0.684931 0.947779 0.207667
Si Si4 0.815592 0.187372 0.795241
Si Si5 0.924603 0.000000 0.294911
Si Si6 0.925608 0.627494 0.792941
O O1 0.157839 0.236694 0.727102
O O2 0.235942 0.309649 0.732624
O O3 0.107243 0.324482 0.731027
O O4 0.165485 0.289056 0.000000
O O5 0.325593 0.411358 0.500000
O O6 0.256849 0.430195 0.228680
O O7 0.342157 0.361832 0.227019
O O8 0.383476 0.453899 0.254292
O O9 0.625696 0.913381 0.253114
O O10 0.672984 0.000000 0.270240
O O11 0.689093 0.949119 0.000000
O O12 0.828231 0.187754 0.000000
O O13 0.928820 0.000000 0.500000
O O14 0.000000 0.000000 0.223924
O O15 0.000000 0.619761 0.725841
O O16 0.929400 0.630721 0.000000
#
# Coordination Sequence:
#
# PCOD9520344 Si02
#       6
#    16  16  16  16   8  16
#     4   9  17  30  49  76 107 138 173 214 264 313
#     4  10  19  35  58  83 109 138 176 221 265 315
#     4  10  20  35  54  77 104 134 175 224 266 309
#     4   9  17  30  52  80 106 132 171 221 263 307
#     4  11  25  41  57  81 112 143 174 213 267 328
#     4  10  21  35  50  72 107 146 180 217 262 314
#
# _framework density 19.58943
#
# number of rings (size 3 to 8) (size 9 to 14) (size 15 to 20)
#    0.000    2.273    2.727    0.273    0.000    3.273 
#    0.000    2.727    0.000    3.273    0.000    0.000 
#    0.000    0.000    0.000    0.000    0.000    0.000 
#
# Total GULP energy -245450.349819 kJ/mol
# GULP energy per Si atom -5578.417041 kJ/mol
# Density = 1.954484 g / cm^3
# Si number density = 19.589430 Si / 1000 Ang^3
#
#
#
# Elastic Constant Matrix: (Units=GPa)
#
#
# Indices 1 2 3 4 5 6 
#
# 1 125.4738 91.7255 -7.1000 0.0000 0.0000 0.0000
# 2 91.7255 207.7890 4.1451 0.0000 0.0000 0.0000
# 3 -7.1000 4.1451 20.5254 0.0000 0.0000 0.0000
# 4 0.0000 0.0000 0.0000 16.8439 0.0000 0.0000
# 5 0.0000 0.0000 0.0000 0.0000 14.2683 0.0000
# 6 0.0000 0.0000 0.0000 0.0000 0.0000 14.7083
#
#
#
# Elastic Compliance Matrix: (Units=1/GPa)
#
#
# Indices 1 2 3 4 5 6 
#
# 1 0.012333 -0.005552 0.005387 0.000000 0.000000 0.000000
# 2 -0.005552 0.007331 -0.003401 0.000000 0.000000 0.000000
# 3 0.005387 -0.003401 0.051271 0.000000 0.000000 0.000000
# 4 0.000000 0.000000 0.000000 0.059369 0.000000 0.000000
# 5 0.000000 0.000000 0.000000 0.000000 0.070086 0.000000
# 6 0.000000 0.000000 0.000000 0.000000 0.000000 0.067989
#
#
# Mechanical properties :
#
#
# Convention : Reuss Voigt Hill
#
# Bulk Modulus (GPa) = 15.67293 59.03659 37.35476
# Shear Modulus (GPa) = 16.84767 26.83193 21.83980
#
# Velocity S-wave (km/s) = 2.93582 3.70498 3.34260
# Velocity P-wave (km/s) = 4.41703 6.96455 5.83160
#
# Compressibility (1/GPa) = 0.06380430
#
# Stress axis : x y z
#
# Youngs Moduli (GPa) = 81.08212 136.40386 19.50435
#
# Poissons Ratio (x) = 0.75728 -0.10508
# Poissons Ratio (y) = 0.45015 0.06633
# Poissons Ratio (z) = -0.43682 0.46390
#
# Static dielectric constant tensor:
#      x y z
#    x 1.659810 0.000000 0.000000 
#    y 0.000000 1.721860 0.000000 
#    z 0.000000 0.000000 1.735860 
# 
# From -- ./inp_files/8799.got.cif
#   From: 2010.05.17/outbox.cif.g08.bks.cpg/sg71_5_cif.got.tgz:8799.got - 2010.06.03 16:22:01.
