data_PCOD9520300
_publ_section_title
;
Structure prediction by ZEFSAII (Michael W. Deem and Ramdas Pophale) SiO2 
 PCOD9520300
Probable space group: I M M M
;
_chemical_formula_sum "Si O2"
_cell_formula_units_Z 104
_cell_length_a 29.138797
_cell_length_b 10.883515
_cell_length_c 16.274664
_cell_angle_alpha 90.000000
_cell_angle_beta 90.000000
_cell_angle_gamma 90.000000
_cell_volume 5161.225438
_symmetry_space_group_name_H-M "I M M M"
_symmetry_group_IT_number 71
_symmetry_cell_setting 'orthorhombic'
loop_
_space_group_symop_operation_xyz
x,y,z
-x,-y,z
x,-y,-z
-x,y,-z
-x,-y,-z
x,y,-z
-x,y,z
x,-y,z
1/2+x,1/2+y,1/2+z
1/2-x,1/2-y,1/2+z
1/2+x,1/2-y,1/2-z
1/2-x,1/2+y,1/2-z
1/2-x,1/2-y,1/2-z
1/2+x,1/2+y,1/2-z
1/2-x,1/2+y,1/2+z
1/2+x,1/2-y,1/2+z
loop_
_atom_site_type_symbol
_atom_site_label
_atom_site_fract_x
_atom_site_fract_y
_atom_site_fract_z
Si Si1 0.948888 0.367837 0.225750
Si Si2 0.187687 0.858332 0.179347
Si Si3 0.552322 0.500000 0.400495
Si Si4 0.155354 0.860647 0.630844
Si Si5 0.220880 0.640698 0.592169
Si Si6 0.948586 0.861478 0.347413
Si Si7 0.893468 0.750872 0.904375
O O1 0.943250 0.500000 0.268441
O O2 0.946068 0.252382 0.285662
O O3 0.913370 0.353559 0.153029
O O4 0.000000 0.364004 0.189325
O O5 0.166382 0.848821 0.270768
O O6 0.241249 0.834261 0.162560
O O7 0.158786 0.773662 0.119006
O O8 0.181155 0.000000 0.153601
O O9 0.500000 0.500000 0.369628
O O10 0.550375 0.500000 0.500000
O O11 0.579335 0.623898 0.379034
O O12 0.182771 0.746134 0.594698
O O13 0.101105 0.853614 0.609229
O O14 0.170611 0.000000 0.608168
O O15 0.241973 0.643452 0.500000
O O16 0.203602 0.500000 0.604110
O O17 0.000000 0.853440 0.387451
O O18 0.947419 0.000000 0.309849
O O19 0.900479 0.729791 0.000000
#
# Coordination Sequence:
#
# PCOD9520300 Si02
#       7
#    16  16   8  16  16  16  16
#     4  10  21  34  47  68 103 147 189 230 278 329
#     4  10  19  35  56  83 114 146 187 235 285 332
#     4   9  18  28  42  70 100 134 185 237 278 314
#     4  10  20  36  60  89 118 147 182 229 284 336
#     4  10  22  39  60  85 114 150 191 233 280 338
#     4   9  18  34  58  86 114 144 182 228 278 335
#     4  11  20  31  48  70 102 144 189 237 280 325
#
# _framework density 20.150252999999999
#
# number of rings (size 3 to 8) (size 9 to 14) (size 15 to 20)
#    0.000    2.077    2.308    1.385    1.077    2.769 
#    0.000    1.538    0.000    2.308    0.000    3.231 
#    0.000    0.000    0.000    0.000    0.000    0.000 
#
# Total GULP energy -289650.760497 kJ/mol
# GULP energy per Si atom -5570.206933 kJ/mol
# Density = 2.010439 g / cm^3
# Si number density = 20.150253 Si / 1000 Ang^3
#
#
#
# Elastic Constant Matrix: (Units=GPa)
#
#
# Indices 1 2 3 4 5 6 
#
# 1 101.2101 51.4885 9.7817 0.0000 0.0000 0.0000
# 2 51.4885 107.5256 15.7178 0.0000 0.0000 0.0000
# 3 9.7817 15.7178 28.3912 0.0000 0.0000 0.0000
# 4 0.0000 0.0000 0.0000 16.5326 0.0000 0.0000
# 5 0.0000 0.0000 0.0000 0.0000 15.8613 0.0000
# 6 0.0000 0.0000 0.0000 0.0000 0.0000 26.7236
#
#
#
# Elastic Compliance Matrix: (Units=1/GPa)
#
#
# Indices 1 2 3 4 5 6 
#
# 1 0.013096 -0.006105 -0.001132 0.000000 0.000000 0.000000
# 2 -0.006105 0.012965 -0.005074 0.000000 0.000000 0.000000
# 3 -0.001132 -0.005074 0.038421 0.000000 0.000000 0.000000
# 4 0.000000 0.000000 0.000000 0.060487 0.000000 0.000000
# 5 0.000000 0.000000 0.000000 0.000000 0.063047 0.000000
# 6 0.000000 0.000000 0.000000 0.000000 0.000000 0.037420
#
#
# Mechanical properties :
#
#
# Convention : Reuss Voigt Hill
#
# Bulk Modulus (GPa) = 25.08823 43.45590 34.27206
# Shear Modulus (GPa) = 18.98642 22.49940 20.74291
#
# Velocity S-wave (km/s) = 3.07293 3.34515 3.21193
# Velocity P-wave (km/s) = 5.00681 6.04424 5.54982
#
# Compressibility (1/GPa) = 0.03985934
#
# Stress axis : x y z
#
# Youngs Moduli (GPa) = 76.35997 77.12794 26.02715
#
# Poissons Ratio (x) = 0.47090 0.02946
# Poissons Ratio (y) = 0.46621 0.13207
# Poissons Ratio (z) = 0.08643 0.39137
#
# Static dielectric constant tensor:
#      x y z
#    x 1.759340 0.000000 0.000000 
#    y 0.000000 1.714700 0.000000 
#    z 0.000000 0.000000 1.722150 
# 
# From -- ./inp_files/48859.got.cif
#   From: 2010.05.17/outbox.cif.g08.bks.cpg/sg71_25_cif.got.tgz:48859.got - 2010.06.03 16:22:01.
