data_PCOD9520271
_publ_section_title
;
Structure prediction by ZEFSAII (Michael W. Deem and Ramdas Pophale) SiO2 
 PCOD9520271
Probable space group: I M M M
;
_chemical_formula_sum "Si O2"
_cell_formula_units_Z 88
_cell_length_a 30.523162
_cell_length_b 8.539825
_cell_length_c 19.279335
_cell_angle_alpha 90.000000
_cell_angle_beta 90.000000
_cell_angle_gamma 90.000000
_cell_volume 5025.398925
_symmetry_space_group_name_H-M "I M M M"
_symmetry_group_IT_number 71
_symmetry_cell_setting 'orthorhombic'
loop_
_space_group_symop_operation_xyz
x,y,z
-x,-y,z
x,-y,-z
-x,y,-z
-x,-y,-z
x,y,-z
-x,y,z
x,-y,z
1/2+x,1/2+y,1/2+z
1/2-x,1/2-y,1/2+z
1/2+x,1/2-y,1/2-z
1/2-x,1/2+y,1/2-z
1/2-x,1/2-y,1/2-z
1/2+x,1/2+y,1/2-z
1/2-x,1/2+y,1/2+z
1/2+x,1/2-y,1/2+z
loop_
_atom_site_type_symbol
_atom_site_label
_atom_site_fract_x
_atom_site_fract_y
_atom_site_fract_z
Si Si1 0.760086 0.185153 0.852972
Si Si2 0.153570 0.180736 0.500000
Si Si3 0.760268 0.681933 0.000000
Si Si4 0.096639 0.190286 0.079995
Si Si5 0.338900 0.311433 0.149880
Si Si6 0.154229 0.685026 0.794192
Si Si7 0.500000 0.322075 0.583727
O O1 0.774527 0.228774 0.931268
O O2 0.710884 0.248521 0.847171
O O3 0.794822 0.269372 0.804033
O O4 0.761170 0.000000 0.841624
O O5 0.206939 0.181036 0.500000
O O6 0.141631 0.246993 0.575841
O O7 0.138886 0.000000 0.500000
O O8 0.774283 0.500000 0.000000
O O9 0.129281 0.247598 0.139013
O O10 0.047442 0.248206 0.099804
O O11 0.095918 0.000000 0.079787
O O12 0.106590 0.238424 0.000000
O O13 0.337389 0.500000 0.147660
O O14 0.361144 0.256503 0.220859
O O15 0.149799 0.500000 0.792220
O O16 0.500000 0.500000 0.611700
O O17 0.500000 0.333037 0.500000
#
# Coordination Sequence:
#
# PCOD9520271 Si02
#       7
#    16   8   8  16  16  16   8
#     4  11  21  33  48  66  90 126 167 207 252 298
#     4   7  14  29  51  69  83 108 147 196 243 287
#     4   9  17  31  47  65  87 116 157 202 243 287
#     4   9  18  34  55  77 100 128 165 204 248 297
#     4  10  19  35  53  70  92 122 162 207 255 300
#     4  12  24  34  45  67 100 132 164 203 246 290
#     4   7  12  28  55  79  97 122 157 200 245 297
#
# _framework density 17.511049
#
# number of rings (size 3 to 8) (size 9 to 14) (size 15 to 20)
#    0.000    2.273    0.000    6.818    1.273    0.364 
#    0.000    1.818    0.000    1.636    0.000    0.000 
#    0.000    0.727    0.000    8.364    0.000    3.273 
#
# Total GULP energy -245250.168595 kJ/mol
# GULP energy per Si atom -5573.867468 kJ/mol
# Density = 1.747119 g / cm^3
# Si number density = 17.511049 Si / 1000 Ang^3
#
#
#
# Elastic Constant Matrix: (Units=GPa)
#
#
# Indices 1 2 3 4 5 6 
#
# 1 38.2633 7.2648 24.1043 0.0000 0.0000 0.0000
# 2 7.2648 55.2786 27.5812 0.0000 0.0000 0.0000
# 3 24.1043 27.5812 151.1060 0.0000 0.0000 0.0000
# 4 0.0000 0.0000 0.0000 19.8717 0.0000 0.0000
# 5 0.0000 0.0000 0.0000 0.0000 12.9220 0.0000
# 6 0.0000 0.0000 0.0000 0.0000 0.0000 5.8990
#
#
#
# Elastic Compliance Matrix: (Units=1/GPa)
#
#
# Indices 1 2 3 4 5 6 
#
# 1 0.029193 -0.001665 -0.004353 0.000000 0.000000 0.000000
# 2 -0.001665 0.019998 -0.003385 0.000000 0.000000 0.000000
# 3 -0.004353 -0.003385 0.007930 0.000000 0.000000 0.000000
# 4 0.000000 0.000000 0.000000 0.050323 0.000000 0.000000
# 5 0.000000 0.000000 0.000000 0.000000 0.077387 0.000000
# 6 0.000000 0.000000 0.000000 0.000000 0.000000 0.169520
#
#
# Mechanical properties :
#
#
# Convention : Reuss Voigt Hill
#
# Bulk Modulus (GPa) = 26.09866 40.28317 33.19092
# Shear Modulus (GPa) = 12.95582 20.11839 16.53710
#
# Velocity S-wave (km/s) = 2.72300 3.39322 3.07641
# Velocity P-wave (km/s) = 4.98224 6.19728 5.62268
#
# Compressibility (1/GPa) = 0.03831614
#
# Stress axis : x y z
#
# Youngs Moduli (GPa) = 34.25486 50.00575 126.10270
#
# Poissons Ratio (x) = 0.08324 0.54892
# Poissons Ratio (y) = 0.05702 0.42681
# Poissons Ratio (z) = 0.14911 0.16925
#
# Static dielectric constant tensor:
#      x y z
#    x 1.605970 0.000000 0.000000 
#    y 0.000000 1.594330 0.000000 
#    z 0.000000 0.000000 1.709160 
# 
# From -- ./inp_files/49286.got.cif
#   From: 2010.05.17/outbox.cif.g08.bks.cpg/sg71_25_cif.got.tgz:49286.got - 2010.06.03 16:22:01.
