data_PCOD9520925
_publ_section_title
;
Structure prediction by ZEFSAII (Michael W. Deem and Ramdas Pophale) SiO2 
 PCOD9520925
Probable space group: I M M M
;
_chemical_formula_sum "Si O2"
_cell_formula_units_Z 104
_cell_length_a 24.412677
_cell_length_b 9.010123
_cell_length_c 28.946728
_cell_angle_alpha 90.000000
_cell_angle_beta 90.000000
_cell_angle_gamma 90.000000
_cell_volume 6367.157679
_symmetry_space_group_name_H-M "I M M M"
_symmetry_group_IT_number 71
_symmetry_cell_setting 'orthorhombic'
loop_
_space_group_symop_operation_xyz
x,y,z
-x,-y,z
x,-y,-z
-x,y,-z
-x,-y,-z
x,y,-z
-x,y,z
x,-y,z
1/2+x,1/2+y,1/2+z
1/2-x,1/2-y,1/2+z
1/2+x,1/2-y,1/2-z
1/2-x,1/2+y,1/2-z
1/2-x,1/2-y,1/2-z
1/2+x,1/2+y,1/2-z
1/2-x,1/2+y,1/2+z
1/2+x,1/2-y,1/2+z
loop_
_atom_site_type_symbol
_atom_site_label
_atom_site_fract_x
_atom_site_fract_y
_atom_site_fract_z
Si Si1 0.360325 0.678215 0.946267
Si Si2 0.937250 0.819683 0.000000
Si Si3 0.434978 0.822834 0.677580
Si Si4 0.266818 0.177468 0.554293
Si Si5 0.872071 0.821792 0.092327
Si Si6 0.935329 0.676968 0.369241
Si Si7 0.933517 0.829299 0.273555
O O1 0.366615 0.500000 0.942110
O O2 0.296631 0.713130 0.935842
O O3 0.400562 0.759142 0.911397
O O4 0.370590 0.716982 0.000000
O O5 0.905751 0.774401 0.046381
O O6 0.000000 0.767771 0.000000
O O7 0.937978 0.000000 0.000000
O O8 0.500000 0.790033 0.671297
O O9 0.400896 0.748218 0.636744
O O10 0.417614 0.757473 0.727229
O O11 0.428452 0.000000 0.677142
O O12 0.276380 0.212300 0.500000
O O13 0.310603 0.263894 0.584727
O O14 0.273852 0.000000 0.559778
O O15 0.873262 0.000000 0.095253
O O16 0.929886 0.500000 0.366194
O O17 0.916671 0.750543 0.321016
O O18 0.000000 0.711412 0.375568
O O19 0.000000 0.828789 0.273917
O O20 0.915227 0.000000 0.272133
#
# Coordination Sequence:
#
# PCOD9520925 Si02
#       7
#    16   8  16  16  16  16  16
#     4   9  19  35  54  76 102 136 174 210 248 294
#     4   9  18  30  43  65  99 133 164 205 254 299
#     4  10  20  33  49  72 102 134 169 211 258 304
#     4   9  18  34  53  71  96 130 171 216 257 298
#     4  11  20  31  49  72  99 133 172 213 256 304
#     4  10  20  33  51  78 110 139 165 200 249 300
#     4   9  17  31  52  75  99 131 170 208 246 297
#
# _framework density 16.333818999999998
#
# number of rings (size 3 to 8) (size 9 to 14) (size 15 to 20)
#    0.000    2.385    0.769    3.231    0.000    5.538 
#    0.000    3.077    0.000    2.769    0.000    0.000 
#    0.000    0.000    0.000    0.000    0.000    0.000 
#
# Total GULP energy -290059.998692 kJ/mol
# GULP energy per Si atom -5578.076898 kJ/mol
# Density = 1.629664 g / cm^3
# Si number density = 16.333819 Si / 1000 Ang^3
#
#
#
# Elastic Constant Matrix: (Units=GPa)
#
#
# Indices 1 2 3 4 5 6 
#
# 1 78.5750 56.5276 79.7313 0.0000 0.0000 0.0000
# 2 56.5276 73.6156 73.1504 0.0000 0.0000 0.0000
# 3 79.7313 73.1504 153.6849 0.0000 0.0000 0.0000
# 4 0.0000 0.0000 0.0000 29.3149 0.0000 0.0000
# 5 0.0000 0.0000 0.0000 0.0000 7.0130 0.0000
# 6 0.0000 0.0000 0.0000 0.0000 0.0000 25.6994
#
#
#
# Elastic Compliance Matrix: (Units=1/GPa)
#
#
# Indices 1 2 3 4 5 6 
#
# 1 0.035317 -0.016911 -0.010273 0.000000 0.000000 0.000000
# 2 -0.016911 0.033872 -0.007349 0.000000 0.000000 0.000000
# 3 -0.010273 -0.007349 0.015334 0.000000 0.000000 0.000000
# 4 0.000000 0.000000 0.000000 0.034112 0.000000 0.000000
# 5 0.000000 0.000000 0.000000 0.000000 0.142592 0.000000
# 6 0.000000 0.000000 0.000000 0.000000 0.000000 0.038911
#
#
# Mechanical properties :
#
#
# Convention : Reuss Voigt Hill
#
# Bulk Modulus (GPa) = 64.69364 80.52156 72.60760
# Shear Modulus (GPa) = 13.35625 18.83655 16.09640
#
# Velocity S-wave (km/s) = 2.86266 3.39960 3.14262
# Velocity P-wave (km/s) = 7.11474 8.05072 7.59716
#
# Compressibility (1/GPa) = 0.01545747
#
# Stress axis : x y z
#
# Youngs Moduli (GPa) = 28.31530 29.52295 65.21248
#
# Poissons Ratio (x) = 0.49925 0.66994
# Poissons Ratio (y) = 0.47883 0.47925
# Poissons Ratio (z) = 0.29089 0.21697
#
# Static dielectric constant tensor:
#      x y z
#    x 1.533270 0.000000 0.000000 
#    y 0.000000 1.542760 0.000000 
#    z 0.000000 0.000000 1.527380 
# 
# From -- ./inp_files/15003.got.cif
#   From: 2010.05.17/outbox.cif.g08.bks.cpg/sg71_8_cif.got.tgz:15003.got - 2010.06.03 16:22:01.
