data_PCOD9520751
_publ_section_title
;
Structure prediction by ZEFSAII (Michael W. Deem and Ramdas Pophale) SiO2 
 PCOD9520751
Probable space group: I M M M
;
_chemical_formula_sum "Si O2"
_cell_formula_units_Z 104
_cell_length_a 29.086920
_cell_length_b 22.922000
_cell_length_c 8.389919
_cell_angle_alpha 90.000000
_cell_angle_beta 90.000000
_cell_angle_gamma 90.000000
_cell_volume 5593.813885
_symmetry_space_group_name_H-M "I M M M"
_symmetry_group_IT_number 71
_symmetry_cell_setting 'orthorhombic'
loop_
_space_group_symop_operation_xyz
x,y,z
-x,-y,z
x,-y,-z
-x,y,-z
-x,-y,-z
x,y,-z
-x,y,z
x,-y,z
1/2+x,1/2+y,1/2+z
1/2-x,1/2-y,1/2+z
1/2+x,1/2-y,1/2-z
1/2-x,1/2+y,1/2-z
1/2-x,1/2-y,1/2-z
1/2+x,1/2+y,1/2-z
1/2-x,1/2+y,1/2+z
1/2+x,1/2-y,1/2+z
loop_
_atom_site_type_symbol
_atom_site_label
_atom_site_fract_x
_atom_site_fract_y
_atom_site_fract_z
Si Si1 0.096791 0.569477 0.825991
Si Si2 0.228330 0.066987 0.690545
Si Si3 0.360829 0.635291 0.191228
Si Si4 0.817494 0.377963 0.313704
Si Si5 0.302793 0.252800 0.191051
Si Si6 0.947313 0.066675 0.192002
Si Si7 0.445464 0.068649 0.000000
O O1 0.088608 0.500000 0.829207
O O2 0.150279 0.582365 0.795387
O O3 0.072570 0.593952 0.667102
O O4 0.082608 0.592435 0.000000
O O5 0.234311 0.075153 0.500000
O O6 0.176609 0.085369 0.729139
O O7 0.264800 0.106825 0.780068
O O8 0.237061 0.000000 0.730391
O O9 0.335547 0.694699 0.249861
O O10 0.409818 0.613854 0.254213
O O11 0.364742 0.640176 0.000000
O O12 0.827717 0.388622 0.500000
O O13 0.824839 0.310172 0.275007
O O14 0.250000 0.250000 0.250000
O O15 0.299650 0.259246 0.000000
O O16 0.000000 0.079034 0.243748
O O17 0.935814 0.000000 0.245841
O O18 0.947275 0.065843 0.000000
O O19 0.500000 0.070686 0.000000
O O20 0.431138 0.000000 0.000000
#
# Coordination Sequence:
#
# PCOD9520751 Si02
#       7
#    16  16  16  16  16  16   8
#     4  10  20  34  54  81 112 146 184 227 280 339
#     4  10  20  32  48  73 106 143 178 218 271 327
#     4  10  20  35  54  78 109 143 184 232 277 328
#     4  11  21  33  51  75 106 144 187 228 275 331
#     4  10  21  36  54  76 105 142 188 231 269 322
#     4   9  19  36  57  82 112 144 180 227 284 343
#     4   9  18  34  56  82 112 142 176 224 276 330
#
# _framework density 18.591965999999999
#
# number of rings (size 3 to 8) (size 9 to 14) (size 15 to 20)
#    0.000    2.077    2.308    1.846    0.000    5.538 
#    0.000    2.308    0.000    0.923    0.000    0.000 
#    0.000    0.000    0.000    0.000    0.000    0.000 
#
# Total GULP energy -289860.513977 kJ/mol
# GULP energy per Si atom -5574.240653 kJ/mol
# Density = 1.854965 g / cm^3
# Si number density = 18.591966 Si / 1000 Ang^3
#
#
#
# Elastic Constant Matrix: (Units=GPa)
#
#
# Indices 1 2 3 4 5 6 
#
# 1 72.5040 25.1615 35.6975 0.0000 0.0000 0.0000
# 2 25.1615 74.3990 22.6125 0.0000 0.0000 0.0000
# 3 35.6975 22.6125 61.4284 0.0000 0.0000 0.0000
# 4 0.0000 0.0000 0.0000 15.8864 0.0000 0.0000
# 5 0.0000 0.0000 0.0000 0.0000 23.7437 0.0000
# 6 0.0000 0.0000 0.0000 0.0000 0.0000 22.2606
#
#
#
# Elastic Compliance Matrix: (Units=1/GPa)
#
#
# Indices 1 2 3 4 5 6 
#
# 1 0.020173 -0.003670 -0.010372 0.000000 0.000000 0.000000
# 2 -0.003670 0.015802 -0.003684 0.000000 0.000000 0.000000
# 3 -0.010372 -0.003684 0.023663 0.000000 0.000000 0.000000
# 4 0.000000 0.000000 0.000000 0.062947 0.000000 0.000000
# 5 0.000000 0.000000 0.000000 0.000000 0.042116 0.000000
# 6 0.000000 0.000000 0.000000 0.000000 0.000000 0.044922
#
#
# Mechanical properties :
#
#
# Convention : Reuss Voigt Hill
#
# Bulk Modulus (GPa) = 41.34752 41.69716 41.52234
# Shear Modulus (GPa) = 19.75221 20.70215 20.22718
#
# Velocity S-wave (km/s) = 3.26299 3.34053 3.30199
# Velocity P-wave (km/s) = 6.04019 6.11188 6.07614
#
# Compressibility (1/GPa) = 0.02418525
#
# Stress axis : x y z
#
# Youngs Moduli (GPa) = 49.57242 63.28329 42.26075
#
# Poissons Ratio (x) = 0.23224 0.43832
# Poissons Ratio (y) = 0.18193 0.15570
# Poissons Ratio (z) = 0.51415 0.23315
#
# Static dielectric constant tensor:
#      x y z
#    x 1.643530 0.000000 0.000000 
#    y 0.000000 1.654810 0.000000 
#    z 0.000000 0.000000 1.676890 
# 
# From -- ./inp_files/15321.got.cif
#   From: 2010.05.17/outbox.cif.g08.bks.cpg/sg71_8_cif.got.tgz:15321.got - 2010.06.03 16:22:01.
