data_PCOD9520054
_publ_section_title
;
Structure prediction by ZEFSAII (Michael W. Deem and Ramdas Pophale) SiO2 
 PCOD9520054
Probable space group: I M M M
;
_chemical_formula_sum "Si O2"
_cell_formula_units_Z 80
_cell_length_a 18.518052
_cell_length_b 14.528428
_cell_length_c 16.829868
_cell_angle_alpha 90.000000
_cell_angle_beta 90.000000
_cell_angle_gamma 90.000000
_cell_volume 4527.877144
_symmetry_space_group_name_H-M "I M M M"
_symmetry_group_IT_number 71
_symmetry_cell_setting 'orthorhombic'
loop_
_space_group_symop_operation_xyz
x,y,z
-x,-y,z
x,-y,-z
-x,y,-z
-x,-y,-z
x,y,-z
-x,y,z
x,-y,z
1/2+x,1/2+y,1/2+z
1/2-x,1/2-y,1/2+z
1/2+x,1/2-y,1/2-z
1/2-x,1/2+y,1/2-z
1/2-x,1/2-y,1/2-z
1/2+x,1/2+y,1/2-z
1/2-x,1/2+y,1/2+z
1/2+x,1/2-y,1/2+z
loop_
_atom_site_type_symbol
_atom_site_label
_atom_site_fract_x
_atom_site_fract_y
_atom_site_fract_z
Si Si1 0.709517 0.607084 0.209867
Si Si2 0.922236 0.393884 0.638521
Si Si3 0.185325 0.711668 0.910505
Si Si4 0.734411 0.103893 0.885454
Si Si5 0.917857 0.761096 0.227700
O O1 0.693450 0.500000 0.193118
O O2 0.754469 0.653948 0.138746
O O3 0.759069 0.610154 0.289271
O O4 0.638034 0.664372 0.234972
O O5 0.918550 0.500000 0.666525
O O6 0.848471 0.379980 0.591311
O O7 0.920724 0.322871 0.710560
O O8 0.000000 0.382667 0.597274
O O9 0.216136 0.815230 0.915961
O O10 0.115593 0.722550 0.854226
O O11 0.173071 0.676619 0.000000
O O12 0.756038 0.000000 0.907040
O O13 0.000000 0.796254 0.217671
#
# Coordination Sequence:
#
# PCOD9520054 Si02
#       5
#    16  16  16  16  16
#     4  10  19  34  53  74 100 138 190 230 255 297
#     4   9  15  25  49  79 100 120 155 211 267 306
#     4  11  21  33  49  77 113 142 171 210 267 331
#     4   9  16  31  53  72  96 130 174 223 261 301
#     4  10  19  34  55  78 104 136 180 226 265 308
#
# _framework density 17.668323999999998
#
# number of rings (size 3 to 8) (size 9 to 14) (size 15 to 20)
#    0.000    2.200    4.000    1.200    0.000    1.600 
#    0.000    0.000    0.000    2.400    0.000   14.000 
#    0.000    0.000    0.000    0.000    0.000    0.000 
#
# Total GULP energy -222782.366513 kJ/mol
# GULP energy per Si atom -5569.559163 kJ/mol
# Density = 1.762811 g / cm^3
# Si number density = 17.668324 Si / 1000 Ang^3
#
#
#
# Elastic Constant Matrix: (Units=GPa)
#
#
# Indices 1 2 3 4 5 6 
#
# 1 119.0401 30.9496 26.6573 0.0000 0.0000 0.0000
# 2 30.9496 60.1709 38.9547 0.0000 0.0000 0.0000
# 3 26.6573 38.9547 110.2787 0.0000 0.0000 0.0000
# 4 0.0000 0.0000 0.0000 0.5725 0.0000 0.0000
# 5 0.0000 0.0000 0.0000 0.0000 -8.2994 0.0000
# 6 0.0000 0.0000 0.0000 0.0000 0.0000 22.5451
#
#
#
# Elastic Compliance Matrix: (Units=1/GPa)
#
#
# Indices 1 2 3 4 5 6 
#
# 1 0.009746 -0.004522 -0.000759 0.000000 0.000000 0.000000
# 2 -0.004522 0.023645 -0.007259 0.000000 0.000000 0.000000
# 3 -0.000759 -0.007259 0.011816 0.000000 0.000000 0.000000
# 4 0.000000 0.000000 0.000000 1.746617 0.000000 0.000000
# 5 0.000000 0.000000 0.000000 0.000000 -0.120490 0.000000
# 6 0.000000 0.000000 0.000000 0.000000 0.000000 0.044356
#
#
# Mechanical properties :
#
#
# Convention : Reuss Voigt Hill
#
# Bulk Modulus (GPa) = 49.68431 53.62365 51.65398
# Shear Modulus (GPa) = 2.86127 15.82552 9.34340
#
# Velocity S-wave (km/s) = 1.27395 2.99607 2.30211
# Velocity P-wave (km/s) = 5.50868 6.51035 6.03035
#
# Compressibility (1/GPa) = 0.02012708
#
# Stress axis : x y z
#
# Youngs Moduli (GPa) = 102.60555 42.29258 84.63442
#
# Poissons Ratio (x) = 0.19124 0.06420
# Poissons Ratio (y) = 0.46397 0.61438
# Poissons Ratio (z) = 0.07783 0.30701
#
# Static dielectric constant tensor:
#      x y z
#    x 1.639230 0.000000 0.000000 
#    y 0.000000 1.596940 0.000000 
#    z 0.000000 0.000000 1.633410 
# 
# From -- ./inp_files/34285.got.cif
#   From: 2010.05.17/outbox.cif.g08.bks.cpg/sg71_18_cif.got.tgz:34285.got - 2010.06.03 16:22:01.
