data_PCOD9520243
_publ_section_title
;
Structure prediction by ZEFSAII (Michael W. Deem and Ramdas Pophale) SiO2 
 PCOD9520243
Probable space group: I M M M
;
_chemical_formula_sum "Si O2"
_cell_formula_units_Z 66
_cell_length_a 7.334508
_cell_length_b 22.948453
_cell_length_c 17.984817
_cell_angle_alpha 90.000000
_cell_angle_beta 90.000000
_cell_angle_gamma 90.000000
_cell_volume 3027.125482
_symmetry_space_group_name_H-M "I M M M"
_symmetry_group_IT_number 71
_symmetry_cell_setting 'orthorhombic'
loop_
_space_group_symop_operation_xyz
x,y,z
-x,-y,z
x,-y,-z
-x,y,-z
-x,-y,-z
x,y,-z
-x,y,z
x,-y,z
1/2+x,1/2+y,1/2+z
1/2-x,1/2-y,1/2+z
1/2+x,1/2-y,1/2-z
1/2-x,1/2+y,1/2-z
1/2-x,1/2-y,1/2-z
1/2+x,1/2+y,1/2-z
1/2-x,1/2+y,1/2+z
1/2+x,1/2-y,1/2+z
loop_
_atom_site_type_symbol
_atom_site_label
_atom_site_fract_x
_atom_site_fract_y
_atom_site_fract_z
Si Si1 0.281300 0.376456 0.208447
Si Si2 0.223075 0.433460 0.500000
Si Si3 0.278658 0.500000 0.139477
Si Si4 0.712222 0.156123 0.122647
Si Si5 0.000000 0.500000 0.000000
Si Si6 0.777264 0.214606 0.415862
O O1 0.500000 0.373544 0.208018
O O2 0.232430 0.441935 0.185846
O O3 0.224479 0.358140 0.290704
O O4 0.215152 0.331455 0.145608
O O5 0.285905 0.500000 0.500000
O O6 0.283849 0.396138 0.428399
O O7 0.000000 0.436176 0.500000
O O8 0.500000 0.500000 0.125414
O O9 0.160405 0.500000 0.065110
O O10 0.500000 0.160372 0.102326
O O11 0.786526 0.220147 0.103818
O O12 0.723330 0.199209 0.500000
O O13 0.000000 0.214156 0.414253
#
# Coordination Sequence:
#
# PCOD9520243 Si02
#       6
#    16   8   8  16   2  16
#     4  10  22  38  58  83 120 160 197 244 312 374
#     4   9  18  32  52  83 112 145 186 242 301 357
#     4  10  25  45  65  95 128 168 207 259 316 372
#     4  10  19  34  59  85 114 147 200 253 299 366
#     4  12  26  44  72  90 132 158 222 260 306 374
#     4   9  17  33  57  83 111 153 202 248 303 367
#
# _framework density 21.802862999999999
#
# number of rings (size 3 to 8) (size 9 to 14) (size 15 to 20)
#    0.000    2.303    1.212    0.909    5.091    0.000 
#    0.000    0.606    0.000    2.182    0.000    0.000 
#    0.000    0.000    0.000    0.000    0.000    0.000 
#
# Total GULP energy -184137.442106 kJ/mol
# GULP energy per Si atom -5579.922488 kJ/mol
# Density = 2.175324 g / cm^3
# Si number density = 21.802863 Si / 1000 Ang^3
#
#
#
# Elastic Constant Matrix: (Units=GPa)
#
#
# Indices 1 2 3 4 5 6 
#
# 1 86.0956 6.6891 -2.5201 0.0000 0.0000 0.0000
# 2 6.6891 198.1767 102.8502 0.0000 0.0000 0.0000
# 3 -2.5201 102.8502 195.7926 0.0000 0.0000 0.0000
# 4 0.0000 0.0000 0.0000 6.7652 0.0000 0.0000
# 5 0.0000 0.0000 0.0000 0.0000 25.3099 0.0000
# 6 0.0000 0.0000 0.0000 0.0000 0.0000 -16.7147
#
#
#
# Elastic Compliance Matrix: (Units=1/GPa)
#
#
# Indices 1 2 3 4 5 6 
#
# 1 0.011680 -0.000649 0.000491 0.000000 0.000000 0.000000
# 2 -0.000649 0.006973 -0.003671 0.000000 0.000000 0.000000
# 3 0.000491 -0.003671 0.007042 0.000000 0.000000 0.000000
# 4 0.000000 0.000000 0.000000 0.147816 0.000000 0.000000
# 5 0.000000 0.000000 0.000000 0.000000 0.039510 0.000000
# 6 0.000000 0.000000 0.000000 0.000000 0.000000 -0.059828
#
#
# Mechanical properties :
#
#
# Convention : Reuss Voigt Hill
#
# Bulk Modulus (GPa) = 55.44190 77.12260 66.28225
# Shear Modulus (GPa) = 29.96430 27.94177 28.95304
#
# Velocity S-wave (km/s) = 3.71122 3.58378 3.64805
# Velocity P-wave (km/s) = 6.62179 7.25080 6.94342
#
# Compressibility (1/GPa) = 0.01803690
#
# Stress axis : x y z
#
# Youngs Moduli (GPa) = 85.61771 143.40322 141.99703
#
# Poissons Ratio (x) = 0.09311 -0.06978
# Poissons Ratio (y) = 0.05559 0.52134
# Poissons Ratio (z) = -0.04207 0.52650
#
# Static dielectric constant tensor:
#      x y z
#    x 1.845230 0.000000 0.000000 
#    y 0.000000 1.769340 0.000000 
#    z 0.000000 0.000000 1.730130 
# 
# From -- ./inp_files/41956.got.cif
#   From: 2010.05.17/outbox.cif.g08.bks.cpg/sg71_21_cif.got.tgz:41956.got - 2010.06.03 16:22:01.
