data_PCOD9520585
_publ_section_title
;
Structure prediction by ZEFSAII (Michael W. Deem and Ramdas Pophale) SiO2 
 PCOD9520585
Probable space group: I M M M
;
_chemical_formula_sum "Si O2"
_cell_formula_units_Z 88
_cell_length_a 19.943783
_cell_length_b 7.300233
_cell_length_c 28.350862
_cell_angle_alpha 90.000000
_cell_angle_beta 90.000000
_cell_angle_gamma 90.000000
_cell_volume 4127.722853
_symmetry_space_group_name_H-M "I M M M"
_symmetry_group_IT_number 71
_symmetry_cell_setting 'orthorhombic'
loop_
_space_group_symop_operation_xyz
x,y,z
-x,-y,z
x,-y,-z
-x,y,-z
-x,-y,-z
x,y,-z
-x,y,z
x,-y,z
1/2+x,1/2+y,1/2+z
1/2-x,1/2-y,1/2+z
1/2+x,1/2-y,1/2-z
1/2-x,1/2+y,1/2-z
1/2-x,1/2-y,1/2-z
1/2+x,1/2+y,1/2-z
1/2-x,1/2+y,1/2+z
1/2+x,1/2-y,1/2+z
loop_
_atom_site_type_symbol
_atom_site_label
_atom_site_fract_x
_atom_site_fract_y
_atom_site_fract_z
Si Si1 0.075452 0.784938 0.765913
Si Si2 0.827816 0.720223 0.844718
Si Si3 0.141927 0.778827 0.410251
Si Si4 0.783192 0.723296 0.051999
Si Si5 0.000000 0.222405 0.445237
Si Si6 0.188434 0.220864 0.305082
O O1 0.103495 0.768735 0.818929
O O2 0.135383 0.708042 0.733147
O O3 0.000000 0.710774 0.760191
O O4 0.071297 0.000000 0.754090
O O5 0.822580 0.500000 0.845969
O O6 0.818823 0.781839 0.899043
O O7 0.765327 0.786209 0.811645
O O8 0.205465 0.720189 0.441169
O O9 0.157543 0.739249 0.356174
O O10 0.069218 0.709932 0.423772
O O11 0.140670 0.000000 0.414911
O O12 0.785243 0.500000 0.052184
O O13 0.807445 0.781549 0.000000
O O14 0.000000 0.263907 0.500000
O O15 0.000000 0.000000 0.440045
O O16 0.192724 0.000000 0.299093
#
# Coordination Sequence:
#
# PCOD9520585 Si02
#       6
#    16  16  16  16   8  16
#     4  10  20  31  45  65  90 119 149 181 219 263
#     4   9  17  30  48  68  89 115 147 182 218 257
#     4   8  13  19  30  50  79 112 144 176 207 248
#     4   8  13  23  40  61  83 107 139 178 217 257
#     4   9  14  16  22  42  76 116 147 171 206 249
#     4   8  15  27  42  61  84 114 150 181 212 253
#
# _framework density 21.319261000000001
#
# number of rings (size 3 to 8) (size 9 to 14) (size 15 to 20)
#    0.000    3.364    0.000    3.273    1.273    2.545 
#    0.000    0.000    0.000    1.091    0.000    3.818 
#    0.000    0.000    0.000    0.000    0.000   22.182 
#
# Total GULP energy -245296.965165 kJ/mol
# GULP energy per Si atom -5574.931026 kJ/mol
# Density = 2.127074 g / cm^3
# Si number density = 21.319261 Si / 1000 Ang^3
#
#
#
# Elastic Constant Matrix: (Units=GPa)
#
#
# Indices 1 2 3 4 5 6 
#
# 1 71.6042 6.2605 42.4070 0.0000 0.0000 0.0000
# 2 6.2605 85.0412 5.4979 0.0000 0.0000 0.0000
# 3 42.4070 5.4979 98.7011 0.0000 0.0000 0.0000
# 4 0.0000 0.0000 0.0000 -7.4153 0.0000 0.0000
# 5 0.0000 0.0000 0.0000 0.0000 9.4099 0.0000
# 6 0.0000 0.0000 0.0000 0.0000 0.0000 30.4854
#
#
#
# Elastic Compliance Matrix: (Units=1/GPa)
#
#
# Indices 1 2 3 4 5 6 
#
# 1 0.018795 -0.000865 -0.008027 0.000000 0.000000 0.000000
# 2 -0.000865 0.011841 -0.000288 0.000000 0.000000 0.000000
# 3 -0.008027 -0.000288 0.013597 0.000000 0.000000 0.000000
# 4 0.000000 0.000000 0.000000 -0.134856 0.000000 0.000000
# 5 0.000000 0.000000 0.000000 0.000000 0.106272 0.000000
# 6 0.000000 0.000000 0.000000 0.000000 0.000000 0.032803
#
#
# Mechanical properties :
#
#
# Convention : Reuss Voigt Hill
#
# Bulk Modulus (GPa) = 38.65014 40.40858 39.52936
# Shear Modulus (GPa) = 66.28194 19.90806 43.09500
#
# Velocity S-wave (km/s) = 5.58191 3.05914 4.50089
# Velocity P-wave (km/s) = 7.72736 5.61008 6.75222
#
# Compressibility (1/GPa) = 0.02587313
#
# Stress axis : x y z
#
# Youngs Moduli (GPa) = 53.20464 84.45024 73.54796
#
# Poissons Ratio (x) = 0.07302 0.59039
# Poissons Ratio (y) = 0.04601 0.02119
# Poissons Ratio (z) = 0.42709 0.02433
#
# Static dielectric constant tensor:
#      x y z
#    x 1.855690 0.000000 0.000000 
#    y 0.000000 1.905630 0.000000 
#    z 0.000000 0.000000 1.766820 
# 
# From -- ./inp_files/16849.got.cif
#   From: 2010.05.17/outbox.cif.g08.bks.cpg/sg71_9_cif.got.tgz:16849.got - 2010.06.03 16:22:01.
