data_PCOD9520216
_publ_section_title
;
Structure prediction by ZEFSAII (Michael W. Deem and Ramdas Pophale) SiO2 
 PCOD9520216
Probable space group: I M M M
;
_chemical_formula_sum "Si O2"
_cell_formula_units_Z 104
_cell_length_a 19.161569
_cell_length_b 33.233804
_cell_length_c 7.644677
_cell_angle_alpha 90.000000
_cell_angle_beta 90.000000
_cell_angle_gamma 90.000000
_cell_volume 4868.220738
_symmetry_space_group_name_H-M "I M M M"
_symmetry_group_IT_number 71
_symmetry_cell_setting 'orthorhombic'
loop_
_space_group_symop_operation_xyz
x,y,z
-x,-y,z
x,-y,-z
-x,y,-z
-x,-y,-z
x,y,-z
-x,y,z
x,-y,z
1/2+x,1/2+y,1/2+z
1/2-x,1/2-y,1/2+z
1/2+x,1/2-y,1/2-z
1/2-x,1/2+y,1/2-z
1/2-x,1/2-y,1/2-z
1/2+x,1/2+y,1/2-z
1/2-x,1/2+y,1/2+z
1/2+x,1/2-y,1/2+z
loop_
_atom_site_type_symbol
_atom_site_label
_atom_site_fract_x
_atom_site_fract_y
_atom_site_fract_z
Si Si1 0.337459 0.454527 0.788095
Si Si2 0.318338 0.071691 0.286581
Si Si3 0.920778 0.876474 0.795201
Si Si4 0.177556 0.194556 0.301481
Si Si5 0.577238 0.233427 0.293581
Si Si6 0.325644 0.836150 0.715371
Si Si7 0.080364 0.500000 0.214030
O O1 0.352786 0.500000 0.731630
O O2 0.259097 0.442302 0.732712
O O3 0.391731 0.421390 0.724356
O O4 0.338382 0.453680 0.000000
O O5 0.318443 0.071407 0.500000
O O6 0.331048 0.117491 0.229937
O O7 0.376272 0.039464 0.230615
O O8 0.868238 0.845954 0.703214
O O9 0.000000 0.873120 0.730127
O O10 0.920441 0.865447 0.000000
O O11 0.191018 0.207023 0.500000
O O12 0.130950 0.229900 0.224226
O O13 0.252607 0.183465 0.223485
O O14 0.569873 0.227062 0.500000
O O15 0.500000 0.242404 0.221386
O O16 0.612266 0.192700 0.224190
O O17 0.323942 0.836589 0.500000
O O18 0.000000 0.500000 0.271108
O O19 0.080087 0.500000 0.000000
#
# Coordination Sequence:
#
# PCOD9520216 Si02
#       7
#    16  16  16  16  16  16   8
#     4  10  19  34  58  82 108 146 185 224 268 315
#     4   9  15  28  49  75 109 143 179 222 265 311
#     4  11  24  39  55  79 112 145 178 224 278 327
#     4  11  21  36  59  82 105 140 184 227 270 322
#     4  10  21  36  53  77 111 146 178 219 275 332
#     4   9  18  32  53  78 105 140 182 225 269 320
#     4   9  16  24  42  78 118 149 176 216 271 321
#
# _framework density 21.363040000000002
#
# number of rings (size 3 to 8) (size 9 to 14) (size 15 to 20)
#    0.000    2.077    2.308    1.846    0.000    4.615 
#    0.000    5.385    0.000    0.000    0.000    0.000 
#    0.000    1.231    0.000    0.000    0.000    0.000 
#
# Total GULP energy -290495.262205 kJ/mol
# GULP energy per Si atom -5586.447350 kJ/mol
# Density = 2.131442 g / cm^3
# Si number density = 21.363040 Si / 1000 Ang^3
#
#
#
# Elastic Constant Matrix: (Units=GPa)
#
#
# Indices 1 2 3 4 5 6 
#
# 1 106.2286 37.0287 6.4067 -0.0056 0.0030 0.0046
# 2 37.0287 116.7202 -1.9343 -0.0043 0.0097 0.0045
# 3 6.4067 -1.9343 38.8266 0.0206 0.0412 0.0023
# 4 -0.0056 -0.0043 0.0206 -11.9880 0.0125 -0.0017
# 5 0.0030 0.0097 0.0412 0.0125 -0.2171 -0.0092
# 6 0.0046 0.0045 0.0023 -0.0017 -0.0092 18.2189
#
#
#
# Elastic Compliance Matrix: (Units=1/GPa)
#
#
# Indices 1 2 3 4 5 6 
#
# 1 0.010728 -0.003436 -0.001941 -0.000008 -0.000376 -0.000002
# 2 -0.003436 0.009675 0.001048 0.000001 0.000584 -0.000001
# 3 -0.001941 0.001048 0.026123 0.000051 0.004980 0.000000
# 4 -0.000008 0.000001 0.000051 -0.083422 -0.004789 -0.000010
# 5 -0.000376 0.000584 0.004980 -0.004789 -4.606184 -0.002334
# 6 -0.000002 -0.000001 0.000000 -0.000010 -0.002334 0.054887
#
#
# Mechanical properties :
#
#
# Convention : Reuss Voigt Hill
#
# Bulk Modulus (GPa) = 26.40676 38.30861 32.35769
# Shear Modulus (GPa) = -1.09483 15.88773 7.39645
#
# Velocity S-wave (km/s) = -0.71666 2.73005 1.86274
# Velocity P-wave (km/s) = 3.42096 5.28287 4.45037
#
# Compressibility (1/GPa) = 0.03786909
#
# Stress axis : x y z
#
# Youngs Moduli (GPa) = 93.21133 103.36180 38.28083
#
# Poissons Ratio (x) = 0.35511 0.07430
# Poissons Ratio (y) = 0.32024 -0.04013
# Poissons Ratio (z) = 0.18092 -0.10835
#
# Static dielectric constant tensor:
#      x y z
#    x 1.755600 0.000000 0.000000 
#    y 0.000000 1.736910 0.000000 
#    z 0.000000 0.000000 1.831750 
# 
# From -- ./inp_files/11449.got.cif
#   From: 2010.05.17/outbox.cif.g08.bks.cpg/sg71_6_cif.got.tgz:11449.got - 2010.06.03 16:22:01.
