data_PCOD9520974
_publ_section_title
;
Structure prediction by ZEFSAII (Michael W. Deem and Ramdas Pophale) SiO2 
 PCOD9520974
Probable space group: I M M M
;
_chemical_formula_sum "Si O2"
_cell_formula_units_Z 104
_cell_length_a 26.863135
_cell_length_b 24.686236
_cell_length_c 7.535075
_cell_angle_alpha 90.000000
_cell_angle_beta 90.000000
_cell_angle_gamma 90.000000
_cell_volume 4996.882653
_symmetry_space_group_name_H-M "I M M M"
_symmetry_group_IT_number 71
_symmetry_cell_setting 'orthorhombic'
loop_
_space_group_symop_operation_xyz
x,y,z
-x,-y,z
x,-y,-z
-x,y,-z
-x,-y,-z
x,y,-z
-x,y,z
x,-y,z
1/2+x,1/2+y,1/2+z
1/2-x,1/2-y,1/2+z
1/2+x,1/2-y,1/2-z
1/2-x,1/2+y,1/2-z
1/2-x,1/2-y,1/2-z
1/2+x,1/2+y,1/2-z
1/2-x,1/2+y,1/2+z
1/2+x,1/2-y,1/2+z
loop_
_atom_site_type_symbol
_atom_site_label
_atom_site_fract_x
_atom_site_fract_y
_atom_site_fract_z
Si Si1 0.391279 0.720399 0.713062
Si Si2 0.797262 0.500000 0.718547
Si Si3 0.318753 0.500000 0.283376
Si Si4 0.347834 0.109616 0.794087
Si Si5 0.797168 0.286406 0.789254
Si Si6 0.500000 0.564171 0.299030
Si Si7 0.445147 0.825687 0.787692
Si Si8 0.607821 0.403372 0.281994
O O1 0.388619 0.717316 0.500000
O O2 0.343859 0.752932 0.782525
O O3 0.435974 0.761617 0.754213
O O4 0.387616 0.658869 0.775455
O O5 0.796472 0.500000 0.500000
O O6 0.739022 0.500000 0.772941
O O7 0.826952 0.446542 0.779687
O O8 0.318676 0.500000 0.500000
O O9 0.350012 0.553513 0.227201
O O10 0.303171 0.153493 0.785193
O O11 0.397709 0.139147 0.718531
O O12 0.359167 0.099136 0.000000
O O13 0.750000 0.250000 0.750000
O O14 0.801723 0.291944 0.000000
O O15 0.500000 0.500000 0.312793
O O16 0.500000 0.587941 0.500000
O O17 0.447207 0.579781 0.219308
O O18 0.500000 0.841437 0.720333
O O19 0.445269 0.832341 0.000000
O O20 0.608180 0.405358 0.500000
#
# Coordination Sequence:
#
# PCOD9520974 Si02
#       8
#    16   8   8  16  16   8  16  16
#     4   9  19  31  47  72  98 124 163 209 246 291
#     4   9  18  30  51  75  97 130 169 212 260 302
#     4   9  16  25  40  63  95 127 157 200 252 296
#     4   9  18  34  53  75 101 131 171 211 255 312
#     4  10  20  33  50  73 101 134 169 208 257 305
#     4   9  14  22  34  52  87 125 147 178 237 290
#     4   9  18  33  51  71 100 134 163 200 255 313
#     4   9  16  25  38  62  92 121 155 197 243 285
#
# _framework density 20.812975999999999
#
# number of rings (size 3 to 8) (size 9 to 14) (size 15 to 20)
#    0.000    2.846    0.769    0.462    3.231    0.923 
#    0.000    0.769    0.000    2.308    0.000    0.538 
#    0.000    6.769    0.000    0.000    0.000    0.000 
#
# Total GULP energy -289733.733265 kJ/mol
# GULP energy per Si atom -5571.802563 kJ/mol
# Density = 2.076560 g / cm^3
# Si number density = 20.812976 Si / 1000 Ang^3
#
#
#
# Elastic Constant Matrix: (Units=GPa)
#
#
# Indices 1 2 3 4 5 6 
#
# 1 131.8230 87.6841 1.5437 0.0000 0.0000 0.0000
# 2 87.6841 190.5945 4.0845 0.0000 0.0000 0.0000
# 3 1.5437 4.0845 52.6749 0.0000 0.0000 0.0000
# 4 0.0000 0.0000 0.0000 9.3619 0.0000 0.0000
# 5 0.0000 0.0000 0.0000 0.0000 3.8486 0.0000
# 6 0.0000 0.0000 0.0000 0.0000 0.0000 12.3277
#
#
#
# Elastic Compliance Matrix: (Units=1/GPa)
#
#
# Indices 1 2 3 4 5 6 
#
# 1 0.010931 -0.005030 0.000070 0.000000 0.000000 0.000000
# 2 -0.005030 0.007570 -0.000440 0.000000 0.000000 0.000000
# 3 0.000070 -0.000440 0.019016 0.000000 0.000000 0.000000
# 4 0.000000 0.000000 0.000000 0.106815 0.000000 0.000000
# 5 0.000000 0.000000 0.000000 0.000000 0.259834 0.000000
# 6 0.000000 0.000000 0.000000 0.000000 0.000000 0.081118
#
#
# Mechanical properties :
#
#
# Convention : Reuss Voigt Hill
#
# Bulk Modulus (GPa) = 37.42879 62.41298 49.92089
# Shear Modulus (GPa) = 9.90116 23.89301 16.89708
#
# Velocity S-wave (km/s) = 2.18347 3.39187 2.85240
# Velocity P-wave (km/s) = 4.93752 6.73738 5.90642
#
# Compressibility (1/GPa) = 0.02671740
#
# Stress axis : x y z
#
# Youngs Moduli (GPa) = 91.48132 132.09254 52.58613
#
# Poissons Ratio (x) = 0.66449 -0.00367
# Poissons Ratio (y) = 0.46019 0.02312
# Poissons Ratio (z) = -0.00638 0.05807
#
# Static dielectric constant tensor:
#      x y z
#    x 1.773770 0.000000 0.000000 
#    y 0.000000 1.740190 0.000000 
#    z 0.000000 0.000000 1.803470 
# 
# From -- ./inp_files/15353.got.cif
#   From: 2010.05.17/outbox.cif.g08.bks.cpg/sg71_8_cif.got.tgz:15353.got - 2010.06.03 16:22:01.
