data_PCOD9520537
_publ_section_title
;
Structure prediction by ZEFSAII (Michael W. Deem and Ramdas Pophale) SiO2 
 PCOD9520537
Probable space group: I M M M
;
_chemical_formula_sum "Si O2"
_cell_formula_units_Z 104
_cell_length_a 13.758810
_cell_length_b 32.623557
_cell_length_c 14.175246
_cell_angle_alpha 90.000000
_cell_angle_beta 90.000000
_cell_angle_gamma 90.000000
_cell_volume 6362.719663
_symmetry_space_group_name_H-M "I M M M"
_symmetry_group_IT_number 71
_symmetry_cell_setting 'orthorhombic'
loop_
_space_group_symop_operation_xyz
x,y,z
-x,-y,z
x,-y,-z
-x,y,-z
-x,-y,-z
x,y,-z
-x,y,z
x,-y,z
1/2+x,1/2+y,1/2+z
1/2-x,1/2-y,1/2+z
1/2+x,1/2-y,1/2-z
1/2-x,1/2+y,1/2-z
1/2-x,1/2-y,1/2-z
1/2+x,1/2+y,1/2-z
1/2-x,1/2+y,1/2+z
1/2+x,1/2-y,1/2+z
loop_
_atom_site_type_symbol
_atom_site_label
_atom_site_fract_x
_atom_site_fract_y
_atom_site_fract_z
Si Si1 0.887292 0.665303 0.794047
Si Si2 0.612228 0.000000 0.612680
Si Si3 0.384624 0.208808 0.892510
Si Si4 0.886058 0.119741 0.386930
Si Si5 0.387265 0.950426 0.890290
Si Si6 0.290244 0.294030 0.112837
Si Si7 0.705964 0.920695 0.705709
O O1 0.869102 0.673022 0.682731
O O2 0.815589 0.695902 0.847632
O O3 0.857051 0.619397 0.820033
O O4 0.000000 0.672791 0.813661
O O5 0.665798 0.959938 0.650965
O O6 0.500000 0.000000 0.646075
O O7 0.612608 0.000000 0.500000
O O8 0.500000 0.217319 0.894333
O O9 0.332237 0.250183 0.857951
O O10 0.354772 0.199090 0.000000
O O11 0.867424 0.114456 0.500000
O O12 0.857659 0.166842 0.362255
O O13 0.814615 0.090794 0.326940
O O14 0.000000 0.112682 0.370508
O O15 0.500000 0.939002 0.867830
O O16 0.314688 0.930314 0.815574
O O17 0.381169 0.000000 0.882343
O O18 0.369662 0.939838 0.000000
O O19 0.287210 0.292893 0.000000
#
# Coordination Sequence:
#
# PCOD9520537 Si02
#       7
#    16   8  16  16  16  16  16
#     4  10  20  30  44  70 101 129 157 196 246 296
#     4  11  22  34  50  72 100 135 168 196 236 299
#     4   9  17  30  48  70  95 124 160 200 240 282
#     4   9  18  33  52  74  98 127 168 212 250 292
#     4   9  17  30  50  73  95 124 163 203 240 284
#     4   9  17  30  49  69  93 129 166 198 236 287
#     4  11  20  33  51  72 100 132 164 204 252 298
#
# _framework density 16.345212
#
# number of rings (size 3 to 8) (size 9 to 14) (size 15 to 20)
#    0.000    2.385    0.769    3.231    0.000    3.385 
#    0.000    1.923    0.000    1.846    0.000    1.077 
#    0.000    0.000    0.000    0.000    0.000    0.000 
#
# Total GULP energy -289874.396850 kJ/mol
# GULP energy per Si atom -5574.507632 kJ/mol
# Density = 1.630801 g / cm^3
# Si number density = 16.345212 Si / 1000 Ang^3
#
#
#
# Elastic Constant Matrix: (Units=GPa)
#
#
# Indices 1 2 3 4 5 6 
#
# 1 99.3391 36.1073 36.9675 0.0000 0.0000 0.0000
# 2 36.1073 70.0248 23.2401 0.0001 -0.0001 0.0000
# 3 36.9675 23.2401 40.7478 0.0003 -0.0001 -0.0001
# 4 0.0000 0.0001 0.0003 18.8958 -0.0001 0.0000
# 5 0.0000 -0.0001 -0.0001 -0.0001 26.9180 0.0000
# 6 0.0000 0.0000 -0.0001 0.0000 0.0000 18.1425
#
#
#
# Elastic Compliance Matrix: (Units=1/GPa)
#
#
# Indices 1 2 3 4 5 6 
#
# 1 0.016175 -0.004280 -0.012233 0.000000 0.000000 0.000000
# 2 -0.004280 0.018748 -0.006809 0.000000 0.000000 0.000000
# 3 -0.012233 -0.006809 0.039523 -0.000001 0.000000 0.000000
# 4 0.000000 0.000000 -0.000001 0.052922 0.000000 0.000000
# 5 0.000000 0.000000 0.000000 0.000000 0.037150 0.000000
# 6 0.000000 0.000000 0.000000 0.000000 0.000000 0.055119
#
#
# Mechanical properties :
#
#
# Convention : Reuss Voigt Hill
#
# Bulk Modulus (GPa) = 35.97106 44.74906 40.36006
# Shear Modulus (GPa) = 18.14571 20.37771 19.26171
#
# Velocity S-wave (km/s) = 3.33551 3.53471 3.43655
# Velocity P-wave (km/s) = 6.07364 6.64046 6.36337
#
# Compressibility (1/GPa) = 0.02780013
#
# Stress axis : x y z
#
# Youngs Moduli (GPa) = 61.82559 53.34007 25.30194
#
# Poissons Ratio (x) = 0.22831 0.30951
# Poissons Ratio (y) = 0.26463 0.17229
# Poissons Ratio (z) = 0.75630 0.36321
#
# Static dielectric constant tensor:
#      x y z
#    x 1.525470 0.000000 0.000000 
#    y 0.000000 1.553810 0.000000 
#    z 0.000000 0.000000 1.569310 
# 
# From -- ./inp_files/33285.got.cif
#   From: 2010.05.17/outbox.cif.g08.bks.cpg/sg71_17_cif.got.tgz:33285.got - 2010.06.03 16:22:01.
