data_PCOD9520459
_publ_section_title
;
Structure prediction by ZEFSAII (Michael W. Deem and Ramdas Pophale) SiO2 
 PCOD9520459
Probable space group: I M M M
;
_chemical_formula_sum "Si O2"
_cell_formula_units_Z 72
_cell_length_a 14.705219
_cell_length_b 7.898577
_cell_length_c 28.677243
_cell_angle_alpha 90.000000
_cell_angle_beta 90.000000
_cell_angle_gamma 90.000000
_cell_volume 3330.870509
_symmetry_space_group_name_H-M "I M M M"
_symmetry_group_IT_number 71
_symmetry_cell_setting 'orthorhombic'
loop_
_space_group_symop_operation_xyz
x,y,z
-x,-y,z
x,-y,-z
-x,y,-z
-x,-y,-z
x,y,-z
-x,y,z
x,-y,z
1/2+x,1/2+y,1/2+z
1/2-x,1/2-y,1/2+z
1/2+x,1/2-y,1/2-z
1/2-x,1/2+y,1/2-z
1/2-x,1/2-y,1/2-z
1/2+x,1/2+y,1/2-z
1/2-x,1/2+y,1/2+z
1/2+x,1/2-y,1/2+z
loop_
_atom_site_type_symbol
_atom_site_label
_atom_site_fract_x
_atom_site_fract_y
_atom_site_fract_z
Si Si1 0.000000 0.301108 0.112232
Si Si2 0.178385 0.206235 0.053995
Si Si3 0.292027 0.813377 0.702336
Si Si4 0.177389 0.691616 0.376648
Si Si5 0.000000 0.749981 0.787070
Si Si6 0.500000 0.789363 0.180840
O O1 0.910016 0.269236 0.081866
O O2 0.000000 0.500000 0.127090
O O3 0.000000 0.185123 0.158697
O O4 0.271531 0.268683 0.078749
O O5 0.178037 0.000000 0.056370
O O6 0.173301 0.255466 0.000000
O O7 0.250000 0.750000 0.750000
O O8 0.258145 0.693296 0.661555
O O9 0.398903 0.823500 0.710262
O O10 0.257778 0.000000 0.690165
O O11 0.151603 0.500000 0.389321
O O12 0.089043 0.757969 0.349282
O O13 0.000000 0.799363 0.731728
O O14 0.500000 0.000000 0.188819
#
# Coordination Sequence:
#
# PCOD9520459 Si02
#       6
#     8  16  16  16   8   8
#     4  12  23  36  57  88 118 153 196 232 282 353
#     4  10  22  40  59  83 116 150 190 246 300 340
#     4  12  23  38  57  82 116 156 194 232 278 335
#     4  10  21  38  60  83 110 151 193 234 286 344
#     4  12  23  36  57  85 123 157 184 230 285 335
#     4  10  19  36  59  83 114 150 185 225 282 341
#
# _framework density 21.615970000000001
#
# number of rings (size 3 to 8) (size 9 to 14) (size 15 to 20)
#    0.000    1.111    4.444    3.333    0.000    1.778 
#    0.000    4.444    0.000    3.333    0.000    0.000 
#    0.000    3.556    0.000    0.000    0.000    0.000 
#
# Total GULP energy -200469.934462 kJ/mol
# GULP energy per Si atom -5568.609291 kJ/mol
# Density = 2.156677 g / cm^3
# Si number density = 21.615970 Si / 1000 Ang^3
#
#
#
# Elastic Constant Matrix: (Units=GPa)
#
#
# Indices 1 2 3 4 5 6 
#
# 1 165.6793 16.1844 82.0770 0.0000 0.0000 0.0000
# 2 16.1844 59.1043 12.8678 0.0000 0.0000 0.0000
# 3 82.0770 12.8678 179.6362 0.0000 0.0000 0.0000
# 4 0.0000 0.0000 0.0000 1.0678 0.0000 0.0000
# 5 0.0000 0.0000 0.0000 0.0000 32.7514 0.0000
# 6 0.0000 0.0000 0.0000 0.0000 0.0000 4.3682
#
#
#
# Elastic Compliance Matrix: (Units=1/GPa)
#
#
# Indices 1 2 3 4 5 6 
#
# 1 0.007914 -0.001402 -0.003516 0.000000 0.000000 0.000000
# 2 -0.001402 0.017436 -0.000608 0.000000 0.000000 0.000000
# 3 -0.003516 -0.000608 0.007217 0.000000 0.000000 0.000000
# 4 0.000000 0.000000 0.000000 0.936511 0.000000 0.000000
# 5 0.000000 0.000000 0.000000 0.000000 0.030533 0.000000
# 6 0.000000 0.000000 0.000000 0.000000 0.000000 0.228926
#
#
# Mechanical properties :
#
#
# Convention : Reuss Voigt Hill
#
# Bulk Modulus (GPa) = 46.47972 69.63093 58.05533
# Shear Modulus (GPa) = 4.01039 27.19018 15.60029
#
# Velocity S-wave (km/s) = 1.36357 3.55050 2.68937
# Velocity P-wave (km/s) = 4.90186 7.00648 6.04645
#
# Compressibility (1/GPa) = 0.02151476
#
# Stress axis : x y z
#
# Youngs Moduli (GPa) = 126.35258 57.35406 138.56662
#
# Poissons Ratio (x) = 0.08040 0.48716
# Poissons Ratio (y) = 0.17712 0.08432
# Poissons Ratio (z) = 0.44422 0.03490
#
# Static dielectric constant tensor:
#      x y z
#    x 1.740540 0.000000 0.000000 
#    y 0.000000 1.880870 0.000000 
#    z 0.000000 0.000000 1.769010 
# 
# From -- ./inp_files/62899.got.cif
#   From: 2010.05.17/outbox.cif.g08.bks.cpg/sg71_32_cif.got.tgz:62899.got - 2010.06.03 16:22:01.
