data_PCOD9520167
_publ_section_title
;
Structure prediction by ZEFSAII (Michael W. Deem and Ramdas Pophale) SiO2 
 PCOD9520167
Probable space group: I M M M
;
_chemical_formula_sum "Si O2"
_cell_formula_units_Z 82
_cell_length_a 21.024367
_cell_length_b 24.752918
_cell_length_c 7.519496
_cell_angle_alpha 90.000000
_cell_angle_beta 90.000000
_cell_angle_gamma 90.000000
_cell_volume 3913.254242
_symmetry_space_group_name_H-M "I M M M"
_symmetry_group_IT_number 71
_symmetry_cell_setting 'orthorhombic'
loop_
_space_group_symop_operation_xyz
x,y,z
-x,-y,z
x,-y,-z
-x,y,-z
-x,-y,-z
x,y,-z
-x,y,z
x,-y,z
1/2+x,1/2+y,1/2+z
1/2-x,1/2-y,1/2+z
1/2+x,1/2-y,1/2-z
1/2-x,1/2+y,1/2-z
1/2-x,1/2-y,1/2-z
1/2+x,1/2+y,1/2-z
1/2-x,1/2+y,1/2+z
1/2+x,1/2-y,1/2+z
loop_
_atom_site_type_symbol
_atom_site_label
_atom_site_fract_x
_atom_site_fract_y
_atom_site_fract_z
Si Si1 0.500000 0.063179 0.782895
Si Si2 0.867459 0.850278 0.288063
Si Si3 0.823707 0.736964 0.286618
Si Si4 0.500000 0.500000 0.500000
Si Si5 0.500000 0.595269 0.213433
Si Si6 0.739581 0.560214 0.287726
Si Si7 0.367274 0.118264 0.782069
O O1 0.435488 0.094238 0.727005
O O2 0.500000 0.000000 0.728121
O O3 0.500000 0.063074 0.000000
O O4 0.863637 0.845159 0.500000
O O5 0.857714 0.790380 0.214160
O O6 0.813451 0.894104 0.242448
O O7 0.936433 0.872060 0.244947
O O8 0.831043 0.734345 0.500000
O O9 0.750000 0.750000 0.250000
O O10 0.849905 0.679246 0.222098
O O11 0.500000 0.545544 0.343518
O O12 0.500000 0.582486 0.000000
O O13 0.744807 0.555972 0.500000
O O14 0.723028 0.500000 0.219731
O O15 0.808284 0.580721 0.223375
O O16 0.367486 0.118307 0.000000
#
# Coordination Sequence:
#
# PCOD9520167 Si02
#       7
#     8  16  16   2   8  16  16
#     4   9  16  27  47  76 116 149 176 220 287 350
#     4  10  22  38  56  80 114 152 191 242 304 353
#     4  10  19  34  56  82 111 149 192 240 297 350
#     4  12  26  44  72  90 120 168 218 230 330 378
#     4  10  25  44  61  90 127 160 205 261 303 369
#     4  10  20  32  52  79 110 143 188 240 288 345
#     4   9  17  30  49  79 110 146 187 233 286 348
#
# _framework density 20.954426000000002
#
# number of rings (size 3 to 8) (size 9 to 14) (size 15 to 20)
#    0.000    2.244    1.951    0.732    2.732    3.512 
#    0.000    3.902    0.000    0.000    0.000    2.049 
#    0.000    4.683    0.000    0.000    0.000    0.000 
#
# Total GULP energy -228548.504046 kJ/mol
# GULP energy per Si atom -5574.353757 kJ/mol
# Density = 2.090673 g / cm^3
# Si number density = 20.954426 Si / 1000 Ang^3
#
#
#
# Elastic Constant Matrix: (Units=GPa)
#
#
# Indices 1 2 3 4 5 6 
#
# 1 164.6073 87.4929 9.5078 0.0000 0.0000 0.0000
# 2 87.4929 194.1622 15.0410 0.0000 0.0000 0.0000
# 3 9.5078 15.0410 47.9649 0.0000 0.0000 0.0000
# 4 0.0000 0.0000 0.0000 76.3785 0.0000 0.0000
# 5 0.0000 0.0000 0.0000 0.0000 32.8283 0.0000
# 6 0.0000 0.0000 0.0000 0.0000 0.0000 43.3043
#
#
#
# Elastic Compliance Matrix: (Units=1/GPa)
#
#
# Indices 1 2 3 4 5 6 
#
# 1 0.007999 -0.003568 -0.000467 0.000000 0.000000 0.000000
# 2 -0.003568 0.006870 -0.001447 0.000000 0.000000 0.000000
# 3 -0.000467 -0.001447 0.021395 0.000000 0.000000 0.000000
# 4 0.000000 0.000000 0.000000 0.013093 0.000000 0.000000
# 5 0.000000 0.000000 0.000000 0.000000 0.030462 0.000000
# 6 0.000000 0.000000 0.000000 0.000000 0.000000 0.023092
#
#
# Mechanical properties :
#
#
# Convention : Reuss Voigt Hill
#
# Bulk Modulus (GPa) = 39.52571 70.09087 54.80829
# Shear Modulus (GPa) = 40.88058 50.14838 45.51448
#
# Velocity S-wave (km/s) = 4.42172 4.89735 4.66560
# Velocity P-wave (km/s) = 6.70615 8.09324 7.43213
#
# Compressibility (1/GPa) = 0.02529999
#
# Stress axis : x y z
#
# Youngs Moduli (GPa) = 125.02219 145.55389 46.74023
#
# Poissons Ratio (x) = 0.51936 0.02181
# Poissons Ratio (y) = 0.44610 0.06764
# Poissons Ratio (z) = 0.05834 0.21063
#
# Static dielectric constant tensor:
#      x y z
#    x 1.682660 0.000000 0.000000 
#    y 0.000000 1.760580 0.000000 
#    z 0.000000 0.000000 1.803420 
# 
# From -- ./inp_files/10317.got.cif
#   From: 2010.05.17/outbox.cif.g08.bks.cpg/sg71_6_cif.got.tgz:10317.got - 2010.06.03 16:22:01.
