data_PCOD9520026
_publ_section_title
;
Structure prediction by ZEFSAII (Michael W. Deem and Ramdas Pophale) SiO2 
 PCOD9520026
Probable space group: I M M M
;
_chemical_formula_sum "Si O2"
_cell_formula_units_Z 104
_cell_length_a 18.879072
_cell_length_b 19.313870
_cell_length_c 14.630459
_cell_angle_alpha 90.000000
_cell_angle_beta 90.000000
_cell_angle_gamma 90.000000
_cell_volume 5334.674160
_symmetry_space_group_name_H-M "I M M M"
_symmetry_group_IT_number 71
_symmetry_cell_setting 'orthorhombic'
loop_
_space_group_symop_operation_xyz
x,y,z
-x,-y,z
x,-y,-z
-x,y,-z
-x,-y,-z
x,y,-z
-x,y,z
x,-y,z
1/2+x,1/2+y,1/2+z
1/2-x,1/2-y,1/2+z
1/2+x,1/2-y,1/2-z
1/2-x,1/2+y,1/2-z
1/2-x,1/2-y,1/2-z
1/2+x,1/2+y,1/2-z
1/2-x,1/2+y,1/2+z
1/2+x,1/2-y,1/2+z
loop_
_atom_site_type_symbol
_atom_site_label
_atom_site_fract_x
_atom_site_fract_y
_atom_site_fract_z
Si Si1 0.124792 0.769172 0.395729
Si Si2 0.211368 0.778439 0.108462
Si Si3 0.642992 0.575525 0.899719
Si Si4 0.389677 0.922023 0.797734
Si Si5 0.576964 0.210289 0.705223
Si Si6 0.776880 0.924376 0.209314
Si Si7 0.415714 0.921122 0.000000
O O1 0.110426 0.744031 0.500000
O O2 0.209712 0.754959 0.377026
O O3 0.104988 0.850768 0.396810
O O4 0.085273 0.739286 0.308307
O O5 0.146522 0.734562 0.150702
O O6 0.206383 0.855058 0.152990
O O7 0.203074 0.783762 0.000000
O O8 0.605423 0.500000 0.895795
O O9 0.691159 0.578318 0.810446
O O10 0.679902 0.576610 0.000000
O O11 0.421898 0.871783 0.723192
O O12 0.306888 0.924977 0.779956
O O13 0.418857 0.000000 0.798819
O O14 0.394919 0.892486 0.901435
O O15 0.500000 0.231444 0.667086
O O16 0.797918 0.000000 0.168332
O O17 0.500000 0.923612 0.000000
O O18 0.385946 0.000000 0.000000
#
# Coordination Sequence:
#
# PCOD9520026 Si02
#       7
#    16  16  16  16  16  16   8
#     4  10  20  36  60  86 114 148 188 244 302 350
#     4  11  23  40  60  82 116 156 199 255 302 342
#     4   9  17  31  54  83 114 145 178 226 287 345
#     4  10  21  35  54  83 119 154 191 237 289 356
#     4  12  24  37  58  84 119 162 198 237 289 357
#     4  10  19  33  59  88 114 147 193 245 295 353
#     4   9  18  32  48  72 114 158 186 218 280 357
#
# _framework density 19.495099
#
# number of rings (size 3 to 8) (size 9 to 14) (size 15 to 20)
#    0.000    1.769    3.077    1.846    2.154    1.846 
#    0.000    0.000    0.000    2.308    0.000    4.308 
#    0.000    0.000    0.000    0.000    0.000    0.000 
#
# Total GULP energy -289593.821876 kJ/mol
# GULP energy per Si atom -5569.111959 kJ/mol
# Density = 1.945073 g / cm^3
# Si number density = 19.495099 Si / 1000 Ang^3
#
#
#
# Elastic Constant Matrix: (Units=GPa)
#
#
# Indices 1 2 3 4 5 6 
#
# 1 44.0168 2.8664 3.2984 0.0000 0.0000 0.0000
# 2 2.8664 122.7074 24.6494 0.0000 0.0000 0.0000
# 3 3.2984 24.6494 48.3223 0.0000 0.0000 0.0000
# 4 0.0000 0.0000 0.0000 29.1288 0.0000 0.0000
# 5 0.0000 0.0000 0.0000 0.0000 -33.5787 0.0000
# 6 0.0000 0.0000 0.0000 0.0000 0.0000 44.9626
#
#
#
# Elastic Compliance Matrix: (Units=1/GPa)
#
#
# Indices 1 2 3 4 5 6 
#
# 1 0.022842 -0.000246 -0.001434 0.000000 0.000000 0.000000
# 2 -0.000246 0.009083 -0.004616 0.000000 0.000000 0.000000
# 3 -0.001434 -0.004616 0.023147 0.000000 0.000000 0.000000
# 4 0.000000 0.000000 0.000000 0.034330 0.000000 0.000000
# 5 0.000000 0.000000 0.000000 0.000000 -0.029781 0.000000
# 6 0.000000 0.000000 0.000000 0.000000 0.000000 0.022241
#
#
# Mechanical properties :
#
#
# Convention : Reuss Voigt Hill
#
# Bulk Modulus (GPa) = 23.54042 30.74166 27.14104
# Shear Modulus (GPa) = 46.03492 20.38471 33.20981
#
# Velocity S-wave (km/s) = 4.86465 3.23713 4.13182
# Velocity P-wave (km/s) = 6.60715 5.45666 6.05927
#
# Compressibility (1/GPa) = 0.04248013
#
# Stress axis : x y z
#
# Youngs Moduli (GPa) = 43.77894 110.10170 43.20210
#
# Poissons Ratio (x) = 0.02703 0.06195
# Poissons Ratio (y) = 0.01075 0.19943
# Poissons Ratio (z) = 0.06278 0.50826
#
# Static dielectric constant tensor:
#      x y z
#    x 1.672760 0.000000 0.000000 
#    y 0.000000 1.802200 0.000000 
#    z 0.000000 0.000000 1.617330 
# 
# From -- ./inp_files/36695.got.cif
#   From: 2010.05.17/outbox.cif.g08.bks.cpg/sg71_19_cif.got.tgz:36695.got - 2010.06.03 16:22:01.
