data_PCOD9520578
_publ_section_title
;
Structure prediction by ZEFSAII (Michael W. Deem and Ramdas Pophale) SiO2 
 PCOD9520578
Probable space group: I M M M
;
_chemical_formula_sum "Si O2"
_cell_formula_units_Z 104
_cell_length_a 28.337643
_cell_length_b 8.462208
_cell_length_c 24.870555
_cell_angle_alpha 90.000000
_cell_angle_beta 90.000000
_cell_angle_gamma 90.000000
_cell_volume 5963.934947
_symmetry_space_group_name_H-M "I M M M"
_symmetry_group_IT_number 71
_symmetry_cell_setting 'orthorhombic'
loop_
_space_group_symop_operation_xyz
x,y,z
-x,-y,z
x,-y,-z
-x,y,-z
-x,-y,-z
x,y,-z
-x,y,z
x,-y,z
1/2+x,1/2+y,1/2+z
1/2-x,1/2-y,1/2+z
1/2+x,1/2-y,1/2-z
1/2-x,1/2+y,1/2-z
1/2-x,1/2-y,1/2-z
1/2+x,1/2+y,1/2-z
1/2-x,1/2+y,1/2+z
1/2+x,1/2-y,1/2+z
loop_
_atom_site_type_symbol
_atom_site_label
_atom_site_fract_x
_atom_site_fract_y
_atom_site_fract_z
Si Si1 0.374798 0.808807 0.828265
Si Si2 0.801858 0.309391 0.764226
Si Si3 0.000000 0.177222 0.564754
Si Si4 0.446363 0.690392 0.437625
Si Si5 0.601788 0.189104 0.059842
Si Si6 0.879458 0.314067 0.845350
Si Si7 0.554925 0.686950 0.252429
O O1 0.334334 0.762707 0.786515
O O2 0.366975 0.758093 0.889726
O O3 0.421951 0.733305 0.804001
O O4 0.378998 0.000000 0.826834
O O5 0.800941 0.500000 0.766889
O O6 0.750000 0.250000 0.750000
O O7 0.829897 0.254454 0.818468
O O8 0.048252 0.267903 0.575998
O O9 0.000000 0.163352 0.500000
O O10 0.000000 0.000000 0.587996
O O11 0.439444 0.739549 0.500000
O O12 0.500000 0.742564 0.421098
O O13 0.447134 0.500000 0.436563
O O14 0.404440 0.743514 0.398197
O O15 0.605390 0.000000 0.056425
O O16 0.611643 0.254139 0.000000
O O17 0.874016 0.500000 0.854360
O O18 0.916958 0.281891 0.797800
O O19 0.500000 0.723809 0.253724
O O20 0.561076 0.500000 0.262542
#
# Coordination Sequence:
#
# PCOD9520578 Si02
#       7
#    16  16   8  16  16  16  16
#     4   9  19  33  48  69  94 120 155 198 241 289
#     4   9  19  35  53  73  94 119 156 202 254 304
#     4   9  17  27  39  59  89 123 157 191 220 251
#     4   9  18  32  50  75 109 146 179 208 239 283
#     4   9  17  30  47  65  88 122 159 191 228 274
#     4  10  20  33  50  74 101 129 165 206 248 296
#     4  10  20  31  44  66  96 129 163 198 238 287
#
# _framework density 17.438151999999999
#
# number of rings (size 3 to 8) (size 9 to 14) (size 15 to 20)
#    0.000    2.692    0.000    3.000    1.077    8.308 
#    0.000    0.769    0.000    0.923    0.000    2.154 
#    0.000    0.000    0.000    0.000    0.000    0.000 
#
# Total GULP energy -289483.101846 kJ/mol
# GULP energy per Si atom -5566.982728 kJ/mol
# Density = 1.739846 g / cm^3
# Si number density = 17.438152 Si / 1000 Ang^3
#
#
#
# Elastic Constant Matrix: (Units=GPa)
#
#
# Indices 1 2 3 4 5 6 
#
# 1 88.5345 10.5788 42.4460 0.0000 0.0000 0.0000
# 2 10.5788 2.9096 10.0491 0.0000 0.0000 0.0000
# 3 42.4460 10.0491 108.5266 0.0000 0.0000 0.0000
# 4 0.0000 0.0000 0.0000 15.9991 0.0000 0.0000
# 5 0.0000 0.0000 0.0000 0.0000 16.5908 0.0000
# 6 0.0000 0.0000 0.0000 0.0000 0.0000 22.5308
#
#
#
# Elastic Compliance Matrix: (Units=1/GPa)
#
#
# Indices 1 2 3 4 5 6 
#
# 1 0.020162 -0.067731 -0.001614 0.000000 0.000000 0.000000
# 2 -0.067731 0.732809 -0.041365 0.000000 0.000000 0.000000
# 3 -0.001614 -0.041365 0.013676 0.000000 0.000000 0.000000
# 4 0.000000 0.000000 0.000000 0.062503 0.000000 0.000000
# 5 0.000000 0.000000 0.000000 0.000000 0.060274 0.000000
# 6 0.000000 0.000000 0.000000 0.000000 0.000000 0.044384
#
#
# Mechanical properties :
#
#
# Convention : Reuss Voigt Hill
#
# Bulk Modulus (GPa) = 1.83409 36.23539 19.03474
# Shear Modulus (GPa) = 3.73980 20.15059 11.94520
#
# Velocity S-wave (km/s) = 1.46604 3.40302 2.62010
# Velocity P-wave (km/s) = 1.97983 6.02206 4.48246
#
# Compressibility (1/GPa) = 0.54522839
#
# Stress axis : x y z
#
# Youngs Moduli (GPa) = 49.59870 1.36461 73.12204
#
# Poissons Ratio (x) = 0.09243 0.11802
# Poissons Ratio (y) = 3.35935 3.02468
# Poissons Ratio (z) = 0.08005 0.05645
#
# Static dielectric constant tensor:
#      x y z
#    x 1.592840 0.000000 0.000000 
#    y 0.000000 1.605260 0.000000 
#    z 0.000000 0.000000 1.641650 
# 
# From -- ./inp_files/61931.got.cif
#   From: 2010.05.17/outbox.cif.g08.bks.cpg/sg71_31_cif.got.tgz:61931.got - 2010.06.03 16:22:01.
