data_PCOD9520391
_publ_section_title
;
Structure prediction by ZEFSAII (Michael W. Deem and Ramdas Pophale) SiO2 
 PCOD9520391
Probable space group: I M M M
;
_chemical_formula_sum "Si O2"
_cell_formula_units_Z 104
_cell_length_a 22.143209
_cell_length_b 29.145923
_cell_length_c 7.627949
_cell_angle_alpha 90.000000
_cell_angle_beta 90.000000
_cell_angle_gamma 90.000000
_cell_volume 4922.958255
_symmetry_space_group_name_H-M "I M M M"
_symmetry_group_IT_number 71
_symmetry_cell_setting 'orthorhombic'
loop_
_space_group_symop_operation_xyz
x,y,z
-x,-y,z
x,-y,-z
-x,y,-z
-x,-y,-z
x,y,-z
-x,y,z
x,-y,z
1/2+x,1/2+y,1/2+z
1/2-x,1/2-y,1/2+z
1/2+x,1/2-y,1/2-z
1/2-x,1/2+y,1/2-z
1/2-x,1/2-y,1/2-z
1/2+x,1/2+y,1/2-z
1/2-x,1/2+y,1/2+z
1/2+x,1/2-y,1/2+z
loop_
_atom_site_type_symbol
_atom_site_label
_atom_site_fract_x
_atom_site_fract_y
_atom_site_fract_z
Si Si1 0.624405 0.397352 0.206764
Si Si2 0.241700 0.948128 0.291277
Si Si3 0.430745 0.201060 0.214705
Si Si4 0.842950 0.625289 0.307017
Si Si5 0.000000 0.947207 0.210576
Si Si6 0.431272 0.693450 0.213882
Si Si7 0.428188 0.949536 0.293928
O O1 0.678602 0.428000 0.280945
O O2 0.560570 0.422676 0.225541
O O3 0.614000 0.345872 0.277608
O O4 0.637395 0.392187 0.000000
O O5 0.236001 0.953293 0.500000
O O6 0.291130 0.907996 0.266211
O O7 0.255272 0.000000 0.223520
O O8 0.500000 0.188210 0.268461
O O9 0.375885 0.169054 0.279716
O O10 0.420301 0.254006 0.265386
O O11 0.430541 0.198495 0.000000
O O12 0.822236 0.639566 0.500000
O O13 0.899008 0.590392 0.313448
O O14 0.000000 0.000000 0.268253
O O15 0.000000 0.945803 0.000000
O O16 0.500000 0.681577 0.266998
O O17 0.430550 0.692850 0.000000
O O18 0.412458 0.943740 0.500000
O O19 0.500000 0.948738 0.281051
O O20 0.406794 0.000000 0.239860
#
# Coordination Sequence:
#
# PCOD9520391 Si02
#       7
#    16  16  16  16   8  16  16
#     4  10  19  35  60  84 101 130 182 226 253 300
#     4  10  22  38  53  71 101 140 178 221 269 309
#     4   8  15  28  48  77 109 134 163 209 264 316
#     4  11  21  32  49  73 101 137 179 217 253 306
#     4  11  23  35  51  81 119 147 163 199 268 329
#     4   8  13  26  52  83 106 126 161 211 263 309
#     4   9  18  32  49  69  95 128 166 213 270 321
#
# _framework density 21.125509999999998
#
# number of rings (size 3 to 8) (size 9 to 14) (size 15 to 20)
#    0.000    2.538    0.769    3.462    0.000    5.231 
#    0.000    1.538    0.000    1.846    0.000    0.000 
#    0.000    0.000    0.000    0.000    0.000    0.000 
#
# Total GULP energy -289843.538618 kJ/mol
# GULP energy per Si atom -5573.914204 kJ/mol
# Density = 2.107743 g / cm^3
# Si number density = 21.125510 Si / 1000 Ang^3
#
#
#
# Elastic Constant Matrix: (Units=GPa)
#
#
# Indices 1 2 3 4 5 6 
#
# 1 111.7185 77.7994 3.5865 0.0000 0.0000 0.0000
# 2 77.7994 147.6012 5.5941 0.0000 0.0000 0.0000
# 3 3.5865 5.5941 35.6326 0.0000 0.0000 0.0000
# 4 0.0000 0.0000 0.0000 27.0984 0.0000 0.0000
# 5 0.0000 0.0000 0.0000 0.0000 24.1898 0.0000
# 6 0.0000 0.0000 0.0000 0.0000 0.0000 32.2248
#
#
#
# Elastic Compliance Matrix: (Units=1/GPa)
#
#
# Indices 1 2 3 4 5 6 
#
# 1 0.014144 -0.007446 -0.000255 0.000000 0.000000 0.000000
# 2 -0.007446 0.010735 -0.000936 0.000000 0.000000 0.000000
# 3 -0.000255 -0.000936 0.028237 0.000000 0.000000 0.000000
# 4 0.000000 0.000000 0.000000 0.036903 0.000000 0.000000
# 5 0.000000 0.000000 0.000000 0.000000 0.041340 0.000000
# 6 0.000000 0.000000 0.000000 0.000000 0.000000 0.031032
#
#
# Mechanical properties :
#
#
# Convention : Reuss Voigt Hill
#
# Bulk Modulus (GPa) = 27.89912 52.10137 40.00024
# Shear Modulus (GPa) = 26.09453 30.56741 28.33097
#
# Velocity S-wave (km/s) = 3.51837 3.80800 3.66605
# Velocity P-wave (km/s) = 5.45347 6.63708 6.07417
#
# Compressibility (1/GPa) = 0.03584343
#
# Stress axis : x y z
#
# Youngs Moduli (GPa) = 70.69960 93.15267 35.41487
#
# Poissons Ratio (x) = 0.69359 0.00902
# Poissons Ratio (y) = 0.52641 0.03315
# Poissons Ratio (z) = 0.01801 0.08718
#
# Static dielectric constant tensor:
#      x y z
#    x 1.768740 0.000000 0.000000 
#    y 0.000000 1.803670 0.000000 
#    z 0.000000 0.000000 1.839020 
# 
# From -- ./inp_files/11463.got.cif
#   From: 2010.05.17/outbox.cif.g08.bks.cpg/sg71_6_cif.got.tgz:11463.got - 2010.06.03 16:22:01.
