data_PCOD9520943
_publ_section_title
;
Structure prediction by ZEFSAII (Michael W. Deem and Ramdas Pophale) SiO2 
 PCOD9520943
Probable space group: I M M M
;
_chemical_formula_sum "Si O2"
_cell_formula_units_Z 112
_cell_length_a 7.229290
_cell_length_b 26.176900
_cell_length_c 23.656402
_cell_angle_alpha 90.000000
_cell_angle_beta 90.000000
_cell_angle_gamma 90.000000
_cell_volume 4476.747010
_symmetry_space_group_name_H-M "I M M M"
_symmetry_group_IT_number 71
_symmetry_cell_setting 'orthorhombic'
loop_
_space_group_symop_operation_xyz
x,y,z
-x,-y,z
x,-y,-z
-x,y,-z
-x,-y,-z
x,y,-z
-x,y,z
x,-y,z
1/2+x,1/2+y,1/2+z
1/2-x,1/2-y,1/2+z
1/2+x,1/2-y,1/2-z
1/2-x,1/2+y,1/2-z
1/2-x,1/2-y,1/2-z
1/2+x,1/2+y,1/2-z
1/2-x,1/2+y,1/2+z
1/2+x,1/2-y,1/2+z
loop_
_atom_site_type_symbol
_atom_site_label
_atom_site_fract_x
_atom_site_fract_y
_atom_site_fract_z
Si Si1 0.277688 0.142228 0.258674
Si Si2 0.722859 0.418355 0.438903
Si Si3 0.223345 0.443254 0.147508
Si Si4 0.276161 0.221543 0.344975
Si Si5 0.288293 0.944887 0.815414
Si Si6 0.275698 0.299138 0.563234
Si Si7 0.275720 0.863995 0.562634
O O1 0.500000 0.149122 0.254054
O O2 0.232840 0.098514 0.305132
O O3 0.210842 0.196128 0.285527
O O4 0.211692 0.110641 0.203844
O O5 0.783394 0.438105 0.500000
O O6 0.500000 0.421550 0.437622
O O7 0.790452 0.444497 0.382683
O O8 0.773286 0.358543 0.435929
O O9 0.291994 0.500000 0.157397
O O10 0.281088 0.418232 0.088406
O O11 0.000000 0.445458 0.147193
O O12 0.500000 0.224846 0.340418
O O13 0.213253 0.272257 0.378258
O O14 0.227764 0.179208 0.392357
O O15 0.500000 0.945595 0.794084
O O16 0.207297 0.000000 0.796888
O O17 0.219282 0.278945 0.500000
O O18 0.500000 0.294869 0.563150
O O19 0.208630 0.854503 0.500000
O O20 0.500000 0.863353 0.561025
#
# Coordination Sequence:
#
# PCOD9520943 Si02
#       7
#    16  16  16  16  16  16  16
#     4   8  14  24  37  56  82 110 144 184 219 252
#     4   9  19  35  52  71  95 119 144 180 228 278
#     4   8  12  17  25  37  59  96 137 174 212 252
#     4   8  12  19  34  55  79 109 144 181 218 255
#     4  10  20  33  50  70  92 121 155 188 222 265
#     4   8  13  23  41  63  87 117 151 185 223 268
#     4   8  12  15  20  36  63  94 132 177 216 248
#
# _framework density 25.018166000000001
#
# number of rings (size 3 to 8) (size 9 to 14) (size 15 to 20)
#    0.000    3.571    0.000    3.429    0.000    4.571 
#    0.000    3.571    0.000    0.000    0.000    0.000 
#    0.000    0.000    0.000    0.000    0.000    9.286 
#
# Total GULP energy -312161.389928 kJ/mol
# GULP energy per Si atom -5574.310534 kJ/mol
# Density = 2.496122 g / cm^3
# Si number density = 25.018166 Si / 1000 Ang^3
#
#
#
# Elastic Constant Matrix: (Units=GPa)
#
#
# Indices 1 2 3 4 5 6 
#
# 1 113.5282 -0.1593 -1.5110 0.0000 0.0000 0.0000
# 2 -0.1593 105.5599 37.5319 0.0000 0.0000 -0.0002
# 3 -1.5110 37.5319 103.6113 0.0001 0.0000 0.0004
# 4 0.0000 0.0000 0.0001 36.1294 0.0000 0.0005
# 5 0.0000 0.0000 0.0000 0.0000 -67.3652 0.0001
# 6 0.0000 -0.0002 0.0004 0.0005 0.0001 2754.1890
#
#
#
# Elastic Compliance Matrix: (Units=1/GPa)
#
#
# Indices 1 2 3 4 5 6 
#
# 1 0.008810 -0.000037 0.000142 0.000000 0.000000 0.000000
# 2 -0.000037 0.010874 -0.003939 0.000000 0.000000 0.000000
# 3 0.000142 -0.003939 0.011081 0.000000 0.000000 0.000000
# 4 0.000000 0.000000 0.000000 0.027678 0.000000 0.000000
# 5 0.000000 0.000000 0.000000 0.000000 -0.014844 0.000000
# 6 0.000000 0.000000 0.000000 0.000000 0.000000 0.000363
#
#
# Mechanical properties :
#
#
# Convention : Reuss Voigt Hill
#
# Bulk Modulus (GPa) = 43.29889 43.82473 43.56181
# Shear Modulus (GPa) = 84.27517 563.71316 323.99416
#
# Velocity S-wave (km/s) = 5.81023 15.02700 11.39231
# Velocity P-wave (km/s) = 7.89659 17.85038 13.80203
#
# Compressibility (1/GPa) = 0.02309528
#
# Stress axis : x y z
#
# Youngs Moduli (GPa) = 113.50449 91.96318 90.24822
#
# Poissons Ratio (x) = 0.00342 -0.01281
# Poissons Ratio (y) = 0.00422 0.35553
# Poissons Ratio (z) = -0.01611 0.36229
#
# Static dielectric constant tensor:
#      x y z
#    x 2.183090 0.000000 0.000000 
#    y 0.000000 1.996740 0.000000 
#    z 0.000000 0.000000 1.999450 
# 
# From -- ./inp_files/27987.got.cif
#   From: 2010.05.17/outbox.cif.g08.bks.cpg/sg71_14_cif.got.tgz:27987.got - 2010.06.03 16:22:01.
