data_PCOD9520868
_publ_section_title
;
Structure prediction by ZEFSAII (Michael W. Deem and Ramdas Pophale) SiO2 
 PCOD9520868
Probable space group: I M M M
;
_chemical_formula_sum "Si O2"
_cell_formula_units_Z 72
_cell_length_a 36.948733
_cell_length_b 14.342689
_cell_length_c 8.200542
_cell_angle_alpha 90.000000
_cell_angle_beta 90.000000
_cell_angle_gamma 90.000000
_cell_volume 4345.829558
_symmetry_space_group_name_H-M "I M M M"
_symmetry_group_IT_number 71
_symmetry_cell_setting 'orthorhombic'
loop_
_space_group_symop_operation_xyz
x,y,z
-x,-y,z
x,-y,-z
-x,y,-z
-x,-y,-z
x,y,-z
-x,y,z
x,-y,z
1/2+x,1/2+y,1/2+z
1/2-x,1/2-y,1/2+z
1/2+x,1/2-y,1/2-z
1/2-x,1/2+y,1/2-z
1/2-x,1/2-y,1/2-z
1/2+x,1/2+y,1/2-z
1/2-x,1/2+y,1/2+z
1/2+x,1/2-y,1/2+z
loop_
_atom_site_type_symbol
_atom_site_label
_atom_site_fract_x
_atom_site_fract_y
_atom_site_fract_z
Si Si1 0.728859 0.611605 0.691018
Si Si2 0.588021 0.611662 0.316851
Si Si3 0.690387 0.107191 0.305718
Si Si4 0.541468 0.386826 0.000000
Si Si5 0.342806 0.710357 0.812633
O O1 0.728682 0.636528 0.500000
O O2 0.724238 0.500000 0.705496
O O3 0.768159 0.633932 0.763869
O O4 0.695486 0.661136 0.776858
O O5 0.573473 0.628758 0.500000
O O6 0.594192 0.500000 0.302537
O O7 0.562231 0.640173 0.166434
O O8 0.626026 0.664251 0.295396
O O9 0.685963 0.111210 0.500000
O O10 0.663848 0.181137 0.224357
O O11 0.685266 0.000000 0.251268
O O12 0.540851 0.500000 0.000000
O O13 0.500000 0.354172 0.000000
O O14 0.352764 0.695497 0.000000
#
# Coordination Sequence:
#
# PCOD9520868 Si02
#       5
#    16  16  16   8  16
#     4  10  20  33  48  67  92 125 167 212 258 306
#     4  10  20  34  52  77 108 138 171 208 245 292
#     4  10  21  36  50  65  89 124 169 218 263 307
#     4   9  18  34  54  78 109 141 171 201 242 300
#     4  12  22  32  49  70  97 131 167 211 259 304
#
# _framework density 16.567609000000001
#
# number of rings (size 3 to 8) (size 9 to 14) (size 15 to 20)
#    0.000    1.667    1.111    4.667    0.000    5.778 
#    0.000    2.222    0.000    0.000    0.000    0.000 
#    0.000    1.778    0.000    4.667    0.000    0.222 
#
# Total GULP energy -201040.205828 kJ/mol
# GULP energy per Si atom -5584.450162 kJ/mol
# Density = 1.652990 g / cm^3
# Si number density = 16.567609 Si / 1000 Ang^3
#
#
#
# Elastic Constant Matrix: (Units=GPa)
#
#
# Indices 1 2 3 4 5 6 
#
# 1 68.0301 29.0308 30.2255 0.0000 0.0000 0.0000
# 2 29.0308 36.5536 24.4462 0.0000 0.0000 0.0000
# 3 30.2255 24.4462 97.6674 0.0001 0.0000 0.0000
# 4 0.0000 0.0000 0.0001 20.4688 0.0000 0.0000
# 5 0.0000 0.0000 0.0000 0.0000 17.7500 0.0000
# 6 0.0000 0.0000 0.0000 0.0000 0.0000 12.1749
#
#
#
# Elastic Compliance Matrix: (Units=1/GPa)
#
#
# Indices 1 2 3 4 5 6 
#
# 1 0.022969 -0.016200 -0.003053 0.000000 0.000000 0.000000
# 2 -0.016200 0.044283 -0.006071 0.000000 0.000000 0.000000
# 3 -0.003053 -0.006071 0.012703 0.000000 0.000000 0.000000
# 4 0.000000 0.000000 0.000000 0.048855 0.000000 0.000000
# 5 0.000000 0.000000 0.000000 0.000000 0.056338 0.000000
# 6 0.000000 0.000000 0.000000 0.000000 0.000000 0.082136
#
#
# Mechanical properties :
#
#
# Convention : Reuss Voigt Hill
#
# Bulk Modulus (GPa) = 34.12117 41.07289 37.59703
# Shear Modulus (GPa) = 15.25781 17.98200 16.61990
#
# Velocity S-wave (km/s) = 3.03800 3.29807 3.17070
# Velocity P-wave (km/s) = 5.73984 6.27279 6.01222
#
# Compressibility (1/GPa) = 0.02930732
#
# Stress axis : x y z
#
# Youngs Moduli (GPa) = 43.53681 22.58208 78.71987
#
# Poissons Ratio (x) = 0.36583 0.24037
# Poissons Ratio (y) = 0.70529 0.47788
# Poissons Ratio (z) = 0.13294 0.13709
#
# Static dielectric constant tensor:
#      x y z
#    x 1.525770 0.000000 0.000000 
#    y 0.000000 1.566610 0.000000 
#    z 0.000000 0.000000 1.585270 
# 
# From -- ./inp_files/16366.got.cif
#   From: 2010.05.17/outbox.cif.g08.bks.cpg/sg71_9_cif.got.tgz:16366.got - 2010.06.03 16:22:01.
