data_PCOD9520953
_publ_section_title
;
Structure prediction by ZEFSAII (Michael W. Deem and Ramdas Pophale) SiO2 
 PCOD9520953
Probable space group: I M M M
;
_chemical_formula_sum "Si O2"
_cell_formula_units_Z 72
_cell_length_a 28.172389
_cell_length_b 19.465349
_cell_length_c 8.550195
_cell_angle_alpha 90.000000
_cell_angle_beta 90.000000
_cell_angle_gamma 90.000000
_cell_volume 4688.801969
_symmetry_space_group_name_H-M "I M M M"
_symmetry_group_IT_number 71
_symmetry_cell_setting 'orthorhombic'
loop_
_space_group_symop_operation_xyz
x,y,z
-x,-y,z
x,-y,-z
-x,y,-z
-x,-y,-z
x,y,-z
-x,y,z
x,-y,z
1/2+x,1/2+y,1/2+z
1/2-x,1/2-y,1/2+z
1/2+x,1/2-y,1/2-z
1/2-x,1/2+y,1/2-z
1/2-x,1/2-y,1/2-z
1/2+x,1/2+y,1/2-z
1/2-x,1/2+y,1/2+z
1/2+x,1/2-y,1/2+z
loop_
_atom_site_type_symbol
_atom_site_label
_atom_site_fract_x
_atom_site_fract_y
_atom_site_fract_z
Si Si1 0.675106 0.779698 0.186259
Si Si2 0.225722 0.148156 0.813161
Si Si3 0.500000 0.918205 0.188181
Si Si4 0.600684 0.876153 0.685011
Si Si5 0.765183 0.000000 0.683303
Si Si6 0.838467 0.500000 0.317618
O O1 0.720333 0.828321 0.229555
O O2 0.691222 0.703620 0.234559
O O3 0.628336 0.806446 0.272634
O O4 0.668588 0.784392 0.000000
O O5 0.216835 0.070695 0.759126
O O6 0.222117 0.153543 0.000000
O O7 0.453081 0.882987 0.257088
O O8 0.500000 0.000000 0.228876
O O9 0.500000 0.913649 0.000000
O O10 0.603063 0.889065 0.500000
O O11 0.629947 0.934340 0.777465
O O12 0.774890 0.000000 0.500000
O O13 0.708701 0.000000 0.715148
O O14 0.824632 0.500000 0.500000
#
# Coordination Sequence:
#
# PCOD9520953 Si02
#       6
#    16  16   8  16   8   8
#     4  10  20  34  51  70  98 131 166 204 249 297
#     4  10  20  33  50  71  99 130 166 206 247 293
#     4  11  23  37  53  71  98 131 168 211 254 292
#     4  12  23  35  52  72  97 129 169 211 252 296
#     4  12  22  32  49  73 100 131 169 208 249 295
#     4  12  22  33  47  68  96 132 170 207 250 293
#
# _framework density 15.355734999999999
#
# number of rings (size 3 to 8) (size 9 to 14) (size 15 to 20)
#    0.000    1.000    3.333    5.667    0.000    2.222 
#    0.000    0.000    0.000    0.000    0.000    0.000 
#    0.000    0.889    0.000    8.889    0.000    5.333 
#
# Total GULP energy -201169.585898 kJ/mol
# GULP energy per Si atom -5588.044053 kJ/mol
# Density = 1.532078 g / cm^3
# Si number density = 15.355735 Si / 1000 Ang^3
#
#
#
# Elastic Constant Matrix: (Units=GPa)
#
#
# Indices 1 2 3 4 5 6 
#
# 1 71.1386 29.4231 9.8613 0.0000 0.0000 0.0000
# 2 29.4231 93.0878 10.3527 0.0000 0.0000 0.0000
# 3 9.8613 10.3527 52.9491 0.0000 0.0000 0.0000
# 4 0.0000 0.0000 0.0000 26.7925 0.0000 0.0000
# 5 0.0000 0.0000 0.0000 0.0000 22.3460 0.0000
# 6 0.0000 0.0000 0.0000 0.0000 0.0000 18.2726
#
#
#
# Elastic Compliance Matrix: (Units=1/GPa)
#
#
# Indices 1 2 3 4 5 6 
#
# 1 0.016393 -0.004950 -0.002085 0.000000 0.000000 0.000000
# 2 -0.004950 0.012476 -0.001517 0.000000 0.000000 0.000000
# 3 -0.002085 -0.001517 0.019571 0.000000 0.000000 0.000000
# 4 0.000000 0.000000 0.000000 0.037324 0.000000 0.000000
# 5 0.000000 0.000000 0.000000 0.000000 0.044751 0.000000
# 6 0.000000 0.000000 0.000000 0.000000 0.000000 0.054727
#
#
# Mechanical properties :
#
#
# Convention : Reuss Voigt Hill
#
# Bulk Modulus (GPa) = 31.91287 35.16107 33.53697
# Shear Modulus (GPa) = 23.49718 24.65147 24.07432
#
# Velocity S-wave (km/s) = 3.91601 4.01104 3.96381
# Velocity P-wave (km/s) = 6.42451 6.66323 6.54496
#
# Compressibility (1/GPa) = 0.03133532
#
# Stress axis : x y z
#
# Youngs Moduli (GPa) = 61.00045 80.15522 51.09566
#
# Poissons Ratio (x) = 0.39674 0.10655
# Poissons Ratio (y) = 0.30193 0.07754
# Poissons Ratio (z) = 0.12721 0.12163
#
# Static dielectric constant tensor:
#      x y z
#    x 1.491290 0.000000 0.000000 
#    y 0.000000 1.522750 0.000000 
#    z 0.000000 0.000000 1.505150 
# 
# From -- ./inp_files/6132.got.cif
#   From: 2010.05.17/outbox.cif.g08.bks.cpg/sg71_4_cif.got.tgz:6132.got - 2010.06.03 16:22:01.
