data_PCOD9520832
_publ_section_title
;
Structure prediction by ZEFSAII (Michael W. Deem and Ramdas Pophale) SiO2 
 PCOD9520832
Probable space group: I M M M
;
_chemical_formula_sum "Si O2"
_cell_formula_units_Z 120
_cell_length_a 16.580686
_cell_length_b 17.887494
_cell_length_c 20.730074
_cell_angle_alpha 90.000000
_cell_angle_beta 90.000000
_cell_angle_gamma 90.000000
_cell_volume 6148.268827
_symmetry_space_group_name_H-M "I M M M"
_symmetry_group_IT_number 71
_symmetry_cell_setting 'orthorhombic'
loop_
_space_group_symop_operation_xyz
x,y,z
-x,-y,z
x,-y,-z
-x,y,-z
-x,-y,-z
x,y,-z
-x,y,z
x,-y,z
1/2+x,1/2+y,1/2+z
1/2-x,1/2-y,1/2+z
1/2+x,1/2-y,1/2-z
1/2-x,1/2+y,1/2-z
1/2-x,1/2-y,1/2-z
1/2+x,1/2+y,1/2-z
1/2-x,1/2+y,1/2+z
1/2+x,1/2-y,1/2+z
loop_
_atom_site_type_symbol
_atom_site_label
_atom_site_fract_x
_atom_site_fract_y
_atom_site_fract_z
Si Si1 0.336566 0.413516 0.882276
Si Si2 0.836052 0.587942 0.301386
Si Si3 0.346672 0.627081 0.735988
Si Si4 0.404606 0.209709 0.295310
Si Si5 0.412106 0.586615 0.396262
Si Si6 0.802926 0.308201 0.075747
Si Si7 0.233166 0.647506 0.572668
Si Si8 0.500000 0.416051 0.925368
O O1 0.333768 0.500000 0.901671
O O2 0.353919 0.404790 0.806827
O O3 0.254452 0.376672 0.905480
O O4 0.416614 0.376249 0.910789
O O5 0.855493 0.500000 0.295423
O O6 0.743409 0.603266 0.282157
O O7 0.886262 0.640618 0.252908
O O8 0.829126 0.613251 0.376062
O O9 0.359795 0.716395 0.732248
O O10 0.404770 0.594364 0.681151
O O11 0.500000 0.223550 0.297662
O O12 0.370401 0.197166 0.368057
O O13 0.500000 0.618859 0.416382
O O14 0.411935 0.500000 0.414529
O O15 0.327158 0.619950 0.420246
O O16 0.745548 0.235681 0.082975
O O17 0.829218 0.310977 0.000000
O O18 0.207730 0.631354 0.500000
O O19 0.500000 0.500000 0.893275
O O20 0.500000 0.428023 0.000000
#
# Coordination Sequence:
#
# PCOD9520832 Si02
#       8
#    16  16  16  16  16  16  16   8
#     4  11  22  37  61  92 125 163 206 257 317 375
#     4  11  22  40  65  91 122 160 206 262 313 370
#     4  11  20  36  59  88 118 157 204 250 308 366
#     4  12  25  41  64  92 126 167 212 264 319 373
#     4  10  20  32  51  85 127 160 192 240 298 362
#     4  11  23  40  63  89 124 170 217 258 303 373
#     4  10  21  38  61  88 120 161 208 250 301 371
#     4   9  20  36  52  80 122 160 194 242 310 377
#
# _framework density 19.517689000000001
#
# number of rings (size 3 to 8) (size 9 to 14) (size 15 to 20)
#    0.000    1.267    4.000    4.400    1.867    2.667 
#    0.000    2.000    0.000    0.400    0.000    2.800 
#    0.000    0.000    0.000    0.000    0.000    0.000 
#
# Total GULP energy -334459.569043 kJ/mol
# GULP energy per Si atom -5574.326151 kJ/mol
# Density = 1.947327 g / cm^3
# Si number density = 19.517689 Si / 1000 Ang^3
#
#
#
# Elastic Constant Matrix: (Units=GPa)
#
#
# Indices 1 2 3 4 5 6 
#
# 1 19.5421 -5.8622 -1.2955 0.0000 0.0000 0.0000
# 2 -5.8622 79.2971 8.9474 0.0000 0.0000 0.0000
# 3 -1.2955 8.9474 90.3254 0.0000 0.0000 0.0000
# 4 0.0000 0.0000 0.0000 -92.6873 0.0000 0.0000
# 5 0.0000 0.0000 0.0000 0.0000 76.8081 0.0000
# 6 0.0000 0.0000 0.0000 0.0000 0.0000 11.2156
#
#
#
# Elastic Compliance Matrix: (Units=1/GPa)
#
#
# Indices 1 2 3 4 5 6 
#
# 1 0.052344 0.003828 0.000372 0.000000 0.000000 0.000000
# 2 0.003828 0.013033 -0.001236 0.000000 0.000000 0.000000
# 3 0.000372 -0.001236 0.011199 0.000000 0.000000 0.000000
# 4 0.000000 0.000000 0.000000 -0.010789 0.000000 0.000000
# 5 0.000000 0.000000 0.000000 0.000000 0.013019 0.000000
# 6 0.000000 0.000000 0.000000 0.000000 0.000000 0.089162
#
#
# Mechanical properties :
#
#
# Convention : Reuss Voigt Hill
#
# Bulk Modulus (GPa) = 12.12078 21.41600 16.76839
# Shear Modulus (GPa) = 26.37919 11.55895 18.96907
#
# Velocity S-wave (km/s) = 3.68034 2.43622 3.12090
# Velocity P-wave (km/s) = 4.92782 4.34856 4.64723
#
# Compressibility (1/GPa) = 0.08250292
#
# Stress axis : x y z
#
# Youngs Moduli (GPa) = 19.10426 76.72675 89.29479
#
# Poissons Ratio (x) = -0.29369 -0.03318
# Poissons Ratio (y) = -0.07313 0.11038
# Poissons Ratio (z) = -0.00710 0.09485
#
# Static dielectric constant tensor:
#      x y z
#    x 1.672510 0.000000 0.000000 
#    y 0.000000 1.739470 0.000000 
#    z 0.000000 0.000000 6.690570 
# 
# From -- ./inp_files/54346.got.cif
#   From: 2010.05.17/outbox.cif.g08.bks.cpg/sg71_28_cif.got.tgz:54346.got - 2010.06.03 16:22:01.
